AV-unprocessed.smi:1535|AV-procd|sdf|6170|dock3
  -GOLD-   22720 6323D 1   1.00000     0.00000
 Structure written by MMmdl.
 46 47  0  0  0  0  0  0  0  0  1 V2000
  153.2153  142.8666  161.4823 C   0  0  0  0  0  0  0  0  0  0  0  0
  152.5695  142.5128  160.1543 C   0  0  0  0  0  0  0  0  0  0  0  0
  152.5717  141.1661  159.7266 C   0  0  0  0  0  0  0  0  0  0  0  0
  151.9833  140.7953  158.4979 C   0  0  0  0  0  0  0  0  0  0  0  0
  151.8710  139.5549  157.8938 N   0  0  0  0  0  0  0  0  0  0  0  0
  151.2229  139.8602  156.7736 C   0  0  0  0  0  0  0  0  0  0  0  0
  150.9000  141.1534  156.5808 N   0  0  0  0  0  0  0  0  0  0  0  0
  150.1926  141.7131  155.4433 C   0  0  0  0  0  0  0  0  0  0  0  0
  149.2899  140.6771  154.7477 C   0  0  2  0  0  0  0  0  0  0  0  0
  150.1145  139.8704  153.9326 O   0  0  0  0  0  0  0  0  0  0  0  0
  148.2001  141.3195  153.8626 C   0  0  0  0  0  0  0  0  0  0  0  0
  146.9763  141.7767  154.5349 N   0  0  0  0  0  0  0  0  0  0  0  0
  146.1462  140.6180  154.8416 C   0  0  0  0  0  0  0  0  0  0  0  0
  146.2154  142.7419  153.7347 C   0  0  0  0  0  0  0  0  0  0  0  0
  145.3594  143.7306  154.5525 C   0  0  2  0  0  0  0  0  0  0  0  0
  144.3186  143.0025  155.4130 C   0  0  0  0  0  0  0  0  0  0  0  0
  144.7095  144.7176  153.6753 C   0  0  0  0  0  0  0  0  0  0  0  0
  144.1975  145.4923  152.9854 N   0  0  0  0  0  0  0  0  0  0  0  0
  151.3876  141.8171  157.7018 C   0  0  0  0  0  0  0  0  0  0  0  0
  151.3784  143.1606  158.1167 C   0  0  0  0  0  0  0  0  0  0  0  0
  151.9716  143.5137  159.3469 C   0  0  0  0  0  0  0  0  0  0  0  0
  151.9589  144.9674  159.7854 C   0  0  0  0  0  0  0  0  0  0  0  0
  153.5932  141.9792  161.9906 H   0  0  0  0  0  0  0  0  0  0  0  0
  152.4940  143.3480  162.1430 H   0  0  0  0  0  0  0  0  0  0  0  0
  154.0534  143.5470  161.3291 H   0  0  0  0  0  0  0  0  0  0  0  0
  153.0270  140.4034  160.3409 H   0  0  0  0  0  0  0  0  0  0  0  0
  150.9642  139.0993  156.0516 H   0  0  0  0  0  0  0  0  0  0  0  0
  149.6077  142.5705  155.7792 H   0  0  0  0  0  0  0  0  0  0  0  0
  150.9341  142.0982  154.7417 H   0  0  0  0  0  0  0  0  0  0  0  0
  148.8425  140.0580  155.5235 H   0  0  0  0  0  0  0  0  0  0  0  0
  149.6924  139.7675  153.0931 H   0  0  0  0  0  0  0  0  0  0  0  0
  148.6308  142.1648  153.3254 H   0  0  0  0  0  0  0  0  0  0  0  0
  147.9336  140.5946  153.0916 H   0  0  0  0  0  0  0  0  0  0  0  0
  145.2548  140.9149  155.3953 H   0  0  0  0  0  0  0  0  0  0  0  0
  146.6890  139.9029  155.4608 H   0  0  0  0  0  0  0  0  0  0  0  0
  145.8277  140.1075  153.9314 H   0  0  0  0  0  0  0  0  0  0  0  0
  146.9007  143.2902  153.0859 H   0  0  0  0  0  0  0  0  0  0  0  0
  145.5492  142.2184  153.0469 H   0  0  0  0  0  0  0  0  0  0  0  0
  145.9887  144.3067  155.2280 H   0  0  0  0  0  0  0  0  0  0  0  0
  143.7481  143.7092  156.0162 H   0  0  0  0  0  0  0  0  0  0  0  0
  144.7974  142.2972  156.0928 H   0  0  0  0  0  0  0  0  0  0  0  0
  143.6119  142.4473  154.7955 H   0  0  0  0  0  0  0  0  0  0  0  0
  150.9168  143.9124  157.4940 H   0  0  0  0  0  0  0  0  0  0  0  0
  151.4893  145.6051  159.0358 H   0  0  0  0  0  0  0  0  0  0  0  0
  152.9758  145.3284  159.9414 H   0  0  0  0  0  0  0  0  0  0  0  0
  151.4035  145.0804  160.7166 H   0  0  0  0  0  0  0  0  0  0  0  0
  1  2  1  0  0  0  0
  1 23  1  0  0  0  0
  1 24  1  0  0  0  0
  1 25  1  0  0  0  0
  2 21  1  0  0  0  0
  2  3  2  0  0  0  0
  3  4  1  0  0  0  0
  3 26  1  0  0  0  0
  4 19  2  0  0  0  0
  4  5  1  0  0  0  0
  5  6  2  0  0  0  0
  6  7  1  0  0  0  0
  6 27  1  0  0  0  0
  7  8  1  0  0  0  0
  7 19  1  0  0  0  0
  8  9  1  0  0  0  0
  8 28  1  0  0  0  0
  8 29  1  0  0  0  0
  9 10  1  0  0  0  0
  9 11  1  0  0  0  0
  9 30  1  0  0  0  0
 10 31  1  0  0  0  0
 11 12  1  0  0  0  0
 11 32  1  0  0  0  0
 11 33  1  0  0  0  0
 12 13  1  0  0  0  0
 12 14  1  0  0  0  0
 13 34  1  0  0  0  0
 13 35  1  0  0  0  0
 13 36  1  0  0  0  0
 14 15  1  0  0  0  0
 14 37  1  0  0  0  0
 14 38  1  0  0  0  0
 15 16  1  0  0  0  0
 15 17  1  0  0  0  0
 15 39  1  0  0  0  0
 16 40  1  0  0  0  0
 16 41  1  0  0  0  0
 16 42  1  0  0  0  0
 17 18  3  0  0  0  0
 19 20  1  0  0  0  0
 20 21  2  0  0  0  0
 20 43  1  0  0  0  0
 21 22  1  0  0  0  0
 22 44  1  0  0  0  0
 22 45  1  0  0  0  0
 22 46  1  0  0  0  0
M  END
> <s_m_source_file>
AV-unprocessed.smi

> <i_m_source_file_index>
1535

> <i_lp_mmshare_version>
43012

> <i_f3d_flags>
0

> <s_epik_input>
W0NIM11jKFtjSF0xKWMoW0NIM10pW2NIXWMoYzEyKW4oW2NIXW4yKVtDSDJdW0NASF0oW09IXSlbQ0gyXU4oW0NIM10pW0NIMl1bQ0BIXShbQ0gzXSlDI04=

> <s_epik_cmdline>
J2VwaWtfcHl0aG9uJywgJy1waCcsICc3LjAnLCAnLXRuJywgJzgnLCAnLW1hJywgJzIwMCcsICctbWV0YWxfYmluZGluZycsICctaW1hZScsICc8aW5maWxlLm1hZT4nLCAnLW9tYWUnLCAnPG91dGZpbGUubWFlPic=

> <r_epik_Ionization_Penalty>
0.098511

> <r_epik_Ionization_Penalty_Charging>
0

> <r_epik_Ionization_Penalty_Neutral>
0.098511

> <r_epik_State_Penalty>
0.0881608

> <r_epik_Charging_Adjusted_Penalty>
0.0881608

> <i_epik_Tot_Q>
0

> <i_epik_Tot_abs_Q>
0

> <r_epik_Metal_State_Penalty>
0.0128087

> <b_epik_Metal_Only>
0

> <s_lp_Force_Field>
OPLS_2005

> <r_lp_Energy>
27.6844

> <b_lp_Chiralities_Consistent>
1

> <s_lp_Variant>
AV-unprocessed.smi:1535-1

> <Gold.Version>
5.8.1

> <Gold.Id.Protein>
6NUR|6NUR_protein|mol2

> <Gold.PLP.Fitness>
55.8446

> <Gold.PLP.PLP>
-52.2039

> <Gold.PLP.part.hbond>
-3.0000

> <Gold.PLP.part.metal>
0.0000

> <Gold.PLP.part.buried>
-7.8949

> <Gold.PLP.part.nonpolar>
-41.0690

> <Gold.PLP.part.repulsive>
0.2722

> <Gold.PLP.ligand.clash>
0.0000

> <Gold.PLP.ligand.torsion>
1.2180

> <Gold.PLP.Chemscore.Hbond>
1.9600

> <Gold.PLP.Chemscore.CHOScore>
0.0000

> <Gold.PLP.Chemscore.Metal>
0.0000

> <Gold.Chemscore.Hbonds>
donor molecule, donor type, donor heavy atom, donor atom, acceptor molecule, acceptor atom, score
      L1  H    10    31       P1  7957  1.00
      P1  H  7989  7998       L1    10  0.94

> <Gold.PLP.Chemscore.Internal.Correction>
0.1967

> <Gold.Rescore>
     Score         DG    S(hbond)    S(metal)    S(lipo)     H(rot)  DE(clash)    DE(int)     intcor
     16.53     -18.05       1.43        0.00     121.43       2.51       0.12       1.40       ----

> <Gold.Chemscore.Fitness>
16.5266

> <Gold.Chemscore.DG>
-18.0459

> <Gold.Chemscore.ZeroCoef>
-5.4800

> <Gold.Chemscore.Hbond>
1.4333

> <Gold.Chemscore.Metal>
0.0000

> <Gold.Chemscore.Lipo>
121.4317

> <Gold.Chemscore.Internal_Hbond>
0.0000

> <Gold.Chemscore.DEClash>
0.1192

> <Gold.Chemscore.DEInternal>
1.4002

> <Gold.Chemscore.Rot>
2.5113

> <Gold.Chemscore.Internal.Correction>
   9.000000E+99

> <Gold.Chemscore.Hbonds>
donor molecule, donor type, donor heavy atom, donor atom, acceptor molecule, acceptor atom, score
      L1  H    10    31       P1  7957  0.95
      P1  H  7989  7998       L1    10  0.18

> <Gold.Chemscore.Hbond.Weighted>
-4.7873

> <Gold.Chemscore.Metal.Weighted>
-0.0000

> <Gold.Chemscore.Lipo.Weighted>
-14.2075

> <Gold.Chemscore.Internal_Hbond.Weighted>
0.0000

> <Gold.Chemscore.DEClash.Weighted>
0.1192

> <Gold.Chemscore.DEInternal.Weighted>
1.4002

> <Gold.Chemscore.Rot.Weighted>
6.4289

> <Gold.Chemscore.Internal.Correction.Weighted>
   9.000000E+99

> <Gold.Protein.RotatedTorsions>
[ 6907 6896 6895 6894 ] final   88.30 input  -60.11 | X-H torsion
[ 7974 7965 7964 7962 ] final  153.93 input  175.53 | X-H torsion
[ 8008 7997 7996 7995 ] final  -74.57 input   59.86 | X-H torsion
[ 10167 10162 10161 10158 ] final  -34.99 input  -65.29 | X-H torsion
[ 10718 10713 10712 10709 ] final  155.42 input   66.30 | X-H torsion
[ 10763 10752 10751 10750 ] final   17.94 input  -60.55 | X-H torsion
[ 11005 11000 10999 10996 ] final   33.69 input  -57.11 | X-H torsion

> <Gold.Protein.ActiveResidues>
 VAL166  LYS551  ARG553  GLY616  TRP617  ASP618  TYR619  PRO620  LYS621  CYS622 
 ASP623  PHE694  ASN695  SER759  ASP760  ASP761  ALA762  ILE779  LEU786  VAL792 
 PHE793  MET794  SER795  GLU796  ALA797  LYS798  CYS799  TRP800  GLU811  SER814 

> <Gold.Protein.RotatedAtoms>
  152.5423  134.2143  159.8762 H   0  0  0  0  0  0  0  0  0  0  0  0  # atno 6907 bound_to 6896
  151.2124  133.4541  159.2606 H   0  0  0  0  0  0  0  0  0  0  0  0  # atno 6908 bound_to 6896
  151.0884  134.9914  159.8446 H   0  0  0  0  0  0  0  0  0  0  0  0  # atno 6909 bound_to 6896
  144.8122  139.6866  143.6137 H   0  0  0  0  0  0  0  0  0  0  0  0  # atno 7974 bound_to 7965
  154.5342  140.0759  156.8398 H   0  0  0  0  0  0  0  0  0  0  0  0  # atno 8008 bound_to 7997
  155.3313  140.3402  155.4221 H   0  0  0  0  0  0  0  0  0  0  0  0  # atno 8009 bound_to 7997
  156.1811  140.1652  156.8258 H   0  0  0  0  0  0  0  0  0  0  0  0  # atno 8010 bound_to 7997
  140.7174  143.3509  151.2158 H   0  0  0  0  0  0  0  0  0  0  0  0  # atno 10167 bound_to 10162
  157.2186  131.0713  151.1926 H   0  0  0  0  0  0  0  0  0  0  0  0  # atno 10718 bound_to 10713
  153.1294  135.6737  153.9204 H   0  0  0  0  0  0  0  0  0  0  0  0  # atno 10763 bound_to 10752
  153.8695  135.3071  155.3442 H   0  0  0  0  0  0  0  0  0  0  0  0  # atno 10764 bound_to 10752
  154.7693  135.4947  153.9699 H   0  0  0  0  0  0  0  0  0  0  0  0  # atno 10765 bound_to 10752
  140.2605  134.3198  155.7859 H   0  0  0  0  0  0  0  0  0  0  0  0  # atno 11005 bound_to 11000
  146.2421  139.6023  142.9484 LP  0  0  0  0  0  0  0  0  0  0  0  0  # atno 17320 bound_to 7965
  145.5298  141.0427  143.2389 LP  0  0  0  0  0  0  0  0  0  0  0  0  # atno 17321 bound_to 7965
  139.7039  143.9487  152.2918 LP  0  0  0  0  0  0  0  0  0  0  0  0  # atno 17342 bound_to 10162
  139.9190  144.6811  150.8482 LP  0  0  0  0  0  0  0  0  0  0  0  0  # atno 17343 bound_to 10162
  157.3599  130.7126  149.6495 LP  0  0  0  0  0  0  0  0  0  0  0  0  # atno 17370 bound_to 10713
  155.9684  130.4228  150.4534 LP  0  0  0  0  0  0  0  0  0  0  0  0  # atno 17371 bound_to 10713
  141.2191  133.7407  156.9179 LP  0  0  0  0  0  0  0  0  0  0  0  0  # atno 17394 bound_to 11000
  140.1469  134.9256  157.2541 LP  0  0  0  0  0  0  0  0  0  0  0  0  # atno 17395 bound_to 11000

$$$$
