AV-unprocessed.smi:3058|AV-procd|sdf|11675|dock1
  -GOLD-   2272017 83D 1   1.00000     0.00000
 Structure written by MMmdl.
 39 41  0  0  0  0  0  0  0  0  2 V2000
  148.9517  141.9120  158.7599 O   0  0  0  0  0  0  0  0  0  0  0  0
  149.7196  142.6561  158.1485 C   0  0  0  0  0  0  0  0  0  0  0  0
  150.1386  142.4021  156.8991 N   0  0  0  0  0  0  0  0  0  0  0  0
  149.7439  141.2457  156.1039 C   0  0  0  0  0  0  0  0  0  0  0  0
  148.9692  141.6638  154.8431 C   0  0  0  0  0  0  0  0  0  0  0  0
  147.8876  140.6656  154.4799 C   0  0  0  0  0  0  0  0  0  0  0  0
  146.6227  140.7187  155.1063 C   0  0  0  0  0  0  0  0  0  0  0  0
  145.6337  139.7794  154.7470 C   0  0  0  0  0  0  0  0  0  0  0  0
  145.9315  138.8090  153.7684 C   0  0  0  0  0  0  0  0  0  0  0  0
  147.1527  138.7900  153.1901 N   0  3  0  0  0  0  0  0  0  0  0  0
  148.1269  139.6712  153.5068 C   0  0  0  0  0  0  0  0  0  0  0  0
  150.2810  143.9303  158.8042 C   0  0  2  0  0  0  0  0  0  0  0  0
  151.1918  144.7834  157.8865 C   0  0  0  0  0  0  0  0  0  0  0  0
  152.4670  144.9607  158.7324 C   0  0  2  0  0  0  0  0  0  0  0  0
  153.2460  143.6327  158.7737 C   0  0  0  0  0  0  0  0  0  0  0  0
  152.3946  142.7697  159.7228 C   0  0  0  0  0  0  0  0  0  0  0  0
  151.1944  143.6906  160.0358 C   0  0  1  0  0  0  0  0  0  0  0  0
  151.8984  145.0402  160.1445 C   0  0  0  0  0  0  0  0  0  0  0  0
  150.7737  143.0592  156.4691 H   0  0  0  0  0  0  0  0  0  0  0  0
  150.6257  140.6605  155.8366 H   0  0  0  0  0  0  0  0  0  0  0  0
  149.1219  140.6029  156.7272 H   0  0  0  0  0  0  0  0  0  0  0  0
  148.5132  142.6436  154.9914 H   0  0  0  0  0  0  0  0  0  0  0  0
  149.6492  141.7677  153.9962 H   0  0  0  0  0  0  0  0  0  0  0  0
  146.4108  141.4710  155.8527 H   0  0  0  0  0  0  0  0  0  0  0  0
  144.6604  139.8040  155.2154 H   0  0  0  0  0  0  0  0  0  0  0  0
  145.2355  138.0540  153.4327 H   0  0  0  0  0  0  0  0  0  0  0  0
  149.0600  139.5553  152.9747 H   0  0  0  0  0  0  0  0  0  0  0  0
  149.4381  144.5506  159.1157 H   0  0  0  0  0  0  0  0  0  0  0  0
  151.4079  144.3306  156.9179 H   0  0  0  0  0  0  0  0  0  0  0  0
  150.7269  145.7509  157.6921 H   0  0  0  0  0  0  0  0  0  0  0  0
  153.0752  145.8140  158.4308 H   0  0  0  0  0  0  0  0  0  0  0  0
  153.3475  143.1850  157.7844 H   0  0  0  0  0  0  0  0  0  0  0  0
  154.2472  143.7774  159.1812 H   0  0  0  0  0  0  0  0  0  0  0  0
  152.1173  141.8088  159.2914 H   0  0  0  0  0  0  0  0  0  0  0  0
  152.9524  142.5571  160.6358 H   0  0  0  0  0  0  0  0  0  0  0  0
  150.6456  143.4010  160.9324 H   0  0  0  0  0  0  0  0  0  0  0  0
  152.6665  145.0699  160.9198 H   0  0  0  0  0  0  0  0  0  0  0  0
  151.2140  145.8781  160.2892 H   0  0  0  0  0  0  0  0  0  0  0  0
  147.3473  138.0800  152.4834 H   0  0  0  0  0  0  0  0  0  0  0  0
  1  2  2  0  0  0  0
  2  3  1  0  0  0  0
  2 12  1  0  0  0  0
  3  4  1  0  0  0  0
  3 19  1  0  0  0  0
  4  5  1  0  0  0  0
  4 20  1  0  0  0  0
  4 21  1  0  0  0  0
  5  6  1  0  0  0  0
  5 22  1  0  0  0  0
  5 23  1  0  0  0  0
  6 11  1  0  0  0  0
  6  7  2  0  0  0  0
  7  8  1  0  0  0  0
  7 24  1  0  0  0  0
  8  9  2  0  0  0  0
  8 25  1  0  0  0  0
  9 10  1  0  0  0  0
  9 26  1  0  0  0  0
 10 11  2  0  0  0  0
 10 39  1  0  0  0  0
 11 27  1  0  0  0  0
 12 17  1  0  0  0  0
 12 13  1  0  0  0  0
 12 28  1  0  0  0  0
 13 14  1  0  0  0  0
 13 29  1  0  0  0  0
 13 30  1  0  0  0  0
 14 18  1  0  0  0  0
 14 15  1  0  0  0  0
 14 31  1  0  0  0  0
 15 16  1  0  0  0  0
 15 32  1  0  0  0  0
 15 33  1  0  0  0  0
 16 17  1  0  0  0  0
 16 34  1  0  0  0  0
 16 35  1  0  0  0  0
 17 18  1  0  0  0  0
 17 36  1  0  0  0  0
 18 37  1  0  0  0  0
 18 38  1  0  0  0  0
M  CHG  1  10   1
M  END
> <s_m_source_file>
AV-unprocessed.smi

> <i_m_source_file_index>
3058

> <i_lp_mmshare_version>
43012

> <i_f3d_flags>
0

> <s_epik_input>
W0NIMl0xW0NIMl1bQ0BIXShbQ0gyXTIpW0NAQEhdKFtDSDJdW0NAQEhdMTIpQyg9TylbTkhdW0NIMl1bQ0gyXWMzW2NIXVtjSF1bY0hdbltjSF0z

> <s_epik_cmdline>
J2VwaWtfcHl0aG9uJywgJy1waCcsICc3LjAnLCAnLXRuJywgJzgnLCAnLW1hJywgJzIwMCcsICctbWV0YWxfYmluZGluZycsICctaW1hZScsICc8aW5maWxlLm1hZT4nLCAnLW9tYWUnLCAnPG91dGZpbGUubWFlPic=

> <r_epik_Ionization_Penalty>
2.24375

> <r_epik_Ionization_Penalty_Charging>
2.24375

> <r_epik_Ionization_Penalty_Neutral>
1.89995e-08

> <r_epik_State_Penalty>
2.39035

> <r_epik_Charging_Adjusted_Penalty>
4.63411

> <i_epik_Tot_Q>
1

> <i_epik_Tot_abs_Q>
1

> <r_epik_Metal_State_Penalty>
2.40369

> <b_epik_Metal_Only>
0

> <s_lp_Force_Field>
OPLS_2005

> <r_lp_Energy>
54.0755

> <b_lp_Chiralities_Consistent>
1

> <s_lp_Variant>
AV-unprocessed.smi:3058-7

> <Gold.Version>
5.8.1

> <Gold.Id.Protein>
6NUR|6NUR_protein|mol2

> <Gold.PLP.Fitness>
41.2903

> <Gold.PLP.PLP>
-36.4691

> <Gold.PLP.part.hbond>
-3.5331

> <Gold.PLP.part.metal>
0.0000

> <Gold.PLP.part.buried>
1.1991

> <Gold.PLP.part.nonpolar>
-33.9987

> <Gold.PLP.part.repulsive>
0.1618

> <Gold.PLP.ligand.clash>
0.0000

> <Gold.PLP.ligand.torsion>
0.5971

> <Gold.PLP.Chemscore.Hbond>
2.0000

> <Gold.PLP.Chemscore.CHOScore>
0.0000

> <Gold.PLP.Chemscore.Metal>
0.0000

> <Gold.PLP.Chemscore.Internal.Correction>
0.0154

> <Gold.Rescore>
     Score         DG    S(hbond)    S(metal)    S(lipo)     H(rot)  DE(clash)    DE(int)     intcor
     16.72     -19.07       1.00        0.00     119.57       1.45       1.74       0.61       ----

> <Gold.Chemscore.Fitness>
16.7220

> <Gold.Chemscore.DG>
-19.0698

> <Gold.Chemscore.ZeroCoef>
-5.4800

> <Gold.Chemscore.Hbond>
0.9955

> <Gold.Chemscore.Metal>
0.0000

> <Gold.Chemscore.Lipo>
119.5656

> <Gold.Chemscore.Internal_Hbond>
0.0000

> <Gold.Chemscore.DEClash>
1.7407

> <Gold.Chemscore.DEInternal>
0.6071

> <Gold.Chemscore.Rot>
1.4548

> <Gold.Chemscore.Internal.Correction>
   9.000000E+99

> <Gold.Chemscore.Hbonds>
donor molecule, donor type, donor heavy atom, donor atom, acceptor molecule, acceptor atom, score
      L1  H    10    39       P1  7948  0.01

> <Gold.Chemscore.Hbond.Weighted>
-3.3249

> <Gold.Chemscore.Metal.Weighted>
-0.0000

> <Gold.Chemscore.Lipo.Weighted>
-13.9892

> <Gold.Chemscore.Internal_Hbond.Weighted>
0.0000

> <Gold.Chemscore.DEClash.Weighted>
1.7407

> <Gold.Chemscore.DEInternal.Weighted>
0.6071

> <Gold.Chemscore.Rot.Weighted>
3.7242

> <Gold.Chemscore.Internal.Correction.Weighted>
   9.000000E+99

> <Gold.Protein.RotatedTorsions>
[ 6907 6896 6895 6894 ] final   -7.56 input  -60.11 | X-H torsion
[ 7974 7965 7964 7962 ] final   71.10 input  175.53 | X-H torsion
[ 8008 7997 7996 7995 ] final  150.71 input   59.86 | X-H torsion
[ 10167 10162 10161 10158 ] final  -48.74 input  -65.29 | X-H torsion
[ 10718 10713 10712 10709 ] final  132.22 input   66.30 | X-H torsion
[ 10763 10752 10751 10750 ] final  -16.85 input  -60.55 | X-H torsion
[ 11005 11000 10999 10996 ] final   67.38 input  -57.11 | X-H torsion

> <Gold.Protein.ActiveResidues>
 VAL166  LYS551  ARG553  GLY616  TRP617  ASP618  TYR619  PRO620  LYS621  CYS622 
 ASP623  PHE694  ASN695  SER759  ASP760  ASP761  ALA762  ILE779  LEU786  VAL792 
 PHE793  MET794  SER795  GLU796  ALA797  LYS798  CYS799  TRP800  GLU811  SER814 

> <Gold.Protein.RotatedAtoms>
  151.4476  135.1026  159.9688 H   0  0  0  0  0  0  0  0  0  0  0  0  # atno 6907 bound_to 6896
  152.4900  133.8470  159.7192 H   0  0  0  0  0  0  0  0  0  0  0  0  # atno 6908 bound_to 6896
  150.9044  133.7017  159.2898 H   0  0  0  0  0  0  0  0  0  0  0  0  # atno 6909 bound_to 6896
  145.7700  139.2839  143.1327 H   0  0  0  0  0  0  0  0  0  0  0  0  # atno 7974 bound_to 7965
  156.2704  140.2067  156.6061 H   0  0  0  0  0  0  0  0  0  0  0  0  # atno 8008 bound_to 7997
  154.6868  140.0534  157.0347 H   0  0  0  0  0  0  0  0  0  0  0  0  # atno 8009 bound_to 7997
  155.0922  140.3197  155.4573 H   0  0  0  0  0  0  0  0  0  0  0  0  # atno 8010 bound_to 7997
  140.6717  143.2727  151.4114 H   0  0  0  0  0  0  0  0  0  0  0  0  # atno 10167 bound_to 10162
  157.4892  131.1090  150.9579 H   0  0  0  0  0  0  0  0  0  0  0  0  # atno 10718 bound_to 10713
  153.5648  135.7009  153.5531 H   0  0  0  0  0  0  0  0  0  0  0  0  # atno 10763 bound_to 10752
  153.3397  135.4024  155.1562 H   0  0  0  0  0  0  0  0  0  0  0  0  # atno 10764 bound_to 10752
  154.8642  135.3739  154.5167 H   0  0  0  0  0  0  0  0  0  0  0  0  # atno 10765 bound_to 10752
  139.9774  134.6799  156.0327 H   0  0  0  0  0  0  0  0  0  0  0  0  # atno 11005 bound_to 11000
  146.0180  140.8375  142.9938 LP  0  0  0  0  0  0  0  0  0  0  0  0  # atno 17320 bound_to 7965
  144.6814  140.2586  143.7322 LP  0  0  0  0  0  0  0  0  0  0  0  0  # atno 17321 bound_to 7965
  139.5989  144.1338  152.2176 LP  0  0  0  0  0  0  0  0  0  0  0  0  # atno 17342 bound_to 10162
  140.0716  144.5775  150.7188 LP  0  0  0  0  0  0  0  0  0  0  0  0  # atno 17343 bound_to 10162
  157.0286  130.5702  149.5340 LP  0  0  0  0  0  0  0  0  0  0  0  0  # atno 17370 bound_to 10713
  156.0164  130.5258  150.8147 LP  0  0  0  0  0  0  0  0  0  0  0  0  # atno 17371 bound_to 10713
  141.1450  133.6557  156.3841 LP  0  0  0  0  0  0  0  0  0  0  0  0  # atno 17394 bound_to 11000
  140.5166  134.6344  157.5303 LP  0  0  0  0  0  0  0  0  0  0  0  0  # atno 17395 bound_to 11000

$$$$
