AV-unprocessed.smi:11|AV-procd|sdf|57|dock3
  -GOLD-   2262015173D 1   1.00000     0.00000
 Structure written by MMmdl.
 34 36  0  0  0  0  0  0  0  0  2 V2000
  155.2557  136.9834  158.7446 C   0  0  0  0  0  0  0  0  0  0  0  0
  153.9420  137.6914  158.3735 C   0  0  0  0  0  0  0  0  0  0  0  0
  153.0205  138.0465  159.5670 C   0  0  1  0  0  0  0  0  0  0  0  0
  152.6242  136.8477  160.2036 O   0  0  0  0  0  0  0  0  0  0  0  0
  153.6472  139.0278  160.5696 C   0  0  0  0  0  0  0  0  0  0  0  0
  153.3485  140.3934  159.9538 C   0  0  0  0  0  0  0  0  0  0  0  0
  152.0644  140.2252  159.2882 N   0  0  0  0  0  0  0  0  0  0  0  0
  151.5608  141.2019  158.4058 C   0  0  0  0  0  0  0  0  0  0  0  0
  150.7219  140.7921  157.4148 N   0  0  0  0  0  0  0  0  0  0  0  0
  150.1857  141.6407  156.5263 C   0  0  0  0  0  0  0  0  0  0  0  0
  150.4367  142.9534  156.5386 N   0  3  0  0  0  0  0  0  0  0  0  0
  151.2800  143.4049  157.5010 C   0  0  0  0  0  0  0  0  0  0  0  0
  151.7112  144.6947  157.7304 N   0  0  0  0  0  0  0  0  0  0  0  0
  152.5787  144.7185  158.8086 C   0  0  0  0  0  0  0  0  0  0  0  0
  152.7215  143.4433  159.2957 C   0  0  0  0  0  0  0  0  0  0  0  0
  151.8948  142.5855  158.4829 C   0  0  0  0  0  0  0  0  0  0  0  0
  151.7726  138.8117  159.0901 C   0  0  0  0  0  0  0  0  0  0  0  0
  151.4565  145.5197  157.2058 H   0  0  0  0  0  0  0  0  0  0  0  0
  155.8165  136.7264  157.8459 H   0  0  0  0  0  0  0  0  0  0  0  0
  155.0729  136.0576  159.2902 H   0  0  0  0  0  0  0  0  0  0  0  0
  155.8995  137.6139  159.3565 H   0  0  0  0  0  0  0  0  0  0  0  0
  154.1801  138.5951  157.8113 H   0  0  0  0  0  0  0  0  0  0  0  0
  153.3940  137.0508  157.6810 H   0  0  0  0  0  0  0  0  0  0  0  0
  153.1557  136.7266  160.9757 H   0  0  0  0  0  0  0  0  0  0  0  0
  153.1350  138.9556  161.5307 H   0  0  0  0  0  0  0  0  0  0  0  0
  154.7085  138.8699  160.7568 H   0  0  0  0  0  0  0  0  0  0  0  0
  153.3085  141.1778  160.7102 H   0  0  0  0  0  0  0  0  0  0  0  0
  154.1159  140.6562  159.2245 H   0  0  0  0  0  0  0  0  0  0  0  0
  149.5200  141.2777  155.7570 H   0  0  0  0  0  0  0  0  0  0  0  0
  153.0280  145.6431  159.1415 H   0  0  0  0  0  0  0  0  0  0  0  0
  153.3368  143.1388  160.1292 H   0  0  0  0  0  0  0  0  0  0  0  0
  151.5350  138.5776  158.0517 H   0  0  0  0  0  0  0  0  0  0  0  0
  150.9035  138.5617  159.7002 H   0  0  0  0  0  0  0  0  0  0  0  0
  150.0236  143.5902  155.8573 H   0  0  0  0  0  0  0  0  0  0  0  0
  1  2  1  0  0  0  0
  1 19  1  0  0  0  0
  1 20  1  0  0  0  0
  1 21  1  0  0  0  0
  2  3  1  0  0  0  0
  2 22  1  0  0  0  0
  2 23  1  0  0  0  0
  3 17  1  0  0  0  0
  3  4  1  0  0  0  0
  3  5  1  0  0  0  0
  4 24  1  0  0  0  0
  5  6  1  0  0  0  0
  5 25  1  0  0  0  0
  5 26  1  0  0  0  0
  6  7  1  0  0  0  0
  6 27  1  0  0  0  0
  6 28  1  0  0  0  0
  7  8  1  0  0  0  0
  7 17  1  0  0  0  0
  8 16  1  0  0  0  0
  8  9  2  0  0  0  0
  9 10  1  0  0  0  0
 10 11  2  0  0  0  0
 10 29  1  0  0  0  0
 11 12  1  0  0  0  0
 11 34  1  0  0  0  0
 12 16  2  0  0  0  0
 12 13  1  0  0  0  0
 13 18  1  0  0  0  0
 13 14  1  0  0  0  0
 14 15  2  0  0  0  0
 14 30  1  0  0  0  0
 15 16  1  0  0  0  0
 15 31  1  0  0  0  0
 17 32  1  0  0  0  0
 17 33  1  0  0  0  0
M  CHG  1  11   1
M  END
> <s_m_source_file>
AV-unprocessed.smi

> <i_m_source_file_index>
11

> <i_lp_mmshare_version>
43012

> <i_f3d_flags>
0

> <s_epik_input>
W0NIM11bQ0gyXVtDQEBdMShbT0hdKVtDSDJdW0NIMl1OKFtDSDJdMSljKG5bY0hdbjIpYyhjMjMpW2NIXVtjSF1bbkhdMw==

> <s_epik_cmdline>
J2VwaWtfcHl0aG9uJywgJy1waCcsICc3LjAnLCAnLXRuJywgJzgnLCAnLW1hJywgJzIwMCcsICctbWV0YWxfYmluZGluZycsICctaW1hZScsICc8aW5maWxlLm1hZT4nLCAnLW9tYWUnLCAnPG91dGZpbGUubWFlPic=

> <r_lp_tautomer_probability>
1.75997e-05

> <r_epik_Ionization_Penalty>
1.53257

> <r_epik_Ionization_Penalty_Charging>
1.53255

> <r_epik_Ionization_Penalty_Neutral>
1.78556e-05

> <r_epik_State_Penalty>
1.6253

> <r_epik_Charging_Adjusted_Penalty>
3.15785

> <i_epik_Tot_Q>
1

> <i_epik_Tot_abs_Q>
1

> <r_epik_Metal_State_Penalty>
1.66891

> <b_epik_Metal_Only>
0

> <s_lp_Force_Field>
OPLS_2005

> <r_lp_Energy>
33.1489

> <b_lp_Chiralities_Consistent>
1

> <s_lp_Variant>
AV-unprocessed.smi:11-3

> <Gold.Version>
5.8.1

> <Gold.Id.Protein>
6NUR|6NUR_protein|mol2

> <Gold.PLP.Fitness>
39.4324

> <Gold.PLP.PLP>
-30.5324

> <Gold.PLP.part.hbond>
-2.0000

> <Gold.PLP.part.metal>
0.0000

> <Gold.PLP.part.buried>
-5.4668

> <Gold.PLP.part.nonpolar>
-23.3728

> <Gold.PLP.part.repulsive>
0.1149

> <Gold.PLP.ligand.clash>
0.0000

> <Gold.PLP.ligand.torsion>
0.1686

> <Gold.PLP.Chemscore.Hbond>
3.0000

> <Gold.PLP.Chemscore.CHOScore>
0.0000

> <Gold.PLP.Chemscore.Metal>
0.0000

> <Gold.Chemscore.Hbonds>
donor molecule, donor type, donor heavy atom, donor atom, acceptor molecule, acceptor atom, score
      L1  H    11    34       P1  8028  1.76
      P1  H  6896  6909       L1     4  0.90

> <Gold.PLP.Chemscore.Internal.Correction>
0.2371

> <Gold.Rescore>
     Score         DG    S(hbond)    S(metal)    S(lipo)     H(rot)  DE(clash)    DE(int)     intcor
     15.98     -16.11       1.93        0.00      67.17       1.44       0.00       0.13       ----

> <Gold.Chemscore.Fitness>
15.9818

> <Gold.Chemscore.DG>
-16.1110

> <Gold.Chemscore.ZeroCoef>
-5.4800

> <Gold.Chemscore.Hbond>
1.9332

> <Gold.Chemscore.Metal>
0.0000

> <Gold.Chemscore.Lipo>
67.1679

> <Gold.Chemscore.Internal_Hbond>
0.0000

> <Gold.Chemscore.DEClash>
0.0000

> <Gold.Chemscore.DEInternal>
0.1292

> <Gold.Chemscore.Rot>
1.4392

> <Gold.Chemscore.Internal.Correction>
   9.000000E+99

> <Gold.Chemscore.Hbonds>
donor molecule, donor type, donor heavy atom, donor atom, acceptor molecule, acceptor atom, score
      L1  H    11    34       P1  8028  0.86
      P1  H  6896  6909       L1     4  0.18

> <Gold.Chemscore.Hbond.Weighted>
-6.4568

> <Gold.Chemscore.Metal.Weighted>
-0.0000

> <Gold.Chemscore.Lipo.Weighted>
-7.8586

> <Gold.Chemscore.Internal_Hbond.Weighted>
0.0000

> <Gold.Chemscore.DEClash.Weighted>
0.0000

> <Gold.Chemscore.DEInternal.Weighted>
0.1292

> <Gold.Chemscore.Rot.Weighted>
3.6844

> <Gold.Chemscore.Internal.Correction.Weighted>
   9.000000E+99

> <Gold.Protein.RotatedTorsions>
[ 6907 6896 6895 6894 ] final  144.51 input  -60.11 | X-H torsion
[ 7974 7965 7964 7962 ] final -144.52 input  175.53 | X-H torsion
[ 8008 7997 7996 7995 ] final  121.02 input   59.86 | X-H torsion
[ 10167 10162 10161 10158 ] final  -24.70 input  -65.29 | X-H torsion
[ 10718 10713 10712 10709 ] final  -70.24 input   66.30 | X-H torsion
[ 10763 10752 10751 10750 ] final -105.65 input  -60.55 | X-H torsion
[ 11005 11000 10999 10996 ] final   43.59 input  -57.11 | X-H torsion

> <Gold.Protein.ActiveResidues>
 VAL166  LYS551  ARG553  GLY616  TRP617  ASP618  TYR619  PRO620  LYS621  CYS622 
 ASP623  PHE694  ASN695  SER759  ASP760  ASP761  ALA762  ILE779  LEU786  VAL792 
 PHE793  MET794  SER795  GLU796  ALA797  LYS798  CYS799  TRP800  GLU811  SER814 

> <Gold.Protein.RotatedAtoms>
  152.1927  133.4784  159.5016 H   0  0  0  0  0  0  0  0  0  0  0  0  # atno 6907 bound_to 6896
  150.6954  134.1692  159.4215 H   0  0  0  0  0  0  0  0  0  0  0  0  # atno 6908 bound_to 6896
  151.9607  135.0125  160.0598 H   0  0  0  0  0  0  0  0  0  0  0  0  # atno 6909 bound_to 6896
  144.8292  140.5700  143.5527 H   0  0  0  0  0  0  0  0  0  0  0  0  # atno 7974 bound_to 7965
  156.2668  140.2818  156.1241 H   0  0  0  0  0  0  0  0  0  0  0  0  # atno 8008 bound_to 7997
  155.1124  140.0391  157.2745 H   0  0  0  0  0  0  0  0  0  0  0  0  # atno 8009 bound_to 7997
  154.6732  140.2592  155.6991 H   0  0  0  0  0  0  0  0  0  0  0  0  # atno 8010 bound_to 7997
  140.7288  143.4330  151.0773 H   0  0  0  0  0  0  0  0  0  0  0  0  # atno 10167 bound_to 10162
  156.0417  130.4327  150.2266 H   0  0  0  0  0  0  0  0  0  0  0  0  # atno 10718 bound_to 10713
  154.7961  135.4741  154.0164 H   0  0  0  0  0  0  0  0  0  0  0  0  # atno 10763 bound_to 10752
  153.1705  135.6824  153.8621 H   0  0  0  0  0  0  0  0  0  0  0  0  # atno 10764 bound_to 10752
  153.8205  135.3205  155.3387 H   0  0  0  0  0  0  0  0  0  0  0  0  # atno 10765 bound_to 10752
  140.1630  134.4317  155.8305 H   0  0  0  0  0  0  0  0  0  0  0  0  # atno 11005 bound_to 11000
  145.4933  139.1487  143.3697 LP  0  0  0  0  0  0  0  0  0  0  0  0  # atno 17320 bound_to 7965
  146.2596  140.5072  142.8859 LP  0  0  0  0  0  0  0  0  0  0  0  0  # atno 17321 bound_to 7965
  139.7989  143.8112  152.3160 LP  0  0  0  0  0  0  0  0  0  0  0  0  # atno 17342 bound_to 10162
  139.8122  144.7331  150.9682 LP  0  0  0  0  0  0  0  0  0  0  0  0  # atno 17343 bound_to 10162
  157.0360  131.0021  151.3298 LP  0  0  0  0  0  0  0  0  0  0  0  0  # atno 17370 bound_to 10713
  157.5243  130.8018  149.7844 LP  0  0  0  0  0  0  0  0  0  0  0  0  # atno 17371 bound_to 10713
  141.2211  133.6922  156.7628 LP  0  0  0  0  0  0  0  0  0  0  0  0  # atno 17394 bound_to 11000
  140.2467  134.8572  157.3627 LP  0  0  0  0  0  0  0  0  0  0  0  0  # atno 17395 bound_to 11000

$$$$
