AV-unprocessed.smi:1403|AV-procd|sdf|5704|dock4
  -GOLD-   22720 5333D 1   1.00000     0.00000
 Structure written by MMmdl.
 35 36  0  0  0  0  0  0  0  0  2 V2000
  151.5202  144.8531  159.0930 C   0  0  0  0  0  0  0  0  0  0  0  0
  150.8730  143.4639  158.9817 C   0  0  1  0  0  0  0  0  0  0  0  0
  150.8694  143.0662  157.5760 N   0  0  0  0  0  0  0  0  0  0  0  0
  150.2426  141.9949  157.0657 C   0  0  0  0  0  0  0  0  0  0  0  0
  149.5883  141.2037  157.7464 O   0  0  0  0  0  0  0  0  0  0  0  0
  150.4165  141.7711  155.5576 C   0  0  0  0  0  0  0  0  0  0  0  0
  149.2906  141.0425  154.9517 N   0  0  0  0  0  0  0  0  0  0  0  0
  148.0262  141.6570  154.9734 C   0  0  0  0  0  0  0  0  0  0  0  0
  146.9402  141.0660  154.4399 C   0  0  0  0  0  0  0  0  0  0  0  0
  147.0995  139.7526  153.8282 C   0  0  0  0  0  0  0  0  0  0  0  0
  146.1175  139.1954  153.3414 O   0  0  0  0  0  0  0  0  0  0  0  0
  148.3479  139.2000  153.8275 N   0  5  0  0  0  0  0  0  0  0  0  0
  149.4444  139.8143  154.3707 C   0  0  0  0  0  0  0  0  0  0  0  0
  150.5630  139.2991  154.3563 O   0  0  0  0  0  0  0  0  0  0  0  0
  151.6090  142.4015  159.8254 C   0  0  1  0  0  0  0  0  0  0  0  0
  153.1133  142.3078  159.5583 C   0  0  0  0  0  0  0  0  0  0  0  0
  153.6267  141.7467  160.8640 C   0  0  0  0  0  0  0  0  0  0  0  0
  152.7524  142.4803  161.8739 C   0  0  0  0  0  0  0  0  0  0  0  0
  151.5070  142.6996  161.2183 O   0  0  0  0  0  0  0  0  0  0  0  0
  151.5043  145.2197  160.1195 H   0  0  0  0  0  0  0  0  0  0  0  0
  150.9875  145.5820  158.4812 H   0  0  0  0  0  0  0  0  0  0  0  0
  152.5589  144.8362  158.7611 H   0  0  0  0  0  0  0  0  0  0  0  0
  149.8463  143.5490  159.3424 H   0  0  0  0  0  0  0  0  0  0  0  0
  151.3879  143.6526  156.9384 H   0  0  0  0  0  0  0  0  0  0  0  0
  150.5584  142.7291  155.0537 H   0  0  0  0  0  0  0  0  0  0  0  0
  151.3490  141.2269  155.4033 H   0  0  0  0  0  0  0  0  0  0  0  0
  147.9957  142.6311  155.4386 H   0  0  0  0  0  0  0  0  0  0  0  0
  145.9765  141.5530  154.4618 H   0  0  0  0  0  0  0  0  0  0  0  0
  151.1594  141.4194  159.6685 H   0  0  0  0  0  0  0  0  0  0  0  0
  153.3559  141.6791  158.7012 H   0  0  0  0  0  0  0  0  0  0  0  0
  153.5377  143.2986  159.3881 H   0  0  0  0  0  0  0  0  0  0  0  0
  153.4385  140.6734  160.9111 H   0  0  0  0  0  0  0  0  0  0  0  0
  154.6924  141.9171  161.0178 H   0  0  0  0  0  0  0  0  0  0  0  0
  152.6236  141.9195  162.7999 H   0  0  0  0  0  0  0  0  0  0  0  0
  153.1871  143.4495  162.1213 H   0  0  0  0  0  0  0  0  0  0  0  0
  1  2  1  0  0  0  0
  1 20  1  0  0  0  0
  1 21  1  0  0  0  0
  1 22  1  0  0  0  0
  2  3  1  0  0  0  0
  2 15  1  0  0  0  0
  2 23  1  0  0  0  0
  3  4  1  0  0  0  0
  3 24  1  0  0  0  0
  4  5  2  0  0  0  0
  4  6  1  0  0  0  0
  6  7  1  0  0  0  0
  6 25  1  0  0  0  0
  6 26  1  0  0  0  0
  7 13  1  0  0  0  0
  7  8  1  0  0  0  0
  8  9  2  0  0  0  0
  8 27  1  0  0  0  0
  9 10  1  0  0  0  0
  9 28  1  0  0  0  0
 10 11  2  0  0  0  0
 10 12  1  0  0  0  0
 12 13  1  0  0  0  0
 13 14  2  0  0  0  0
 15 19  1  0  0  0  0
 15 16  1  0  0  0  0
 15 29  1  0  0  0  0
 16 17  1  0  0  0  0
 16 30  1  0  0  0  0
 16 31  1  0  0  0  0
 17 18  1  0  0  0  0
 17 32  1  0  0  0  0
 17 33  1  0  0  0  0
 18 19  1  0  0  0  0
 18 34  1  0  0  0  0
 18 35  1  0  0  0  0
M  CHG  1  12  -1
M  END
> <s_m_source_file>
AV-unprocessed.smi

> <i_m_source_file_index>
1403

> <i_lp_mmshare_version>
43012

> <i_f3d_flags>
0

> <s_epik_input>
TzFbQ0gyXVtDSDJdW0NIMl1bQ0BIXTFbQ0BIXShbQ0gzXSlbTkhdQyg9TylbQ0gyXW4yW2NIXVtjSF1jKD1PKVtuSF1jMj1P

> <s_epik_cmdline>
J2VwaWtfcHl0aG9uJywgJy1waCcsICc3LjAnLCAnLXRuJywgJzgnLCAnLW1hJywgJzIwMCcsICctbWV0YWxfYmluZGluZycsICctaW1hZScsICc8aW5maWxlLm1hZT4nLCAnLW9tYWUnLCAnPG91dGZpbGUubWFlPic=

> <r_lp_tautomer_probability>
0.999537

> <r_epik_Ionization_Penalty>
3.07438

> <r_epik_Ionization_Penalty_Charging>
2.82466e-08

> <r_epik_Ionization_Penalty_Neutral>
3.07438

> <r_epik_State_Penalty>
3.07341

> <r_epik_Charging_Adjusted_Penalty>
3.07341

> <i_epik_Tot_Q>
-1

> <i_epik_Tot_abs_Q>
1

> <r_epik_Metal_State_Penalty>
0.45947

> <b_epik_Metal_Only>
1

> <s_lp_Force_Field>
OPLS_2005

> <r_lp_Energy>
26.7212

> <b_lp_Chiralities_Consistent>
1

> <s_lp_Variant>
AV-unprocessed.smi:1403-8

> <Gold.Version>
5.8.1

> <Gold.Id.Protein>
6NUR|6NUR_protein|mol2

> <Gold.PLP.Fitness>
42.9128

> <Gold.PLP.PLP>
-36.6929

> <Gold.PLP.part.hbond>
-2.5376

> <Gold.PLP.part.metal>
0.0000

> <Gold.PLP.part.buried>
-5.9699

> <Gold.PLP.part.nonpolar>
-30.8130

> <Gold.PLP.part.repulsive>
1.1262

> <Gold.PLP.ligand.clash>
0.0000

> <Gold.PLP.ligand.torsion>
0.4735

> <Gold.PLP.Chemscore.Hbond>
1.3791

> <Gold.PLP.Chemscore.CHOScore>
1.0000

> <Gold.PLP.Chemscore.Metal>
0.0000

> <Gold.Chemscore.Hbonds>
donor molecule, donor type, donor heavy atom, donor atom, acceptor molecule, acceptor atom, score
      P1  H  6933  6945       L1    19  0.40
      P1  H  7989  7998       L1    14  0.83
      L1  C     8    27       P1  8028  1.00

> <Gold.PLP.Chemscore.Internal.Correction>
0.0297

> <Gold.Rescore>
     Score         DG    S(hbond)    S(metal)    S(lipo)     H(rot)  DE(clash)    DE(int)     intcor
     13.87     -14.55       1.58        0.00      76.13       1.99       0.25       0.43       ----

> <Gold.Chemscore.Fitness>
13.8688

> <Gold.Chemscore.DG>
-14.5501

> <Gold.Chemscore.ZeroCoef>
-5.4800

> <Gold.Chemscore.Hbond>
1.5773

> <Gold.Chemscore.Metal>
0.0000

> <Gold.Chemscore.Lipo>
76.1263

> <Gold.Chemscore.Internal_Hbond>
0.0000

> <Gold.Chemscore.DEClash>
0.2482

> <Gold.Chemscore.DEInternal>
0.4331

> <Gold.Chemscore.Rot>
1.9940

> <Gold.Chemscore.Internal.Correction>
   9.000000E+99

> <Gold.Chemscore.Hbonds>
donor molecule, donor type, donor heavy atom, donor atom, acceptor molecule, acceptor atom, score
      P1  H  6933  6945       L1    19  0.26
      P1  H  7989  7998       L1    14  0.18

> <Gold.Chemscore.Hbond.Weighted>
-5.2680

> <Gold.Chemscore.Metal.Weighted>
-0.0000

> <Gold.Chemscore.Lipo.Weighted>
-8.9068

> <Gold.Chemscore.Internal_Hbond.Weighted>
0.0000

> <Gold.Chemscore.DEClash.Weighted>
0.2482

> <Gold.Chemscore.DEInternal.Weighted>
0.4331

> <Gold.Chemscore.Rot.Weighted>
5.1047

> <Gold.Chemscore.Internal.Correction.Weighted>
   9.000000E+99

> <Gold.Protein.RotatedTorsions>
[ 6907 6896 6895 6894 ] final   73.58 input  -60.11 | X-H torsion
[ 7974 7965 7964 7962 ] final -111.73 input  175.53 | X-H torsion
[ 8008 7997 7996 7995 ] final   31.59 input   59.86 | X-H torsion
[ 10167 10162 10161 10158 ] final  167.66 input  -65.29 | X-H torsion
[ 10718 10713 10712 10709 ] final -171.24 input   66.30 | X-H torsion
[ 10763 10752 10751 10750 ] final -133.65 input  -60.55 | X-H torsion
[ 11005 11000 10999 10996 ] final   -3.90 input  -57.11 | X-H torsion

> <Gold.Protein.ActiveResidues>
 VAL166  LYS551  ARG553  GLY616  TRP617  ASP618  TYR619  PRO620  LYS621  CYS622 
 ASP623  PHE694  ASN695  SER759  ASP760  ASP761  ALA762  ILE779  LEU786  VAL792 
 PHE793  MET794  SER795  GLU796  ALA797  LYS798  CYS799  TRP800  GLU811  SER814 

> <Gold.Protein.RotatedAtoms>
  152.4930  134.4401  159.9540 H   0  0  0  0  0  0  0  0  0  0  0  0  # atno 6907 bound_to 6896
  151.4384  133.3644  159.2786 H   0  0  0  0  0  0  0  0  0  0  0  0  # atno 6908 bound_to 6896
  150.9104  134.8544  159.7481 H   0  0  0  0  0  0  0  0  0  0  0  0  # atno 6909 bound_to 6896
  145.1526  140.8837  143.3637 H   0  0  0  0  0  0  0  0  0  0  0  0  # atno 7974 bound_to 7965
  155.1088  140.3237  155.4527 H   0  0  0  0  0  0  0  0  0  0  0  0  # atno 8008 bound_to 7997
  156.2696  140.2048  156.6161 H   0  0  0  0  0  0  0  0  0  0  0  0  # atno 8009 bound_to 7997
  154.6772  140.0530  157.0215 H   0  0  0  0  0  0  0  0  0  0  0  0  # atno 8010 bound_to 7997
  139.4950  144.3897  151.9530 H   0  0  0  0  0  0  0  0  0  0  0  0  # atno 10167 bound_to 10162
  156.7379  130.9331  151.3108 H   0  0  0  0  0  0  0  0  0  0  0  0  # atno 10718 bound_to 10713
  154.8730  135.3759  154.4608 H   0  0  0  0  0  0  0  0  0  0  0  0  # atno 10763 bound_to 10752
  153.5276  135.7028  153.5704 H   0  0  0  0  0  0  0  0  0  0  0  0  # atno 10764 bound_to 10752
  153.3923  135.3969  155.1897 H   0  0  0  0  0  0  0  0  0  0  0  0  # atno 10765 bound_to 10752
  140.6744  133.9208  155.8515 H   0  0  0  0  0  0  0  0  0  0  0  0  # atno 11005 bound_to 11000
  145.0415  139.3256  143.5974 LP  0  0  0  0  0  0  0  0  0  0  0  0  # atno 17320 bound_to 7965
  146.3492  139.9790  142.8698 LP  0  0  0  0  0  0  0  0  0  0  0  0  # atno 17321 bound_to 7965
  140.3335  144.3288  150.5982 LP  0  0  0  0  0  0  0  0  0  0  0  0  # atno 17342 bound_to 10162
  140.5625  143.2190  151.7740 LP  0  0  0  0  0  0  0  0  0  0  0  0  # atno 17343 bound_to 10162
  157.6831  130.9159  150.0317 LP  0  0  0  0  0  0  0  0  0  0  0  0  # atno 17370 bound_to 10713
  156.1484  130.3642  149.9475 LP  0  0  0  0  0  0  0  0  0  0  0  0  # atno 17371 bound_to 10713
  141.0367  134.0680  157.3951 LP  0  0  0  0  0  0  0  0  0  0  0  0  # atno 17394 bound_to 11000
  139.8971  135.0149  156.7085 LP  0  0  0  0  0  0  0  0  0  0  0  0  # atno 17395 bound_to 11000

$$$$
