AV-unprocessed.smi:853|AV-procd|sdf|3953|dock10
  -GOLD-   22720 1423D 1   1.00000     0.00000
 Structure written by MMmdl.
 49 51  0  0  0  0  0  0  0  0  1 V2000
  144.4592  132.7633  149.2300 C   0  0  0  0  0  0  0  0  0  0  0  0
  144.2370  132.8662  150.7406 C   0  0  0  0  0  0  0  0  0  0  0  0
  144.2366  131.8247  151.3971 O   0  0  0  0  0  0  0  0  0  0  0  0
  144.0524  134.0855  151.3017 N   0  0  0  0  0  0  0  0  0  0  0  0
  143.9016  134.2787  152.7487 C   0  0  0  0  0  0  0  0  0  0  0  0
  145.1666  134.9662  153.2928 C   0  0  0  0  0  0  0  0  0  0  0  0
  145.4475  136.2934  152.5558 C   0  0  0  0  0  0  0  0  0  0  0  0
  146.7460  136.8168  152.9695 N   0  0  0  0  0  0  0  0  0  0  0  0
  146.9367  137.8075  153.8520 C   0  0  0  0  0  0  0  0  0  0  0  0
  146.0170  138.4039  154.4117 O   0  0  0  0  0  0  0  0  0  0  0  0
  148.2463  138.0610  154.0171 N   0  0  0  0  0  0  0  0  0  0  0  0
  148.8722  138.9996  154.8817 C   0  0  0  0  0  0  0  0  0  0  0  0
  148.4004  139.3453  156.1697 C   0  0  0  0  0  0  0  0  0  0  0  0
  149.1284  140.2750  156.9365 C   0  0  0  0  0  0  0  0  0  0  0  0
  150.3166  140.8298  156.4048 C   0  0  0  0  0  0  0  0  0  0  0  0
  151.0743  141.7623  157.1412 N   0  0  0  0  0  0  0  0  0  0  0  0
  151.1486  141.7089  158.5933 C   0  0  0  0  0  0  0  0  0  0  0  0
  151.9192  142.9678  158.9875 C   0  0  0  0  0  0  0  0  0  0  0  0
  151.5049  143.9756  157.9157 C   0  0  0  0  0  0  0  0  0  0  0  0
  151.2893  143.1211  156.6611 C   0  0  0  0  0  0  0  0  0  0  0  0
  150.7672  140.4962  155.1720 N   0  0  0  0  0  0  0  0  0  0  0  0
  150.0660  139.6049  154.4411 C   0  0  0  0  0  0  0  0  0  0  0  0
  145.3975  136.1085  151.0215 C   0  0  0  0  0  0  0  0  0  0  0  0
  144.1194  135.3678  150.5899 C   0  0  0  0  0  0  0  0  0  0  0  0
  145.3378  133.3339  148.9276 H   0  0  0  0  0  0  0  0  0  0  0  0
  143.5899  133.1337  148.6860 H   0  0  0  0  0  0  0  0  0  0  0  0
  144.6194  131.7258  148.9349 H   0  0  0  0  0  0  0  0  0  0  0  0
  143.0246  134.8983  152.9419 H   0  0  0  0  0  0  0  0  0  0  0  0
  143.7278  133.3445  153.2843 H   0  0  0  0  0  0  0  0  0  0  0  0
  145.0598  135.1475  154.3630 H   0  0  0  0  0  0  0  0  0  0  0  0
  146.0157  134.2905  153.1768 H   0  0  0  0  0  0  0  0  0  0  0  0
  144.6676  137.0014  152.8429 H   0  0  0  0  0  0  0  0  0  0  0  0
  147.5603  136.3887  152.5538 H   0  0  0  0  0  0  0  0  0  0  0  0
  148.8749  137.5374  153.4256 H   0  0  0  0  0  0  0  0  0  0  0  0
  147.5077  138.9125  156.5930 H   0  0  0  0  0  0  0  0  0  0  0  0
  148.7657  140.5482  157.9161 H   0  0  0  0  0  0  0  0  0  0  0  0
  150.1409  141.7286  159.0109 H   0  0  0  0  0  0  0  0  0  0  0  0
  151.6495  140.8042  158.9394 H   0  0  0  0  0  0  0  0  0  0  0  0
  151.6949  143.3038  160.0001 H   0  0  0  0  0  0  0  0  0  0  0  0
  152.9918  142.7803  158.9222 H   0  0  0  0  0  0  0  0  0  0  0  0
  150.5629  144.4444  158.2038 H   0  0  0  0  0  0  0  0  0  0  0  0
  152.2406  144.7666  157.7673 H   0  0  0  0  0  0  0  0  0  0  0  0
  152.1766  143.1336  156.0275 H   0  0  0  0  0  0  0  0  0  0  0  0
  150.4456  143.4932  156.0789 H   0  0  0  0  0  0  0  0  0  0  0  0
  150.4742  139.3691  153.4691 H   0  0  0  0  0  0  0  0  0  0  0  0
  145.4493  137.0774  150.5234 H   0  0  0  0  0  0  0  0  0  0  0  0
  146.2685  135.5423  150.6875 H   0  0  0  0  0  0  0  0  0  0  0  0
  144.0975  135.2682  149.5058 H   0  0  0  0  0  0  0  0  0  0  0  0
  143.2415  135.9638  150.8437 H   0  0  0  0  0  0  0  0  0  0  0  0
  1  2  1  0  0  0  0
  1 25  1  0  0  0  0
  1 26  1  0  0  0  0
  1 27  1  0  0  0  0
  2  3  2  0  0  0  0
  2  4  1  0  0  0  0
  4 24  1  0  0  0  0
  4  5  1  0  0  0  0
  5  6  1  0  0  0  0
  5 28  1  0  0  0  0
  5 29  1  0  0  0  0
  6  7  1  0  0  0  0
  6 30  1  0  0  0  0
  6 31  1  0  0  0  0
  7  8  1  0  0  0  0
  7 23  1  0  0  0  0
  7 32  1  0  0  0  0
  8  9  1  0  0  0  0
  8 33  1  0  0  0  0
  9 10  2  0  0  0  0
  9 11  1  0  0  0  0
 11 12  1  0  0  0  0
 11 34  1  0  0  0  0
 12 22  1  0  0  0  0
 12 13  2  0  0  0  0
 13 14  1  0  0  0  0
 13 35  1  0  0  0  0
 14 15  2  0  0  0  0
 14 36  1  0  0  0  0
 15 16  1  0  0  0  0
 15 21  1  0  0  0  0
 16 20  1  0  0  0  0
 16 17  1  0  0  0  0
 17 18  1  0  0  0  0
 17 37  1  0  0  0  0
 17 38  1  0  0  0  0
 18 19  1  0  0  0  0
 18 39  1  0  0  0  0
 18 40  1  0  0  0  0
 19 20  1  0  0  0  0
 19 41  1  0  0  0  0
 19 42  1  0  0  0  0
 20 43  1  0  0  0  0
 20 44  1  0  0  0  0
 21 22  2  0  0  0  0
 22 45  1  0  0  0  0
 23 24  1  0  0  0  0
 23 46  1  0  0  0  0
 23 47  1  0  0  0  0
 24 48  1  0  0  0  0
 24 49  1  0  0  0  0
M  END
> <s_m_source_file>
AV-unprocessed.smi

> <i_m_source_file_index>
853

> <i_lp_mmshare_version>
43012

> <i_f3d_flags>
0

> <s_epik_input>
W0NIM11DKD1PKU4xW0NIMl1bQ0gyXVtDSF0oW0NIMl1bQ0gyXTEpW05IXUMoPU8pW05IXWMyW2NIXVtjSF1jKG5bY0hdMilOM1tDSDJdW0NIMl1bQ0gyXVtDSDJdMw==

> <s_epik_cmdline>
J2VwaWtfcHl0aG9uJywgJy1waCcsICc3LjAnLCAnLXRuJywgJzgnLCAnLW1hJywgJzIwMCcsICctbWV0YWxfYmluZGluZycsICctaW1hZScsICc8aW5maWxlLm1hZT4nLCAnLW9tYWUnLCAnPG91dGZpbGUubWFlPic=

> <r_lp_tautomer_probability>
1

> <r_epik_Ionization_Penalty>
0.102256

> <r_epik_Ionization_Penalty_Charging>
0

> <r_epik_Ionization_Penalty_Neutral>
0.102256

> <r_epik_State_Penalty>
0.0916633

> <r_epik_Charging_Adjusted_Penalty>
0.0916633

> <i_epik_Tot_Q>
0

> <i_epik_Tot_abs_Q>
0

> <r_epik_Metal_State_Penalty>
0.078099

> <b_epik_Metal_Only>
0

> <s_lp_Force_Field>
OPLS_2005

> <r_lp_Energy>
47.0227

> <b_lp_Chiralities_Consistent>
1

> <s_lp_Variant>
AV-unprocessed.smi:853-1

> <Gold.Version>
5.8.1

> <Gold.Id.Protein>
6NUR|6NUR_protein|mol2

> <Gold.PLP.Fitness>
44.6432

> <Gold.PLP.PLP>
-37.5715

> <Gold.PLP.part.hbond>
-2.9220

> <Gold.PLP.part.metal>
0.0000

> <Gold.PLP.part.buried>
-2.8170

> <Gold.PLP.part.nonpolar>
-31.6207

> <Gold.PLP.part.repulsive>
0.3569

> <Gold.PLP.ligand.clash>
0.0000

> <Gold.PLP.ligand.torsion>
1.2604

> <Gold.PLP.Chemscore.Hbond>
2.1460

> <Gold.PLP.Chemscore.CHOScore>
0.9806

> <Gold.PLP.Chemscore.Metal>
0.0000

> <Gold.Chemscore.Hbonds>
donor molecule, donor type, donor heavy atom, donor atom, acceptor molecule, acceptor atom, score
      L1  H     8    33       P1  7948  1.00
      L1  H    11    34       P1  7948  0.90
      P1  H  7989  7998       L1    21  0.20
      L1  C    22    45       P1  7957  0.96

> <Gold.PLP.Chemscore.Internal.Correction>
0.2129

> <Gold.Rescore>
     Score         DG    S(hbond)    S(metal)    S(lipo)     H(rot)  DE(clash)    DE(int)     intcor
     17.60     -20.13       1.97        0.00      90.71       1.00       1.00       1.53       ----

> <Gold.Chemscore.Fitness>
17.5976

> <Gold.Chemscore.DG>
-20.1259

> <Gold.Chemscore.ZeroCoef>
-5.4800

> <Gold.Chemscore.Hbond>
1.9738

> <Gold.Chemscore.Metal>
0.0000

> <Gold.Chemscore.Lipo>
90.7117

> <Gold.Chemscore.Internal_Hbond>
0.0000

> <Gold.Chemscore.DEClash>
1.0003

> <Gold.Chemscore.DEInternal>
1.5280

> <Gold.Chemscore.Rot>
1.0000

> <Gold.Chemscore.Internal.Correction>
   9.000000E+99

> <Gold.Chemscore.Hbonds>
donor molecule, donor type, donor heavy atom, donor atom, acceptor molecule, acceptor atom, score
      L1  H     8    33       P1  7948  0.96
      L1  H    11    34       P1  7948  0.83

> <Gold.Chemscore.Hbond.Weighted>
-6.5926

> <Gold.Chemscore.Metal.Weighted>
-0.0000

> <Gold.Chemscore.Lipo.Weighted>
-10.6133

> <Gold.Chemscore.Internal_Hbond.Weighted>
0.0000

> <Gold.Chemscore.DEClash.Weighted>
1.0003

> <Gold.Chemscore.DEInternal.Weighted>
1.5280

> <Gold.Chemscore.Rot.Weighted>
2.5600

> <Gold.Chemscore.Internal.Correction.Weighted>
   9.000000E+99

> <Gold.Protein.RotatedTorsions>
[ 6907 6896 6895 6894 ] final  141.10 input  -60.11 | X-H torsion
[ 7974 7965 7964 7962 ] final   43.49 input  175.53 | X-H torsion
[ 8008 7997 7996 7995 ] final  -61.36 input   59.86 | X-H torsion
[ 10167 10162 10161 10158 ] final  -82.38 input  -65.29 | X-H torsion
[ 10718 10713 10712 10709 ] final -139.70 input   66.30 | X-H torsion
[ 10763 10752 10751 10750 ] final   81.27 input  -60.55 | X-H torsion
[ 11005 11000 10999 10996 ] final -125.53 input  -57.11 | X-H torsion

> <Gold.Protein.ActiveResidues>
 VAL166  LYS551  ARG553  GLY616  TRP617  ASP618  TYR619  PRO620  LYS621  CYS622 
 ASP623  PHE694  ASN695  SER759  ASP760  ASP761  ALA762  ILE779  LEU786  VAL792 
 PHE793  MET794  SER795  GLU796  ALA797  LYS798  CYS799  TRP800  GLU811  SER814 

> <Gold.Protein.RotatedAtoms>
  152.2350  133.5089  159.5237 H   0  0  0  0  0  0  0  0  0  0  0  0  # atno 6907 bound_to 6896
  150.7048  134.1165  159.4028 H   0  0  0  0  0  0  0  0  0  0  0  0  # atno 6908 bound_to 6896
  151.9086  135.0348  160.0563 H   0  0  0  0  0  0  0  0  0  0  0  0  # atno 6909 bound_to 6896
  146.0651  139.5181  142.9633 H   0  0  0  0  0  0  0  0  0  0  0  0  # atno 7974 bound_to 7965
  154.4444  140.1019  156.6418 H   0  0  0  0  0  0  0  0  0  0  0  0  # atno 8008 bound_to 7997
  155.5493  140.3485  155.4446 H   0  0  0  0  0  0  0  0  0  0  0  0  # atno 8009 bound_to 7997
  156.0541  140.1311  157.0006 H   0  0  0  0  0  0  0  0  0  0  0  0  # atno 8010 bound_to 7997
  140.4325  143.2543  151.8739 H   0  0  0  0  0  0  0  0  0  0  0  0  # atno 10167 bound_to 10162
  156.3138  130.7496  151.1578 H   0  0  0  0  0  0  0  0  0  0  0  0  # atno 10718 bound_to 10713
  153.1103  135.4771  154.9023 H   0  0  0  0  0  0  0  0  0  0  0  0  # atno 10763 bound_to 10752
  154.7473  135.3097  154.8623 H   0  0  0  0  0  0  0  0  0  0  0  0  # atno 10764 bound_to 10752
  153.9214  135.6854  153.4801 H   0  0  0  0  0  0  0  0  0  0  0  0  # atno 10765 bound_to 10752
  140.9755  134.0747  157.3823 H   0  0  0  0  0  0  0  0  0  0  0  0  # atno 11005 bound_to 11000
  145.6491  141.0267  143.1770 LP  0  0  0  0  0  0  0  0  0  0  0  0  # atno 17320 bound_to 7965
  144.7198  139.8071  143.7386 LP  0  0  0  0  0  0  0  0  0  0  0  0  # atno 17321 bound_to 7965
  139.4785  144.5319  151.8654 LP  0  0  0  0  0  0  0  0  0  0  0  0  # atno 17342 bound_to 10162
  140.4411  144.1985  150.5891 LP  0  0  0  0  0  0  0  0  0  0  0  0  # atno 17343 bound_to 10162
  157.7397  131.0526  150.5215 LP  0  0  0  0  0  0  0  0  0  0  0  0  # atno 17370 bound_to 10713
  156.5358  130.4196  149.6178 LP  0  0  0  0  0  0  0  0  0  0  0  0  # atno 17371 bound_to 10713
  139.8929  135.0127  156.6869 LP  0  0  0  0  0  0  0  0  0  0  0  0  # atno 17394 bound_to 11000
  140.7266  133.9095  155.8182 LP  0  0  0  0  0  0  0  0  0  0  0  0  # atno 17395 bound_to 11000

$$$$
