AV-unprocessed.smi:3029|AV-procd|sdf|11529|dock4
  -GOLD-   2272016473D 1   1.00000     0.00000
 Structure written by MMmdl.
 41 42  0  0  0  0  0  0  0  0  3 V2000
  149.0668  138.8637  157.6939 O   0  0  0  0  0  0  0  0  0  0  0  0
  150.1982  138.6041  157.2841 C   0  0  0  0  0  0  0  0  0  0  0  0
  150.9502  137.4396  157.7629 C   0  0  0  0  0  0  0  0  0  0  0  0
  152.1824  137.1525  157.2990 C   0  0  0  0  0  0  0  0  0  0  0  0
  152.8063  137.9958  156.2977 C   0  0  0  0  0  0  0  0  0  0  0  0
  154.1220  137.6879  155.7818 N   0  3  0  0  0  0  0  0  0  0  0  0
  154.5439  138.3140  154.8140 O   0  0  0  0  0  0  0  0  0  0  0  0
  154.7775  136.8075  156.3299 O   0  5  0  0  0  0  0  0  0  0  0  0
  152.1162  139.0691  155.8644 C   0  0  0  0  0  0  0  0  0  0  0  0
  150.8331  139.3803  156.3542 N   0  0  0  0  0  0  0  0  0  0  0  0
  150.1820  140.5764  155.8051 C   0  0  0  0  0  0  0  0  0  0  0  0
  150.9018  141.8566  156.2555 C   0  0  0  0  0  0  0  0  0  0  0  0
  150.6523  142.0812  157.6705 N   0  0  0  0  0  0  0  0  0  0  0  0
  151.8858  142.0001  158.4437 C   0  0  2  0  0  0  0  0  0  0  0  0
  152.0103  140.5352  158.9112 C   0  0  0  0  0  0  0  0  0  0  0  0
  153.2256  140.3279  159.8226 C   0  0  0  0  0  0  0  0  0  0  0  0
  153.1607  141.2716  161.0282 C   0  0  0  0  0  0  0  0  0  0  0  0
  153.0635  142.7340  160.5717 C   0  0  0  0  0  0  0  0  0  0  0  0
  151.8508  142.9897  159.6448 C   0  0  1  0  0  0  0  0  0  0  0  0
  151.8114  144.4801  159.2187 C   0  0  0  0  0  0  0  0  0  0  0  0
  151.8883  145.2754  160.2863 F   0  0  0  0  0  0  0  0  0  0  0  0
  152.8102  144.7773  158.3877 F   0  0  0  0  0  0  0  0  0  0  0  0
  150.6719  144.7390  158.5765 F   0  0  0  0  0  0  0  0  0  0  0  0
  150.5039  136.7973  158.5078 H   0  0  0  0  0  0  0  0  0  0  0  0
  152.6974  136.2842  157.6832 H   0  0  0  0  0  0  0  0  0  0  0  0
  152.4891  139.7552  155.1174 H   0  0  0  0  0  0  0  0  0  0  0  0
  150.1526  140.5259  154.7148 H   0  0  0  0  0  0  0  0  0  0  0  0
  149.1362  140.6115  156.1153 H   0  0  0  0  0  0  0  0  0  0  0  0
  151.9753  141.7690  156.0829 H   0  0  0  0  0  0  0  0  0  0  0  0
  150.5453  142.7113  155.6793 H   0  0  0  0  0  0  0  0  0  0  0  0
  149.9915  141.3966  158.0095 H   0  0  0  0  0  0  0  0  0  0  0  0
  152.7506  142.2329  157.8195 H   0  0  0  0  0  0  0  0  0  0  0  0
  151.1089  140.2369  159.4495 H   0  0  0  0  0  0  0  0  0  0  0  0
  152.0876  139.8720  158.0485 H   0  0  0  0  0  0  0  0  0  0  0  0
  153.2649  139.2924  160.1615 H   0  0  0  0  0  0  0  0  0  0  0  0
  154.1434  140.5072  159.2612 H   0  0  0  0  0  0  0  0  0  0  0  0
  152.2990  141.0206  161.6481 H   0  0  0  0  0  0  0  0  0  0  0  0
  154.0429  141.1357  161.6543 H   0  0  0  0  0  0  0  0  0  0  0  0
  153.0047  143.3737  161.4526 H   0  0  0  0  0  0  0  0  0  0  0  0
  153.9837  143.0100  160.0554 H   0  0  0  0  0  0  0  0  0  0  0  0
  150.9497  142.7874  160.2265 H   0  0  0  0  0  0  0  0  0  0  0  0
  1  2  2  0  0  0  0
  2 10  1  0  0  0  0
  2  3  1  0  0  0  0
  3  4  2  0  0  0  0
  3 24  1  0  0  0  0
  4  5  1  0  0  0  0
  4 25  1  0  0  0  0
  5  6  1  0  0  0  0
  5  9  2  0  0  0  0
  6  7  2  0  0  0  0
  6  8  1  0  0  0  0
  9 10  1  0  0  0  0
  9 26  1  0  0  0  0
 10 11  1  0  0  0  0
 11 12  1  0  0  0  0
 11 27  1  0  0  0  0
 11 28  1  0  0  0  0
 12 13  1  0  0  0  0
 12 29  1  0  0  0  0
 12 30  1  0  0  0  0
 13 14  1  0  0  0  0
 13 31  1  0  0  0  0
 14 19  1  0  0  0  0
 14 15  1  0  0  0  0
 14 32  1  0  0  0  0
 15 16  1  0  0  0  0
 15 33  1  0  0  0  0
 15 34  1  0  0  0  0
 16 17  1  0  0  0  0
 16 35  1  0  0  0  0
 16 36  1  0  0  0  0
 17 18  1  0  0  0  0
 17 37  1  0  0  0  0
 17 38  1  0  0  0  0
 18 19  1  0  0  0  0
 18 39  1  0  0  0  0
 18 40  1  0  0  0  0
 19 20  1  0  0  0  0
 19 41  1  0  0  0  0
 20 21  1  0  0  0  0
 20 22  1  0  0  0  0
 20 23  1  0  0  0  0
M  CHG  1   6   1
M  CHG  1   8  -1
M  END
> <s_m_source_file>
AV-unprocessed.smi

> <i_m_source_file_index>
3029

> <i_lp_mmshare_version>
43012

> <i_f3d_flags>
0

> <s_epik_input>
Tz1jMVtjSF1bY0hdYyhbTitdKD1PKVtPLV0pW2NIXW4xW0NIMl1bQ0gyXVtOSF1bQ0BASF0yW0NIMl1bQ0gyXVtDSDJdW0NIMl1bQ0BIXTJDKEYpKEYpRg==

> <s_epik_cmdline>
J2VwaWtfcHl0aG9uJywgJy1waCcsICc3LjAnLCAnLXRuJywgJzgnLCAnLW1hJywgJzIwMCcsICctbWV0YWxfYmluZGluZycsICctaW1hZScsICc8aW5maWxlLm1hZT4nLCAnLW9tYWUnLCAnPG91dGZpbGUubWFlPic=

> <r_lp_tautomer_probability>
1

> <r_epik_Ionization_Penalty>
1.65565

> <r_epik_Ionization_Penalty_Charging>
3.32684e-10

> <r_epik_Ionization_Penalty_Neutral>
1.65565

> <r_epik_State_Penalty>
1.75811

> <r_epik_Charging_Adjusted_Penalty>
1.75811

> <i_epik_Tot_Q>
0

> <i_epik_Tot_abs_Q>
2

> <r_epik_Metal_State_Penalty>
1.75811

> <b_epik_Metal_Only>
0

> <s_lp_Force_Field>
OPLS_2005

> <r_lp_Energy>
33.0444

> <b_lp_Chiralities_Consistent>
1

> <s_lp_Variant>
AV-unprocessed.smi:3029-5

> <Gold.Version>
5.8.1

> <Gold.Id.Protein>
6NUR|6NUR_protein|mol2

> <Gold.PLP.Fitness>
46.5576

> <Gold.PLP.PLP>
-45.1449

> <Gold.PLP.part.hbond>
-2.0000

> <Gold.PLP.part.metal>
0.0000

> <Gold.PLP.part.buried>
-2.3412

> <Gold.PLP.part.nonpolar>
-40.9840

> <Gold.PLP.part.repulsive>
0.0000

> <Gold.PLP.ligand.clash>
0.0000

> <Gold.PLP.ligand.torsion>
1.0185

> <Gold.PLP.Chemscore.Hbond>
1.1360

> <Gold.PLP.Chemscore.CHOScore>
0.0000

> <Gold.PLP.Chemscore.Metal>
0.0000

> <Gold.Chemscore.Hbonds>
donor molecule, donor type, donor heavy atom, donor atom, acceptor molecule, acceptor atom, score
      P1  H  7997  8010       L1     7  0.34
      P1  H 10752 10765       L1     8  0.59

> <Gold.PLP.Chemscore.Internal.Correction>
0.0417

> <Gold.Rescore>
     Score         DG    S(hbond)    S(metal)    S(lipo)     H(rot)  DE(clash)    DE(int)     intcor
     12.48     -16.21       0.92        0.00     106.06       1.86       1.42       2.31       ----

> <Gold.Chemscore.Fitness>
12.4838

> <Gold.Chemscore.DG>
-16.2139

> <Gold.Chemscore.ZeroCoef>
-5.4800

> <Gold.Chemscore.Hbond>
0.9229

> <Gold.Chemscore.Metal>
0.0000

> <Gold.Chemscore.Lipo>
106.0588

> <Gold.Chemscore.Internal_Hbond>
0.0000

> <Gold.Chemscore.DEClash>
1.4160

> <Gold.Chemscore.DEInternal>
2.3141

> <Gold.Chemscore.Rot>
1.8584

> <Gold.Chemscore.Internal.Correction>
   9.000000E+99

> <Gold.Chemscore.Hbonds>
donor molecule, donor type, donor heavy atom, donor atom, acceptor molecule, acceptor atom, score
      P1  H  7997  8010       L1     7  0.23
      P1  H 10752 10765       L1     8  0.21

> <Gold.Chemscore.Hbond.Weighted>
-3.0826

> <Gold.Chemscore.Metal.Weighted>
-0.0000

> <Gold.Chemscore.Lipo.Weighted>
-12.4089

> <Gold.Chemscore.Internal_Hbond.Weighted>
0.0000

> <Gold.Chemscore.DEClash.Weighted>
1.4160

> <Gold.Chemscore.DEInternal.Weighted>
2.3141

> <Gold.Chemscore.Rot.Weighted>
4.7576

> <Gold.Chemscore.Internal.Correction.Weighted>
   9.000000E+99

> <Gold.Protein.RotatedTorsions>
[ 6907 6896 6895 6894 ] final   73.27 input  -60.11 | X-H torsion
[ 7974 7965 7964 7962 ] final -120.97 input  175.53 | X-H torsion
[ 8008 7997 7996 7995 ] final  152.14 input   59.86 | X-H torsion
[ 10167 10162 10161 10158 ] final  -68.16 input  -65.29 | X-H torsion
[ 10718 10713 10712 10709 ] final   57.15 input   66.30 | X-H torsion
[ 10763 10752 10751 10750 ] final  -58.21 input  -60.55 | X-H torsion
[ 11005 11000 10999 10996 ] final   80.66 input  -57.11 | X-H torsion

> <Gold.Protein.ActiveResidues>
 VAL166  LYS551  ARG553  GLY616  TRP617  ASP618  TYR619  PRO620  LYS621  CYS622 
 ASP623  PHE694  ASN695  SER759  ASP760  ASP761  ALA762  ILE779  LEU786  VAL792 
 PHE793  MET794  SER795  GLU796  ALA797  LYS798  CYS799  TRP800  GLU811  SER814 

> <Gold.Protein.RotatedAtoms>
  152.4914  134.4446  159.9554 H   0  0  0  0  0  0  0  0  0  0  0  0  # atno 6907 bound_to 6896
  151.4433  133.3631  159.2792 H   0  0  0  0  0  0  0  0  0  0  0  0  # atno 6908 bound_to 6896
  150.9072  134.8511  159.7461 H   0  0  0  0  0  0  0  0  0  0  0  0  # atno 6909 bound_to 6896
  145.0455  140.8178  143.4240 H   0  0  0  0  0  0  0  0  0  0  0  0  # atno 7974 bound_to 7965
  156.2642  140.2028  156.6287 H   0  0  0  0  0  0  0  0  0  0  0  0  # atno 8008 bound_to 7997
  154.6700  140.0551  157.0179 H   0  0  0  0  0  0  0  0  0  0  0  0  # atno 8009 bound_to 7997
  155.1151  140.3219  155.4514 H   0  0  0  0  0  0  0  0  0  0  0  0  # atno 8010 bound_to 7997
  140.5528  143.2312  151.6878 H   0  0  0  0  0  0  0  0  0  0  0  0  # atno 10167 bound_to 10162
  157.5490  130.8752  149.8935 H   0  0  0  0  0  0  0  0  0  0  0  0  # atno 10718 bound_to 10713
  154.2345  135.6354  153.5186 H   0  0  0  0  0  0  0  0  0  0  0  0  # atno 10763 bound_to 10752
  152.9942  135.5527  154.5977 H   0  0  0  0  0  0  0  0  0  0  0  0  # atno 10764 bound_to 10752
  154.5468  135.2898  155.1020 H   0  0  0  0  0  0  0  0  0  0  0  0  # atno 10765 bound_to 10752
  139.9126  134.7937  156.1939 H   0  0  0  0  0  0  0  0  0  0  0  0  # atno 11005 bound_to 11000
  145.1593  139.2468  143.5400 LP  0  0  0  0  0  0  0  0  0  0  0  0  # atno 17320 bound_to 7965
  146.3513  140.1316  142.8597 LP  0  0  0  0  0  0  0  0  0  0  0  0  # atno 17321 bound_to 7965
  139.5035  144.3790  152.0395 LP  0  0  0  0  0  0  0  0  0  0  0  0  # atno 17342 bound_to 10162
  140.2909  144.3755  150.6089 LP  0  0  0  0  0  0  0  0  0  0  0  0  # atno 17343 bound_to 10162
  156.0560  130.3708  150.1089 LP  0  0  0  0  0  0  0  0  0  0  0  0  # atno 17370 bound_to 10713
  156.9264  130.9699  151.3540 LP  0  0  0  0  0  0  0  0  0  0  0  0  # atno 17371 bound_to 10713
  141.0567  133.6862  156.1873 LP  0  0  0  0  0  0  0  0  0  0  0  0  # atno 17394 bound_to 11000
  140.6726  134.4852  157.5587 LP  0  0  0  0  0  0  0  0  0  0  0  0  # atno 17395 bound_to 11000

$$$$
