AV-unprocessed.smi:1386|AV-procd|sdf|5639|dock1
  -GOLD-   22720 5253D 1   1.00000     0.00000
 Structure written by MMmdl.
 35 36  0  0  0  0  0  0  0  0  1 V2000
  149.7954  140.4828  157.7700 C   0  0  0  0  0  0  0  0  0  0  0  0
  151.2901  140.3744  157.4410 C   0  0  1  0  0  0  0  0  0  0  0  0
  151.5468  140.4933  155.9247 C   0  0  0  0  0  0  0  0  0  0  0  0
  151.4160  139.2220  155.2350 N   0  0  0  0  0  0  0  0  0  0  0  0
  150.2528  138.4910  155.0317 C   0  0  0  0  0  0  0  0  0  0  0  0
  150.6178  137.3544  154.3463 C   0  0  0  0  0  0  0  0  0  0  0  0
  151.9901  137.3699  154.1089 N   0  0  0  0  0  0  0  0  0  0  0  0
  152.3924  138.5083  154.6580 C   0  0  0  0  0  0  0  0  0  0  0  0
  152.0190  141.4170  158.1630 N   0  0  0  0  0  0  0  0  0  0  0  0
  151.8283  142.7429  158.0416 C   0  0  0  0  0  0  0  0  0  0  0  0
  151.0578  143.2246  157.2099 O   0  0  0  0  0  0  0  0  0  0  0  0
  152.5546  143.4998  158.9024 N   0  0  0  0  0  0  0  0  0  0  0  0
  153.5408  142.9938  159.8713 C   0  0  0  0  0  0  0  0  0  0  0  0
  152.8477  142.7844  161.2282 C   0  0  0  0  0  0  0  0  0  0  0  0
  152.2160  144.3589  161.8881 S   0  0  0  0  0  0  0  0  0  0  0  0
  151.3224  144.9705  160.4246 C   0  0  0  0  0  0  0  0  0  0  0  0
  152.2079  144.9008  159.1684 C   0  0  0  0  0  0  0  0  0  0  0  0
  149.2257  139.7026  157.2645 H   0  0  0  0  0  0  0  0  0  0  0  0
  149.3880  141.4460  157.4603 H   0  0  0  0  0  0  0  0  0  0  0  0
  149.6207  140.3753  158.8410 H   0  0  0  0  0  0  0  0  0  0  0  0
  151.6203  139.3871  157.7680 H   0  0  0  0  0  0  0  0  0  0  0  0
  150.8400  141.1927  155.4768 H   0  0  0  0  0  0  0  0  0  0  0  0
  152.5445  140.8935  155.7375 H   0  0  0  0  0  0  0  0  0  0  0  0
  149.2905  138.8255  155.3907 H   0  0  0  0  0  0  0  0  0  0  0  0
  150.0029  136.5339  154.0071 H   0  0  0  0  0  0  0  0  0  0  0  0
  153.4250  138.8254  154.6491 H   0  0  0  0  0  0  0  0  0  0  0  0
  152.6832  141.1045  158.8560 H   0  0  0  0  0  0  0  0  0  0  0  0
  154.0200  142.0691  159.5492 H   0  0  0  0  0  0  0  0  0  0  0  0
  154.3580  143.7085  159.9782 H   0  0  0  0  0  0  0  0  0  0  0  0
  152.0189  142.0835  161.1289 H   0  0  0  0  0  0  0  0  0  0  0  0
  153.5436  142.3569  161.9498 H   0  0  0  0  0  0  0  0  0  0  0  0
  150.4174  144.3773  160.2867 H   0  0  0  0  0  0  0  0  0  0  0  0
  151.0060  145.9969  160.6111 H   0  0  0  0  0  0  0  0  0  0  0  0
  153.1125  145.4937  159.3107 H   0  0  0  0  0  0  0  0  0  0  0  0
  151.6936  145.3588  158.3221 H   0  0  0  0  0  0  0  0  0  0  0  0
  1  2  1  0  0  0  0
  1 18  1  0  0  0  0
  1 19  1  0  0  0  0
  1 20  1  0  0  0  0
  2  3  1  0  0  0  0
  2  9  1  0  0  0  0
  2 21  1  0  0  0  0
  3  4  1  0  0  0  0
  3 22  1  0  0  0  0
  3 23  1  0  0  0  0
  4  8  1  0  0  0  0
  4  5  1  0  0  0  0
  5  6  2  0  0  0  0
  5 24  1  0  0  0  0
  6  7  1  0  0  0  0
  6 25  1  0  0  0  0
  7  8  2  0  0  0  0
  8 26  1  0  0  0  0
  9 10  1  0  0  0  0
  9 27  1  0  0  0  0
 10 11  2  0  0  0  0
 10 12  1  0  0  0  0
 12 17  1  0  0  0  0
 12 13  1  0  0  0  0
 13 14  1  0  0  0  0
 13 28  1  0  0  0  0
 13 29  1  0  0  0  0
 14 15  1  0  0  0  0
 14 30  1  0  0  0  0
 14 31  1  0  0  0  0
 15 16  1  0  0  0  0
 16 17  1  0  0  0  0
 16 32  1  0  0  0  0
 16 33  1  0  0  0  0
 17 34  1  0  0  0  0
 17 35  1  0  0  0  0
M  END
> <s_m_source_file>
AV-unprocessed.smi

> <i_m_source_file_index>
1386

> <i_lp_mmshare_version>
43012

> <i_f3d_flags>
0

> <s_epik_input>
W2NIXTFuW2NIXVtjSF1uMVtDSDJdW0NAQEhdKFtDSDNdKVtOSF1DKD1PKU4yW0NIMl1bQ0gyXVNbQ0gyXVtDSDJdMg==

> <s_epik_cmdline>
J2VwaWtfcHl0aG9uJywgJy1waCcsICc3LjAnLCAnLXRuJywgJzgnLCAnLW1hJywgJzIwMCcsICctbWV0YWxfYmluZGluZycsICctaW1hZScsICc8aW5maWxlLm1hZT4nLCAnLW9tYWUnLCAnPG91dGZpbGUubWFlPic=

> <r_lp_tautomer_probability>
1

> <r_epik_Ionization_Penalty>
0.622677

> <r_epik_Ionization_Penalty_Charging>
0.62263

> <r_epik_Ionization_Penalty_Neutral>
4.67019e-05

> <r_epik_State_Penalty>
0.63879

> <r_epik_Charging_Adjusted_Penalty>
1.26142

> <i_epik_Tot_Q>
0

> <i_epik_Tot_abs_Q>
0

> <r_epik_Metal_State_Penalty>
0.307117

> <b_epik_Metal_Only>
0

> <s_lp_Force_Field>
OPLS_2005

> <r_lp_Energy>
24.3831

> <b_lp_Chiralities_Consistent>
1

> <s_lp_Variant>
AV-unprocessed.smi:1386-4

> <Gold.Version>
5.8.1

> <Gold.Id.Protein>
6NUR|6NUR_protein|mol2

> <Gold.PLP.Fitness>
45.4379

> <Gold.PLP.PLP>
-40.5317

> <Gold.PLP.part.hbond>
-1.0000

> <Gold.PLP.part.metal>
0.0000

> <Gold.PLP.part.buried>
-3.4431

> <Gold.PLP.part.nonpolar>
-38.0787

> <Gold.PLP.part.repulsive>
0.9916

> <Gold.PLP.ligand.clash>
0.0000

> <Gold.PLP.ligand.torsion>
0.4478

> <Gold.PLP.Chemscore.Hbond>
0.9440

> <Gold.PLP.Chemscore.CHOScore>
0.9650

> <Gold.PLP.Chemscore.Metal>
0.0000

> <Gold.Chemscore.Hbonds>
donor molecule, donor type, donor heavy atom, donor atom, acceptor molecule, acceptor atom, score
      P1  H 10752 10763       L1     7  0.96
      L1  C     6    25       P1  7948  0.96

> <Gold.PLP.Chemscore.Internal.Correction>
0.0747

> <Gold.Rescore>
     Score         DG    S(hbond)    S(metal)    S(lipo)     H(rot)  DE(clash)    DE(int)     intcor
     13.31     -14.93       0.94        0.00      88.77       1.59       0.15       1.47       ----

> <Gold.Chemscore.Fitness>
13.3149

> <Gold.Chemscore.DG>
-14.9307

> <Gold.Chemscore.ZeroCoef>
-5.4800

> <Gold.Chemscore.Hbond>
0.9386

> <Gold.Chemscore.Metal>
0.0000

> <Gold.Chemscore.Lipo>
88.7734

> <Gold.Chemscore.Internal_Hbond>
0.0000

> <Gold.Chemscore.DEClash>
0.1476

> <Gold.Chemscore.DEInternal>
1.4682

> <Gold.Chemscore.Rot>
1.5901

> <Gold.Chemscore.Internal.Correction>
   9.000000E+99

> <Gold.Chemscore.Hbonds>
donor molecule, donor type, donor heavy atom, donor atom, acceptor molecule, acceptor atom, score
      P1  H 10752 10763       L1     7  0.88

> <Gold.Chemscore.Hbond.Weighted>
-3.1348

> <Gold.Chemscore.Metal.Weighted>
-0.0000

> <Gold.Chemscore.Lipo.Weighted>
-10.3865

> <Gold.Chemscore.Internal_Hbond.Weighted>
0.0000

> <Gold.Chemscore.DEClash.Weighted>
0.1476

> <Gold.Chemscore.DEInternal.Weighted>
1.4682

> <Gold.Chemscore.Rot.Weighted>
4.0706

> <Gold.Chemscore.Internal.Correction.Weighted>
   9.000000E+99

> <Gold.Protein.RotatedTorsions>
[ 6907 6896 6895 6894 ] final  -59.76 input  -60.11 | X-H torsion
[ 7974 7965 7964 7962 ] final  -80.06 input  175.53 | X-H torsion
[ 8008 7997 7996 7995 ] final -131.39 input   59.86 | X-H torsion
[ 10167 10162 10161 10158 ] final  -24.16 input  -65.29 | X-H torsion
[ 10718 10713 10712 10709 ] final  -89.48 input   66.30 | X-H torsion
[ 10763 10752 10751 10750 ] final   35.01 input  -60.55 | X-H torsion
[ 11005 11000 10999 10996 ] final -132.30 input  -57.11 | X-H torsion

> <Gold.Protein.ActiveResidues>
 VAL166  LYS551  ARG553  GLY616  TRP617  ASP618  TYR619  PRO620  LYS621  CYS622 
 ASP623  PHE694  ASN695  SER759  ASP760  ASP761  ALA762  ILE779  LEU786  VAL792 
 PHE793  MET794  SER795  GLU796  ALA797  LYS798  CYS799  TRP800  GLU811  SER814 

> <Gold.Protein.RotatedAtoms>
  150.7906  134.6926  159.6504 H   0  0  0  0  0  0  0  0  0  0  0  0  # atno 6907 bound_to 6896
  152.4011  134.6282  160.0078 H   0  0  0  0  0  0  0  0  0  0  0  0  # atno 6908 bound_to 6896
  151.6553  133.3282  159.3197 H   0  0  0  0  0  0  0  0  0  0  0  0  # atno 6909 bound_to 6896
  145.5649  140.9476  143.1427 H   0  0  0  0  0  0  0  0  0  0  0  0  # atno 7974 bound_to 7965
  155.3116  140.0457  157.3035 H   0  0  0  0  0  0  0  0  0  0  0  0  # atno 8008 bound_to 7997
  154.5430  140.2293  155.8576 H   0  0  0  0  0  0  0  0  0  0  0  0  # atno 8009 bound_to 7997
  156.1898  140.3053  155.9316 H   0  0  0  0  0  0  0  0  0  0  0  0  # atno 8010 bound_to 7997
  140.7288  143.4378  151.0703 H   0  0  0  0  0  0  0  0  0  0  0  0  # atno 10167 bound_to 10162
  155.9984  130.4874  150.5177 H   0  0  0  0  0  0  0  0  0  0  0  0  # atno 10718 bound_to 10713
  153.0138  135.6345  154.1759 H   0  0  0  0  0  0  0  0  0  0  0  0  # atno 10763 bound_to 10752
  154.1499  135.2829  155.3139 H   0  0  0  0  0  0  0  0  0  0  0  0  # atno 10764 bound_to 10752
  154.6061  135.5571  153.7485 H   0  0  0  0  0  0  0  0  0  0  0  0  # atno 10765 bound_to 10752
  140.9182  134.1479  157.4335 H   0  0  0  0  0  0  0  0  0  0  0  0  # atno 11005 bound_to 11000
  144.7465  139.7307  143.7290 LP  0  0  0  0  0  0  0  0  0  0  0  0  # atno 17320 bound_to 7965
  146.1825  139.5024  142.9857 LP  0  0  0  0  0  0  0  0  0  0  0  0  # atno 17321 bound_to 7965
  139.8042  143.8042  152.3166 LP  0  0  0  0  0  0  0  0  0  0  0  0  # atno 17342 bound_to 10162
  139.8069  144.7352  150.9750 LP  0  0  0  0  0  0  0  0  0  0  0  0  # atno 17343 bound_to 10162
  157.3143  131.0669  151.1978 LP  0  0  0  0  0  0  0  0  0  0  0  0  # atno 17370 bound_to 10713
  157.2914  130.6798  149.6116 LP  0  0  0  0  0  0  0  0  0  0  0  0  # atno 17371 bound_to 10713
  139.8770  134.9961  156.5780 LP  0  0  0  0  0  0  0  0  0  0  0  0  # atno 17394 bound_to 11000
  140.8022  133.8496  155.8737 LP  0  0  0  0  0  0  0  0  0  0  0  0  # atno 17395 bound_to 11000

$$$$
