AV-unprocessed.smi:72|AV-procd|sdf|678|dock6
  -GOLD-   2262016583D 1   1.00000     0.00000
 Structure written by MMmdl.
 29 30  0  0  0  0  0  0  0  0  1 V2000
  153.1225  138.7115  156.5853 N   0  0  0  0  0  0  0  0  0  0  0  0
  152.1203  139.1709  155.9246 C   0  0  0  0  0  0  0  0  0  0  0  0
  151.6351  138.6442  154.7178 N   0  0  0  0  0  0  0  0  0  0  0  0
  150.6202  139.2204  154.1510 C   0  0  0  0  0  0  0  0  0  0  0  0
  149.9752  140.3918  154.7227 N   0  0  0  0  0  0  0  0  0  0  0  0
  148.7945  141.0397  154.0371 C   0  0  1  0  0  0  0  0  0  0  0  0
  148.3617  140.2057  153.0033 O   0  0  0  0  0  0  0  0  0  0  0  0
  146.9407  140.1241  153.0150 C   0  0  1  0  0  0  0  0  0  0  0  0
  146.4921  138.8092  152.3590 C   0  0  0  0  0  0  0  0  0  0  0  0
  147.4255  138.4134  151.3769 O   0  0  0  0  0  0  0  0  0  0  0  0
  146.6215  140.2035  154.5091 C   0  0  2  0  0  0  0  0  0  0  0  0
  145.2757  140.5541  154.7727 O   0  0  0  0  0  0  0  0  0  0  0  0
  147.6282  141.2312  155.0197 C   0  0  2  0  0  0  0  0  0  0  0  0
  147.1324  142.5559  154.9604 O   0  0  0  0  0  0  0  0  0  0  0  0
  150.4316  140.9176  155.9556 C   0  0  0  0  0  0  0  0  0  0  0  0
  149.8972  141.8800  156.5059 O   0  0  0  0  0  0  0  0  0  0  0  0
  151.4946  140.2860  156.4995 N   0  0  0  0  0  0  0  0  0  0  0  0
  149.1527  141.9714  153.5965 H   0  0  0  0  0  0  0  0  0  0  0  0
  146.5219  140.9919  152.5011 H   0  0  0  0  0  0  0  0  0  0  0  0
  146.8301  139.2402  154.9770 H   0  0  0  0  0  0  0  0  0  0  0  0
  147.9348  141.0214  156.0454 H   0  0  0  0  0  0  0  0  0  0  0  0
  153.5224  137.9127  156.1153 H   0  0  0  0  0  0  0  0  0  0  0  0
  150.1850  138.8646  153.2162 H   0  0  0  0  0  0  0  0  0  0  0  0
  146.3622  138.0201  153.1004 H   0  0  0  0  0  0  0  0  0  0  0  0
  145.5323  138.9467  151.8602 H   0  0  0  0  0  0  0  0  0  0  0  0
  148.0016  137.7658  151.7533 H   0  0  0  0  0  0  0  0  0  0  0  0
  144.8385  140.7064  153.9490 H   0  0  0  0  0  0  0  0  0  0  0  0
  147.7868  143.1373  155.3166 H   0  0  0  0  0  0  0  0  0  0  0  0
  151.8482  140.6420  157.3754 H   0  0  0  0  0  0  0  0  0  0  0  0
  1  2  2  0  0  0  0
  1 22  1  0  0  0  0
  2 17  1  0  0  0  0
  2  3  1  0  0  0  0
  3  4  2  0  0  0  0
  4  5  1  0  0  0  0
  4 23  1  0  0  0  0
  5  6  1  0  0  0  0
  5 15  1  0  0  0  0
  6 18  1  0  0  0  0
  6 13  1  0  0  0  0
  6  7  1  0  0  0  0
  7  8  1  0  0  0  0
  8 19  1  0  0  0  0
  8  9  1  0  0  0  0
  8 11  1  0  0  0  0
  9 10  1  0  0  0  0
  9 24  1  0  0  0  0
  9 25  1  0  0  0  0
 10 26  1  0  0  0  0
 11 20  1  0  0  0  0
 11 12  1  0  0  0  0
 11 13  1  0  0  0  0
 12 27  1  0  0  0  0
 13 21  1  0  0  0  0
 13 14  1  0  0  0  0
 14 28  1  0  0  0  0
 15 16  2  0  0  0  0
 15 17  1  0  0  0  0
 17 29  1  0  0  0  0
M  END
> <s_m_source_file>
AV-unprocessed.smi

> <i_m_source_file_index>
72

> <i_lp_mmshare_version>
43012

> <i_f3d_flags>
0

> <s_epik_input>
W05IMl1jMW5bY0hdbihjKD1PKW4xKVtDQEBIXTJPW0NASF0oW0NIMl1bT0hdKVtDQEBIXShbT0hdKVtDQEhdMltPSF0=

> <s_epik_cmdline>
J2VwaWtfcHl0aG9uJywgJy1waCcsICc3LjAnLCAnLXRuJywgJzgnLCAnLW1hJywgJzIwMCcsICctbWV0YWxfYmluZGluZycsICctaW1hZScsICc8aW5maWxlLm1hZT4nLCAnLW9tYWUnLCAnPG91dGZpbGUubWFlPic=

> <r_lp_tautomer_probability>
7.17554e-07

> <r_epik_Ionization_Penalty>
0.0066451

> <r_epik_Ionization_Penalty_Charging>
0.00663793

> <r_epik_Ionization_Penalty_Neutral>
7.17052e-06

> <r_epik_State_Penalty>
0.419231

> <r_epik_Charging_Adjusted_Penalty>
0.425868

> <i_epik_Tot_Q>
0

> <i_epik_Tot_abs_Q>
0

> <r_epik_Metal_State_Penalty>
1.44144

> <b_epik_Metal_Only>
0

> <s_epik_Chemistry_Notes>
This compound contains an acetal/aminal-like group ( X-CH(R)-Y where X, Y are N, S, or O) that may be acid/base labile, releasing an aldehyde.

> <s_lp_Force_Field>
OPLS_2005

> <r_lp_Energy>
43.4665

> <b_lp_Chiralities_Consistent>
1

> <s_lp_Variant>
AV-unprocessed.smi:72-16

> <Gold.Version>
5.8.1

> <Gold.Id.Protein>
6NUR|6NUR_protein|mol2

> <Gold.PLP.Fitness>
39.1415

> <Gold.PLP.PLP>
-24.3439

> <Gold.PLP.part.hbond>
-6.0000

> <Gold.PLP.part.metal>
0.0000

> <Gold.PLP.part.buried>
-2.7962

> <Gold.PLP.part.nonpolar>
-21.3910

> <Gold.PLP.part.repulsive>
6.3042

> <Gold.PLP.ligand.clash>
0.0000

> <Gold.PLP.ligand.torsion>
0.6410

> <Gold.PLP.Chemscore.Hbond>
4.4760

> <Gold.PLP.Chemscore.CHOScore>
0.8793

> <Gold.PLP.Chemscore.Metal>
0.0000

> <Gold.Chemscore.Hbonds>
donor molecule, donor type, donor heavy atom, donor atom, acceptor molecule, acceptor atom, score
      L1  H    10    26       P1  7948  1.00
      L1  H    12    27       P1 10175  1.00
      L1  H    14    28       P1  8028  1.00
      P1  H  7954  7966       L1    10  0.10
      P1  H  7997  8009       L1     1  0.90
      L1  C     4    23       P1  7957  1.00

> <Gold.PLP.Chemscore.Internal.Correction>
0.0140

> <Gold.Rescore>
     Score         DG    S(hbond)    S(metal)    S(lipo)     H(rot)  DE(clash)    DE(int)     intcor
      5.67      -9.18       3.39        0.00      23.67       4.06       2.09       1.43       ----

> <Gold.Chemscore.Fitness>
5.6654

> <Gold.Chemscore.DG>
-9.1815

> <Gold.Chemscore.ZeroCoef>
-5.4800

> <Gold.Chemscore.Hbond>
3.3909

> <Gold.Chemscore.Metal>
0.0000

> <Gold.Chemscore.Lipo>
23.6694

> <Gold.Chemscore.Internal_Hbond>
0.0000

> <Gold.Chemscore.DEClash>
2.0850

> <Gold.Chemscore.DEInternal>
1.4311

> <Gold.Chemscore.Rot>
4.0600

> <Gold.Chemscore.Internal.Correction>
   9.000000E+99

> <Gold.Chemscore.Hbonds>
donor molecule, donor type, donor heavy atom, donor atom, acceptor molecule, acceptor atom, score
      L1  H    10    26       P1  7948  0.99
      L1  H    12    27       P1 10175  0.98
      L1  H    14    28       P1  8028  0.55
      P1  H  7997  8009       L1     1  0.50

> <Gold.Chemscore.Hbond.Weighted>
-11.3258

> <Gold.Chemscore.Metal.Weighted>
-0.0000

> <Gold.Chemscore.Lipo.Weighted>
-2.7693

> <Gold.Chemscore.Internal_Hbond.Weighted>
0.0000

> <Gold.Chemscore.DEClash.Weighted>
2.0850

> <Gold.Chemscore.DEInternal.Weighted>
1.4311

> <Gold.Chemscore.Rot.Weighted>
10.3936

> <Gold.Chemscore.Internal.Correction.Weighted>
   9.000000E+99

> <Gold.Protein.RotatedTorsions>
[ 6907 6896 6895 6894 ] final -124.18 input  -60.11 | X-H torsion
[ 7974 7965 7964 7962 ] final   68.52 input  175.53 | X-H torsion
[ 8008 7997 7996 7995 ] final  165.41 input   59.86 | X-H torsion
[ 10167 10162 10161 10158 ] final  177.33 input  -65.29 | X-H torsion
[ 10718 10713 10712 10709 ] final   10.92 input   66.30 | X-H torsion
[ 10763 10752 10751 10750 ] final   12.71 input  -60.55 | X-H torsion
[ 11005 11000 10999 10996 ] final  -84.44 input  -57.11 | X-H torsion

> <Gold.Protein.ActiveResidues>
 VAL166  LYS551  ARG553  GLY616  TRP617  ASP618  TYR619  PRO620  LYS621  CYS622 
 ASP623  PHE694  ASN695  SER759  ASP760  ASP761  ALA762  ILE779  LEU786  VAL792 
 PHE793  MET794  SER795  GLU796  ALA797  LYS798  CYS799  TRP800  GLU811  SER814 

> <Gold.Protein.RotatedAtoms>
  150.8743  133.7461  159.2951 H   0  0  0  0  0  0  0  0  0  0  0  0  # atno 6907 bound_to 6896
  151.5063  135.1062  159.9851 H   0  0  0  0  0  0  0  0  0  0  0  0  # atno 6908 bound_to 6896
  152.4717  133.7999  159.7003 H   0  0  0  0  0  0  0  0  0  0  0  0  # atno 6909 bound_to 6896
  145.8016  139.2985  143.1151 H   0  0  0  0  0  0  0  0  0  0  0  0  # atno 7974 bound_to 7965
  156.1802  140.1670  156.8288 H   0  0  0  0  0  0  0  0  0  0  0  0  # atno 8008 bound_to 7997
  154.5352  140.0748  156.8447 H   0  0  0  0  0  0  0  0  0  0  0  0  # atno 8009 bound_to 7997
  155.3326  140.3380  155.4241 H   0  0  0  0  0  0  0  0  0  0  0  0  # atno 8010 bound_to 7997
  139.5249  144.2811  152.0546 H   0  0  0  0  0  0  0  0  0  0  0  0  # atno 10167 bound_to 10162
  156.9881  130.6032  149.5683 H   0  0  0  0  0  0  0  0  0  0  0  0  # atno 10718 bound_to 10713
  153.1795  135.6825  153.8498 H   0  0  0  0  0  0  0  0  0  0  0  0  # atno 10763 bound_to 10752
  153.7834  135.3179  155.3370 H   0  0  0  0  0  0  0  0  0  0  0  0  # atno 10764 bound_to 10752
  154.8050  135.4754  154.0465 H   0  0  0  0  0  0  0  0  0  0  0  0  # atno 10765 bound_to 10752
  141.1650  133.7346  156.8868 H   0  0  0  0  0  0  0  0  0  0  0  0  # atno 11005 bound_to 11000
  145.9871  140.8634  143.0085 LP  0  0  0  0  0  0  0  0  0  0  0  0  # atno 17320 bound_to 7965
  144.6768  140.2163  143.7371 LP  0  0  0  0  0  0  0  0  0  0  0  0  # atno 17321 bound_to 7965
  140.2266  144.4411  150.6318 LP  0  0  0  0  0  0  0  0  0  0  0  0  # atno 17342 bound_to 10162
  140.6383  143.2199  151.6346 LP  0  0  0  0  0  0  0  0  0  0  0  0  # atno 17343 bound_to 10162
  156.0218  130.5312  150.8296 LP  0  0  0  0  0  0  0  0  0  0  0  0  # atno 17370 bound_to 10713
  157.5478  131.0943  150.9738 LP  0  0  0  0  0  0  0  0  0  0  0  0  # atno 17371 bound_to 10713
  140.1676  134.9122  157.2793 LP  0  0  0  0  0  0  0  0  0  0  0  0  # atno 17394 bound_to 11000
  140.2539  134.3651  155.7432 LP  0  0  0  0  0  0  0  0  0  0  0  0  # atno 17395 bound_to 11000

$$$$
