AV-unprocessed.smi:2855|AV-procd|sdf|10981|dock3
  -GOLD-   2272015433D 1   1.00000     0.00000
 Structure written by MMmdl.
 47 48  0  0  0  0  0  0  0  0  1 V2000
  150.4987  135.7350  155.6013 C   0  0  0  0  0  0  0  0  0  0  0  0
  149.5037  134.5843  155.3938 C   0  0  2  0  0  0  0  0  0  0  0  0
  150.1651  133.3872  154.6902 C   0  0  0  0  0  0  0  0  0  0  0  0
  149.1714  132.2333  154.4854 C   0  0  0  0  0  0  0  0  0  0  0  0
  147.9226  132.6809  153.6894 C   0  0  1  0  0  0  0  0  0  0  0  0
  146.9382  131.5131  153.3768 C   0  0  0  0  0  0  0  0  0  0  0  0
  147.6055  130.1268  153.3143 C   0  0  0  0  0  0  0  0  0  0  0  0
  146.1026  131.7708  152.1113 C   0  0  0  0  0  0  0  0  0  0  0  0
  147.2587  133.8973  154.3932 C   0  0  2  0  0  0  0  0  0  0  0  0
  146.1292  134.3992  153.6124 N   0  0  0  0  0  0  0  0  0  0  0  0
  145.3212  135.4134  153.9583 C   0  0  0  0  0  0  0  0  0  0  0  0
  145.4804  136.0954  154.9714 O   0  0  0  0  0  0  0  0  0  0  0  0
  144.1563  135.7047  153.0034 C   0  0  0  0  0  0  0  0  0  0  0  0
  144.0431  134.7011  151.9354 N   0  0  0  0  0  0  0  0  0  0  0  0
  143.2311  133.5879  152.1001 C   0  0  0  0  0  0  0  0  0  0  0  0
  143.0915  132.6217  151.1617 C   0  0  0  0  0  0  0  0  0  0  0  0
  143.8118  132.7114  149.8959 C   0  0  0  0  0  0  0  0  0  0  0  0
  143.7493  131.8892  148.9845 O   0  0  0  0  0  0  0  0  0  0  0  0
  144.6201  133.8441  149.7691 N   0  0  0  0  0  0  0  0  0  0  0  0
  144.7699  134.8428  150.7325 C   0  0  0  0  0  0  0  0  0  0  0  0
  145.5134  135.8003  150.5203 O   0  0  0  0  0  0  0  0  0  0  0  0
  148.2662  135.0443  154.6031 C   0  0  0  0  0  0  0  0  0  0  0  0
  145.1402  133.9483  148.9100 H   0  0  0  0  0  0  0  0  0  0  0  0
  150.8739  136.1118  154.6495 H   0  0  0  0  0  0  0  0  0  0  0  0
  151.3556  135.4108  156.1923 H   0  0  0  0  0  0  0  0  0  0  0  0
  150.0314  136.5674  156.1284 H   0  0  0  0  0  0  0  0  0  0  0  0
  149.1714  134.2553  156.3796 H   0  0  0  0  0  0  0  0  0  0  0  0
  150.5642  133.6992  153.7240 H   0  0  0  0  0  0  0  0  0  0  0  0
  151.0155  133.0347  155.2751 H   0  0  0  0  0  0  0  0  0  0  0  0
  149.6849  131.4218  153.9713 H   0  0  0  0  0  0  0  0  0  0  0  0
  148.8761  131.8436  155.4597 H   0  0  0  0  0  0  0  0  0  0  0  0
  148.2813  133.0422  152.7239 H   0  0  0  0  0  0  0  0  0  0  0  0
  146.2122  131.4697  154.1886 H   0  0  0  0  0  0  0  0  0  0  0  0
  148.3173  130.0563  152.4922 H   0  0  0  0  0  0  0  0  0  0  0  0
  146.8589  129.3464  153.1650 H   0  0  0  0  0  0  0  0  0  0  0  0
  148.1327  129.8885  154.2372 H   0  0  0  0  0  0  0  0  0  0  0  0
  146.7091  131.7309  151.2067 H   0  0  0  0  0  0  0  0  0  0  0  0
  145.6180  132.7469  152.1487 H   0  0  0  0  0  0  0  0  0  0  0  0
  145.3171  131.0218  152.0066 H   0  0  0  0  0  0  0  0  0  0  0  0
  146.9217  133.5806  155.3812 H   0  0  0  0  0  0  0  0  0  0  0  0
  145.9215  133.9075  152.7555 H   0  0  0  0  0  0  0  0  0  0  0  0
  143.2385  135.7451  153.5915 H   0  0  0  0  0  0  0  0  0  0  0  0
  144.2640  136.6998  152.5661 H   0  0  0  0  0  0  0  0  0  0  0  0
  142.6816  133.4765  153.0240 H   0  0  0  0  0  0  0  0  0  0  0  0
  142.4440  131.7773  151.3489 H   0  0  0  0  0  0  0  0  0  0  0  0
  147.7798  135.8657  155.1313 H   0  0  0  0  0  0  0  0  0  0  0  0
  148.5782  135.4425  153.6362 H   0  0  0  0  0  0  0  0  0  0  0  0
  1  2  1  0  0  0  0
  1 24  1  0  0  0  0
  1 25  1  0  0  0  0
  1 26  1  0  0  0  0
  2 22  1  0  0  0  0
  2  3  1  0  0  0  0
  2 27  1  0  0  0  0
  3  4  1  0  0  0  0
  3 28  1  0  0  0  0
  3 29  1  0  0  0  0
  4  5  1  0  0  0  0
  4 30  1  0  0  0  0
  4 31  1  0  0  0  0
  5  6  1  0  0  0  0
  5  9  1  0  0  0  0
  5 32  1  0  0  0  0
  6  7  1  0  0  0  0
  6  8  1  0  0  0  0
  6 33  1  0  0  0  0
  7 34  1  0  0  0  0
  7 35  1  0  0  0  0
  7 36  1  0  0  0  0
  8 37  1  0  0  0  0
  8 38  1  0  0  0  0
  8 39  1  0  0  0  0
  9 10  1  0  0  0  0
  9 22  1  0  0  0  0
  9 40  1  0  0  0  0
 10 11  1  0  0  0  0
 10 41  1  0  0  0  0
 11 12  2  0  0  0  0
 11 13  1  0  0  0  0
 13 14  1  0  0  0  0
 13 42  1  0  0  0  0
 13 43  1  0  0  0  0
 14 20  1  0  0  0  0
 14 15  1  0  0  0  0
 15 16  2  0  0  0  0
 15 44  1  0  0  0  0
 16 17  1  0  0  0  0
 16 45  1  0  0  0  0
 17 18  2  0  0  0  0
 17 19  1  0  0  0  0
 19 23  1  0  0  0  0
 19 20  1  0  0  0  0
 20 21  2  0  0  0  0
 22 46  1  0  0  0  0
 22 47  1  0  0  0  0
M  END
> <s_m_source_file>
AV-unprocessed.smi

> <i_m_source_file_index>
2855

> <i_lp_mmshare_version>
43012

> <i_f3d_flags>
0

> <s_epik_input>
W0NIM11bQ0BASF0xW0NIMl1bQ0gyXVtDQEBIXShbQ0hdKFtDSDNdKVtDSDNdKVtDQEhdKFtDSDJdMSlbTkhdQyg9TylbQ0gyXW4yW2NIXVtjSF1jKD1PKVtuSF1jMj1P

> <s_epik_cmdline>
J2VwaWtfcHl0aG9uJywgJy1waCcsICc3LjAnLCAnLXRuJywgJzgnLCAnLW1hJywgJzIwMCcsICctbWV0YWxfYmluZGluZycsICctaW1hZScsICc8aW5maWxlLm1hZT4nLCAnLW9tYWUnLCAnPG91dGZpbGUubWFlPic=

> <r_lp_tautomer_probability>
0.999537

> <r_epik_Ionization_Penalty>
0.00306256

> <r_epik_Ionization_Penalty_Charging>
0.00306254

> <r_epik_Ionization_Penalty_Neutral>
2.0223e-08

> <r_epik_State_Penalty>
0.0021533

> <r_epik_Charging_Adjusted_Penalty>
0.00521583

> <i_epik_Tot_Q>
0

> <i_epik_Tot_abs_Q>
0

> <r_epik_Metal_State_Penalty>
0.362116

> <b_epik_Metal_Only>
0

> <s_lp_Force_Field>
OPLS_2005

> <r_lp_Energy>
14.402

> <b_lp_Chiralities_Consistent>
1

> <s_lp_Variant>
AV-unprocessed.smi:2855-5

> <Gold.Version>
5.8.1

> <Gold.Id.Protein>
6NUR|6NUR_protein|mol2

> <Gold.PLP.Fitness>
38.6479

> <Gold.PLP.PLP>
-32.7031

> <Gold.PLP.part.hbond>
-2.0000

> <Gold.PLP.part.metal>
0.0000

> <Gold.PLP.part.buried>
-5.2765

> <Gold.PLP.part.nonpolar>
-26.6599

> <Gold.PLP.part.repulsive>
0.6158

> <Gold.PLP.ligand.clash>
0.0000

> <Gold.PLP.ligand.torsion>
1.0410

> <Gold.PLP.Chemscore.Hbond>
1.6560

> <Gold.PLP.Chemscore.CHOScore>
1.0000

> <Gold.PLP.Chemscore.Metal>
0.0000

> <Gold.Chemscore.Hbonds>
donor molecule, donor type, donor heavy atom, donor atom, acceptor molecule, acceptor atom, score
      L1  H    19    23       P1  7921  1.00
      P1  H 10785 10796       L1    18  0.75
      L1  C    15    44       P1 10957  1.00

> <Gold.PLP.Chemscore.Internal.Correction>
0.0589

> <Gold.Rescore>
     Score         DG    S(hbond)    S(metal)    S(lipo)     H(rot)  DE(clash)    DE(int)     intcor
     11.65     -14.31       1.83        0.00      63.82       1.85       0.29       2.36       ----

> <Gold.Chemscore.Fitness>
11.6532

> <Gold.Chemscore.DG>
-14.3053

> <Gold.Chemscore.ZeroCoef>
-5.4800

> <Gold.Chemscore.Hbond>
1.8276

> <Gold.Chemscore.Metal>
0.0000

> <Gold.Chemscore.Lipo>
63.8210

> <Gold.Chemscore.Internal_Hbond>
0.0000

> <Gold.Chemscore.DEClash>
0.2943

> <Gold.Chemscore.DEInternal>
2.3578

> <Gold.Chemscore.Rot>
1.8539

> <Gold.Chemscore.Internal.Correction>
   9.000000E+99

> <Gold.Chemscore.Hbonds>
donor molecule, donor type, donor heavy atom, donor atom, acceptor molecule, acceptor atom, score
      L1  H    19    23       P1  7921  0.94
      P1  H 10785 10796       L1    18  0.76

> <Gold.Chemscore.Hbond.Weighted>
-6.1042

> <Gold.Chemscore.Metal.Weighted>
-0.0000

> <Gold.Chemscore.Lipo.Weighted>
-7.4671

> <Gold.Chemscore.Internal_Hbond.Weighted>
0.0000

> <Gold.Chemscore.DEClash.Weighted>
0.2943

> <Gold.Chemscore.DEInternal.Weighted>
2.3578

> <Gold.Chemscore.Rot.Weighted>
4.7460

> <Gold.Chemscore.Internal.Correction.Weighted>
   9.000000E+99

> <Gold.Protein.RotatedTorsions>
[ 6907 6896 6895 6894 ] final   73.21 input  -60.11 | X-H torsion
[ 7974 7965 7964 7962 ] final -115.17 input  175.53 | X-H torsion
[ 8008 7997 7996 7995 ] final -109.25 input   59.86 | X-H torsion
[ 10167 10162 10161 10158 ] final   13.18 input  -65.29 | X-H torsion
[ 10718 10713 10712 10709 ] final -142.27 input   66.30 | X-H torsion
[ 10763 10752 10751 10750 ] final  122.03 input  -60.55 | X-H torsion
[ 11005 11000 10999 10996 ] final  -81.78 input  -57.11 | X-H torsion

> <Gold.Protein.ActiveResidues>
 VAL166  LYS551  ARG553  GLY616  TRP617  ASP618  TYR619  PRO620  LYS621  CYS622 
 ASP623  PHE694  ASN695  SER759  ASP760  ASP761  ALA762  ILE779  LEU786  VAL792 
 PHE793  MET794  SER795  GLU796  ALA797  LYS798  CYS799  TRP800  GLU811  SER814 

> <Gold.Protein.RotatedAtoms>
  152.4911  134.4456  159.9557 H   0  0  0  0  0  0  0  0  0  0  0  0  # atno 6907 bound_to 6896
  151.4443  133.3629  159.2794 H   0  0  0  0  0  0  0  0  0  0  0  0  # atno 6908 bound_to 6896
  150.9066  134.8505  159.7456 H   0  0  0  0  0  0  0  0  0  0  0  0  # atno 6909 bound_to 6896
  145.1116  140.8615  143.3866 H   0  0  0  0  0  0  0  0  0  0  0  0  # atno 7974 bound_to 7965
  154.9565  140.0400  157.2169 H   0  0  0  0  0  0  0  0  0  0  0  0  # atno 8008 bound_to 7997
  154.7929  140.2838  155.5956 H   0  0  0  0  0  0  0  0  0  0  0  0  # atno 8009 bound_to 7997
  156.2952  140.2570  156.2781 H   0  0  0  0  0  0  0  0  0  0  0  0  # atno 8010 bound_to 7997
  140.6019  143.8587  150.6974 H   0  0  0  0  0  0  0  0  0  0  0  0  # atno 10167 bound_to 10162
  156.3439  130.7652  151.1793 H   0  0  0  0  0  0  0  0  0  0  0  0  # atno 10718 bound_to 10713
  153.6234  135.3409  155.3018 H   0  0  0  0  0  0  0  0  0  0  0  0  # atno 10763 bound_to 10752
  154.8595  135.4278  154.2183 H   0  0  0  0  0  0  0  0  0  0  0  0  # atno 10764 bound_to 10752
  153.3061  135.7028  153.7231 H   0  0  0  0  0  0  0  0  0  0  0  0  # atno 10765 bound_to 10752
  141.1665  133.7213  156.8474 H   0  0  0  0  0  0  0  0  0  0  0  0  # atno 11005 bound_to 11000
  145.0841  139.2938  143.5769 LP  0  0  0  0  0  0  0  0  0  0  0  0  # atno 17320 bound_to 7965
  146.3526  140.0356  142.8647 LP  0  0  0  0  0  0  0  0  0  0  0  0  # atno 17321 bound_to 7965
  140.2135  143.3865  152.1700 LP  0  0  0  0  0  0  0  0  0  0  0  0  # atno 17342 bound_to 10162
  139.5297  144.7145  151.5100 LP  0  0  0  0  0  0  0  0  0  0  0  0  # atno 17343 bound_to 10162
  157.7451  131.0447  150.4804 LP  0  0  0  0  0  0  0  0  0  0  0  0  # atno 17370 bound_to 10713
  156.4989  130.4112  149.6364 LP  0  0  0  0  0  0  0  0  0  0  0  0  # atno 17371 bound_to 10713
  140.1940  134.8945  157.3093 LP  0  0  0  0  0  0  0  0  0  0  0  0  # atno 17394 bound_to 11000
  140.2259  134.3967  155.7544 LP  0  0  0  0  0  0  0  0  0  0  0  0  # atno 17395 bound_to 11000

$$$$
