AV-unprocessed.smi:3065|AV-procd|sdf|11691|dock3
  -GOLD-   2272017 93D 1   1.00000     0.00000
 Structure written by MMmdl.
 24 25  0  0  0  0  0  0  0  0  2 V2000
  152.2252  139.3117  155.3762 C   0  0  0  0  0  0  0  0  0  0  0  0
  151.1141  139.7619  154.7212 N   0  0  0  0  0  0  0  0  0  0  0  0
  150.6617  140.6259  155.6188 C   0  0  0  0  0  0  0  0  0  0  0  0
  151.4239  140.7192  156.7100 N   0  0  0  0  0  0  0  0  0  0  0  0
  151.2515  141.5168  157.9121 C   0  0  0  0  0  0  0  0  0  0  0  0
  151.5978  143.0049  157.7085 C   0  0  2  0  0  0  0  0  0  0  0  0
  152.7430  143.4955  158.5973 C   0  0  0  0  0  0  0  0  0  0  0  0
  152.5057  145.0000  158.6543 C   0  0  0  0  0  0  0  0  0  0  0  0
  150.9796  145.1193  158.6625 C   0  0  0  0  0  0  0  0  0  0  0  0
  150.4605  143.8979  158.0138 N   0  3  0  0  0  0  0  0  0  0  0  0
  152.4520  139.8479  156.5758 N   0  0  0  0  0  0  0  0  0  0  0  0
  152.8846  138.5653  154.9580 H   0  0  0  0  0  0  0  0  0  0  0  0
  149.7584  141.2010  155.4765 H   0  0  0  0  0  0  0  0  0  0  0  0
  150.2203  141.4106  158.2524 H   0  0  0  0  0  0  0  0  0  0  0  0
  151.8843  141.0900  158.6915 H   0  0  0  0  0  0  0  0  0  0  0  0
  151.8791  143.1852  156.6697 H   0  0  0  0  0  0  0  0  0  0  0  0
  152.6594  143.0717  159.5994 H   0  0  0  0  0  0  0  0  0  0  0  0
  153.7260  143.2363  158.2026 H   0  0  0  0  0  0  0  0  0  0  0  0
  152.9722  145.4716  159.5198 H   0  0  0  0  0  0  0  0  0  0  0  0
  152.9101  145.4710  157.7571 H   0  0  0  0  0  0  0  0  0  0  0  0
  150.6057  145.1497  159.6865 H   0  0  0  0  0  0  0  0  0  0  0  0
  150.6345  146.0179  158.1510 H   0  0  0  0  0  0  0  0  0  0  0  0
  149.9647  144.1253  157.1635 H   0  0  0  0  0  0  0  0  0  0  0  0
  149.8340  143.4352  158.6568 H   0  0  0  0  0  0  0  0  0  0  0  0
  1 11  2  0  0  0  0
  1  2  1  0  0  0  0
  1 12  1  0  0  0  0
  2  3  2  0  0  0  0
  3  4  1  0  0  0  0
  3 13  1  0  0  0  0
  4  5  1  0  0  0  0
  4 11  1  0  0  0  0
  5  6  1  0  0  0  0
  5 14  1  0  0  0  0
  5 15  1  0  0  0  0
  6 10  1  0  0  0  0
  6  7  1  0  0  0  0
  6 16  1  0  0  0  0
  7  8  1  0  0  0  0
  7 17  1  0  0  0  0
  7 18  1  0  0  0  0
  8  9  1  0  0  0  0
  8 19  1  0  0  0  0
  8 20  1  0  0  0  0
  9 10  1  0  0  0  0
  9 21  1  0  0  0  0
  9 22  1  0  0  0  0
 10 23  1  0  0  0  0
 10 24  1  0  0  0  0
M  CHG  1  10   1
M  END
> <s_m_source_file>
AV-unprocessed.smi

> <i_m_source_file_index>
3065

> <i_lp_mmshare_version>
43012

> <i_f3d_flags>
0

> <s_epik_input>
bjFbY0hdbltjSF1uMVtDSDJdW0NAQEhdMltDSDJdW0NIMl1bQ0gyXVtOSF0y

> <s_epik_cmdline>
J2VwaWtfcHl0aG9uJywgJy1waCcsICc3LjAnLCAnLXRuJywgJzgnLCAnLW1hJywgJzIwMCcsICctbWV0YWxfYmluZGluZycsICctaW1hZScsICc8aW5maWxlLm1hZT4nLCAnLW9tYWUnLCAnPG91dGZpbGUubWFlPic=

> <r_lp_tautomer_probability>
1

> <r_epik_Ionization_Penalty>
0.000581652

> <r_epik_Ionization_Penalty_Charging>
0.000580891

> <r_epik_Ionization_Penalty_Neutral>
7.60238e-07

> <r_epik_State_Penalty>
0.000365066

> <r_epik_Charging_Adjusted_Penalty>
0.000945958

> <i_epik_Tot_Q>
1

> <i_epik_Tot_abs_Q>
1

> <r_epik_Metal_State_Penalty>
-0

> <b_epik_Metal_Only>
0

> <s_lp_Force_Field>
OPLS_2005

> <r_lp_Energy>
27.3855

> <b_lp_Chiralities_Consistent>
1

> <s_lp_Variant>
AV-unprocessed.smi:3065-1

> <Gold.Version>
5.8.1

> <Gold.Id.Protein>
6NUR|6NUR_protein|mol2

> <Gold.PLP.Fitness>
39.3890

> <Gold.PLP.PLP>
-29.2363

> <Gold.PLP.part.hbond>
-3.0000

> <Gold.PLP.part.metal>
0.0000

> <Gold.PLP.part.buried>
-3.5050

> <Gold.PLP.part.nonpolar>
-20.9850

> <Gold.PLP.part.repulsive>
0.1048

> <Gold.PLP.ligand.clash>
0.0000

> <Gold.PLP.ligand.torsion>
0.9265

> <Gold.PLP.Chemscore.Hbond>
4.0000

> <Gold.PLP.Chemscore.CHOScore>
0.0000

> <Gold.PLP.Chemscore.Metal>
0.0000

> <Gold.Chemscore.Hbonds>
donor molecule, donor type, donor heavy atom, donor atom, acceptor molecule, acceptor atom, score
      L1  H    10    23       P1  8028  2.00
      P1  H  7989  7998       L1     2  1.00
      P1  H  7997  8008       L1    11  1.00

> <Gold.PLP.Chemscore.Internal.Correction>
0.0058

> <Gold.Rescore>
     Score         DG    S(hbond)    S(metal)    S(lipo)     H(rot)  DE(clash)    DE(int)     intcor
     11.80     -12.72       1.38        0.00      55.80       1.52       0.01       0.91       ----

> <Gold.Chemscore.Fitness>
11.8014

> <Gold.Chemscore.DG>
-12.7201

> <Gold.Chemscore.ZeroCoef>
-5.4800

> <Gold.Chemscore.Hbond>
1.3802

> <Gold.Chemscore.Metal>
0.0000

> <Gold.Chemscore.Lipo>
55.7978

> <Gold.Chemscore.Internal_Hbond>
0.0000

> <Gold.Chemscore.DEClash>
0.0126

> <Gold.Chemscore.DEInternal>
0.9061

> <Gold.Chemscore.Rot>
1.5227

> <Gold.Chemscore.Internal.Correction>
   9.000000E+99

> <Gold.Chemscore.Hbonds>
donor molecule, donor type, donor heavy atom, donor atom, acceptor molecule, acceptor atom, score
      L1  H    10    23       P1  8028  0.78
      P1  H  7989  7998       L1     2  0.15
      P1  H  7997  8008       L1    11  0.39

> <Gold.Chemscore.Hbond.Weighted>
-4.6098

> <Gold.Chemscore.Metal.Weighted>
-0.0000

> <Gold.Chemscore.Lipo.Weighted>
-6.5283

> <Gold.Chemscore.Internal_Hbond.Weighted>
0.0000

> <Gold.Chemscore.DEClash.Weighted>
0.0126

> <Gold.Chemscore.DEInternal.Weighted>
0.9061

> <Gold.Chemscore.Rot.Weighted>
3.8981

> <Gold.Chemscore.Internal.Correction.Weighted>
   9.000000E+99

> <Gold.Protein.RotatedTorsions>
[ 6907 6896 6895 6894 ] final   80.51 input  -60.11 | X-H torsion
[ 7974 7965 7964 7962 ] final   22.58 input  175.53 | X-H torsion
[ 8008 7997 7996 7995 ] final  -56.58 input   59.86 | X-H torsion
[ 10167 10162 10161 10158 ] final    9.03 input  -65.29 | X-H torsion
[ 10718 10713 10712 10709 ] final -126.31 input   66.30 | X-H torsion
[ 10763 10752 10751 10750 ] final   43.05 input  -60.55 | X-H torsion
[ 11005 11000 10999 10996 ] final -166.48 input  -57.11 | X-H torsion

> <Gold.Protein.ActiveResidues>
 VAL166  LYS551  ARG553  GLY616  TRP617  ASP618  TYR619  PRO620  LYS621  CYS622 
 ASP623  PHE694  ASN695  SER759  ASP760  ASP761  ALA762  ILE779  LEU786  VAL792 
 PHE793  MET794  SER795  GLU796  ALA797  LYS798  CYS799  TRP800  GLU811  SER814 

> <Gold.Protein.RotatedAtoms>
  152.5237  134.3347  159.9195 H   0  0  0  0  0  0  0  0  0  0  0  0  # atno 6907 bound_to 6896
  151.3296  133.3999  159.2669 H   0  0  0  0  0  0  0  0  0  0  0  0  # atno 6908 bound_to 6896
  150.9891  134.9248  159.7947 H   0  0  0  0  0  0  0  0  0  0  0  0  # atno 6909 bound_to 6896
  146.2022  139.7864  142.8753 H   0  0  0  0  0  0  0  0  0  0  0  0  # atno 7974 bound_to 7965
  154.4235  140.1126  156.5659 H   0  0  0  0  0  0  0  0  0  0  0  0  # atno 8008 bound_to 7997
  155.6262  140.3495  155.4649 H   0  0  0  0  0  0  0  0  0  0  0  0  # atno 8009 bound_to 7997
  155.9984  140.1194  157.0560 H   0  0  0  0  0  0  0  0  0  0  0  0  # atno 8010 bound_to 7997
  140.6279  143.8060  150.7257 H   0  0  0  0  0  0  0  0  0  0  0  0  # atno 10167 bound_to 10162
  156.1753  130.6695  151.0234 H   0  0  0  0  0  0  0  0  0  0  0  0  # atno 10718 bound_to 10713
  152.9869  135.6113  154.3049 H   0  0  0  0  0  0  0  0  0  0  0  0  # atno 10763 bound_to 10752
  154.2768  135.2778  155.2716 H   0  0  0  0  0  0  0  0  0  0  0  0  # atno 10764 bound_to 10752
  154.5073  135.5850  153.6634 H   0  0  0  0  0  0  0  0  0  0  0  0  # atno 10765 bound_to 10752
  140.5640  134.5304  157.5149 H   0  0  0  0  0  0  0  0  0  0  0  0  # atno 11005 bound_to 11000
  145.3444  141.0294  143.3374 LP  0  0  0  0  0  0  0  0  0  0  0  0  # atno 17320 bound_to 7965
  144.8710  139.5039  143.6768 LP  0  0  0  0  0  0  0  0  0  0  0  0  # atno 17321 bound_to 7965
  140.1664  143.4231  152.2031 LP  0  0  0  0  0  0  0  0  0  0  0  0  # atno 17342 bound_to 10162
  139.5497  144.7327  151.4474 LP  0  0  0  0  0  0  0  0  0  0  0  0  # atno 17343 bound_to 10162
  157.6831  131.0832  150.7315 LP  0  0  0  0  0  0  0  0  0  0  0  0  # atno 17370 bound_to 10713
  156.7373  130.4728  149.5485 LP  0  0  0  0  0  0  0  0  0  0  0  0  # atno 17371 bound_to 10713
  139.9394  134.7816  156.0719 LP  0  0  0  0  0  0  0  0  0  0  0  0  # atno 17394 bound_to 11000
  141.1097  133.6647  156.2948 LP  0  0  0  0  0  0  0  0  0  0  0  0  # atno 17395 bound_to 11000

$$$$
