AV-unprocessed.smi:1368|AV-procd|sdf|5575|dock5
  -GOLD-   22720 5173D 1   1.00000     0.00000
 Structure written by MMmdl.
 46 48  0  0  0  0  0  0  0  0  1 V2000
  144.1541  134.7622  149.9998 C   0  0  0  0  0  0  0  0  0  0  0  0
  145.0757  135.3465  151.0661 C   0  0  0  0  0  0  0  0  0  0  0  0
  145.6626  134.5864  151.8348 O   0  0  0  0  0  0  0  0  0  0  0  0
  145.1549  136.6901  151.0965 N   0  0  0  0  0  0  0  0  0  0  0  0
  145.9258  137.5230  151.9535 C   0  0  0  0  0  0  0  0  0  0  0  0
  146.0798  137.1038  153.2902 C   0  0  0  0  0  0  0  0  0  0  0  0
  146.8148  137.8825  154.2042 C   0  0  0  0  0  0  0  0  0  0  0  0
  147.4036  139.0991  153.8067 C   0  0  0  0  0  0  0  0  0  0  0  0
  148.1074  139.7974  154.7646 O   0  0  0  0  0  0  0  0  0  0  0  0
  148.6737  141.0501  154.4028 C   0  0  0  0  0  0  0  0  0  0  0  0
  149.8353  141.3699  155.3569 C   0  0  2  0  0  0  0  0  0  0  0  0
  150.8718  140.4355  155.1269 O   0  0  0  0  0  0  0  0  0  0  0  0
  149.3978  141.2896  156.8338 C   0  0  0  0  0  0  0  0  0  0  0  0
  150.5164  141.1123  157.7506 N   0  0  0  0  0  0  0  0  0  0  0  0
  151.0099  139.9527  158.2504 C   0  0  0  0  0  0  0  0  0  0  0  0
  150.4219  138.6247  157.8927 C   0  0  0  0  0  0  0  0  0  0  0  0
  152.0518  140.0702  159.0736 N   0  0  0  0  0  0  0  0  0  0  0  0
  152.2557  141.4362  159.1104 C   0  0  0  0  0  0  0  0  0  0  0  0
  153.2181  142.2028  159.8061 C   0  0  0  0  0  0  0  0  0  0  0  0
  153.2325  143.6081  159.6881 C   0  0  0  0  0  0  0  0  0  0  0  0
  152.2868  144.2660  158.8753 C   0  0  0  0  0  0  0  0  0  0  0  0
  151.3205  143.5212  158.1723 C   0  0  0  0  0  0  0  0  0  0  0  0
  151.3106  142.1186  158.2926 C   0  0  0  0  0  0  0  0  0  0  0  0
  147.2360  139.5294  152.4670 C   0  0  0  0  0  0  0  0  0  0  0  0
  146.5012  138.7518  151.5510 C   0  0  0  0  0  0  0  0  0  0  0  0
  144.0889  135.4185  149.1312 H   0  0  0  0  0  0  0  0  0  0  0  0
  143.1509  134.6240  150.4038 H   0  0  0  0  0  0  0  0  0  0  0  0
  144.5247  133.7932  149.6640 H   0  0  0  0  0  0  0  0  0  0  0  0
  144.5464  137.1785  150.4558 H   0  0  0  0  0  0  0  0  0  0  0  0
  145.6373  136.1757  153.6222 H   0  0  0  0  0  0  0  0  0  0  0  0
  146.9275  137.5416  155.2232 H   0  0  0  0  0  0  0  0  0  0  0  0
  149.0571  140.9696  153.3841 H   0  0  0  0  0  0  0  0  0  0  0  0
  147.9301  141.8493  154.4169 H   0  0  0  0  0  0  0  0  0  0  0  0
  150.2127  142.3714  155.1490 H   0  0  0  0  0  0  0  0  0  0  0  0
  151.2043  140.1459  155.9629 H   0  0  0  0  0  0  0  0  0  0  0  0
  148.8543  142.1914  157.1165 H   0  0  0  0  0  0  0  0  0  0  0  0
  148.7001  140.4632  156.9751 H   0  0  0  0  0  0  0  0  0  0  0  0
  150.9427  137.8229  158.4174 H   0  0  0  0  0  0  0  0  0  0  0  0
  150.5130  138.4475  156.8211 H   0  0  0  0  0  0  0  0  0  0  0  0
  149.3688  138.5872  158.1706 H   0  0  0  0  0  0  0  0  0  0  0  0
  153.9465  141.7084  160.4319 H   0  0  0  0  0  0  0  0  0  0  0  0
  153.9723  144.1842  160.2244 H   0  0  0  0  0  0  0  0  0  0  0  0
  152.3029  145.3429  158.7921 H   0  0  0  0  0  0  0  0  0  0  0  0
  150.5928  144.0215  157.5508 H   0  0  0  0  0  0  0  0  0  0  0  0
  147.6581  140.4580  152.1144 H   0  0  0  0  0  0  0  0  0  0  0  0
  146.3829  139.1293  150.5474 H   0  0  0  0  0  0  0  0  0  0  0  0
  1  2  1  0  0  0  0
  1 26  1  0  0  0  0
  1 27  1  0  0  0  0
  1 28  1  0  0  0  0
  2  3  2  0  0  0  0
  2  4  1  0  0  0  0
  4  5  1  0  0  0  0
  4 29  1  0  0  0  0
  5 25  1  0  0  0  0
  5  6  2  0  0  0  0
  6  7  1  0  0  0  0
  6 30  1  0  0  0  0
  7  8  2  0  0  0  0
  7 31  1  0  0  0  0
  8  9  1  0  0  0  0
  8 24  1  0  0  0  0
  9 10  1  0  0  0  0
 10 11  1  0  0  0  0
 10 32  1  0  0  0  0
 10 33  1  0  0  0  0
 11 12  1  0  0  0  0
 11 13  1  0  0  0  0
 11 34  1  0  0  0  0
 12 35  1  0  0  0  0
 13 14  1  0  0  0  0
 13 36  1  0  0  0  0
 13 37  1  0  0  0  0
 14 23  1  0  0  0  0
 14 15  1  0  0  0  0
 15 16  1  0  0  0  0
 15 17  2  0  0  0  0
 16 38  1  0  0  0  0
 16 39  1  0  0  0  0
 16 40  1  0  0  0  0
 17 18  1  0  0  0  0
 18 23  2  0  0  0  0
 18 19  1  0  0  0  0
 19 20  2  0  0  0  0
 19 41  1  0  0  0  0
 20 21  1  0  0  0  0
 20 42  1  0  0  0  0
 21 22  2  0  0  0  0
 21 43  1  0  0  0  0
 22 23  1  0  0  0  0
 22 44  1  0  0  0  0
 24 25  2  0  0  0  0
 24 45  1  0  0  0  0
 25 46  1  0  0  0  0
M  END
> <s_m_source_file>
AV-unprocessed.smi

> <i_m_source_file_index>
1368

> <i_lp_mmshare_version>
43012

> <i_f3d_flags>
0

> <s_epik_input>
W0NIM11DKD1PKVtOSF1jMVtjSF1bY0hdYyhbY0hdW2NIXTEpT1tDSDJdW0NASF0oW09IXSlbQ0gyXW4oYyhuMilbQ0gzXSljKGMyMylbY0hdW2NIXVtjSF1bY0hdMw==

> <s_epik_cmdline>
J2VwaWtfcHl0aG9uJywgJy1waCcsICc3LjAnLCAnLXRuJywgJzgnLCAnLW1hJywgJzIwMCcsICctbWV0YWxfYmluZGluZycsICctaW1hZScsICc8aW5maWxlLm1hZT4nLCAnLW9tYWUnLCAnPG91dGZpbGUubWFlPic=

> <r_lp_tautomer_probability>
1

> <r_epik_Ionization_Penalty>
0.119634

> <r_epik_Ionization_Penalty_Charging>
0

> <r_epik_Ionization_Penalty_Neutral>
0.119634

> <r_epik_State_Penalty>
0.10919

> <r_epik_Charging_Adjusted_Penalty>
0.10919

> <i_epik_Tot_Q>
0

> <i_epik_Tot_abs_Q>
0

> <r_epik_Metal_State_Penalty>
0.0906856

> <b_epik_Metal_Only>
0

> <s_lp_Force_Field>
OPLS_2005

> <r_lp_Energy>
21.7849

> <b_lp_Chiralities_Consistent>
1

> <s_lp_Variant>
AV-unprocessed.smi:1368-1

> <Gold.Version>
5.8.1

> <Gold.Id.Protein>
6NUR|6NUR_protein|mol2

> <Gold.PLP.Fitness>
50.1321

> <Gold.PLP.PLP>
-45.8948

> <Gold.PLP.part.hbond>
-2.0000

> <Gold.PLP.part.metal>
0.0000

> <Gold.PLP.part.buried>
-0.6755

> <Gold.PLP.part.nonpolar>
-43.2923

> <Gold.PLP.part.repulsive>
0.2457

> <Gold.PLP.ligand.clash>
0.0000

> <Gold.PLP.ligand.torsion>
0.9454

> <Gold.PLP.Chemscore.Hbond>
2.0000

> <Gold.PLP.Chemscore.CHOScore>
0.0000

> <Gold.PLP.Chemscore.Metal>
0.0000

> <Gold.Chemscore.Hbonds>
donor molecule, donor type, donor heavy atom, donor atom, acceptor molecule, acceptor atom, score
      L1  H     4    29       P1 10171  1.00
      P1  H  7989  7998       L1    12  1.00

> <Gold.PLP.Chemscore.Internal.Correction>
0.1281

> <Gold.Rescore>
     Score         DG    S(hbond)    S(metal)    S(lipo)     H(rot)  DE(clash)    DE(int)     intcor
     17.47     -20.78       1.83        0.00     130.88       2.39       1.23       2.08       ----

> <Gold.Chemscore.Fitness>
17.4734

> <Gold.Chemscore.DG>
-20.7814

> <Gold.Chemscore.ZeroCoef>
-5.4800

> <Gold.Chemscore.Hbond>
1.8293

> <Gold.Chemscore.Metal>
0.0000

> <Gold.Chemscore.Lipo>
130.8846

> <Gold.Chemscore.Internal_Hbond>
0.0000

> <Gold.Chemscore.DEClash>
1.2286

> <Gold.Chemscore.DEInternal>
2.0794

> <Gold.Chemscore.Rot>
2.3914

> <Gold.Chemscore.Internal.Correction>
   9.000000E+99

> <Gold.Chemscore.Hbonds>
donor molecule, donor type, donor heavy atom, donor atom, acceptor molecule, acceptor atom, score
      L1  H     4    29       P1 10171  0.97
      P1  H  7989  7998       L1    12  0.58

> <Gold.Chemscore.Hbond.Weighted>
-6.1099

> <Gold.Chemscore.Metal.Weighted>
-0.0000

> <Gold.Chemscore.Lipo.Weighted>
-15.3135

> <Gold.Chemscore.Internal_Hbond.Weighted>
0.0000

> <Gold.Chemscore.DEClash.Weighted>
1.2286

> <Gold.Chemscore.DEInternal.Weighted>
2.0794

> <Gold.Chemscore.Rot.Weighted>
6.1220

> <Gold.Chemscore.Internal.Correction.Weighted>
   9.000000E+99

> <Gold.Protein.RotatedTorsions>
[ 6907 6896 6895 6894 ] final -179.67 input  -60.11 | X-H torsion
[ 7974 7965 7964 7962 ] final   39.27 input  175.53 | X-H torsion
[ 8008 7997 7996 7995 ] final  153.55 input   59.86 | X-H torsion
[ 10167 10162 10161 10158 ] final   35.73 input  -65.29 | X-H torsion
[ 10718 10713 10712 10709 ] final  -13.46 input   66.30 | X-H torsion
[ 10763 10752 10751 10750 ] final   63.48 input  -60.55 | X-H torsion
[ 11005 11000 10999 10996 ] final  -78.61 input  -57.11 | X-H torsion

> <Gold.Protein.ActiveResidues>
 VAL166  LYS551  ARG553  GLY616  TRP617  ASP618  TYR619  PRO620  LYS621  CYS622 
 ASP623  PHE694  ASN695  SER759  ASP760  ASP761  ALA762  ILE779  LEU786  VAL792 
 PHE793  MET794  SER795  GLU796  ALA797  LYS798  CYS799  TRP800  GLU811  SER814 

> <Gold.Protein.RotatedAtoms>
  151.6572  133.3318  159.3165 H   0  0  0  0  0  0  0  0  0  0  0  0  # atno 6907 bound_to 6896
  150.7931  134.6974  159.6540 H   0  0  0  0  0  0  0  0  0  0  0  0  # atno 6908 bound_to 6896
  152.4014  134.6283  160.0120 H   0  0  0  0  0  0  0  0  0  0  0  0  # atno 6909 bound_to 6896
  146.0997  139.5671  142.9422 H   0  0  0  0  0  0  0  0  0  0  0  0  # atno 7974 bound_to 7965
  156.2576  140.1990  156.6507 H   0  0  0  0  0  0  0  0  0  0  0  0  # atno 8008 bound_to 7997
  154.6538  140.0569  157.0011 H   0  0  0  0  0  0  0  0  0  0  0  0  # atno 8009 bound_to 7997
  155.1377  140.3239  155.4462 H   0  0  0  0  0  0  0  0  0  0  0  0  # atno 8010 bound_to 7997
  140.4194  144.1481  150.6146 H   0  0  0  0  0  0  0  0  0  0  0  0  # atno 10167 bound_to 10162
  156.6299  130.4898  149.6133 H   0  0  0  0  0  0  0  0  0  0  0  0  # atno 10718 bound_to 10713
  153.0019  135.5427  154.6359 H   0  0  0  0  0  0  0  0  0  0  0  0  # atno 10763 bound_to 10752
  154.5626  135.2835  155.0907 H   0  0  0  0  0  0  0  0  0  0  0  0  # atno 10764 bound_to 10752
  154.2104  135.6468  153.5166 H   0  0  0  0  0  0  0  0  0  0  0  0  # atno 10765 bound_to 10752
  141.1665  133.7070  156.7998 H   0  0  0  0  0  0  0  0  0  0  0  0  # atno 11005 bound_to 11000
  145.5879  141.0374  143.2086 LP  0  0  0  0  0  0  0  0  0  0  0  0  # atno 17320 bound_to 7965
  144.7423  139.7415  143.7306 LP  0  0  0  0  0  0  0  0  0  0  0  0  # atno 17321 bound_to 7965
  140.4550  143.2471  151.9297 LP  0  0  0  0  0  0  0  0  0  0  0  0  # atno 17342 bound_to 10162
  139.4782  144.5524  151.8365 LP  0  0  0  0  0  0  0  0  0  0  0  0  # atno 17343 bound_to 10162
  156.2243  130.6756  151.1400 LP  0  0  0  0  0  0  0  0  0  0  0  0  # atno 17370 bound_to 10713
  157.7203  131.0685  150.6163 LP  0  0  0  0  0  0  0  0  0  0  0  0  # atno 17371 bound_to 10713
  140.2264  134.8718  157.3431 LP  0  0  0  0  0  0  0  0  0  0  0  0  # atno 17394 bound_to 11000
  140.1935  134.4342  155.7702 LP  0  0  0  0  0  0  0  0  0  0  0  0  # atno 17395 bound_to 11000

$$$$
