AV-unprocessed.smi:1520|AV-procd|sdf|6129|dock5
  -GOLD-   22720 6273D 1   1.00000     0.00000
 Structure written by MMmdl.
 37 38  0  0  0  0  0  0  0  0  1 V2000
  147.1292  137.5082  160.4316 O   0  0  0  0  0  0  0  0  0  0  0  0
  147.8877  136.6521  159.9762 C   0  0  0  0  0  0  0  0  0  0  0  0
  148.0035  135.2696  160.6303 C   0  0  0  0  0  0  0  0  0  0  0  0
  147.1891  135.0953  161.9283 C   0  0  0  0  0  0  0  0  0  0  0  0
  147.3484  133.8513  162.3784 F   0  0  0  0  0  0  0  0  0  0  0  0
  147.6065  135.9438  162.8691 F   0  0  0  0  0  0  0  0  0  0  0  0
  145.8907  135.3030  161.7041 F   0  0  0  0  0  0  0  0  0  0  0  0
  148.6551  136.8534  158.8936 N   0  0  0  0  0  0  0  0  0  0  0  0
  148.6819  138.0752  158.0981 C   0  0  0  0  0  0  0  0  0  0  0  0
  150.0954  138.5516  157.8204 C   0  0  0  0  0  0  0  0  0  0  0  0
  150.9700  137.7884  157.0208 C   0  0  0  0  0  0  0  0  0  0  0  0
  152.2763  138.2692  156.8084 C   0  0  0  0  0  0  0  0  0  0  0  0
  152.7331  139.4275  157.3303 N   0  0  0  0  0  0  0  0  0  0  0  0
  151.8919  140.1611  158.0982 C   0  0  0  0  0  0  0  0  0  0  0  0
  152.3601  141.3689  158.6348 N   0  0  0  0  0  0  0  0  0  0  0  0
  151.6793  142.5456  158.1082 C   0  0  0  0  0  0  0  0  0  0  0  0
  152.3360  143.8237  158.6589 C   0  0  0  0  0  0  0  0  0  0  0  0
  152.3338  143.7878  160.0833 O   0  0  0  0  0  0  0  0  0  0  0  0
  153.0626  142.6738  160.5918 C   0  0  0  0  0  0  0  0  0  0  0  0
  152.4237  141.3672  160.0910 C   0  0  0  0  0  0  0  0  0  0  0  0
  150.5673  139.7602  158.3721 C   0  0  0  0  0  0  0  0  0  0  0  0
  147.6852  134.5210  159.9036 H   0  0  0  0  0  0  0  0  0  0  0  0
  149.0573  135.0753  160.8341 H   0  0  0  0  0  0  0  0  0  0  0  0
  149.2501  136.0980  158.5855 H   0  0  0  0  0  0  0  0  0  0  0  0
  148.1474  137.9377  157.1565 H   0  0  0  0  0  0  0  0  0  0  0  0
  148.1414  138.8502  158.6422 H   0  0  0  0  0  0  0  0  0  0  0  0
  150.6511  136.8542  156.5825 H   0  0  0  0  0  0  0  0  0  0  0  0
  152.9729  137.7086  156.2027 H   0  0  0  0  0  0  0  0  0  0  0  0
  151.7224  142.5416  157.0183 H   0  0  0  0  0  0  0  0  0  0  0  0
  150.6256  142.5210  158.3900 H   0  0  0  0  0  0  0  0  0  0  0  0
  153.3575  143.9267  158.2892 H   0  0  0  0  0  0  0  0  0  0  0  0
  151.7859  144.7035  158.3251 H   0  0  0  0  0  0  0  0  0  0  0  0
  154.1078  142.7386  160.2852 H   0  0  0  0  0  0  0  0  0  0  0  0
  153.0470  142.7062  161.6813 H   0  0  0  0  0  0  0  0  0  0  0  0
  151.4195  141.2650  160.5047 H   0  0  0  0  0  0  0  0  0  0  0  0
  153.0038  140.5099  160.4347 H   0  0  0  0  0  0  0  0  0  0  0  0
  149.9258  140.3699  158.9920 H   0  0  0  0  0  0  0  0  0  0  0  0
  1  2  2  0  0  0  0
  2  3  1  0  0  0  0
  2  8  1  0  0  0  0
  3  4  1  0  0  0  0
  3 22  1  0  0  0  0
  3 23  1  0  0  0  0
  4  5  1  0  0  0  0
  4  6  1  0  0  0  0
  4  7  1  0  0  0  0
  8  9  1  0  0  0  0
  8 24  1  0  0  0  0
  9 10  1  0  0  0  0
  9 25  1  0  0  0  0
  9 26  1  0  0  0  0
 10 21  1  0  0  0  0
 10 11  2  0  0  0  0
 11 12  1  0  0  0  0
 11 27  1  0  0  0  0
 12 13  2  0  0  0  0
 12 28  1  0  0  0  0
 13 14  1  0  0  0  0
 14 15  1  0  0  0  0
 14 21  2  0  0  0  0
 15 20  1  0  0  0  0
 15 16  1  0  0  0  0
 16 17  1  0  0  0  0
 16 29  1  0  0  0  0
 16 30  1  0  0  0  0
 17 18  1  0  0  0  0
 17 31  1  0  0  0  0
 17 32  1  0  0  0  0
 18 19  1  0  0  0  0
 19 20  1  0  0  0  0
 19 33  1  0  0  0  0
 19 34  1  0  0  0  0
 20 35  1  0  0  0  0
 20 36  1  0  0  0  0
 21 37  1  0  0  0  0
M  END
> <s_m_source_file>
AV-unprocessed.smi

> <i_m_source_file_index>
1520

> <i_lp_mmshare_version>
43012

> <i_f3d_flags>
0

> <s_epik_input>
RkMoRikoRilbQ0gyXUMoPU8pW05IXVtDSDJdYzFbY0hdW2NIXW5jKFtjSF0xKU4yW0NIMl1bQ0gyXU9bQ0gyXVtDSDJdMg==

> <s_epik_cmdline>
J2VwaWtfcHl0aG9uJywgJy1waCcsICc3LjAnLCAnLXRuJywgJzgnLCAnLW1hJywgJzIwMCcsICctbWV0YWxfYmluZGluZycsICctaW1hZScsICc8aW5maWxlLm1hZT4nLCAnLW9tYWUnLCAnPG91dGZpbGUubWFlPic=

> <r_lp_tautomer_probability>
1

> <r_epik_Ionization_Penalty>
0.00358568

> <r_epik_Ionization_Penalty_Charging>
0

> <r_epik_Ionization_Penalty_Neutral>
0.00358568

> <r_epik_State_Penalty>
0.00254794

> <r_epik_Charging_Adjusted_Penalty>
0.00254794

> <i_epik_Tot_Q>
0

> <i_epik_Tot_abs_Q>
0

> <r_epik_Metal_State_Penalty>
-0

> <b_epik_Metal_Only>
0

> <s_lp_Force_Field>
OPLS_2005

> <r_lp_Energy>
12.9291

> <b_lp_Chiralities_Consistent>
1

> <s_lp_Variant>
AV-unprocessed.smi:1520-1

> <Gold.Version>
5.8.1

> <Gold.Id.Protein>
6NUR|6NUR_protein|mol2

> <Gold.PLP.Fitness>
45.2188

> <Gold.PLP.PLP>
-39.4323

> <Gold.PLP.part.hbond>
-2.5439

> <Gold.PLP.part.metal>
0.0000

> <Gold.PLP.part.buried>
-6.3754

> <Gold.PLP.part.nonpolar>
-31.8648

> <Gold.PLP.part.repulsive>
0.1866

> <Gold.PLP.ligand.clash>
0.0000

> <Gold.PLP.ligand.torsion>
0.1756

> <Gold.PLP.Chemscore.Hbond>
2.0058

> <Gold.PLP.Chemscore.CHOScore>
0.0000

> <Gold.PLP.Chemscore.Metal>
0.0000

> <Gold.Chemscore.Hbonds>
donor molecule, donor type, donor heavy atom, donor atom, acceptor molecule, acceptor atom, score
      P1  H  6934  6947       L1     1  1.00
      P1  H  7997  8009       L1    13  1.00

> <Gold.PLP.Chemscore.Internal.Correction>
0.1203

> <Gold.Rescore>
     Score         DG    S(hbond)    S(metal)    S(lipo)     H(rot)  DE(clash)    DE(int)     intcor
     13.53     -15.43       1.96        0.00      73.14       2.01       0.00       1.90       ----

> <Gold.Chemscore.Fitness>
13.5282

> <Gold.Chemscore.DG>
-15.4338

> <Gold.Chemscore.ZeroCoef>
-5.4800

> <Gold.Chemscore.Hbond>
1.9587

> <Gold.Chemscore.Metal>
0.0000

> <Gold.Chemscore.Lipo>
73.1417

> <Gold.Chemscore.Internal_Hbond>
0.0000

> <Gold.Chemscore.DEClash>
0.0021

> <Gold.Chemscore.DEInternal>
1.9035

> <Gold.Chemscore.Rot>
2.0101

> <Gold.Chemscore.Internal.Correction>
   9.000000E+99

> <Gold.Chemscore.Hbonds>
donor molecule, donor type, donor heavy atom, donor atom, acceptor molecule, acceptor atom, score
      P1  H  6934  6947       L1     1  0.98
      P1  H  7997  8009       L1    13  0.85

> <Gold.Chemscore.Hbond.Weighted>
-6.5420

> <Gold.Chemscore.Metal.Weighted>
-0.0000

> <Gold.Chemscore.Lipo.Weighted>
-8.5576

> <Gold.Chemscore.Internal_Hbond.Weighted>
0.0000

> <Gold.Chemscore.DEClash.Weighted>
0.0021

> <Gold.Chemscore.DEInternal.Weighted>
1.9035

> <Gold.Chemscore.Rot.Weighted>
5.1458

> <Gold.Chemscore.Internal.Correction.Weighted>
   9.000000E+99

> <Gold.Protein.RotatedTorsions>
[ 6907 6896 6895 6894 ] final  -97.72 input  -60.11 | X-H torsion
[ 7974 7965 7964 7962 ] final -159.29 input  175.53 | X-H torsion
[ 8008 7997 7996 7995 ] final -168.22 input   59.86 | X-H torsion
[ 10167 10162 10161 10158 ] final   38.53 input  -65.29 | X-H torsion
[ 10718 10713 10712 10709 ] final   59.20 input   66.30 | X-H torsion
[ 10763 10752 10751 10750 ] final -121.77 input  -60.55 | X-H torsion
[ 11005 11000 10999 10996 ] final   41.27 input  -57.11 | X-H torsion

> <Gold.Protein.ActiveResidues>
 VAL166  LYS551  ARG553  GLY616  TRP617  ASP618  TYR619  PRO620  LYS621  CYS622 
 ASP623  PHE694  ASN695  SER759  ASP760  ASP761  ALA762  ILE779  LEU786  VAL792 
 PHE793  MET794  SER795  GLU796  ALA797  LYS798  CYS799  TRP800  GLU811  SER814 

> <Gold.Protein.RotatedAtoms>
  150.7024  134.1305  159.4067 H   0  0  0  0  0  0  0  0  0  0  0  0  # atno 6907 bound_to 6896
  151.9291  135.0262  160.0537 H   0  0  0  0  0  0  0  0  0  0  0  0  # atno 6908 bound_to 6896
  152.2191  133.4934  159.5189 H   0  0  0  0  0  0  0  0  0  0  0  0  # atno 6909 bound_to 6896
  144.7471  140.3706  143.6077 H   0  0  0  0  0  0  0  0  0  0  0  0  # atno 7974 bound_to 7965
  155.8884  140.1020  157.1436 H   0  0  0  0  0  0  0  0  0  0  0  0  # atno 8008 bound_to 7997
  154.4012  140.1315  156.4348 H   0  0  0  0  0  0  0  0  0  0  0  0  # atno 8009 bound_to 7997
  155.7562  140.3464  155.5177 H   0  0  0  0  0  0  0  0  0  0  0  0  # atno 8010 bound_to 7997
  140.3928  144.1830  150.6131 H   0  0  0  0  0  0  0  0  0  0  0  0  # atno 10167 bound_to 10162
  157.5657  130.8869  149.9183 H   0  0  0  0  0  0  0  0  0  0  0  0  # atno 10718 bound_to 10713
  154.8675  135.4156  154.2674 H   0  0  0  0  0  0  0  0  0  0  0  0  # atno 10763 bound_to 10752
  153.3591  135.7002  153.6732 H   0  0  0  0  0  0  0  0  0  0  0  0  # atno 10764 bound_to 10752
  153.5641  135.3604  155.2783 H   0  0  0  0  0  0  0  0  0  0  0  0  # atno 10765 bound_to 10752
  140.1850  134.4056  155.8178 H   0  0  0  0  0  0  0  0  0  0  0  0  # atno 11005 bound_to 11000
  145.7082  139.1678  143.2554 LP  0  0  0  0  0  0  0  0  0  0  0  0  # atno 17320 bound_to 7965
  146.1366  140.7114  142.9387 LP  0  0  0  0  0  0  0  0  0  0  0  0  # atno 17321 bound_to 7965
  140.4822  143.2375  151.8939 LP  0  0  0  0  0  0  0  0  0  0  0  0  # atno 17342 bound_to 10162
  139.4788  144.5257  151.8738 LP  0  0  0  0  0  0  0  0  0  0  0  0  # atno 17343 bound_to 10162
  156.0705  130.3686  150.0785 LP  0  0  0  0  0  0  0  0  0  0  0  0  # atno 17370 bound_to 10713
  156.8944  130.9599  151.3584 LP  0  0  0  0  0  0  0  0  0  0  0  0  # atno 17371 bound_to 10713
  141.2224  133.7019  156.7997 LP  0  0  0  0  0  0  0  0  0  0  0  0  # atno 17394 bound_to 11000
  140.2223  134.8747  157.3390 LP  0  0  0  0  0  0  0  0  0  0  0  0  # atno 17395 bound_to 11000

$$$$
