AV-unprocessed.smi:1264|AV-procd|sdf|5314|dock2
  -GOLD-   22720 4443D 1   1.00000     0.00000
 Structure written by MMmdl.
 43 43  0  0  0  0  0  0  0  0  1 V2000
  146.2339  138.0065  152.3785 C   0  0  0  0  0  0  0  0  0  0  0  0
  146.4911  136.5768  152.3029 N   0  0  0  0  0  0  0  0  0  0  0  0
  145.7881  135.6477  152.9661 C   0  0  0  0  0  0  0  0  0  0  0  0
  144.8543  135.9233  153.7221 O   0  0  0  0  0  0  0  0  0  0  0  0
  146.2215  134.1869  152.7536 C   0  0  1  0  0  0  0  0  0  0  0  0
  145.9584  133.8259  151.2723 C   0  0  0  0  0  0  0  0  0  0  0  0
  144.8239  132.8030  151.0346 C   0  0  0  0  0  0  0  0  0  0  0  0
  144.6849  132.4922  149.5367 C   0  0  0  0  0  0  0  0  0  0  0  0
  143.4774  133.2731  151.6098 C   0  0  0  0  0  0  0  0  0  0  0  0
  147.6520  134.0509  153.0233 N   0  0  0  0  0  0  0  0  0  0  0  0
  148.2228  133.0599  153.7260 C   0  0  0  0  0  0  0  0  0  0  0  0
  147.5975  132.1089  154.1941 O   0  0  0  0  0  0  0  0  0  0  0  0
  149.7304  133.1704  153.9467 C   0  0  0  0  0  0  0  0  0  0  0  0
  150.0539  132.8172  155.3758 C   0  0  0  0  0  0  0  0  0  0  0  0
  150.7095  131.6495  155.8610 C   0  0  0  0  0  0  0  0  0  0  0  0
  151.2430  130.4849  155.0772 C   0  0  0  0  0  0  0  0  0  0  0  0
  150.8289  131.6602  157.1781 N   0  0  0  0  0  0  0  0  0  0  0  0
  150.2371  132.8523  157.6064 O   0  0  0  0  0  0  0  0  0  0  0  0
  149.7830  133.5221  156.5169 C   0  0  0  0  0  0  0  0  0  0  0  0
  149.1028  134.8248  156.7705 C   0  0  0  0  0  0  0  0  0  0  0  0
  146.9393  138.5450  151.7457 H   0  0  0  0  0  0  0  0  0  0  0  0
  146.3476  138.3677  153.4015 H   0  0  0  0  0  0  0  0  0  0  0  0
  145.2239  138.2377  152.0372 H   0  0  0  0  0  0  0  0  0  0  0  0
  147.2464  136.2731  151.7052 H   0  0  0  0  0  0  0  0  0  0  0  0
  145.6467  133.5364  153.4146 H   0  0  0  0  0  0  0  0  0  0  0  0
  145.7291  134.7337  150.7109 H   0  0  0  0  0  0  0  0  0  0  0  0
  146.8783  133.4335  150.8341 H   0  0  0  0  0  0  0  0  0  0  0  0
  145.0879  131.8670  151.5276 H   0  0  0  0  0  0  0  0  0  0  0  0
  144.4134  133.3840  148.9703 H   0  0  0  0  0  0  0  0  0  0  0  0
  143.9163  131.7393  149.3601 H   0  0  0  0  0  0  0  0  0  0  0  0
  145.6187  132.1080  149.1251 H   0  0  0  0  0  0  0  0  0  0  0  0
  143.1776  134.2317  151.1853 H   0  0  0  0  0  0  0  0  0  0  0  0
  143.5177  133.3835  152.6931 H   0  0  0  0  0  0  0  0  0  0  0  0
  142.6874  132.5535  151.3924 H   0  0  0  0  0  0  0  0  0  0  0  0
  148.2477  134.7927  152.6861 H   0  0  0  0  0  0  0  0  0  0  0  0
  150.2416  132.5090  153.2463 H   0  0  0  0  0  0  0  0  0  0  0  0
  150.0579  134.1811  153.7004 H   0  0  0  0  0  0  0  0  0  0  0  0
  150.5447  130.1888  154.2941 H   0  0  0  0  0  0  0  0  0  0  0  0
  151.4124  129.6148  155.7125 H   0  0  0  0  0  0  0  0  0  0  0  0
  152.1894  130.7382  154.5996 H   0  0  0  0  0  0  0  0  0  0  0  0
  149.2036  135.4909  155.9137 H   0  0  0  0  0  0  0  0  0  0  0  0
  149.5311  135.3264  157.6385 H   0  0  0  0  0  0  0  0  0  0  0  0
  148.0396  134.6725  156.9569 H   0  0  0  0  0  0  0  0  0  0  0  0
  1  2  1  0  0  0  0
  1 21  1  0  0  0  0
  1 22  1  0  0  0  0
  1 23  1  0  0  0  0
  2  3  1  0  0  0  0
  2 24  1  0  0  0  0
  3  4  2  0  0  0  0
  3  5  1  0  0  0  0
  5  6  1  0  0  0  0
  5 10  1  0  0  0  0
  5 25  1  0  0  0  0
  6  7  1  0  0  0  0
  6 26  1  0  0  0  0
  6 27  1  0  0  0  0
  7  8  1  0  0  0  0
  7  9  1  0  0  0  0
  7 28  1  0  0  0  0
  8 29  1  0  0  0  0
  8 30  1  0  0  0  0
  8 31  1  0  0  0  0
  9 32  1  0  0  0  0
  9 33  1  0  0  0  0
  9 34  1  0  0  0  0
 10 11  1  0  0  0  0
 10 35  1  0  0  0  0
 11 12  2  0  0  0  0
 11 13  1  0  0  0  0
 13 14  1  0  0  0  0
 13 36  1  0  0  0  0
 13 37  1  0  0  0  0
 14 19  2  0  0  0  0
 14 15  1  0  0  0  0
 15 16  1  0  0  0  0
 15 17  2  0  0  0  0
 16 38  1  0  0  0  0
 16 39  1  0  0  0  0
 16 40  1  0  0  0  0
 17 18  1  0  0  0  0
 18 19  1  0  0  0  0
 19 20  1  0  0  0  0
 20 41  1  0  0  0  0
 20 42  1  0  0  0  0
 20 43  1  0  0  0  0
M  END
> <s_m_source_file>
AV-unprocessed.smi

> <i_m_source_file_index>
1264

> <i_lp_mmshare_version>
43012

> <i_f3d_flags>
0

> <s_epik_input>
W0NIM11bTkhdQyg9TylbQ0BIXShbQ0gyXVtDSF0oW0NIM10pW0NIM10pW05IXUMoPU8pW0NIMl1jMWMoW0NIM10pbm9jMVtDSDNd

> <s_epik_cmdline>
J2VwaWtfcHl0aG9uJywgJy1waCcsICc3LjAnLCAnLXRuJywgJzgnLCAnLW1hJywgJzIwMCcsICctbWV0YWxfYmluZGluZycsICctaW1hZScsICc8aW5maWxlLm1hZT4nLCAnLW9tYWUnLCAnPG91dGZpbGUubWFlPic=

> <r_lp_tautomer_probability>
1

> <r_epik_Ionization_Penalty>
6.00781e-08

> <r_epik_Ionization_Penalty_Charging>
0

> <r_epik_Ionization_Penalty_Neutral>
6.00781e-08

> <r_epik_State_Penalty>
-0

> <r_epik_Charging_Adjusted_Penalty>
0

> <i_epik_Tot_Q>
0

> <i_epik_Tot_abs_Q>
0

> <r_epik_Metal_State_Penalty>
-0

> <b_epik_Metal_Only>
0

> <s_lp_Force_Field>
OPLS_2005

> <r_lp_Energy>
-0.987692

> <b_lp_Chiralities_Consistent>
1

> <s_lp_Variant>
AV-unprocessed.smi:1264-2

> <Gold.Version>
5.8.1

> <Gold.Id.Protein>
6NUR|6NUR_protein|mol2

> <Gold.PLP.Fitness>
37.1396

> <Gold.PLP.PLP>
-31.4601

> <Gold.PLP.part.hbond>
-3.0000

> <Gold.PLP.part.metal>
0.0000

> <Gold.PLP.part.buried>
-5.4456

> <Gold.PLP.part.nonpolar>
-24.3651

> <Gold.PLP.part.repulsive>
0.1339

> <Gold.PLP.ligand.clash>
0.0000

> <Gold.PLP.ligand.torsion>
1.2898

> <Gold.PLP.Chemscore.Hbond>
2.7200

> <Gold.PLP.Chemscore.CHOScore>
0.0000

> <Gold.PLP.Chemscore.Metal>
0.0000

> <Gold.Chemscore.Hbonds>
donor molecule, donor type, donor heavy atom, donor atom, acceptor molecule, acceptor atom, score
      L1  H     2    24       P1  7948  0.72
      L1  H    10    35       P1  7948  1.00
      P1  H  6896  6908       L1    18  1.00

> <Gold.PLP.Chemscore.Internal.Correction>
0.0990

> <Gold.Rescore>
     Score         DG    S(hbond)    S(metal)    S(lipo)     H(rot)  DE(clash)    DE(int)     intcor
     15.93     -17.36       2.84        0.00      66.36       2.09       0.01       1.42       ----

> <Gold.Chemscore.Fitness>
15.9264

> <Gold.Chemscore.DG>
-17.3611

> <Gold.Chemscore.ZeroCoef>
-5.4800

> <Gold.Chemscore.Hbond>
2.8369

> <Gold.Chemscore.Metal>
0.0000

> <Gold.Chemscore.Lipo>
66.3617

> <Gold.Chemscore.Internal_Hbond>
0.0000

> <Gold.Chemscore.DEClash>
0.0106

> <Gold.Chemscore.DEInternal>
1.4241

> <Gold.Chemscore.Rot>
2.0931

> <Gold.Chemscore.Internal.Correction>
   9.000000E+99

> <Gold.Chemscore.Hbonds>
donor molecule, donor type, donor heavy atom, donor atom, acceptor molecule, acceptor atom, score
      L1  H     2    24       P1  7948  0.72
      L1  H    10    35       P1  7948  0.55
      P1  H  6896  6908       L1    18  0.78

> <Gold.Chemscore.Hbond.Weighted>
-9.4752

> <Gold.Chemscore.Metal.Weighted>
-0.0000

> <Gold.Chemscore.Lipo.Weighted>
-7.7643

> <Gold.Chemscore.Internal_Hbond.Weighted>
0.0000

> <Gold.Chemscore.DEClash.Weighted>
0.0106

> <Gold.Chemscore.DEInternal.Weighted>
1.4241

> <Gold.Chemscore.Rot.Weighted>
5.3584

> <Gold.Chemscore.Internal.Correction.Weighted>
   9.000000E+99

> <Gold.Protein.RotatedTorsions>
[ 6907 6896 6895 6894 ] final   95.85 input  -60.11 | X-H torsion
[ 7974 7965 7964 7962 ] final  121.36 input  175.53 | X-H torsion
[ 8008 7997 7996 7995 ] final -168.38 input   59.86 | X-H torsion
[ 10167 10162 10161 10158 ] final  -37.11 input  -65.29 | X-H torsion
[ 10718 10713 10712 10709 ] final   92.87 input   66.30 | X-H torsion
[ 10763 10752 10751 10750 ] final    0.12 input  -60.55 | X-H torsion
[ 11005 11000 10999 10996 ] final   63.42 input  -57.11 | X-H torsion

> <Gold.Protein.ActiveResidues>
 VAL166  LYS551  ARG553  GLY616  TRP617  ASP618  TYR619  PRO620  LYS621  CYS622 
 ASP623  PHE694  ASN695  SER759  ASP760  ASP761  ALA762  ILE779  LEU786  VAL792 
 PHE793  MET794  SER795  GLU796  ALA797  LYS798  CYS799  TRP800  GLU811  SER814 

> <Gold.Protein.RotatedAtoms>
  152.5440  134.0976  159.8303 H   0  0  0  0  0  0  0  0  0  0  0  0  # atno 6907 bound_to 6896
  151.1058  133.5202  159.2615 H   0  0  0  0  0  0  0  0  0  0  0  0  # atno 6908 bound_to 6896
  151.1940  135.0424  159.8899 H   0  0  0  0  0  0  0  0  0  0  0  0  # atno 6909 bound_to 6896
  145.1202  139.3394  143.4718 H   0  0  0  0  0  0  0  0  0  0  0  0  # atno 7974 bound_to 7965
  155.8906  140.1024  157.1421 H   0  0  0  0  0  0  0  0  0  0  0  0  # atno 8008 bound_to 7997
  154.4014  140.1311  156.4374 H   0  0  0  0  0  0  0  0  0  0  0  0  # atno 8009 bound_to 7997
  155.7538  140.3464  155.5166 H   0  0  0  0  0  0  0  0  0  0  0  0  # atno 8010 bound_to 7997
  140.7126  143.3364  151.2454 H   0  0  0  0  0  0  0  0  0  0  0  0  # atno 10167 bound_to 10162
  157.6957  131.0458  150.3947 H   0  0  0  0  0  0  0  0  0  0  0  0  # atno 10718 bound_to 10713
  153.3247  135.6971  153.7000 H   0  0  0  0  0  0  0  0  0  0  0  0  # atno 10763 bound_to 10752
  153.5826  135.3495  155.2881 H   0  0  0  0  0  0  0  0  0  0  0  0  # atno 10764 bound_to 10752
  154.8605  135.4298  154.2420 H   0  0  0  0  0  0  0  0  0  0  0  0  # atno 10765 bound_to 10752
  140.0026  134.6419  155.9906 H   0  0  0  0  0  0  0  0  0  0  0  0  # atno 11005 bound_to 11000
  146.3521  140.1159  142.8602 LP  0  0  0  0  0  0  0  0  0  0  0  0  # atno 17320 bound_to 7965
  145.0748  140.9181  143.4860 LP  0  0  0  0  0  0  0  0  0  0  0  0  # atno 17321 bound_to 7965
  139.6860  143.9773  152.2834 LP  0  0  0  0  0  0  0  0  0  0  0  0  # atno 17342 bound_to 10162
  139.9419  144.6676  150.8258 LP  0  0  0  0  0  0  0  0  0  0  0  0  # atno 17343 bound_to 10162
  156.4347  130.3979  149.6737 LP  0  0  0  0  0  0  0  0  0  0  0  0  # atno 17370 bound_to 10713
  156.3942  130.7642  151.2645 LP  0  0  0  0  0  0  0  0  0  0  0  0  # atno 17371 bound_to 10713
  141.1653  133.6537  156.4459 LP  0  0  0  0  0  0  0  0  0  0  0  0  # atno 17394 bound_to 11000
  140.4700  134.6762  157.5125 LP  0  0  0  0  0  0  0  0  0  0  0  0  # atno 17395 bound_to 11000

$$$$
