AV-unprocessed.smi:1365|AV-procd|sdf|5568|dock9
  -GOLD-   22720 5163D 1   1.00000     0.00000
 Structure written by MMmdl.
 42 43  0  0  0  0  0  0  0  0  2 V2000
  150.9702  142.0104  156.7108 C   0  0  0  0  0  0  0  0  0  0  0  0
  150.6270  140.9166  155.7581 C   0  0  0  0  0  0  0  0  0  0  0  0
  149.4386  140.3897  155.3360 C   0  0  0  0  0  0  0  0  0  0  0  0
  149.8432  139.3684  154.4357 C   0  0  0  0  0  0  0  0  0  0  0  0
  148.8846  138.5602  153.7723 N   0  0  0  0  0  0  0  0  0  0  0  0
  147.5472  138.6092  153.8959 C   0  0  0  0  0  0  0  0  0  0  0  0
  146.9300  139.3725  154.6395 O   0  0  0  0  0  0  0  0  0  0  0  0
  146.9485  137.7160  153.0942 N   0  0  0  0  0  0  0  0  0  0  0  0
  145.5052  137.5586  152.9540 C   0  0  0  0  0  0  0  0  0  0  0  0
  145.1294  136.1780  152.3904 C   0  0  0  0  0  0  0  0  0  0  0  0
  145.6697  135.9677  150.9658 C   0  0  0  0  0  0  0  0  0  0  0  0
  145.5679  134.5536  150.5253 N   0  3  0  0  0  0  0  0  0  0  0  0
  146.4464  133.6520  151.3169 C   0  0  0  0  0  0  0  0  0  0  0  0
  146.4260  132.2194  150.7568 C   0  0  0  0  0  0  0  0  0  0  0  0
  144.9943  131.6715  150.7019 C   0  0  0  0  0  0  0  0  0  0  0  0
  144.0989  132.6309  149.9075 C   0  0  0  0  0  0  0  0  0  0  0  0
  144.1668  134.0545  150.4853 C   0  0  0  0  0  0  0  0  0  0  0  0
  151.1591  139.2833  154.3142 N   0  0  0  0  0  0  0  0  0  0  0  0
  151.6682  140.2745  155.1617 O   0  0  0  0  0  0  0  0  0  0  0  0
  150.1211  142.6777  156.8592 H   0  0  0  0  0  0  0  0  0  0  0  0
  151.8041  142.6046  156.3365 H   0  0  0  0  0  0  0  0  0  0  0  0
  151.2536  141.6015  157.6808 H   0  0  0  0  0  0  0  0  0  0  0  0
  148.4428  140.6859  155.6310 H   0  0  0  0  0  0  0  0  0  0  0  0
  149.2569  137.8883  153.1175 H   0  0  0  0  0  0  0  0  0  0  0  0
  147.5310  137.1245  152.5196 H   0  0  0  0  0  0  0  0  0  0  0  0
  145.0211  137.7243  153.9180 H   0  0  0  0  0  0  0  0  0  0  0  0
  145.1433  138.3420  152.2877 H   0  0  0  0  0  0  0  0  0  0  0  0
  145.5088  135.4080  153.0620 H   0  0  0  0  0  0  0  0  0  0  0  0
  144.0440  136.0694  152.3775 H   0  0  0  0  0  0  0  0  0  0  0  0
  145.0844  136.5954  150.2923 H   0  0  0  0  0  0  0  0  0  0  0  0
  146.7021  136.3112  150.8843 H   0  0  0  0  0  0  0  0  0  0  0  0
  147.4711  134.0255  151.2987 H   0  0  0  0  0  0  0  0  0  0  0  0
  146.1261  133.6532  152.3602 H   0  0  0  0  0  0  0  0  0  0  0  0
  146.8611  132.2106  149.7564 H   0  0  0  0  0  0  0  0  0  0  0  0
  147.0501  131.5692  151.3707 H   0  0  0  0  0  0  0  0  0  0  0  0
  144.9857  130.6810  150.2459 H   0  0  0  0  0  0  0  0  0  0  0  0
  144.6044  131.5541  151.7138 H   0  0  0  0  0  0  0  0  0  0  0  0
  144.4113  132.6444  148.8625 H   0  0  0  0  0  0  0  0  0  0  0  0
  143.0687  132.2732  149.9180 H   0  0  0  0  0  0  0  0  0  0  0  0
  143.7458  134.0686  151.4921 H   0  0  0  0  0  0  0  0  0  0  0  0
  143.5471  134.7119  149.8764 H   0  0  0  0  0  0  0  0  0  0  0  0
  145.9198  134.5243  149.5787 H   0  0  0  0  0  0  0  0  0  0  0  0
  1  2  1  0  0  0  0
  1 20  1  0  0  0  0
  1 21  1  0  0  0  0
  1 22  1  0  0  0  0
  2 19  1  0  0  0  0
  2  3  2  0  0  0  0
  3  4  1  0  0  0  0
  3 23  1  0  0  0  0
  4  5  1  0  0  0  0
  4 18  2  0  0  0  0
  5  6  1  0  0  0  0
  5 24  1  0  0  0  0
  6  7  2  0  0  0  0
  6  8  1  0  0  0  0
  8  9  1  0  0  0  0
  8 25  1  0  0  0  0
  9 10  1  0  0  0  0
  9 26  1  0  0  0  0
  9 27  1  0  0  0  0
 10 11  1  0  0  0  0
 10 28  1  0  0  0  0
 10 29  1  0  0  0  0
 11 12  1  0  0  0  0
 11 30  1  0  0  0  0
 11 31  1  0  0  0  0
 12 17  1  0  0  0  0
 12 13  1  0  0  0  0
 12 42  1  0  0  0  0
 13 14  1  0  0  0  0
 13 32  1  0  0  0  0
 13 33  1  0  0  0  0
 14 15  1  0  0  0  0
 14 34  1  0  0  0  0
 14 35  1  0  0  0  0
 15 16  1  0  0  0  0
 15 36  1  0  0  0  0
 15 37  1  0  0  0  0
 16 17  1  0  0  0  0
 16 38  1  0  0  0  0
 16 39  1  0  0  0  0
 17 40  1  0  0  0  0
 17 41  1  0  0  0  0
 18 19  1  0  0  0  0
M  CHG  1  12   1
M  END
> <s_m_source_file>
AV-unprocessed.smi

> <i_m_source_file_index>
1365

> <i_lp_mmshare_version>
43012

> <i_f3d_flags>
0

> <s_epik_input>
W0NIM11jMVtjSF1jKG5vMSlbTkhdQyg9TylbTkhdW0NIMl1bQ0gyXVtDSDJdTjJbQ0gyXVtDSDJdW0NIMl1bQ0gyXVtDSDJdMg==

> <s_epik_cmdline>
J2VwaWtfcHl0aG9uJywgJy1waCcsICc3LjAnLCAnLXRuJywgJzgnLCAnLW1hJywgJzIwMCcsICctbWV0YWxfYmluZGluZycsICctaW1hZScsICc8aW5maWxlLm1hZT4nLCAnLW9tYWUnLCAnPG91dGZpbGUubWFlPic=

> <r_epik_Ionization_Penalty>
0.000389345

> <r_epik_Ionization_Penalty_Charging>
0.000358942

> <r_epik_Ionization_Penalty_Neutral>
3.04028e-05

> <r_epik_State_Penalty>
0.000218395

> <r_epik_Charging_Adjusted_Penalty>
0.000577337

> <i_epik_Tot_Q>
1

> <i_epik_Tot_abs_Q>
1

> <r_epik_Metal_State_Penalty>
0.0112716

> <b_epik_Metal_Only>
0

> <s_lp_Force_Field>
OPLS_2005

> <r_lp_Energy>
13.5089

> <b_lp_Chiralities_Consistent>
1

> <s_lp_Variant>
AV-unprocessed.smi:1365-1

> <Gold.Version>
5.8.1

> <Gold.Id.Protein>
6NUR|6NUR_protein|mol2

> <Gold.PLP.Fitness>
45.7290

> <Gold.PLP.PLP>
-37.0943

> <Gold.PLP.part.hbond>
-6.0000

> <Gold.PLP.part.metal>
0.0000

> <Gold.PLP.part.buried>
-4.4744

> <Gold.PLP.part.nonpolar>
-27.9813

> <Gold.PLP.part.repulsive>
0.4496

> <Gold.PLP.ligand.clash>
0.0000

> <Gold.PLP.ligand.torsion>
0.1971

> <Gold.PLP.Chemscore.Hbond>
3.0000

> <Gold.PLP.Chemscore.CHOScore>
0.0000

> <Gold.PLP.Chemscore.Metal>
0.0000

> <Gold.Chemscore.Hbonds>
donor molecule, donor type, donor heavy atom, donor atom, acceptor molecule, acceptor atom, score
      L1  H     5    24       P1  7948  0.89
      L1  H     8    25       P1  7948  1.00
      L1  H    12    42       P1  7921  1.00

> <Gold.PLP.Chemscore.Internal.Correction>
0.0288

> <Gold.Rescore>
     Score         DG    S(hbond)    S(metal)    S(lipo)     H(rot)  DE(clash)    DE(int)     intcor
     18.64     -20.59       2.95        0.00      84.84       1.82       0.26       1.69       ----

> <Gold.Chemscore.Fitness>
18.6393

> <Gold.Chemscore.DG>
-20.5914

> <Gold.Chemscore.ZeroCoef>
-5.4800

> <Gold.Chemscore.Hbond>
2.9473

> <Gold.Chemscore.Metal>
0.0000

> <Gold.Chemscore.Lipo>
84.8439

> <Gold.Chemscore.Internal_Hbond>
0.0000

> <Gold.Chemscore.DEClash>
0.2607

> <Gold.Chemscore.DEInternal>
1.6914

> <Gold.Chemscore.Rot>
1.8201

> <Gold.Chemscore.Internal.Correction>
   9.000000E+99

> <Gold.Chemscore.Hbonds>
donor molecule, donor type, donor heavy atom, donor atom, acceptor molecule, acceptor atom, score
      L1  H     5    24       P1  7948  0.81
      L1  H     8    25       P1  7948  1.00
      L1  H    12    42       P1  7921  0.64

> <Gold.Chemscore.Hbond.Weighted>
-9.8440

> <Gold.Chemscore.Metal.Weighted>
-0.0000

> <Gold.Chemscore.Lipo.Weighted>
-9.9267

> <Gold.Chemscore.Internal_Hbond.Weighted>
0.0000

> <Gold.Chemscore.DEClash.Weighted>
0.2607

> <Gold.Chemscore.DEInternal.Weighted>
1.6914

> <Gold.Chemscore.Rot.Weighted>
4.6593

> <Gold.Chemscore.Internal.Correction.Weighted>
   9.000000E+99

> <Gold.Protein.RotatedTorsions>
[ 6907 6896 6895 6894 ] final   33.66 input  -60.11 | X-H torsion
[ 7974 7965 7964 7962 ] final  -31.23 input  175.53 | X-H torsion
[ 8008 7997 7996 7995 ] final  165.48 input   59.86 | X-H torsion
[ 10167 10162 10161 10158 ] final -174.68 input  -65.29 | X-H torsion
[ 10718 10713 10712 10709 ] final -127.05 input   66.30 | X-H torsion
[ 10763 10752 10751 10750 ] final   45.84 input  -60.55 | X-H torsion
[ 11005 11000 10999 10996 ] final  -41.54 input  -57.11 | X-H torsion

> <Gold.Protein.ActiveResidues>
 VAL166  LYS551  ARG553  GLY616  TRP617  ASP618  TYR619  PRO620  LYS621  CYS622 
 ASP623  PHE694  ASN695  SER759  ASP760  ASP761  ALA762  ILE779  LEU786  VAL792 
 PHE793  MET794  SER795  GLU796  ALA797  LYS798  CYS799  TRP800  GLU811  SER814 

> <Gold.Protein.RotatedAtoms>
  152.0916  134.9403  160.0571 H   0  0  0  0  0  0  0  0  0  0  0  0  # atno 6907 bound_to 6896
  152.0653  133.4076  159.4443 H   0  0  0  0  0  0  0  0  0  0  0  0  # atno 6908 bound_to 6896
  150.6837  134.3074  159.4775 H   0  0  0  0  0  0  0  0  0  0  0  0  # atno 6909 bound_to 6896
  146.1083  140.5641  142.8789 H   0  0  0  0  0  0  0  0  0  0  0  0  # atno 7974 bound_to 7965
  156.1797  140.1669  156.8297 H   0  0  0  0  0  0  0  0  0  0  0  0  # atno 8008 bound_to 7997
  154.5346  140.0749  156.8439 H   0  0  0  0  0  0  0  0  0  0  0  0  # atno 8009 bound_to 7997
  155.3336  140.3380  155.4241 H   0  0  0  0  0  0  0  0  0  0  0  0  # atno 8010 bound_to 7997
  139.5621  144.1845  152.1255 H   0  0  0  0  0  0  0  0  0  0  0  0  # atno 10167 bound_to 10162
  156.1821  130.6739  151.0318 H   0  0  0  0  0  0  0  0  0  0  0  0  # atno 10718 bound_to 10713
  152.9819  135.6027  154.3501 H   0  0  0  0  0  0  0  0  0  0  0  0  # atno 10763 bound_to 10752
  154.3191  135.2770  155.2530 H   0  0  0  0  0  0  0  0  0  0  0  0  # atno 10764 bound_to 10752
  154.4704  135.5943  153.6374 H   0  0  0  0  0  0  0  0  0  0  0  0  # atno 10765 bound_to 10752
  141.0253  133.6844  156.2472 H   0  0  0  0  0  0  0  0  0  0  0  0  # atno 11005 bound_to 11000
  144.7489  140.5141  143.6816 LP  0  0  0  0  0  0  0  0  0  0  0  0  # atno 17320 bound_to 7965
  145.5716  139.1484  143.3285 LP  0  0  0  0  0  0  0  0  0  0  0  0  # atno 17321 bound_to 7965
  140.1361  144.5245  150.6773 LP  0  0  0  0  0  0  0  0  0  0  0  0  # atno 17342 bound_to 10162
  140.6901  143.2371  151.5153 LP  0  0  0  0  0  0  0  0  0  0  0  0  # atno 17343 bound_to 10162
  157.6875  131.0820  150.7202 LP  0  0  0  0  0  0  0  0  0  0  0  0  # atno 17370 bound_to 10713
  156.7259  130.4695  149.5511 LP  0  0  0  0  0  0  0  0  0  0  0  0  # atno 17371 bound_to 10713
  140.6501  134.5075  157.5577 LP  0  0  0  0  0  0  0  0  0  0  0  0  # atno 17394 bound_to 11000
  139.9172  134.8222  156.1327 LP  0  0  0  0  0  0  0  0  0  0  0  0  # atno 17395 bound_to 11000

$$$$
