AV-unprocessed.smi:101|AV-procd|sdf|913|dock9
  -GOLD-   2262017413D 1   1.00000     0.00000
 Structure written by MMmdl.
 44 46  0  0  0  0  0  0  0  0  1 V2000
  146.8387  143.9044  159.8152 C   0  0  0  0  0  0  0  0  0  0  0  0
  146.4631  143.5292  158.3906 C   0  0  0  0  0  0  0  0  0  0  0  0
  147.1260  142.5729  157.6913 C   0  0  0  0  0  0  0  0  0  0  0  0
  146.8101  142.2081  156.3853 N   0  0  0  0  0  0  0  0  0  0  0  0
  147.5486  141.1085  155.6362 C   0  0  2  0  0  0  0  0  0  0  0  0
  148.5825  140.6219  156.4375 O   0  0  0  0  0  0  0  0  0  0  0  0
  149.7829  141.3135  156.1162 C   0  0  1  0  0  0  0  0  0  0  0  0
  151.0014  140.6220  156.7392 C   0  0  0  0  0  0  0  0  0  0  0  0
  151.5849  141.5363  157.6516 O   0  0  0  0  0  0  0  0  0  0  0  0
  152.5325  141.1327  158.5149 C   0  0  0  0  0  0  0  0  0  0  0  0
  153.1547  140.0749  158.4018 O   0  0  0  0  0  0  0  0  0  0  0  0
  152.7472  142.1056  159.6251 C   0  0  0  0  0  0  0  0  0  0  0  0
  153.4327  141.6901  160.7901 C   0  0  0  0  0  0  0  0  0  0  0  0
  153.6474  142.5878  161.8542 C   0  0  0  0  0  0  0  0  0  0  0  0
  153.1787  143.9117  161.7662 C   0  0  0  0  0  0  0  0  0  0  0  0
  152.4948  144.3374  160.6126 C   0  0  0  0  0  0  0  0  0  0  0  0
  152.2796  143.4415  159.5476 C   0  0  0  0  0  0  0  0  0  0  0  0
  149.7146  141.3582  154.5901 C   0  0  1  0  0  0  0  0  0  0  0  0
  150.1337  140.1182  154.0424 O   0  0  0  0  0  0  0  0  0  0  0  0
  148.2301  141.6524  154.3549 C   0  0  1  0  0  0  0  0  0  0  0  0
  147.7359  141.0704  153.1631 O   0  0  0  0  0  0  0  0  0  0  0  0
  145.7006  142.8136  155.7581 C   0  0  0  0  0  0  0  0  0  0  0  0
  145.3219  142.5019  154.6297 O   0  0  0  0  0  0  0  0  0  0  0  0
  145.0256  143.8014  156.4720 N   0  0  0  0  0  0  0  0  0  0  0  0
  145.3351  144.2246  157.7662 C   0  0  0  0  0  0  0  0  0  0  0  0
  144.6679  145.1147  158.2906 O   0  0  0  0  0  0  0  0  0  0  0  0
  144.2409  144.2452  156.0175 H   0  0  0  0  0  0  0  0  0  0  0  0
  147.6813  143.3178  160.1822 H   0  0  0  0  0  0  0  0  0  0  0  0
  145.9972  143.7355  160.4878 H   0  0  0  0  0  0  0  0  0  0  0  0
  147.1162  144.9576  159.8715 H   0  0  0  0  0  0  0  0  0  0  0  0
  147.9383  142.0783  158.2017 H   0  0  0  0  0  0  0  0  0  0  0  0
  146.8054  140.3271  155.4667 H   0  0  0  0  0  0  0  0  0  0  0  0
  149.7227  142.3378  156.4901 H   0  0  0  0  0  0  0  0  0  0  0  0
  150.7118  139.6984  157.2423 H   0  0  0  0  0  0  0  0  0  0  0  0
  151.7305  140.3719  155.9673 H   0  0  0  0  0  0  0  0  0  0  0  0
  153.8012  140.6783  160.8807 H   0  0  0  0  0  0  0  0  0  0  0  0
  154.1722  142.2594  162.7392 H   0  0  0  0  0  0  0  0  0  0  0  0
  153.3435  144.5994  162.5824 H   0  0  0  0  0  0  0  0  0  0  0  0
  152.1339  145.3531  160.5436 H   0  0  0  0  0  0  0  0  0  0  0  0
  151.7507  143.8017  158.6772 H   0  0  0  0  0  0  0  0  0  0  0  0
  150.3497  142.1438  154.1794 H   0  0  0  0  0  0  0  0  0  0  0  0
  149.6620  139.9679  153.2377 H   0  0  0  0  0  0  0  0  0  0  0  0
  148.0927  142.7334  154.3008 H   0  0  0  0  0  0  0  0  0  0  0  0
  148.4349  140.5781  152.7600 H   0  0  0  0  0  0  0  0  0  0  0  0
  1  2  1  0  0  0  0
  1 28  1  0  0  0  0
  1 29  1  0  0  0  0
  1 30  1  0  0  0  0
  2 25  1  0  0  0  0
  2  3  2  0  0  0  0
  3  4  1  0  0  0  0
  3 31  1  0  0  0  0
  4  5  1  0  0  0  0
  4 22  1  0  0  0  0
  5 20  1  0  0  0  0
  5  6  1  0  0  0  0
  5 32  1  0  0  0  0
  6  7  1  0  0  0  0
  7  8  1  0  0  0  0
  7 18  1  0  0  0  0
  7 33  1  0  0  0  0
  8  9  1  0  0  0  0
  8 34  1  0  0  0  0
  8 35  1  0  0  0  0
  9 10  1  0  0  0  0
 10 11  2  0  0  0  0
 10 12  1  0  0  0  0
 12 17  1  0  0  0  0
 12 13  2  0  0  0  0
 13 14  1  0  0  0  0
 13 36  1  0  0  0  0
 14 15  2  0  0  0  0
 14 37  1  0  0  0  0
 15 16  1  0  0  0  0
 15 38  1  0  0  0  0
 16 17  2  0  0  0  0
 16 39  1  0  0  0  0
 17 40  1  0  0  0  0
 18 19  1  0  0  0  0
 18 20  1  0  0  0  0
 18 41  1  0  0  0  0
 19 42  1  0  0  0  0
 20 21  1  0  0  0  0
 20 43  1  0  0  0  0
 21 44  1  0  0  0  0
 22 23  2  0  0  0  0
 22 24  1  0  0  0  0
 24 27  1  0  0  0  0
 24 25  1  0  0  0  0
 25 26  2  0  0  0  0
M  END
> <s_m_source_file>
AV-unprocessed.smi

> <i_m_source_file_index>
101

> <i_lp_mmshare_version>
43012

> <i_f3d_flags>
0

> <s_epik_input>
Tz1jMVtuSF1jKD1PKW4oW2NIXWMxW0NIM10pW0NAQEhdMk9bQ0BIXShbQ0BASF0oW09IXSlbQ0BIXTJbT0hdKVtDSDJdT0MoPU8pYzNbY0hdW2NIXVtjSF1bY0hdW2NIXTM=

> <s_epik_cmdline>
J2VwaWtfcHl0aG9uJywgJy1waCcsICc3LjAnLCAnLXRuJywgJzgnLCAnLW1hJywgJzIwMCcsICctbWV0YWxfYmluZGluZycsICctaW1hZScsICc8aW5maWxlLm1hZT4nLCAnLW9tYWUnLCAnPG91dGZpbGUubWFlPic=

> <r_lp_tautomer_probability>
0.999537

> <r_epik_Ionization_Penalty>
0.00263537

> <r_epik_Ionization_Penalty_Charging>
0.00263428

> <r_epik_Ionization_Penalty_Neutral>
1.09111e-06

> <r_epik_State_Penalty>
0.00183335

> <r_epik_Charging_Adjusted_Penalty>
0.00446763

> <i_epik_Tot_Q>
0

> <i_epik_Tot_abs_Q>
0

> <r_epik_Metal_State_Penalty>
1.00528

> <b_epik_Metal_Only>
0

> <s_epik_Chemistry_Notes>
This compound has an ester and may undergo hydrolysis at high or low pH. This compound contains an acetal/aminal-like group ( X-CH(R)-Y where X, Y are N, S, or O) that may be acid/base labile, releasing an aldehyde.

> <s_lp_Force_Field>
OPLS_2005

> <r_lp_Energy>
35.8118

> <b_lp_Chiralities_Consistent>
1

> <s_lp_Variant>
AV-unprocessed.smi:101-1

> <Gold.Version>
5.8.1

> <Gold.Id.Protein>
6NUR|6NUR_protein|mol2

> <Gold.PLP.Fitness>
53.4848

> <Gold.PLP.PLP>
-44.2239

> <Gold.PLP.part.hbond>
-4.0000

> <Gold.PLP.part.metal>
0.0000

> <Gold.PLP.part.buried>
-4.8311

> <Gold.PLP.part.nonpolar>
-34.4053

> <Gold.PLP.part.repulsive>
0.2828

> <Gold.PLP.ligand.clash>
0.0000

> <Gold.PLP.ligand.torsion>
1.1176

> <Gold.PLP.Chemscore.Hbond>
3.8138

> <Gold.PLP.Chemscore.CHOScore>
0.0000

> <Gold.PLP.Chemscore.Metal>
0.0000

> <Gold.Chemscore.Hbonds>
donor molecule, donor type, donor heavy atom, donor atom, acceptor molecule, acceptor atom, score
      L1  H    19    42       P1  7957  0.86
      L1  H    21    44       P1  7957  0.96
      P1  H  7989  7998       L1    19  0.46
      P1  H  7997  8008       L1    11  1.00

> <Gold.PLP.Chemscore.Internal.Correction>
0.0547

> <Gold.Rescore>
     Score         DG    S(hbond)    S(metal)    S(lipo)     H(rot)  DE(clash)    DE(int)     intcor
     15.33     -18.39       2.94        0.00      98.85       3.32       1.34       1.72       ----

> <Gold.Chemscore.Fitness>
15.3262

> <Gold.Chemscore.DG>
-18.3877

> <Gold.Chemscore.ZeroCoef>
-5.4800

> <Gold.Chemscore.Hbond>
2.9443

> <Gold.Chemscore.Metal>
0.0000

> <Gold.Chemscore.Lipo>
98.8516

> <Gold.Chemscore.Internal_Hbond>
0.0000

> <Gold.Chemscore.DEClash>
1.3379

> <Gold.Chemscore.DEInternal>
1.7236

> <Gold.Chemscore.Rot>
3.3172

> <Gold.Chemscore.Internal.Correction>
   9.000000E+99

> <Gold.Chemscore.Hbonds>
donor molecule, donor type, donor heavy atom, donor atom, acceptor molecule, acceptor atom, score
      L1  H    19    42       P1  7957  0.80
      L1  H    21    44       P1  7957  0.88
      P1  H  7989  7998       L1    19  0.01
      P1  H  7997  8008       L1    11  0.87

> <Gold.Chemscore.Hbond.Weighted>
-9.8341

> <Gold.Chemscore.Metal.Weighted>
-0.0000

> <Gold.Chemscore.Lipo.Weighted>
-11.5656

> <Gold.Chemscore.Internal_Hbond.Weighted>
0.0000

> <Gold.Chemscore.DEClash.Weighted>
1.3379

> <Gold.Chemscore.DEInternal.Weighted>
1.7236

> <Gold.Chemscore.Rot.Weighted>
8.4920

> <Gold.Chemscore.Internal.Correction.Weighted>
   9.000000E+99

> <Gold.Protein.RotatedTorsions>
[ 6907 6896 6895 6894 ] final -172.71 input  -60.11 | X-H torsion
[ 7974 7965 7964 7962 ] final  -97.41 input  175.53 | X-H torsion
[ 8008 7997 7996 7995 ] final  -84.21 input   59.86 | X-H torsion
[ 10167 10162 10161 10158 ] final  129.01 input  -65.29 | X-H torsion
[ 10718 10713 10712 10709 ] final  -10.78 input   66.30 | X-H torsion
[ 10763 10752 10751 10750 ] final  -19.13 input  -60.55 | X-H torsion
[ 11005 11000 10999 10996 ] final  130.23 input  -57.11 | X-H torsion

> <Gold.Protein.ActiveResidues>
 VAL166  LYS551  ARG553  GLY616  TRP617  ASP618  TYR619  PRO620  LYS621  CYS622 
 ASP623  PHE694  ASN695  SER759  ASP760  ASP761  ALA762  ILE779  LEU786  VAL792 
 PHE793  MET794  SER795  GLU796  ALA797  LYS798  CYS799  TRP800  GLU811  SER814 

> <Gold.Protein.RotatedAtoms>
  151.5445  133.3427  159.2941 H   0  0  0  0  0  0  0  0  0  0  0  0  # atno 6907 bound_to 6896
  150.8516  134.7845  159.7024 H   0  0  0  0  0  0  0  0  0  0  0  0  # atno 6908 bound_to 6896
  152.4560  134.5298  159.9859 H   0  0  0  0  0  0  0  0  0  0  0  0  # atno 6909 bound_to 6896
  145.3341  140.9447  143.2645 H   0  0  0  0  0  0  0  0  0  0  0  0  # atno 7974 bound_to 7965
  154.6273  140.0608  156.9689 H   0  0  0  0  0  0  0  0  0  0  0  0  # atno 8008 bound_to 7997
  155.1721  140.3292  155.4372 H   0  0  0  0  0  0  0  0  0  0  0  0  # atno 8009 bound_to 7997
  156.2464  140.1912  156.6823 H   0  0  0  0  0  0  0  0  0  0  0  0  # atno 8010 bound_to 7997
  139.5499  144.6804  151.4357 H   0  0  0  0  0  0  0  0  0  0  0  0  # atno 10167 bound_to 10162
  156.6685  130.5002  149.6008 H   0  0  0  0  0  0  0  0  0  0  0  0  # atno 10718 bound_to 10713
  153.6000  135.6999  153.5388 H   0  0  0  0  0  0  0  0  0  0  0  0  # atno 10763 bound_to 10752
  153.3105  135.4102  155.1331 H   0  0  0  0  0  0  0  0  0  0  0  0  # atno 10764 bound_to 10752
  154.8584  135.3671  154.5535 H   0  0  0  0  0  0  0  0  0  0  0  0  # atno 10765 bound_to 10752
  139.9660  134.9590  156.9263 H   0  0  0  0  0  0  0  0  0  0  0  0  # atno 11005 bound_to 11000
  144.8841  139.4863  143.6709 LP  0  0  0  0  0  0  0  0  0  0  0  0  # atno 17320 bound_to 7965
  146.3034  139.7500  142.9074 LP  0  0  0  0  0  0  0  0  0  0  0  0  # atno 17321 bound_to 7965
  140.6758  143.8193  150.7056 LP  0  0  0  0  0  0  0  0  0  0  0  0  # atno 17342 bound_to 10162
  140.1631  143.4258  152.2053 LP  0  0  0  0  0  0  0  0  0  0  0  0  # atno 17343 bound_to 10162
  156.1957  130.6588  151.1111 LP  0  0  0  0  0  0  0  0  0  0  0  0  # atno 17370 bound_to 10713
  157.7085  131.0745  150.6583 LP  0  0  0  0  0  0  0  0  0  0  0  0  # atno 17371 bound_to 10713
  140.5395  134.0733  155.7337 LP  0  0  0  0  0  0  0  0  0  0  0  0  # atno 17394 bound_to 11000
  141.1340  133.9254  157.2475 LP  0  0  0  0  0  0  0  0  0  0  0  0  # atno 17395 bound_to 11000

$$$$
