AV-unprocessed.smi:1681|AV-procd|sdf|6741|dock9
  -GOLD-   22720 7493D 1   1.00000     0.00000
 Structure written by MMmdl.
 40 41  0  0  0  0  0  0  0  0  1 V2000
  152.9016  142.8834  162.4051 C   0  0  0  0  0  0  0  0  0  0  0  0
  152.5080  143.5618  161.0908 C   0  0  0  0  0  0  0  0  0  0  0  0
  151.8731  144.6148  161.1514 O   0  0  0  0  0  0  0  0  0  0  0  0
  152.8686  142.9911  159.9160 N   0  0  0  0  0  0  0  0  0  0  0  0
  152.4941  143.4819  158.5834 C   0  0  0  0  0  0  0  0  0  0  0  0
  151.4711  142.5097  157.9693 C   0  0  0  0  0  0  0  0  0  0  0  0
  152.0327  141.0755  157.9249 C   0  0  0  0  0  0  0  0  0  0  0  0
  152.5867  140.6341  159.3002 C   0  0  1  0  0  0  0  0  0  0  0  0
  153.2628  139.2592  159.2112 C   0  0  0  0  0  0  0  0  0  0  0  0
  153.5475  138.7876  158.1102 O   0  0  0  0  0  0  0  0  0  0  0  0
  153.5054  138.6474  160.3836 N   0  0  0  0  0  0  0  0  0  0  0  0
  154.1080  137.3811  160.5866 C   0  0  0  0  0  0  0  0  0  0  0  0
  154.1985  136.6033  161.7755 C   0  0  0  0  0  0  0  0  0  0  0  0
  154.8491  135.4709  161.5540 N   0  0  0  0  0  0  0  0  0  0  0  0
  155.1803  135.5045  160.2387 N   0  0  0  0  0  0  0  0  0  0  0  0
  155.9184  134.3993  159.6534 C   0  0  0  0  0  0  0  0  0  0  0  0
  155.1374  133.7566  158.5056 C   0  0  0  0  0  0  0  0  0  0  0  0
  155.7428  133.6912  157.3168 N   0  0  0  0  0  0  0  0  0  0  0  0
  154.0025  133.3229  158.6909 O   0  0  0  0  0  0  0  0  0  0  0  0
  154.7383  136.6575  159.6196 C   0  0  0  0  0  0  0  0  0  0  0  0
  153.5657  141.7005  159.8422 C   0  0  0  0  0  0  0  0  0  0  0  0
  153.9846  142.7789  162.4786 H   0  0  0  0  0  0  0  0  0  0  0  0
  152.4425  141.8976  162.4837 H   0  0  0  0  0  0  0  0  0  0  0  0
  152.5664  143.4747  163.2580 H   0  0  0  0  0  0  0  0  0  0  0  0
  152.0895  144.4930  158.5863 H   0  0  0  0  0  0  0  0  0  0  0  0
  153.3858  143.5284  157.9566 H   0  0  0  0  0  0  0  0  0  0  0  0
  150.5536  142.5259  158.5593 H   0  0  0  0  0  0  0  0  0  0  0  0
  151.1991  142.8350  156.9649 H   0  0  0  0  0  0  0  0  0  0  0  0
  151.2568  140.3862  157.5896 H   0  0  0  0  0  0  0  0  0  0  0  0
  152.8243  141.0348  157.1750 H   0  0  0  0  0  0  0  0  0  0  0  0
  151.7487  140.5618  159.9962 H   0  0  0  0  0  0  0  0  0  0  0  0
  153.2232  139.1404  161.2184 H   0  0  0  0  0  0  0  0  0  0  0  0
  153.8289  136.8074  162.7692 H   0  0  0  0  0  0  0  0  0  0  0  0
  156.8880  134.7508  159.2963 H   0  0  0  0  0  0  0  0  0  0  0  0
  156.1124  133.6598  160.4314 H   0  0  0  0  0  0  0  0  0  0  0  0
  155.2668  133.2687  156.5324 H   0  0  0  0  0  0  0  0  0  0  0  0
  156.6772  134.0584  157.2082 H   0  0  0  0  0  0  0  0  0  0  0  0
  154.9121  136.8566  158.5723 H   0  0  0  0  0  0  0  0  0  0  0  0
  154.4295  141.8015  159.1826 H   0  0  0  0  0  0  0  0  0  0  0  0
  153.9686  141.3884  160.8072 H   0  0  0  0  0  0  0  0  0  0  0  0
  1  2  1  0  0  0  0
  1 22  1  0  0  0  0
  1 23  1  0  0  0  0
  1 24  1  0  0  0  0
  2  3  2  0  0  0  0
  2  4  1  0  0  0  0
  4 21  1  0  0  0  0
  4  5  1  0  0  0  0
  5  6  1  0  0  0  0
  5 25  1  0  0  0  0
  5 26  1  0  0  0  0
  6  7  1  0  0  0  0
  6 27  1  0  0  0  0
  6 28  1  0  0  0  0
  7  8  1  0  0  0  0
  7 29  1  0  0  0  0
  7 30  1  0  0  0  0
  8  9  1  0  0  0  0
  8 21  1  0  0  0  0
  8 31  1  0  0  0  0
  9 10  2  0  0  0  0
  9 11  1  0  0  0  0
 11 12  1  0  0  0  0
 11 32  1  0  0  0  0
 12 20  2  0  0  0  0
 12 13  1  0  0  0  0
 13 14  2  0  0  0  0
 13 33  1  0  0  0  0
 14 15  1  0  0  0  0
 15 16  1  0  0  0  0
 15 20  1  0  0  0  0
 16 17  1  0  0  0  0
 16 34  1  0  0  0  0
 16 35  1  0  0  0  0
 17 18  1  0  0  0  0
 17 19  2  0  0  0  0
 18 36  1  0  0  0  0
 18 37  1  0  0  0  0
 20 38  1  0  0  0  0
 21 39  1  0  0  0  0
 21 40  1  0  0  0  0
M  END
> <s_m_source_file>
AV-unprocessed.smi

> <i_m_source_file_index>
1681

> <i_lp_mmshare_version>
43012

> <i_f3d_flags>
0

> <s_epik_input>
W0NIM11DKD1PKU4xW0NIMl1bQ0gyXVtDSDJdW0NASF0oW0NIMl0xKUMoPU8pW05IXWMyW2NIXW5uKFtjSF0yKVtDSDJdQyg9TylbTkgyXQ==

> <s_epik_cmdline>
J2VwaWtfcHl0aG9uJywgJy1waCcsICc3LjAnLCAnLXRuJywgJzgnLCAnLW1hJywgJzIwMCcsICctbWV0YWxfYmluZGluZycsICctaW1hZScsICc8aW5maWxlLm1hZT4nLCAnLW9tYWUnLCAnPG91dGZpbGUubWFlPic=

> <r_lp_tautomer_probability>
1

> <r_epik_Ionization_Penalty>
6.05275e-06

> <r_epik_Ionization_Penalty_Charging>
0

> <r_epik_Ionization_Penalty_Neutral>
6.05275e-06

> <r_epik_State_Penalty>
-0

> <r_epik_Charging_Adjusted_Penalty>
0

> <i_epik_Tot_Q>
0

> <i_epik_Tot_abs_Q>
0

> <r_epik_Metal_State_Penalty>
-0

> <b_epik_Metal_Only>
0

> <s_lp_Force_Field>
OPLS_2005

> <r_lp_Energy>
29.0931

> <b_lp_Chiralities_Consistent>
1

> <s_lp_Variant>
AV-unprocessed.smi:1681-1

> <Gold.Version>
5.8.1

> <Gold.Id.Protein>
6NUR|6NUR_protein|mol2

> <Gold.PLP.Fitness>
42.2008

> <Gold.PLP.PLP>
-36.8845

> <Gold.PLP.part.hbond>
-2.0000

> <Gold.PLP.part.metal>
0.0000

> <Gold.PLP.part.buried>
-5.6509

> <Gold.PLP.part.nonpolar>
-29.7376

> <Gold.PLP.part.repulsive>
0.3835

> <Gold.PLP.ligand.clash>
0.0000

> <Gold.PLP.ligand.torsion>
0.3535

> <Gold.PLP.Chemscore.Hbond>
2.0000

> <Gold.PLP.Chemscore.CHOScore>
0.0000

> <Gold.PLP.Chemscore.Metal>
0.0000

> <Gold.Chemscore.Hbonds>
donor molecule, donor type, donor heavy atom, donor atom, acceptor molecule, acceptor atom, score
      P1  H  6896  6907       L1    19  1.00
      P1  H  7997  8010       L1    10  1.00

> <Gold.PLP.Chemscore.Internal.Correction>
0.0233

> <Gold.Rescore>
     Score         DG    S(hbond)    S(metal)    S(lipo)     H(rot)  DE(clash)    DE(int)     intcor
     14.51     -16.22       1.97        0.00      78.48       1.96       0.03       1.68       ----

> <Gold.Chemscore.Fitness>
14.5130

> <Gold.Chemscore.DG>
-16.2217

> <Gold.Chemscore.ZeroCoef>
-5.4800

> <Gold.Chemscore.Hbond>
1.9707

> <Gold.Chemscore.Metal>
0.0000

> <Gold.Chemscore.Lipo>
78.4760

> <Gold.Chemscore.Internal_Hbond>
0.0000

> <Gold.Chemscore.DEClash>
0.0285

> <Gold.Chemscore.DEInternal>
1.6802

> <Gold.Chemscore.Rot>
1.9617

> <Gold.Chemscore.Internal.Correction>
   9.000000E+99

> <Gold.Chemscore.Hbonds>
donor molecule, donor type, donor heavy atom, donor atom, acceptor molecule, acceptor atom, score
      P1  H  6896  6907       L1    19  0.96
      P1  H  7997  8010       L1    10  0.78

> <Gold.Chemscore.Hbond.Weighted>
-6.5821

> <Gold.Chemscore.Metal.Weighted>
-0.0000

> <Gold.Chemscore.Lipo.Weighted>
-9.1817

> <Gold.Chemscore.Internal_Hbond.Weighted>
0.0000

> <Gold.Chemscore.DEClash.Weighted>
0.0285

> <Gold.Chemscore.DEInternal.Weighted>
1.6802

> <Gold.Chemscore.Rot.Weighted>
5.0220

> <Gold.Chemscore.Internal.Correction.Weighted>
   9.000000E+99

> <Gold.Protein.RotatedTorsions>
[ 6907 6896 6895 6894 ] final  104.03 input  -60.11 | X-H torsion
[ 7974 7965 7964 7962 ] final -158.25 input  175.53 | X-H torsion
[ 8008 7997 7996 7995 ] final   26.49 input   59.86 | X-H torsion
[ 10167 10162 10161 10158 ] final  114.35 input  -65.29 | X-H torsion
[ 10718 10713 10712 10709 ] final  139.72 input   66.30 | X-H torsion
[ 10763 10752 10751 10750 ] final   52.85 input  -60.55 | X-H torsion
[ 11005 11000 10999 10996 ] final -147.55 input  -57.11 | X-H torsion

> <Gold.Protein.ActiveResidues>
 VAL166  LYS551  ARG553  GLY616  TRP617  ASP618  TYR619  PRO620  LYS621  CYS622 
 ASP623  PHE694  ASN695  SER759  ASP760  ASP761  ALA762  ILE779  LEU786  VAL792 
 PHE793  MET794  SER795  GLU796  ALA797  LYS798  CYS799  TRP800  GLU811  SER814 

> <Gold.Protein.RotatedAtoms>
  152.5277  133.9737  159.7773 H   0  0  0  0  0  0  0  0  0  0  0  0  # atno 6907 bound_to 6896
  151.0004  133.6054  159.2703 H   0  0  0  0  0  0  0  0  0  0  0  0  # atno 6908 bound_to 6896
  151.3165  135.0814  159.9344 H   0  0  0  0  0  0  0  0  0  0  0  0  # atno 6909 bound_to 6896
  144.7513  140.3854  143.6045 H   0  0  0  0  0  0  0  0  0  0  0  0  # atno 7974 bound_to 7965
  155.0281  140.3155  155.4768 H   0  0  0  0  0  0  0  0  0  0  0  0  # atno 8008 bound_to 7997
  156.2879  140.2185  156.5344 H   0  0  0  0  0  0  0  0  0  0  0  0  # atno 8009 bound_to 7997
  154.7394  140.0475  157.0785 H   0  0  0  0  0  0  0  0  0  0  0  0  # atno 8010 bound_to 7997
  139.6395  144.7122  151.2266 H   0  0  0  0  0  0  0  0  0  0  0  0  # atno 10167 bound_to 10162
  157.4112  131.1028  151.0452 H   0  0  0  0  0  0  0  0  0  0  0  0  # atno 10718 bound_to 10713
  152.9791  135.5798  154.4646 H   0  0  0  0  0  0  0  0  0  0  0  0  # atno 10763 bound_to 10752
  154.4217  135.2772  155.1973 H   0  0  0  0  0  0  0  0  0  0  0  0  # atno 10764 bound_to 10752
  154.3719  135.6166  153.5798 H   0  0  0  0  0  0  0  0  0  0  0  0  # atno 10765 bound_to 10752
  140.7704  134.3195  157.5076 H   0  0  0  0  0  0  0  0  0  0  0  0  # atno 11005 bound_to 11000
  145.6933  139.1644  143.2634 LP  0  0  0  0  0  0  0  0  0  0  0  0  # atno 17320 bound_to 7965
  146.1467  140.6982  142.9341 LP  0  0  0  0  0  0  0  0  0  0  0  0  # atno 17321 bound_to 7965
  140.7483  143.6337  150.8399 LP  0  0  0  0  0  0  0  0  0  0  0  0  # atno 17342 bound_to 10162
  139.9973  143.5782  152.2888 LP  0  0  0  0  0  0  0  0  0  0  0  0  # atno 17343 bound_to 10162
  157.1415  130.6145  149.5556 LP  0  0  0  0  0  0  0  0  0  0  0  0  # atno 17370 bound_to 10713
  155.9851  130.4879  150.7016 LP  0  0  0  0  0  0  0  0  0  0  0  0  # atno 17371 bound_to 10713
  139.8756  134.9257  156.3382 LP  0  0  0  0  0  0  0  0  0  0  0  0  # atno 17394 bound_to 11000
  140.9579  133.7408  156.0360 LP  0  0  0  0  0  0  0  0  0  0  0  0  # atno 17395 bound_to 11000

$$$$
