AV-unprocessed.smi:2044|AV-procd|sdf|8307|dock6
  -GOLD-   2272010573D 1   1.00000     0.00000
 Structure written by MMmdl.
 39 40  0  0  0  0  0  0  0  0  3 V2000
  149.4718  133.2346  155.8640 C   0  0  0  0  0  0  0  0  0  0  0  0
  150.4087  134.3542  156.1651 C   0  0  0  0  0  0  0  0  0  0  0  0
  150.2458  135.7095  156.2260 C   0  0  0  0  0  0  0  0  0  0  0  0
  151.5455  136.1750  156.5593 C   0  0  0  0  0  0  0  0  0  0  0  0
  151.7977  137.5622  156.7254 N   0  0  0  0  0  0  0  0  0  0  0  0
  152.9676  138.1803  156.9675 C   0  0  0  0  0  0  0  0  0  0  0  0
  154.0195  137.5314  157.0154 O   0  0  0  0  0  0  0  0  0  0  0  0
  152.8167  139.5208  157.1559 N   0  5  0  0  0  0  0  0  0  0  0  0
  151.9999  140.1376  158.2072 C   0  0  0  0  0  0  0  0  0  0  0  0
  151.8653  141.6736  158.0115 C   0  0  1  0  0  0  0  0  0  0  0  0
  150.7676  142.0930  157.0018 C   0  0  0  0  0  0  0  0  0  0  0  0
  151.8008  142.3816  159.3301 N   0  3  0  0  0  0  0  0  0  0  0  0
  152.8409  141.9610  160.2998 C   0  0  0  0  0  0  0  0  0  0  0  0
  152.5485  142.5702  161.6820 C   0  0  0  0  0  0  0  0  0  0  0  0
  152.4666  143.9871  161.5807 O   0  0  0  0  0  0  0  0  0  0  0  0
  151.4213  144.4004  160.7082 C   0  0  0  0  0  0  0  0  0  0  0  0
  151.6978  143.8653  159.2953 C   0  0  0  0  0  0  0  0  0  0  0  0
  152.4215  135.1904  156.6972 N   0  0  0  0  0  0  0  0  0  0  0  0
  151.6985  134.0193  156.4418 O   0  0  0  0  0  0  0  0  0  0  0  0
  148.5017  133.4061  156.3307 H   0  0  0  0  0  0  0  0  0  0  0  0
  149.8611  132.2863  156.2354 H   0  0  0  0  0  0  0  0  0  0  0  0
  149.3182  133.1397  154.7891 H   0  0  0  0  0  0  0  0  0  0  0  0
  149.3415  136.2755  156.0571 H   0  0  0  0  0  0  0  0  0  0  0  0
  150.9874  138.1619  156.6746 H   0  0  0  0  0  0  0  0  0  0  0  0
  150.9996  139.7043  158.2523 H   0  0  0  0  0  0  0  0  0  0  0  0
  152.4301  139.9496  159.1909 H   0  0  0  0  0  0  0  0  0  0  0  0
  152.8033  141.9687  157.5390 H   0  0  0  0  0  0  0  0  0  0  0  0
  150.9307  141.6447  156.0199 H   0  0  0  0  0  0  0  0  0  0  0  0
  150.7721  143.1728  156.8520 H   0  0  0  0  0  0  0  0  0  0  0  0
  149.7641  141.8084  157.3223 H   0  0  0  0  0  0  0  0  0  0  0  0
  152.8575  140.8736  160.3833 H   0  0  0  0  0  0  0  0  0  0  0  0
  153.8229  142.2750  159.9434 H   0  0  0  0  0  0  0  0  0  0  0  0
  151.6191  142.1713  162.0924 H   0  0  0  0  0  0  0  0  0  0  0  0
  153.3427  142.3110  162.3823 H   0  0  0  0  0  0  0  0  0  0  0  0
  150.4564  144.0481  161.0772 H   0  0  0  0  0  0  0  0  0  0  0  0
  151.3800  145.4897  160.6967 H   0  0  0  0  0  0  0  0  0  0  0  0
  152.6224  144.3009  158.9150 H   0  0  0  0  0  0  0  0  0  0  0  0
  150.8931  144.1773  158.6294 H   0  0  0  0  0  0  0  0  0  0  0  0
  150.9261  142.0659  159.7271 H   0  0  0  0  0  0  0  0  0  0  0  0
  1  2  1  0  0  0  0
  1 20  1  0  0  0  0
  1 21  1  0  0  0  0
  1 22  1  0  0  0  0
  2 19  1  0  0  0  0
  2  3  2  0  0  0  0
  3  4  1  0  0  0  0
  3 23  1  0  0  0  0
  4  5  1  0  0  0  0
  4 18  2  0  0  0  0
  5  6  1  0  0  0  0
  5 24  1  0  0  0  0
  6  7  2  0  0  0  0
  6  8  1  0  0  0  0
  8  9  1  0  0  0  0
  9 10  1  0  0  0  0
  9 25  1  0  0  0  0
  9 26  1  0  0  0  0
 10 11  1  0  0  0  0
 10 12  1  0  0  0  0
 10 27  1  0  0  0  0
 11 28  1  0  0  0  0
 11 29  1  0  0  0  0
 11 30  1  0  0  0  0
 12 17  1  0  0  0  0
 12 13  1  0  0  0  0
 12 39  1  0  0  0  0
 13 14  1  0  0  0  0
 13 31  1  0  0  0  0
 13 32  1  0  0  0  0
 14 15  1  0  0  0  0
 14 33  1  0  0  0  0
 14 34  1  0  0  0  0
 15 16  1  0  0  0  0
 16 17  1  0  0  0  0
 16 35  1  0  0  0  0
 16 36  1  0  0  0  0
 17 37  1  0  0  0  0
 17 38  1  0  0  0  0
 18 19  1  0  0  0  0
M  CHG  1   8  -1
M  CHG  1  12   1
M  END
> <s_m_source_file>
AV-unprocessed.smi

> <i_m_source_file_index>
2044

> <i_lp_mmshare_version>
43012

> <i_f3d_flags>
0

> <s_epik_input>
W0NIM11jMVtjSF1jKG5vMSlbTkhdQyg9TylbTkhdW0NIMl1bQ0BIXShbQ0gzXSlOMltDSDJdW0NIMl1PW0NIMl1bQ0gyXTI=

> <s_epik_cmdline>
J2VwaWtfcHl0aG9uJywgJy1waCcsICc3LjAnLCAnLXRuJywgJzgnLCAnLW1hJywgJzIwMCcsICctbWV0YWxfYmluZGluZycsICctaW1hZScsICc8aW5maWxlLm1hZT4nLCAnLW9tYWUnLCAnPG91dGZpbGUubWFlPic=

> <r_epik_Ionization_Penalty>
6.79272

> <r_epik_Ionization_Penalty_Charging>
6.79272

> <r_epik_Ionization_Penalty_Neutral>
5.6208e-06

> <r_epik_State_Penalty>
7.45901

> <r_epik_Charging_Adjusted_Penalty>
14.2517

> <i_epik_Tot_Q>
0

> <i_epik_Tot_abs_Q>
2

> <r_epik_Metal_State_Penalty>
3.38639

> <b_epik_Metal_Only>
1

> <s_lp_Force_Field>
OPLS_2005

> <r_lp_Energy>
15.3215

> <b_lp_Chiralities_Consistent>
1

> <s_lp_Variant>
AV-unprocessed.smi:2044-10

> <Gold.Version>
5.8.1

> <Gold.Id.Protein>
6NUR|6NUR_protein|mol2

> <Gold.PLP.Fitness>
38.8318

> <Gold.PLP.PLP>
-31.6137

> <Gold.PLP.part.hbond>
-3.1867

> <Gold.PLP.part.metal>
0.0000

> <Gold.PLP.part.buried>
-4.4744

> <Gold.PLP.part.nonpolar>
-24.0166

> <Gold.PLP.part.repulsive>
0.3435

> <Gold.PLP.ligand.clash>
0.0000

> <Gold.PLP.ligand.torsion>
1.0096

> <Gold.PLP.Chemscore.Hbond>
3.0000

> <Gold.PLP.Chemscore.CHOScore>
0.0000

> <Gold.PLP.Chemscore.Metal>
0.0000

> <Gold.Chemscore.Hbonds>
donor molecule, donor type, donor heavy atom, donor atom, acceptor molecule, acceptor atom, score
      P1  H  7997  8009       L1     8  2.00
      P1  H 10752 10763       L1    18  0.90

> <Gold.PLP.Chemscore.Internal.Correction>
0.2374

> <Gold.Rescore>
     Score         DG    S(hbond)    S(metal)    S(lipo)     H(rot)  DE(clash)    DE(int)     intcor
     12.91     -15.24       1.40        0.00      78.34       1.59       0.06       2.27       ----

> <Gold.Chemscore.Fitness>
12.9104

> <Gold.Chemscore.DG>
-15.2440

> <Gold.Chemscore.ZeroCoef>
-5.4800

> <Gold.Chemscore.Hbond>
1.4000

> <Gold.Chemscore.Metal>
0.0000

> <Gold.Chemscore.Lipo>
78.3429

> <Gold.Chemscore.Internal_Hbond>
0.0000

> <Gold.Chemscore.DEClash>
0.0613

> <Gold.Chemscore.DEInternal>
2.2723

> <Gold.Chemscore.Rot>
1.5930

> <Gold.Chemscore.Internal.Correction>
   9.000000E+99

> <Gold.Chemscore.Hbonds>
donor molecule, donor type, donor heavy atom, donor atom, acceptor molecule, acceptor atom, score
      P1  H  7997  8009       L1     8  0.25
      P1  H 10752 10763       L1    18  0.34

> <Gold.Chemscore.Hbond.Weighted>
-4.6759

> <Gold.Chemscore.Metal.Weighted>
-0.0000

> <Gold.Chemscore.Lipo.Weighted>
-9.1661

> <Gold.Chemscore.Internal_Hbond.Weighted>
0.0000

> <Gold.Chemscore.DEClash.Weighted>
0.0613

> <Gold.Chemscore.DEInternal.Weighted>
2.2723

> <Gold.Chemscore.Rot.Weighted>
4.0781

> <Gold.Chemscore.Internal.Correction.Weighted>
   9.000000E+99

> <Gold.Protein.RotatedTorsions>
[ 6907 6896 6895 6894 ] final  -50.38 input  -60.11 | X-H torsion
[ 7974 7965 7964 7962 ] final  116.51 input  175.53 | X-H torsion
[ 8008 7997 7996 7995 ] final  176.39 input   59.86 | X-H torsion
[ 10167 10162 10161 10158 ] final  -12.13 input  -65.29 | X-H torsion
[ 10718 10713 10712 10709 ] final  154.86 input   66.30 | X-H torsion
[ 10763 10752 10751 10750 ] final  127.64 input  -60.55 | X-H torsion
[ 11005 11000 10999 10996 ] final  -65.34 input  -57.11 | X-H torsion

> <Gold.Protein.ActiveResidues>
 VAL166  LYS551  ARG553  GLY616  TRP617  ASP618  TYR619  PRO620  LYS621  CYS622 
 ASP623  PHE694  ASN695  SER759  ASP760  ASP761  ALA762  ILE779  LEU786  VAL792 
 PHE793  MET794  SER795  GLU796  ALA797  LYS798  CYS799  TRP800  GLU811  SER814 

> <Gold.Protein.RotatedAtoms>
  150.8712  134.8086  159.7156 H   0  0  0  0  0  0  0  0  0  0  0  0  # atno 6907 bound_to 6896
  152.4716  134.4943  159.9715 H   0  0  0  0  0  0  0  0  0  0  0  0  # atno 6908 bound_to 6896
  151.5032  133.3461  159.2908 H   0  0  0  0  0  0  0  0  0  0  0  0  # atno 6909 bound_to 6896
  145.1787  139.3061  143.4429 H   0  0  0  0  0  0  0  0  0  0  0  0  # atno 7974 bound_to 7965
  156.0770  140.1385  156.9759 H   0  0  0  0  0  0  0  0  0  0  0  0  # atno 8008 bound_to 7997
  154.4563  140.0960  156.6817 H   0  0  0  0  0  0  0  0  0  0  0  0  # atno 8009 bound_to 7997
  155.5137  140.3454  155.4395 H   0  0  0  0  0  0  0  0  0  0  0  0  # atno 8010 bound_to 7997
  140.7154  143.5565  150.9242 H   0  0  0  0  0  0  0  0  0  0  0  0  # atno 10167 bound_to 10162
  157.2260  131.0729  151.1883 H   0  0  0  0  0  0  0  0  0  0  0  0  # atno 10718 bound_to 10713
  153.7127  135.3266  155.3250 H   0  0  0  0  0  0  0  0  0  0  0  0  # atno 10763 bound_to 10752
  154.8380  135.4481  154.1297 H   0  0  0  0  0  0  0  0  0  0  0  0  # atno 10764 bound_to 10752
  153.2395  135.6969  153.7878 H   0  0  0  0  0  0  0  0  0  0  0  0  # atno 10765 bound_to 10752
  141.1451  133.6680  156.5971 H   0  0  0  0  0  0  0  0  0  0  0  0  # atno 11005 bound_to 11000
  146.3457  140.1959  142.8589 LP  0  0  0  0  0  0  0  0  0  0  0  0  # atno 17320 bound_to 7965
  145.0158  140.8752  143.5197 LP  0  0  0  0  0  0  0  0  0  0  0  0  # atno 17321 bound_to 7965
  139.9290  143.6515  152.3080 LP  0  0  0  0  0  0  0  0  0  0  0  0  # atno 17342 bound_to 10162
  139.6959  144.7641  151.1357 LP  0  0  0  0  0  0  0  0  0  0  0  0  # atno 17343 bound_to 10162
  157.3527  130.7090  149.6451 LP  0  0  0  0  0  0  0  0  0  0  0  0  # atno 17370 bound_to 10713
  155.9679  130.4248  150.4624 LP  0  0  0  0  0  0  0  0  0  0  0  0  # atno 17371 bound_to 10713
  140.3718  134.7599  157.4603 LP  0  0  0  0  0  0  0  0  0  0  0  0  # atno 17394 bound_to 11000
  140.0705  134.5869  155.8647 LP  0  0  0  0  0  0  0  0  0  0  0  0  # atno 17395 bound_to 11000

$$$$
