AV-unprocessed.smi:1644|AV-procd|sdf|6593|dock1
  -GOLD-   22720 7293D 1   1.00000     0.00000
 Structure written by MMmdl.
 48 50  0  0  0  0  0  0  0  0  2 V2000
  144.6880  143.7385  154.5062 C   0  0  0  0  0  0  0  0  0  0  0  0
  145.5577  142.6988  155.2216 C   0  0  0  0  0  0  0  0  0  0  0  0
  145.1643  142.5152  156.6966 C   0  0  0  0  0  0  0  0  0  0  0  0
  145.7983  141.2664  157.3459 C   0  0  1  0  0  0  0  0  0  0  0  0
  145.2949  140.0449  156.7514 N   0  5  0  0  0  0  0  0  0  0  0  0
  146.3361  139.3512  156.2360 C   0  0  0  0  0  0  0  0  0  0  0  0
  146.2811  138.2687  155.6536 O   0  0  0  0  0  0  0  0  0  0  0  0
  147.4958  140.0076  156.4263 N   0  0  0  0  0  0  0  0  0  0  0  0
  148.8085  139.5565  155.9512 C   0  0  0  0  0  0  0  0  0  0  0  0
  149.3452  140.4643  154.8253 C   0  0  2  0  0  0  0  0  0  0  0  0
  150.1421  139.6830  153.9560 O   0  0  0  0  0  0  0  0  0  0  0  0
  150.2102  141.6138  155.3764 C   0  0  0  0  0  0  0  0  0  0  0  0
  151.1359  141.1644  156.4009 N   0  0  0  0  0  0  0  0  0  0  0  0
  151.8757  140.0395  156.3823 C   0  0  0  0  0  0  0  0  0  0  0  0
  152.6610  139.8090  157.4304 N   0  0  0  0  0  0  0  0  0  0  0  0
  152.3969  140.9127  158.2233 C   0  0  0  0  0  0  0  0  0  0  0  0
  152.9088  141.2748  159.4883 C   0  0  0  0  0  0  0  0  0  0  0  0
  152.4923  142.4655  160.1253 C   0  0  0  0  0  0  0  0  0  0  0  0
  153.0674  142.8142  161.4867 C   0  0  0  0  0  0  0  0  0  0  0  0
  151.5503  143.3169  159.4937 C   0  0  0  0  0  0  0  0  0  0  0  0
  151.0901  144.6028  160.1568 C   0  0  0  0  0  0  0  0  0  0  0  0
  151.0274  142.9690  158.2304 C   0  0  0  0  0  0  0  0  0  0  0  0
  151.4489  141.7812  157.6072 C   0  0  0  0  0  0  0  0  0  0  0  0
  147.2830  141.1650  157.0609 C   0  0  0  0  0  0  0  0  0  0  0  0
  148.1149  142.0208  157.3651 O   0  0  0  0  0  0  0  0  0  0  0  0
  144.9941  143.8512  153.4660 H   0  0  0  0  0  0  0  0  0  0  0  0
  144.7693  144.7148  154.9847 H   0  0  0  0  0  0  0  0  0  0  0  0
  143.6378  143.4461  154.5146 H   0  0  0  0  0  0  0  0  0  0  0  0
  145.4785  141.7441  154.7010 H   0  0  0  0  0  0  0  0  0  0  0  0
  146.6032  143.0011  155.1529 H   0  0  0  0  0  0  0  0  0  0  0  0
  145.4307  143.4100  157.2624 H   0  0  0  0  0  0  0  0  0  0  0  0
  144.0776  142.4371  156.7536 H   0  0  0  0  0  0  0  0  0  0  0  0
  145.6579  141.2939  158.4272 H   0  0  0  0  0  0  0  0  0  0  0  0
  149.4974  139.5778  156.7972 H   0  0  0  0  0  0  0  0  0  0  0  0
  148.7813  138.5119  155.6358 H   0  0  0  0  0  0  0  0  0  0  0  0
  148.5165  140.8896  154.2566 H   0  0  0  0  0  0  0  0  0  0  0  0
  149.7039  139.6271  153.1197 H   0  0  0  0  0  0  0  0  0  0  0  0
  150.7930  142.0634  154.5714 H   0  0  0  0  0  0  0  0  0  0  0  0
  149.5841  142.4068  155.7875 H   0  0  0  0  0  0  0  0  0  0  0  0
  151.8329  139.3497  155.5520 H   0  0  0  0  0  0  0  0  0  0  0  0
  153.6272  140.6263  159.9678 H   0  0  0  0  0  0  0  0  0  0  0  0
  153.6618  143.7259  161.4263 H   0  0  0  0  0  0  0  0  0  0  0  0
  153.7100  142.0178  161.8622 H   0  0  0  0  0  0  0  0  0  0  0  0
  152.2695  142.9671  162.2135 H   0  0  0  0  0  0  0  0  0  0  0  0
  150.4158  145.1646  159.5098 H   0  0  0  0  0  0  0  0  0  0  0  0
  151.9427  145.2427  160.3859 H   0  0  0  0  0  0  0  0  0  0  0  0
  150.5608  144.3844  161.0844 H   0  0  0  0  0  0  0  0  0  0  0  0
  150.3038  143.6036  157.7403 H   0  0  0  0  0  0  0  0  0  0  0  0
  1  2  1  0  0  0  0
  1 26  1  0  0  0  0
  1 27  1  0  0  0  0
  1 28  1  0  0  0  0
  2  3  1  0  0  0  0
  2 29  1  0  0  0  0
  2 30  1  0  0  0  0
  3  4  1  0  0  0  0
  3 31  1  0  0  0  0
  3 32  1  0  0  0  0
  4 24  1  0  0  0  0
  4  5  1  0  0  0  0
  4 33  1  0  0  0  0
  5  6  1  0  0  0  0
  6  7  2  0  0  0  0
  6  8  1  0  0  0  0
  8  9  1  0  0  0  0
  8 24  1  0  0  0  0
  9 10  1  0  0  0  0
  9 34  1  0  0  0  0
  9 35  1  0  0  0  0
 10 11  1  0  0  0  0
 10 12  1  0  0  0  0
 10 36  1  0  0  0  0
 11 37  1  0  0  0  0
 12 13  1  0  0  0  0
 12 38  1  0  0  0  0
 12 39  1  0  0  0  0
 13 23  1  0  0  0  0
 13 14  1  0  0  0  0
 14 15  2  0  0  0  0
 14 40  1  0  0  0  0
 15 16  1  0  0  0  0
 16 23  2  0  0  0  0
 16 17  1  0  0  0  0
 17 18  2  0  0  0  0
 17 41  1  0  0  0  0
 18 19  1  0  0  0  0
 18 20  1  0  0  0  0
 19 42  1  0  0  0  0
 19 43  1  0  0  0  0
 19 44  1  0  0  0  0
 20 21  1  0  0  0  0
 20 22  2  0  0  0  0
 21 45  1  0  0  0  0
 21 46  1  0  0  0  0
 21 47  1  0  0  0  0
 22 23  1  0  0  0  0
 22 48  1  0  0  0  0
 24 25  2  0  0  0  0
M  CHG  1   5  -1
M  END
> <s_m_source_file>
AV-unprocessed.smi

> <i_m_source_file_index>
1644

> <i_lp_mmshare_version>
43012

> <i_f3d_flags>
0

> <s_epik_input>
W0NIM11bQ0gyXVtDSDJdW0NAQEhdMVtOSF1DKD1PKU4oQzE9TylbQ0gyXVtDQEhdKFtPSF0pW0NIMl1uKFtjSF1uMiljKGMyMylbY0hdYyhbQ0gzXSljKFtjSF0zKVtDSDNd

> <s_epik_cmdline>
J2VwaWtfcHl0aG9uJywgJy1waCcsICc3LjAnLCAnLXRuJywgJzgnLCAnLW1hJywgJzIwMCcsICctbWV0YWxfYmluZGluZycsICctaW1hZScsICc8aW5maWxlLm1hZT4nLCAnLW9tYWUnLCAnPG91dGZpbGUubWFlPic=

> <r_lp_tautomer_probability>
1

> <r_epik_Ionization_Penalty>
5.95212

> <r_epik_Ionization_Penalty_Charging>
5.84419

> <r_epik_Ionization_Penalty_Neutral>
0.107924

> <r_epik_State_Penalty>
5.94088

> <r_epik_Charging_Adjusted_Penalty>
11.7851

> <i_epik_Tot_Q>
-1

> <i_epik_Tot_abs_Q>
1

> <r_epik_Metal_State_Penalty>
1.99095

> <b_epik_Metal_Only>
1

> <s_lp_Force_Field>
OPLS_2005

> <r_lp_Energy>
18.6255

> <b_lp_Chiralities_Consistent>
1

> <s_lp_Variant>
AV-unprocessed.smi:1644-10

> <Gold.Version>
5.8.1

> <Gold.Id.Protein>
6NUR|6NUR_protein|mol2

> <Gold.PLP.Fitness>
49.4845

> <Gold.PLP.PLP>
-42.1232

> <Gold.PLP.part.hbond>
-3.0000

> <Gold.PLP.part.metal>
0.0000

> <Gold.PLP.part.buried>
-6.2596

> <Gold.PLP.part.nonpolar>
-33.3090

> <Gold.PLP.part.repulsive>
0.8168

> <Gold.PLP.ligand.clash>
0.0000

> <Gold.PLP.ligand.torsion>
0.8976

> <Gold.PLP.Chemscore.Hbond>
2.9280

> <Gold.PLP.Chemscore.CHOScore>
0.0000

> <Gold.PLP.Chemscore.Metal>
0.0000

> <Gold.Chemscore.Hbonds>
donor molecule, donor type, donor heavy atom, donor atom, acceptor molecule, acceptor atom, score
      L1  H    11    37       P1  7957  1.00
      P1  H  7989  7998       L1    11  0.95
      P1  H  7997  8009       L1    15  1.00

> <Gold.PLP.Chemscore.Internal.Correction>
0.3725

> <Gold.Rescore>
     Score         DG    S(hbond)    S(metal)    S(lipo)     H(rot)  DE(clash)    DE(int)     intcor
     15.50     -17.84       2.06        0.00     104.88       2.65       0.19       2.15       ----

> <Gold.Chemscore.Fitness>
15.5038

> <Gold.Chemscore.DG>
-17.8445

> <Gold.Chemscore.ZeroCoef>
-5.4800

> <Gold.Chemscore.Hbond>
2.0581

> <Gold.Chemscore.Metal>
0.0000

> <Gold.Chemscore.Lipo>
104.8807

> <Gold.Chemscore.Internal_Hbond>
0.0000

> <Gold.Chemscore.DEClash>
0.1863

> <Gold.Chemscore.DEInternal>
2.1545

> <Gold.Chemscore.Rot>
2.6486

> <Gold.Chemscore.Internal.Correction>
   9.000000E+99

> <Gold.Chemscore.Hbonds>
donor molecule, donor type, donor heavy atom, donor atom, acceptor molecule, acceptor atom, score
      L1  H    11    37       P1  7957  0.92
      P1  H  7989  7998       L1    11  0.09
      P1  H  7997  8009       L1    15  0.16

> <Gold.Chemscore.Hbond.Weighted>
-6.8739

> <Gold.Chemscore.Metal.Weighted>
-0.0000

> <Gold.Chemscore.Lipo.Weighted>
-12.2710

> <Gold.Chemscore.Internal_Hbond.Weighted>
0.0000

> <Gold.Chemscore.DEClash.Weighted>
0.1863

> <Gold.Chemscore.DEInternal.Weighted>
2.1545

> <Gold.Chemscore.Rot.Weighted>
6.7804

> <Gold.Chemscore.Internal.Correction.Weighted>
   9.000000E+99

> <Gold.Protein.RotatedTorsions>
[ 6907 6896 6895 6894 ] final  -57.83 input  -60.11 | X-H torsion
[ 7974 7965 7964 7962 ] final  110.75 input  175.53 | X-H torsion
[ 8008 7997 7996 7995 ] final  178.48 input   59.86 | X-H torsion
[ 10167 10162 10161 10158 ] final -111.87 input  -65.29 | X-H torsion
[ 10718 10713 10712 10709 ] final  -37.85 input   66.30 | X-H torsion
[ 10763 10752 10751 10750 ] final -107.91 input  -60.55 | X-H torsion
[ 11005 11000 10999 10996 ] final -170.08 input  -57.11 | X-H torsion

> <Gold.Protein.ActiveResidues>
 VAL166  LYS551  ARG553  GLY616  TRP617  ASP618  TYR619  PRO620  LYS621  CYS622 
 ASP623  PHE694  ASN695  SER759  ASP760  ASP761  ALA762  ILE779  LEU786  VAL792 
 PHE793  MET794  SER795  GLU796  ALA797  LYS798  CYS799  TRP800  GLU811  SER814 

> <Gold.Protein.RotatedAtoms>
  150.8054  134.7176  159.6639 H   0  0  0  0  0  0  0  0  0  0  0  0  # atno 6907 bound_to 6896
  152.4173  134.6014  160.0011 H   0  0  0  0  0  0  0  0  0  0  0  0  # atno 6908 bound_to 6896
  151.6240  133.3300  159.3130 H   0  0  0  0  0  0  0  0  0  0  0  0  # atno 6909 bound_to 6896
  145.2510  139.2740  143.4067 H   0  0  0  0  0  0  0  0  0  0  0  0  # atno 7974 bound_to 7965
  156.0541  140.1332  157.0016 H   0  0  0  0  0  0  0  0  0  0  0  0  # atno 8008 bound_to 7997
  154.4449  140.1005  156.6490 H   0  0  0  0  0  0  0  0  0  0  0  0  # atno 8009 bound_to 7997
  155.5478  140.3462  155.4464 H   0  0  0  0  0  0  0  0  0  0  0  0  # atno 8010 bound_to 7997
  140.1289  143.4378  152.1641 H   0  0  0  0  0  0  0  0  0  0  0  0  # atno 10167 bound_to 10162
  156.3105  130.4252  149.8055 H   0  0  0  0  0  0  0  0  0  0  0  0  # atno 10718 bound_to 10713
  154.8104  135.4657  154.0502 H   0  0  0  0  0  0  0  0  0  0  0  0  # atno 10763 bound_to 10752
  153.1937  135.6859  153.8326 H   0  0  0  0  0  0  0  0  0  0  0  0  # atno 10764 bound_to 10752
  153.7835  135.3253  155.3346 H   0  0  0  0  0  0  0  0  0  0  0  0  # atno 10765 bound_to 10752
  140.5235  134.5686  157.5054 H   0  0  0  0  0  0  0  0  0  0  0  0  # atno 11005 bound_to 11000
  146.3302  140.2900  142.8615 LP  0  0  0  0  0  0  0  0  0  0  0  0  # atno 17320 bound_to 7965
  144.9503  140.8171  143.5576 LP  0  0  0  0  0  0  0  0  0  0  0  0  # atno 17321 bound_to 7965
  139.5530  144.7352  151.4378 LP  0  0  0  0  0  0  0  0  0  0  0  0  # atno 17342 bound_to 10162
  140.6829  143.8041  150.7145 LP  0  0  0  0  0  0  0  0  0  0  0  0  # atno 17343 bound_to 10162
  156.5400  130.8296  151.3266 LP  0  0  0  0  0  0  0  0  0  0  0  0  # atno 17370 bound_to 10713
  157.7390  130.9823  150.2285 LP  0  0  0  0  0  0  0  0  0  0  0  0  # atno 17371 bound_to 10713
  139.9593  134.7481  156.0272 LP  0  0  0  0  0  0  0  0  0  0  0  0  # atno 17394 bound_to 11000
  141.1321  133.6584  156.3493 LP  0  0  0  0  0  0  0  0  0  0  0  0  # atno 17395 bound_to 11000

$$$$
