AV-unprocessed.smi:2442|AV-procd|sdf|9629|dock10
  -GOLD-   2272013263D 1   1.00000     0.00000
 Structure written by MMmdl.
 47 48  0  0  0  0  0  0  0  0  2 V2000
  151.7523  144.2641  158.0246 C   0  0  0  0  0  0  0  0  0  0  0  0
  150.8939  143.2457  157.5344 O   0  0  0  0  0  0  0  0  0  0  0  0
  150.4683  142.3062  158.5184 C   0  0  2  0  0  0  0  0  0  0  0  0
  151.2504  140.9804  158.3924 C   0  0  0  0  0  0  0  0  0  0  0  0
  150.9502  140.2634  157.0656 C   0  0  0  0  0  0  0  0  0  0  0  0
  149.4424  140.0273  156.8887 C   0  0  0  0  0  0  0  0  0  0  0  0
  148.6545  141.3415  157.0046 C   0  0  0  0  0  0  0  0  0  0  0  0
  148.9550  142.0573  158.3387 C   0  0  2  0  0  0  0  0  0  0  0  0
  148.2245  143.3182  158.4382 N   0  0  0  0  0  0  0  0  0  0  0  0
  147.3805  143.6464  159.4259 C   0  0  0  0  0  0  0  0  0  0  0  0
  147.1072  142.9108  160.3745 O   0  0  0  0  0  0  0  0  0  0  0  0
  146.8688  144.8729  159.2585 N   0  0  0  0  0  0  0  0  0  0  0  0
  145.9234  145.4989  160.1730 C   0  0  0  0  0  0  0  0  0  0  0  0
  144.5431  145.6416  159.5175 C   0  0  0  0  0  0  0  0  0  0  0  0
  144.5663  146.6072  158.3421 C   0  0  0  0  0  0  0  0  0  0  0  0
  144.0683  146.1761  157.0917 C   0  0  0  0  0  0  0  0  0  0  0  0
  144.0907  147.0571  155.9925 C   0  0  0  0  0  0  0  0  0  0  0  0
  144.5867  148.3033  156.1426 N   0  3  0  0  0  0  0  0  0  0  0  0
  145.0743  148.7594  157.3163 C   0  0  0  0  0  0  0  0  0  0  0  0
  145.0823  147.9251  158.4560 C   0  0  0  0  0  0  0  0  0  0  0  0
  145.6401  148.4587  159.7635 C   0  0  0  0  0  0  0  0  0  0  0  0
  151.9947  144.9530  157.2157 H   0  0  0  0  0  0  0  0  0  0  0  0
  152.6900  143.8599  158.4041 H   0  0  0  0  0  0  0  0  0  0  0  0
  151.2716  144.8384  158.8173 H   0  0  0  0  0  0  0  0  0  0  0  0
  150.6289  142.7269  159.5129 H   0  0  0  0  0  0  0  0  0  0  0  0
  152.3224  141.1457  158.4930 H   0  0  0  0  0  0  0  0  0  0  0  0
  150.9740  140.3252  159.2195 H   0  0  0  0  0  0  0  0  0  0  0  0
  151.3281  140.8581  156.2330 H   0  0  0  0  0  0  0  0  0  0  0  0
  151.4805  139.3115  157.0300 H   0  0  0  0  0  0  0  0  0  0  0  0
  149.2492  139.5613  155.9220 H   0  0  0  0  0  0  0  0  0  0  0  0
  149.0919  139.3245  157.6458 H   0  0  0  0  0  0  0  0  0  0  0  0
  148.9070  141.9929  156.1667 H   0  0  0  0  0  0  0  0  0  0  0  0
  147.5877  141.1316  156.9199 H   0  0  0  0  0  0  0  0  0  0  0  0
  148.6304  141.4082  159.1547 H   0  0  0  0  0  0  0  0  0  0  0  0
  148.3797  143.9875  157.6985 H   0  0  0  0  0  0  0  0  0  0  0  0
  147.1483  145.4033  158.4461 H   0  0  0  0  0  0  0  0  0  0  0  0
  145.8553  144.8939  161.0780 H   0  0  0  0  0  0  0  0  0  0  0  0
  146.2905  146.4828  160.4711 H   0  0  0  0  0  0  0  0  0  0  0  0
  144.2058  144.6675  159.1600 H   0  0  0  0  0  0  0  0  0  0  0  0
  143.8036  145.9570  160.2535 H   0  0  0  0  0  0  0  0  0  0  0  0
  143.6750  145.1766  156.9735 H   0  0  0  0  0  0  0  0  0  0  0  0
  143.7310  146.8040  155.0058 H   0  0  0  0  0  0  0  0  0  0  0  0
  145.4433  149.7749  157.3059 H   0  0  0  0  0  0  0  0  0  0  0  0
  146.1060  149.4348  159.6242 H   0  0  0  0  0  0  0  0  0  0  0  0
  146.3954  147.7841  160.1669 H   0  0  0  0  0  0  0  0  0  0  0  0
  144.8438  148.5696  160.4999 H   0  0  0  0  0  0  0  0  0  0  0  0
  144.5947  148.9270  155.3349 H   0  0  0  0  0  0  0  0  0  0  0  0
  1  2  1  0  0  0  0
  1 22  1  0  0  0  0
  1 23  1  0  0  0  0
  1 24  1  0  0  0  0
  2  3  1  0  0  0  0
  3  8  1  0  0  0  0
  3  4  1  0  0  0  0
  3 25  1  0  0  0  0
  4  5  1  0  0  0  0
  4 26  1  0  0  0  0
  4 27  1  0  0  0  0
  5  6  1  0  0  0  0
  5 28  1  0  0  0  0
  5 29  1  0  0  0  0
  6  7  1  0  0  0  0
  6 30  1  0  0  0  0
  6 31  1  0  0  0  0
  7  8  1  0  0  0  0
  7 32  1  0  0  0  0
  7 33  1  0  0  0  0
  8  9  1  0  0  0  0
  8 34  1  0  0  0  0
  9 10  1  0  0  0  0
  9 35  1  0  0  0  0
 10 11  2  0  0  0  0
 10 12  1  0  0  0  0
 12 13  1  0  0  0  0
 12 36  1  0  0  0  0
 13 14  1  0  0  0  0
 13 37  1  0  0  0  0
 13 38  1  0  0  0  0
 14 15  1  0  0  0  0
 14 39  1  0  0  0  0
 14 40  1  0  0  0  0
 15 20  1  0  0  0  0
 15 16  2  0  0  0  0
 16 17  1  0  0  0  0
 16 41  1  0  0  0  0
 17 18  2  0  0  0  0
 17 42  1  0  0  0  0
 18 19  1  0  0  0  0
 18 47  1  0  0  0  0
 19 20  2  0  0  0  0
 19 43  1  0  0  0  0
 20 21  1  0  0  0  0
 21 44  1  0  0  0  0
 21 45  1  0  0  0  0
 21 46  1  0  0  0  0
M  CHG  1  18   1
M  END
> <s_m_source_file>
AV-unprocessed.smi

> <i_m_source_file_index>
2442

> <i_lp_mmshare_version>
43012

> <i_f3d_flags>
0

> <s_epik_input>
W0NIM11PW0NAQEhdMVtDSDJdW0NIMl1bQ0gyXVtDSDJdW0NASF0xW05IXUMoPU8pW05IXVtDSDJdW0NIMl1jMltjSF1bY0hdbltjSF1jMltDSDNd

> <s_epik_cmdline>
J2VwaWtfcHl0aG9uJywgJy1waCcsICc3LjAnLCAnLXRuJywgJzgnLCAnLW1hJywgJzIwMCcsICctbWV0YWxfYmluZGluZycsICctaW1hZScsICc8aW5maWxlLm1hZT4nLCAnLW9tYWUnLCAnPG91dGZpbGUubWFlPic=

> <r_epik_Ionization_Penalty>
1.07145

> <r_epik_Ionization_Penalty_Charging>
1.0714

> <r_epik_Ionization_Penalty_Neutral>
4.9109e-05

> <r_epik_State_Penalty>
1.12601

> <r_epik_Charging_Adjusted_Penalty>
2.19741

> <i_epik_Tot_Q>
1

> <i_epik_Tot_abs_Q>
1

> <r_epik_Metal_State_Penalty>
1.2173

> <b_epik_Metal_Only>
0

> <s_lp_Force_Field>
OPLS_2005

> <r_lp_Energy>
16.8817

> <b_lp_Chiralities_Consistent>
1

> <s_lp_Variant>
AV-unprocessed.smi:2442-7

> <Gold.Version>
5.8.1

> <Gold.Id.Protein>
6NUR|6NUR_protein|mol2

> <Gold.PLP.Fitness>
43.9147

> <Gold.PLP.PLP>
-37.1135

> <Gold.PLP.part.hbond>
-5.4214

> <Gold.PLP.part.metal>
0.0000

> <Gold.PLP.part.buried>
-6.9589

> <Gold.PLP.part.nonpolar>
-27.3406

> <Gold.PLP.part.repulsive>
0.7878

> <Gold.PLP.ligand.clash>
0.0000

> <Gold.PLP.ligand.torsion>
0.7440

> <Gold.PLP.Chemscore.Hbond>
2.7534

> <Gold.PLP.Chemscore.CHOScore>
0.0000

> <Gold.PLP.Chemscore.Metal>
0.0000

> <Gold.Chemscore.Hbonds>
donor molecule, donor type, donor heavy atom, donor atom, acceptor molecule, acceptor atom, score
      L1  H     9    35       P1  8029  0.23
      L1  H    12    36       P1  8029  0.84
      P1  H  6933  6944       L1    11  0.96
      P1  H  6934  6946       L1    11  0.70

> <Gold.PLP.Chemscore.Internal.Correction>
0.0289

> <Gold.Rescore>
     Score         DG    S(hbond)    S(metal)    S(lipo)     H(rot)  DE(clash)    DE(int)     intcor
     18.32     -19.26       2.48        0.00      84.63       1.72       0.20       0.74       ----

> <Gold.Chemscore.Fitness>
18.3196

> <Gold.Chemscore.DG>
-19.2636

> <Gold.Chemscore.ZeroCoef>
-5.4800

> <Gold.Chemscore.Hbond>
2.4840

> <Gold.Chemscore.Metal>
0.0000

> <Gold.Chemscore.Lipo>
84.6294

> <Gold.Chemscore.Internal_Hbond>
0.0000

> <Gold.Chemscore.DEClash>
0.2038

> <Gold.Chemscore.DEInternal>
0.7402

> <Gold.Chemscore.Rot>
1.7244

> <Gold.Chemscore.Internal.Correction>
   9.000000E+99

> <Gold.Chemscore.Hbonds>
donor molecule, donor type, donor heavy atom, donor atom, acceptor molecule, acceptor atom, score
      L1  H    12    36       P1  8029  0.82
      P1  H  6933  6944       L1    11  0.88
      P1  H  6934  6946       L1    11  0.66

> <Gold.Chemscore.Hbond.Weighted>
-8.2964

> <Gold.Chemscore.Metal.Weighted>
-0.0000

> <Gold.Chemscore.Lipo.Weighted>
-9.9016

> <Gold.Chemscore.Internal_Hbond.Weighted>
0.0000

> <Gold.Chemscore.DEClash.Weighted>
0.2038

> <Gold.Chemscore.DEInternal.Weighted>
0.7402

> <Gold.Chemscore.Rot.Weighted>
4.4145

> <Gold.Chemscore.Internal.Correction.Weighted>
   9.000000E+99

> <Gold.Protein.RotatedTorsions>
[ 6907 6896 6895 6894 ] final  -91.61 input  -60.11 | X-H torsion
[ 7974 7965 7964 7962 ] final   87.73 input  175.53 | X-H torsion
[ 8008 7997 7996 7995 ] final -140.90 input   59.86 | X-H torsion
[ 10167 10162 10161 10158 ] final  176.22 input  -65.29 | X-H torsion
[ 10718 10713 10712 10709 ] final    6.77 input   66.30 | X-H torsion
[ 10763 10752 10751 10750 ] final   -9.46 input  -60.55 | X-H torsion
[ 11005 11000 10999 10996 ] final -135.69 input  -57.11 | X-H torsion

> <Gold.Protein.ActiveResidues>
 VAL166  LYS551  ARG553  GLY616  TRP617  ASP618  TYR619  PRO620  LYS621  CYS622 
 ASP623  PHE694  ASN695  SER759  ASP760  ASP761  ALA762  ILE779  LEU786  VAL792 
 PHE793  MET794  SER795  GLU796  ALA797  LYS798  CYS799  TRP800  GLU811  SER814 

> <Gold.Protein.RotatedAtoms>
  150.6895  134.2251  159.4411 H   0  0  0  0  0  0  0  0  0  0  0  0  # atno 6907 bound_to 6896
  152.0205  134.9823  160.0580 H   0  0  0  0  0  0  0  0  0  0  0  0  # atno 6908 bound_to 6896
  152.1402  133.4424  159.4800 H   0  0  0  0  0  0  0  0  0  0  0  0  # atno 6909 bound_to 6896
  145.5550  139.2299  143.2491 H   0  0  0  0  0  0  0  0  0  0  0  0  # atno 7974 bound_to 7965
  155.4690  140.0551  157.2982 H   0  0  0  0  0  0  0  0  0  0  0  0  # atno 8008 bound_to 7997
  154.4706  140.2038  155.9958 H   0  0  0  0  0  0  0  0  0  0  0  0  # atno 8009 bound_to 7997
  156.1049  140.3213  155.7997 H   0  0  0  0  0  0  0  0  0  0  0  0  # atno 8010 bound_to 7997
  139.5206  144.2941  152.0437 H   0  0  0  0  0  0  0  0  0  0  0  0  # atno 10167 bound_to 10162
  156.9270  130.5812  149.5649 H   0  0  0  0  0  0  0  0  0  0  0  0  # atno 10718 bound_to 10713
  153.4550  135.7015  153.6085 H   0  0  0  0  0  0  0  0  0  0  0  0  # atno 10763 bound_to 10752
  153.4403  135.3781  155.2224 H   0  0  0  0  0  0  0  0  0  0  0  0  # atno 10764 bound_to 10752
  154.8728  135.3972  154.3968 H   0  0  0  0  0  0  0  0  0  0  0  0  # atno 10765 bound_to 10752
  140.8875  134.1854  157.4550 H   0  0  0  0  0  0  0  0  0  0  0  0  # atno 11005 bound_to 11000
  146.1890  140.6374  142.9154 LP  0  0  0  0  0  0  0  0  0  0  0  0  # atno 17320 bound_to 7965
  144.7510  140.5191  143.6802 LP  0  0  0  0  0  0  0  0  0  0  0  0  # atno 17321 bound_to 7965
  140.2391  144.4288  150.6267 LP  0  0  0  0  0  0  0  0  0  0  0  0  # atno 17342 bound_to 10162
  140.6303  143.2186  151.6510 LP  0  0  0  0  0  0  0  0  0  0  0  0  # atno 17343 bound_to 10162
  156.0464  130.5540  150.8891 LP  0  0  0  0  0  0  0  0  0  0  0  0  # atno 17370 bound_to 10713
  157.5871  131.0945  150.9178 LP  0  0  0  0  0  0  0  0  0  0  0  0  # atno 17371 bound_to 10713
  139.8726  134.9844  156.5238 LP  0  0  0  0  0  0  0  0  0  0  0  0  # atno 17394 bound_to 11000
  140.8387  133.8222  155.9054 LP  0  0  0  0  0  0  0  0  0  0  0  0  # atno 17395 bound_to 11000

$$$$
