AV-unprocessed.smi:1233|AV-procd|sdf|5172|dock2
  -GOLD-   22720 4243D 1   1.00000     0.00000
 Structure written by MMmdl.
 38 39  0  0  0  0  0  0  0  0  1 V2000
  151.0108  138.5737  154.8633 C   0  0  0  0  0  0  0  0  0  0  0  0
  149.7317  138.3593  154.2762 O   0  0  0  0  0  0  0  0  0  0  0  0
  148.8638  139.4302  154.1740 C   0  0  0  0  0  0  0  0  0  0  0  0
  149.2293  140.6096  154.7366 N   0  0  0  0  0  0  0  0  0  0  0  0
  148.3860  141.6570  154.6393 C   0  0  0  0  0  0  0  0  0  0  0  0
  147.1451  141.5864  153.9813 C   0  0  0  0  0  0  0  0  0  0  0  0
  146.7635  140.3648  153.3963 C   0  0  0  0  0  0  0  0  0  0  0  0
  147.6372  139.2527  153.4902 C   0  0  0  0  0  0  0  0  0  0  0  0
  147.3690  137.9650  152.9428 N   0  0  0  0  0  0  0  0  0  0  0  0
  146.1950  137.3635  152.6830 C   0  0  0  0  0  0  0  0  0  0  0  0
  145.0799  137.8433  152.8821 O   0  0  0  0  0  0  0  0  0  0  0  0
  146.3891  136.1421  152.1651 N   0  0  0  0  0  0  0  0  0  0  0  0
  145.3398  135.1904  151.7944 C   0  0  1  0  0  0  0  0  0  0  0  0
  145.9071  134.1146  150.8409 C   0  0  0  0  0  0  0  0  0  0  0  0
  144.8417  133.4217  149.9761 C   0  0  0  0  0  0  0  0  0  0  0  0
  143.7937  132.6200  150.7624 C   0  0  0  0  0  0  0  0  0  0  0  0
  142.8975  133.4888  151.6619 C   0  0  0  0  0  0  0  0  0  0  0  0
  143.5516  133.8680  152.9080 N   0  0  0  0  0  0  0  0  0  0  0  0
  144.6525  134.6219  153.0503 C   0  0  0  0  0  0  0  0  0  0  0  0
  145.1120  134.8498  154.1693 O   0  0  0  0  0  0  0  0  0  0  0  0
  151.5678  137.6369  154.8656 H   0  0  0  0  0  0  0  0  0  0  0  0
  150.9251  138.9098  155.8975 H   0  0  0  0  0  0  0  0  0  0  0  0
  151.5925  139.3022  154.2963 H   0  0  0  0  0  0  0  0  0  0  0  0
  148.7102  142.5788  155.0994 H   0  0  0  0  0  0  0  0  0  0  0  0
  146.5000  142.4508  153.9262 H   0  0  0  0  0  0  0  0  0  0  0  0
  145.8119  140.3186  152.8930 H   0  0  0  0  0  0  0  0  0  0  0  0
  148.1917  137.4240  152.7199 H   0  0  0  0  0  0  0  0  0  0  0  0
  147.3400  135.8259  152.0408 H   0  0  0  0  0  0  0  0  0  0  0  0
  144.5749  135.7570  151.2598 H   0  0  0  0  0  0  0  0  0  0  0  0
  146.6273  134.5716  150.1609 H   0  0  0  0  0  0  0  0  0  0  0  0
  146.4697  133.3708  151.4072 H   0  0  0  0  0  0  0  0  0  0  0  0
  144.3403  134.1631  149.3527 H   0  0  0  0  0  0  0  0  0  0  0  0
  145.3456  132.7460  149.2842 H   0  0  0  0  0  0  0  0  0  0  0  0
  143.1573  132.1047  150.0421 H   0  0  0  0  0  0  0  0  0  0  0  0
  144.2752  131.8360  151.3481 H   0  0  0  0  0  0  0  0  0  0  0  0
  142.5457  134.3748  151.1317 H   0  0  0  0  0  0  0  0  0  0  0  0
  142.0066  132.9211  151.9316 H   0  0  0  0  0  0  0  0  0  0  0  0
  143.1298  133.5143  153.7544 H   0  0  0  0  0  0  0  0  0  0  0  0
  1  2  1  0  0  0  0
  1 21  1  0  0  0  0
  1 22  1  0  0  0  0
  1 23  1  0  0  0  0
  2  3  1  0  0  0  0
  3  8  1  0  0  0  0
  3  4  2  0  0  0  0
  4  5  1  0  0  0  0
  5  6  2  0  0  0  0
  5 24  1  0  0  0  0
  6  7  1  0  0  0  0
  6 25  1  0  0  0  0
  7  8  2  0  0  0  0
  7 26  1  0  0  0  0
  8  9  1  0  0  0  0
  9 10  1  0  0  0  0
  9 27  1  0  0  0  0
 10 11  2  0  0  0  0
 10 12  1  0  0  0  0
 12 13  1  0  0  0  0
 12 28  1  0  0  0  0
 13 19  1  0  0  0  0
 13 14  1  0  0  0  0
 13 29  1  0  0  0  0
 14 15  1  0  0  0  0
 14 30  1  0  0  0  0
 14 31  1  0  0  0  0
 15 16  1  0  0  0  0
 15 32  1  0  0  0  0
 15 33  1  0  0  0  0
 16 17  1  0  0  0  0
 16 34  1  0  0  0  0
 16 35  1  0  0  0  0
 17 18  1  0  0  0  0
 17 36  1  0  0  0  0
 17 37  1  0  0  0  0
 18 19  1  0  0  0  0
 18 38  1  0  0  0  0
 19 20  2  0  0  0  0
M  END
> <s_m_source_file>
AV-unprocessed.smi

> <i_m_source_file_index>
1233

> <i_lp_mmshare_version>
43012

> <i_f3d_flags>
0

> <s_epik_input>
W0NIM11PYzFuW2NIXVtjSF1bY0hdYzFbTkhdQyg9TylbTkhdW0NAQEhdMltDSDJdW0NIMl1bQ0gyXVtDSDJdW05IXUMyPU8=

> <s_epik_cmdline>
J2VwaWtfcHl0aG9uJywgJy1waCcsICc3LjAnLCAnLXRuJywgJzgnLCAnLW1hJywgJzIwMCcsICctbWV0YWxfYmluZGluZycsICctaW1hZScsICc8aW5maWxlLm1hZT4nLCAnLW9tYWUnLCAnPG91dGZpbGUubWFlPic=

> <r_lp_tautomer_probability>
1

> <r_epik_Ionization_Penalty>
8.308e-05

> <r_epik_Ionization_Penalty_Charging>
0

> <r_epik_Ionization_Penalty_Neutral>
8.308e-05

> <r_epik_State_Penalty>
-0

> <r_epik_Charging_Adjusted_Penalty>
0

> <i_epik_Tot_Q>
0

> <i_epik_Tot_abs_Q>
0

> <r_epik_Metal_State_Penalty>
-0

> <b_epik_Metal_Only>
0

> <s_lp_Force_Field>
OPLS_2005

> <r_lp_Energy>
13.1294

> <b_lp_Chiralities_Consistent>
1

> <s_lp_Variant>
AV-unprocessed.smi:1233-2

> <Gold.Version>
5.8.1

> <Gold.Id.Protein>
6NUR|6NUR_protein|mol2

> <Gold.PLP.Fitness>
40.9034

> <Gold.PLP.PLP>
-29.8904

> <Gold.PLP.part.hbond>
-3.0000

> <Gold.PLP.part.metal>
0.0000

> <Gold.PLP.part.buried>
0.7364

> <Gold.PLP.part.nonpolar>
-28.0408

> <Gold.PLP.part.repulsive>
1.3574

> <Gold.PLP.ligand.clash>
0.0000

> <Gold.PLP.ligand.torsion>
0.3511

> <Gold.PLP.Chemscore.Hbond>
2.8960

> <Gold.PLP.Chemscore.CHOScore>
1.0000

> <Gold.PLP.Chemscore.Metal>
0.0000

> <Gold.Chemscore.Hbonds>
donor molecule, donor type, donor heavy atom, donor atom, acceptor molecule, acceptor atom, score
      L1  H     9    27       P1  7948  1.00
      L1  H    12    28       P1  7948  0.98
      L1  H    18    38       P1 10957  0.76
      L1  C     5    24       P1  8028  1.00

> <Gold.PLP.Chemscore.Internal.Correction>
0.0272

> <Gold.Rescore>
     Score         DG    S(hbond)    S(metal)    S(lipo)     H(rot)  DE(clash)    DE(int)     intcor
     19.10     -19.80       2.90        0.00      68.36       1.31       0.30       0.40       ----

> <Gold.Chemscore.Fitness>
19.1025

> <Gold.Chemscore.DG>
-19.8004

> <Gold.Chemscore.ZeroCoef>
-5.4800

> <Gold.Chemscore.Hbond>
2.8961

> <Gold.Chemscore.Metal>
0.0000

> <Gold.Chemscore.Lipo>
68.3627

> <Gold.Chemscore.Internal_Hbond>
0.0000

> <Gold.Chemscore.DEClash>
0.2972

> <Gold.Chemscore.DEInternal>
0.4007

> <Gold.Chemscore.Rot>
1.3090

> <Gold.Chemscore.Internal.Correction>
   9.000000E+99

> <Gold.Chemscore.Hbonds>
donor molecule, donor type, donor heavy atom, donor atom, acceptor molecule, acceptor atom, score
      L1  H     9    27       P1  7948  0.95
      L1  H    12    28       P1  7948  0.93
      L1  H    18    38       P1 10957  0.73

> <Gold.Chemscore.Hbond.Weighted>
-9.6729

> <Gold.Chemscore.Metal.Weighted>
-0.0000

> <Gold.Chemscore.Lipo.Weighted>
-7.9984

> <Gold.Chemscore.Internal_Hbond.Weighted>
0.0000

> <Gold.Chemscore.DEClash.Weighted>
0.2972

> <Gold.Chemscore.DEInternal.Weighted>
0.4007

> <Gold.Chemscore.Rot.Weighted>
3.3509

> <Gold.Chemscore.Internal.Correction.Weighted>
   9.000000E+99

> <Gold.Protein.RotatedTorsions>
[ 6907 6896 6895 6894 ] final  -31.80 input  -60.11 | X-H torsion
[ 7974 7965 7964 7962 ] final   81.90 input  175.53 | X-H torsion
[ 8008 7997 7996 7995 ] final  -46.66 input   59.86 | X-H torsion
[ 10167 10162 10161 10158 ] final   75.81 input  -65.29 | X-H torsion
[ 10718 10713 10712 10709 ] final   -6.38 input   66.30 | X-H torsion
[ 10763 10752 10751 10750 ] final  152.43 input  -60.55 | X-H torsion
[ 11005 11000 10999 10996 ] final  132.69 input  -57.11 | X-H torsion

> <Gold.Protein.ActiveResidues>
 VAL166  LYS551  ARG553  GLY616  TRP617  ASP618  TYR619  PRO620  LYS621  CYS622 
 ASP623  PHE694  ASN695  SER759  ASP760  ASP761  ALA762  ILE779  LEU786  VAL792 
 PHE793  MET794  SER795  GLU796  ALA797  LYS798  CYS799  TRP800  GLU811  SER814 

> <Gold.Protein.RotatedAtoms>
  151.0872  134.9894  159.8384 H   0  0  0  0  0  0  0  0  0  0  0  0  # atno 6907 bound_to 6896
  152.5425  134.2110  159.8760 H   0  0  0  0  0  0  0  0  0  0  0  0  # atno 6908 bound_to 6896
  151.2144  133.4494  159.2632 H   0  0  0  0  0  0  0  0  0  0  0  0  # atno 6909 bound_to 6896
  145.6321  139.2407  143.2079 H   0  0  0  0  0  0  0  0  0  0  0  0  # atno 7974 bound_to 7965
  154.4009  140.1366  156.4048 H   0  0  0  0  0  0  0  0  0  0  0  0  # atno 8008 bound_to 7997
  155.7790  140.3482  155.5267 H   0  0  0  0  0  0  0  0  0  0  0  0  # atno 8009 bound_to 7997
  155.8692  140.0969  157.1552 H   0  0  0  0  0  0  0  0  0  0  0  0  # atno 8010 bound_to 7997
  139.9990  144.5700  150.7753 H   0  0  0  0  0  0  0  0  0  0  0  0  # atno 10167 bound_to 10162
  156.7327  130.5185  149.5842 H   0  0  0  0  0  0  0  0  0  0  0  0  # atno 10718 bound_to 10713
  154.1199  135.2833  155.3211 H   0  0  0  0  0  0  0  0  0  0  0  0  # atno 10763 bound_to 10752
  154.6430  135.5395  153.7815 H   0  0  0  0  0  0  0  0  0  0  0  0  # atno 10764 bound_to 10752
  153.0316  135.6491  154.1354 H   0  0  0  0  0  0  0  0  0  0  0  0  # atno 10765 bound_to 10752
  139.9805  134.9549  156.9618 H   0  0  0  0  0  0  0  0  0  0  0  0  # atno 11005 bound_to 11000
  146.1349  140.7136  142.9395 LP  0  0  0  0  0  0  0  0  0  0  0  0  # atno 17320 bound_to 7965
  144.7190  140.4308  143.7023 LP  0  0  0  0  0  0  0  0  0  0  0  0  # atno 17321 bound_to 7965
  140.7426  143.2834  151.3532 LP  0  0  0  0  0  0  0  0  0  0  0  0  # atno 17342 bound_to 10162
  139.6285  144.0766  152.2456 LP  0  0  0  0  0  0  0  0  0  0  0  0  # atno 17343 bound_to 10162
  156.1518  130.6315  151.0605 LP  0  0  0  0  0  0  0  0  0  0  0  0  # atno 17370 bound_to 10713
  157.6852  131.0827  150.7262 LP  0  0  0  0  0  0  0  0  0  0  0  0  # atno 17371 bound_to 10713
  140.5106  134.1006  155.7269 LP  0  0  0  0  0  0  0  0  0  0  0  0  # atno 17394 bound_to 11000
  141.1478  133.9024  157.2173 LP  0  0  0  0  0  0  0  0  0  0  0  0  # atno 17395 bound_to 11000

$$$$
