AV-unprocessed.smi:1131|AV-procd|sdf|4851|dock4
  -GOLD-   22720 3423D 1   1.00000     0.00000
 Structure written by MMmdl.
 33 34  0  0  0  0  0  0  0  0  1 V2000
  151.6417  138.7215  158.3361 O   0  0  0  0  0  0  0  0  0  0  0  0
  152.1289  139.5952  157.6172 C   0  0  0  0  0  0  0  0  0  0  0  0
  152.3217  139.3666  156.1109 C   0  0  0  0  0  0  0  0  0  0  0  0
  151.0564  139.2551  155.3703 N   0  0  0  0  0  0  0  0  0  0  0  0
  150.1203  140.2778  155.4278 C   0  0  0  0  0  0  0  0  0  0  0  0
  148.9336  140.2401  154.7767 C   0  0  0  0  0  0  0  0  0  0  0  0
  148.5757  139.0854  153.9600 C   0  0  0  0  0  0  0  0  0  0  0  0
  147.5279  138.9597  153.3302 O   0  0  0  0  0  0  0  0  0  0  0  0
  149.5413  138.0758  153.9305 N   0  0  0  0  0  0  0  0  0  0  0  0
  150.7650  138.1072  154.6013 C   0  0  0  0  0  0  0  0  0  0  0  0
  151.5437  137.1587  154.5117 O   0  0  0  0  0  0  0  0  0  0  0  0
  152.5063  140.7956  158.0789 N   0  0  0  0  0  0  0  0  0  0  0  0
  152.4037  141.2164  159.4697 C   0  0  0  0  0  0  0  0  0  0  0  0
  152.7381  142.7098  159.6177 C   0  0  1  0  0  0  0  0  0  0  0  0
  152.0665  143.5981  158.5912 C   0  0  0  0  0  0  0  0  0  0  0  0
  152.1892  144.9719  159.2423 C   0  0  0  0  0  0  0  0  0  0  0  0
  152.1138  144.7410  160.6460 O   0  0  0  0  0  0  0  0  0  0  0  0
  152.2580  143.3503  160.9220 C   0  0  0  0  0  0  0  0  0  0  0  0
  149.3359  137.2545  153.3806 H   0  0  0  0  0  0  0  0  0  0  0  0
  152.9160  140.1915  155.7151 H   0  0  0  0  0  0  0  0  0  0  0  0
  152.9306  138.4739  155.9541 H   0  0  0  0  0  0  0  0  0  0  0  0
  150.3418  141.1518  156.0237 H   0  0  0  0  0  0  0  0  0  0  0  0
  148.2454  141.0687  154.8610 H   0  0  0  0  0  0  0  0  0  0  0  0
  152.8951  141.4590  157.4243 H   0  0  0  0  0  0  0  0  0  0  0  0
  151.3921  141.0290  159.8334 H   0  0  0  0  0  0  0  0  0  0  0  0
  153.0791  140.6120  160.0775 H   0  0  0  0  0  0  0  0  0  0  0  0
  153.8177  142.8486  159.5367 H   0  0  0  0  0  0  0  0  0  0  0  0
  152.5366  143.5509  157.6086 H   0  0  0  0  0  0  0  0  0  0  0  0
  151.0148  143.3289  158.4813 H   0  0  0  0  0  0  0  0  0  0  0  0
  153.1604  145.4134  159.0155 H   0  0  0  0  0  0  0  0  0  0  0  0
  151.4157  145.6641  158.9084 H   0  0  0  0  0  0  0  0  0  0  0  0
  151.2829  142.9565  161.2113 H   0  0  0  0  0  0  0  0  0  0  0  0
  152.9484  143.1802  161.7484 H   0  0  0  0  0  0  0  0  0  0  0  0
  1  2  2  0  0  0  0
  2  3  1  0  0  0  0
  2 12  1  0  0  0  0
  3  4  1  0  0  0  0
  3 20  1  0  0  0  0
  3 21  1  0  0  0  0
  4 10  1  0  0  0  0
  4  5  1  0  0  0  0
  5  6  2  0  0  0  0
  5 22  1  0  0  0  0
  6  7  1  0  0  0  0
  6 23  1  0  0  0  0
  7  8  2  0  0  0  0
  7  9  1  0  0  0  0
  9 19  1  0  0  0  0
  9 10  1  0  0  0  0
 10 11  2  0  0  0  0
 12 13  1  0  0  0  0
 12 24  1  0  0  0  0
 13 14  1  0  0  0  0
 13 25  1  0  0  0  0
 13 26  1  0  0  0  0
 14 18  1  0  0  0  0
 14 15  1  0  0  0  0
 14 27  1  0  0  0  0
 15 16  1  0  0  0  0
 15 28  1  0  0  0  0
 15 29  1  0  0  0  0
 16 17  1  0  0  0  0
 16 30  1  0  0  0  0
 16 31  1  0  0  0  0
 17 18  1  0  0  0  0
 18 32  1  0  0  0  0
 18 33  1  0  0  0  0
M  END
> <s_m_source_file>
AV-unprocessed.smi

> <i_m_source_file_index>
1131

> <i_lp_mmshare_version>
43012

> <i_f3d_flags>
0

> <s_epik_input>
W0NIMl0xT1tDSDJdW0NIMl1bQ0BIXTFbQ0gyXVtOSF1DKD1PKVtDSDJdbjJbY0hdW2NIXWMoPU8pW25IXWMyPU8=

> <s_epik_cmdline>
J2VwaWtfcHl0aG9uJywgJy1waCcsICc3LjAnLCAnLXRuJywgJzgnLCAnLW1hJywgJzIwMCcsICctbWV0YWxfYmluZGluZycsICctaW1hZScsICc8aW5maWxlLm1hZT4nLCAnLW9tYWUnLCAnPG91dGZpbGUubWFlPic=

> <r_lp_tautomer_probability>
0.999537

> <r_epik_Ionization_Penalty>
0.00329016

> <r_epik_Ionization_Penalty_Charging>
0.00329014

> <r_epik_Ionization_Penalty_Neutral>
1.87063e-08

> <r_epik_State_Penalty>
0.00232461

> <r_epik_Charging_Adjusted_Penalty>
0.00561475

> <i_epik_Tot_Q>
0

> <i_epik_Tot_abs_Q>
0

> <r_epik_Metal_State_Penalty>
0.365289

> <b_epik_Metal_Only>
0

> <s_lp_Force_Field>
OPLS_2005

> <r_lp_Energy>
18.0195

> <b_lp_Chiralities_Consistent>
1

> <s_lp_Variant>
AV-unprocessed.smi:1131-2

> <Gold.Version>
5.8.1

> <Gold.Id.Protein>
6NUR|6NUR_protein|mol2

> <Gold.PLP.Fitness>
42.2444

> <Gold.PLP.PLP>
-36.6704

> <Gold.PLP.part.hbond>
-2.2475

> <Gold.PLP.part.metal>
0.0000

> <Gold.PLP.part.buried>
-2.1445

> <Gold.PLP.part.nonpolar>
-33.2047

> <Gold.PLP.part.repulsive>
1.6286

> <Gold.PLP.ligand.clash>
0.0000

> <Gold.PLP.ligand.torsion>
0.2197

> <Gold.PLP.Chemscore.Hbond>
2.0000

> <Gold.PLP.Chemscore.CHOScore>
0.0000

> <Gold.PLP.Chemscore.Metal>
0.0000

> <Gold.Chemscore.Hbonds>
donor molecule, donor type, donor heavy atom, donor atom, acceptor molecule, acceptor atom, score
      L1  H     9    19       P1  7948  1.00
      P1  H 10752 10763       L1    11  0.89

> <Gold.PLP.Chemscore.Internal.Correction>
0.0134

> <Gold.Rescore>
     Score         DG    S(hbond)    S(metal)    S(lipo)     H(rot)  DE(clash)    DE(int)     intcor
     15.09     -15.26       1.87        0.00      76.05       2.09       0.00       0.16       ----

> <Gold.Chemscore.Fitness>
15.0938

> <Gold.Chemscore.DG>
-15.2564

> <Gold.Chemscore.ZeroCoef>
-5.4800

> <Gold.Chemscore.Hbond>
1.8666

> <Gold.Chemscore.Metal>
0.0000

> <Gold.Chemscore.Lipo>
76.0453

> <Gold.Chemscore.Internal_Hbond>
0.0000

> <Gold.Chemscore.DEClash>
0.0029

> <Gold.Chemscore.DEInternal>
0.1597

> <Gold.Chemscore.Rot>
2.0919

> <Gold.Chemscore.Internal.Correction>
   9.000000E+99

> <Gold.Chemscore.Hbonds>
donor molecule, donor type, donor heavy atom, donor atom, acceptor molecule, acceptor atom, score
      L1  H     9    19       P1  7948  0.96
      P1  H 10752 10763       L1    11  0.85

> <Gold.Chemscore.Hbond.Weighted>
-6.2344

> <Gold.Chemscore.Metal.Weighted>
-0.0000

> <Gold.Chemscore.Lipo.Weighted>
-8.8973

> <Gold.Chemscore.Internal_Hbond.Weighted>
0.0000

> <Gold.Chemscore.DEClash.Weighted>
0.0029

> <Gold.Chemscore.DEInternal.Weighted>
0.1597

> <Gold.Chemscore.Rot.Weighted>
5.3552

> <Gold.Chemscore.Internal.Correction.Weighted>
   9.000000E+99

> <Gold.Protein.RotatedTorsions>
[ 6907 6896 6895 6894 ] final  -53.46 input  -60.11 | X-H torsion
[ 7974 7965 7964 7962 ] final -151.36 input  175.53 | X-H torsion
[ 8008 7997 7996 7995 ] final  -17.82 input   59.86 | X-H torsion
[ 10167 10162 10161 10158 ] final  -81.71 input  -65.29 | X-H torsion
[ 10718 10713 10712 10709 ] final -174.51 input   66.30 | X-H torsion
[ 10763 10752 10751 10750 ] final   36.11 input  -60.55 | X-H torsion
[ 11005 11000 10999 10996 ] final  -31.41 input  -57.11 | X-H torsion

> <Gold.Protein.ActiveResidues>
 VAL166  LYS551  ARG553  GLY616  TRP617  ASP618  TYR619  PRO620  LYS621  CYS622 
 ASP623  PHE694  ASN695  SER759  ASP760  ASP761  ALA762  ILE779  LEU786  VAL792 
 PHE793  MET794  SER795  GLU796  ALA797  LYS798  CYS799  TRP800  GLU811  SER814 

> <Gold.Protein.RotatedAtoms>
  150.8425  134.7722  159.6943 H   0  0  0  0  0  0  0  0  0  0  0  0  # atno 6907 bound_to 6896
  152.4509  134.5392  159.9844 H   0  0  0  0  0  0  0  0  0  0  0  0  # atno 6908 bound_to 6896
  151.5529  133.3377  159.2992 H   0  0  0  0  0  0  0  0  0  0  0  0  # atno 6909 bound_to 6896
  144.7854  140.4808  143.5809 H   0  0  0  0  0  0  0  0  0  0  0  0  # atno 7974 bound_to 7965
  154.4951  140.2132  155.9465 H   0  0  0  0  0  0  0  0  0  0  0  0  # atno 8008 bound_to 7997
  156.1358  140.3188  155.8387 H   0  0  0  0  0  0  0  0  0  0  0  0  # atno 8009 bound_to 7997
  155.4211  140.0497  157.3016 H   0  0  0  0  0  0  0  0  0  0  0  0  # atno 8010 bound_to 7997
  140.4386  143.2522  151.8657 H   0  0  0  0  0  0  0  0  0  0  0  0  # atno 10167 bound_to 10162
  156.7861  130.9501  151.3120 H   0  0  0  0  0  0  0  0  0  0  0  0  # atno 10718 bound_to 10713
  153.0090  135.6314  154.1934 H   0  0  0  0  0  0  0  0  0  0  0  0  # atno 10763 bound_to 10752
  154.1677  135.2820  155.3092 H   0  0  0  0  0  0  0  0  0  0  0  0  # atno 10764 bound_to 10752
  154.5933  135.5611  153.7360 H   0  0  0  0  0  0  0  0  0  0  0  0  # atno 10765 bound_to 10752
  140.9466  133.7246  156.1156 H   0  0  0  0  0  0  0  0  0  0  0  0  # atno 11005 bound_to 11000
  145.5935  139.1497  143.3169 LP  0  0  0  0  0  0  0  0  0  0  0  0  # atno 17320 bound_to 7965
  146.2084  140.6059  142.9071 LP  0  0  0  0  0  0  0  0  0  0  0  0  # atno 17321 bound_to 7965
  139.4788  144.5254  151.8742 LP  0  0  0  0  0  0  0  0  0  0  0  0  # atno 17342 bound_to 10162
  140.4344  144.2072  150.5889 LP  0  0  0  0  0  0  0  0  0  0  0  0  # atno 17343 bound_to 10162
  157.6623  130.8977  149.9856 LP  0  0  0  0  0  0  0  0  0  0  0  0  # atno 17370 bound_to 10713
  156.1187  130.3647  149.9923 LP  0  0  0  0  0  0  0  0  0  0  0  0  # atno 17371 bound_to 10713
  140.7661  134.3885  157.5517 LP  0  0  0  0  0  0  0  0  0  0  0  0  # atno 17394 bound_to 11000
  139.8835  134.8992  156.2762 LP  0  0  0  0  0  0  0  0  0  0  0  0  # atno 17395 bound_to 11000

$$$$
