AV-unprocessed.smi:2093|AV-procd|sdf|8546|dock7
  -GOLD-   2272011273D 1   1.00000     0.00000
 Structure written by MMmdl.
 31 32  0  0  0  0  0  0  0  0  1 V2000
  154.4355  140.3127  160.7918 C   0  0  0  0  0  0  0  0  0  0  0  0
  153.2283  140.9786  160.1150 C   0  0  2  0  0  0  0  0  0  0  0  0
  153.2071  140.6057  158.7012 N   0  0  0  0  0  0  0  0  0  0  0  0
  152.3055  139.8085  158.1089 C   0  0  0  0  0  0  0  0  0  0  0  0
  151.3684  139.2757  158.7039 O   0  0  0  0  0  0  0  0  0  0  0  0
  152.5640  139.6802  156.7956 N   0  0  0  0  0  0  0  0  0  0  0  0
  151.8429  138.9345  155.8263 C   0  0  0  0  0  0  0  0  0  0  0  0
  151.3072  139.4563  154.7165 N   0  0  0  0  0  0  0  0  0  0  0  0
  150.6569  138.4906  153.9440 C   0  0  0  0  0  0  0  0  0  0  0  0
  150.7075  137.2296  154.4845 C   0  0  0  0  0  0  0  0  0  0  0  0
  151.5773  137.2052  155.9953 S   0  0  0  0  0  0  0  0  0  0  0  0
  153.2624  142.5132  160.2539 C   0  0  1  0  0  0  0  0  0  0  0  0
  152.2878  143.2593  159.3392 C   0  0  0  0  0  0  0  0  0  0  0  0
  152.0868  144.5519  160.0954 C   0  0  0  0  0  0  0  0  0  0  0  0
  152.0588  144.0608  161.5388 C   0  0  0  0  0  0  0  0  0  0  0  0
  152.8949  142.9070  161.5750 O   0  0  0  0  0  0  0  0  0  0  0  0
  154.4654  140.5415  161.8574 H   0  0  0  0  0  0  0  0  0  0  0  0
  155.3748  140.6512  160.3532 H   0  0  0  0  0  0  0  0  0  0  0  0
  154.3920  139.2277  160.6923 H   0  0  0  0  0  0  0  0  0  0  0  0
  152.3271  140.6168  160.6131 H   0  0  0  0  0  0  0  0  0  0  0  0
  153.9388  140.9958  158.1256 H   0  0  0  0  0  0  0  0  0  0  0  0
  153.3692  140.1785  156.4467 H   0  0  0  0  0  0  0  0  0  0  0  0
  150.1833  138.7889  153.0203 H   0  0  0  0  0  0  0  0  0  0  0  0
  150.2873  136.3176  154.0869 H   0  0  0  0  0  0  0  0  0  0  0  0
  154.2720  142.8844  160.0693 H   0  0  0  0  0  0  0  0  0  0  0  0
  152.6775  143.4097  158.3320 H   0  0  0  0  0  0  0  0  0  0  0  0
  151.3415  142.7211  159.2628 H   0  0  0  0  0  0  0  0  0  0  0  0
  152.9391  145.2143  159.9384 H   0  0  0  0  0  0  0  0  0  0  0  0
  151.1800  145.0842  159.8076 H   0  0  0  0  0  0  0  0  0  0  0  0
  152.3961  144.8208  162.2438 H   0  0  0  0  0  0  0  0  0  0  0  0
  151.0479  143.7624  161.8192 H   0  0  0  0  0  0  0  0  0  0  0  0
  1  2  1  0  0  0  0
  1 17  1  0  0  0  0
  1 18  1  0  0  0  0
  1 19  1  0  0  0  0
  2  3  1  0  0  0  0
  2 12  1  0  0  0  0
  2 20  1  0  0  0  0
  3  4  1  0  0  0  0
  3 21  1  0  0  0  0
  4  5  2  0  0  0  0
  4  6  1  0  0  0  0
  6  7  1  0  0  0  0
  6 22  1  0  0  0  0
  7 11  1  0  0  0  0
  7  8  2  0  0  0  0
  8  9  1  0  0  0  0
  9 10  2  0  0  0  0
  9 23  1  0  0  0  0
 10 11  1  0  0  0  0
 10 24  1  0  0  0  0
 12 16  1  0  0  0  0
 12 13  1  0  0  0  0
 12 25  1  0  0  0  0
 13 14  1  0  0  0  0
 13 26  1  0  0  0  0
 13 27  1  0  0  0  0
 14 15  1  0  0  0  0
 14 28  1  0  0  0  0
 14 29  1  0  0  0  0
 15 16  1  0  0  0  0
 15 30  1  0  0  0  0
 15 31  1  0  0  0  0
M  END
> <s_m_source_file>
AV-unprocessed.smi

> <i_m_source_file_index>
2093

> <i_lp_mmshare_version>
43012

> <i_f3d_flags>
0

> <s_epik_input>
TzFbQ0gyXVtDSDJdW0NIMl1bQ0BIXTFbQ0BIXShbQ0gzXSlbTkhdQyg9TylbTkhdYzJuW2NIXVtjSF1zMg==

> <s_epik_cmdline>
J2VwaWtfcHl0aG9uJywgJy1waCcsICc3LjAnLCAnLXRuJywgJzgnLCAnLW1hJywgJzIwMCcsICctbWV0YWxfYmluZGluZycsICctaW1hZScsICc8aW5maWxlLm1hZT4nLCAnLW9tYWUnLCAnPG91dGZpbGUubWFlPic=

> <r_lp_tautomer_probability>
0.999

> <r_epik_Ionization_Penalty>
0.000334433

> <r_epik_Ionization_Penalty_Charging>
0

> <r_epik_Ionization_Penalty_Neutral>
0.000334433

> <r_epik_State_Penalty>
0.000177984

> <r_epik_Charging_Adjusted_Penalty>
0.000177984

> <i_epik_Tot_Q>
0

> <i_epik_Tot_abs_Q>
0

> <r_epik_Metal_State_Penalty>
0.00767616

> <b_epik_Metal_Only>
0

> <s_lp_Force_Field>
OPLS_2005

> <r_lp_Energy>
15.9736

> <b_lp_Chiralities_Consistent>
1

> <s_lp_Variant>
AV-unprocessed.smi:2093-3

> <Gold.Version>
5.8.1

> <Gold.Id.Protein>
6NUR|6NUR_protein|mol2

> <Gold.PLP.Fitness>
39.3626

> <Gold.PLP.PLP>
-32.2108

> <Gold.PLP.part.hbond>
-1.0000

> <Gold.PLP.part.metal>
0.0000

> <Gold.PLP.part.buried>
-4.1928

> <Gold.PLP.part.nonpolar>
-28.0694

> <Gold.PLP.part.repulsive>
1.0917

> <Gold.PLP.ligand.clash>
0.0000

> <Gold.PLP.ligand.torsion>
0.8238

> <Gold.PLP.Chemscore.Hbond>
1.0000

> <Gold.PLP.Chemscore.CHOScore>
1.9304

> <Gold.PLP.Chemscore.Metal>
0.0000

> <Gold.Chemscore.Hbonds>
donor molecule, donor type, donor heavy atom, donor atom, acceptor molecule, acceptor atom, score
      P1  H  7989  7998       L1     8  1.00
      L1  C     9    23       P1  7957  1.00
      L1  C    10    24       P1  7948  0.60
      L1  C    10    24       P1  7949  0.07

> <Gold.PLP.Chemscore.Internal.Correction>
0.0082

> <Gold.Rescore>
     Score         DG    S(hbond)    S(metal)    S(lipo)     H(rot)  DE(clash)    DE(int)     intcor
     14.30     -15.19       0.93        0.00      84.93       1.29       0.16       0.74       ----

> <Gold.Chemscore.Fitness>
14.2951

> <Gold.Chemscore.DG>
-15.1950

> <Gold.Chemscore.ZeroCoef>
-5.4800

> <Gold.Chemscore.Hbond>
0.9252

> <Gold.Chemscore.Metal>
0.0000

> <Gold.Chemscore.Lipo>
84.9323

> <Gold.Chemscore.Internal_Hbond>
0.0000

> <Gold.Chemscore.DEClash>
0.1600

> <Gold.Chemscore.DEInternal>
0.7399

> <Gold.Chemscore.Rot>
1.2938

> <Gold.Chemscore.Internal.Correction>
   9.000000E+99

> <Gold.Chemscore.Hbonds>
donor molecule, donor type, donor heavy atom, donor atom, acceptor molecule, acceptor atom, score
      P1  H  7989  7998       L1     8  0.45

> <Gold.Chemscore.Hbond.Weighted>
-3.0901

> <Gold.Chemscore.Metal.Weighted>
-0.0000

> <Gold.Chemscore.Lipo.Weighted>
-9.9371

> <Gold.Chemscore.Internal_Hbond.Weighted>
0.0000

> <Gold.Chemscore.DEClash.Weighted>
0.1600

> <Gold.Chemscore.DEInternal.Weighted>
0.7399

> <Gold.Chemscore.Rot.Weighted>
3.3122

> <Gold.Chemscore.Internal.Correction.Weighted>
   9.000000E+99

> <Gold.Protein.RotatedTorsions>
[ 6907 6896 6895 6894 ] final  149.99 input  -60.11 | X-H torsion
[ 7974 7965 7964 7962 ] final  -59.67 input  175.53 | X-H torsion
[ 8008 7997 7996 7995 ] final  120.56 input   59.86 | X-H torsion
[ 10167 10162 10161 10158 ] final -152.96 input  -65.29 | X-H torsion
[ 10718 10713 10712 10709 ] final -168.16 input   66.30 | X-H torsion
[ 10763 10752 10751 10750 ] final   24.73 input  -60.55 | X-H torsion
[ 11005 11000 10999 10996 ] final  143.53 input  -57.11 | X-H torsion

> <Gold.Protein.ActiveResidues>
 VAL166  LYS551  ARG553  GLY616  TRP617  ASP618  TYR619  PRO620  LYS621  CYS622 
 ASP623  PHE694  ASN695  SER759  ASP760  ASP761  ALA762  ILE779  LEU786  VAL792 
 PHE793  MET794  SER795  GLU796  ALA797  LYS798  CYS799  TRP800  GLU811  SER814 

> <Gold.Protein.RotatedAtoms>
  152.1205  133.4350  159.4672 H   0  0  0  0  0  0  0  0  0  0  0  0  # atno 6907 bound_to 6896
  150.6871  134.2541  159.4531 H   0  0  0  0  0  0  0  0  0  0  0  0  # atno 6908 bound_to 6896
  152.0417  134.9707  160.0624 H   0  0  0  0  0  0  0  0  0  0  0  0  # atno 6909 bound_to 6896
  145.8247  140.8518  143.0114 H   0  0  0  0  0  0  0  0  0  0  0  0  # atno 7974 bound_to 7965
  156.2648  140.2828  156.1169 H   0  0  0  0  0  0  0  0  0  0  0  0  # atno 8008 bound_to 7997
  155.1197  140.0392  157.2764 H   0  0  0  0  0  0  0  0  0  0  0  0  # atno 8009 bound_to 7997
  154.6679  140.2581  155.7044 H   0  0  0  0  0  0  0  0  0  0  0  0  # atno 8010 bound_to 7997
  139.7137  143.9067  152.2478 H   0  0  0  0  0  0  0  0  0  0  0  0  # atno 10167 bound_to 10162
  156.6930  130.9166  151.3071 H   0  0  0  0  0  0  0  0  0  0  0  0  # atno 10718 bound_to 10713
  153.0743  135.6599  154.0180 H   0  0  0  0  0  0  0  0  0  0  0  0  # atno 10763 bound_to 10752
  153.9818  135.2954  155.3421 H   0  0  0  0  0  0  0  0  0  0  0  0  # atno 10764 bound_to 10752
  154.7126  135.5198  153.8760 H   0  0  0  0  0  0  0  0  0  0  0  0  # atno 10765 bound_to 10752
  140.0561  134.9230  157.1102 H   0  0  0  0  0  0  0  0  0  0  0  0  # atno 11005 bound_to 11000
  144.6744  140.0585  143.7477 LP  0  0  0  0  0  0  0  0  0  0  0  0  # atno 17320 bound_to 7965
  145.9636  139.2818  143.1141 LP  0  0  0  0  0  0  0  0  0  0  0  0  # atno 17321 bound_to 7965
  139.8943  144.6948  150.8735 LP  0  0  0  0  0  0  0  0  0  0  0  0  # atno 17342 bound_to 10162
  140.7739  143.3562  151.1917 LP  0  0  0  0  0  0  0  0  0  0  0  0  # atno 17343 bound_to 10162
  157.7002  130.9325  150.0762 LP  0  0  0  0  0  0  0  0  0  0  0  0  # atno 17370 bound_to 10713
  156.1784  130.3649  149.9069 LP  0  0  0  0  0  0  0  0  0  0  0  0  # atno 17371 bound_to 10713
  140.3842  134.2254  155.7169 LP  0  0  0  0  0  0  0  0  0  0  0  0  # atno 17394 bound_to 11000
  141.1952  133.8110  157.0723 LP  0  0  0  0  0  0  0  0  0  0  0  0  # atno 17395 bound_to 11000

$$$$
