AV-unprocessed.smi:1190|AV-procd|sdf|4981|dock2
  -GOLD-   22720 3573D 1   1.00000     0.00000
 Structure written by MMmdl.
 43 44  0  0  0  0  0  0  0  0  1 V2000
  146.1615  128.3907  152.4310 C   0  0  0  0  0  0  0  0  0  0  0  0
  145.8296  129.6345  151.8237 O   0  0  0  0  0  0  0  0  0  0  0  0
  146.5048  130.7653  152.2357 C   0  0  0  0  0  0  0  0  0  0  0  0
  146.1625  132.0032  151.6569 C   0  0  0  0  0  0  0  0  0  0  0  0
  146.8509  133.1587  152.0713 C   0  0  0  0  0  0  0  0  0  0  0  0
  147.8652  133.0448  153.0430 C   0  0  0  0  0  0  0  0  0  0  0  0
  148.5316  134.2321  153.4507 N   0  0  0  0  0  0  0  0  0  0  0  0
  149.0796  134.5194  154.6439 C   0  0  0  0  0  0  0  0  0  0  0  0
  149.1155  133.7606  155.6120 O   0  0  0  0  0  0  0  0  0  0  0  0
  149.6041  135.7533  154.6476 N   0  0  0  0  0  0  0  0  0  0  0  0
  150.2822  136.3882  155.7758 C   0  0  0  0  0  0  0  0  0  0  0  0
  151.0490  137.6801  155.3740 C   0  0  1  0  0  0  0  0  0  0  0  0
  151.7940  137.4329  154.0373 C   0  0  0  0  0  0  0  0  0  0  0  0
  150.1838  138.8830  155.3314 N   0  0  0  0  0  0  0  0  0  0  0  0
  150.9457  140.1364  155.3873 C   0  0  0  0  0  0  0  0  0  0  0  0
  150.0501  141.3852  155.3128 C   0  0  0  0  0  0  0  0  0  0  0  0
  149.2675  141.3437  154.1279 O   0  0  0  0  0  0  0  0  0  0  0  0
  148.4508  140.1826  154.0708 C   0  0  0  0  0  0  0  0  0  0  0  0
  149.3336  138.9243  154.1355 C   0  0  0  0  0  0  0  0  0  0  0  0
  148.1259  131.7581  153.5748 C   0  0  0  0  0  0  0  0  0  0  0  0
  147.4679  130.6462  153.1827 N   0  0  0  0  0  0  0  0  0  0  0  0
  145.5507  127.6016  151.9929 H   0  0  0  0  0  0  0  0  0  0  0  0
  145.9638  128.4051  153.5038 H   0  0  0  0  0  0  0  0  0  0  0  0
  147.2077  128.1306  152.2629 H   0  0  0  0  0  0  0  0  0  0  0  0
  145.3861  132.0650  150.9088 H   0  0  0  0  0  0  0  0  0  0  0  0
  146.6035  134.1189  151.6424 H   0  0  0  0  0  0  0  0  0  0  0  0
  148.6488  134.9297  152.7305 H   0  0  0  0  0  0  0  0  0  0  0  0
  149.5280  136.3007  153.8028 H   0  0  0  0  0  0  0  0  0  0  0  0
  149.5902  136.6033  156.5920 H   0  0  0  0  0  0  0  0  0  0  0  0
  150.9634  135.6247  156.1464 H   0  0  0  0  0  0  0  0  0  0  0  0
  151.8130  137.8445  156.1355 H   0  0  0  0  0  0  0  0  0  0  0  0
  152.4101  136.5354  154.0645 H   0  0  0  0  0  0  0  0  0  0  0  0
  152.4849  138.2372  153.7903 H   0  0  0  0  0  0  0  0  0  0  0  0
  151.0920  137.3233  153.2100 H   0  0  0  0  0  0  0  0  0  0  0  0
  151.5044  140.2070  156.3182 H   0  0  0  0  0  0  0  0  0  0  0  0
  151.6737  140.1640  154.5749 H   0  0  0  0  0  0  0  0  0  0  0  0
  149.4000  141.4472  156.1869 H   0  0  0  0  0  0  0  0  0  0  0  0
  150.6606  142.2883  155.3040 H   0  0  0  0  0  0  0  0  0  0  0  0
  147.7308  140.1925  154.8906 H   0  0  0  0  0  0  0  0  0  0  0  0
  147.8791  140.1958  153.1427 H   0  0  0  0  0  0  0  0  0  0  0  0
  149.9533  138.8713  153.2391 H   0  0  0  0  0  0  0  0  0  0  0  0
  148.6640  138.0669  154.1092 H   0  0  0  0  0  0  0  0  0  0  0  0
  148.8599  131.5945  154.3479 H   0  0  0  0  0  0  0  0  0  0  0  0
  1  2  1  0  0  0  0
  1 22  1  0  0  0  0
  1 23  1  0  0  0  0
  1 24  1  0  0  0  0
  2  3  1  0  0  0  0
  3 21  1  0  0  0  0
  3  4  2  0  0  0  0
  4  5  1  0  0  0  0
  4 25  1  0  0  0  0
  5  6  2  0  0  0  0
  5 26  1  0  0  0  0
  6  7  1  0  0  0  0
  6 20  1  0  0  0  0
  7  8  1  0  0  0  0
  7 27  1  0  0  0  0
  8  9  2  0  0  0  0
  8 10  1  0  0  0  0
 10 11  1  0  0  0  0
 10 28  1  0  0  0  0
 11 12  1  0  0  0  0
 11 29  1  0  0  0  0
 11 30  1  0  0  0  0
 12 13  1  0  0  0  0
 12 14  1  0  0  0  0
 12 31  1  0  0  0  0
 13 32  1  0  0  0  0
 13 33  1  0  0  0  0
 13 34  1  0  0  0  0
 14 19  1  0  0  0  0
 14 15  1  0  0  0  0
 15 16  1  0  0  0  0
 15 35  1  0  0  0  0
 15 36  1  0  0  0  0
 16 17  1  0  0  0  0
 16 37  1  0  0  0  0
 16 38  1  0  0  0  0
 17 18  1  0  0  0  0
 18 19  1  0  0  0  0
 18 39  1  0  0  0  0
 18 40  1  0  0  0  0
 19 41  1  0  0  0  0
 19 42  1  0  0  0  0
 20 21  2  0  0  0  0
 20 43  1  0  0  0  0
M  END
> <s_m_source_file>
AV-unprocessed.smi

> <i_m_source_file_index>
1190

> <i_lp_mmshare_version>
43012

> <i_f3d_flags>
0

> <s_epik_input>
W0NIM11PYzFbY0hdW2NIXWMoW2NIXW4xKVtOSF1DKD1PKVtOSF1bQ0gyXVtDQEhdKFtDSDNdKU4yW0NIMl1bQ0gyXU9bQ0gyXVtDSDJdMg==

> <s_epik_cmdline>
J2VwaWtfcHl0aG9uJywgJy1waCcsICc3LjAnLCAnLXRuJywgJzgnLCAnLW1hJywgJzIwMCcsICctbWV0YWxfYmluZGluZycsICctaW1hZScsICc8aW5maWxlLm1hZT4nLCAnLW9tYWUnLCAnPG91dGZpbGUubWFlPic=

> <r_lp_tautomer_probability>
1

> <r_epik_Ionization_Penalty>
0.266084

> <r_epik_Ionization_Penalty_Charging>
0

> <r_epik_Ionization_Penalty_Neutral>
0.266084

> <r_epik_State_Penalty>
0.257924

> <r_epik_Charging_Adjusted_Penalty>
0.257924

> <i_epik_Tot_Q>
0

> <i_epik_Tot_abs_Q>
0

> <r_epik_Metal_State_Penalty>
0.257922

> <b_epik_Metal_Only>
0

> <s_lp_Force_Field>
OPLS_2005

> <r_lp_Energy>
31.4194

> <b_lp_Chiralities_Consistent>
1

> <s_lp_Variant>
AV-unprocessed.smi:1190-2

> <Gold.Version>
5.8.1

> <Gold.Id.Protein>
6NUR|6NUR_protein|mol2

> <Gold.PLP.Fitness>
39.1224

> <Gold.PLP.PLP>
-33.0657

> <Gold.PLP.part.hbond>
-3.4969

> <Gold.PLP.part.metal>
0.0000

> <Gold.PLP.part.buried>
0.9197

> <Gold.PLP.part.nonpolar>
-29.8583

> <Gold.PLP.part.repulsive>
0.5326

> <Gold.PLP.ligand.clash>
0.0000

> <Gold.PLP.ligand.torsion>
0.6814

> <Gold.PLP.Chemscore.Hbond>
2.4416

> <Gold.PLP.Chemscore.CHOScore>
0.0000

> <Gold.PLP.Chemscore.Metal>
0.0000

> <Gold.Chemscore.Hbonds>
donor molecule, donor type, donor heavy atom, donor atom, acceptor molecule, acceptor atom, score
      L1  H     7    27       P1  7948  1.00
      L1  H    10    28       P1  7948  0.88
      P1  H  8011  8017       L1    17  0.50

> <Gold.PLP.Chemscore.Internal.Correction>
0.0946

> <Gold.Rescore>
     Score         DG    S(hbond)    S(metal)    S(lipo)     H(rot)  DE(clash)    DE(int)     intcor
     14.36     -16.26       1.88        0.00      76.37       1.73       0.26       1.64       ----

> <Gold.Chemscore.Fitness>
14.3647

> <Gold.Chemscore.DG>
-16.2582

> <Gold.Chemscore.ZeroCoef>
-5.4800

> <Gold.Chemscore.Hbond>
1.8772

> <Gold.Chemscore.Metal>
0.0000

> <Gold.Chemscore.Lipo>
76.3702

> <Gold.Chemscore.Internal_Hbond>
0.0000

> <Gold.Chemscore.DEClash>
0.2581

> <Gold.Chemscore.DEInternal>
1.6353

> <Gold.Chemscore.Rot>
1.7292

> <Gold.Chemscore.Internal.Correction>
   9.000000E+99

> <Gold.Chemscore.Hbonds>
donor molecule, donor type, donor heavy atom, donor atom, acceptor molecule, acceptor atom, score
      L1  H     7    27       P1  7948  0.24
      L1  H    10    28       P1  7948  0.55
      P1  H  8011  8017       L1    17  0.48

> <Gold.Chemscore.Hbond.Weighted>
-6.2697

> <Gold.Chemscore.Metal.Weighted>
-0.0000

> <Gold.Chemscore.Lipo.Weighted>
-8.9353

> <Gold.Chemscore.Internal_Hbond.Weighted>
0.0000

> <Gold.Chemscore.DEClash.Weighted>
0.2581

> <Gold.Chemscore.DEInternal.Weighted>
1.6353

> <Gold.Chemscore.Rot.Weighted>
4.4268

> <Gold.Chemscore.Internal.Correction.Weighted>
   9.000000E+99

> <Gold.Protein.RotatedTorsions>
[ 6907 6896 6895 6894 ] final   11.31 input  -60.11 | X-H torsion
[ 7974 7965 7964 7962 ] final   -4.80 input  175.53 | X-H torsion
[ 8008 7997 7996 7995 ] final  152.07 input   59.86 | X-H torsion
[ 10167 10162 10161 10158 ] final  -14.85 input  -65.29 | X-H torsion
[ 10718 10713 10712 10709 ] final -103.53 input   66.30 | X-H torsion
[ 10763 10752 10751 10750 ] final  -21.56 input  -60.55 | X-H torsion
[ 11005 11000 10999 10996 ] final  -52.81 input  -57.11 | X-H torsion

> <Gold.Protein.ActiveResidues>
 VAL166  LYS551  ARG553  GLY616  TRP617  ASP618  TYR619  PRO620  LYS621  CYS622 
 ASP623  PHE694  ASN695  SER759  ASP760  ASP761  ALA762  ILE779  LEU786  VAL792 
 PHE793  MET794  SER795  GLU796  ALA797  LYS798  CYS799  TRP800  GLU811  SER814 

> <Gold.Protein.RotatedAtoms>
  151.7523  135.0830  160.0332 H   0  0  0  0  0  0  0  0  0  0  0  0  # atno 6907 bound_to 6896
  152.3408  133.6061  159.5884 H   0  0  0  0  0  0  0  0  0  0  0  0  # atno 6908 bound_to 6896
  150.7478  133.9640  159.3566 H   0  0  0  0  0  0  0  0  0  0  0  0  # atno 6909 bound_to 6896
  146.2365  140.1926  142.8333 H   0  0  0  0  0  0  0  0  0  0  0  0  # atno 7974 bound_to 7965
  156.2645  140.2030  156.6276 H   0  0  0  0  0  0  0  0  0  0  0  0  # atno 8008 bound_to 7997
  154.6708  140.0550  157.0188 H   0  0  0  0  0  0  0  0  0  0  0  0  # atno 8009 bound_to 7997
  155.1140  140.3218  155.4517 H   0  0  0  0  0  0  0  0  0  0  0  0  # atno 8010 bound_to 7997
  140.7208  143.5279  150.9555 H   0  0  0  0  0  0  0  0  0  0  0  0  # atno 10167 bound_to 10162
  156.0269  130.5472  150.7266 H   0  0  0  0  0  0  0  0  0  0  0  0  # atno 10718 bound_to 10713
  153.6380  135.6986  153.5251 H   0  0  0  0  0  0  0  0  0  0  0  0  # atno 10763 bound_to 10752
  153.2805  135.4187  155.1074 H   0  0  0  0  0  0  0  0  0  0  0  0  # atno 10764 bound_to 10752
  154.8506  135.3601  154.5924 H   0  0  0  0  0  0  0  0  0  0  0  0  # atno 10765 bound_to 10752
  141.0944  133.6627  156.4080 H   0  0  0  0  0  0  0  0  0  0  0  0  # atno 11005 bound_to 11000
  144.9846  140.8491  143.5376 LP  0  0  0  0  0  0  0  0  0  0  0  0  # atno 17320 bound_to 7965
  145.1923  139.2294  143.5236 LP  0  0  0  0  0  0  0  0  0  0  0  0  # atno 17321 bound_to 7965
  139.8998  143.6849  152.3133 LP  0  0  0  0  0  0  0  0  0  0  0  0  # atno 17342 bound_to 10162
  139.7195  144.7605  151.0979 LP  0  0  0  0  0  0  0  0  0  0  0  0  # atno 17343 bound_to 10162
  157.4869  131.0907  151.0472 LP  0  0  0  0  0  0  0  0  0  0  0  0  # atno 17370 bound_to 10713
  157.0890  130.5934  149.5436 LP  0  0  0  0  0  0  0  0  0  0  0  0  # atno 17371 bound_to 10713
  140.5176  134.6335  157.5307 LP  0  0  0  0  0  0  0  0  0  0  0  0  # atno 17394 bound_to 11000
  139.9777  134.7189  155.9919 LP  0  0  0  0  0  0  0  0  0  0  0  0  # atno 17395 bound_to 11000

$$$$
