AV-unprocessed.smi:1350|AV-procd|sdf|5523|dock7
  -GOLD-   22720 5113D 1   1.00000     0.00000
 Structure written by MMmdl.
 44 46  0  0  0  0  0  0  0  0  2 V2000
  147.1681  137.7390  163.5883 C   0  0  0  0  0  0  0  0  0  0  0  0
  147.4895  137.3162  162.2711 O   0  0  0  0  0  0  0  0  0  0  0  0
  147.3729  135.9753  161.9639 C   0  0  0  0  0  0  0  0  0  0  0  0
  146.8590  135.0108  162.8691 C   0  0  0  0  0  0  0  0  0  0  0  0
  146.7531  133.6586  162.4939 C   0  0  0  0  0  0  0  0  0  0  0  0
  147.1531  133.2504  161.2101 C   0  0  0  0  0  0  0  0  0  0  0  0
  147.6660  134.1957  160.3043 C   0  0  0  0  0  0  0  0  0  0  0  0
  147.7883  135.5525  160.6766 C   0  0  0  0  0  0  0  0  0  0  0  0
  148.3312  136.5575  159.6709 C   0  0  0  0  0  0  0  0  0  0  0  0
  149.6432  136.9912  159.9961 O   0  0  0  0  0  0  0  0  0  0  0  0
  150.1799  137.8955  159.0447 C   0  0  0  0  0  0  0  0  0  0  0  0
  151.6755  138.0986  159.3351 C   0  0  1  0  0  0  0  0  0  0  0  0
  152.3491  136.8748  159.1142 O   0  0  0  0  0  0  0  0  0  0  0  0
  152.2934  139.1878  158.4365 C   0  0  0  0  0  0  0  0  0  0  0  0
  152.8067  140.3328  159.2029 N   0  0  0  0  0  0  0  0  0  0  0  0
  153.6923  140.3535  160.2358 C   0  0  0  0  0  0  0  0  0  0  0  0
  153.8526  141.6511  160.6159 N   0  3  0  0  0  0  0  0  0  0  0  0
  153.0597  142.4733  159.8129 C   0  0  0  0  0  0  0  0  0  0  0  0
  152.8873  143.8539  159.8156 C   0  0  0  0  0  0  0  0  0  0  0  0
  152.0009  144.3829  158.8549 C   0  0  0  0  0  0  0  0  0  0  0  0
  151.3272  143.5487  157.9394 C   0  0  0  0  0  0  0  0  0  0  0  0
  151.5087  142.1498  157.9464 C   0  0  0  0  0  0  0  0  0  0  0  0
  152.3853  141.6335  158.9007 C   0  0  0  0  0  0  0  0  0  0  0  0
  147.3254  138.8143  163.6684 H   0  0  0  0  0  0  0  0  0  0  0  0
  147.8077  137.2574  164.3290 H   0  0  0  0  0  0  0  0  0  0  0  0
  146.1226  137.5402  163.8274 H   0  0  0  0  0  0  0  0  0  0  0  0
  146.5342  135.2829  163.8616 H   0  0  0  0  0  0  0  0  0  0  0  0
  146.3597  132.9343  163.1919 H   0  0  0  0  0  0  0  0  0  0  0  0
  147.0659  132.2141  160.9189 H   0  0  0  0  0  0  0  0  0  0  0  0
  147.9653  133.8706  159.3186 H   0  0  0  0  0  0  0  0  0  0  0  0
  148.3259  136.0906  158.6850 H   0  0  0  0  0  0  0  0  0  0  0  0
  147.6766  137.4285  159.6236 H   0  0  0  0  0  0  0  0  0  0  0  0
  150.0179  137.5436  158.0244 H   0  0  0  0  0  0  0  0  0  0  0  0
  149.6558  138.8473  159.1445 H   0  0  0  0  0  0  0  0  0  0  0  0
  151.8077  138.3893  160.3781 H   0  0  0  0  0  0  0  0  0  0  0  0
  153.2610  137.0590  158.9498 H   0  0  0  0  0  0  0  0  0  0  0  0
  153.0862  138.7836  157.8068 H   0  0  0  0  0  0  0  0  0  0  0  0
  151.5352  139.5792  157.7570 H   0  0  0  0  0  0  0  0  0  0  0  0
  154.1803  139.4949  160.6744 H   0  0  0  0  0  0  0  0  0  0  0  0
  153.4037  144.4953  160.5149 H   0  0  0  0  0  0  0  0  0  0  0  0
  151.8356  145.4500  158.8183 H   0  0  0  0  0  0  0  0  0  0  0  0
  150.6576  143.9907  157.2159 H   0  0  0  0  0  0  0  0  0  0  0  0
  150.9895  141.5231  157.2371 H   0  0  0  0  0  0  0  0  0  0  0  0
  154.4608  141.9502  161.3675 H   0  0  0  0  0  0  0  0  0  0  0  0
  1  2  1  0  0  0  0
  1 24  1  0  0  0  0
  1 25  1  0  0  0  0
  1 26  1  0  0  0  0
  2  3  1  0  0  0  0
  3  8  1  0  0  0  0
  3  4  2  0  0  0  0
  4  5  1  0  0  0  0
  4 27  1  0  0  0  0
  5  6  2  0  0  0  0
  5 28  1  0  0  0  0
  6  7  1  0  0  0  0
  6 29  1  0  0  0  0
  7  8  2  0  0  0  0
  7 30  1  0  0  0  0
  8  9  1  0  0  0  0
  9 10  1  0  0  0  0
  9 31  1  0  0  0  0
  9 32  1  0  0  0  0
 10 11  1  0  0  0  0
 11 12  1  0  0  0  0
 11 33  1  0  0  0  0
 11 34  1  0  0  0  0
 12 13  1  0  0  0  0
 12 14  1  0  0  0  0
 12 35  1  0  0  0  0
 13 36  1  0  0  0  0
 14 15  1  0  0  0  0
 14 37  1  0  0  0  0
 14 38  1  0  0  0  0
 15 23  1  0  0  0  0
 15 16  1  0  0  0  0
 16 17  2  0  0  0  0
 16 39  1  0  0  0  0
 17 18  1  0  0  0  0
 17 44  1  0  0  0  0
 18 23  2  0  0  0  0
 18 19  1  0  0  0  0
 19 20  2  0  0  0  0
 19 40  1  0  0  0  0
 20 21  1  0  0  0  0
 20 41  1  0  0  0  0
 21 22  2  0  0  0  0
 21 42  1  0  0  0  0
 22 23  1  0  0  0  0
 22 43  1  0  0  0  0
M  CHG  1  17   1
M  END
> <s_m_source_file>
AV-unprocessed.smi

> <i_m_source_file_index>
1350

> <i_lp_mmshare_version>
43012

> <i_f3d_flags>
0

> <s_epik_input>
W0NIM11PYzFbY0hdW2NIXVtjSF1bY0hdYzFbQ0gyXU9bQ0gyXVtDQEhdKFtPSF0pW0NIMl1uKFtjSF1uMiljKGMyMylbY0hdW2NIXVtjSF1bY0hdMw==

> <s_epik_cmdline>
J2VwaWtfcHl0aG9uJywgJy1waCcsICc3LjAnLCAnLXRuJywgJzgnLCAnLW1hJywgJzIwMCcsICctbWV0YWxfYmluZGluZycsICctaW1hZScsICc8aW5maWxlLm1hZT4nLCAnLW9tYWUnLCAnPG91dGZpbGUubWFlPic=

> <r_lp_tautomer_probability>
1

> <r_epik_Ionization_Penalty>
1.28975

> <r_epik_Ionization_Penalty_Charging>
1.28975

> <r_epik_Ionization_Penalty_Neutral>
1.07667e-06

> <r_epik_State_Penalty>
1.36276

> <r_epik_Charging_Adjusted_Penalty>
2.65251

> <i_epik_Tot_Q>
1

> <i_epik_Tot_abs_Q>
1

> <r_epik_Metal_State_Penalty>
5.39298

> <b_epik_Metal_Only>
0

> <s_lp_Force_Field>
OPLS_2005

> <r_lp_Energy>
25.8807

> <b_lp_Chiralities_Consistent>
1

> <s_lp_Variant>
AV-unprocessed.smi:1350-4

> <Gold.Version>
5.8.1

> <Gold.Id.Protein>
6NUR|6NUR_protein|mol2

> <Gold.PLP.Fitness>
58.7904

> <Gold.PLP.PLP>
-53.7653

> <Gold.PLP.part.hbond>
-4.1415

> <Gold.PLP.part.metal>
0.0000

> <Gold.PLP.part.buried>
-4.8998

> <Gold.PLP.part.nonpolar>
-45.0853

> <Gold.PLP.part.repulsive>
0.0313

> <Gold.PLP.ligand.clash>
0.0000

> <Gold.PLP.ligand.torsion>
0.9994

> <Gold.PLP.Chemscore.Hbond>
2.3191

> <Gold.PLP.Chemscore.CHOScore>
0.0000

> <Gold.PLP.Chemscore.Metal>
0.0000

> <Gold.Chemscore.Hbonds>
donor molecule, donor type, donor heavy atom, donor atom, acceptor molecule, acceptor atom, score
      P1  H  6896  6909       L1    13  0.97
      P1  H  6931  6943       L1     2  0.82
      P1  H  6934  6947       L1     2  0.35

> <Gold.PLP.Chemscore.Internal.Correction>
0.0667

> <Gold.Rescore>
     Score         DG    S(hbond)    S(metal)    S(lipo)     H(rot)  DE(clash)    DE(int)     intcor
     18.96     -20.58       1.56        0.00     144.42       2.74       0.60       1.03       ----

> <Gold.Chemscore.Fitness>
18.9557

> <Gold.Chemscore.DG>
-20.5786

> <Gold.Chemscore.ZeroCoef>
-5.4800

> <Gold.Chemscore.Hbond>
1.5609

> <Gold.Chemscore.Metal>
0.0000

> <Gold.Chemscore.Lipo>
144.4171

> <Gold.Chemscore.Internal_Hbond>
0.0000

> <Gold.Chemscore.DEClash>
0.5963

> <Gold.Chemscore.DEInternal>
1.0266

> <Gold.Chemscore.Rot>
2.7390

> <Gold.Chemscore.Internal.Correction>
   9.000000E+99

> <Gold.Chemscore.Hbonds>
donor molecule, donor type, donor heavy atom, donor atom, acceptor molecule, acceptor atom, score
      P1  H  6896  6909       L1    13  0.84
      P1  H  6931  6943       L1     2  0.28
      P1  H  6934  6947       L1     2  0.22

> <Gold.Chemscore.Hbond.Weighted>
-5.2136

> <Gold.Chemscore.Metal.Weighted>
-0.0000

> <Gold.Chemscore.Lipo.Weighted>
-16.8968

> <Gold.Chemscore.Internal_Hbond.Weighted>
0.0000

> <Gold.Chemscore.DEClash.Weighted>
0.5963

> <Gold.Chemscore.DEInternal.Weighted>
1.0266

> <Gold.Chemscore.Rot.Weighted>
7.0118

> <Gold.Chemscore.Internal.Correction.Weighted>
   9.000000E+99

> <Gold.Protein.RotatedTorsions>
[ 6907 6896 6895 6894 ] final  134.46 input  -60.11 | X-H torsion
[ 7974 7965 7964 7962 ] final  -64.52 input  175.53 | X-H torsion
[ 8008 7997 7996 7995 ] final  123.22 input   59.86 | X-H torsion
[ 10167 10162 10161 10158 ] final   40.92 input  -65.29 | X-H torsion
[ 10718 10713 10712 10709 ] final  179.76 input   66.30 | X-H torsion
[ 10763 10752 10751 10750 ] final   88.90 input  -60.55 | X-H torsion
[ 11005 11000 10999 10996 ] final   95.41 input  -57.11 | X-H torsion

> <Gold.Protein.ActiveResidues>
 VAL166  LYS551  ARG553  GLY616  TRP617  ASP618  TYR619  PRO620  LYS621  CYS622 
 ASP623  PHE694  ASN695  SER759  ASP760  ASP761  ALA762  ILE779  LEU786  VAL792 
 PHE793  MET794  SER795  GLU796  ALA797  LYS798  CYS799  TRP800  GLU811  SER814 

> <Gold.Protein.RotatedAtoms>
  152.3110  133.5753  159.5680 H   0  0  0  0  0  0  0  0  0  0  0  0  # atno 6907 bound_to 6896
  150.7323  134.0152  159.3692 H   0  0  0  0  0  0  0  0  0  0  0  0  # atno 6908 bound_to 6896
  151.8044  135.0700  160.0455 H   0  0  0  0  0  0  0  0  0  0  0  0  # atno 6909 bound_to 6896
  145.7656  140.8839  143.0407 H   0  0  0  0  0  0  0  0  0  0  0  0  # atno 7974 bound_to 7965
  156.2758  140.2768  156.1593 H   0  0  0  0  0  0  0  0  0  0  0  0  # atno 8008 bound_to 7997
  155.0770  140.0387  157.2645 H   0  0  0  0  0  0  0  0  0  0  0  0  # atno 8009 bound_to 7997
  154.6994  140.2646  155.6740 H   0  0  0  0  0  0  0  0  0  0  0  0  # atno 8010 bound_to 7997
  140.3694  144.2125  150.6134 H   0  0  0  0  0  0  0  0  0  0  0  0  # atno 10167 bound_to 10162
  156.8710  130.9783  151.3073 H   0  0  0  0  0  0  0  0  0  0  0  0  # atno 10718 bound_to 10713
  153.1815  135.4490  155.0034 H   0  0  0  0  0  0  0  0  0  0  0  0  # atno 10763 bound_to 10752
  154.8033  135.3264  154.7497 H   0  0  0  0  0  0  0  0  0  0  0  0  # atno 10764 bound_to 10752
  153.7961  135.6966  153.4918 H   0  0  0  0  0  0  0  0  0  0  0  0  # atno 10765 bound_to 10752
  139.8789  134.8897  156.4006 H   0  0  0  0  0  0  0  0  0  0  0  0  # atno 11005 bound_to 11000
  144.6822  139.9784  143.7483 LP  0  0  0  0  0  0  0  0  0  0  0  0  # atno 17320 bound_to 7965
  146.0221  139.3260  143.0807 LP  0  0  0  0  0  0  0  0  0  0  0  0  # atno 17321 bound_to 7965
  140.5048  143.2307  151.8624 LP  0  0  0  0  0  0  0  0  0  0  0  0  # atno 17342 bound_to 10162
  139.4805  144.5018  151.9050 LP  0  0  0  0  0  0  0  0  0  0  0  0  # atno 17343 bound_to 10162
  157.6196  130.8645  149.9086 LP  0  0  0  0  0  0  0  0  0  0  0  0  # atno 17370 bound_to 10713
  156.0727  130.3683  150.0743 LP  0  0  0  0  0  0  0  0  0  0  0  0  # atno 17371 bound_to 10713
  140.9269  133.7606  155.9976 LP  0  0  0  0  0  0  0  0  0  0  0  0  # atno 17394 bound_to 11000
  140.8375  134.3105  157.5326 LP  0  0  0  0  0  0  0  0  0  0  0  0  # atno 17395 bound_to 11000

$$$$
