AV-unprocessed.smi:1269|AV-procd|sdf|5330|dock10
  -GOLD-   22720 4463D 1   1.00000     0.00000
 Structure written by MMmdl.
 44 45  0  0  0  0  0  0  0  0  2 V2000
  151.4786  141.6040  158.2488 C   0  0  0  0  0  0  0  0  0  0  0  0
  151.1587  141.5635  156.8625 O   0  0  0  0  0  0  0  0  0  0  0  0
  150.7364  140.3660  156.3224 C   0  0  0  0  0  0  0  0  0  0  0  0
  150.4503  139.2968  157.1939 C   0  0  0  0  0  0  0  0  0  0  0  0
  150.0221  138.0701  156.6520 C   0  0  0  0  0  0  0  0  0  0  0  0
  149.8868  137.9513  155.2473 C   0  0  0  0  0  0  0  0  0  0  0  0
  149.4779  136.7718  154.5646 N   0  0  0  0  0  0  0  0  0  0  0  0
  149.1858  135.5576  155.0614 C   0  0  0  0  0  0  0  0  0  0  0  0
  149.1884  135.2511  156.2526 O   0  0  0  0  0  0  0  0  0  0  0  0
  148.8888  134.6925  154.0800 N   0  0  0  0  0  0  0  0  0  0  0  0
  148.5087  133.2893  154.2549 C   0  0  1  0  0  0  0  0  0  0  0  0
  147.3397  133.2085  155.2461 C   0  0  0  0  0  0  0  0  0  0  0  0
  148.1439  132.6303  152.9042 C   0  0  0  0  0  0  0  0  0  0  0  0
  148.1637  131.1463  152.9551 N   0  3  0  0  0  0  0  0  0  0  0  0
  149.1912  130.5982  153.8732 C   0  0  0  0  0  0  0  0  0  0  0  0
  149.2018  129.0626  153.7982 C   0  0  0  0  0  0  0  0  0  0  0  0
  147.9087  128.5625  154.1172 O   0  0  0  0  0  0  0  0  0  0  0  0
  146.9188  129.0197  153.2038 C   0  0  0  0  0  0  0  0  0  0  0  0
  146.8382  130.5552  153.2511 C   0  0  0  0  0  0  0  0  0  0  0  0
  150.2032  139.0809  154.4636 C   0  0  0  0  0  0  0  0  0  0  0  0
  150.6157  140.2588  154.9765 N   0  0  0  0  0  0  0  0  0  0  0  0
  151.7928  142.6126  158.5169 H   0  0  0  0  0  0  0  0  0  0  0  0
  152.2998  140.9271  158.4891 H   0  0  0  0  0  0  0  0  0  0  0  0
  150.6143  141.3524  158.8651 H   0  0  0  0  0  0  0  0  0  0  0  0
  150.5610  139.4149  158.2618 H   0  0  0  0  0  0  0  0  0  0  0  0
  149.8199  137.2549  157.3275 H   0  0  0  0  0  0  0  0  0  0  0  0
  149.3807  136.8723  153.5646 H   0  0  0  0  0  0  0  0  0  0  0  0
  148.9088  135.0362  153.1308 H   0  0  0  0  0  0  0  0  0  0  0  0
  149.3409  132.7469  154.7058 H   0  0  0  0  0  0  0  0  0  0  0  0
  147.0516  132.1728  155.4289 H   0  0  0  0  0  0  0  0  0  0  0  0
  146.4617  133.7364  154.8719 H   0  0  0  0  0  0  0  0  0  0  0  0
  147.6077  133.6480  156.2076 H   0  0  0  0  0  0  0  0  0  0  0  0
  147.1666  132.9706  152.5586 H   0  0  0  0  0  0  0  0  0  0  0  0
  148.8633  132.9705  152.1576 H   0  0  0  0  0  0  0  0  0  0  0  0
  150.1777  130.9809  153.6133 H   0  0  0  0  0  0  0  0  0  0  0  0
  148.9825  130.9206  154.8944 H   0  0  0  0  0  0  0  0  0  0  0  0
  149.5036  128.7230  152.8060 H   0  0  0  0  0  0  0  0  0  0  0  0
  149.9230  128.6562  154.5074 H   0  0  0  0  0  0  0  0  0  0  0  0
  147.1511  128.6733  152.1953 H   0  0  0  0  0  0  0  0  0  0  0  0
  145.9575  128.5841  153.4767 H   0  0  0  0  0  0  0  0  0  0  0  0
  146.5000  130.8850  154.2346 H   0  0  0  0  0  0  0  0  0  0  0  0
  146.1045  130.9044  152.5236 H   0  0  0  0  0  0  0  0  0  0  0  0
  150.1237  139.0402  153.3870 H   0  0  0  0  0  0  0  0  0  0  0  0
  148.4083  130.8354  152.0255 H   0  0  0  0  0  0  0  0  0  0  0  0
  1  2  1  0  0  0  0
  1 22  1  0  0  0  0
  1 23  1  0  0  0  0
  1 24  1  0  0  0  0
  2  3  1  0  0  0  0
  3 21  1  0  0  0  0
  3  4  2  0  0  0  0
  4  5  1  0  0  0  0
  4 25  1  0  0  0  0
  5  6  2  0  0  0  0
  5 26  1  0  0  0  0
  6  7  1  0  0  0  0
  6 20  1  0  0  0  0
  7  8  1  0  0  0  0
  7 27  1  0  0  0  0
  8  9  2  0  0  0  0
  8 10  1  0  0  0  0
 10 11  1  0  0  0  0
 10 28  1  0  0  0  0
 11 12  1  0  0  0  0
 11 13  1  0  0  0  0
 11 29  1  0  0  0  0
 12 30  1  0  0  0  0
 12 31  1  0  0  0  0
 12 32  1  0  0  0  0
 13 14  1  0  0  0  0
 13 33  1  0  0  0  0
 13 34  1  0  0  0  0
 14 19  1  0  0  0  0
 14 15  1  0  0  0  0
 14 44  1  0  0  0  0
 15 16  1  0  0  0  0
 15 35  1  0  0  0  0
 15 36  1  0  0  0  0
 16 17  1  0  0  0  0
 16 37  1  0  0  0  0
 16 38  1  0  0  0  0
 17 18  1  0  0  0  0
 18 19  1  0  0  0  0
 18 39  1  0  0  0  0
 18 40  1  0  0  0  0
 19 41  1  0  0  0  0
 19 42  1  0  0  0  0
 20 21  2  0  0  0  0
 20 43  1  0  0  0  0
M  CHG  1  14   1
M  END
> <s_m_source_file>
AV-unprocessed.smi

> <i_m_source_file_index>
1269

> <i_lp_mmshare_version>
43012

> <i_f3d_flags>
0

> <s_epik_input>
W0NIM11PYzFbY0hdW2NIXWMoW2NIXW4xKVtOSF1DKD1PKVtOSF1bQ0BIXShbQ0gzXSlbQ0gyXU4yW0NIMl1bQ0gyXU9bQ0gyXVtDSDJdMg==

> <s_epik_cmdline>
J2VwaWtfcHl0aG9uJywgJy1waCcsICc3LjAnLCAnLXRuJywgJzgnLCAnLW1hJywgJzIwMCcsICctbWV0YWxfYmluZGluZycsICctaW1hZScsICc8aW5maWxlLm1hZT4nLCAnLW9tYWUnLCAnPG91dGZpbGUubWFlPic=

> <r_lp_tautomer_probability>
1

> <r_epik_Ionization_Penalty>
0.602604

> <r_epik_Ionization_Penalty_Charging>
0.602531

> <r_epik_Ionization_Penalty_Neutral>
7.37831e-05

> <r_epik_State_Penalty>
0.617039

> <r_epik_Charging_Adjusted_Penalty>
1.21957

> <i_epik_Tot_Q>
1

> <i_epik_Tot_abs_Q>
1

> <r_epik_Metal_State_Penalty>
0.617045

> <b_epik_Metal_Only>
0

> <s_lp_Force_Field>
OPLS_2005

> <r_lp_Energy>
25.4329

> <b_lp_Chiralities_Consistent>
1

> <s_lp_Variant>
AV-unprocessed.smi:1269-4

> <Gold.Version>
5.8.1

> <Gold.Id.Protein>
6NUR|6NUR_protein|mol2

> <Gold.PLP.Fitness>
41.4580

> <Gold.PLP.PLP>
-28.1575

> <Gold.PLP.part.hbond>
-4.0000

> <Gold.PLP.part.metal>
0.0000

> <Gold.PLP.part.buried>
-4.2359

> <Gold.PLP.part.nonpolar>
-20.1497

> <Gold.PLP.part.repulsive>
0.1823

> <Gold.PLP.ligand.clash>
0.4597

> <Gold.PLP.ligand.torsion>
0.6331

> <Gold.PLP.Chemscore.Hbond>
4.0000

> <Gold.PLP.Chemscore.CHOScore>
1.0000

> <Gold.PLP.Chemscore.Metal>
0.0000

> <Gold.Chemscore.Hbonds>
donor molecule, donor type, donor heavy atom, donor atom, acceptor molecule, acceptor atom, score
      L1  H     7    27       P1  7948  1.00
      L1  H    10    28       P1  7948  1.00
      L1  H    14    44       P1 10747  1.00
      P1  H  7989  7998       L1    21  0.95
      L1  C    20    43       P1  7957  1.00

> <Gold.PLP.Chemscore.Internal.Correction>
0.0265

> <Gold.Rescore>
     Score         DG    S(hbond)    S(metal)    S(lipo)     H(rot)  DE(clash)    DE(int)     intcor
     15.28     -18.14       3.04        0.00      60.39       1.78       0.00       2.85       ----

> <Gold.Chemscore.Fitness>
15.2827

> <Gold.Chemscore.DG>
-18.1379

> <Gold.Chemscore.ZeroCoef>
-5.4800

> <Gold.Chemscore.Hbond>
3.0387

> <Gold.Chemscore.Metal>
0.0000

> <Gold.Chemscore.Lipo>
60.3907

> <Gold.Chemscore.Internal_Hbond>
0.0000

> <Gold.Chemscore.DEClash>
0.0029

> <Gold.Chemscore.DEInternal>
2.8523

> <Gold.Chemscore.Rot>
1.7801

> <Gold.Chemscore.Internal.Correction>
   9.000000E+99

> <Gold.Chemscore.Hbonds>
donor molecule, donor type, donor heavy atom, donor atom, acceptor molecule, acceptor atom, score
      L1  H     7    27       P1  7948  0.90
      L1  H    10    28       P1  7948  0.30
      L1  H    14    44       P1 10747  0.98
      P1  H  7989  7998       L1    21  0.21

> <Gold.Chemscore.Hbond.Weighted>
-10.1492

> <Gold.Chemscore.Metal.Weighted>
-0.0000

> <Gold.Chemscore.Lipo.Weighted>
-7.0657

> <Gold.Chemscore.Internal_Hbond.Weighted>
0.0000

> <Gold.Chemscore.DEClash.Weighted>
0.0029

> <Gold.Chemscore.DEInternal.Weighted>
2.8523

> <Gold.Chemscore.Rot.Weighted>
4.5570

> <Gold.Chemscore.Internal.Correction.Weighted>
   9.000000E+99

> <Gold.Protein.RotatedTorsions>
[ 6907 6896 6895 6894 ] final   76.69 input  -60.11 | X-H torsion
[ 7974 7965 7964 7962 ] final   -3.18 input  175.53 | X-H torsion
[ 8008 7997 7996 7995 ] final  129.19 input   59.86 | X-H torsion
[ 10167 10162 10161 10158 ] final -121.48 input  -65.29 | X-H torsion
[ 10718 10713 10712 10709 ] final   39.30 input   66.30 | X-H torsion
[ 10763 10752 10751 10750 ] final   -1.26 input  -60.55 | X-H torsion
[ 11005 11000 10999 10996 ] final -109.08 input  -57.11 | X-H torsion

> <Gold.Protein.ActiveResidues>
 VAL166  LYS551  ARG553  GLY616  TRP617  ASP618  TYR619  PRO620  LYS621  CYS622 
 ASP623  PHE694  ASN695  SER759  ASP760  ASP761  ALA762  ILE779  LEU786  VAL792 
 PHE793  MET794  SER795  GLU796  ALA797  LYS798  CYS799  TRP800  GLU811  SER814 

> <Gold.Protein.RotatedAtoms>
  152.5084  134.3930  159.9390 H   0  0  0  0  0  0  0  0  0  0  0  0  # atno 6907 bound_to 6896
  151.3891  133.3789  159.2726 H   0  0  0  0  0  0  0  0  0  0  0  0  # atno 6908 bound_to 6896
  150.9446  134.8873  159.7693 H   0  0  0  0  0  0  0  0  0  0  0  0  # atno 6909 bound_to 6896
  146.2393  140.1683  142.8332 H   0  0  0  0  0  0  0  0  0  0  0  0  # atno 7974 bound_to 7965
  156.2931  140.2626  156.2559 H   0  0  0  0  0  0  0  0  0  0  0  0  # atno 8008 bound_to 7997
  154.9837  140.0389  157.2307 H   0  0  0  0  0  0  0  0  0  0  0  0  # atno 8009 bound_to 7997
  154.7749  140.2784  155.6114 H   0  0  0  0  0  0  0  0  0  0  0  0  # atno 8010 bound_to 7997
  140.0246  143.5309  152.2205 H   0  0  0  0  0  0  0  0  0  0  0  0  # atno 10167 bound_to 10162
  157.3690  130.7691  149.7104 H   0  0  0  0  0  0  0  0  0  0  0  0  # atno 10718 bound_to 10713
  153.3426  135.6981  153.6855 H   0  0  0  0  0  0  0  0  0  0  0  0  # atno 10763 bound_to 10752
  153.5613  135.3534  155.2801 H   0  0  0  0  0  0  0  0  0  0  0  0  # atno 10764 bound_to 10752
  154.8639  135.4250  154.2642 H   0  0  0  0  0  0  0  0  0  0  0  0  # atno 10765 bound_to 10752
  141.0867  133.9127  157.2170 H   0  0  0  0  0  0  0  0  0  0  0  0  # atno 11005 bound_to 11000
  145.0032  140.8650  143.5269 LP  0  0  0  0  0  0  0  0  0  0  0  0  # atno 17320 bound_to 7965
  145.1705  139.2407  143.5344 LP  0  0  0  0  0  0  0  0  0  0  0  0  # atno 17321 bound_to 7965
  139.6116  144.7610  151.2938 LP  0  0  0  0  0  0  0  0  0  0  0  0  # atno 17342 bound_to 10162
  140.7328  143.6813  150.7998 LP  0  0  0  0  0  0  0  0  0  0  0  0  # atno 17343 bound_to 10162
  155.9752  130.4093  150.3869 LP  0  0  0  0  0  0  0  0  0  0  0  0  # atno 17370 bound_to 10713
  157.1957  131.0426  151.2677 LP  0  0  0  0  0  0  0  0  0  0  0  0  # atno 17371 bound_to 10713
  139.9686  135.0135  156.9453 LP  0  0  0  0  0  0  0  0  0  0  0  0  # atno 17394 bound_to 11000
  140.5347  134.0779  155.7325 LP  0  0  0  0  0  0  0  0  0  0  0  0  # atno 17395 bound_to 11000

$$$$
