AV-unprocessed.smi:498|AV-procd|sdf|2731|dock6
  -GOLD-   2262023183D 1   1.00000     0.00000
 Structure written by MMmdl.
 42 44  0  0  0  0  0  0  0  0  3 V2000
  150.7804  134.9843  155.0705 C   0  0  0  0  0  0  0  0  0  0  0  0
  149.9977  136.2372  155.4710 C   0  0  0  0  0  0  0  0  0  0  0  0
  150.9145  137.2763  155.7701 O   0  0  0  0  0  0  0  0  0  0  0  0
  150.2816  138.4323  156.2909 C   0  0  0  0  0  0  0  0  0  0  0  0
  151.3431  139.3194  156.9533 C   0  0  0  0  0  0  0  0  0  0  0  0
  150.9800  140.7494  156.8940 N   0  0  0  0  0  0  0  0  0  0  0  0
  150.1328  141.4459  156.0673 C   0  0  0  0  0  0  0  0  0  0  0  0
  149.2840  140.9252  154.9376 C   0  0  0  0  0  0  0  0  0  0  0  0
  148.0103  141.6340  154.8257 N   0  5  0  0  0  0  0  0  0  0  0  0
  146.9071  141.3296  155.5649 C   0  0  0  0  0  0  0  0  0  0  0  0
  146.7409  140.4410  156.4073 O   0  0  0  0  0  0  0  0  0  0  0  0
  145.7869  142.2617  155.2998 C   0  0  0  0  0  0  0  0  0  0  0  0
  145.3731  142.8988  154.1570 C   0  0  0  0  0  0  0  0  0  0  0  0
  144.2180  143.6535  154.5016 C   0  0  0  0  0  0  0  0  0  0  0  0
  143.9987  143.4172  155.8277 C   0  0  0  0  0  0  0  0  0  0  0  0
  144.9390  142.5692  156.3255 O   0  0  0  0  0  0  0  0  0  0  0  0
  150.1715  142.7488  156.4717 N   0  3  0  0  0  0  0  0  0  0  0  0
  151.0357  142.8940  157.5545 C   0  0  0  0  0  0  0  0  0  0  0  0
  151.3895  144.0193  158.2918 C   0  0  0  0  0  0  0  0  0  0  0  0
  152.2992  143.8208  159.3508 C   0  0  0  0  0  0  0  0  0  0  0  0
  152.8185  142.5426  159.6410 C   0  0  0  0  0  0  0  0  0  0  0  0
  152.4529  141.4100  158.8841 C   0  0  0  0  0  0  0  0  0  0  0  0
  151.5547  141.6146  157.8359 C   0  0  0  0  0  0  0  0  0  0  0  0
  150.1052  134.1634  154.8281 H   0  0  0  0  0  0  0  0  0  0  0  0
  151.4310  134.6537  155.8805 H   0  0  0  0  0  0  0  0  0  0  0  0
  151.4029  135.1747  154.1959 H   0  0  0  0  0  0  0  0  0  0  0  0
  149.3385  136.5399  154.6562 H   0  0  0  0  0  0  0  0  0  0  0  0
  149.3737  136.0230  156.3397 H   0  0  0  0  0  0  0  0  0  0  0  0
  149.7827  138.9810  155.4904 H   0  0  0  0  0  0  0  0  0  0  0  0
  149.5213  138.1437  157.0182 H   0  0  0  0  0  0  0  0  0  0  0  0
  151.4963  139.0348  157.9944 H   0  0  0  0  0  0  0  0  0  0  0  0
  152.3079  139.1824  156.4651 H   0  0  0  0  0  0  0  0  0  0  0  0
  149.8606  141.0037  154.0161 H   0  0  0  0  0  0  0  0  0  0  0  0
  149.1406  139.8574  155.1060 H   0  0  0  0  0  0  0  0  0  0  0  0
  145.8454  142.8296  153.1881 H   0  0  0  0  0  0  0  0  0  0  0  0
  143.6219  144.2850  153.8596 H   0  0  0  0  0  0  0  0  0  0  0  0
  143.2565  143.7509  156.5377 H   0  0  0  0  0  0  0  0  0  0  0  0
  150.9889  144.9976  158.0704 H   0  0  0  0  0  0  0  0  0  0  0  0
  152.6029  144.6649  159.9529 H   0  0  0  0  0  0  0  0  0  0  0  0
  153.5117  142.4280  160.4618 H   0  0  0  0  0  0  0  0  0  0  0  0
  152.8555  140.4358  159.1185 H   0  0  0  0  0  0  0  0  0  0  0  0
  149.6365  143.4790  156.0187 H   0  0  0  0  0  0  0  0  0  0  0  0
  1  2  1  0  0  0  0
  1 24  1  0  0  0  0
  1 25  1  0  0  0  0
  1 26  1  0  0  0  0
  2  3  1  0  0  0  0
  2 27  1  0  0  0  0
  2 28  1  0  0  0  0
  3  4  1  0  0  0  0
  4  5  1  0  0  0  0
  4 29  1  0  0  0  0
  4 30  1  0  0  0  0
  5  6  1  0  0  0  0
  5 31  1  0  0  0  0
  5 32  1  0  0  0  0
  6 23  1  0  0  0  0
  6  7  1  0  0  0  0
  7  8  1  0  0  0  0
  7 17  2  0  0  0  0
  8  9  1  0  0  0  0
  8 33  1  0  0  0  0
  8 34  1  0  0  0  0
  9 10  1  0  0  0  0
 10 11  2  0  0  0  0
 10 12  1  0  0  0  0
 12 16  1  0  0  0  0
 12 13  2  0  0  0  0
 13 14  1  0  0  0  0
 13 35  1  0  0  0  0
 14 15  2  0  0  0  0
 14 36  1  0  0  0  0
 15 16  1  0  0  0  0
 15 37  1  0  0  0  0
 17 18  1  0  0  0  0
 17 42  1  0  0  0  0
 18 23  2  0  0  0  0
 18 19  1  0  0  0  0
 19 20  2  0  0  0  0
 19 38  1  0  0  0  0
 20 21  1  0  0  0  0
 20 39  1  0  0  0  0
 21 22  2  0  0  0  0
 21 40  1  0  0  0  0
 22 23  1  0  0  0  0
 22 41  1  0  0  0  0
M  CHG  1   9  -1
M  CHG  1  17   1
M  END
> <s_m_source_file>
AV-unprocessed.smi

> <i_m_source_file_index>
498

> <i_lp_mmshare_version>
43012

> <i_f3d_flags>
0

> <s_epik_input>
W0NIM11bQ0gyXU9bQ0gyXVtDSDJdbihjKGMxMilbY0hdW2NIXVtjSF1bY0hdMiljKG4xKVtDSDJdW05IXUMoPU8pYzNbY0hdW2NIXVtjSF1vMw==

> <s_epik_cmdline>
J2VwaWtfcHl0aG9uJywgJy1waCcsICc3LjAnLCAnLXRuJywgJzgnLCAnLW1hJywgJzIwMCcsICctbWV0YWxfYmluZGluZycsICctaW1hZScsICc8aW5maWxlLm1hZT4nLCAnLW9tYWUnLCAnPG91dGZpbGUubWFlPic=

> <r_epik_Ionization_Penalty>
6.05973

> <r_epik_Ionization_Penalty_Charging>
6.05973

> <r_epik_Ionization_Penalty_Neutral>
2.61143e-12

> <r_epik_State_Penalty>
7.27867

> <r_epik_Charging_Adjusted_Penalty>
13.3384

> <i_epik_Tot_Q>
0

> <i_epik_Tot_abs_Q>
2

> <r_epik_Metal_State_Penalty>
3.28829

> <b_epik_Metal_Only>
1

> <s_lp_Force_Field>
OPLS_2005

> <r_lp_Energy>
13.3144

> <b_lp_Chiralities_Consistent>
1

> <s_lp_Variant>
AV-unprocessed.smi:498-4

> <Gold.Version>
5.8.1

> <Gold.Id.Protein>
6NUR|6NUR_protein|mol2

> <Gold.PLP.Fitness>
49.0722

> <Gold.PLP.PLP>
-46.0727

> <Gold.PLP.part.hbond>
-1.2324

> <Gold.PLP.part.metal>
0.0000

> <Gold.PLP.part.buried>
-6.9231

> <Gold.PLP.part.nonpolar>
-39.5461

> <Gold.PLP.part.repulsive>
1.2713

> <Gold.PLP.ligand.clash>
0.0000

> <Gold.PLP.ligand.torsion>
1.5522

> <Gold.PLP.Chemscore.Hbond>
1.9840

> <Gold.PLP.Chemscore.CHOScore>
0.0000

> <Gold.PLP.Chemscore.Metal>
0.0000

> <Gold.Chemscore.Hbonds>
donor molecule, donor type, donor heavy atom, donor atom, acceptor molecule, acceptor atom, score
      L1  H    17    42       P1  8028  1.82

> <Gold.PLP.Chemscore.Internal.Correction>
0.1519

> <Gold.Rescore>
     Score         DG    S(hbond)    S(metal)    S(lipo)     H(rot)  DE(clash)    DE(int)     intcor
     13.54     -16.58       0.92        0.00     111.68       1.96       0.30       2.75       ----

> <Gold.Chemscore.Fitness>
13.5394

> <Gold.Chemscore.DG>
-16.5848

> <Gold.Chemscore.ZeroCoef>
-5.4800

> <Gold.Chemscore.Hbond>
0.9176

> <Gold.Chemscore.Metal>
0.0000

> <Gold.Chemscore.Lipo>
111.6840

> <Gold.Chemscore.Internal_Hbond>
0.0000

> <Gold.Chemscore.DEClash>
0.2973

> <Gold.Chemscore.DEInternal>
2.7482

> <Gold.Chemscore.Rot>
1.9637

> <Gold.Chemscore.Internal.Correction>
   9.000000E+99

> <Gold.Chemscore.Hbonds>
donor molecule, donor type, donor heavy atom, donor atom, acceptor molecule, acceptor atom, score
      L1  H    17    42       P1  8028  0.87

> <Gold.Chemscore.Hbond.Weighted>
-3.0648

> <Gold.Chemscore.Metal.Weighted>
-0.0000

> <Gold.Chemscore.Lipo.Weighted>
-13.0670

> <Gold.Chemscore.Internal_Hbond.Weighted>
0.0000

> <Gold.Chemscore.DEClash.Weighted>
0.2973

> <Gold.Chemscore.DEInternal.Weighted>
2.7482

> <Gold.Chemscore.Rot.Weighted>
5.0270

> <Gold.Chemscore.Internal.Correction.Weighted>
   9.000000E+99

> <Gold.Protein.RotatedTorsions>
[ 6907 6896 6895 6894 ] final   -5.63 input  -60.11 | X-H torsion
[ 7974 7965 7964 7962 ] final  170.66 input  175.53 | X-H torsion
[ 8008 7997 7996 7995 ] final -121.59 input   59.86 | X-H torsion
[ 10167 10162 10161 10158 ] final  -75.72 input  -65.29 | X-H torsion
[ 10718 10713 10712 10709 ] final  -10.72 input   66.30 | X-H torsion
[ 10763 10752 10751 10750 ] final  -18.27 input  -60.55 | X-H torsion
[ 11005 11000 10999 10996 ] final  121.91 input  -57.11 | X-H torsion

> <Gold.Protein.ActiveResidues>
 VAL166  LYS551  ARG553  GLY616  TRP617  ASP618  TYR619  PRO620  LYS621  CYS622 
 ASP623  PHE694  ASN695  SER759  ASP760  ASP761  ALA762  ILE779  LEU786  VAL792 
 PHE793  MET794  SER795  GLU796  ALA797  LYS798  CYS799  TRP800  GLU811  SER814 

> <Gold.Protein.RotatedAtoms>
  151.4785  135.1050  159.9770 H   0  0  0  0  0  0  0  0  0  0  0  0  # atno 6907 bound_to 6896
  152.4788  133.8200  159.7059 H   0  0  0  0  0  0  0  0  0  0  0  0  # atno 6908 bound_to 6896
  150.8845  133.7265  159.2949 H   0  0  0  0  0  0  0  0  0  0  0  0  # atno 6909 bound_to 6896
  144.7317  139.9235  143.6421 H   0  0  0  0  0  0  0  0  0  0  0  0  # atno 7974 bound_to 7965
  155.1504  140.0403  157.2820 H   0  0  0  0  0  0  0  0  0  0  0  0  # atno 8008 bound_to 7997
  154.6408  140.2546  155.7297 H   0  0  0  0  0  0  0  0  0  0  0  0  # atno 8009 bound_to 7997
  156.2531  140.2856  156.0801 H   0  0  0  0  0  0  0  0  0  0  0  0  # atno 8010 bound_to 7997
  140.4918  143.2379  151.7894 H   0  0  0  0  0  0  0  0  0  0  0  0  # atno 10167 bound_to 10162
  156.6694  130.5005  149.6005 H   0  0  0  0  0  0  0  0  0  0  0  0  # atno 10718 bound_to 10713
  153.5866  135.7003  153.5440 H   0  0  0  0  0  0  0  0  0  0  0  0  # atno 10763 bound_to 10752
  153.3214  135.4073  155.1420 H   0  0  0  0  0  0  0  0  0  0  0  0  # atno 10764 bound_to 10752
  154.8608  135.3696  154.5396 H   0  0  0  0  0  0  0  0  0  0  0  0  # atno 10765 bound_to 10752
  139.9246  134.9640  156.8030 H   0  0  0  0  0  0  0  0  0  0  0  0  # atno 11005 bound_to 11000
  146.0911  139.3901  143.0405 LP  0  0  0  0  0  0  0  0  0  0  0  0  # atno 17320 bound_to 7965
  145.7709  140.9897  143.1150 LP  0  0  0  0  0  0  0  0  0  0  0  0  # atno 17321 bound_to 7965
  139.4853  144.4639  151.9508 LP  0  0  0  0  0  0  0  0  0  0  0  0  # atno 17342 bound_to 10162
  140.3726  144.2837  150.5918 LP  0  0  0  0  0  0  0  0  0  0  0  0  # atno 17343 bound_to 10162
  156.1950  130.6584  151.1104 LP  0  0  0  0  0  0  0  0  0  0  0  0  # atno 17370 bound_to 10713
  157.7082  131.0746  150.6593 LP  0  0  0  0  0  0  0  0  0  0  0  0  # atno 17371 bound_to 10713
  140.6374  133.9849  155.7691 LP  0  0  0  0  0  0  0  0  0  0  0  0  # atno 17394 bound_to 11000
  141.0793  134.0086  157.3410 LP  0  0  0  0  0  0  0  0  0  0  0  0  # atno 17395 bound_to 11000

$$$$
