AV-unprocessed.smi:887|AV-procd|sdf|4052|dock3
  -GOLD-   22720 1543D 1   1.00000     0.00000
 Structure written by MMmdl.
 31 32  0  0  0  0  0  0  0  0  1 V2000
  148.2149  138.6424  154.1348 C   0  0  0  0  0  0  0  0  0  0  0  0
  149.5413  138.3963  154.6795 N   0  0  0  0  0  0  0  0  0  0  0  0
  150.5031  139.3263  154.7743 C   0  0  0  0  0  0  0  0  0  0  0  0
  150.3547  140.4912  154.4044 O   0  0  0  0  0  0  0  0  0  0  0  0
  151.8350  138.8772  155.3801 C   0  0  0  0  0  0  0  0  0  0  0  0
  152.1647  139.6836  156.5955 C   0  0  0  0  0  0  0  0  0  0  0  0
  153.1200  139.3057  157.4372 N   0  0  0  0  0  0  0  0  0  0  0  0
  153.0944  140.3014  158.4239 O   0  0  0  0  0  0  0  0  0  0  0  0
  152.1395  141.1830  158.0396 C   0  0  0  0  0  0  0  0  0  0  0  0
  151.8088  142.3258  158.9481 C   0  0  2  0  0  0  0  0  0  0  0  0
  151.8247  143.6765  158.1999 C   0  0  0  0  0  0  0  0  0  0  0  0
  151.7895  144.8684  159.1407 C   0  0  0  0  0  0  0  0  0  0  0  0
  151.9903  144.7766  160.4664 C   0  0  0  0  0  0  0  0  0  0  0  0
  152.2874  143.4698  161.1781 C   0  0  0  0  0  0  0  0  0  0  0  0
  152.7078  142.3580  160.1994 C   0  0  0  0  0  0  0  0  0  0  0  0
  151.4980  140.8231  156.9291 N   0  0  0  0  0  0  0  0  0  0  0  0
  147.6322  137.7213  154.1454 H   0  0  0  0  0  0  0  0  0  0  0  0
  148.2760  138.9952  153.1045 H   0  0  0  0  0  0  0  0  0  0  0  0
  147.6846  139.3885  154.7278 H   0  0  0  0  0  0  0  0  0  0  0  0
  149.7414  137.4612  155.0046 H   0  0  0  0  0  0  0  0  0  0  0  0
  151.7696  137.8217  155.6467 H   0  0  0  0  0  0  0  0  0  0  0  0
  152.6401  138.9689  154.6495 H   0  0  0  0  0  0  0  0  0  0  0  0
  150.7890  142.1615  159.2997 H   0  0  0  0  0  0  0  0  0  0  0  0
  152.7326  143.7665  157.6026 H   0  0  0  0  0  0  0  0  0  0  0  0
  150.9836  143.7319  157.5083 H   0  0  0  0  0  0  0  0  0  0  0  0
  151.5958  145.8329  158.6944 H   0  0  0  0  0  0  0  0  0  0  0  0
  151.9315  145.6630  161.0807 H   0  0  0  0  0  0  0  0  0  0  0  0
  153.0744  143.6315  161.9151 H   0  0  0  0  0  0  0  0  0  0  0  0
  151.3934  143.1724  161.7272 H   0  0  0  0  0  0  0  0  0  0  0  0
  152.6833  141.3950  160.7108 H   0  0  0  0  0  0  0  0  0  0  0  0
  153.7434  142.5190  159.8959 H   0  0  0  0  0  0  0  0  0  0  0  0
  1  2  1  0  0  0  0
  1 17  1  0  0  0  0
  1 18  1  0  0  0  0
  1 19  1  0  0  0  0
  2  3  1  0  0  0  0
  2 20  1  0  0  0  0
  3  4  2  0  0  0  0
  3  5  1  0  0  0  0
  5  6  1  0  0  0  0
  5 21  1  0  0  0  0
  5 22  1  0  0  0  0
  6 16  1  0  0  0  0
  6  7  2  0  0  0  0
  7  8  1  0  0  0  0
  8  9  1  0  0  0  0
  9 10  1  0  0  0  0
  9 16  2  0  0  0  0
 10 15  1  0  0  0  0
 10 11  1  0  0  0  0
 10 23  1  0  0  0  0
 11 12  1  0  0  0  0
 11 24  1  0  0  0  0
 11 25  1  0  0  0  0
 12 13  2  0  0  0  0
 12 26  1  0  0  0  0
 13 14  1  0  0  0  0
 13 27  1  0  0  0  0
 14 15  1  0  0  0  0
 14 28  1  0  0  0  0
 14 29  1  0  0  0  0
 15 30  1  0  0  0  0
 15 31  1  0  0  0  0
M  END
> <s_m_source_file>
AV-unprocessed.smi

> <i_m_source_file_index>
887

> <i_lp_mmshare_version>
43012

> <i_f3d_flags>
0

> <s_epik_input>
W0NIM11bTkhdQyg9TylbQ0gyXWMxbm9jKG4xKVtDQEBIXTJbQ0gyXVtDSF09W0NIXVtDSDJdW0NIMl0y

> <s_epik_cmdline>
J2VwaWtfcHl0aG9uJywgJy1waCcsICc3LjAnLCAnLXRuJywgJzgnLCAnLW1hJywgJzIwMCcsICctbWV0YWxfYmluZGluZycsICctaW1hZScsICc8aW5maWxlLm1hZT4nLCAnLW9tYWUnLCAnPG91dGZpbGUubWFlPic=

> <r_lp_tautomer_probability>
1

> <r_epik_Ionization_Penalty>
1.02915e-07

> <r_epik_Ionization_Penalty_Charging>
0

> <r_epik_Ionization_Penalty_Neutral>
1.02915e-07

> <r_epik_State_Penalty>
-0

> <r_epik_Charging_Adjusted_Penalty>
0

> <i_epik_Tot_Q>
0

> <i_epik_Tot_abs_Q>
0

> <r_epik_Metal_State_Penalty>
-0

> <b_epik_Metal_Only>
0

> <s_lp_Force_Field>
OPLS_2005

> <r_lp_Energy>
6.3781

> <b_lp_Chiralities_Consistent>
1

> <s_lp_Variant>
AV-unprocessed.smi:887-1

> <Gold.Version>
5.8.1

> <Gold.Id.Protein>
6NUR|6NUR_protein|mol2

> <Gold.PLP.Fitness>
40.6878

> <Gold.PLP.PLP>
-36.6899

> <Gold.PLP.part.hbond>
-2.7629

> <Gold.PLP.part.metal>
0.0000

> <Gold.PLP.part.buried>
-2.7801

> <Gold.PLP.part.nonpolar>
-30.0945

> <Gold.PLP.part.repulsive>
0.1634

> <Gold.PLP.ligand.clash>
0.0000

> <Gold.PLP.ligand.torsion>
0.2113

> <Gold.PLP.Chemscore.Hbond>
1.4380

> <Gold.PLP.Chemscore.CHOScore>
0.0000

> <Gold.PLP.Chemscore.Metal>
0.0000

> <Gold.Chemscore.Hbonds>
donor molecule, donor type, donor heavy atom, donor atom, acceptor molecule, acceptor atom, score
      P1  H  7989  7998       L1     4  0.94
      P1  H  7997  8008       L1     7  0.44

> <Gold.PLP.Chemscore.Internal.Correction>
0.1064

> <Gold.Rescore>
     Score         DG    S(hbond)    S(metal)    S(lipo)     H(rot)  DE(clash)    DE(int)     intcor
     12.85     -14.41       1.00        0.00      83.63       1.63       0.03       1.54       ----

> <Gold.Chemscore.Fitness>
12.8454

> <Gold.Chemscore.DG>
-14.4126

> <Gold.Chemscore.ZeroCoef>
-5.4800

> <Gold.Chemscore.Hbond>
0.9951

> <Gold.Chemscore.Metal>
0.0000

> <Gold.Chemscore.Lipo>
83.6311

> <Gold.Chemscore.Internal_Hbond>
0.0000

> <Gold.Chemscore.DEClash>
0.0289

> <Gold.Chemscore.DEInternal>
1.5384

> <Gold.Chemscore.Rot>
1.6312

> <Gold.Chemscore.Internal.Correction>
   9.000000E+99

> <Gold.Chemscore.Hbonds>
donor molecule, donor type, donor heavy atom, donor atom, acceptor molecule, acceptor atom, score
      P1  H  7989  7998       L1     4  0.59

> <Gold.Chemscore.Hbond.Weighted>
-3.3236

> <Gold.Chemscore.Metal.Weighted>
-0.0000

> <Gold.Chemscore.Lipo.Weighted>
-9.7848

> <Gold.Chemscore.Internal_Hbond.Weighted>
0.0000

> <Gold.Chemscore.DEClash.Weighted>
0.0289

> <Gold.Chemscore.DEInternal.Weighted>
1.5384

> <Gold.Chemscore.Rot.Weighted>
4.1758

> <Gold.Chemscore.Internal.Correction.Weighted>
   9.000000E+99

> <Gold.Protein.RotatedTorsions>
[ 6907 6896 6895 6894 ] final   55.06 input  -60.11 | X-H torsion
[ 7974 7965 7964 7962 ] final  -72.26 input  175.53 | X-H torsion
[ 8008 7997 7996 7995 ] final  -58.66 input   59.86 | X-H torsion
[ 10167 10162 10161 10158 ] final -153.42 input  -65.29 | X-H torsion
[ 10718 10713 10712 10709 ] final  172.00 input   66.30 | X-H torsion
[ 10763 10752 10751 10750 ] final -155.00 input  -60.55 | X-H torsion
[ 11005 11000 10999 10996 ] final  126.79 input  -57.11 | X-H torsion

> <Gold.Protein.ActiveResidues>
 VAL166  LYS551  ARG553  GLY616  TRP617  ASP618  TYR619  PRO620  LYS621  CYS622 
 ASP623  PHE694  ASN695  SER759  ASP760  ASP761  ALA762  ILE779  LEU786  VAL792 
 PHE793  MET794  SER795  GLU796  ALA797  LYS798  CYS799  TRP800  GLU811  SER814 

> <Gold.Protein.RotatedAtoms>
  152.3501  134.7017  160.0238 H   0  0  0  0  0  0  0  0  0  0  0  0  # atno 6907 bound_to 6896
  151.7374  133.3315  159.3364 H   0  0  0  0  0  0  0  0  0  0  0  0  # atno 6908 bound_to 6896
  150.7534  134.6242  159.6197 H   0  0  0  0  0  0  0  0  0  0  0  0  # atno 6909 bound_to 6896
  145.6674  140.9232  143.0901 H   0  0  0  0  0  0  0  0  0  0  0  0  # atno 7974 bound_to 7965
  154.4318  140.1079  156.5992 H   0  0  0  0  0  0  0  0  0  0  0  0  # atno 8008 bound_to 7997
  155.5929  140.3492  155.4553 H   0  0  0  0  0  0  0  0  0  0  0  0  # atno 8009 bound_to 7997
  156.0232  140.1244  157.0325 H   0  0  0  0  0  0  0  0  0  0  0  0  # atno 8010 bound_to 7997
  139.7098  143.9126  152.2463 H   0  0  0  0  0  0  0  0  0  0  0  0  # atno 10167 bound_to 10162
  156.9853  131.0131  151.2871 H   0  0  0  0  0  0  0  0  0  0  0  0  # atno 10718 bound_to 10713
  154.7818  135.3177  154.7972 H   0  0  0  0  0  0  0  0  0  0  0  0  # atno 10763 bound_to 10752
  153.8682  135.6847  153.4781 H   0  0  0  0  0  0  0  0  0  0  0  0  # atno 10764 bound_to 10752
  153.1457  135.4720  154.9500 H   0  0  0  0  0  0  0  0  0  0  0  0  # atno 10765 bound_to 10752
  139.9474  134.9627  156.8759 H   0  0  0  0  0  0  0  0  0  0  0  0  # atno 11005 bound_to 11000
  144.7068  139.8528  143.7427 LP  0  0  0  0  0  0  0  0  0  0  0  0  # atno 17320 bound_to 7965
  146.1074  139.4075  143.0309 LP  0  0  0  0  0  0  0  0  0  0  0  0  # atno 17321 bound_to 7965
  139.8992  144.6921  150.8684 LP  0  0  0  0  0  0  0  0  0  0  0  0  # atno 17342 bound_to 10162
  140.7730  143.3526  151.1983 LP  0  0  0  0  0  0  0  0  0  0  0  0  # atno 17343 bound_to 10162
  157.5497  130.8174  149.8130 LP  0  0  0  0  0  0  0  0  0  0  0  0  # atno 17370 bound_to 10713
  156.0228  130.3789  150.1911 LP  0  0  0  0  0  0  0  0  0  0  0  0  # atno 17371 bound_to 10713
  140.5801  134.0360  155.7461 LP  0  0  0  0  0  0  0  0  0  0  0  0  # atno 17394 bound_to 11000
  141.1128  133.9589  157.2878 LP  0  0  0  0  0  0  0  0  0  0  0  0  # atno 17395 bound_to 11000

$$$$
