AV-unprocessed.smi:3238|AV-procd|sdf|12378|dock4
  -GOLD-   2272018243D 1   1.00000     0.00000
 Structure written by MMmdl.
 37 39  0  0  0  0  0  0  0  0  1 V2000
  149.7963  134.6533  155.2805 C   0  0  0  0  0  0  0  0  0  0  0  0
  150.2400  135.9016  154.6803 N   0  0  0  0  0  0  0  0  0  0  0  0
  151.2277  136.6674  155.1689 C   0  0  0  0  0  0  0  0  0  0  0  0
  151.8751  136.3735  156.1737 O   0  0  0  0  0  0  0  0  0  0  0  0
  151.5417  137.9577  154.4064 C   0  0  0  0  0  0  0  0  0  0  0  0
  151.3271  139.1545  155.2771 C   0  0  0  0  0  0  0  0  0  0  0  0
  150.6705  140.2227  154.8388 N   0  0  0  0  0  0  0  0  0  0  0  0
  150.7338  141.1093  155.9235 O   0  0  0  0  0  0  0  0  0  0  0  0
  151.4068  140.4530  156.8988 C   0  0  0  0  0  0  0  0  0  0  0  0
  151.7222  141.1723  158.1684 C   0  0  0  0  0  0  0  0  0  0  0  0
  151.6217  142.7057  158.0335 C   0  0  1  0  0  0  0  0  0  0  0  0
  150.3751  143.3310  158.6941 C   0  0  0  0  0  0  0  0  0  0  0  0
  150.9691  144.4868  159.5225 C   0  0  1  0  0  0  0  0  0  0  0  0
  151.6788  143.9072  160.7592 C   0  0  0  0  0  0  0  0  0  0  0  0
  152.9397  143.2643  160.1533 C   0  0  0  0  0  0  0  0  0  0  0  0
  152.7754  143.5396  158.6437 C   0  0  2  0  0  0  0  0  0  0  0  0
  152.1494  144.9304  158.6642 C   0  0  0  0  0  0  0  0  0  0  0  0
  151.7996  139.2302  156.5520 N   0  0  0  0  0  0  0  0  0  0  0  0
  148.9756  134.2333  154.6994 H   0  0  0  0  0  0  0  0  0  0  0  0
  149.4433  134.8170  156.2996 H   0  0  0  0  0  0  0  0  0  0  0  0
  150.6069  133.9239  155.3047 H   0  0  0  0  0  0  0  0  0  0  0  0
  149.7563  136.2133  153.8500 H   0  0  0  0  0  0  0  0  0  0  0  0
  152.5735  137.9395  154.0524 H   0  0  0  0  0  0  0  0  0  0  0  0
  150.9042  138.0253  153.5240 H   0  0  0  0  0  0  0  0  0  0  0  0
  151.0393  140.8248  158.9443 H   0  0  0  0  0  0  0  0  0  0  0  0
  152.7208  140.8789  158.4929 H   0  0  0  0  0  0  0  0  0  0  0  0
  151.5914  142.9327  156.9662 H   0  0  0  0  0  0  0  0  0  0  0  0
  149.6885  143.7068  157.9344 H   0  0  0  0  0  0  0  0  0  0  0  0
  149.8235  142.6260  159.3176 H   0  0  0  0  0  0  0  0  0  0  0  0
  150.2491  145.2704  159.7601 H   0  0  0  0  0  0  0  0  0  0  0  0
  151.9506  144.6983  161.4593 H   0  0  0  0  0  0  0  0  0  0  0  0
  151.0590  143.1861  161.2934 H   0  0  0  0  0  0  0  0  0  0  0  0
  153.8355  143.7566  160.5343 H   0  0  0  0  0  0  0  0  0  0  0  0
  153.0266  142.2056  160.3937 H   0  0  0  0  0  0  0  0  0  0  0  0
  153.7089  143.4723  158.0837 H   0  0  0  0  0  0  0  0  0  0  0  0
  151.8554  145.2914  157.6770 H   0  0  0  0  0  0  0  0  0  0  0  0
  152.7775  145.6819  159.1464 H   0  0  0  0  0  0  0  0  0  0  0  0
  1  2  1  0  0  0  0
  1 19  1  0  0  0  0
  1 20  1  0  0  0  0
  1 21  1  0  0  0  0
  2  3  1  0  0  0  0
  2 22  1  0  0  0  0
  3  4  2  0  0  0  0
  3  5  1  0  0  0  0
  5  6  1  0  0  0  0
  5 23  1  0  0  0  0
  5 24  1  0  0  0  0
  6 18  1  0  0  0  0
  6  7  2  0  0  0  0
  7  8  1  0  0  0  0
  8  9  1  0  0  0  0
  9 10  1  0  0  0  0
  9 18  2  0  0  0  0
 10 11  1  0  0  0  0
 10 25  1  0  0  0  0
 10 26  1  0  0  0  0
 11 16  1  0  0  0  0
 11 12  1  0  0  0  0
 11 27  1  0  0  0  0
 12 13  1  0  0  0  0
 12 28  1  0  0  0  0
 12 29  1  0  0  0  0
 13 17  1  0  0  0  0
 13 14  1  0  0  0  0
 13 30  1  0  0  0  0
 14 15  1  0  0  0  0
 14 31  1  0  0  0  0
 14 32  1  0  0  0  0
 15 16  1  0  0  0  0
 15 33  1  0  0  0  0
 15 34  1  0  0  0  0
 16 17  1  0  0  0  0
 16 35  1  0  0  0  0
 17 36  1  0  0  0  0
 17 37  1  0  0  0  0
M  END
> <s_m_source_file>
AV-unprocessed.smi

> <i_m_source_file_index>
3238

> <i_lp_mmshare_version>
43012

> <i_f3d_flags>
0

> <s_epik_input>
W0NIM11bTkhdQyg9TylbQ0gyXWMxbm9jKG4xKVtDSDJdW0NASF0oW0NIMl1bQ0BIXTIzKVtDQEhdKFtDSDJdMylbQ0gyXVtDSDJdMg==

> <s_epik_cmdline>
J2VwaWtfcHl0aG9uJywgJy1waCcsICc3LjAnLCAnLXRuJywgJzgnLCAnLW1hJywgJzIwMCcsICctbWV0YWxfYmluZGluZycsICctaW1hZScsICc8aW5maWxlLm1hZT4nLCAnLW9tYWUnLCAnPG91dGZpbGUubWFlPic=

> <r_lp_tautomer_probability>
1

> <r_epik_Ionization_Penalty>
1.02915e-07

> <r_epik_Ionization_Penalty_Charging>
0

> <r_epik_Ionization_Penalty_Neutral>
1.02915e-07

> <r_epik_State_Penalty>
-0

> <r_epik_Charging_Adjusted_Penalty>
0

> <i_epik_Tot_Q>
0

> <i_epik_Tot_abs_Q>
0

> <r_epik_Metal_State_Penalty>
-0

> <b_epik_Metal_Only>
0

> <s_lp_Force_Field>
OPLS_2005

> <r_lp_Energy>
47.2904

> <b_lp_Chiralities_Consistent>
1

> <s_lp_Variant>
AV-unprocessed.smi:3238-4

> <Gold.Version>
5.8.1

> <Gold.Id.Protein>
6NUR|6NUR_protein|mol2

> <Gold.PLP.Fitness>
48.5640

> <Gold.PLP.PLP>
-41.7469

> <Gold.PLP.part.hbond>
-3.9802

> <Gold.PLP.part.metal>
0.0000

> <Gold.PLP.part.buried>
-5.1066

> <Gold.PLP.part.nonpolar>
-32.8621

> <Gold.PLP.part.repulsive>
0.2337

> <Gold.PLP.ligand.clash>
0.0000

> <Gold.PLP.ligand.torsion>
1.1001

> <Gold.PLP.Chemscore.Hbond>
3.0000

> <Gold.PLP.Chemscore.CHOScore>
0.0000

> <Gold.PLP.Chemscore.Metal>
0.0000

> <Gold.Chemscore.Hbonds>
donor molecule, donor type, donor heavy atom, donor atom, acceptor molecule, acceptor atom, score
      L1  H     2    22       P1  7948  0.81
      P1  H  7989  7998       L1     7  1.00
      P1  H 10752 10764       L1     4  0.45

> <Gold.PLP.Chemscore.Internal.Correction>
0.0173

> <Gold.Rescore>
     Score         DG    S(hbond)    S(metal)    S(lipo)     H(rot)  DE(clash)    DE(int)     intcor
     17.08     -18.52       1.80        0.00     100.49       1.85       0.12       1.31       ----

> <Gold.Chemscore.Fitness>
17.0792

> <Gold.Chemscore.DG>
-18.5160

> <Gold.Chemscore.ZeroCoef>
-5.4800

> <Gold.Chemscore.Hbond>
1.8000

> <Gold.Chemscore.Metal>
0.0000

> <Gold.Chemscore.Lipo>
100.4949

> <Gold.Chemscore.Internal_Hbond>
0.0000

> <Gold.Chemscore.DEClash>
0.1238

> <Gold.Chemscore.DEInternal>
1.3130

> <Gold.Chemscore.Rot>
1.8492

> <Gold.Chemscore.Internal.Correction>
   9.000000E+99

> <Gold.Chemscore.Hbonds>
donor molecule, donor type, donor heavy atom, donor atom, acceptor molecule, acceptor atom, score
      L1  H     2    22       P1  7948  0.27
      P1  H  7989  7998       L1     7  0.38
      P1  H 10752 10764       L1     4  0.02

> <Gold.Chemscore.Hbond.Weighted>
-6.0120

> <Gold.Chemscore.Metal.Weighted>
-0.0000

> <Gold.Chemscore.Lipo.Weighted>
-11.7579

> <Gold.Chemscore.Internal_Hbond.Weighted>
0.0000

> <Gold.Chemscore.DEClash.Weighted>
0.1238

> <Gold.Chemscore.DEInternal.Weighted>
1.3130

> <Gold.Chemscore.Rot.Weighted>
4.7340

> <Gold.Chemscore.Internal.Correction.Weighted>
   9.000000E+99

> <Gold.Protein.RotatedTorsions>
[ 6907 6896 6895 6894 ] final  143.44 input  -60.11 | X-H torsion
[ 7974 7965 7964 7962 ] final  -70.62 input  175.53 | X-H torsion
[ 8008 7997 7996 7995 ] final -114.67 input   59.86 | X-H torsion
[ 10167 10162 10161 10158 ] final  170.58 input  -65.29 | X-H torsion
[ 10718 10713 10712 10709 ] final  163.90 input   66.30 | X-H torsion
[ 10763 10752 10751 10750 ] final  -29.53 input  -60.55 | X-H torsion
[ 11005 11000 10999 10996 ] final  -16.26 input  -57.11 | X-H torsion

> <Gold.Protein.ActiveResidues>
 VAL166  LYS551  ARG553  GLY616  TRP617  ASP618  TYR619  PRO620  LYS621  CYS622 
 ASP623  PHE694  ASN695  SER759  ASP760  ASP761  ALA762  ILE779  LEU786  VAL792 
 PHE793  MET794  SER795  GLU796  ALA797  LYS798  CYS799  TRP800  GLU811  SER814 

> <Gold.Protein.RotatedAtoms>
  152.2062  133.4877  159.5085 H   0  0  0  0  0  0  0  0  0  0  0  0  # atno 6907 bound_to 6896
  150.6980  134.1526  159.4155 H   0  0  0  0  0  0  0  0  0  0  0  0  # atno 6908 bound_to 6896
  151.9444  135.0198  160.0588 H   0  0  0  0  0  0  0  0  0  0  0  0  # atno 6909 bound_to 6896
  145.6886  140.9161  143.0793 H   0  0  0  0  0  0  0  0  0  0  0  0  # atno 7974 bound_to 7965
  155.0400  140.0392  157.2506 H   0  0  0  0  0  0  0  0  0  0  0  0  # atno 8008 bound_to 7997
  154.7224  140.2714  155.6505 H   0  0  0  0  0  0  0  0  0  0  0  0  # atno 8009 bound_to 7997
  156.2820  140.2700  156.1900 H   0  0  0  0  0  0  0  0  0  0  0  0  # atno 8010 bound_to 7997
  139.5022  144.3581  151.9853 H   0  0  0  0  0  0  0  0  0  0  0  0  # atno 10167 bound_to 10162
  157.1020  131.0445  151.2494 H   0  0  0  0  0  0  0  0  0  0  0  0  # atno 10718 bound_to 10713
  153.7662  135.6915  153.4915 H   0  0  0  0  0  0  0  0  0  0  0  0  # atno 10763 bound_to 10752
  153.1905  135.4473  155.0142 H   0  0  0  0  0  0  0  0  0  0  0  0  # atno 10764 bound_to 10752
  154.8135  135.3388  154.7174 H   0  0  0  0  0  0  0  0  0  0  0  0  # atno 10765 bound_to 10752
  140.8050  133.8185  155.9507 H   0  0  0  0  0  0  0  0  0  0  0  0  # atno 11005 bound_to 11000
  144.7003  139.8792  143.7446 LP  0  0  0  0  0  0  0  0  0  0  0  0  # atno 17320 bound_to 7965
  146.0901  139.3891  143.0411 LP  0  0  0  0  0  0  0  0  0  0  0  0  # atno 17321 bound_to 7965
  140.3017  144.3639  150.6058 LP  0  0  0  0  0  0  0  0  0  0  0  0  # atno 17342 bound_to 10162
  140.5868  143.2169  151.7327 LP  0  0  0  0  0  0  0  0  0  0  0  0  # atno 17343 bound_to 10162
  157.4633  130.7666  149.7256 LP  0  0  0  0  0  0  0  0  0  0  0  0  # atno 17370 bound_to 10713
  155.9871  130.3969  150.3179 LP  0  0  0  0  0  0  0  0  0  0  0  0  # atno 17371 bound_to 10713
  140.9256  134.2086  157.4898 LP  0  0  0  0  0  0  0  0  0  0  0  0  # atno 17394 bound_to 11000
  139.8718  134.9811  156.5103 LP  0  0  0  0  0  0  0  0  0  0  0  0  # atno 17395 bound_to 11000

$$$$
