AV-unprocessed.smi:2294|AV-procd|sdf|9216|dock3
  -GOLD-   2272012433D 1   1.00000     0.00000
 Structure written by MMmdl.
 34 35  0  0  0  0  0  0  0  0  1 V2000
  152.4751  143.0873  161.5905 C   0  0  0  0  0  0  0  0  0  0  0  0
  152.1344  142.7069  160.1605 C   0  0  0  0  0  0  0  0  0  0  0  0
  151.2386  143.5578  159.5069 N   0  0  0  0  0  0  0  0  0  0  0  0
  150.8908  143.3123  158.2863 C   0  0  0  0  0  0  0  0  0  0  0  0
  151.3925  142.2038  157.5834 N   0  0  0  0  0  0  0  0  0  0  0  0
  150.9141  142.0367  156.2000 C   0  0  0  0  0  0  0  0  0  0  0  0
  150.4989  140.5804  155.8931 C   0  0  2  0  0  0  0  0  0  0  0  0
  151.5903  139.9070  155.2964 O   0  0  0  0  0  0  0  0  0  0  0  0
  149.2649  140.5482  154.9997 C   0  0  0  0  0  0  0  0  0  0  0  0
  148.5515  141.7355  154.7180 C   0  0  0  0  0  0  0  0  0  0  0  0
  147.4055  141.7014  153.9004 C   0  0  0  0  0  0  0  0  0  0  0  0
  146.9609  140.4796  153.3615 C   0  0  0  0  0  0  0  0  0  0  0  0
  147.6610  139.2916  153.6445 C   0  0  0  0  0  0  0  0  0  0  0  0
  148.8075  139.3231  154.4624 C   0  0  0  0  0  0  0  0  0  0  0  0
  149.4622  138.1680  154.7323 F   0  0  0  0  0  0  0  0  0  0  0  0
  152.2675  141.3219  158.1475 C   0  0  0  0  0  0  0  0  0  0  0  0
  152.7005  140.3500  157.5259 O   0  0  0  0  0  0  0  0  0  0  0  0
  152.6537  141.6137  159.5379 C   0  0  0  0  0  0  0  0  0  0  0  0
  153.6314  140.6510  160.2010 C   0  0  0  0  0  0  0  0  0  0  0  0
  152.1797  142.2940  162.2775 H   0  0  0  0  0  0  0  0  0  0  0  0
  151.9602  144.0001  161.8920 H   0  0  0  0  0  0  0  0  0  0  0  0
  153.5465  143.2595  161.6956 H   0  0  0  0  0  0  0  0  0  0  0  0
  150.1903  143.9405  157.7326 H   0  0  0  0  0  0  0  0  0  0  0  0
  150.0503  142.6899  156.0574 H   0  0  0  0  0  0  0  0  0  0  0  0
  151.6393  142.3932  155.4659 H   0  0  0  0  0  0  0  0  0  0  0  0
  150.2676  140.0533  156.8193 H   0  0  0  0  0  0  0  0  0  0  0  0
  151.5350  138.9901  155.5184 H   0  0  0  0  0  0  0  0  0  0  0  0
  148.8784  142.6788  155.1308 H   0  0  0  0  0  0  0  0  0  0  0  0
  146.8668  142.6133  153.6884 H   0  0  0  0  0  0  0  0  0  0  0  0
  146.0816  140.4532  152.7346 H   0  0  0  0  0  0  0  0  0  0  0  0
  147.3171  138.3532  153.2352 H   0  0  0  0  0  0  0  0  0  0  0  0
  154.5656  140.6178  159.6397 H   0  0  0  0  0  0  0  0  0  0  0  0
  153.2130  139.6441  160.2216 H   0  0  0  0  0  0  0  0  0  0  0  0
  153.8757  140.9245  161.2261 H   0  0  0  0  0  0  0  0  0  0  0  0
  1  2  1  0  0  0  0
  1 20  1  0  0  0  0
  1 21  1  0  0  0  0
  1 22  1  0  0  0  0
  2 18  2  0  0  0  0
  2  3  1  0  0  0  0
  3  4  2  0  0  0  0
  4  5  1  0  0  0  0
  4 23  1  0  0  0  0
  5  6  1  0  0  0  0
  5 16  1  0  0  0  0
  6  7  1  0  0  0  0
  6 24  1  0  0  0  0
  6 25  1  0  0  0  0
  7  8  1  0  0  0  0
  7  9  1  0  0  0  0
  7 26  1  0  0  0  0
  8 27  1  0  0  0  0
  9 14  1  0  0  0  0
  9 10  2  0  0  0  0
 10 11  1  0  0  0  0
 10 28  1  0  0  0  0
 11 12  2  0  0  0  0
 11 29  1  0  0  0  0
 12 13  1  0  0  0  0
 12 30  1  0  0  0  0
 13 14  2  0  0  0  0
 13 31  1  0  0  0  0
 14 15  1  0  0  0  0
 16 17  2  0  0  0  0
 16 18  1  0  0  0  0
 18 19  1  0  0  0  0
 19 32  1  0  0  0  0
 19 33  1  0  0  0  0
 19 34  1  0  0  0  0
M  END
> <s_m_source_file>
AV-unprocessed.smi

> <i_m_source_file_index>
2294

> <i_lp_mmshare_version>
43012

> <i_f3d_flags>
0

> <s_epik_input>
W0NIM11jMW5bY0hdbihjKD1PKWMxW0NIM10pW0NIMl1bQ0BIXShbT0hdKWMyW2NIXVtjSF1bY0hdW2NIXWMyRg==

> <s_epik_cmdline>
J2VwaWtfcHl0aG9uJywgJy1waCcsICc3LjAnLCAnLXRuJywgJzgnLCAnLW1hJywgJzIwMCcsICctbWV0YWxfYmluZGluZycsICctaW1hZScsICc8aW5maWxlLm1hZT4nLCAnLW9tYWUnLCAnPG91dGZpbGUubWFlPic=

> <r_lp_tautomer_probability>
1

> <r_epik_Ionization_Penalty>
5.07259e-05

> <r_epik_Ionization_Penalty_Charging>
7.56727e-08

> <r_epik_Ionization_Penalty_Neutral>
5.06502e-05

> <r_epik_State_Penalty>
-0

> <r_epik_Charging_Adjusted_Penalty>
7.56727e-08

> <i_epik_Tot_Q>
0

> <i_epik_Tot_abs_Q>
0

> <r_epik_Metal_State_Penalty>
-0

> <b_epik_Metal_Only>
0

> <s_lp_Force_Field>
OPLS_2005

> <r_lp_Energy>
20.4384

> <b_lp_Chiralities_Consistent>
1

> <s_lp_Variant>
AV-unprocessed.smi:2294-1

> <Gold.Version>
5.8.1

> <Gold.Id.Protein>
6NUR|6NUR_protein|mol2

> <Gold.PLP.Fitness>
47.3411

> <Gold.PLP.PLP>
-40.4645

> <Gold.PLP.part.hbond>
-2.0000

> <Gold.PLP.part.metal>
0.0000

> <Gold.PLP.part.buried>
-3.1819

> <Gold.PLP.part.nonpolar>
-34.0169

> <Gold.PLP.part.repulsive>
0.0363

> <Gold.PLP.ligand.clash>
0.0000

> <Gold.PLP.ligand.torsion>
0.8331

> <Gold.PLP.Chemscore.Hbond>
1.8440

> <Gold.PLP.Chemscore.CHOScore>
1.0000

> <Gold.PLP.Chemscore.Metal>
0.0000

> <Gold.Chemscore.Hbonds>
donor molecule, donor type, donor heavy atom, donor atom, acceptor molecule, acceptor atom, score
      P1  H  7989  7998       L1     8  0.99
      P1  H  7997  8008       L1    17  0.93
      L1  C     4    23       P1  8028  0.96

> <Gold.PLP.Chemscore.Internal.Correction>
0.0110

> <Gold.Rescore>
     Score         DG    S(hbond)    S(metal)    S(lipo)     H(rot)  DE(clash)    DE(int)     intcor
     11.21     -16.63       1.72        0.00      90.31       2.02       0.30       5.12       ----

> <Gold.Chemscore.Fitness>
11.2080

> <Gold.Chemscore.DG>
-16.6254

> <Gold.Chemscore.ZeroCoef>
-5.4800

> <Gold.Chemscore.Hbond>
1.7201

> <Gold.Chemscore.Metal>
0.0000

> <Gold.Chemscore.Lipo>
90.3125

> <Gold.Chemscore.Internal_Hbond>
0.0000

> <Gold.Chemscore.DEClash>
0.2967

> <Gold.Chemscore.DEInternal>
5.1207

> <Gold.Chemscore.Rot>
2.0181

> <Gold.Chemscore.Internal.Correction>
   9.000000E+99

> <Gold.Chemscore.Hbonds>
donor molecule, donor type, donor heavy atom, donor atom, acceptor molecule, acceptor atom, score
      P1  H  7989  7998       L1     8  0.23
      P1  H  7997  8008       L1    17  0.89

> <Gold.Chemscore.Hbond.Weighted>
-5.7452

> <Gold.Chemscore.Metal.Weighted>
-0.0000

> <Gold.Chemscore.Lipo.Weighted>
-10.5666

> <Gold.Chemscore.Internal_Hbond.Weighted>
0.0000

> <Gold.Chemscore.DEClash.Weighted>
0.2967

> <Gold.Chemscore.DEInternal.Weighted>
5.1207

> <Gold.Chemscore.Rot.Weighted>
5.1663

> <Gold.Chemscore.Internal.Correction.Weighted>
   9.000000E+99

> <Gold.Protein.RotatedTorsions>
[ 6907 6896 6895 6894 ] final   43.49 input  -60.11 | X-H torsion
[ 7974 7965 7964 7962 ] final   67.57 input  175.53 | X-H torsion
[ 8008 7997 7996 7995 ] final  -64.92 input   59.86 | X-H torsion
[ 10167 10162 10161 10158 ] final   12.17 input  -65.29 | X-H torsion
[ 10718 10713 10712 10709 ] final    5.34 input   66.30 | X-H torsion
[ 10763 10752 10751 10750 ] final   -9.20 input  -60.55 | X-H torsion
[ 11005 11000 10999 10996 ] final  -11.65 input  -57.11 | X-H torsion

> <Gold.Protein.ActiveResidues>
 VAL166  LYS551  ARG553  GLY616  TRP617  ASP618  TYR619  PRO620  LYS621  CYS622 
 ASP623  PHE694  ASN695  SER759  ASP760  ASP761  ALA762  ILE779  LEU786  VAL792 
 PHE793  MET794  SER795  GLU796  ALA797  LYS798  CYS799  TRP800  GLU811  SER814 

> <Gold.Protein.RotatedAtoms>
  152.2209  134.8413  160.0485 H   0  0  0  0  0  0  0  0  0  0  0  0  # atno 6907 bound_to 6896
  151.9197  133.3577  159.3901 H   0  0  0  0  0  0  0  0  0  0  0  0  # atno 6908 bound_to 6896
  150.7000  134.4573  159.5408 H   0  0  0  0  0  0  0  0  0  0  0  0  # atno 6909 bound_to 6896
  145.8130  139.3043  143.1088 H   0  0  0  0  0  0  0  0  0  0  0  0  # atno 7974 bound_to 7965
  154.4640  140.0944  156.6970 H   0  0  0  0  0  0  0  0  0  0  0  0  # atno 8008 bound_to 7997
  155.4911  140.3471  155.4337 H   0  0  0  0  0  0  0  0  0  0  0  0  # atno 8009 bound_to 7997
  156.0923  140.1400  156.9565 H   0  0  0  0  0  0  0  0  0  0  0  0  # atno 8010 bound_to 7997
  140.6085  143.8458  150.7039 H   0  0  0  0  0  0  0  0  0  0  0  0  # atno 10167 bound_to 10162
  156.9060  130.5739  149.5647 H   0  0  0  0  0  0  0  0  0  0  0  0  # atno 10718 bound_to 10713
  153.4514  135.7015  153.6106 H   0  0  0  0  0  0  0  0  0  0  0  0  # atno 10763 bound_to 10752
  153.4439  135.3773  155.2245 H   0  0  0  0  0  0  0  0  0  0  0  0  # atno 10764 bound_to 10752
  154.8728  135.3980  154.3927 H   0  0  0  0  0  0  0  0  0  0  0  0  # atno 10765 bound_to 10752
  140.7575  133.8542  155.9096 H   0  0  0  0  0  0  0  0  0  0  0  0  # atno 11005 bound_to 11000
  145.9757  140.8724  143.0140 LP  0  0  0  0  0  0  0  0  0  0  0  0  # atno 17320 bound_to 7965
  144.6755  140.2008  143.7387 LP  0  0  0  0  0  0  0  0  0  0  0  0  # atno 17321 bound_to 7965
  140.2021  143.3951  152.1784 LP  0  0  0  0  0  0  0  0  0  0  0  0  # atno 17342 bound_to 10162
  139.5343  144.7193  151.4948 LP  0  0  0  0  0  0  0  0  0  0  0  0  # atno 17343 bound_to 10162
  156.0559  130.5620  150.9090 LP  0  0  0  0  0  0  0  0  0  0  0  0  # atno 17370 bound_to 10713
  157.5997  131.0941  150.8981 LP  0  0  0  0  0  0  0  0  0  0  0  0  # atno 17371 bound_to 10713
  140.9694  134.1551  157.4589 LP  0  0  0  0  0  0  0  0  0  0  0  0  # atno 17394 bound_to 11000
  139.8776  134.9973  156.5840 LP  0  0  0  0  0  0  0  0  0  0  0  0  # atno 17395 bound_to 11000

$$$$
