AV-unprocessed.smi:3032|AV-procd|sdf|11565|dock8
  -GOLD-   2272016533D 1   1.00000     0.00000
 Structure written by MMmdl.
 37 38  0  0  0  0  0  0  0  0  1 V2000
  151.9414  146.0512  159.9286 C   0  0  0  0  0  0  0  0  0  0  0  0
  151.8685  144.5195  159.8592 C   0  0  2  0  0  0  0  0  0  0  0  0
  152.5320  143.8682  161.0866 C   0  0  0  0  0  0  0  0  0  0  0  0
  152.4418  142.3356  161.0317 C   0  0  0  0  0  0  0  0  0  0  0  0
  153.0257  141.7755  159.7189 C   0  0  0  0  0  0  0  0  0  0  0  0
  152.4519  142.4452  158.4459 C   0  0  1  0  0  0  0  0  0  0  0  0
  151.0391  141.9630  158.0678 C   0  0  0  0  0  0  0  0  0  0  0  0
  150.0911  142.0877  158.8427 O   0  0  0  0  0  0  0  0  0  0  0  0
  150.9148  141.4138  156.8499 N   0  0  0  0  0  0  0  0  0  0  0  0
  149.6629  140.9595  156.2513 C   0  0  0  0  0  0  0  0  0  0  0  0
  149.8496  140.3168  154.8607 C   0  0  0  0  0  0  0  0  0  0  0  0
  150.8944  139.2456  154.8201 C   0  0  0  0  0  0  0  0  0  0  0  0
  150.6676  137.9678  154.4926 N   0  0  0  0  0  0  0  0  0  0  0  0
  151.8941  137.3317  154.6052 N   0  0  0  0  0  0  0  0  0  0  0  0
  152.7417  138.2883  154.9871 C   0  0  0  0  0  0  0  0  0  0  0  0
  152.1759  139.4915  155.1337 N   0  0  0  0  0  0  0  0  0  0  0  0
  152.5154  143.9851  158.5651 C   0  0  0  0  0  0  0  0  0  0  0  0
  152.6029  140.3619  155.4159 H   0  0  0  0  0  0  0  0  0  0  0  0
  152.9747  146.3993  159.9384 H   0  0  0  0  0  0  0  0  0  0  0  0
  151.4547  146.4265  160.8291 H   0  0  0  0  0  0  0  0  0  0  0  0
  151.4444  146.5072  159.0721 H   0  0  0  0  0  0  0  0  0  0  0  0
  150.8125  144.2466  159.8584 H   0  0  0  0  0  0  0  0  0  0  0  0
  153.5795  144.1679  161.1414 H   0  0  0  0  0  0  0  0  0  0  0  0
  152.0602  144.2276  162.0016 H   0  0  0  0  0  0  0  0  0  0  0  0
  152.9749  141.9062  161.8802 H   0  0  0  0  0  0  0  0  0  0  0  0
  151.4031  142.0294  161.1492 H   0  0  0  0  0  0  0  0  0  0  0  0
  154.1067  141.9215  159.7293 H   0  0  0  0  0  0  0  0  0  0  0  0
  152.8747  140.6958  159.6807 H   0  0  0  0  0  0  0  0  0  0  0  0
  153.0991  142.1527  157.6174 H   0  0  0  0  0  0  0  0  0  0  0  0
  151.7436  141.3419  156.2772 H   0  0  0  0  0  0  0  0  0  0  0  0
  149.2362  140.2214  156.9308 H   0  0  0  0  0  0  0  0  0  0  0  0
  148.9479  141.7815  156.2004 H   0  0  0  0  0  0  0  0  0  0  0  0
  148.9033  139.8937  154.5225 H   0  0  0  0  0  0  0  0  0  0  0  0
  150.1123  141.0853  154.1323 H   0  0  0  0  0  0  0  0  0  0  0  0
  153.7917  138.1073  155.1639 H   0  0  0  0  0  0  0  0  0  0  0  0
  152.0419  144.4474  157.6974 H   0  0  0  0  0  0  0  0  0  0  0  0
  153.5597  144.2980  158.5299 H   0  0  0  0  0  0  0  0  0  0  0  0
  1  2  1  0  0  0  0
  1 19  1  0  0  0  0
  1 20  1  0  0  0  0
  1 21  1  0  0  0  0
  2 17  1  0  0  0  0
  2  3  1  0  0  0  0
  2 22  1  0  0  0  0
  3  4  1  0  0  0  0
  3 23  1  0  0  0  0
  3 24  1  0  0  0  0
  4  5  1  0  0  0  0
  4 25  1  0  0  0  0
  4 26  1  0  0  0  0
  5  6  1  0  0  0  0
  5 27  1  0  0  0  0
  5 28  1  0  0  0  0
  6  7  1  0  0  0  0
  6 17  1  0  0  0  0
  6 29  1  0  0  0  0
  7  8  2  0  0  0  0
  7  9  1  0  0  0  0
  9 10  1  0  0  0  0
  9 30  1  0  0  0  0
 10 11  1  0  0  0  0
 10 31  1  0  0  0  0
 10 32  1  0  0  0  0
 11 12  1  0  0  0  0
 11 33  1  0  0  0  0
 11 34  1  0  0  0  0
 12 16  1  0  0  0  0
 12 13  2  0  0  0  0
 13 14  1  0  0  0  0
 14 15  2  0  0  0  0
 15 16  1  0  0  0  0
 15 35  1  0  0  0  0
 16 18  1  0  0  0  0
 17 36  1  0  0  0  0
 17 37  1  0  0  0  0
M  END
> <s_m_source_file>
AV-unprocessed.smi

> <i_m_source_file_index>
3032

> <i_lp_mmshare_version>
43012

> <i_f3d_flags>
0

> <s_epik_input>
W0NIM11bQ0BASF0xW0NIMl1bQ0gyXVtDSDJdW0NASF0oW0NIMl0xKUMoPU8pW05IXVtDSDJdW0NIMl1jMm5uW2NIXVtuSF0y

> <s_epik_cmdline>
J2VwaWtfcHl0aG9uJywgJy1waCcsICc3LjAnLCAnLXRuJywgJzgnLCAnLW1hJywgJzIwMCcsICctbWV0YWxfYmluZGluZycsICctaW1hZScsICc8aW5maWxlLm1hZT4nLCAnLW9tYWUnLCAnPG91dGZpbGUubWFlPic=

> <r_lp_tautomer_probability>
0.0517155

> <r_epik_Ionization_Penalty>
0.00149837

> <r_epik_Ionization_Penalty_Charging>
0

> <r_epik_Ionization_Penalty_Neutral>
0.00149837

> <r_epik_State_Penalty>
2.1109

> <r_epik_Charging_Adjusted_Penalty>
2.1109

> <i_epik_Tot_Q>
0

> <i_epik_Tot_abs_Q>
0

> <r_epik_Metal_State_Penalty>
2.23635

> <b_epik_Metal_Only>
0

> <s_lp_Force_Field>
OPLS_2005

> <r_lp_Energy>
9.22736

> <b_lp_Chiralities_Consistent>
1

> <s_lp_Variant>
AV-unprocessed.smi:3032-9

> <Gold.Version>
5.8.1

> <Gold.Id.Protein>
6NUR|6NUR_protein|mol2

> <Gold.PLP.Fitness>
41.8661

> <Gold.PLP.PLP>
-39.2819

> <Gold.PLP.part.hbond>
-2.0000

> <Gold.PLP.part.metal>
0.0000

> <Gold.PLP.part.buried>
-4.6109

> <Gold.PLP.part.nonpolar>
-33.1622

> <Gold.PLP.part.repulsive>
1.9450

> <Gold.PLP.ligand.clash>
0.0000

> <Gold.PLP.ligand.torsion>
0.0745

> <Gold.PLP.Chemscore.Hbond>
0.8960

> <Gold.PLP.Chemscore.CHOScore>
0.0000

> <Gold.PLP.Chemscore.Metal>
0.0000

> <Gold.Chemscore.Hbonds>
donor molecule, donor type, donor heavy atom, donor atom, acceptor molecule, acceptor atom, score
      P1  H 10752 10763       L1    14  0.94

> <Gold.PLP.Chemscore.Internal.Correction>
0.0451

> <Gold.Rescore>
     Score         DG    S(hbond)    S(metal)    S(lipo)     H(rot)  DE(clash)    DE(int)     intcor
     11.67     -13.08       0.77        0.00      92.31       2.25       0.00       1.41       ----

> <Gold.Chemscore.Fitness>
11.6734

> <Gold.Chemscore.DG>
-13.0850

> <Gold.Chemscore.ZeroCoef>
-5.4800

> <Gold.Chemscore.Hbond>
0.7679

> <Gold.Chemscore.Metal>
0.0000

> <Gold.Chemscore.Lipo>
92.3115

> <Gold.Chemscore.Internal_Hbond>
0.0000

> <Gold.Chemscore.DEClash>
0.0029

> <Gold.Chemscore.DEInternal>
1.4087

> <Gold.Chemscore.Rot>
2.2501

> <Gold.Chemscore.Internal.Correction>
   9.000000E+99

> <Gold.Chemscore.Hbonds>
donor molecule, donor type, donor heavy atom, donor atom, acceptor molecule, acceptor atom, score
      P1  H 10752 10763       L1    14  0.57

> <Gold.Chemscore.Hbond.Weighted>
-2.5648

> <Gold.Chemscore.Metal.Weighted>
-0.0000

> <Gold.Chemscore.Lipo.Weighted>
-10.8005

> <Gold.Chemscore.Internal_Hbond.Weighted>
0.0000

> <Gold.Chemscore.DEClash.Weighted>
0.0029

> <Gold.Chemscore.DEInternal.Weighted>
1.4087

> <Gold.Chemscore.Rot.Weighted>
5.7603

> <Gold.Chemscore.Internal.Correction.Weighted>
   9.000000E+99

> <Gold.Protein.RotatedTorsions>
[ 6907 6896 6895 6894 ] final   75.70 input  -60.11 | X-H torsion
[ 7974 7965 7964 7962 ] final -177.37 input  175.53 | X-H torsion
[ 8008 7997 7996 7995 ] final   10.95 input   59.86 | X-H torsion
[ 10167 10162 10161 10158 ] final   -4.66 input  -65.29 | X-H torsion
[ 10718 10713 10712 10709 ] final -167.44 input   66.30 | X-H torsion
[ 10763 10752 10751 10750 ] final   46.50 input  -60.55 | X-H torsion
[ 11005 11000 10999 10996 ] final -122.35 input  -57.11 | X-H torsion

> <Gold.Protein.ActiveResidues>
 VAL166  LYS551  ARG553  GLY616  TRP617  ASP618  TYR619  PRO620  LYS621  CYS622 
 ASP623  PHE694  ASN695  SER759  ASP760  ASP761  ALA762  ILE779  LEU786  VAL792 
 PHE793  MET794  SER795  GLU796  ALA797  LYS798  CYS799  TRP800  GLU811  SER814 

> <Gold.Protein.RotatedAtoms>
  152.5038  134.4081  159.9439 H   0  0  0  0  0  0  0  0  0  0  0  0  # atno 6907 bound_to 6896
  151.4048  133.3740  159.2744 H   0  0  0  0  0  0  0  0  0  0  0  0  # atno 6908 bound_to 6896
  150.9335  134.8770  159.7626 H   0  0  0  0  0  0  0  0  0  0  0  0  # atno 6909 bound_to 6896
  144.7127  140.1029  143.6415 H   0  0  0  0  0  0  0  0  0  0  0  0  # atno 7974 bound_to 7965
  154.8004  140.2851  155.5926 H   0  0  0  0  0  0  0  0  0  0  0  0  # atno 8008 bound_to 7997
  156.2976  140.2587  156.2800 H   0  0  0  0  0  0  0  0  0  0  0  0  # atno 8009 bound_to 7997
  154.9565  140.0378  157.2159 H   0  0  0  0  0  0  0  0  0  0  0  0  # atno 8010 bound_to 7997
  140.6935  143.6398  150.8446 H   0  0  0  0  0  0  0  0  0  0  0  0  # atno 10167 bound_to 10162
  156.6824  130.9127  151.3058 H   0  0  0  0  0  0  0  0  0  0  0  0  # atno 10718 bound_to 10713
  152.9810  135.6006  154.3610 H   0  0  0  0  0  0  0  0  0  0  0  0  # atno 10763 bound_to 10752
  154.3292  135.2769  155.2482 H   0  0  0  0  0  0  0  0  0  0  0  0  # atno 10764 bound_to 10752
  154.4614  135.5965  153.6314 H   0  0  0  0  0  0  0  0  0  0  0  0  # atno 10765 bound_to 10752
  141.0002  134.0414  157.3547 H   0  0  0  0  0  0  0  0  0  0  0  0  # atno 11005 bound_to 11000
  145.9522  139.2741  143.1205 LP  0  0  0  0  0  0  0  0  0  0  0  0  # atno 17320 bound_to 7965
  145.9311  140.9048  143.0356 LP  0  0  0  0  0  0  0  0  0  0  0  0  # atno 17321 bound_to 7965
  140.0113  143.5639  152.2838 LP  0  0  0  0  0  0  0  0  0  0  0  0  # atno 17342 bound_to 10162
  139.6364  144.7650  151.2429 LP  0  0  0  0  0  0  0  0  0  0  0  0  # atno 17343 bound_to 10162
  157.7039  130.9363  150.0869 LP  0  0  0  0  0  0  0  0  0  0  0  0  # atno 17370 bound_to 10713
  156.1858  130.3652  149.8975 LP  0  0  0  0  0  0  0  0  0  0  0  0  # atno 17371 bound_to 10713
  139.9035  135.0172  156.7378 LP  0  0  0  0  0  0  0  0  0  0  0  0  # atno 17394 bound_to 11000
  140.6902  133.9397  155.7961 LP  0  0  0  0  0  0  0  0  0  0  0  0  # atno 17395 bound_to 11000

$$$$
