AV-unprocessed.smi:512|AV-procd|sdf|2769|dock9
  -GOLD-   2262023233D 1   1.00000     0.00000
 Structure written by MMmdl.
 48 50  0  0  0  0  0  0  0  0  1 V2000
  147.6204  135.9342  162.6347 C   0  0  0  0  0  0  0  0  0  0  0  0
  147.3257  135.4658  161.2081 C   0  0  0  0  0  0  0  0  0  0  0  0
  148.2044  136.1367  160.3233 O   0  0  0  0  0  0  0  0  0  0  0  0
  148.1900  135.5981  159.0116 C   0  0  0  0  0  0  0  0  0  0  0  0
  149.3504  136.1931  158.2018 C   0  0  0  0  0  0  0  0  0  0  0  0
  149.4465  135.5877  156.8746 N   0  0  0  0  0  0  0  0  0  0  0  0
  149.4809  136.2062  155.6626 C   0  0  0  0  0  0  0  0  0  0  0  0
  149.4681  137.5952  155.5352 N   0  0  0  0  0  0  0  0  0  0  0  0
  150.0694  138.3892  154.4664 C   0  0  0  0  0  0  0  0  0  0  0  0
  150.9117  139.5434  155.0441 C   0  0  0  0  0  0  0  0  0  0  0  0
  150.0458  140.4249  155.8265 N   0  0  0  0  0  0  0  0  0  0  0  0
  150.8324  141.5147  156.3851 C   0  0  0  0  0  0  0  0  0  0  0  0
  149.4396  139.6494  156.9090 C   0  0  0  0  0  0  0  0  0  0  0  0
  148.6168  138.4884  156.3152 C   0  0  0  0  0  0  0  0  0  0  0  0
  149.4713  135.3787  154.6143 N   0  0  0  0  0  0  0  0  0  0  0  0
  149.4560  134.1246  155.2043 C   0  0  0  0  0  0  0  0  0  0  0  0
  149.4322  134.2267  156.5579 C   0  0  0  0  0  0  0  0  0  0  0  0
  149.3603  133.0466  157.4325 C   0  0  0  0  0  0  0  0  0  0  0  0
  149.3233  133.1080  158.6592 O   0  0  0  0  0  0  0  0  0  0  0  0
  149.3291  131.8776  156.7478 N   0  0  0  0  0  0  0  0  0  0  0  0
  149.3535  131.7071  155.3912 C   0  0  0  0  0  0  0  0  0  0  0  0
  149.3073  130.5737  154.9131 O   0  0  0  0  0  0  0  0  0  0  0  0
  149.4264  132.8312  154.6092 N   0  0  0  0  0  0  0  0  0  0  0  0
  149.4504  132.7109  153.1502 C   0  0  0  0  0  0  0  0  0  0  0  0
  149.2756  131.0358  157.3026 H   0  0  0  0  0  0  0  0  0  0  0  0
  146.9694  135.4343  163.3520 H   0  0  0  0  0  0  0  0  0  0  0  0
  147.4647  137.0090  162.7327 H   0  0  0  0  0  0  0  0  0  0  0  0
  148.6526  135.7185  162.9116 H   0  0  0  0  0  0  0  0  0  0  0  0
  147.4678  134.3867  161.1332 H   0  0  0  0  0  0  0  0  0  0  0  0
  146.2889  135.6840  160.9486 H   0  0  0  0  0  0  0  0  0  0  0  0
  148.2875  134.5123  159.0533 H   0  0  0  0  0  0  0  0  0  0  0  0
  147.2404  135.8227  158.5245 H   0  0  0  0  0  0  0  0  0  0  0  0
  149.2303  137.2689  158.1172 H   0  0  0  0  0  0  0  0  0  0  0  0
  150.2898  136.0614  158.7339 H   0  0  0  0  0  0  0  0  0  0  0  0
  150.6729  137.7571  153.8164 H   0  0  0  0  0  0  0  0  0  0  0  0
  149.2773  138.7886  153.8313 H   0  0  0  0  0  0  0  0  0  0  0  0
  151.7234  139.1556  155.6617 H   0  0  0  0  0  0  0  0  0  0  0  0
  151.3669  140.1098  154.2308 H   0  0  0  0  0  0  0  0  0  0  0  0
  150.1989  142.1816  156.9710 H   0  0  0  0  0  0  0  0  0  0  0  0
  151.2884  142.1039  155.5888 H   0  0  0  0  0  0  0  0  0  0  0  0
  151.6275  141.1415  157.0325 H   0  0  0  0  0  0  0  0  0  0  0  0
  150.2086  139.2640  157.5809 H   0  0  0  0  0  0  0  0  0  0  0  0
  148.7897  140.2959  157.4998 H   0  0  0  0  0  0  0  0  0  0  0  0
  147.8082  138.8689  155.6894 H   0  0  0  0  0  0  0  0  0  0  0  0
  148.1480  137.9262  157.1237 H   0  0  0  0  0  0  0  0  0  0  0  0
  150.1932  131.9791  152.8284 H   0  0  0  0  0  0  0  0  0  0  0  0
  149.6977  133.6521  152.6592 H   0  0  0  0  0  0  0  0  0  0  0  0
  148.4751  132.3905  152.7822 H   0  0  0  0  0  0  0  0  0  0  0  0
  1  2  1  0  0  0  0
  1 26  1  0  0  0  0
  1 27  1  0  0  0  0
  1 28  1  0  0  0  0
  2  3  1  0  0  0  0
  2 29  1  0  0  0  0
  2 30  1  0  0  0  0
  3  4  1  0  0  0  0
  4  5  1  0  0  0  0
  4 31  1  0  0  0  0
  4 32  1  0  0  0  0
  5  6  1  0  0  0  0
  5 33  1  0  0  0  0
  5 34  1  0  0  0  0
  6 17  1  0  0  0  0
  6  7  1  0  0  0  0
  7  8  1  0  0  0  0
  7 15  2  0  0  0  0
  8 14  1  0  0  0  0
  8  9  1  0  0  0  0
  9 10  1  0  0  0  0
  9 35  1  0  0  0  0
  9 36  1  0  0  0  0
 10 11  1  0  0  0  0
 10 37  1  0  0  0  0
 10 38  1  0  0  0  0
 11 12  1  0  0  0  0
 11 13  1  0  0  0  0
 12 39  1  0  0  0  0
 12 40  1  0  0  0  0
 12 41  1  0  0  0  0
 13 14  1  0  0  0  0
 13 42  1  0  0  0  0
 13 43  1  0  0  0  0
 14 44  1  0  0  0  0
 14 45  1  0  0  0  0
 15 16  1  0  0  0  0
 16 23  1  0  0  0  0
 16 17  2  0  0  0  0
 17 18  1  0  0  0  0
 18 19  2  0  0  0  0
 18 20  1  0  0  0  0
 20 25  1  0  0  0  0
 20 21  1  0  0  0  0
 21 22  2  0  0  0  0
 21 23  1  0  0  0  0
 23 24  1  0  0  0  0
 24 46  1  0  0  0  0
 24 47  1  0  0  0  0
 24 48  1  0  0  0  0
M  END
> <s_m_source_file>
AV-unprocessed.smi

> <i_m_source_file_index>
512

> <i_lp_mmshare_version>
43012

> <i_f3d_flags>
0

> <s_epik_input>
W0NIM11uMWMoPU8pW25IXWMoPU8pYyhjMTIpbihbQ0gyXVtDSDJdT1tDSDJdW0NIM10pYyhuMilOM1tDSDJdW0NIMl1OKFtDSDNdKVtDSDJdW0NIMl0z

> <s_epik_cmdline>
J2VwaWtfcHl0aG9uJywgJy1waCcsICc3LjAnLCAnLXRuJywgJzgnLCAnLW1hJywgJzIwMCcsICctbWV0YWxfYmluZGluZycsICctaW1hZScsICc8aW5maWxlLm1hZT4nLCAnLW9tYWUnLCAnPG91dGZpbGUubWFlPic=

> <r_epik_Ionization_Penalty>
1.34391

> <r_epik_Ionization_Penalty_Charging>
1.55829e-05

> <r_epik_Ionization_Penalty_Neutral>
1.34389

> <r_epik_State_Penalty>
1.4212

> <r_epik_Charging_Adjusted_Penalty>
1.42122

> <i_epik_Tot_Q>
0

> <i_epik_Tot_abs_Q>
0

> <r_epik_Metal_State_Penalty>
1.44738

> <b_epik_Metal_Only>
0

> <s_lp_Force_Field>
OPLS_2005

> <r_lp_Energy>
48.5788

> <b_lp_Chiralities_Consistent>
1

> <s_lp_Variant>
AV-unprocessed.smi:512-2

> <Gold.Version>
5.8.1

> <Gold.Id.Protein>
6NUR|6NUR_protein|mol2

> <Gold.PLP.Fitness>
31.6549

> <Gold.PLP.PLP>
-29.6170

> <Gold.PLP.part.hbond>
-1.0000

> <Gold.PLP.part.metal>
0.0000

> <Gold.PLP.part.buried>
-4.7507

> <Gold.PLP.part.nonpolar>
-25.0614

> <Gold.PLP.part.repulsive>
1.6961

> <Gold.PLP.ligand.clash>
0.0000

> <Gold.PLP.ligand.torsion>
0.7105

> <Gold.PLP.Chemscore.Hbond>
1.0000

> <Gold.PLP.Chemscore.CHOScore>
0.0000

> <Gold.PLP.Chemscore.Metal>
0.0000

> <Gold.Chemscore.Hbonds>
donor molecule, donor type, donor heavy atom, donor atom, acceptor molecule, acceptor atom, score
      P1  H  6896  6908       L1    19  1.00

> <Gold.PLP.Chemscore.Internal.Correction>
0.4589

> <Gold.Rescore>
     Score         DG    S(hbond)    S(metal)    S(lipo)     H(rot)  DE(clash)    DE(int)     intcor
      9.74     -11.42       0.97        0.00      58.93       1.63       0.78       0.89       ----

> <Gold.Chemscore.Fitness>
9.7425

> <Gold.Chemscore.DG>
-11.4186

> <Gold.Chemscore.ZeroCoef>
-5.4800

> <Gold.Chemscore.Hbond>
0.9651

> <Gold.Chemscore.Metal>
0.0000

> <Gold.Chemscore.Lipo>
58.9340

> <Gold.Chemscore.Internal_Hbond>
0.0000

> <Gold.Chemscore.DEClash>
0.7818

> <Gold.Chemscore.DEInternal>
0.8943

> <Gold.Chemscore.Rot>
1.6328

> <Gold.Chemscore.Internal.Correction>
   9.000000E+99

> <Gold.Chemscore.Hbonds>
donor molecule, donor type, donor heavy atom, donor atom, acceptor molecule, acceptor atom, score
      P1  H  6896  6908       L1    19  0.78

> <Gold.Chemscore.Hbond.Weighted>
-3.2234

> <Gold.Chemscore.Metal.Weighted>
-0.0000

> <Gold.Chemscore.Lipo.Weighted>
-6.8953

> <Gold.Chemscore.Internal_Hbond.Weighted>
0.0000

> <Gold.Chemscore.DEClash.Weighted>
0.7818

> <Gold.Chemscore.DEInternal.Weighted>
0.8943

> <Gold.Chemscore.Rot.Weighted>
4.1800

> <Gold.Chemscore.Internal.Correction.Weighted>
   9.000000E+99

> <Gold.Protein.RotatedTorsions>
[ 6907 6896 6895 6894 ] final  121.65 input  -60.11 | X-H torsion
[ 7974 7965 7964 7962 ] final -114.90 input  175.53 | X-H torsion
[ 8008 7997 7996 7995 ] final -124.71 input   59.86 | X-H torsion
[ 10167 10162 10161 10158 ] final  -49.81 input  -65.29 | X-H torsion
[ 10718 10713 10712 10709 ] final   49.73 input   66.30 | X-H torsion
[ 10763 10752 10751 10750 ] final   92.24 input  -60.55 | X-H torsion
[ 11005 11000 10999 10996 ] final  -20.98 input  -57.11 | X-H torsion

> <Gold.Protein.ActiveResidues>
 VAL166  LYS551  ARG553  GLY616  TRP617  ASP618  TYR619  PRO620  LYS621  CYS622 
 ASP623  PHE694  ASN695  SER759  ASP760  ASP761  ALA762  ILE779  LEU786  VAL792 
 PHE793  MET794  SER795  GLU796  ALA797  LYS798  CYS799  TRP800  GLU811  SER814 

> <Gold.Protein.RotatedAtoms>
  152.4305  133.7269  159.6565 H   0  0  0  0  0  0  0  0  0  0  0  0  # atno 6907 bound_to 6896
  150.8184  133.8286  159.3156 H   0  0  0  0  0  0  0  0  0  0  0  0  # atno 6908 bound_to 6896
  151.5975  135.1051  160.0104 H   0  0  0  0  0  0  0  0  0  0  0  0  # atno 6909 bound_to 6896
  145.1148  140.8633  143.3849 H   0  0  0  0  0  0  0  0  0  0  0  0  # atno 7974 bound_to 7965
  155.2013  140.0416  157.2918 H   0  0  0  0  0  0  0  0  0  0  0  0  # atno 8008 bound_to 7997
  154.6073  140.2467  155.7686 H   0  0  0  0  0  0  0  0  0  0  0  0  # atno 8009 bound_to 7997
  156.2358  140.2922  156.0317 H   0  0  0  0  0  0  0  0  0  0  0  0  # atno 8010 bound_to 7997
  140.6667  143.2682  151.4269 H   0  0  0  0  0  0  0  0  0  0  0  0  # atno 10167 bound_to 10162
  157.4815  130.8318  149.8098 H   0  0  0  0  0  0  0  0  0  0  0  0  # atno 10718 bound_to 10713
  153.2170  135.4368  155.0446 H   0  0  0  0  0  0  0  0  0  0  0  0  # atno 10763 bound_to 10752
  154.8230  135.3347  154.6983 H   0  0  0  0  0  0  0  0  0  0  0  0  # atno 10764 bound_to 10752
  153.7417  135.7004  153.5021 H   0  0  0  0  0  0  0  0  0  0  0  0  # atno 10765 bound_to 10752
  140.8517  133.7852  155.9974 H   0  0  0  0  0  0  0  0  0  0  0  0  # atno 11005 bound_to 11000
  145.0807  139.2962  143.5785 LP  0  0  0  0  0  0  0  0  0  0  0  0  # atno 17320 bound_to 7965
  146.3524  140.0312  142.8650 LP  0  0  0  0  0  0  0  0  0  0  0  0  # atno 17321 bound_to 7965
  139.5919  144.1480  152.2098 LP  0  0  0  0  0  0  0  0  0  0  0  0  # atno 17342 bound_to 10162
  140.0838  144.5678  150.7103 LP  0  0  0  0  0  0  0  0  0  0  0  0  # atno 17343 bound_to 10162
  156.0124  130.3827  150.2221 LP  0  0  0  0  0  0  0  0  0  0  0  0  # atno 17370 bound_to 10713
  157.0407  131.0034  151.3284 LP  0  0  0  0  0  0  0  0  0  0  0  0  # atno 17371 bound_to 10713
  140.8782  134.2643  157.5157 LP  0  0  0  0  0  0  0  0  0  0  0  0  # atno 17394 bound_to 11000
  139.8704  134.9602  156.4356 LP  0  0  0  0  0  0  0  0  0  0  0  0  # atno 17395 bound_to 11000

$$$$
