AV-unprocessed.smi:2336|AV-procd|sdf|9332|dock7
  -GOLD-   2272012553D 1   1.00000     0.00000
 Structure written by MMmdl.
 49 50  0  0  0  0  0  0  0  0  1 V2000
  146.8330  142.0733  154.0109 C   0  0  0  0  0  0  0  0  0  0  0  0
  146.1914  140.8556  154.7003 C   0  0  0  0  0  0  0  0  0  0  0  0
  146.0571  141.1006  156.2153 C   0  0  0  0  0  0  0  0  0  0  0  0
  146.8574  139.4901  154.3128 C   0  0  1  0  0  0  0  0  0  0  0  0
  146.7894  139.2325  152.7785 C   0  0  0  0  0  0  0  0  0  0  0  0
  146.9391  137.8181  152.4490 N   0  0  0  0  0  0  0  0  0  0  0  0
  145.9432  136.9278  152.3519 C   0  0  0  0  0  0  0  0  0  0  0  0
  144.7624  137.1995  152.5686 O   0  0  0  0  0  0  0  0  0  0  0  0
  146.4145  135.7190  152.0028 N   0  0  0  0  0  0  0  0  0  0  0  0
  145.6956  134.5222  151.7361 C   0  0  0  0  0  0  0  0  0  0  0  0
  144.3520  134.4831  151.2900 C   0  0  0  0  0  0  0  0  0  0  0  0
  143.7616  133.2285  151.0374 C   0  0  0  0  0  0  0  0  0  0  0  0
  144.4116  132.0555  151.1911 N   0  0  0  0  0  0  0  0  0  0  0  0
  145.6956  132.0974  151.6048 C   0  0  0  0  0  0  0  0  0  0  0  0
  146.3798  133.2973  151.8842 C   0  0  0  0  0  0  0  0  0  0  0  0
  147.6723  133.2685  152.2908 F   0  0  0  0  0  0  0  0  0  0  0  0
  148.2160  139.2846  154.8795 N   0  0  0  0  0  0  0  0  0  0  0  0
  149.2550  140.0048  154.1241 C   0  0  0  0  0  0  0  0  0  0  0  0
  150.6592  139.8128  154.7254 C   0  0  0  0  0  0  0  0  0  0  0  0
  151.0323  138.4037  154.7661 N   0  0  0  0  0  0  0  0  0  0  0  0
  152.3635  138.2184  155.3231 C   0  0  0  0  0  0  0  0  0  0  0  0
  150.0242  137.6814  155.5331 C   0  0  0  0  0  0  0  0  0  0  0  0
  148.6173  137.8694  154.9356 C   0  0  0  0  0  0  0  0  0  0  0  0
  147.8024  142.3264  154.4396 H   0  0  0  0  0  0  0  0  0  0  0  0
  146.2001  142.9545  154.1190 H   0  0  0  0  0  0  0  0  0  0  0  0
  146.9680  141.8984  152.9433 H   0  0  0  0  0  0  0  0  0  0  0  0
  145.1808  140.8479  154.2960 H   0  0  0  0  0  0  0  0  0  0  0  0
  147.0206  141.2989  156.6828 H   0  0  0  0  0  0  0  0  0  0  0  0
  145.6047  140.2499  156.7246 H   0  0  0  0  0  0  0  0  0  0  0  0
  145.4251  141.9675  156.4095 H   0  0  0  0  0  0  0  0  0  0  0  0
  146.2147  138.7292  154.7589 H   0  0  0  0  0  0  0  0  0  0  0  0
  145.8330  139.5682  152.3788 H   0  0  0  0  0  0  0  0  0  0  0  0
  147.5192  139.8402  152.2461 H   0  0  0  0  0  0  0  0  0  0  0  0
  147.8785  137.5030  152.2537 H   0  0  0  0  0  0  0  0  0  0  0  0
  147.4192  135.6343  151.9500 H   0  0  0  0  0  0  0  0  0  0  0  0
  143.7720  135.3775  151.1246 H   0  0  0  0  0  0  0  0  0  0  0  0
  142.7392  133.1665  150.6948 H   0  0  0  0  0  0  0  0  0  0  0  0
  146.1946  131.1459  151.7138 H   0  0  0  0  0  0  0  0  0  0  0  0
  149.2534  139.6785  153.0827 H   0  0  0  0  0  0  0  0  0  0  0  0
  149.0559  141.0747  154.1181 H   0  0  0  0  0  0  0  0  0  0  0  0
  151.3849  140.3679  154.1301 H   0  0  0  0  0  0  0  0  0  0  0  0
  150.6888  140.2386  155.7299 H   0  0  0  0  0  0  0  0  0  0  0  0
  152.6343  137.1622  155.3327 H   0  0  0  0  0  0  0  0  0  0  0  0
  152.4191  138.5929  156.3463 H   0  0  0  0  0  0  0  0  0  0  0  0
  153.1082  138.7467  154.7269 H   0  0  0  0  0  0  0  0  0  0  0  0
  150.2680  136.6186  155.5514 H   0  0  0  0  0  0  0  0  0  0  0  0
  150.0285  138.0200  156.5705 H   0  0  0  0  0  0  0  0  0  0  0  0
  147.9363  137.3016  155.5662 H   0  0  0  0  0  0  0  0  0  0  0  0
  148.5747  137.4269  153.9393 H   0  0  0  0  0  0  0  0  0  0  0  0
  1  2  1  0  0  0  0
  1 24  1  0  0  0  0
  1 25  1  0  0  0  0
  1 26  1  0  0  0  0
  2  3  1  0  0  0  0
  2  4  1  0  0  0  0
  2 27  1  0  0  0  0
  3 28  1  0  0  0  0
  3 29  1  0  0  0  0
  3 30  1  0  0  0  0
  4  5  1  0  0  0  0
  4 17  1  0  0  0  0
  4 31  1  0  0  0  0
  5  6  1  0  0  0  0
  5 32  1  0  0  0  0
  5 33  1  0  0  0  0
  6  7  1  0  0  0  0
  6 34  1  0  0  0  0
  7  8  2  0  0  0  0
  7  9  1  0  0  0  0
  9 10  1  0  0  0  0
  9 35  1  0  0  0  0
 10 15  1  0  0  0  0
 10 11  2  0  0  0  0
 11 12  1  0  0  0  0
 11 36  1  0  0  0  0
 12 13  2  0  0  0  0
 12 37  1  0  0  0  0
 13 14  1  0  0  0  0
 14 15  2  0  0  0  0
 14 38  1  0  0  0  0
 15 16  1  0  0  0  0
 17 23  1  0  0  0  0
 17 18  1  0  0  0  0
 18 19  1  0  0  0  0
 18 39  1  0  0  0  0
 18 40  1  0  0  0  0
 19 20  1  0  0  0  0
 19 41  1  0  0  0  0
 19 42  1  0  0  0  0
 20 21  1  0  0  0  0
 20 22  1  0  0  0  0
 21 43  1  0  0  0  0
 21 44  1  0  0  0  0
 21 45  1  0  0  0  0
 22 23  1  0  0  0  0
 22 46  1  0  0  0  0
 22 47  1  0  0  0  0
 23 48  1  0  0  0  0
 23 49  1  0  0  0  0
M  END
> <s_m_source_file>
AV-unprocessed.smi

> <i_m_source_file_index>
2336

> <i_lp_mmshare_version>
43012

> <i_f3d_flags>
0

> <s_epik_input>
W0NIMl0xW0NIMl1OKFtDSDNdKVtDSDJdW0NIMl1OMVtDQEhdKFtDSF0oW0NIM10pW0NIM10pW0NIMl1bTkhdQyg9TylbTkhdYzJbY0hdW2NIXW5bY0hdYzJG

> <s_epik_cmdline>
J2VwaWtfcHl0aG9uJywgJy1waCcsICc3LjAnLCAnLXRuJywgJzgnLCAnLW1hJywgJzIwMCcsICctbWV0YWxfYmluZGluZycsICctaW1hZScsICc8aW5maWxlLm1hZT4nLCAnLW9tYWUnLCAnPG91dGZpbGUubWFlPic=

> <r_epik_Ionization_Penalty>
2.58102

> <r_epik_Ionization_Penalty_Charging>
0

> <r_epik_Ionization_Penalty_Neutral>
2.58102

> <r_epik_State_Penalty>
2.00874

> <r_epik_Charging_Adjusted_Penalty>
2.00874

> <i_epik_Tot_Q>
0

> <i_epik_Tot_abs_Q>
0

> <r_epik_Metal_State_Penalty>
2.00867

> <b_epik_Metal_Only>
0

> <s_lp_Force_Field>
OPLS_2005

> <r_lp_Energy>
52.4608

> <b_lp_Chiralities_Consistent>
1

> <s_lp_Variant>
AV-unprocessed.smi:2336-6

> <Gold.Version>
5.8.1

> <Gold.Id.Protein>
6NUR|6NUR_protein|mol2

> <Gold.PLP.Fitness>
41.7797

> <Gold.PLP.PLP>
-33.9892

> <Gold.PLP.part.hbond>
-2.0000

> <Gold.PLP.part.metal>
0.0000

> <Gold.PLP.part.buried>
-3.1305

> <Gold.PLP.part.nonpolar>
-29.8260

> <Gold.PLP.part.repulsive>
0.6781

> <Gold.PLP.ligand.clash>
0.0000

> <Gold.PLP.ligand.torsion>
0.7405

> <Gold.PLP.Chemscore.Hbond>
1.9920

> <Gold.PLP.Chemscore.CHOScore>
1.0000

> <Gold.PLP.Chemscore.Metal>
0.0000

> <Gold.Chemscore.Hbonds>
donor molecule, donor type, donor heavy atom, donor atom, acceptor molecule, acceptor atom, score
      L1  H     6    34       P1  7948  1.00
      L1  H     9    35       P1  7948  1.00
      L1  C    12    37       P1 10186  1.00

> <Gold.PLP.Chemscore.Internal.Correction>
0.2956

> <Gold.Rescore>
     Score         DG    S(hbond)    S(metal)    S(lipo)     H(rot)  DE(clash)    DE(int)     intcor
     14.49     -17.06       1.95        0.00      78.93       1.63       0.00       2.57       ----

> <Gold.Chemscore.Fitness>
14.4857

> <Gold.Chemscore.DG>
-17.0617

> <Gold.Chemscore.ZeroCoef>
-5.4800

> <Gold.Chemscore.Hbond>
1.9502

> <Gold.Chemscore.Metal>
0.0000

> <Gold.Chemscore.Lipo>
78.9325

> <Gold.Chemscore.Internal_Hbond>
0.0000

> <Gold.Chemscore.DEClash>
0.0033

> <Gold.Chemscore.DEInternal>
2.5727

> <Gold.Chemscore.Rot>
1.6277

> <Gold.Chemscore.Internal.Correction>
   9.000000E+99

> <Gold.Chemscore.Hbonds>
donor molecule, donor type, donor heavy atom, donor atom, acceptor molecule, acceptor atom, score
      L1  H     6    34       P1  7948  0.94
      L1  H     9    35       P1  7948  0.97

> <Gold.Chemscore.Hbond.Weighted>
-6.5136

> <Gold.Chemscore.Metal.Weighted>
-0.0000

> <Gold.Chemscore.Lipo.Weighted>
-9.2351

> <Gold.Chemscore.Internal_Hbond.Weighted>
0.0000

> <Gold.Chemscore.DEClash.Weighted>
0.0033

> <Gold.Chemscore.DEInternal.Weighted>
2.5727

> <Gold.Chemscore.Rot.Weighted>
4.1670

> <Gold.Chemscore.Internal.Correction.Weighted>
   9.000000E+99

> <Gold.Protein.RotatedTorsions>
[ 6907 6896 6895 6894 ] final  128.78 input  -60.11 | X-H torsion
[ 7974 7965 7964 7962 ] final   -8.90 input  175.53 | X-H torsion
[ 8008 7997 7996 7995 ] final  -62.28 input   59.86 | X-H torsion
[ 10167 10162 10161 10158 ] final  -93.74 input  -65.29 | X-H torsion
[ 10718 10713 10712 10709 ] final  154.03 input   66.30 | X-H torsion
[ 10763 10752 10751 10750 ] final -127.14 input  -60.55 | X-H torsion
[ 11005 11000 10999 10996 ] final   45.74 input  -57.11 | X-H torsion

> <Gold.Protein.ActiveResidues>
 VAL166  LYS551  ARG553  GLY616  TRP617  ASP618  TYR619  PRO620  LYS621  CYS622 
 ASP623  PHE694  ASN695  SER759  ASP760  ASP761  ALA762  ILE779  LEU786  VAL792 
 PHE793  MET794  SER795  GLU796  ALA797  LYS798  CYS799  TRP800  GLU811  SER814 

> <Gold.Protein.RotatedAtoms>
  152.3687  133.6390  159.6069 H   0  0  0  0  0  0  0  0  0  0  0  0  # atno 6907 bound_to 6896
  150.7652  133.9306  159.3434 H   0  0  0  0  0  0  0  0  0  0  0  0  # atno 6908 bound_to 6896
  151.7133  135.0910  160.0322 H   0  0  0  0  0  0  0  0  0  0  0  0  # atno 6909 bound_to 6896
  146.2267  140.2536  142.8348 H   0  0  0  0  0  0  0  0  0  0  0  0  # atno 7974 bound_to 7965
  154.4491  140.0999  156.6563 H   0  0  0  0  0  0  0  0  0  0  0  0  # atno 8008 bound_to 7997
  155.5343  140.3482  155.4414 H   0  0  0  0  0  0  0  0  0  0  0  0  # atno 8009 bound_to 7997
  156.0642  140.1334  156.9894 H   0  0  0  0  0  0  0  0  0  0  0  0  # atno 8010 bound_to 7997
  140.3215  143.3046  152.0041 H   0  0  0  0  0  0  0  0  0  0  0  0  # atno 10167 bound_to 10162
  157.2370  131.0751  151.1816 H   0  0  0  0  0  0  0  0  0  0  0  0  # atno 10718 bound_to 10713
  154.8750  135.3972  154.3545 H   0  0  0  0  0  0  0  0  0  0  0  0  # atno 10763 bound_to 10752
  153.4326  135.7025  153.6226 H   0  0  0  0  0  0  0  0  0  0  0  0  # atno 10764 bound_to 10752
  153.4841  135.3762  155.2427 H   0  0  0  0  0  0  0  0  0  0  0  0  # atno 10765 bound_to 10752
  140.1432  134.4556  155.8435 H   0  0  0  0  0  0  0  0  0  0  0  0  # atno 11005 bound_to 11000
  144.9393  140.8061  143.5640 LP  0  0  0  0  0  0  0  0  0  0  0  0  # atno 17320 bound_to 7965
  145.2486  139.2041  143.4954 LP  0  0  0  0  0  0  0  0  0  0  0  0  # atno 17321 bound_to 7965
  139.4873  144.6307  151.7076 LP  0  0  0  0  0  0  0  0  0  0  0  0  # atno 17342 bound_to 10162
  140.5479  144.0473  150.6114 LP  0  0  0  0  0  0  0  0  0  0  0  0  # atno 17343 bound_to 10162
  157.3418  130.7037  149.6386 LP  0  0  0  0  0  0  0  0  0  0  0  0  # atno 17370 bound_to 10713
  155.9672  130.4277  150.4758 LP  0  0  0  0  0  0  0  0  0  0  0  0  # atno 17371 bound_to 10713
  141.2189  133.6841  156.7285 LP  0  0  0  0  0  0  0  0  0  0  0  0  # atno 17394 bound_to 11000
  140.2696  134.8402  157.3835 LP  0  0  0  0  0  0  0  0  0  0  0  0  # atno 17395 bound_to 11000

$$$$
