AV-unprocessed.smi:2663|AV-procd|sdf|10322|dock1
  -GOLD-   2272014333D 1   1.00000     0.00000
 Structure written by MMmdl.
 39 40  0  0  0  0  0  0  0  0  1 V2000
  144.6839  135.4507  154.0778 C   0  0  0  0  0  0  0  0  0  0  0  0
  144.9523  136.0270  152.6677 C   0  0  1  0  0  0  0  0  0  0  0  0
  143.8192  137.0362  152.3162 C   0  0  0  0  0  0  0  0  0  0  0  0
  143.4184  137.8087  153.4324 O   0  0  0  0  0  0  0  0  0  0  0  0
  146.2396  136.7385  152.7510 N   0  0  0  0  0  0  0  0  0  0  0  0
  146.5383  137.8557  153.4374 C   0  0  0  0  0  0  0  0  0  0  0  0
  145.7266  138.4854  154.1154 O   0  0  0  0  0  0  0  0  0  0  0  0
  147.8320  138.1849  153.2778 N   0  0  0  0  0  0  0  0  0  0  0  0
  148.5362  139.2856  153.8341 C   0  0  0  0  0  0  0  0  0  0  0  0
  149.8153  139.2252  154.2371 N   0  0  0  0  0  0  0  0  0  0  0  0
  150.2593  140.4406  154.7416 N   0  0  0  0  0  0  0  0  0  0  0  0
  149.2991  141.3685  154.6998 C   0  0  0  0  0  0  0  0  0  0  0  0
  147.7582  140.8488  154.0395 S   0  0  0  0  0  0  0  0  0  0  0  0
  145.0318  134.8804  151.5945 C   0  0  0  0  0  0  0  0  0  0  0  0
  143.7844  133.9604  151.5456 C   0  0  0  0  0  0  0  0  0  0  0  0
  143.8686  132.9407  150.3977 C   0  0  0  0  0  0  0  0  0  0  0  0
  145.1435  132.0921  150.4962 C   0  0  0  0  0  0  0  0  0  0  0  0
  146.3918  132.9834  150.5438 C   0  0  0  0  0  0  0  0  0  0  0  0
  146.3075  134.0008  151.6930 C   0  0  0  0  0  0  0  0  0  0  0  0
  143.7093  134.9674  154.1415 H   0  0  0  0  0  0  0  0  0  0  0  0
  144.6946  136.2345  154.8360 H   0  0  0  0  0  0  0  0  0  0  0  0
  145.4363  134.7204  154.3735 H   0  0  0  0  0  0  0  0  0  0  0  0
  144.1238  137.7146  151.5192 H   0  0  0  0  0  0  0  0  0  0  0  0
  142.9324  136.5173  151.9546 H   0  0  0  0  0  0  0  0  0  0  0  0
  143.3334  138.7090  153.1583 H   0  0  0  0  0  0  0  0  0  0  0  0
  146.9946  136.3142  152.2329 H   0  0  0  0  0  0  0  0  0  0  0  0
  148.3796  137.5734  152.6906 H   0  0  0  0  0  0  0  0  0  0  0  0
  149.5000  142.3664  155.0601 H   0  0  0  0  0  0  0  0  0  0  0  0
  145.0740  135.3665  150.6194 H   0  0  0  0  0  0  0  0  0  0  0  0
  143.6750  133.4202  152.4859 H   0  0  0  0  0  0  0  0  0  0  0  0
  142.8740  134.5429  151.4146 H   0  0  0  0  0  0  0  0  0  0  0  0
  142.9912  132.2935  150.4119 H   0  0  0  0  0  0  0  0  0  0  0  0
  143.8499  133.4642  149.4411 H   0  0  0  0  0  0  0  0  0  0  0  0
  145.1022  131.4705  151.3914 H   0  0  0  0  0  0  0  0  0  0  0  0
  145.2044  131.4105  149.6473 H   0  0  0  0  0  0  0  0  0  0  0  0
  147.2835  132.3664  150.6588 H   0  0  0  0  0  0  0  0  0  0  0  0
  146.5024  133.5114  149.5958 H   0  0  0  0  0  0  0  0  0  0  0  0
  147.2098  134.6112  151.6723 H   0  0  0  0  0  0  0  0  0  0  0  0
  146.3234  133.4631  152.6409 H   0  0  0  0  0  0  0  0  0  0  0  0
  1  2  1  0  0  0  0
  1 20  1  0  0  0  0
  1 21  1  0  0  0  0
  1 22  1  0  0  0  0
  2  3  1  0  0  0  0
  2  5  1  0  0  0  0
  2 14  1  0  0  0  0
  3  4  1  0  0  0  0
  3 23  1  0  0  0  0
  3 24  1  0  0  0  0
  4 25  1  0  0  0  0
  5  6  1  0  0  0  0
  5 26  1  0  0  0  0
  6  7  2  0  0  0  0
  6  8  1  0  0  0  0
  8  9  1  0  0  0  0
  8 27  1  0  0  0  0
  9 13  1  0  0  0  0
  9 10  2  0  0  0  0
 10 11  1  0  0  0  0
 11 12  2  0  0  0  0
 12 13  1  0  0  0  0
 12 28  1  0  0  0  0
 14 19  1  0  0  0  0
 14 15  1  0  0  0  0
 14 29  1  0  0  0  0
 15 16  1  0  0  0  0
 15 30  1  0  0  0  0
 15 31  1  0  0  0  0
 16 17  1  0  0  0  0
 16 32  1  0  0  0  0
 16 33  1  0  0  0  0
 17 18  1  0  0  0  0
 17 34  1  0  0  0  0
 17 35  1  0  0  0  0
 18 19  1  0  0  0  0
 18 36  1  0  0  0  0
 18 37  1  0  0  0  0
 19 38  1  0  0  0  0
 19 39  1  0  0  0  0
M  END
> <s_m_source_file>
AV-unprocessed.smi

> <i_m_source_file_index>
2663

> <i_lp_mmshare_version>
43012

> <i_f3d_flags>
0

> <s_epik_input>
W0NIMl0xW0NIMl1bQ0gyXVtDSDJdW0NIMl1bQ0hdMVtDQF0oW0NIM10pKFtDSDJdW09IXSlbTkhdQyg9TylbTkhdYzJubltjSF1zMg==

> <s_epik_cmdline>
J2VwaWtfcHl0aG9uJywgJy1waCcsICc3LjAnLCAnLXRuJywgJzgnLCAnLW1hJywgJzIwMCcsICctbWV0YWxfYmluZGluZycsICctaW1hZScsICc8aW5maWxlLm1hZT4nLCAnLW9tYWUnLCAnPG91dGZpbGUubWFlPic=

> <r_lp_tautomer_probability>
1

> <r_epik_Ionization_Penalty>
0.000410407

> <r_epik_Ionization_Penalty_Charging>
0

> <r_epik_Ionization_Penalty_Neutral>
0.000410407

> <r_epik_State_Penalty>
-0

> <r_epik_Charging_Adjusted_Penalty>
0

> <i_epik_Tot_Q>
0

> <i_epik_Tot_abs_Q>
0

> <r_epik_Metal_State_Penalty>
0.197604

> <b_epik_Metal_Only>
0

> <s_lp_Force_Field>
OPLS_2005

> <r_lp_Energy>
19.5674

> <b_lp_Chiralities_Consistent>
1

> <s_lp_Variant>
AV-unprocessed.smi:2663-1

> <Gold.Version>
5.8.1

> <Gold.Id.Protein>
6NUR|6NUR_protein|mol2

> <Gold.PLP.Fitness>
44.2398

> <Gold.PLP.PLP>
-30.7686

> <Gold.PLP.part.hbond>
-4.1320

> <Gold.PLP.part.metal>
0.0000

> <Gold.PLP.part.buried>
-3.1407

> <Gold.PLP.part.nonpolar>
-24.5411

> <Gold.PLP.part.repulsive>
0.4561

> <Gold.PLP.ligand.clash>
0.0000

> <Gold.PLP.ligand.torsion>
0.7715

> <Gold.PLP.Chemscore.Hbond>
3.9840

> <Gold.PLP.Chemscore.CHOScore>
1.0000

> <Gold.PLP.Chemscore.Metal>
0.0000

> <Gold.Chemscore.Hbonds>
donor molecule, donor type, donor heavy atom, donor atom, acceptor molecule, acceptor atom, score
      L1  H     4    25       P1 10175  1.00
      L1  H     5    26       P1  7948  0.98
      L1  H     8    27       P1  7948  1.00
      P1  H  7989  7998       L1    11  0.99
      L1  C    12    28       P1  8028  1.00

> <Gold.PLP.Chemscore.Internal.Correction>
0.0622

> <Gold.Rescore>
     Score         DG    S(hbond)    S(metal)    S(lipo)     H(rot)  DE(clash)    DE(int)     intcor
     14.49     -17.34       3.04        0.00      63.00       2.21       0.09       2.76       ----

> <Gold.Chemscore.Fitness>
14.4870

> <Gold.Chemscore.DG>
-17.3372

> <Gold.Chemscore.ZeroCoef>
-5.4800

> <Gold.Chemscore.Hbond>
3.0385

> <Gold.Chemscore.Metal>
0.0000

> <Gold.Chemscore.Lipo>
63.0030

> <Gold.Chemscore.Internal_Hbond>
0.0000

> <Gold.Chemscore.DEClash>
0.0859

> <Gold.Chemscore.DEInternal>
2.7644

> <Gold.Chemscore.Rot>
2.2120

> <Gold.Chemscore.Internal.Correction>
   9.000000E+99

> <Gold.Chemscore.Hbonds>
donor molecule, donor type, donor heavy atom, donor atom, acceptor molecule, acceptor atom, score
      L1  H     4    25       P1 10175  1.00
      L1  H     5    26       P1  7948  0.91
      L1  H     8    27       P1  7948  1.00
      P1  H  7989  7998       L1    11  0.20

> <Gold.Chemscore.Hbond.Weighted>
-10.1486

> <Gold.Chemscore.Metal.Weighted>
-0.0000

> <Gold.Chemscore.Lipo.Weighted>
-7.3713

> <Gold.Chemscore.Internal_Hbond.Weighted>
0.0000

> <Gold.Chemscore.DEClash.Weighted>
0.0859

> <Gold.Chemscore.DEInternal.Weighted>
2.7644

> <Gold.Chemscore.Rot.Weighted>
5.6627

> <Gold.Chemscore.Internal.Correction.Weighted>
   9.000000E+99

> <Gold.Protein.RotatedTorsions>
[ 6907 6896 6895 6894 ] final -123.25 input  -60.11 | X-H torsion
[ 7974 7965 7964 7962 ] final  -61.00 input  175.53 | X-H torsion
[ 8008 7997 7996 7995 ] final  159.31 input   59.86 | X-H torsion
[ 10167 10162 10161 10158 ] final -125.45 input  -65.29 | X-H torsion
[ 10718 10713 10712 10709 ] final  132.51 input   66.30 | X-H torsion
[ 10763 10752 10751 10750 ] final   53.77 input  -60.55 | X-H torsion
[ 11005 11000 10999 10996 ] final  107.51 input  -57.11 | X-H torsion

> <Gold.Protein.ActiveResidues>
 VAL166  LYS551  ARG553  GLY616  TRP617  ASP618  TYR619  PRO620  LYS621  CYS622 
 ASP623  PHE694  ASN695  SER759  ASP760  ASP761  ALA762  ILE779  LEU786  VAL792 
 PHE793  MET794  SER795  GLU796  ALA797  LYS798  CYS799  TRP800  GLU811  SER814 

> <Gold.Protein.RotatedAtoms>
  150.8653  133.7584  159.2978 H   0  0  0  0  0  0  0  0  0  0  0  0  # atno 6907 bound_to 6896
  151.5214  135.1065  159.9889 H   0  0  0  0  0  0  0  0  0  0  0  0  # atno 6908 bound_to 6896
  152.4656  133.7871  159.6938 H   0  0  0  0  0  0  0  0  0  0  0  0  # atno 6909 bound_to 6896
  145.8087  140.8612  143.0193 H   0  0  0  0  0  0  0  0  0  0  0  0  # atno 7974 bound_to 7965
  156.2247  140.1835  156.7392 H   0  0  0  0  0  0  0  0  0  0  0  0  # atno 8008 bound_to 7997
  154.5922  140.0649  156.9282 H   0  0  0  0  0  0  0  0  0  0  0  0  # atno 8009 bound_to 7997
  155.2317  140.3315  155.4305 H   0  0  0  0  0  0  0  0  0  0  0  0  # atno 8010 bound_to 7997
  139.9819  143.5733  152.2375 H   0  0  0  0  0  0  0  0  0  0  0  0  # atno 10167 bound_to 10162
  157.4864  131.1088  150.9615 H   0  0  0  0  0  0  0  0  0  0  0  0  # atno 10718 bound_to 10713
  152.9798  135.5767  154.4795 H   0  0  0  0  0  0  0  0  0  0  0  0  # atno 10763 bound_to 10752
  154.4346  135.2774  155.1891 H   0  0  0  0  0  0  0  0  0  0  0  0  # atno 10764 bound_to 10752
  154.3585  135.6194  153.5732 H   0  0  0  0  0  0  0  0  0  0  0  0  # atno 10765 bound_to 10752
  139.8829  134.9403  156.5831 H   0  0  0  0  0  0  0  0  0  0  0  0  # atno 11005 bound_to 11000
  144.6760  140.0364  143.7481 LP  0  0  0  0  0  0  0  0  0  0  0  0  # atno 17320 bound_to 7965
  145.9800  139.2934  143.1047 LP  0  0  0  0  0  0  0  0  0  0  0  0  # atno 17321 bound_to 7965
  139.6403  144.7654  151.2352 LP  0  0  0  0  0  0  0  0  0  0  0  0  # atno 17342 bound_to 10162
  140.7486  143.6328  150.8407 LP  0  0  0  0  0  0  0  0  0  0  0  0  # atno 17343 bound_to 10162
  157.0331  130.5719  149.5346 LP  0  0  0  0  0  0  0  0  0  0  0  0  # atno 17370 bound_to 10713
  156.0149  130.5243  150.8104 LP  0  0  0  0  0  0  0  0  0  0  0  0  # atno 17371 bound_to 10713
  140.8012  133.8504  155.8728 LP  0  0  0  0  0  0  0  0  0  0  0  0  # atno 17394 bound_to 11000
  140.9591  134.1679  157.4668 LP  0  0  0  0  0  0  0  0  0  0  0  0  # atno 17395 bound_to 11000

$$$$
