AV-unprocessed.smi:2191|AV-procd|sdf|8895|dock3
  -GOLD-   2272012103D 1   1.00000     0.00000
 Structure written by MMmdl.
 37 39  0  0  0  0  0  0  0  0  2 V2000
  150.9657  140.1282  154.5728 O   0  0  0  0  0  0  0  0  0  0  0  0
  149.7018  140.4447  155.1219 C   0  0  1  0  0  0  0  0  0  0  0  0
  149.8985  140.9075  156.5726 C   0  0  0  0  0  0  0  0  0  0  0  0
  150.2834  142.2762  156.5707 O   0  0  0  0  0  0  0  0  0  0  0  0
  151.0455  142.7412  157.6208 C   0  0  0  0  0  0  0  0  0  0  0  0
  151.3948  144.1076  157.6026 C   0  0  0  0  0  0  0  0  0  0  0  0
  152.1729  144.6672  158.6344 C   0  0  0  0  0  0  0  0  0  0  0  0
  152.6102  143.8612  159.7015 C   0  0  0  0  0  0  0  0  0  0  0  0
  152.2672  142.4969  159.7341 C   0  0  0  0  0  0  0  0  0  0  0  0
  151.4897  141.9371  158.7014 C   0  0  0  0  0  0  0  0  0  0  0  0
  149.0099  141.5123  154.2501 C   0  0  0  0  0  0  0  0  0  0  0  0
  147.5460  141.3952  154.2611 N   0  0  0  0  0  0  0  0  0  0  0  0
  146.6942  140.9569  153.2949 C   0  0  0  0  0  0  0  0  0  0  0  0
  145.4294  141.0390  153.7941 N   0  3  0  0  0  0  0  0  0  0  0  0
  145.4741  141.5378  155.0979 C   0  0  0  0  0  0  0  0  0  0  0  0
  144.4568  141.7970  156.0112 C   0  0  0  0  0  0  0  0  0  0  0  0
  144.8486  142.3052  157.2674 C   0  0  0  0  0  0  0  0  0  0  0  0
  146.2048  142.5383  157.5759 C   0  0  0  0  0  0  0  0  0  0  0  0
  147.2281  142.2735  156.6417 C   0  0  0  0  0  0  0  0  0  0  0  0
  146.8319  141.7699  155.4035 C   0  0  0  0  0  0  0  0  0  0  0  0
  151.2887  139.3462  154.9937 H   0  0  0  0  0  0  0  0  0  0  0  0
  149.1096  139.5290  155.1222 H   0  0  0  0  0  0  0  0  0  0  0  0
  148.9627  140.7950  157.1233 H   0  0  0  0  0  0  0  0  0  0  0  0
  150.6565  140.2934  157.0620 H   0  0  0  0  0  0  0  0  0  0  0  0
  151.0636  144.7339  156.7870 H   0  0  0  0  0  0  0  0  0  0  0  0
  152.4341  145.7147  158.6067 H   0  0  0  0  0  0  0  0  0  0  0  0
  153.2071  144.2883  160.4939 H   0  0  0  0  0  0  0  0  0  0  0  0
  152.6006  141.8770  160.5532 H   0  0  0  0  0  0  0  0  0  0  0  0
  151.2464  140.8873  158.7632 H   0  0  0  0  0  0  0  0  0  0  0  0
  149.2738  142.5186  154.5778 H   0  0  0  0  0  0  0  0  0  0  0  0
  149.3387  141.4289  153.2131 H   0  0  0  0  0  0  0  0  0  0  0  0
  146.9714  140.6049  152.3116 H   0  0  0  0  0  0  0  0  0  0  0  0
  143.4170  141.6196  155.7784 H   0  0  0  0  0  0  0  0  0  0  0  0
  144.0935  142.5206  158.0096 H   0  0  0  0  0  0  0  0  0  0  0  0
  146.4662  142.9277  158.5493 H   0  0  0  0  0  0  0  0  0  0  0  0
  148.2648  142.4531  156.8868 H   0  0  0  0  0  0  0  0  0  0  0  0
  144.5992  140.7727  153.2803 H   0  0  0  0  0  0  0  0  0  0  0  0
  1  2  1  0  0  0  0
  1 21  1  0  0  0  0
  2  3  1  0  0  0  0
  2 11  1  0  0  0  0
  2 22  1  0  0  0  0
  3  4  1  0  0  0  0
  3 23  1  0  0  0  0
  3 24  1  0  0  0  0
  4  5  1  0  0  0  0
  5 10  1  0  0  0  0
  5  6  2  0  0  0  0
  6  7  1  0  0  0  0
  6 25  1  0  0  0  0
  7  8  2  0  0  0  0
  7 26  1  0  0  0  0
  8  9  1  0  0  0  0
  8 27  1  0  0  0  0
  9 10  2  0  0  0  0
  9 28  1  0  0  0  0
 10 29  1  0  0  0  0
 11 12  1  0  0  0  0
 11 30  1  0  0  0  0
 11 31  1  0  0  0  0
 12 20  1  0  0  0  0
 12 13  1  0  0  0  0
 13 14  2  0  0  0  0
 13 32  1  0  0  0  0
 14 15  1  0  0  0  0
 14 37  1  0  0  0  0
 15 20  2  0  0  0  0
 15 16  1  0  0  0  0
 16 17  2  0  0  0  0
 16 33  1  0  0  0  0
 17 18  1  0  0  0  0
 17 34  1  0  0  0  0
 18 19  2  0  0  0  0
 18 35  1  0  0  0  0
 19 20  1  0  0  0  0
 19 36  1  0  0  0  0
M  CHG  1  14   1
M  END
> <s_m_source_file>
AV-unprocessed.smi

> <i_m_source_file_index>
2191

> <i_lp_mmshare_version>
43012

> <i_f3d_flags>
0

> <s_epik_input>
W2NIXTFbY0hdW2NIXVtjSF1jKGMxMiluKFtjSF1uMilbQ0gyXVtDQEhdKFtPSF0pW0NIMl1PYzNbY0hdW2NIXVtjSF1bY0hdW2NIXTM=

> <s_epik_cmdline>
J2VwaWtfcHl0aG9uJywgJy1waCcsICc3LjAnLCAnLXRuJywgJzgnLCAnLW1hJywgJzIwMCcsICctbWV0YWxfYmluZGluZycsICctaW1hZScsICc8aW5maWxlLm1hZT4nLCAnLW9tYWUnLCAnPG91dGZpbGUubWFlPic=

> <r_lp_tautomer_probability>
1

> <r_epik_Ionization_Penalty>
1.35015

> <r_epik_Ionization_Penalty_Charging>
1.35015

> <r_epik_Ionization_Penalty_Neutral>
2.3993e-06

> <r_epik_State_Penalty>
1.42814

> <r_epik_Charging_Adjusted_Penalty>
2.77829

> <i_epik_Tot_Q>
1

> <i_epik_Tot_abs_Q>
1

> <r_epik_Metal_State_Penalty>
5.46522

> <b_epik_Metal_Only>
0

> <s_lp_Force_Field>
OPLS_2005

> <r_lp_Energy>
19.3108

> <b_lp_Chiralities_Consistent>
1

> <s_lp_Variant>
AV-unprocessed.smi:2191-4

> <Gold.Version>
5.8.1

> <Gold.Id.Protein>
6NUR|6NUR_protein|mol2

> <Gold.PLP.Fitness>
50.1702

> <Gold.PLP.PLP>
-39.9062

> <Gold.PLP.part.hbond>
-2.0000

> <Gold.PLP.part.metal>
0.0000

> <Gold.PLP.part.buried>
-2.3414

> <Gold.PLP.part.nonpolar>
-35.3197

> <Gold.PLP.part.repulsive>
0.1113

> <Gold.PLP.ligand.clash>
0.0000

> <Gold.PLP.ligand.torsion>
0.8869

> <Gold.PLP.Chemscore.Hbond>
3.0000

> <Gold.PLP.Chemscore.CHOScore>
1.0000

> <Gold.PLP.Chemscore.Metal>
0.0000

> <Gold.Chemscore.Hbonds>
donor molecule, donor type, donor heavy atom, donor atom, acceptor molecule, acceptor atom, score
      L1  H    14    37       P1 10175  0.55
      P1  H  7989  7998       L1     1  0.84
      L1  C    13    32       P1  7957  0.07

> <Gold.PLP.Chemscore.Internal.Correction>
0.0379

> <Gold.Rescore>
     Score         DG    S(hbond)    S(metal)    S(lipo)     H(rot)  DE(clash)    DE(int)     intcor
     15.72     -17.61       1.81        0.00     102.47       2.31       0.05       1.84       ----

> <Gold.Chemscore.Fitness>
15.7222

> <Gold.Chemscore.DG>
-17.6058

> <Gold.Chemscore.ZeroCoef>
-5.4800

> <Gold.Chemscore.Hbond>
1.8081

> <Gold.Chemscore.Metal>
0.0000

> <Gold.Chemscore.Lipo>
102.4652

> <Gold.Chemscore.Internal_Hbond>
0.0000

> <Gold.Chemscore.DEClash>
0.0453

> <Gold.Chemscore.DEInternal>
1.8383

> <Gold.Chemscore.Rot>
2.3053

> <Gold.Chemscore.Internal.Correction>
   9.000000E+99

> <Gold.Chemscore.Hbonds>
donor molecule, donor type, donor heavy atom, donor atom, acceptor molecule, acceptor atom, score
      L1  H    14    37       P1 10175  0.25
      P1  H  7989  7998       L1     1  0.82

> <Gold.Chemscore.Hbond.Weighted>
-6.0389

> <Gold.Chemscore.Metal.Weighted>
-0.0000

> <Gold.Chemscore.Lipo.Weighted>
-11.9884

> <Gold.Chemscore.Internal_Hbond.Weighted>
0.0000

> <Gold.Chemscore.DEClash.Weighted>
0.0453

> <Gold.Chemscore.DEInternal.Weighted>
1.8383

> <Gold.Chemscore.Rot.Weighted>
5.9015

> <Gold.Chemscore.Internal.Correction.Weighted>
   9.000000E+99

> <Gold.Protein.RotatedTorsions>
[ 6907 6896 6895 6894 ] final  102.74 input  -60.11 | X-H torsion
[ 7974 7965 7964 7962 ] final   27.16 input  175.53 | X-H torsion
[ 8008 7997 7996 7995 ] final   22.58 input   59.86 | X-H torsion
[ 10167 10162 10161 10158 ] final  -46.37 input  -65.29 | X-H torsion
[ 10718 10713 10712 10709 ] final  -48.92 input   66.30 | X-H torsion
[ 10763 10752 10751 10750 ] final   -5.79 input  -60.55 | X-H torsion
[ 11005 11000 10999 10996 ] final  -81.22 input  -57.11 | X-H torsion

> <Gold.Protein.ActiveResidues>
 VAL166  LYS551  ARG553  GLY616  TRP617  ASP618  TYR619  PRO620  LYS621  CYS622 
 ASP623  PHE694  ASN695  SER759  ASP760  ASP761  ALA762  ILE779  LEU786  VAL792 
 PHE793  MET794  SER795  GLU796  ALA797  LYS798  CYS799  TRP800  GLU811  SER814 

> <Gold.Protein.RotatedAtoms>
  152.5315  133.9931  159.7859 H   0  0  0  0  0  0  0  0  0  0  0  0  # atno 6907 bound_to 6896
  151.0163  133.5910  159.2683 H   0  0  0  0  0  0  0  0  0  0  0  0  # atno 6908 bound_to 6896
  151.2966  135.0764  159.9277 H   0  0  0  0  0  0  0  0  0  0  0  0  # atno 6909 bound_to 6896
  146.1799  139.7229  142.8908 H   0  0  0  0  0  0  0  0  0  0  0  0  # atno 7974 bound_to 7965
  154.9678  140.3086  155.5001 H   0  0  0  0  0  0  0  0  0  0  0  0  # atno 8008 bound_to 7997
  156.2969  140.2289  156.4707 H   0  0  0  0  0  0  0  0  0  0  0  0  # atno 8009 bound_to 7997
  154.7905  140.0440  157.1185 H   0  0  0  0  0  0  0  0  0  0  0  0  # atno 8010 bound_to 7997
  140.6820  143.2834  151.3773 H   0  0  0  0  0  0  0  0  0  0  0  0  # atno 10167 bound_to 10162
  156.1942  130.4154  149.9330 H   0  0  0  0  0  0  0  0  0  0  0  0  # atno 10718 bound_to 10713
  153.4034  135.7005  153.6410 H   0  0  0  0  0  0  0  0  0  0  0  0  # atno 10763 bound_to 10752
  153.4934  135.3668  155.2504 H   0  0  0  0  0  0  0  0  0  0  0  0  # atno 10764 bound_to 10752
  154.8712  135.4094  154.3373 H   0  0  0  0  0  0  0  0  0  0  0  0  # atno 10765 bound_to 10752
  141.1667  133.7186  156.8390 H   0  0  0  0  0  0  0  0  0  0  0  0  # atno 11005 bound_to 11000
  145.4106  141.0396  143.3019 LP  0  0  0  0  0  0  0  0  0  0  0  0  # atno 17320 bound_to 7965
  144.8298  139.5648  143.6949 LP  0  0  0  0  0  0  0  0  0  0  0  0  # atno 17321 bound_to 7965
  139.6149  144.1023  152.2336 LP  0  0  0  0  0  0  0  0  0  0  0  0  # atno 17342 bound_to 10162
  140.0449  144.5979  150.7382 LP  0  0  0  0  0  0  0  0  0  0  0  0  # atno 17343 bound_to 10162
  156.7060  130.8952  151.3604 LP  0  0  0  0  0  0  0  0  0  0  0  0  # atno 17370 bound_to 10713
  157.6947  130.9270  150.0612 LP  0  0  0  0  0  0  0  0  0  0  0  0  # atno 17371 bound_to 10713
  140.1996  134.8906  157.3154 LP  0  0  0  0  0  0  0  0  0  0  0  0  # atno 17394 bound_to 11000
  140.2201  134.4033  155.7570 LP  0  0  0  0  0  0  0  0  0  0  0  0  # atno 17395 bound_to 11000

$$$$
