AV-unprocessed.smi:2922|AV-procd|sdf|11198|dock10
  -GOLD-   2272016 93D 1   1.00000     0.00000
 Structure written by MMmdl.
 30 31  0  0  0  0  0  0  0  0  1 V2000
  145.1514  141.6430  154.6904 N   0  0  0  0  0  0  0  0  0  0  0  0
  146.3483  142.0391  155.1332 C   0  0  0  0  0  0  0  0  0  0  0  0
  146.4862  142.5789  156.2293 O   0  0  0  0  0  0  0  0  0  0  0  0
  147.5677  141.7718  154.2310 C   0  0  2  0  0  0  0  0  0  0  0  0
  147.8434  140.2742  153.9835 C   0  0  0  0  0  0  0  0  0  0  0  0
  149.2340  140.0500  154.5552 C   0  0  0  0  0  0  0  0  0  0  0  0
  149.3816  141.1940  155.5507 C   0  0  1  0  0  0  0  0  0  0  0  0
  150.8390  141.5449  155.8857 C   0  0  0  0  0  0  0  0  0  0  0  0
  150.9439  142.7946  156.6265 N   0  0  0  0  0  0  0  0  0  0  0  0
  151.3770  142.9004  157.9358 C   0  0  0  0  0  0  0  0  0  0  0  0
  151.3774  144.1098  158.5108 N   0  0  0  0  0  0  0  0  0  0  0  0
  151.8110  144.1838  159.7883 C   0  0  0  0  0  0  0  0  0  0  0  0
  152.2430  143.0391  160.4869 C   0  0  0  0  0  0  0  0  0  0  0  0
  152.7994  143.1265  162.1175 Cl  0  0  0  0  0  0  0  0  0  0  0  0
  152.1971  141.8190  159.7833 C   0  0  0  0  0  0  0  0  0  0  0  0
  151.7622  141.7550  158.5053 N   0  0  0  0  0  0  0  0  0  0  0  0
  148.7563  142.2615  154.8532 O   0  0  0  0  0  0  0  0  0  0  0  0
  144.3284  141.8018  155.2533 H   0  0  0  0  0  0  0  0  0  0  0  0
  145.0771  141.1870  153.7922 H   0  0  0  0  0  0  0  0  0  0  0  0
  147.4219  142.3011  153.2889 H   0  0  0  0  0  0  0  0  0  0  0  0
  147.1267  139.6300  154.4950 H   0  0  0  0  0  0  0  0  0  0  0  0
  147.8057  140.0238  152.9232 H   0  0  0  0  0  0  0  0  0  0  0  0
  149.3522  139.0691  155.0160 H   0  0  0  0  0  0  0  0  0  0  0  0
  149.9767  140.1434  153.7616 H   0  0  0  0  0  0  0  0  0  0  0  0
  148.8148  140.9655  156.4552 H   0  0  0  0  0  0  0  0  0  0  0  0
  151.2937  140.7437  156.4693 H   0  0  0  0  0  0  0  0  0  0  0  0
  151.4246  141.6308  154.9701 H   0  0  0  0  0  0  0  0  0  0  0  0
  150.5284  143.6181  156.2160 H   0  0  0  0  0  0  0  0  0  0  0  0
  151.8127  145.1592  160.2519 H   0  0  0  0  0  0  0  0  0  0  0  0
  152.5098  140.8933  160.2438 H   0  0  0  0  0  0  0  0  0  0  0  0
  1  2  1  0  0  0  0
  1 18  1  0  0  0  0
  1 19  1  0  0  0  0
  2  3  2  0  0  0  0
  2  4  1  0  0  0  0
  4 17  1  0  0  0  0
  4  5  1  0  0  0  0
  4 20  1  0  0  0  0
  5  6  1  0  0  0  0
  5 21  1  0  0  0  0
  5 22  1  0  0  0  0
  6  7  1  0  0  0  0
  6 23  1  0  0  0  0
  6 24  1  0  0  0  0
  7  8  1  0  0  0  0
  7 17  1  0  0  0  0
  7 25  1  0  0  0  0
  8  9  1  0  0  0  0
  8 26  1  0  0  0  0
  8 27  1  0  0  0  0
  9 10  1  0  0  0  0
  9 28  1  0  0  0  0
 10 16  1  0  0  0  0
 10 11  2  0  0  0  0
 11 12  1  0  0  0  0
 12 13  2  0  0  0  0
 12 29  1  0  0  0  0
 13 14  1  0  0  0  0
 13 15  1  0  0  0  0
 15 16  2  0  0  0  0
 15 30  1  0  0  0  0
M  END
> <s_m_source_file>
AV-unprocessed.smi

> <i_m_source_file_index>
2922

> <i_lp_mmshare_version>
43012

> <i_f3d_flags>
0

> <s_epik_input>
W05IMl1DKD1PKVtDQEBIXTFbQ0gyXVtDSDJdW0NASF0oTzEpW0NIMl1bTkhdYzJuW2NIXWMoQ2wpW2NIXW4y

> <s_epik_cmdline>
J2VwaWtfcHl0aG9uJywgJy1waCcsICc3LjAnLCAnLXRuJywgJzgnLCAnLW1hJywgJzIwMCcsICctbWV0YWxfYmluZGluZycsICctaW1hZScsICc8aW5maWxlLm1hZT4nLCAnLW9tYWUnLCAnPG91dGZpbGUubWFlPic=

> <r_lp_tautomer_probability>
1

> <r_epik_Ionization_Penalty>
6.13883e-06

> <r_epik_Ionization_Penalty_Charging>
0

> <r_epik_Ionization_Penalty_Neutral>
6.13883e-06

> <r_epik_State_Penalty>
-0

> <r_epik_Charging_Adjusted_Penalty>
0

> <i_epik_Tot_Q>
0

> <i_epik_Tot_abs_Q>
0

> <r_epik_Metal_State_Penalty>
-0

> <b_epik_Metal_Only>
0

> <s_lp_Force_Field>
OPLS_2005

> <r_lp_Energy>
9.74106

> <b_lp_Chiralities_Consistent>
1

> <s_lp_Variant>
AV-unprocessed.smi:2922-1

> <Gold.Version>
5.8.1

> <Gold.Id.Protein>
6NUR|6NUR_protein|mol2

> <Gold.PLP.Fitness>
37.9451

> <Gold.PLP.PLP>
-32.6181

> <Gold.PLP.part.hbond>
-2.4075

> <Gold.PLP.part.metal>
0.0000

> <Gold.PLP.part.buried>
-7.2204

> <Gold.PLP.part.nonpolar>
-27.4952

> <Gold.PLP.part.repulsive>
3.9722

> <Gold.PLP.ligand.clash>
0.0000

> <Gold.PLP.ligand.torsion>
0.0726

> <Gold.PLP.Chemscore.Hbond>
1.8160

> <Gold.PLP.Chemscore.CHOScore>
0.0000

> <Gold.PLP.Chemscore.Metal>
0.0000

> <Gold.Chemscore.Hbonds>
donor molecule, donor type, donor heavy atom, donor atom, acceptor molecule, acceptor atom, score
      L1  H     1    19       P1 10175  0.82
      L1  H     9    28       P1  8028  0.98

> <Gold.PLP.Chemscore.Internal.Correction>
0.0241

> <Gold.Rescore>
     Score         DG    S(hbond)    S(metal)    S(lipo)     H(rot)  DE(clash)    DE(int)     intcor
     14.06     -15.57       1.71        0.00      79.38       1.91       1.42       0.10       ----

> <Gold.Chemscore.Fitness>
14.0603

> <Gold.Chemscore.DG>
-15.5739

> <Gold.Chemscore.ZeroCoef>
-5.4800

> <Gold.Chemscore.Hbond>
1.7086

> <Gold.Chemscore.Metal>
0.0000

> <Gold.Chemscore.Lipo>
79.3809

> <Gold.Chemscore.Internal_Hbond>
0.0000

> <Gold.Chemscore.DEClash>
1.4170

> <Gold.Chemscore.DEInternal>
0.0967

> <Gold.Chemscore.Rot>
1.9142

> <Gold.Chemscore.Internal.Correction>
   9.000000E+99

> <Gold.Chemscore.Hbonds>
donor molecule, donor type, donor heavy atom, donor atom, acceptor molecule, acceptor atom, score
      L1  H     1    19       P1 10175  0.45
      L1  H     9    28       P1  8028  0.88

> <Gold.Chemscore.Hbond.Weighted>
-5.7066

> <Gold.Chemscore.Metal.Weighted>
-0.0000

> <Gold.Chemscore.Lipo.Weighted>
-9.2876

> <Gold.Chemscore.Internal_Hbond.Weighted>
0.0000

> <Gold.Chemscore.DEClash.Weighted>
1.4170

> <Gold.Chemscore.DEInternal.Weighted>
0.0967

> <Gold.Chemscore.Rot.Weighted>
4.9002

> <Gold.Chemscore.Internal.Correction.Weighted>
   9.000000E+99

> <Gold.Protein.RotatedTorsions>
[ 6907 6896 6895 6894 ] final  -50.29 input  -60.11 | X-H torsion
[ 7974 7965 7964 7962 ] final   59.08 input  175.53 | X-H torsion
[ 8008 7997 7996 7995 ] final  -71.07 input   59.86 | X-H torsion
[ 10167 10162 10161 10158 ] final  -52.10 input  -65.29 | X-H torsion
[ 10718 10713 10712 10709 ] final  178.82 input   66.30 | X-H torsion
[ 10763 10752 10751 10750 ] final   10.21 input  -60.55 | X-H torsion
[ 11005 11000 10999 10996 ] final  119.17 input  -57.11 | X-H torsion

> <Gold.Protein.ActiveResidues>
 VAL166  LYS551  ARG553  GLY616  TRP617  ASP618  TYR619  PRO620  LYS621  CYS622 
 ASP623  PHE694  ASN695  SER759  ASP760  ASP761  ALA762  ILE779  LEU786  VAL792 
 PHE793  MET794  SER795  GLU796  ALA797  LYS798  CYS799  TRP800  GLU811  SER814 

> <Gold.Protein.RotatedAtoms>
  150.8722  134.8097  159.7162 H   0  0  0  0  0  0  0  0  0  0  0  0  # atno 6907 bound_to 6896
  152.4722  134.4929  159.9711 H   0  0  0  0  0  0  0  0  0  0  0  0  # atno 6908 bound_to 6896
  151.5016  133.3464  159.2905 H   0  0  0  0  0  0  0  0  0  0  0  0  # atno 6909 bound_to 6896
  145.9111  139.3655  143.0534 H   0  0  0  0  0  0  0  0  0  0  0  0  # atno 7974 bound_to 7965
  154.5060  140.0822  156.7895 H   0  0  0  0  0  0  0  0  0  0  0  0  # atno 8008 bound_to 7997
  155.3893  140.3432  155.4232 H   0  0  0  0  0  0  0  0  0  0  0  0  # atno 8009 bound_to 7997
  156.1516  140.1560  156.8748 H   0  0  0  0  0  0  0  0  0  0  0  0  # atno 8010 bound_to 7997
  140.6555  143.2596  151.4599 H   0  0  0  0  0  0  0  0  0  0  0  0  # atno 10167 bound_to 10162
  156.8848  130.9828  151.3057 H   0  0  0  0  0  0  0  0  0  0  0  0  # atno 10718 bound_to 10713
  153.2056  135.6862  153.8177 H   0  0  0  0  0  0  0  0  0  0  0  0  # atno 10763 bound_to 10752
  153.7427  135.3235  155.3308 H   0  0  0  0  0  0  0  0  0  0  0  0  # atno 10764 bound_to 10752
  154.8195  135.4662  154.0841 H   0  0  0  0  0  0  0  0  0  0  0  0  # atno 10765 bound_to 10752
  139.9136  134.9626  156.7615 H   0  0  0  0  0  0  0  0  0  0  0  0  # atno 11005 bound_to 11000
  145.8670  140.9442  143.0670 LP  0  0  0  0  0  0  0  0  0  0  0  0  # atno 17320 bound_to 7965
  144.6743  140.0604  143.7476 LP  0  0  0  0  0  0  0  0  0  0  0  0  # atno 17321 bound_to 7965
  139.5776  144.1782  152.1925 LP  0  0  0  0  0  0  0  0  0  0  0  0  # atno 17342 bound_to 10162
  140.1098  144.5467  150.6933 LP  0  0  0  0  0  0  0  0  0  0  0  0  # atno 17343 bound_to 10162
  157.6119  130.8589  149.8965 LP  0  0  0  0  0  0  0  0  0  0  0  0  # atno 17370 bound_to 10713
  156.0658  130.3692  150.0881 LP  0  0  0  0  0  0  0  0  0  0  0  0  # atno 17371 bound_to 10713
  140.6693  133.9574  155.7848 LP  0  0  0  0  0  0  0  0  0  0  0  0  # atno 17394 bound_to 11000
  141.0588  134.0376  157.3686 LP  0  0  0  0  0  0  0  0  0  0  0  0  # atno 17395 bound_to 11000

$$$$
