AV-unprocessed.smi:258|AV-procd|sdf|1970|dock10
  -GOLD-   2262021133D 1   1.00000     0.00000
 Structure written by MMmdl.
 57 60  0  0  0  0  0  0  0  0  1 V2000
  150.6162  139.5854  148.4319 O   0  0  0  0  0  0  0  0  0  0  0  0
  151.4312  138.8634  147.5341 C   0  0  0  0  0  0  0  0  0  0  0  0
  152.9013  138.9643  147.9693 C   0  0  0  0  0  0  0  0  0  0  0  0
  153.2767  137.8453  148.7624 O   0  0  0  0  0  0  0  0  0  0  0  0
  152.8517  137.8909  150.1193 C   0  0  1  0  0  0  0  0  0  0  0  0
  153.4681  136.6837  150.8443 C   0  0  0  0  0  0  0  0  0  0  0  0
  153.1323  136.7328  152.3422 C   0  0  0  0  0  0  0  0  0  0  0  0
  153.5778  138.0674  152.9612 C   0  0  0  0  0  0  0  0  0  0  0  0
  153.0221  139.1984  152.2185 N   0  0  0  0  0  0  0  0  0  0  0  0
  153.0769  140.3853  152.8749 C   0  0  0  0  0  0  0  0  0  0  0  0
  153.9300  141.3569  152.4522 N   0  0  0  0  0  0  0  0  0  0  0  0
  153.9997  142.5237  153.0996 C   0  0  0  0  0  0  0  0  0  0  0  0
  153.3142  142.9252  154.1712 N   0  0  0  0  0  0  0  0  0  0  0  0
  152.4484  141.9605  154.5942 C   0  0  0  0  0  0  0  0  0  0  0  0
  152.2701  140.6735  154.0120 C   0  0  0  0  0  0  0  0  0  0  0  0
  151.2986  139.9687  154.7132 N   0  0  0  0  0  0  0  0  0  0  0  0
  150.9310  140.7874  155.6607 C   0  0  0  0  0  0  0  0  0  0  0  0
  151.5561  142.0142  155.6509 N   0  0  0  0  0  0  0  0  0  0  0  0
  151.3424  143.1046  156.5862 C   0  0  0  0  0  0  0  0  0  0  0  0
  151.2539  142.6813  158.0794 C   0  0  2  0  0  0  0  0  0  0  0  0
  150.1320  143.4942  158.7708 C   0  0  0  0  0  0  0  0  0  0  0  0
  150.3170  144.8834  158.5929 O   0  0  0  0  0  0  0  0  0  0  0  0
  152.6091  142.8206  158.8363 C   0  0  1  0  0  0  0  0  0  0  0  0
  152.5289  142.6436  160.3459 C   0  0  0  0  0  0  0  0  0  0  0  0
  153.9761  142.3604  160.7176 C   0  0  0  0  0  0  0  0  0  0  0  0
  154.4484  141.5337  159.6670 O   0  0  0  0  0  0  0  0  0  0  0  0
  153.6792  141.7690  158.4911 C   0  0  0  0  0  0  0  0  0  0  0  0
  153.3137  139.2042  150.7834 C   0  0  0  0  0  0  0  0  0  0  0  0
  150.9207  140.4795  148.4612 H   0  0  0  0  0  0  0  0  0  0  0  0
  151.0926  137.8282  147.5070 H   0  0  0  0  0  0  0  0  0  0  0  0
  151.3025  139.2748  146.5328 H   0  0  0  0  0  0  0  0  0  0  0  0
  153.5351  138.9567  147.0820 H   0  0  0  0  0  0  0  0  0  0  0  0
  153.0987  139.9066  148.4811 H   0  0  0  0  0  0  0  0  0  0  0  0
  151.7660  137.8107  150.1861 H   0  0  0  0  0  0  0  0  0  0  0  0
  153.1010  135.7544  150.4074 H   0  0  0  0  0  0  0  0  0  0  0  0
  154.5509  136.6856  150.7119 H   0  0  0  0  0  0  0  0  0  0  0  0
  152.0578  136.6074  152.4810 H   0  0  0  0  0  0  0  0  0  0  0  0
  153.6118  135.9027  152.8611 H   0  0  0  0  0  0  0  0  0  0  0  0
  153.2820  138.0938  154.0093 H   0  0  0  0  0  0  0  0  0  0  0  0
  154.6660  138.1393  152.9430 H   0  0  0  0  0  0  0  0  0  0  0  0
  154.7053  143.2379  152.7012 H   0  0  0  0  0  0  0  0  0  0  0  0
  150.1782  140.5216  156.3885 H   0  0  0  0  0  0  0  0  0  0  0  0
  152.1438  143.8330  156.4564 H   0  0  0  0  0  0  0  0  0  0  0  0
  150.4256  143.6060  156.2754 H   0  0  0  0  0  0  0  0  0  0  0  0
  150.9579  141.6326  158.1260 H   0  0  0  0  0  0  0  0  0  0  0  0
  149.1531  143.2608  158.3542 H   0  0  0  0  0  0  0  0  0  0  0  0
  150.0896  143.2687  159.8368 H   0  0  0  0  0  0  0  0  0  0  0  0
  149.7022  145.1887  157.9431 H   0  0  0  0  0  0  0  0  0  0  0  0
  153.0236  143.8113  158.6429 H   0  0  0  0  0  0  0  0  0  0  0  0
  152.1383  143.5203  160.8632 H   0  0  0  0  0  0  0  0  0  0  0  0
  151.9042  141.7857  160.5997 H   0  0  0  0  0  0  0  0  0  0  0  0
  154.5563  143.2841  160.7330 H   0  0  0  0  0  0  0  0  0  0  0  0
  154.0768  141.8750  161.6885 H   0  0  0  0  0  0  0  0  0  0  0  0
  153.2273  140.8226  158.1929 H   0  0  0  0  0  0  0  0  0  0  0  0
  154.3326  142.1008  157.6854 H   0  0  0  0  0  0  0  0  0  0  0  0
  154.3868  139.3362  150.6370 H   0  0  0  0  0  0  0  0  0  0  0  0
  152.8174  140.0536  150.3133 H   0  0  0  0  0  0  0  0  0  0  0  0
  1  2  1  0  0  0  0
  1 29  1  0  0  0  0
  2  3  1  0  0  0  0
  2 30  1  0  0  0  0
  2 31  1  0  0  0  0
  3  4  1  0  0  0  0
  3 32  1  0  0  0  0
  3 33  1  0  0  0  0
  4  5  1  0  0  0  0
  5 28  1  0  0  0  0
  5  6  1  0  0  0  0
  5 34  1  0  0  0  0
  6  7  1  0  0  0  0
  6 35  1  0  0  0  0
  6 36  1  0  0  0  0
  7  8  1  0  0  0  0
  7 37  1  0  0  0  0
  7 38  1  0  0  0  0
  8  9  1  0  0  0  0
  8 39  1  0  0  0  0
  8 40  1  0  0  0  0
  9 10  1  0  0  0  0
  9 28  1  0  0  0  0
 10 15  1  0  0  0  0
 10 11  2  0  0  0  0
 11 12  1  0  0  0  0
 12 13  2  0  0  0  0
 12 41  1  0  0  0  0
 13 14  1  0  0  0  0
 14 18  1  0  0  0  0
 14 15  2  0  0  0  0
 15 16  1  0  0  0  0
 16 17  2  0  0  0  0
 17 18  1  0  0  0  0
 17 42  1  0  0  0  0
 18 19  1  0  0  0  0
 19 20  1  0  0  0  0
 19 43  1  0  0  0  0
 19 44  1  0  0  0  0
 20 21  1  0  0  0  0
 20 23  1  0  0  0  0
 20 45  1  0  0  0  0
 21 22  1  0  0  0  0
 21 46  1  0  0  0  0
 21 47  1  0  0  0  0
 22 48  1  0  0  0  0
 23 27  1  0  0  0  0
 23 24  1  0  0  0  0
 23 49  1  0  0  0  0
 24 25  1  0  0  0  0
 24 50  1  0  0  0  0
 24 51  1  0  0  0  0
 25 26  1  0  0  0  0
 25 52  1  0  0  0  0
 25 53  1  0  0  0  0
 26 27  1  0  0  0  0
 27 54  1  0  0  0  0
 27 55  1  0  0  0  0
 28 56  1  0  0  0  0
 28 57  1  0  0  0  0
M  END
> <s_m_source_file>
AV-unprocessed.smi

> <i_m_source_file_index>
258

> <i_lp_mmshare_version>
43012

> <i_f3d_flags>
0

> <s_epik_input>
W09IXVtDSDJdW0NIMl1PW0NAQEhdMVtDSDJdW0NIMl1bQ0gyXU4oW0NIMl0xKWMobltjSF1uMiljKGMyMyluW2NIXW4zW0NIMl1bQ0BIXShbQ0gyXVtPSF0pW0NAQEhdNFtDSDJdW0NIMl1PW0NIMl00

> <s_epik_cmdline>
J2VwaWtfcHl0aG9uJywgJy1waCcsICc3LjAnLCAnLXRuJywgJzgnLCAnLW1hJywgJzIwMCcsICctbWV0YWxfYmluZGluZycsICctaW1hZScsICc8aW5maWxlLm1hZT4nLCAnLW9tYWUnLCAnPG91dGZpbGUubWFlPic=

> <r_lp_tautomer_probability>
1

> <r_epik_Ionization_Penalty>
0.00349036

> <r_epik_Ionization_Penalty_Charging>
0

> <r_epik_Ionization_Penalty_Neutral>
0.00349036

> <r_epik_State_Penalty>
0.00229798

> <r_epik_Charging_Adjusted_Penalty>
0.00229798

> <i_epik_Tot_Q>
0

> <i_epik_Tot_abs_Q>
0

> <r_epik_Metal_State_Penalty>
-0

> <b_epik_Metal_Only>
0

> <s_lp_Force_Field>
OPLS_2005

> <r_lp_Energy>
44.143

> <b_lp_Chiralities_Consistent>
1

> <s_lp_Variant>
AV-unprocessed.smi:258-6

> <Gold.Version>
5.8.1

> <Gold.Id.Protein>
6NUR|6NUR_protein|mol2

> <Gold.PLP.Fitness>
-595.1635

> <Gold.PLP.PLP>
594.4859

> <Gold.PLP.part.hbond>
-2.4595

> <Gold.PLP.part.metal>
0.0000

> <Gold.PLP.part.buried>
290.9767

> <Gold.PLP.part.nonpolar>
310.3583

> <Gold.PLP.part.repulsive>
9.7871

> <Gold.PLP.ligand.clash>
0.0000

> <Gold.PLP.ligand.torsion>
1.7578

> <Gold.PLP.Chemscore.Hbond>
0.7540

> <Gold.PLP.Chemscore.CHOScore>
0.0000

> <Gold.PLP.Chemscore.Metal>
0.0000

> <Gold.Chemscore.Hbonds>
donor molecule, donor type, donor heavy atom, donor atom, acceptor molecule, acceptor atom, score
      L1  H    22    48       P1  8029  0.75

> <Gold.PLP.Chemscore.Internal.Correction>
0.5760

> <Gold.Rescore>
     Score         DG    S(hbond)    S(metal)    S(lipo)     H(rot)  DE(clash)    DE(int)     intcor
     -1.72      -0.39       0.00        0.00      48.90       4.22       0.48       1.63       ----

> <Gold.Chemscore.Fitness>
-1.7164

> <Gold.Chemscore.DG>
-0.3874

> <Gold.Chemscore.ZeroCoef>
-5.4800

> <Gold.Chemscore.Hbond>
0.0002

> <Gold.Chemscore.Metal>
0.0000

> <Gold.Chemscore.Lipo>
48.9035

> <Gold.Chemscore.Internal_Hbond>
0.0000

> <Gold.Chemscore.DEClash>
0.4771

> <Gold.Chemscore.DEInternal>
1.6266

> <Gold.Chemscore.Rot>
4.2246

> <Gold.Chemscore.Internal.Correction>
   9.000000E+99

> <Gold.Chemscore.Hbonds>
donor molecule, donor type, donor heavy atom, donor atom, acceptor molecule, acceptor atom, score
      L1  H    22    48       P1  8029  0.10

> <Gold.Chemscore.Hbond.Weighted>
-0.0005

> <Gold.Chemscore.Metal.Weighted>
-0.0000

> <Gold.Chemscore.Lipo.Weighted>
-5.7217

> <Gold.Chemscore.Internal_Hbond.Weighted>
0.0000

> <Gold.Chemscore.DEClash.Weighted>
0.4771

> <Gold.Chemscore.DEInternal.Weighted>
1.6266

> <Gold.Chemscore.Rot.Weighted>
10.8149

> <Gold.Chemscore.Internal.Correction.Weighted>
   9.000000E+99

> <Gold.Protein.RotatedTorsions>
[ 6907 6896 6895 6894 ] final  -95.27 input  -60.11 | X-H torsion
[ 7974 7965 7964 7962 ] final  -45.25 input  175.53 | X-H torsion
[ 8008 7997 7996 7995 ] final -103.27 input   59.86 | X-H torsion
[ 10167 10162 10161 10158 ] final  106.27 input  -65.29 | X-H torsion
[ 10718 10713 10712 10709 ] final   32.55 input   66.30 | X-H torsion
[ 10763 10752 10751 10750 ] final  -53.52 input  -60.55 | X-H torsion
[ 11005 11000 10999 10996 ] final   89.14 input  -57.11 | X-H torsion

> <Gold.Protein.ActiveResidues>
 VAL166  LYS551  ARG553  GLY616  TRP617  ASP618  TYR619  PRO620  LYS621  CYS622 
 ASP623  PHE694  ASN695  SER759  ASP760  ASP761  ALA762  ILE779  LEU786  VAL792 
 PHE793  MET794  SER795  GLU796  ALA797  LYS798  CYS799  TRP800  GLU811  SER814 

> <Gold.Protein.RotatedAtoms>
  150.6960  134.1684  159.4202 H   0  0  0  0  0  0  0  0  0  0  0  0  # atno 6907 bound_to 6896
  151.9662  135.0097  160.0559 H   0  0  0  0  0  0  0  0  0  0  0  0  # atno 6908 bound_to 6896
  152.1882  133.4720  159.5031 H   0  0  0  0  0  0  0  0  0  0  0  0  # atno 6909 bound_to 6896
  145.9839  140.7254  142.9350 H   0  0  0  0  0  0  0  0  0  0  0  0  # atno 7974 bound_to 7965
  154.8685  140.0424  157.1709 H   0  0  0  0  0  0  0  0  0  0  0  0  # atno 8008 bound_to 7997
  154.8764  140.2966  155.5430 H   0  0  0  0  0  0  0  0  0  0  0  0  # atno 8009 bound_to 7997
  156.2999  140.2419  156.3761 H   0  0  0  0  0  0  0  0  0  0  0  0  # atno 8010 bound_to 7997
  139.7023  144.7092  151.1165 H   0  0  0  0  0  0  0  0  0  0  0  0  # atno 10167 bound_to 10162
  157.2866  130.7281  149.6586 H   0  0  0  0  0  0  0  0  0  0  0  0  # atno 10718 bound_to 10713
  154.1602  135.6476  153.4984 H   0  0  0  0  0  0  0  0  0  0  0  0  # atno 10763 bound_to 10752
  153.0113  135.5359  154.6719 H   0  0  0  0  0  0  0  0  0  0  0  0  # atno 10764 bound_to 10752
  154.6030  135.2946  155.0486 H   0  0  0  0  0  0  0  0  0  0  0  0  # atno 10765 bound_to 10752
  139.8881  134.8533  156.3100 H   0  0  0  0  0  0  0  0  0  0  0  0  # atno 11005 bound_to 11000
  144.6869  140.2955  143.7271 LP  0  0  0  0  0  0  0  0  0  0  0  0  # atno 17320 bound_to 7965
  145.7729  139.1864  143.2202 LP  0  0  0  0  0  0  0  0  0  0  0  0  # atno 17321 bound_to 7965
  140.7713  143.5407  150.9316 LP  0  0  0  0  0  0  0  0  0  0  0  0  # atno 17342 bound_to 10162
  139.9089  143.6744  152.3118 LP  0  0  0  0  0  0  0  0  0  0  0  0  # atno 17343 bound_to 10162
  155.9666  130.4322  150.4951 LP  0  0  0  0  0  0  0  0  0  0  0  0  # atno 17370 bound_to 10713
  157.2906  131.0625  151.2136 LP  0  0  0  0  0  0  0  0  0  0  0  0  # atno 17371 bound_to 10713
  140.9856  133.7240  156.0737 LP  0  0  0  0  0  0  0  0  0  0  0  0  # atno 17394 bound_to 11000
  140.7692  134.3852  157.5511 LP  0  0  0  0  0  0  0  0  0  0  0  0  # atno 17395 bound_to 11000

$$$$
