AV-unprocessed.smi:2489|AV-procd|sdf|9805|dock1
  -GOLD-   2272013433D 1   1.00000     0.00000
 Structure written by MMmdl.
 34 35  0  0  0  0  0  0  0  0  2 V2000
  153.4702  141.0131  160.5451 C   0  0  0  0  0  0  0  0  0  0  0  0
  153.4050  142.4302  160.4768 O   0  0  0  0  0  0  0  0  0  0  0  0
  152.5195  142.9965  159.5854 C   0  0  0  0  0  0  0  0  0  0  0  0
  152.5330  144.4016  159.4653 C   0  0  0  0  0  0  0  0  0  0  0  0
  151.6604  145.0326  158.5591 C   0  0  0  0  0  0  0  0  0  0  0  0
  150.8119  144.2908  157.8170 N   0  3  0  0  0  0  0  0  0  0  0  0
  150.7356  142.9434  157.8972 C   0  0  0  0  0  0  0  0  0  0  0  0
  149.8075  142.2916  157.0430 N   0  0  0  0  0  0  0  0  0  0  0  0
  149.5535  140.9731  156.9410 C   0  0  0  0  0  0  0  0  0  0  0  0
  150.0732  140.1144  157.6542 O   0  0  0  0  0  0  0  0  0  0  0  0
  148.5045  140.5585  155.8972 C   0  0  2  0  0  0  0  0  0  0  0  0
  148.8896  140.8959  154.4435 C   0  0  0  0  0  0  0  0  0  0  0  0
  147.8933  141.9670  154.0469 C   0  0  0  0  0  0  0  0  0  0  0  0
  146.6854  141.6101  154.9043 C   0  0  2  0  0  0  0  0  0  0  0  0
  145.6910  142.7598  155.0956 C   0  0  0  0  0  0  0  0  0  0  0  0
  147.2789  141.2525  156.1425 O   0  0  0  0  0  0  0  0  0  0  0  0
  151.6074  142.2617  158.7834 C   0  0  0  0  0  0  0  0  0  0  0  0
  154.2121  140.7226  161.2889 H   0  0  0  0  0  0  0  0  0  0  0  0
  153.7744  140.5811  159.5908 H   0  0  0  0  0  0  0  0  0  0  0  0
  152.5142  140.5839  160.8479 H   0  0  0  0  0  0  0  0  0  0  0  0
  153.2149  144.9915  160.0608 H   0  0  0  0  0  0  0  0  0  0  0  0
  151.6166  146.1012  158.4062 H   0  0  0  0  0  0  0  0  0  0  0  0
  149.2283  142.8961  156.4782 H   0  0  0  0  0  0  0  0  0  0  0  0
  148.3260  139.4866  155.9912 H   0  0  0  0  0  0  0  0  0  0  0  0
  149.9170  141.2377  154.3130 H   0  0  0  0  0  0  0  0  0  0  0  0
  148.7584  140.0137  153.8155 H   0  0  0  0  0  0  0  0  0  0  0  0
  148.2782  142.9503  154.3207 H   0  0  0  0  0  0  0  0  0  0  0  0
  147.6730  141.9712  152.9791 H   0  0  0  0  0  0  0  0  0  0  0  0
  146.1791  140.7360  154.4910 H   0  0  0  0  0  0  0  0  0  0  0  0
  145.2616  143.0678  154.1421 H   0  0  0  0  0  0  0  0  0  0  0  0
  146.1731  143.6293  155.5430 H   0  0  0  0  0  0  0  0  0  0  0  0
  144.8713  142.4604  155.7488 H   0  0  0  0  0  0  0  0  0  0  0  0
  151.5829  141.1847  158.8327 H   0  0  0  0  0  0  0  0  0  0  0  0
  150.1921  144.7762  157.1677 H   0  0  0  0  0  0  0  0  0  0  0  0
  1  2  1  0  0  0  0
  1 18  1  0  0  0  0
  1 19  1  0  0  0  0
  1 20  1  0  0  0  0
  2  3  1  0  0  0  0
  3 17  1  0  0  0  0
  3  4  2  0  0  0  0
  4  5  1  0  0  0  0
  4 21  1  0  0  0  0
  5  6  2  0  0  0  0
  5 22  1  0  0  0  0
  6  7  1  0  0  0  0
  6 34  1  0  0  0  0
  7  8  1  0  0  0  0
  7 17  2  0  0  0  0
  8  9  1  0  0  0  0
  8 23  1  0  0  0  0
  9 10  2  0  0  0  0
  9 11  1  0  0  0  0
 11 16  1  0  0  0  0
 11 12  1  0  0  0  0
 11 24  1  0  0  0  0
 12 13  1  0  0  0  0
 12 25  1  0  0  0  0
 12 26  1  0  0  0  0
 13 14  1  0  0  0  0
 13 27  1  0  0  0  0
 13 28  1  0  0  0  0
 14 15  1  0  0  0  0
 14 16  1  0  0  0  0
 14 29  1  0  0  0  0
 15 30  1  0  0  0  0
 15 31  1  0  0  0  0
 15 32  1  0  0  0  0
 17 33  1  0  0  0  0
M  CHG  1   6   1
M  END
> <s_m_source_file>
AV-unprocessed.smi

> <i_m_source_file_index>
2489

> <i_lp_mmshare_version>
43012

> <i_f3d_flags>
0

> <s_epik_input>
W0NIM11PYzFbY0hdW2NIXW5jKFtjSF0xKVtOSF1DKD1PKVtDQEBIXTJbQ0gyXVtDSDJdW0NASF0oTzIpW0NIM10=

> <s_epik_cmdline>
J2VwaWtfcHl0aG9uJywgJy1waCcsICc3LjAnLCAnLXRuJywgJzgnLCAnLW1hJywgJzIwMCcsICctbWV0YWxfYmluZGluZycsICctaW1hZScsICc8aW5maWxlLm1hZT4nLCAnLW9tYWUnLCAnPG91dGZpbGUubWFlPic=

> <r_epik_Ionization_Penalty>
1.58956

> <r_epik_Ionization_Penalty_Charging>
1.1784

> <r_epik_Ionization_Penalty_Neutral>
0.411158

> <r_epik_State_Penalty>
1.31089

> <r_epik_Charging_Adjusted_Penalty>
2.48928

> <i_epik_Tot_Q>
1

> <i_epik_Tot_abs_Q>
1

> <r_epik_Metal_State_Penalty>
5.00213

> <b_epik_Metal_Only>
0

> <s_lp_Force_Field>
OPLS_2005

> <r_lp_Energy>
31.9404

> <b_lp_Chiralities_Consistent>
1

> <s_lp_Variant>
AV-unprocessed.smi:2489-11

> <Gold.Version>
5.8.1

> <Gold.Id.Protein>
6NUR|6NUR_protein|mol2

> <Gold.PLP.Fitness>
44.4835

> <Gold.PLP.PLP>
-35.5608

> <Gold.PLP.part.hbond>
-2.0000

> <Gold.PLP.part.metal>
0.0000

> <Gold.PLP.part.buried>
-5.4953

> <Gold.PLP.part.nonpolar>
-28.1049

> <Gold.PLP.part.repulsive>
0.1313

> <Gold.PLP.ligand.clash>
0.0000

> <Gold.PLP.ligand.torsion>
0.0331

> <Gold.PLP.Chemscore.Hbond>
2.9920

> <Gold.PLP.Chemscore.CHOScore>
0.0000

> <Gold.PLP.Chemscore.Metal>
0.0000

> <Gold.Chemscore.Hbonds>
donor molecule, donor type, donor heavy atom, donor atom, acceptor molecule, acceptor atom, score
      L1  H     6    34       P1  8028  2.00
      L1  H     8    23       P1  8028  0.99

> <Gold.PLP.Chemscore.Internal.Correction>
0.0129

> <Gold.Rescore>
     Score         DG    S(hbond)    S(metal)    S(lipo)     H(rot)  DE(clash)    DE(int)     intcor
     16.80     -18.17       1.74        0.00      85.98       1.24       0.01       1.37       ----

> <Gold.Chemscore.Fitness>
16.7992

> <Gold.Chemscore.DG>
-18.1731

> <Gold.Chemscore.ZeroCoef>
-5.4800

> <Gold.Chemscore.Hbond>
1.7395

> <Gold.Chemscore.Metal>
0.0000

> <Gold.Chemscore.Lipo>
85.9812

> <Gold.Chemscore.Internal_Hbond>
0.0000

> <Gold.Chemscore.DEClash>
0.0067

> <Gold.Chemscore.DEInternal>
1.3672

> <Gold.Chemscore.Rot>
1.2409

> <Gold.Chemscore.Internal.Correction>
   9.000000E+99

> <Gold.Chemscore.Hbonds>
donor molecule, donor type, donor heavy atom, donor atom, acceptor molecule, acceptor atom, score
      L1  H     6    34       P1  8028  0.29
      L1  H     8    23       P1  8028  0.88

> <Gold.Chemscore.Hbond.Weighted>
-5.8100

> <Gold.Chemscore.Metal.Weighted>
-0.0000

> <Gold.Chemscore.Lipo.Weighted>
-10.0598

> <Gold.Chemscore.Internal_Hbond.Weighted>
0.0000

> <Gold.Chemscore.DEClash.Weighted>
0.0067

> <Gold.Chemscore.DEInternal.Weighted>
1.3672

> <Gold.Chemscore.Rot.Weighted>
3.1767

> <Gold.Chemscore.Internal.Correction.Weighted>
   9.000000E+99

> <Gold.Protein.RotatedTorsions>
[ 6907 6896 6895 6894 ] final  -69.06 input  -60.11 | X-H torsion
[ 7974 7965 7964 7962 ] final   93.53 input  175.53 | X-H torsion
[ 8008 7997 7996 7995 ] final  -81.36 input   59.86 | X-H torsion
[ 10167 10162 10161 10158 ] final   77.52 input  -65.29 | X-H torsion
[ 10718 10713 10712 10709 ] final  166.44 input   66.30 | X-H torsion
[ 10763 10752 10751 10750 ] final   61.83 input  -60.55 | X-H torsion
[ 11005 11000 10999 10996 ] final   63.41 input  -57.11 | X-H torsion

> <Gold.Protein.ActiveResidues>
 VAL166  LYS551  ARG553  GLY616  TRP617  ASP618  TYR619  PRO620  LYS621  CYS622 
 ASP623  PHE694  ASN695  SER759  ASP760  ASP761  ALA762  ILE779  LEU786  VAL792 
 PHE793  MET794  SER795  GLU796  ALA797  LYS798  CYS799  TRP800  GLU811  SER814 

> <Gold.Protein.RotatedAtoms>
  150.7324  134.5650  159.5861 H   0  0  0  0  0  0  0  0  0  0  0  0  # atno 6907 bound_to 6896
  152.3104  134.7502  160.0347 H   0  0  0  0  0  0  0  0  0  0  0  0  # atno 6908 bound_to 6896
  151.8052  133.3339  159.3575 H   0  0  0  0  0  0  0  0  0  0  0  0  # atno 6909 bound_to 6896
  145.4777  139.2279  143.2900 H   0  0  0  0  0  0  0  0  0  0  0  0  # atno 7974 bound_to 7965
  154.5976  140.0649  156.9324 H   0  0  0  0  0  0  0  0  0  0  0  0  # atno 8008 bound_to 7997
  155.2188  140.3328  155.4300 H   0  0  0  0  0  0  0  0  0  0  0  0  # atno 8009 bound_to 7997
  156.2297  140.1835  156.7258 H   0  0  0  0  0  0  0  0  0  0  0  0  # atno 8010 bound_to 7997
  139.9807  144.5828  150.7903 H   0  0  0  0  0  0  0  0  0  0  0  0  # atno 10167 bound_to 10162
  157.0658  131.0352  151.2630 H   0  0  0  0  0  0  0  0  0  0  0  0  # atno 10718 bound_to 10713
  152.9963  135.5486  154.6097 H   0  0  0  0  0  0  0  0  0  0  0  0  # atno 10763 bound_to 10752
  154.5420  135.2820  155.1089 H   0  0  0  0  0  0  0  0  0  0  0  0  # atno 10764 bound_to 10752
  154.2362  135.6424  153.5244 H   0  0  0  0  0  0  0  0  0  0  0  0  # atno 10765 bound_to 10752
  140.0027  134.6418  155.9905 H   0  0  0  0  0  0  0  0  0  0  0  0  # atno 11005 bound_to 11000
  146.2359  140.5561  142.8955 LP  0  0  0  0  0  0  0  0  0  0  0  0  # atno 17320 bound_to 7965
  144.7907  140.6026  143.6543 LP  0  0  0  0  0  0  0  0  0  0  0  0  # atno 17321 bound_to 7965
  140.7490  143.2931  151.3276 LP  0  0  0  0  0  0  0  0  0  0  0  0  # atno 17342 bound_to 10162
  139.6412  144.0536  152.2555 LP  0  0  0  0  0  0  0  0  0  0  0  0  # atno 17343 bound_to 10162
  157.4918  130.7826  149.7515 LP  0  0  0  0  0  0  0  0  0  0  0  0  # atno 17370 bound_to 10713
  155.9965  130.3905  150.2778 LP  0  0  0  0  0  0  0  0  0  0  0  0  # atno 17371 bound_to 10713
  141.1654  133.6537  156.4460 LP  0  0  0  0  0  0  0  0  0  0  0  0  # atno 17394 bound_to 11000
  140.4699  134.6763  157.5124 LP  0  0  0  0  0  0  0  0  0  0  0  0  # atno 17395 bound_to 11000

$$$$
