AV-unprocessed.smi:2353|AV-procd|sdf|9383|dock6
  -GOLD-   2272013 13D 1   1.00000     0.00000
 Structure written by MMmdl.
 46 48  0  0  0  0  0  0  0  0  2 V2000
  141.9559  133.6409  162.6660 C   0  0  0  0  0  0  0  0  0  0  0  0
  143.3671  133.5826  162.1179 C   0  0  0  0  0  0  0  0  0  0  0  0
  144.4576  133.3848  162.9864 C   0  0  0  0  0  0  0  0  0  0  0  0
  145.7652  133.3341  162.4713 C   0  0  0  0  0  0  0  0  0  0  0  0
  145.9910  133.4809  161.0870 C   0  0  0  0  0  0  0  0  0  0  0  0
  147.4086  133.4219  160.5496 C   0  0  0  0  0  0  0  0  0  0  0  0
  144.9050  133.6805  160.2033 C   0  0  0  0  0  0  0  0  0  0  0  0
  145.1956  133.8162  158.8612 O   0  0  0  0  0  0  0  0  0  0  0  0
  144.1319  134.0851  157.9574 C   0  0  0  0  0  0  0  0  0  0  0  0
  144.5791  133.6860  156.5403 C   0  0  1  0  0  0  0  0  0  0  0  0
  143.5281  134.0403  155.6629 O   0  0  0  0  0  0  0  0  0  0  0  0
  145.8511  134.4432  156.0967 C   0  0  0  0  0  0  0  0  0  0  0  0
  146.5217  133.7720  154.9759 N   0  0  0  0  0  0  0  0  0  0  0  0
  145.7547  133.6904  153.8265 N   0  0  0  0  0  0  0  0  0  0  0  0
  146.2181  133.1396  152.7522 C   0  0  0  0  0  0  0  0  0  0  0  0
  145.4059  133.0606  151.5478 N   0  0  0  0  0  0  0  0  0  0  0  0
  145.7516  132.4826  150.3510 C   0  0  0  0  0  0  0  0  0  0  0  0
  144.6771  132.6497  149.5161 C   0  0  0  0  0  0  0  0  0  0  0  0
  143.7243  133.3205  150.2361 N   0  3  0  0  0  0  0  0  0  0  0  0
  144.1652  133.5720  151.4741 C   0  0  0  0  0  0  0  0  0  0  0  0
  147.5709  132.5929  152.7490 C   0  0  0  0  0  0  0  0  0  0  0  0
  148.3113  132.6810  153.8750 C   0  0  0  0  0  0  0  0  0  0  0  0
  147.7994  133.3068  155.0923 C   0  0  0  0  0  0  0  0  0  0  0  0
  148.4604  133.4107  156.1245 O   0  0  0  0  0  0  0  0  0  0  0  0
  143.5906  133.7313  160.7342 C   0  0  0  0  0  0  0  0  0  0  0  0
  141.9021  133.2075  163.6651 H   0  0  0  0  0  0  0  0  0  0  0  0
  141.2714  133.0888  162.0215 H   0  0  0  0  0  0  0  0  0  0  0  0
  141.6169  134.6756  162.7219 H   0  0  0  0  0  0  0  0  0  0  0  0
  144.2963  133.2719  164.0486 H   0  0  0  0  0  0  0  0  0  0  0  0
  146.5952  133.1813  163.1454 H   0  0  0  0  0  0  0  0  0  0  0  0
  147.5326  132.5480  159.9099 H   0  0  0  0  0  0  0  0  0  0  0  0
  148.1393  133.3592  161.3562 H   0  0  0  0  0  0  0  0  0  0  0  0
  147.6305  134.3129  159.9618 H   0  0  0  0  0  0  0  0  0  0  0  0
  143.2166  133.5616  158.2399 H   0  0  0  0  0  0  0  0  0  0  0  0
  143.9275  135.1566  157.9888 H   0  0  0  0  0  0  0  0  0  0  0  0
  144.7508  132.6091  156.5044 H   0  0  0  0  0  0  0  0  0  0  0  0
  143.1789  133.2518  155.2758 H   0  0  0  0  0  0  0  0  0  0  0  0
  145.6330  135.4905  155.8777 H   0  0  0  0  0  0  0  0  0  0  0  0
  146.5604  134.4795  156.9256 H   0  0  0  0  0  0  0  0  0  0  0  0
  146.7076  132.0074  150.1826 H   0  0  0  0  0  0  0  0  0  0  0  0
  144.5227  132.3490  148.4899 H   0  0  0  0  0  0  0  0  0  0  0  0
  143.6028  134.0867  152.2307 H   0  0  0  0  0  0  0  0  0  0  0  0
  148.0043  132.1216  151.8825 H   0  0  0  0  0  0  0  0  0  0  0  0
  149.3139  132.2787  153.8786 H   0  0  0  0  0  0  0  0  0  0  0  0
  142.7333  133.8839  160.0962 H   0  0  0  0  0  0  0  0  0  0  0  0
  142.8140  133.5894  149.8837 H   0  0  0  0  0  0  0  0  0  0  0  0
  1  2  1  0  0  0  0
  1 26  1  0  0  0  0
  1 27  1  0  0  0  0
  1 28  1  0  0  0  0
  2 25  1  0  0  0  0
  2  3  2  0  0  0  0
  3  4  1  0  0  0  0
  3 29  1  0  0  0  0
  4  5  2  0  0  0  0
  4 30  1  0  0  0  0
  5  6  1  0  0  0  0
  5  7  1  0  0  0  0
  6 31  1  0  0  0  0
  6 32  1  0  0  0  0
  6 33  1  0  0  0  0
  7  8  1  0  0  0  0
  7 25  2  0  0  0  0
  8  9  1  0  0  0  0
  9 10  1  0  0  0  0
  9 34  1  0  0  0  0
  9 35  1  0  0  0  0
 10 11  1  0  0  0  0
 10 12  1  0  0  0  0
 10 36  1  0  0  0  0
 11 37  1  0  0  0  0
 12 13  1  0  0  0  0
 12 38  1  0  0  0  0
 12 39  1  0  0  0  0
 13 23  1  0  0  0  0
 13 14  1  0  0  0  0
 14 15  2  0  0  0  0
 15 16  1  0  0  0  0
 15 21  1  0  0  0  0
 16 20  1  0  0  0  0
 16 17  1  0  0  0  0
 17 18  2  0  0  0  0
 17 40  1  0  0  0  0
 18 19  1  0  0  0  0
 18 41  1  0  0  0  0
 19 20  2  0  0  0  0
 19 46  1  0  0  0  0
 20 42  1  0  0  0  0
 21 22  2  0  0  0  0
 21 43  1  0  0  0  0
 22 23  1  0  0  0  0
 22 44  1  0  0  0  0
 23 24  2  0  0  0  0
 25 45  1  0  0  0  0
M  CHG  1  19   1
M  END
> <s_m_source_file>
AV-unprocessed.smi

> <i_m_source_file_index>
2353

> <i_lp_mmshare_version>
43012

> <i_f3d_flags>
0

> <s_epik_input>
W0NIM11jMVtjSF1bY0hdYyhbQ0gzXSljKFtjSF0xKU9bQ0gyXVtDQEhdKFtPSF0pW0NIMl1uMm5jKFtjSF1bY0hdYzI9TyktbjNbY0hdW2NIXW5bY0hdMw==

> <s_epik_cmdline>
J2VwaWtfcHl0aG9uJywgJy1waCcsICc3LjAnLCAnLXRuJywgJzgnLCAnLW1hJywgJzIwMCcsICctbWV0YWxfYmluZGluZycsICctaW1hZScsICc8aW5maWxlLm1hZT4nLCAnLW9tYWUnLCAnPG91dGZpbGUubWFlPic=

> <r_lp_tautomer_probability>
1

> <r_epik_Ionization_Penalty>
1.66053

> <r_epik_Ionization_Penalty_Charging>
2.43903e-09

> <r_epik_Ionization_Penalty_Neutral>
1.66053

> <r_epik_State_Penalty>
1.76336

> <r_epik_Charging_Adjusted_Penalty>
1.76336

> <i_epik_Tot_Q>
1

> <i_epik_Tot_abs_Q>
1

> <r_epik_Metal_State_Penalty>
1.79856

> <b_epik_Metal_Only>
0

> <s_lp_Force_Field>
OPLS_2005

> <r_lp_Energy>
39.4345

> <b_lp_Chiralities_Consistent>
1

> <s_lp_Variant>
AV-unprocessed.smi:2353-4

> <Gold.Version>
5.8.1

> <Gold.Id.Protein>
6NUR|6NUR_protein|mol2

> <Gold.PLP.Fitness>
46.1619

> <Gold.PLP.PLP>
-35.0273

> <Gold.PLP.part.hbond>
-2.0000

> <Gold.PLP.part.metal>
0.0000

> <Gold.PLP.part.buried>
-5.5206

> <Gold.PLP.part.nonpolar>
-27.9496

> <Gold.PLP.part.repulsive>
0.1267

> <Gold.PLP.ligand.clash>
0.0000

> <Gold.PLP.ligand.torsion>
0.3046

> <Gold.PLP.Chemscore.Hbond>
3.0000

> <Gold.PLP.Chemscore.CHOScore>
0.8963

> <Gold.PLP.Chemscore.Metal>
0.0000

> <Gold.Chemscore.Hbonds>
donor molecule, donor type, donor heavy atom, donor atom, acceptor molecule, acceptor atom, score
      L1  H    11    37       P1 10957  1.00
      L1  H    19    46       P1 10186  2.00
      L1  C    17    40       P1 10747  0.99

> <Gold.PLP.Chemscore.Internal.Correction>
0.0548

> <Gold.Rescore>
     Score         DG    S(hbond)    S(metal)    S(lipo)     H(rot)  DE(clash)    DE(int)     intcor
     13.36     -14.94       2.00        0.00      81.80       2.65       0.01       1.56       ----

> <Gold.Chemscore.Fitness>
13.3584

> <Gold.Chemscore.DG>
-14.9370

> <Gold.Chemscore.ZeroCoef>
-5.4800

> <Gold.Chemscore.Hbond>
1.9999

> <Gold.Chemscore.Metal>
0.0000

> <Gold.Chemscore.Lipo>
81.8032

> <Gold.Chemscore.Internal_Hbond>
0.0000

> <Gold.Chemscore.DEClash>
0.0149

> <Gold.Chemscore.DEInternal>
1.5637

> <Gold.Chemscore.Rot>
2.6537

> <Gold.Chemscore.Internal.Correction>
   9.000000E+99

> <Gold.Chemscore.Hbonds>
donor molecule, donor type, donor heavy atom, donor atom, acceptor molecule, acceptor atom, score
      L1  H    11    37       P1 10957  1.00
      L1  H    19    46       P1 10186  0.94

> <Gold.Chemscore.Hbond.Weighted>
-6.6795

> <Gold.Chemscore.Metal.Weighted>
-0.0000

> <Gold.Chemscore.Lipo.Weighted>
-9.5710

> <Gold.Chemscore.Internal_Hbond.Weighted>
0.0000

> <Gold.Chemscore.DEClash.Weighted>
0.0149

> <Gold.Chemscore.DEInternal.Weighted>
1.5637

> <Gold.Chemscore.Rot.Weighted>
6.7935

> <Gold.Chemscore.Internal.Correction.Weighted>
   9.000000E+99

> <Gold.Protein.RotatedTorsions>
[ 6907 6896 6895 6894 ] final    3.11 input  -60.11 | X-H torsion
[ 7974 7965 7964 7962 ] final  -55.93 input  175.53 | X-H torsion
[ 8008 7997 7996 7995 ] final  -87.01 input   59.86 | X-H torsion
[ 10167 10162 10161 10158 ] final  -96.53 input  -65.29 | X-H torsion
[ 10718 10713 10712 10709 ] final   26.37 input   66.30 | X-H torsion
[ 10763 10752 10751 10750 ] final  137.97 input  -60.55 | X-H torsion
[ 11005 11000 10999 10996 ] final  139.71 input  -57.11 | X-H torsion

> <Gold.Protein.ActiveResidues>
 VAL166  LYS551  ARG553  GLY616  TRP617  ASP618  TYR619  PRO620  LYS621  CYS622 
 ASP623  PHE694  ASN695  SER759  ASP760  ASP761  ALA762  ILE779  LEU786  VAL792 
 PHE793  MET794  SER795  GLU796  ALA797  LYS798  CYS799  TRP800  GLU811  SER814 

> <Gold.Protein.RotatedAtoms>
  151.6198  135.1033  160.0098 H   0  0  0  0  0  0  0  0  0  0  0  0  # atno 6907 bound_to 6896
  152.4164  133.7040  159.6451 H   0  0  0  0  0  0  0  0  0  0  0  0  # atno 6908 bound_to 6896
  150.8052  133.8450  159.3230 H   0  0  0  0  0  0  0  0  0  0  0  0  # atno 6909 bound_to 6896
  145.8685  140.8233  142.9900 H   0  0  0  0  0  0  0  0  0  0  0  0  # atno 7974 bound_to 7965
  154.6583  140.0571  157.0034 H   0  0  0  0  0  0  0  0  0  0  0  0  # atno 8008 bound_to 7997
  155.1266  140.3252  155.4465 H   0  0  0  0  0  0  0  0  0  0  0  0  # atno 8009 bound_to 7997
  156.2607  140.1988  156.6387 H   0  0  0  0  0  0  0  0  0  0  0  0  # atno 8010 bound_to 7997
  140.2929  143.3210  152.0328 H   0  0  0  0  0  0  0  0  0  0  0  0  # atno 10167 bound_to 10162
  157.2060  130.6912  149.6208 H   0  0  0  0  0  0  0  0  0  0  0  0  # atno 10718 bound_to 10713
  153.8818  135.3043  155.3445 H   0  0  0  0  0  0  0  0  0  0  0  0  # atno 10763 bound_to 10752
  154.7758  135.4862  153.9744 H   0  0  0  0  0  0  0  0  0  0  0  0  # atno 10764 bound_to 10752
  153.1347  135.6811  153.9219 H   0  0  0  0  0  0  0  0  0  0  0  0  # atno 10765 bound_to 10752
  140.0274  134.9368  157.0595 H   0  0  0  0  0  0  0  0  0  0  0  0  # atno 11005 bound_to 11000
  144.6726  140.1203  143.7450 LP  0  0  0  0  0  0  0  0  0  0  0  0  # atno 17320 bound_to 7965
  145.9164  139.2519  143.1407 LP  0  0  0  0  0  0  0  0  0  0  0  0  # atno 17321 bound_to 7965
  139.4933  144.6512  151.6671 LP  0  0  0  0  0  0  0  0  0  0  0  0  # atno 17342 bound_to 10162
  140.5717  144.0097  150.6220 LP  0  0  0  0  0  0  0  0  0  0  0  0  # atno 17343 bound_to 10162
  155.9695  130.4567  150.5935 LP  0  0  0  0  0  0  0  0  0  0  0  0  # atno 17370 bound_to 10713
  157.3720  131.0767  151.1550 LP  0  0  0  0  0  0  0  0  0  0  0  0  # atno 17371 bound_to 10713
  140.4283  134.1807  155.7167 LP  0  0  0  0  0  0  0  0  0  0  0  0  # atno 17394 bound_to 11000
  141.1811  133.8412  157.1255 LP  0  0  0  0  0  0  0  0  0  0  0  0  # atno 17395 bound_to 11000

$$$$
