AV-unprocessed.smi:314|AV-procd|sdf|2313|dock8
  -GOLD-   2262022213D 1   1.00000     0.00000
 Structure written by MMmdl.
 48 49  0  0  0  0  0  0  0  0  1 V2000
  146.0770  129.1430  152.2739 C   0  0  0  0  0  0  0  0  0  0  0  0
  147.0135  129.3313  153.3291 O   0  0  0  0  0  0  0  0  0  0  0  0
  147.5904  130.5758  153.4784 C   0  0  0  0  0  0  0  0  0  0  0  0
  148.5946  130.7414  154.4524 C   0  0  0  0  0  0  0  0  0  0  0  0
  149.1884  132.0081  154.6122 C   0  0  0  0  0  0  0  0  0  0  0  0
  148.7606  133.0746  153.7846 C   0  0  0  0  0  0  0  0  0  0  0  0
  149.2657  134.4037  153.8401 N   0  0  0  0  0  0  0  0  0  0  0  0
  150.0718  134.9745  154.7523 C   0  0  0  0  0  0  0  0  0  0  0  0
  150.5388  134.4191  155.7459 O   0  0  0  0  0  0  0  0  0  0  0  0
  150.3221  136.2536  154.4393 N   0  0  0  0  0  0  0  0  0  0  0  0
  151.1485  137.1635  155.2246 C   0  0  0  0  0  0  0  0  0  0  0  0
  150.6032  138.6066  155.1887 C   0  0  0  0  0  0  0  0  0  0  0  0
  151.5141  139.6310  155.8878 C   0  0  0  0  0  0  0  0  0  0  0  0
  152.6786  139.7538  155.5044 O   0  0  0  0  0  0  0  0  0  0  0  0
  151.0110  140.3680  156.9072 N   0  0  0  0  0  0  0  0  0  0  0  0
  149.6264  140.3496  157.3876 C   0  0  0  0  0  0  0  0  0  0  0  0
  148.9924  141.7222  157.0853 C   0  0  1  0  0  0  0  0  0  0  0  0
  147.5530  141.8245  157.6009 C   0  0  0  0  0  0  0  0  0  0  0  0
  149.7644  142.7417  157.7190 O   0  0  0  0  0  0  0  0  0  0  0  0
  151.1301  142.7712  157.3056 C   0  0  1  0  0  0  0  0  0  0  0  0
  151.8284  143.9167  158.0463 C   0  0  0  0  0  0  0  0  0  0  0  0
  151.7783  141.4042  157.6030 C   0  0  0  0  0  0  0  0  0  0  0  0
  147.7442  132.8043  152.8449 C   0  0  0  0  0  0  0  0  0  0  0  0
  147.1704  131.5931  152.6869 N   0  0  0  0  0  0  0  0  0  0  0  0
  145.7189  128.1137  152.2890 H   0  0  0  0  0  0  0  0  0  0  0  0
  146.5335  129.3198  151.2990 H   0  0  0  0  0  0  0  0  0  0  0  0
  145.2106  129.7962  152.3872 H   0  0  0  0  0  0  0  0  0  0  0  0
  148.9032  129.9107  155.0697 H   0  0  0  0  0  0  0  0  0  0  0  0
  149.9477  132.1258  155.3680 H   0  0  0  0  0  0  0  0  0  0  0  0
  148.9962  134.9934  153.0663 H   0  0  0  0  0  0  0  0  0  0  0  0
  149.8999  136.6307  153.6035 H   0  0  0  0  0  0  0  0  0  0  0  0
  151.1627  136.7902  156.2494 H   0  0  0  0  0  0  0  0  0  0  0  0
  152.1785  137.1298  154.8649 H   0  0  0  0  0  0  0  0  0  0  0  0
  150.4664  138.9144  154.1513 H   0  0  0  0  0  0  0  0  0  0  0  0
  149.6232  138.6312  155.6669 H   0  0  0  0  0  0  0  0  0  0  0  0
  149.0207  139.5575  156.9506 H   0  0  0  0  0  0  0  0  0  0  0  0
  149.6243  140.1623  158.4626 H   0  0  0  0  0  0  0  0  0  0  0  0
  148.9899  141.8962  156.0076 H   0  0  0  0  0  0  0  0  0  0  0  0
  146.9141  141.0737  157.1353 H   0  0  0  0  0  0  0  0  0  0  0  0
  147.1294  142.8044  157.3797 H   0  0  0  0  0  0  0  0  0  0  0  0
  147.5086  141.6793  158.6807 H   0  0  0  0  0  0  0  0  0  0  0  0
  151.1717  142.9717  156.2333 H   0  0  0  0  0  0  0  0  0  0  0  0
  152.8763  143.9916  157.7551 H   0  0  0  0  0  0  0  0  0  0  0  0
  151.7899  143.7691  159.1259 H   0  0  0  0  0  0  0  0  0  0  0  0
  151.3522  144.8718  157.8239 H   0  0  0  0  0  0  0  0  0  0  0  0
  151.7668  141.2021  158.6751 H   0  0  0  0  0  0  0  0  0  0  0  0
  152.8292  141.4203  157.3113 H   0  0  0  0  0  0  0  0  0  0  0  0
  147.3782  133.5851  152.1943 H   0  0  0  0  0  0  0  0  0  0  0  0
  1  2  1  0  0  0  0
  1 25  1  0  0  0  0
  1 26  1  0  0  0  0
  1 27  1  0  0  0  0
  2  3  1  0  0  0  0
  3 24  1  0  0  0  0
  3  4  2  0  0  0  0
  4  5  1  0  0  0  0
  4 28  1  0  0  0  0
  5  6  2  0  0  0  0
  5 29  1  0  0  0  0
  6  7  1  0  0  0  0
  6 23  1  0  0  0  0
  7  8  1  0  0  0  0
  7 30  1  0  0  0  0
  8  9  2  0  0  0  0
  8 10  1  0  0  0  0
 10 11  1  0  0  0  0
 10 31  1  0  0  0  0
 11 12  1  0  0  0  0
 11 32  1  0  0  0  0
 11 33  1  0  0  0  0
 12 13  1  0  0  0  0
 12 34  1  0  0  0  0
 12 35  1  0  0  0  0
 13 14  2  0  0  0  0
 13 15  1  0  0  0  0
 15 22  1  0  0  0  0
 15 16  1  0  0  0  0
 16 17  1  0  0  0  0
 16 36  1  0  0  0  0
 16 37  1  0  0  0  0
 17 18  1  0  0  0  0
 17 19  1  0  0  0  0
 17 38  1  0  0  0  0
 18 39  1  0  0  0  0
 18 40  1  0  0  0  0
 18 41  1  0  0  0  0
 19 20  1  0  0  0  0
 20 21  1  0  0  0  0
 20 22  1  0  0  0  0
 20 42  1  0  0  0  0
 21 43  1  0  0  0  0
 21 44  1  0  0  0  0
 21 45  1  0  0  0  0
 22 46  1  0  0  0  0
 22 47  1  0  0  0  0
 23 24  2  0  0  0  0
 23 48  1  0  0  0  0
M  END
> <s_m_source_file>
AV-unprocessed.smi

> <i_m_source_file_index>
314

> <i_lp_mmshare_version>
43012

> <i_f3d_flags>
0

> <s_epik_input>
W0NIM11PYzFbY0hdW2NIXWMoW2NIXW4xKVtOSF1DKD1PKVtOSF1bQ0gyXVtDSDJdQyg9TylOMltDSDJdW0NAQEhdKFtDSDNdKU9bQ0BASF0oW0NIM10pW0NIMl0y

> <s_epik_cmdline>
J2VwaWtfcHl0aG9uJywgJy1waCcsICc3LjAnLCAnLXRuJywgJzgnLCAnLW1hJywgJzIwMCcsICctbWV0YWxfYmluZGluZycsICctaW1hZScsICc8aW5maWxlLm1hZT4nLCAnLW9tYWUnLCAnPG91dGZpbGUubWFlPic=

> <r_lp_tautomer_probability>
1

> <r_epik_Ionization_Penalty>
8.55977e-05

> <r_epik_Ionization_Penalty_Charging>
0

> <r_epik_Ionization_Penalty_Neutral>
8.55977e-05

> <r_epik_State_Penalty>
-0

> <r_epik_Charging_Adjusted_Penalty>
0

> <i_epik_Tot_Q>
0

> <i_epik_Tot_abs_Q>
0

> <r_epik_Metal_State_Penalty>
-0

> <b_epik_Metal_Only>
0

> <s_lp_Force_Field>
OPLS_2005

> <r_lp_Energy>
24.2957

> <b_lp_Chiralities_Consistent>
1

> <s_lp_Variant>
AV-unprocessed.smi:314-1

> <Gold.Version>
5.8.1

> <Gold.Id.Protein>
6NUR|6NUR_protein|mol2

> <Gold.PLP.Fitness>
48.6474

> <Gold.PLP.PLP>
-39.9487

> <Gold.PLP.part.hbond>
-4.9734

> <Gold.PLP.part.metal>
0.0000

> <Gold.PLP.part.buried>
-4.1531

> <Gold.PLP.part.nonpolar>
-32.4999

> <Gold.PLP.part.repulsive>
0.6788

> <Gold.PLP.ligand.clash>
0.0000

> <Gold.PLP.ligand.torsion>
0.2409

> <Gold.PLP.Chemscore.Hbond>
3.0532

> <Gold.PLP.Chemscore.CHOScore>
0.0000

> <Gold.PLP.Chemscore.Metal>
0.0000

> <Gold.Chemscore.Hbonds>
donor molecule, donor type, donor heavy atom, donor atom, acceptor molecule, acceptor atom, score
      L1  H     7    30       P1  7948  0.85
      L1  H    10    31       P1  7948  0.93
      P1  H  7997  8008       L1    14  1.00

> <Gold.PLP.Chemscore.Internal.Correction>
0.0210

> <Gold.Rescore>
     Score         DG    S(hbond)    S(metal)    S(lipo)     H(rot)  DE(clash)    DE(int)     intcor
     14.97     -16.38       1.90        0.00      78.37       1.81       0.12       1.28       ----

> <Gold.Chemscore.Fitness>
14.9745

> <Gold.Chemscore.DG>
-16.3779

> <Gold.Chemscore.ZeroCoef>
-5.4800

> <Gold.Chemscore.Hbond>
1.9023

> <Gold.Chemscore.Metal>
0.0000

> <Gold.Chemscore.Lipo>
78.3709

> <Gold.Chemscore.Internal_Hbond>
0.0000

> <Gold.Chemscore.DEClash>
0.1210

> <Gold.Chemscore.DEInternal>
1.2824

> <Gold.Chemscore.Rot>
1.8067

> <Gold.Chemscore.Internal.Correction>
   9.000000E+99

> <Gold.Chemscore.Hbonds>
donor molecule, donor type, donor heavy atom, donor atom, acceptor molecule, acceptor atom, score
      L1  H     7    30       P1  7948  0.15
      L1  H    10    31       P1  7948  0.26
      P1  H  7997  8008       L1    14  1.00

> <Gold.Chemscore.Hbond.Weighted>
-6.3536

> <Gold.Chemscore.Metal.Weighted>
-0.0000

> <Gold.Chemscore.Lipo.Weighted>
-9.1694

> <Gold.Chemscore.Internal_Hbond.Weighted>
0.0000

> <Gold.Chemscore.DEClash.Weighted>
0.1210

> <Gold.Chemscore.DEInternal.Weighted>
1.2824

> <Gold.Chemscore.Rot.Weighted>
4.6252

> <Gold.Chemscore.Internal.Correction.Weighted>
   9.000000E+99

> <Gold.Protein.RotatedTorsions>
[ 6907 6896 6895 6894 ] final -159.45 input  -60.11 | X-H torsion
[ 7974 7965 7964 7962 ] final  140.94 input  175.53 | X-H torsion
[ 8008 7997 7996 7995 ] final  -38.33 input   59.86 | X-H torsion
[ 10167 10162 10161 10158 ] final   59.40 input  -65.29 | X-H torsion
[ 10718 10713 10712 10709 ] final -177.17 input   66.30 | X-H torsion
[ 10763 10752 10751 10750 ] final   57.17 input  -60.55 | X-H torsion
[ 11005 11000 10999 10996 ] final   65.94 input  -57.11 | X-H torsion

> <Gold.Protein.ActiveResidues>
 VAL166  LYS551  ARG553  GLY616  TRP617  ASP618  TYR619  PRO620  LYS621  CYS622 
 ASP623  PHE694  ASN695  SER759  ASP760  ASP761  ALA762  ILE779  LEU786  VAL792 
 PHE793  MET794  SER795  GLU796  ALA797  LYS798  CYS799  TRP800  GLU811  SER814 

> <Gold.Protein.RotatedAtoms>
  151.3337  133.3990  159.2664 H   0  0  0  0  0  0  0  0  0  0  0  0  # atno 6907 bound_to 6896
  150.9934  134.9264  159.7923 H   0  0  0  0  0  0  0  0  0  0  0  0  # atno 6908 bound_to 6896
  152.5254  134.3302  159.9232 H   0  0  0  0  0  0  0  0  0  0  0  0  # atno 6909 bound_to 6896
  144.9141  139.5253  143.5694 H   0  0  0  0  0  0  0  0  0  0  0  0  # atno 7974 bound_to 7965
  154.4038  140.1580  156.2683 H   0  0  0  0  0  0  0  0  0  0  0  0  # atno 8008 bound_to 7997
  155.8976  140.3435  155.5980 H   0  0  0  0  0  0  0  0  0  0  0  0  # atno 8009 bound_to 7997
  155.7486  140.0802  157.2203 H   0  0  0  0  0  0  0  0  0  0  0  0  # atno 8010 bound_to 7997
  140.1768  144.4222  150.6634 H   0  0  0  0  0  0  0  0  0  0  0  0  # atno 10167 bound_to 10162
  156.8255  130.9635  151.3109 H   0  0  0  0  0  0  0  0  0  0  0  0  # atno 10718 bound_to 10713
  152.9845  135.5651  154.5347 H   0  0  0  0  0  0  0  0  0  0  0  0  # atno 10763 bound_to 10752
  154.4812  135.2788  155.1571 H   0  0  0  0  0  0  0  0  0  0  0  0  # atno 10764 bound_to 10752
  154.3079  135.6294  153.5506 H   0  0  0  0  0  0  0  0  0  0  0  0  # atno 10765 bound_to 10752
  139.9863  134.6663  156.0171 H   0  0  0  0  0  0  0  0  0  0  0  0  # atno 11005 bound_to 11000
  146.3173  139.7970  142.8973 LP  0  0  0  0  0  0  0  0  0  0  0  0  # atno 17320 bound_to 7965
  145.3404  141.0286  143.3395 LP  0  0  0  0  0  0  0  0  0  0  0  0  # atno 17321 bound_to 7965
  140.6546  143.2234  151.5998 LP  0  0  0  0  0  0  0  0  0  0  0  0  # atno 17342 bound_to 10162
  139.5314  144.2907  152.1155 LP  0  0  0  0  0  0  0  0  0  0  0  0  # atno 17343 bound_to 10162
  157.6434  130.8824  149.9492 LP  0  0  0  0  0  0  0  0  0  0  0  0  # atno 17370 bound_to 10713
  156.0964  130.3659  150.0299 LP  0  0  0  0  0  0  0  0  0  0  0  0  # atno 17371 bound_to 10713
  141.1527  133.6546  156.4064 LP  0  0  0  0  0  0  0  0  0  0  0  0  # atno 17394 bound_to 11000
  140.4996  134.6498  157.5243 LP  0  0  0  0  0  0  0  0  0  0  0  0  # atno 17395 bound_to 11000

$$$$
