AV-unprocessed.smi:1824|AV-procd|sdf|7412|dock6
  -GOLD-   22720 9 93D 1   1.00000     0.00000
 Structure written by MMmdl.
 45 47  0  0  0  0  0  0  0  0  2 V2000
  146.8634  142.6344  154.0413 C   0  0  0  0  0  0  0  0  0  0  0  0
  147.1953  141.1468  153.8845 C   0  0  1  0  0  0  0  0  0  0  0  0
  148.6677  140.8431  154.2148 C   0  0  0  0  0  0  0  0  0  0  0  0
  148.9600  139.4169  154.1429 N   0  0  0  0  0  0  0  0  0  0  0  0
  150.3757  139.1580  154.4100 C   0  0  0  0  0  0  0  0  0  0  0  0
  150.7195  138.8169  155.8738 C   0  0  1  0  0  0  0  0  0  0  0  0
  151.0856  137.4528  155.9395 O   0  0  0  0  0  0  0  0  0  0  0  0
  151.8780  139.6853  156.4002 C   0  0  0  0  0  0  0  0  0  0  0  0
  151.4378  141.0197  156.8327 N   0  0  0  0  0  0  0  0  0  0  0  0
  150.6674  141.9314  156.1797 C   0  0  0  0  0  0  0  0  0  0  0  0
  150.5392  143.0181  156.9902 N   0  3  0  0  0  0  0  0  0  0  0  0
  151.2370  142.7976  158.1797 C   0  0  0  0  0  0  0  0  0  0  0  0
  151.4018  143.6035  159.3015 C   0  0  0  0  0  0  0  0  0  0  0  0
  152.1770  143.0754  160.3547 C   0  0  0  0  0  0  0  0  0  0  0  0
  152.3702  143.8187  161.4698 F   0  0  0  0  0  0  0  0  0  0  0  0
  152.7524  141.7900  160.2693 C   0  0  0  0  0  0  0  0  0  0  0  0
  153.4875  141.3200  161.3048 F   0  0  0  0  0  0  0  0  0  0  0  0
  152.5785  140.9823  159.1261 C   0  0  0  0  0  0  0  0  0  0  0  0
  151.8145  141.5137  158.0876 C   0  0  0  0  0  0  0  0  0  0  0  0
  148.0717  138.7082  155.0633 C   0  0  0  0  0  0  0  0  0  0  0  0
  146.5818  139.0007  154.7951 C   0  0  2  0  0  0  0  0  0  0  0  0
  146.0461  138.3075  153.5308 C   0  0  0  0  0  0  0  0  0  0  0  0
  146.3506  140.4099  154.7663 O   0  0  0  0  0  0  0  0  0  0  0  0
  147.4741  143.2452  153.3760 H   0  0  0  0  0  0  0  0  0  0  0  0
  147.0394  142.9727  155.0628 H   0  0  0  0  0  0  0  0  0  0  0  0
  145.8173  142.8268  153.8024 H   0  0  0  0  0  0  0  0  0  0  0  0
  146.9853  140.8560  152.8549 H   0  0  0  0  0  0  0  0  0  0  0  0
  149.3081  141.3859  153.5184 H   0  0  0  0  0  0  0  0  0  0  0  0
  148.9043  141.2186  155.2119 H   0  0  0  0  0  0  0  0  0  0  0  0
  150.7167  138.3314  153.7844 H   0  0  0  0  0  0  0  0  0  0  0  0
  150.9596  140.0241  154.0949 H   0  0  0  0  0  0  0  0  0  0  0  0
  149.8579  138.9714  156.5217 H   0  0  0  0  0  0  0  0  0  0  0  0
  151.9142  137.3479  155.4962 H   0  0  0  0  0  0  0  0  0  0  0  0
  152.4049  139.1935  157.2182 H   0  0  0  0  0  0  0  0  0  0  0  0
  152.6151  139.8347  155.6103 H   0  0  0  0  0  0  0  0  0  0  0  0
  150.2356  141.8139  155.1961 H   0  0  0  0  0  0  0  0  0  0  0  0
  150.9612  144.5870  159.3724 H   0  0  0  0  0  0  0  0  0  0  0  0
  153.0187  139.9978  159.0758 H   0  0  0  0  0  0  0  0  0  0  0  0
  148.2312  137.6326  155.0058 H   0  0  0  0  0  0  0  0  0  0  0  0
  148.3076  138.9988  156.0882 H   0  0  0  0  0  0  0  0  0  0  0  0
  146.0072  138.6139  155.6370 H   0  0  0  0  0  0  0  0  0  0  0  0
  146.1199  137.2237  153.6228 H   0  0  0  0  0  0  0  0  0  0  0  0
  146.6011  138.5962  152.6385 H   0  0  0  0  0  0  0  0  0  0  0  0
  144.9971  138.5542  153.3668 H   0  0  0  0  0  0  0  0  0  0  0  0
  150.0126  143.8474  156.7466 H   0  0  0  0  0  0  0  0  0  0  0  0
  1  2  1  0  0  0  0
  1 24  1  0  0  0  0
  1 25  1  0  0  0  0
  1 26  1  0  0  0  0
  2 23  1  0  0  0  0
  2  3  1  0  0  0  0
  2 27  1  0  0  0  0
  3  4  1  0  0  0  0
  3 28  1  0  0  0  0
  3 29  1  0  0  0  0
  4  5  1  0  0  0  0
  4 20  1  0  0  0  0
  5  6  1  0  0  0  0
  5 30  1  0  0  0  0
  5 31  1  0  0  0  0
  6  7  1  0  0  0  0
  6  8  1  0  0  0  0
  6 32  1  0  0  0  0
  7 33  1  0  0  0  0
  8  9  1  0  0  0  0
  8 34  1  0  0  0  0
  8 35  1  0  0  0  0
  9 19  1  0  0  0  0
  9 10  1  0  0  0  0
 10 11  2  0  0  0  0
 10 36  1  0  0  0  0
 11 12  1  0  0  0  0
 11 45  1  0  0  0  0
 12 19  2  0  0  0  0
 12 13  1  0  0  0  0
 13 14  2  0  0  0  0
 13 37  1  0  0  0  0
 14 15  1  0  0  0  0
 14 16  1  0  0  0  0
 16 17  1  0  0  0  0
 16 18  2  0  0  0  0
 18 19  1  0  0  0  0
 18 38  1  0  0  0  0
 20 21  1  0  0  0  0
 20 39  1  0  0  0  0
 20 40  1  0  0  0  0
 21 22  1  0  0  0  0
 21 23  1  0  0  0  0
 21 41  1  0  0  0  0
 22 42  1  0  0  0  0
 22 43  1  0  0  0  0
 22 44  1  0  0  0  0
M  CHG  1  11   1
M  END
> <s_m_source_file>
AV-unprocessed.smi

> <i_m_source_file_index>
1824

> <i_lp_mmshare_version>
43012

> <i_f3d_flags>
0

> <s_epik_input>
W0NIM11bQ0BASF0xW0NIMl1OKFtDSDJdW0NASF0oTzEpW0NIM10pW0NIMl1bQ0BIXShbT0hdKVtDSDJdbihbY0hdbjIpYyhjMjMpW2NIXWMoRiljKEYpW2NIXTM=

> <s_epik_cmdline>
J2VwaWtfcHl0aG9uJywgJy1waCcsICc3LjAnLCAnLXRuJywgJzgnLCAnLW1hJywgJzIwMCcsICctbWV0YWxfYmluZGluZycsICctaW1hZScsICc8aW5maWxlLm1hZT4nLCAnLW9tYWUnLCAnPG91dGZpbGUubWFlPic=

> <r_epik_Ionization_Penalty>
2.58709

> <r_epik_Ionization_Penalty_Charging>
2.37273

> <r_epik_Ionization_Penalty_Neutral>
0.214359

> <r_epik_State_Penalty>
2.71799

> <r_epik_Charging_Adjusted_Penalty>
5.09071

> <i_epik_Tot_Q>
1

> <i_epik_Tot_abs_Q>
1

> <r_epik_Metal_State_Penalty>
6.80217

> <b_epik_Metal_Only>
0

> <s_lp_Force_Field>
OPLS_2005

> <r_lp_Energy>
35.189

> <b_lp_Chiralities_Consistent>
1

> <s_lp_Variant>
AV-unprocessed.smi:1824-20

> <Gold.Version>
5.8.1

> <Gold.Id.Protein>
6NUR|6NUR_protein|mol2

> <Gold.PLP.Fitness>
49.9169

> <Gold.PLP.PLP>
-46.8352

> <Gold.PLP.part.hbond>
-1.0000

> <Gold.PLP.part.metal>
0.0000

> <Gold.PLP.part.buried>
-6.7755

> <Gold.PLP.part.nonpolar>
-39.2638

> <Gold.PLP.part.repulsive>
0.5865

> <Gold.PLP.ligand.clash>
0.0000

> <Gold.PLP.ligand.torsion>
1.4400

> <Gold.PLP.Chemscore.Hbond>
1.9840

> <Gold.PLP.Chemscore.CHOScore>
0.0000

> <Gold.PLP.Chemscore.Metal>
0.0000

> <Gold.Chemscore.Hbonds>
donor molecule, donor type, donor heavy atom, donor atom, acceptor molecule, acceptor atom, score
      L1  H    11    45       P1  8028  2.00

> <Gold.PLP.Chemscore.Internal.Correction>
0.0098

> <Gold.Rescore>
     Score         DG    S(hbond)    S(metal)    S(lipo)     H(rot)  DE(clash)    DE(int)     intcor
     13.48     -14.89       1.00        0.00     102.71       2.32       0.06       1.35       ----

> <Gold.Chemscore.Fitness>
13.4766

> <Gold.Chemscore.DG>
-14.8945

> <Gold.Chemscore.ZeroCoef>
-5.4800

> <Gold.Chemscore.Hbond>
0.9997

> <Gold.Chemscore.Metal>
0.0000

> <Gold.Chemscore.Lipo>
102.7109

> <Gold.Chemscore.Internal_Hbond>
0.0000

> <Gold.Chemscore.DEClash>
0.0642

> <Gold.Chemscore.DEInternal>
1.3536

> <Gold.Chemscore.Rot>
2.3210

> <Gold.Chemscore.Internal.Correction>
   9.000000E+99

> <Gold.Chemscore.Hbonds>
donor molecule, donor type, donor heavy atom, donor atom, acceptor molecule, acceptor atom, score
      L1  H    11    45       P1  8028  0.96

> <Gold.Chemscore.Hbond.Weighted>
-3.3390

> <Gold.Chemscore.Metal.Weighted>
-0.0000

> <Gold.Chemscore.Lipo.Weighted>
-12.0172

> <Gold.Chemscore.Internal_Hbond.Weighted>
0.0000

> <Gold.Chemscore.DEClash.Weighted>
0.0642

> <Gold.Chemscore.DEInternal.Weighted>
1.3536

> <Gold.Chemscore.Rot.Weighted>
5.9416

> <Gold.Chemscore.Internal.Correction.Weighted>
   9.000000E+99

> <Gold.Protein.RotatedTorsions>
[ 6907 6896 6895 6894 ] final  140.48 input  -60.11 | X-H torsion
[ 7974 7965 7964 7962 ] final  -51.76 input  175.53 | X-H torsion
[ 8008 7997 7996 7995 ] final  117.52 input   59.86 | X-H torsion
[ 10167 10162 10161 10158 ] final  -75.81 input  -65.29 | X-H torsion
[ 10718 10713 10712 10709 ] final  -10.31 input   66.30 | X-H torsion
[ 10763 10752 10751 10750 ] final   29.34 input  -60.55 | X-H torsion
[ 11005 11000 10999 10996 ] final   69.14 input  -57.11 | X-H torsion

> <Gold.Protein.ActiveResidues>
 VAL166  LYS551  ARG553  GLY616  TRP617  ASP618  TYR619  PRO620  LYS621  CYS622 
 ASP623  PHE694  ASN695  SER759  ASP760  ASP761  ALA762  ILE779  LEU786  VAL792 
 PHE793  MET794  SER795  GLU796  ALA797  LYS798  CYS799  TRP800  GLU811  SER814 

> <Gold.Protein.RotatedAtoms>
  152.2425  133.5147  159.5278 H   0  0  0  0  0  0  0  0  0  0  0  0  # atno 6907 bound_to 6896
  150.7069  134.1069  159.3995 H   0  0  0  0  0  0  0  0  0  0  0  0  # atno 6908 bound_to 6896
  151.8990  135.0386  160.0555 H   0  0  0  0  0  0  0  0  0  0  0  0  # atno 6909 bound_to 6896
  145.9154  140.7880  142.9674 H   0  0  0  0  0  0  0  0  0  0  0  0  # atno 7974 bound_to 7965
  156.2498  140.2894  156.0691 H   0  0  0  0  0  0  0  0  0  0  0  0  # atno 8008 bound_to 7997
  155.1691  140.0401  157.2876 H   0  0  0  0  0  0  0  0  0  0  0  0  # atno 8009 bound_to 7997
  154.6339  140.2506  155.7408 H   0  0  0  0  0  0  0  0  0  0  0  0  # atno 8010 bound_to 7997
  140.4911  143.2380  151.7906 H   0  0  0  0  0  0  0  0  0  0  0  0  # atno 10167 bound_to 10162
  156.6753  130.5021  149.5987 H   0  0  0  0  0  0  0  0  0  0  0  0  # atno 10718 bound_to 10713
  153.0436  135.6491  154.0876 H   0  0  0  0  0  0  0  0  0  0  0  0  # atno 10763 bound_to 10752
  154.0578  135.2890  155.3331 H   0  0  0  0  0  0  0  0  0  0  0  0  # atno 10764 bound_to 10752
  154.6678  135.5367  153.8164 H   0  0  0  0  0  0  0  0  0  0  0  0  # atno 10765 bound_to 10752
  139.9671  134.6963  156.0523 H   0  0  0  0  0  0  0  0  0  0  0  0  # atno 11005 bound_to 11000
  144.6747  140.1891  143.7398 LP  0  0  0  0  0  0  0  0  0  0  0  0  # atno 17320 bound_to 7965
  145.8618  139.2227  143.1712 LP  0  0  0  0  0  0  0  0  0  0  0  0  # atno 17321 bound_to 7965
  139.4851  144.4648  151.9497 LP  0  0  0  0  0  0  0  0  0  0  0  0  # atno 17342 bound_to 10162
  140.3735  144.2826  150.5917 LP  0  0  0  0  0  0  0  0  0  0  0  0  # atno 17343 bound_to 10162
  156.1908  130.6558  151.1059 LP  0  0  0  0  0  0  0  0  0  0  0  0  # atno 17370 bound_to 10713
  157.7063  131.0755  150.6656 LP  0  0  0  0  0  0  0  0  0  0  0  0  # atno 17371 bound_to 10713
  141.1350  133.6577  156.3570 LP  0  0  0  0  0  0  0  0  0  0  0  0  # atno 17394 bound_to 11000
  140.5373  134.6154  157.5369 LP  0  0  0  0  0  0  0  0  0  0  0  0  # atno 17395 bound_to 11000

$$$$
