AV-unprocessed.smi:283|AV-procd|sdf|2145|dock7
  -GOLD-   2262021473D 1   1.00000     0.00000
 Structure written by MMmdl.
 48 51  0  0  0  0  0  0  0  0  1 V2000
  149.3166  142.4837  157.6306 C   0  0  0  0  0  0  0  0  0  0  0  0
  150.6573  141.9740  157.0852 C   0  0  2  0  0  0  0  0  0  0  0  0
  150.4621  140.7018  156.3917 N   0  0  0  0  0  0  0  0  0  0  0  0
  149.4116  140.5204  155.5605 C   0  0  0  0  0  0  0  0  0  0  0  0
  148.8879  141.5552  154.8526 N   0  0  0  0  0  0  0  0  0  0  0  0
  147.8497  141.3494  154.0373 C   0  0  0  0  0  0  0  0  0  0  0  0
  147.1956  140.2121  153.7911 N   0  0  0  0  0  0  0  0  0  0  0  0
  147.7158  139.1697  154.5027 C   0  0  0  0  0  0  0  0  0  0  0  0
  148.8138  139.2438  155.4042 C   0  0  0  0  0  0  0  0  0  0  0  0
  149.0627  137.9907  155.9487 N   0  0  0  0  0  0  0  0  0  0  0  0
  148.1602  137.2231  155.3992 C   0  0  0  0  0  0  0  0  0  0  0  0
  147.3072  137.8505  154.5189 N   0  0  0  0  0  0  0  0  0  0  0  0
  146.1836  137.2336  153.7459 C   0  0  2  0  0  0  0  0  0  0  0  0
  146.2816  135.8521  153.8217 O   0  0  0  0  0  0  0  0  0  0  0  0
  145.5331  135.2868  152.7537 C   0  0  1  0  0  0  0  0  0  0  0  0
  144.1274  134.9493  153.2976 C   0  0  0  0  0  0  0  0  0  0  0  0
  144.2133  134.1998  154.4914 O   0  0  0  0  0  0  0  0  0  0  0  0
  145.6184  136.3278  151.6077 C   0  0  1  0  0  0  0  0  0  0  0  0
  144.3609  136.6132  151.0234 O   0  0  0  0  0  0  0  0  0  0  0  0
  146.1928  137.5909  152.2529 C   0  0  2  0  0  0  0  0  0  0  0  0
  147.4829  137.8792  151.7452 O   0  0  0  0  0  0  0  0  0  0  0  0
  151.7061  141.9299  158.1988 C   0  0  0  0  0  0  0  0  0  0  0  0
  152.2140  140.6843  158.6358 C   0  0  0  0  0  0  0  0  0  0  0  0
  153.1784  140.6208  159.6588 C   0  0  0  0  0  0  0  0  0  0  0  0
  153.6411  141.8039  160.2623 C   0  0  0  0  0  0  0  0  0  0  0  0
  153.1349  143.0480  159.8435 C   0  0  0  0  0  0  0  0  0  0  0  0
  152.1698  143.1177  158.8185 C   0  0  0  0  0  0  0  0  0  0  0  0
  151.5759  144.6732  158.3525 Cl  0  0  0  0  0  0  0  0  0  0  0  0
  145.2747  137.5636  154.2518 H   0  0  0  0  0  0  0  0  0  0  0  0
  146.0307  134.3612  152.4611 H   0  0  0  0  0  0  0  0  0  0  0  0
  146.2803  135.9617  150.8212 H   0  0  0  0  0  0  0  0  0  0  0  0
  145.5650  138.4704  152.1017 H   0  0  0  0  0  0  0  0  0  0  0  0
  149.4267  143.4724  158.0767 H   0  0  0  0  0  0  0  0  0  0  0  0
  148.9183  141.8160  158.3955 H   0  0  0  0  0  0  0  0  0  0  0  0
  148.5734  142.5633  156.8366 H   0  0  0  0  0  0  0  0  0  0  0  0
  150.9827  142.6818  156.3236 H   0  0  0  0  0  0  0  0  0  0  0  0
  151.2408  140.0602  156.4314 H   0  0  0  0  0  0  0  0  0  0  0  0
  147.4913  142.2198  153.5078 H   0  0  0  0  0  0  0  0  0  0  0  0
  148.0900  136.1689  155.6244 H   0  0  0  0  0  0  0  0  0  0  0  0
  143.5962  135.8719  153.5338 H   0  0  0  0  0  0  0  0  0  0  0  0
  143.5231  134.4184  152.5613 H   0  0  0  0  0  0  0  0  0  0  0  0
  143.6537  133.4429  154.4125 H   0  0  0  0  0  0  0  0  0  0  0  0
  144.4852  137.2625  150.3484 H   0  0  0  0  0  0  0  0  0  0  0  0
  148.1184  137.4017  152.2561 H   0  0  0  0  0  0  0  0  0  0  0  0
  151.8665  139.7659  158.1858 H   0  0  0  0  0  0  0  0  0  0  0  0
  153.5618  139.6637  159.9803 H   0  0  0  0  0  0  0  0  0  0  0  0
  154.3810  141.7575  161.0477 H   0  0  0  0  0  0  0  0  0  0  0  0
  153.4887  143.9541  160.3130 H   0  0  0  0  0  0  0  0  0  0  0  0
  1  2  1  0  0  0  0
  1 33  1  0  0  0  0
  1 34  1  0  0  0  0
  1 35  1  0  0  0  0
  2  3  1  0  0  0  0
  2 22  1  0  0  0  0
  2 36  1  0  0  0  0
  3  4  1  0  0  0  0
  3 37  1  0  0  0  0
  4  9  1  0  0  0  0
  4  5  2  0  0  0  0
  5  6  1  0  0  0  0
  6  7  2  0  0  0  0
  6 38  1  0  0  0  0
  7  8  1  0  0  0  0
  8 12  1  0  0  0  0
  8  9  2  0  0  0  0
  9 10  1  0  0  0  0
 10 11  2  0  0  0  0
 11 12  1  0  0  0  0
 11 39  1  0  0  0  0
 12 13  1  0  0  0  0
 13 29  1  0  0  0  0
 13 20  1  0  0  0  0
 13 14  1  0  0  0  0
 14 15  1  0  0  0  0
 15 30  1  0  0  0  0
 15 16  1  0  0  0  0
 15 18  1  0  0  0  0
 16 17  1  0  0  0  0
 16 40  1  0  0  0  0
 16 41  1  0  0  0  0
 17 42  1  0  0  0  0
 18 31  1  0  0  0  0
 18 19  1  0  0  0  0
 18 20  1  0  0  0  0
 19 43  1  0  0  0  0
 20 32  1  0  0  0  0
 20 21  1  0  0  0  0
 21 44  1  0  0  0  0
 22 27  1  0  0  0  0
 22 23  2  0  0  0  0
 23 24  1  0  0  0  0
 23 45  1  0  0  0  0
 24 25  2  0  0  0  0
 24 46  1  0  0  0  0
 25 26  1  0  0  0  0
 25 47  1  0  0  0  0
 26 27  2  0  0  0  0
 26 48  1  0  0  0  0
 27 28  1  0  0  0  0
M  END
> <s_m_source_file>
AV-unprocessed.smi

> <i_m_source_file_index>
283

> <i_lp_mmshare_version>
43012

> <i_f3d_flags>
0

> <s_epik_input>
Q2xjMVtjSF1bY0hdW2NIXVtjSF1jMVtDQEhdKFtDSDNdKVtOSF1jKG5bY0hdbjIpYyhjMjMpbltjSF1uM1tDQEBIXTRPW0NASF0oW0NIMl1bT0hdKVtDQEBIXShbT0hdKVtDQEhdNFtPSF0=

> <s_epik_cmdline>
J2VwaWtfcHl0aG9uJywgJy1waCcsICc3LjAnLCAnLXRuJywgJzgnLCAnLW1hJywgJzIwMCcsICctbWV0YWxfYmluZGluZycsICctaW1hZScsICc8aW5maWxlLm1hZT4nLCAnLW9tYWUnLCAnPG91dGZpbGUubWFlPic=

> <r_lp_tautomer_probability>
1

> <r_epik_Ionization_Penalty>
0.000266407

> <r_epik_Ionization_Penalty_Charging>
0

> <r_epik_Ionization_Penalty_Neutral>
0.000266407

> <r_epik_State_Penalty>
-0

> <r_epik_Charging_Adjusted_Penalty>
0

> <i_epik_Tot_Q>
0

> <i_epik_Tot_abs_Q>
0

> <r_epik_Metal_State_Penalty>
-0

> <b_epik_Metal_Only>
0

> <s_epik_Chemistry_Notes>
This compound contains an acetal/aminal-like group ( X-CH(R)-Y where X, Y are N, S, or O) that may be acid/base labile, releasing an aldehyde.

> <s_lp_Force_Field>
OPLS_2005

> <r_lp_Energy>
49.3255

> <b_lp_Chiralities_Consistent>
1

> <s_lp_Variant>
AV-unprocessed.smi:283-21

> <Gold.Version>
5.8.1

> <Gold.Id.Protein>
6NUR|6NUR_protein|mol2

> <Gold.PLP.Fitness>
51.4225

> <Gold.PLP.PLP>
-42.2425

> <Gold.PLP.part.hbond>
-3.7615

> <Gold.PLP.part.metal>
0.0000

> <Gold.PLP.part.buried>
-6.9143

> <Gold.PLP.part.nonpolar>
-34.0919

> <Gold.PLP.part.repulsive>
0.4771

> <Gold.PLP.ligand.clash>
0.0000

> <Gold.PLP.ligand.torsion>
0.8433

> <Gold.PLP.Chemscore.Hbond>
3.6060

> <Gold.PLP.Chemscore.CHOScore>
0.0000

> <Gold.PLP.Chemscore.Metal>
0.0000

> <Gold.Chemscore.Hbonds>
donor molecule, donor type, donor heavy atom, donor atom, acceptor molecule, acceptor atom, score
      L1  H    17    42       P1 10957  1.00
      L1  H    19    43       P1 10171  0.83
      L1  H    21    44       P1  7948  0.48
      P1  H  7954  7966       L1    21  1.00

> <Gold.PLP.Chemscore.Internal.Correction>
0.0485

> <Gold.Rescore>
     Score         DG    S(hbond)    S(metal)    S(lipo)     H(rot)  DE(clash)    DE(int)     intcor
     14.91     -16.54       2.80        0.00     104.13       4.10       0.04       1.60       ----

> <Gold.Chemscore.Fitness>
14.9096

> <Gold.Chemscore.DG>
-16.5415

> <Gold.Chemscore.ZeroCoef>
-5.4800

> <Gold.Chemscore.Hbond>
2.8044

> <Gold.Chemscore.Metal>
0.0000

> <Gold.Chemscore.Lipo>
104.1255

> <Gold.Chemscore.Internal_Hbond>
0.0000

> <Gold.Chemscore.DEClash>
0.0362

> <Gold.Chemscore.DEInternal>
1.5958

> <Gold.Chemscore.Rot>
4.0968

> <Gold.Chemscore.Internal.Correction>
   9.000000E+99

> <Gold.Chemscore.Hbonds>
donor molecule, donor type, donor heavy atom, donor atom, acceptor molecule, acceptor atom, score
      L1  H    17    42       P1 10957  0.97
      L1  H    19    43       P1 10171  0.79
      L1  H    21    44       P1  7948  0.47
      P1  H  7954  7966       L1    21  0.49

> <Gold.Chemscore.Hbond.Weighted>
-9.3667

> <Gold.Chemscore.Metal.Weighted>
-0.0000

> <Gold.Chemscore.Lipo.Weighted>
-12.1827

> <Gold.Chemscore.Internal_Hbond.Weighted>
0.0000

> <Gold.Chemscore.DEClash.Weighted>
0.0362

> <Gold.Chemscore.DEInternal.Weighted>
1.5958

> <Gold.Chemscore.Rot.Weighted>
10.4879

> <Gold.Chemscore.Internal.Correction.Weighted>
   9.000000E+99

> <Gold.Protein.RotatedTorsions>
[ 6907 6896 6895 6894 ] final -134.88 input  -60.11 | X-H torsion
[ 7974 7965 7964 7962 ] final  131.90 input  175.53 | X-H torsion
[ 8008 7997 7996 7995 ] final -163.26 input   59.86 | X-H torsion
[ 10167 10162 10161 10158 ] final  140.95 input  -65.29 | X-H torsion
[ 10718 10713 10712 10709 ] final -143.90 input   66.30 | X-H torsion
[ 10763 10752 10751 10750 ] final  165.70 input  -60.55 | X-H torsion
[ 11005 11000 10999 10996 ] final  -74.63 input  -57.11 | X-H torsion

> <Gold.Protein.ActiveResidues>
 VAL166  LYS551  ARG553  GLY616  TRP617  ASP618  TYR619  PRO620  LYS621  CYS622 
 ASP623  PHE694  ASN695  SER759  ASP760  ASP761  ALA762  ILE779  LEU786  VAL792 
 PHE793  MET794  SER795  GLU796  ALA797  LYS798  CYS799  TRP800  GLU811  SER814 

> <Gold.Protein.RotatedAtoms>
  150.9911  133.6148  159.2707 H   0  0  0  0  0  0  0  0  0  0  0  0  # atno 6907 bound_to 6896
  151.3369  135.0853  159.9367 H   0  0  0  0  0  0  0  0  0  0  0  0  # atno 6908 bound_to 6896
  152.5246  133.9530  159.7735 H   0  0  0  0  0  0  0  0  0  0  0  0  # atno 6909 bound_to 6896
  145.0024  139.4299  143.5285 H   0  0  0  0  0  0  0  0  0  0  0  0  # atno 7974 bound_to 7965
  155.8186  140.0916  157.1862 H   0  0  0  0  0  0  0  0  0  0  0  0  # atno 8008 bound_to 7997
  154.3979  140.1441  156.3533 H   0  0  0  0  0  0  0  0  0  0  0  0  # atno 8009 bound_to 7997
  155.8289  140.3443  155.5563 H   0  0  0  0  0  0  0  0  0  0  0  0  # atno 8010 bound_to 7997
  139.5034  144.6202  151.6069 H   0  0  0  0  0  0  0  0  0  0  0  0  # atno 10167 bound_to 10162
  156.3635  130.7751  151.1921 H   0  0  0  0  0  0  0  0  0  0  0  0  # atno 10718 bound_to 10713
  154.3279  135.2755  155.2486 H   0  0  0  0  0  0  0  0  0  0  0  0  # atno 10763 bound_to 10752
  154.4811  135.5858  153.6394 H   0  0  0  0  0  0  0  0  0  0  0  0  # atno 10764 bound_to 10752
  152.9869  135.6111  154.3469 H   0  0  0  0  0  0  0  0  0  0  0  0  # atno 10765 bound_to 10752
  141.1637  133.6918  156.7394 H   0  0  0  0  0  0  0  0  0  0  0  0  # atno 11005 bound_to 11000
  146.3454  139.9421  142.8739 LP  0  0  0  0  0  0  0  0  0  0  0  0  # atno 17320 bound_to 7965
  145.2134  140.9905  143.4087 LP  0  0  0  0  0  0  0  0  0  0  0  0  # atno 17321 bound_to 7965
  140.5902  143.9793  150.6320 LP  0  0  0  0  0  0  0  0  0  0  0  0  # atno 17342 bound_to 10162
  140.2971  143.3285  152.1007 LP  0  0  0  0  0  0  0  0  0  0  0  0  # atno 17343 bound_to 10162
  157.7476  131.0393  150.4544 LP  0  0  0  0  0  0  0  0  0  0  0  0  # atno 17370 bound_to 10713
  156.4759  130.4063  149.6490 LP  0  0  0  0  0  0  0  0  0  0  0  0  # atno 17371 bound_to 10713
  140.2685  134.8410  157.3825 LP  0  0  0  0  0  0  0  0  0  0  0  0  # atno 17394 bound_to 11000
  140.1543  134.4809  155.7939 LP  0  0  0  0  0  0  0  0  0  0  0  0  # atno 17395 bound_to 11000

$$$$
