AV-unprocessed.smi:1610|AV-procd|sdf|6473|dock10
  -GOLD-   22720 7133D 1   1.00000     0.00000
 Structure written by MMmdl.
 44 45  0  0  0  0  0  0  0  0  3 V2000
  150.2536  133.3662  154.5467 C   0  0  0  0  0  0  0  0  0  0  0  0
  149.8289  133.7850  156.2832 S   0  0  0  0  0  0  0  0  0  0  0  0
  148.8088  132.8057  156.6917 O   0  0  0  0  0  0  0  0  0  0  0  0
  151.1029  133.7820  157.0194 O   0  0  0  0  0  0  0  0  0  0  0  0
  149.2083  135.2712  156.0858 N   0  5  0  0  0  0  0  0  0  0  0  0
  149.6915  136.1638  155.0356 C   0  0  0  0  0  0  0  0  0  0  0  0
  151.2322  136.3909  155.1262 C   0  0  0  0  0  0  0  0  0  0  0  0
  151.7471  137.5990  154.2972 C   0  0  0  0  0  0  0  0  0  0  0  0
  151.0269  138.8233  154.6972 N   0  0  0  0  0  0  0  0  0  0  0  0
  151.4381  139.7368  155.6114 C   0  0  0  0  0  0  0  0  0  0  0  0
  152.5290  139.6732  156.1802 O   0  0  0  0  0  0  0  0  0  0  0  0
  150.5853  140.7592  155.8028 N   0  0  0  0  0  0  0  0  0  0  0  0
  150.8847  141.9905  156.5320 C   0  0  0  0  0  0  0  0  0  0  0  0
  151.4457  141.7036  157.9411 C   0  0  0  0  0  0  0  0  0  0  0  0
  151.6288  142.9434  158.8046 C   0  0  0  0  0  0  0  0  0  0  0  0
  151.2929  144.2242  158.3117 C   0  0  0  0  0  0  0  0  0  0  0  0
  151.4221  145.3472  159.1555 C   0  0  0  0  0  0  0  0  0  0  0  0
  151.8901  145.1663  160.4729 C   0  0  0  0  0  0  0  0  0  0  0  0
  152.2185  143.9296  160.9038 N   0  3  0  0  0  0  0  0  0  0  0  0
  152.1120  142.8303  160.1266 C   0  0  0  0  0  0  0  0  0  0  0  0
  149.6094  138.6781  154.3286 C   0  0  0  0  0  0  0  0  0  0  0  0
  148.9682  137.5365  155.1680 C   0  0  0  0  0  0  0  0  0  0  0  0
  150.6777  132.3632  154.5113 H   0  0  0  0  0  0  0  0  0  0  0  0
  150.9841  134.0812  154.1692 H   0  0  0  0  0  0  0  0  0  0  0  0
  149.3554  133.4027  153.9314 H   0  0  0  0  0  0  0  0  0  0  0  0
  149.4727  135.7664  154.0442 H   0  0  0  0  0  0  0  0  0  0  0  0
  151.5176  136.5528  156.1629 H   0  0  0  0  0  0  0  0  0  0  0  0
  151.7579  135.4907  154.8063 H   0  0  0  0  0  0  0  0  0  0  0  0
  152.8278  137.6917  154.4062 H   0  0  0  0  0  0  0  0  0  0  0  0
  151.5952  137.4231  153.2300 H   0  0  0  0  0  0  0  0  0  0  0  0
  149.7047  140.7288  155.3096 H   0  0  0  0  0  0  0  0  0  0  0  0
  151.6081  142.5698  155.9577 H   0  0  0  0  0  0  0  0  0  0  0  0
  149.9959  142.6181  156.6125 H   0  0  0  0  0  0  0  0  0  0  0  0
  150.7758  141.0142  158.4567 H   0  0  0  0  0  0  0  0  0  0  0  0
  152.4034  141.1888  157.8588 H   0  0  0  0  0  0  0  0  0  0  0  0
  150.9186  144.3430  157.3054 H   0  0  0  0  0  0  0  0  0  0  0  0
  151.1548  146.3316  158.8004 H   0  0  0  0  0  0  0  0  0  0  0  0
  152.0056  145.9640  161.1920 H   0  0  0  0  0  0  0  0  0  0  0  0
  152.3855  141.8974  160.5978 H   0  0  0  0  0  0  0  0  0  0  0  0
  149.0530  139.6038  154.4817 H   0  0  0  0  0  0  0  0  0  0  0  0
  149.5246  138.4709  153.2597 H   0  0  0  0  0  0  0  0  0  0  0  0
  147.9194  137.4253  154.8906 H   0  0  0  0  0  0  0  0  0  0  0  0
  148.9696  137.8483  156.2141 H   0  0  0  0  0  0  0  0  0  0  0  0
  152.5427  143.8158  161.8654 H   0  0  0  0  0  0  0  0  0  0  0  0
  1  2  1  0  0  0  0
  1 23  1  0  0  0  0
  1 24  1  0  0  0  0
  1 25  1  0  0  0  0
  2  3  2  0  0  0  0
  2  4  2  0  0  0  0
  2  5  1  0  0  0  0
  5  6  1  0  0  0  0
  6 22  1  0  0  0  0
  6  7  1  0  0  0  0
  6 26  1  0  0  0  0
  7  8  1  0  0  0  0
  7 27  1  0  0  0  0
  7 28  1  0  0  0  0
  8  9  1  0  0  0  0
  8 29  1  0  0  0  0
  8 30  1  0  0  0  0
  9 10  1  0  0  0  0
  9 21  1  0  0  0  0
 10 11  2  0  0  0  0
 10 12  1  0  0  0  0
 12 13  1  0  0  0  0
 12 31  1  0  0  0  0
 13 14  1  0  0  0  0
 13 32  1  0  0  0  0
 13 33  1  0  0  0  0
 14 15  1  0  0  0  0
 14 34  1  0  0  0  0
 14 35  1  0  0  0  0
 15 20  1  0  0  0  0
 15 16  2  0  0  0  0
 16 17  1  0  0  0  0
 16 36  1  0  0  0  0
 17 18  2  0  0  0  0
 17 37  1  0  0  0  0
 18 19  1  0  0  0  0
 18 38  1  0  0  0  0
 19 20  2  0  0  0  0
 19 44  1  0  0  0  0
 20 39  1  0  0  0  0
 21 22  1  0  0  0  0
 21 40  1  0  0  0  0
 21 41  1  0  0  0  0
 22 42  1  0  0  0  0
 22 43  1  0  0  0  0
M  CHG  1   5  -1
M  CHG  1  19   1
M  END
> <s_m_source_file>
AV-unprocessed.smi

> <i_m_source_file_index>
1610

> <i_lp_mmshare_version>
43012

> <i_f3d_flags>
0

> <s_epik_input>
W0NIM11TKD1PKSg9TylbTkhdW0NIXTFbQ0gyXVtDSDJdTihbQ0gyXVtDSDJdMSlDKD1PKVtOSF1bQ0gyXVtDSDJdYzJbY0hdW2NIXVtjSF1uW2NIXTI=

> <s_epik_cmdline>
J2VwaWtfcHl0aG9uJywgJy1waCcsICc3LjAnLCAnLXRuJywgJzgnLCAnLW1hJywgJzIwMCcsICctbWV0YWxfYmluZGluZycsICctaW1hZScsICc8aW5maWxlLm1hZT4nLCAnLW9tYWUnLCAnPG91dGZpbGUubWFlPic=

> <r_epik_Ionization_Penalty>
8.91489

> <r_epik_Ionization_Penalty_Charging>
8.91482

> <r_epik_Ionization_Penalty_Neutral>
6.17235e-05

> <r_epik_State_Penalty>
9.05939

> <r_epik_Charging_Adjusted_Penalty>
17.9742

> <i_epik_Tot_Q>
0

> <i_epik_Tot_abs_Q>
2

> <r_epik_Metal_State_Penalty>
4.99481

> <b_epik_Metal_Only>
1

> <s_lp_Force_Field>
OPLS_2005

> <r_lp_Energy>
23.4301

> <b_lp_Chiralities_Consistent>
1

> <s_lp_Variant>
AV-unprocessed.smi:1610-4

> <Gold.Version>
5.8.1

> <Gold.Id.Protein>
6NUR|6NUR_protein|mol2

> <Gold.PLP.Fitness>
46.7663

> <Gold.PLP.PLP>
-42.7723

> <Gold.PLP.part.hbond>
-2.0000

> <Gold.PLP.part.metal>
0.0000

> <Gold.PLP.part.buried>
-5.1367

> <Gold.PLP.part.nonpolar>
-36.1166

> <Gold.PLP.part.repulsive>
0.2004

> <Gold.PLP.ligand.clash>
0.6992

> <Gold.PLP.ligand.torsion>
0.7445

> <Gold.PLP.Chemscore.Hbond>
1.6820

> <Gold.PLP.Chemscore.CHOScore>
0.0000

> <Gold.PLP.Chemscore.Metal>
0.0000

> <Gold.Chemscore.Hbonds>
donor molecule, donor type, donor heavy atom, donor atom, acceptor molecule, acceptor atom, score
      P1  H  6896  6908       L1     4  0.31
      P1  H  7997  8010       L1    11  1.00

> <Gold.PLP.Chemscore.Internal.Correction>
1.1362

> <Gold.Rescore>
     Score         DG    S(hbond)    S(metal)    S(lipo)     H(rot)  DE(clash)    DE(int)     intcor
     17.57     -19.78       1.95        0.00     105.14       1.77       0.23       1.99       ----

> <Gold.Chemscore.Fitness>
17.5667

> <Gold.Chemscore.DG>
-19.7815

> <Gold.Chemscore.ZeroCoef>
-5.4800

> <Gold.Chemscore.Hbond>
1.9525

> <Gold.Chemscore.Metal>
0.0000

> <Gold.Chemscore.Lipo>
105.1392

> <Gold.Chemscore.Internal_Hbond>
0.0000

> <Gold.Chemscore.DEClash>
0.2261

> <Gold.Chemscore.DEInternal>
1.9887

> <Gold.Chemscore.Rot>
1.7661

> <Gold.Chemscore.Internal.Correction>
   9.000000E+99

> <Gold.Chemscore.Hbonds>
donor molecule, donor type, donor heavy atom, donor atom, acceptor molecule, acceptor atom, score
      P1  H  6896  6908       L1     4  0.28
      P1  H  7997  8010       L1    11  1.00

> <Gold.Chemscore.Hbond.Weighted>
-6.5213

> <Gold.Chemscore.Metal.Weighted>
-0.0000

> <Gold.Chemscore.Lipo.Weighted>
-12.3013

> <Gold.Chemscore.Internal_Hbond.Weighted>
0.0000

> <Gold.Chemscore.DEClash.Weighted>
0.2261

> <Gold.Chemscore.DEInternal.Weighted>
1.9887

> <Gold.Chemscore.Rot.Weighted>
4.5211

> <Gold.Chemscore.Internal.Correction.Weighted>
   9.000000E+99

> <Gold.Protein.RotatedTorsions>
[ 6907 6896 6895 6894 ] final  111.13 input  -60.11 | X-H torsion
[ 7974 7965 7964 7962 ] final   -8.26 input  175.53 | X-H torsion
[ 8008 7997 7996 7995 ] final   71.00 input   59.86 | X-H torsion
[ 10167 10162 10161 10158 ] final  -28.70 input  -65.29 | X-H torsion
[ 10718 10713 10712 10709 ] final  129.60 input   66.30 | X-H torsion
[ 10763 10752 10751 10750 ] final    9.94 input  -60.55 | X-H torsion
[ 11005 11000 10999 10996 ] final  -37.96 input  -57.11 | X-H torsion

> <Gold.Protein.ActiveResidues>
 VAL166  LYS551  ARG553  GLY616  TRP617  ASP618  TYR619  PRO620  LYS621  CYS622 
 ASP623  PHE694  ASN695  SER759  ASP760  ASP761  ALA762  ILE779  LEU786  VAL792 
 PHE793  MET794  SER795  GLU796  ALA797  LYS798  CYS799  TRP800  GLU811  SER814 

> <Gold.Protein.RotatedAtoms>
  152.4985  133.8701  159.7293 H   0  0  0  0  0  0  0  0  0  0  0  0  # atno 6907 bound_to 6896
  150.9190  133.6895  159.2843 H   0  0  0  0  0  0  0  0  0  0  0  0  # atno 6908 bound_to 6896
  151.4278  135.1010  159.9686 H   0  0  0  0  0  0  0  0  0  0  0  0  # atno 6909 bound_to 6896
  146.2285  140.2442  142.8344 H   0  0  0  0  0  0  0  0  0  0  0  0  # atno 7974 bound_to 7965
  155.7473  140.3489  155.5133 H   0  0  0  0  0  0  0  0  0  0  0  0  # atno 8008 bound_to 7997
  155.9038  140.1038  157.1351 H   0  0  0  0  0  0  0  0  0  0  0  0  # atno 8009 bound_to 7997
  154.4047  140.1281  156.4457 H   0  0  0  0  0  0  0  0  0  0  0  0  # atno 8010 bound_to 7997
  140.7267  143.3988  151.1301 H   0  0  0  0  0  0  0  0  0  0  0  0  # atno 10167 bound_to 10162
  157.5139  131.1097  150.9253 H   0  0  0  0  0  0  0  0  0  0  0  0  # atno 10718 bound_to 10713
  153.2086  135.6866  153.8142 H   0  0  0  0  0  0  0  0  0  0  0  0  # atno 10763 bound_to 10752
  153.7383  135.3242  155.3300 H   0  0  0  0  0  0  0  0  0  0  0  0  # atno 10764 bound_to 10752
  154.8210  135.4652  154.0883 H   0  0  0  0  0  0  0  0  0  0  0  0  # atno 10765 bound_to 10752
  140.9992  133.6964  156.1990 H   0  0  0  0  0  0  0  0  0  0  0  0  # atno 11005 bound_to 11000
  144.9461  140.8130  143.5600 LP  0  0  0  0  0  0  0  0  0  0  0  0  # atno 17320 bound_to 7965
  145.2398  139.2077  143.4998 LP  0  0  0  0  0  0  0  0  0  0  0  0  # atno 17321 bound_to 7965
  139.7605  143.8643  152.3099 LP  0  0  0  0  0  0  0  0  0  0  0  0  # atno 17342 bound_to 10162
  139.8527  144.7156  150.9194 LP  0  0  0  0  0  0  0  0  0  0  0  0  # atno 17343 bound_to 10162
  156.9884  130.5554  149.5301 LP  0  0  0  0  0  0  0  0  0  0  0  0  # atno 17370 bound_to 10713
  156.0307  130.5399  150.8527 LP  0  0  0  0  0  0  0  0  0  0  0  0  # atno 17371 bound_to 10713
  140.6917  134.4659  157.5588 LP  0  0  0  0  0  0  0  0  0  0  0  0  # atno 17394 bound_to 11000
  139.9030  134.8513  156.1819 LP  0  0  0  0  0  0  0  0  0  0  0  0  # atno 17395 bound_to 11000

$$$$
