AV-unprocessed.smi:3038|AV-procd|sdf|11588|dock1
  -GOLD-   2272016563D 1   1.00000     0.00000
 Structure written by MMmdl.
 37 39  0  0  0  0  0  0  0  0  2 V2000
  147.4073  141.4493  155.4352 O   0  0  0  0  0  0  0  0  0  0  0  0
  148.4463  141.1021  154.8748 C   0  0  0  0  0  0  0  0  0  0  0  0
  149.7681  141.7910  155.2194 C   0  0  0  0  0  0  0  0  0  0  0  0
  150.8168  140.8201  155.4716 N   0  0  0  0  0  0  0  0  0  0  0  0
  151.5894  140.6208  156.5414 C   0  0  0  0  0  0  0  0  0  0  0  0
  152.4430  139.6270  156.3488 N   0  0  0  0  0  0  0  0  0  0  0  0
  152.1498  139.2041  155.0630 N   0  0  0  0  0  0  0  0  0  0  0  0
  151.1860  139.9085  154.5370 N   0  0  0  0  0  0  0  0  0  0  0  0
  148.4994  140.1242  153.9561 N   0  0  0  0  0  0  0  0  0  0  0  0
  147.3554  139.3591  153.4712 C   0  0  2  0  0  0  0  0  0  0  0  0
  147.3505  137.9412  154.0719 C   0  0  0  0  0  0  0  0  0  0  0  0
  146.2109  137.0926  153.4831 C   0  0  0  0  0  0  0  0  0  0  0  0
  146.2942  137.0387  152.0023 N   0  3  1  0  0  0  0  0  0  0  0  0
  145.2734  136.1408  151.4194 C   0  0  0  0  0  0  0  0  0  0  0  0
  144.9162  134.9703  152.3055 C   0  0  0  0  0  0  0  0  0  0  0  0
  145.7929  134.7604  151.0911 C   0  0  0  0  0  0  0  0  0  0  0  0
  146.2562  138.3946  151.3999 C   0  0  0  0  0  0  0  0  0  0  0  0
  147.4011  139.2695  151.9371 C   0  0  0  0  0  0  0  0  0  0  0  0
  150.0804  142.4371  154.3977 H   0  0  0  0  0  0  0  0  0  0  0  0
  149.6403  142.4252  156.0979 H   0  0  0  0  0  0  0  0  0  0  0  0
  151.5305  141.2021  157.4498 H   0  0  0  0  0  0  0  0  0  0  0  0
  149.3993  139.9080  153.5510 H   0  0  0  0  0  0  0  0  0  0  0  0
  146.4334  139.8701  153.7559 H   0  0  0  0  0  0  0  0  0  0  0  0
  148.3055  137.4514  153.8745 H   0  0  0  0  0  0  0  0  0  0  0  0
  147.2468  137.9915  155.1566 H   0  0  0  0  0  0  0  0  0  0  0  0
  146.2625  136.0818  153.8896 H   0  0  0  0  0  0  0  0  0  0  0  0
  145.2444  137.5036  153.7797 H   0  0  0  0  0  0  0  0  0  0  0  0
  144.5181  136.6095  150.7907 H   0  0  0  0  0  0  0  0  0  0  0  0
  145.3890  134.8987  153.2836 H   0  0  0  0  0  0  0  0  0  0  0  0
  143.8961  134.5952  152.2540 H   0  0  0  0  0  0  0  0  0  0  0  0
  145.3500  134.2475  150.2397 H   0  0  0  0  0  0  0  0  0  0  0  0
  146.8474  134.5510  151.2630 H   0  0  0  0  0  0  0  0  0  0  0  0
  146.3371  138.3159  150.3151 H   0  0  0  0  0  0  0  0  0  0  0  0
  145.2936  138.8625  151.6122 H   0  0  0  0  0  0  0  0  0  0  0  0
  147.3388  140.2673  151.5013 H   0  0  0  0  0  0  0  0  0  0  0  0
  148.3566  138.8512  151.6167 H   0  0  0  0  0  0  0  0  0  0  0  0
  147.1943  136.6413  151.7737 H   0  0  0  0  0  0  0  0  0  0  0  0
  1  2  2  0  0  0  0
  2  3  1  0  0  0  0
  2  9  1  0  0  0  0
  3  4  1  0  0  0  0
  3 19  1  0  0  0  0
  3 20  1  0  0  0  0
  4  8  1  0  0  0  0
  4  5  1  0  0  0  0
  5  6  2  0  0  0  0
  5 21  1  0  0  0  0
  6  7  1  0  0  0  0
  7  8  2  0  0  0  0
  9 10  1  0  0  0  0
  9 22  1  0  0  0  0
 10 18  1  0  0  0  0
 10 11  1  0  0  0  0
 10 23  1  0  0  0  0
 11 12  1  0  0  0  0
 11 24  1  0  0  0  0
 11 25  1  0  0  0  0
 12 13  1  0  0  0  0
 12 26  1  0  0  0  0
 12 27  1  0  0  0  0
 13 14  1  0  0  0  0
 13 17  1  0  0  0  0
 13 37  1  0  0  0  0
 14 16  1  0  0  0  0
 14 15  1  0  0  0  0
 14 28  1  0  0  0  0
 15 16  1  0  0  0  0
 15 29  1  0  0  0  0
 15 30  1  0  0  0  0
 16 31  1  0  0  0  0
 16 32  1  0  0  0  0
 17 18  1  0  0  0  0
 17 33  1  0  0  0  0
 17 34  1  0  0  0  0
 18 35  1  0  0  0  0
 18 36  1  0  0  0  0
M  CHG  1  13   1
M  END
> <s_m_source_file>
AV-unprocessed.smi

> <i_m_source_file_index>
3038

> <i_lp_mmshare_version>
43012

> <i_f3d_flags>
0

> <s_epik_input>
bjFubltjSF1uMVtDSDJdQyg9TylbTkhdW0NIXTJbQ0gyXVtDSDJdTihbQ0gyXVtDSDJdMilbQ0hdM1tDSDJdW0NIMl0z

> <s_epik_cmdline>
J2VwaWtfcHl0aG9uJywgJy1waCcsICc3LjAnLCAnLXRuJywgJzgnLCAnLW1hJywgJzIwMCcsICctbWV0YWxfYmluZGluZycsICctaW1hZScsICc8aW5maWxlLm1hZT4nLCAnLW9tYWUnLCAnPG91dGZpbGUubWFlPic=

> <r_lp_tautomer_probability>
1

> <r_epik_Ionization_Penalty>
0.284275

> <r_epik_Ionization_Penalty_Charging>
0.284273

> <r_epik_Ionization_Penalty_Neutral>
2.31262e-06

> <r_epik_State_Penalty>
0.277002

> <r_epik_Charging_Adjusted_Penalty>
0.561274

> <i_epik_Tot_Q>
1

> <i_epik_Tot_abs_Q>
1

> <r_epik_Metal_State_Penalty>
0.277002

> <b_epik_Metal_Only>
0

> <s_lp_Force_Field>
OPLS_2005

> <r_lp_Energy>
27.0237

> <b_lp_Chiralities_Consistent>
1

> <s_lp_Variant>
AV-unprocessed.smi:3038-1

> <Gold.Version>
5.8.1

> <Gold.Id.Protein>
6NUR|6NUR_protein|mol2

> <Gold.PLP.Fitness>
36.9664

> <Gold.PLP.PLP>
-25.9928

> <Gold.PLP.part.hbond>
-4.1024

> <Gold.PLP.part.metal>
0.0000

> <Gold.PLP.part.buried>
3.8997

> <Gold.PLP.part.nonpolar>
-26.2084

> <Gold.PLP.part.repulsive>
0.3269

> <Gold.PLP.ligand.clash>
0.0000

> <Gold.PLP.ligand.torsion>
1.1666

> <Gold.PLP.Chemscore.Hbond>
4.0000

> <Gold.PLP.Chemscore.CHOScore>
0.0000

> <Gold.PLP.Chemscore.Metal>
0.0000

> <Gold.Chemscore.Hbonds>
donor molecule, donor type, donor heavy atom, donor atom, acceptor molecule, acceptor atom, score
      L1  H     9    22       P1  7957  0.02
      L1  H    13    37       P1  7948  2.00
      P1  H  7989  7998       L1     8  0.79
      P1  H  7997  8009       L1     6  1.00

> <Gold.PLP.Chemscore.Internal.Correction>
1.3068

> <Gold.Rescore>
     Score         DG    S(hbond)    S(metal)    S(lipo)     H(rot)  DE(clash)    DE(int)     intcor
     10.55     -13.73       2.28        0.00      54.81       2.25       1.93       1.25       ----

> <Gold.Chemscore.Fitness>
10.5543

> <Gold.Chemscore.DG>
-13.7306

> <Gold.Chemscore.ZeroCoef>
-5.4800

> <Gold.Chemscore.Hbond>
2.2768

> <Gold.Chemscore.Metal>
0.0000

> <Gold.Chemscore.Lipo>
54.8139

> <Gold.Chemscore.Internal_Hbond>
0.0000

> <Gold.Chemscore.DEClash>
1.9262

> <Gold.Chemscore.DEInternal>
1.2500

> <Gold.Chemscore.Rot>
2.2528

> <Gold.Chemscore.Internal.Correction>
   9.000000E+99

> <Gold.Chemscore.Hbonds>
donor molecule, donor type, donor heavy atom, donor atom, acceptor molecule, acceptor atom, score
      L1  H     9    22       P1  7957  0.04
      L1  H    13    37       P1  7948  1.00
      P1  H  7989  7998       L1     8  0.13
      P1  H  7997  8009       L1     6  0.55

> <Gold.Chemscore.Hbond.Weighted>
-7.6046

> <Gold.Chemscore.Metal.Weighted>
-0.0000

> <Gold.Chemscore.Lipo.Weighted>
-6.4132

> <Gold.Chemscore.Internal_Hbond.Weighted>
0.0000

> <Gold.Chemscore.DEClash.Weighted>
1.9262

> <Gold.Chemscore.DEInternal.Weighted>
1.2500

> <Gold.Chemscore.Rot.Weighted>
5.7672

> <Gold.Chemscore.Internal.Correction.Weighted>
   9.000000E+99

> <Gold.Protein.RotatedTorsions>
[ 6907 6896 6895 6894 ] final  -19.73 input  -60.11 | X-H torsion
[ 7974 7965 7964 7962 ] final   64.44 input  175.53 | X-H torsion
[ 8008 7997 7996 7995 ] final -163.52 input   59.86 | X-H torsion
[ 10167 10162 10161 10158 ] final -101.23 input  -65.29 | X-H torsion
[ 10718 10713 10712 10709 ] final -178.11 input   66.30 | X-H torsion
[ 10763 10752 10751 10750 ] final   95.97 input  -60.55 | X-H torsion
[ 11005 11000 10999 10996 ] final   18.00 input  -57.11 | X-H torsion

> <Gold.Protein.ActiveResidues>
 VAL166  LYS551  ARG553  GLY616  TRP617  ASP618  TYR619  PRO620  LYS621  CYS622 
 ASP623  PHE694  ASN695  SER759  ASP760  ASP761  ALA762  ILE779  LEU786  VAL792 
 PHE793  MET794  SER795  GLU796  ALA797  LYS798  CYS799  TRP800  GLU811  SER814 

> <Gold.Protein.RotatedAtoms>
  151.2587  135.0647  159.9089 H   0  0  0  0  0  0  0  0  0  0  0  0  # atno 6907 bound_to 6896
  152.5369  134.0254  159.8011 H   0  0  0  0  0  0  0  0  0  0  0  0  # atno 6908 bound_to 6896
  151.0473  133.5604  159.2676 H   0  0  0  0  0  0  0  0  0  0  0  0  # atno 6909 bound_to 6896
  145.8502  139.3249  143.0880 H   0  0  0  0  0  0  0  0  0  0  0  0  # atno 7974 bound_to 7965
  155.8225  140.0921  157.1841 H   0  0  0  0  0  0  0  0  0  0  0  0  # atno 8008 bound_to 7997
  154.3979  140.1434  156.3577 H   0  0  0  0  0  0  0  0  0  0  0  0  # atno 8009 bound_to 7997
  155.8252  140.3445  155.5540 H   0  0  0  0  0  0  0  0  0  0  0  0  # atno 8010 bound_to 7997
  140.2435  143.3522  152.0780 H   0  0  0  0  0  0  0  0  0  0  0  0  # atno 10167 bound_to 10162
  156.8394  130.9681  151.3101 H   0  0  0  0  0  0  0  0  0  0  0  0  # atno 10718 bound_to 10713
  153.2594  135.4235  155.0879 H   0  0  0  0  0  0  0  0  0  0  0  0  # atno 10763 bound_to 10752
  154.8414  135.3445  154.6399 H   0  0  0  0  0  0  0  0  0  0  0  0  # atno 10764 bound_to 10752
  153.6819  135.7038  153.5172 H   0  0  0  0  0  0  0  0  0  0  0  0  # atno 10765 bound_to 10752
  140.4297  134.1433  155.7679 H   0  0  0  0  0  0  0  0  0  0  0  0  # atno 11005 bound_to 11000
  145.9366  140.9010  143.0329 LP  0  0  0  0  0  0  0  0  0  0  0  0  # atno 17320 bound_to 7965
  144.6729  140.1491  143.7431 LP  0  0  0  0  0  0  0  0  0  0  0  0  # atno 17321 bound_to 7965
  139.5069  144.6823  151.5977 LP  0  0  0  0  0  0  0  0  0  0  0  0  # atno 17342 bound_to 10162
  140.6095  143.9462  150.6443 LP  0  0  0  0  0  0  0  0  0  0  0  0  # atno 17343 bound_to 10162
  157.6364  130.8770  149.9367 LP  0  0  0  0  0  0  0  0  0  0  0  0  # atno 17370 bound_to 10713
  156.0889  130.3665  150.0433 LP  0  0  0  0  0  0  0  0  0  0  0  0  # atno 17371 bound_to 10713
  141.1751  133.8531  157.1448 LP  0  0  0  0  0  0  0  0  0  0  0  0  # atno 17394 bound_to 11000
  140.0143  134.9974  157.0460 LP  0  0  0  0  0  0  0  0  0  0  0  0  # atno 17395 bound_to 11000

$$$$
