AV-unprocessed.smi:746|AV-procd|sdf|3576|dock2
  -GOLD-   22720 0563D 1   1.00000     0.00000
 Structure written by MMmdl.
 48 50  0  0  0  0  0  0  0  0  1 V2000
  147.4653  133.9022  162.0076 C   0  0  0  0  0  0  0  0  0  0  0  0
  147.0800  133.3365  160.7671 O   0  0  0  0  0  0  0  0  0  0  0  0
  147.2363  134.2405  159.6860 C   0  0  0  0  0  0  0  0  0  0  0  0
  148.2541  133.6652  158.6974 C   0  0  0  0  0  0  0  0  0  0  0  0
  148.4677  134.6133  157.6558 O   0  0  0  0  0  0  0  0  0  0  0  0
  149.1597  135.7703  157.9500 C   0  0  0  0  0  0  0  0  0  0  0  0
  149.5645  136.6022  156.8873 C   0  0  0  0  0  0  0  0  0  0  0  0
  150.2733  137.7838  157.1781 C   0  0  0  0  0  0  0  0  0  0  0  0
  150.5632  138.0917  158.5286 C   0  0  0  0  0  0  0  0  0  0  0  0
  151.2516  139.2593  158.9544 N   0  0  0  0  0  0  0  0  0  0  0  0
  151.5280  140.3788  158.2559 C   0  0  0  0  0  0  0  0  0  0  0  0
  151.0886  140.5965  157.1275 O   0  0  0  0  0  0  0  0  0  0  0  0
  152.2435  141.2870  158.9670 N   0  0  0  0  0  0  0  0  0  0  0  0
  153.2744  140.9040  159.9584 C   0  0  0  0  0  0  0  0  0  0  0  0
  153.0960  141.6929  161.2732 C   0  0  0  0  0  0  0  0  0  0  0  0
  153.0933  143.2125  161.0231 C   0  0  0  0  0  0  0  0  0  0  0  0
  152.0778  143.5410  159.9221 C   0  0  1  0  0  0  0  0  0  0  0  0
  152.0336  144.9852  159.4197 C   0  0  0  0  0  0  0  0  0  0  0  0
  151.4490  144.8840  157.9982 C   0  0  0  0  0  0  0  0  0  0  0  0
  151.3758  143.3828  157.6650 C   0  0  0  0  0  0  0  0  0  0  0  0
  152.3521  142.7276  158.6563 C   0  0  2  0  0  0  0  0  0  0  0  0
  150.0984  137.2025  159.5190 C   0  0  0  0  0  0  0  0  0  0  0  0
  149.4201  136.0680  159.2471 N   0  0  0  0  0  0  0  0  0  0  0  0
  147.3272  133.1699  162.8030 H   0  0  0  0  0  0  0  0  0  0  0  0
  146.8594  134.7772  162.2469 H   0  0  0  0  0  0  0  0  0  0  0  0
  148.5161  134.1949  161.9987 H   0  0  0  0  0  0  0  0  0  0  0  0
  146.2793  134.3984  159.1863 H   0  0  0  0  0  0  0  0  0  0  0  0
  147.5808  135.2080  160.0544 H   0  0  0  0  0  0  0  0  0  0  0  0
  149.1902  133.4542  159.2171 H   0  0  0  0  0  0  0  0  0  0  0  0
  147.8764  132.7278  158.2855 H   0  0  0  0  0  0  0  0  0  0  0  0
  149.3315  136.3412  155.8656 H   0  0  0  0  0  0  0  0  0  0  0  0
  150.5641  138.4316  156.3660 H   0  0  0  0  0  0  0  0  0  0  0  0
  151.6846  139.1970  159.8642 H   0  0  0  0  0  0  0  0  0  0  0  0
  153.2912  139.8372  160.1831 H   0  0  0  0  0  0  0  0  0  0  0  0
  154.2572  141.1187  159.5362 H   0  0  0  0  0  0  0  0  0  0  0  0
  152.1572  141.3993  161.7449 H   0  0  0  0  0  0  0  0  0  0  0  0
  153.8887  141.4338  161.9757 H   0  0  0  0  0  0  0  0  0  0  0  0
  152.8523  143.7504  161.9404 H   0  0  0  0  0  0  0  0  0  0  0  0
  154.0899  143.5353  160.7192 H   0  0  0  0  0  0  0  0  0  0  0  0
  151.0817  143.2839  160.2894 H   0  0  0  0  0  0  0  0  0  0  0  0
  151.4385  145.6271  160.0701 H   0  0  0  0  0  0  0  0  0  0  0  0
  153.0407  145.4018  159.3744 H   0  0  0  0  0  0  0  0  0  0  0  0
  150.4614  145.3422  157.9366 H   0  0  0  0  0  0  0  0  0  0  0  0
  152.0950  145.4053  157.2909 H   0  0  0  0  0  0  0  0  0  0  0  0
  150.3578  143.0296  157.8363 H   0  0  0  0  0  0  0  0  0  0  0  0
  151.6329  143.1812  156.6247 H   0  0  0  0  0  0  0  0  0  0  0  0
  153.3676  142.9255  158.3064 H   0  0  0  0  0  0  0  0  0  0  0  0
  150.2814  137.4029  160.5646 H   0  0  0  0  0  0  0  0  0  0  0  0
  1  2  1  0  0  0  0
  1 24  1  0  0  0  0
  1 25  1  0  0  0  0
  1 26  1  0  0  0  0
  2  3  1  0  0  0  0
  3  4  1  0  0  0  0
  3 27  1  0  0  0  0
  3 28  1  0  0  0  0
  4  5  1  0  0  0  0
  4 29  1  0  0  0  0
  4 30  1  0  0  0  0
  5  6  1  0  0  0  0
  6 23  1  0  0  0  0
  6  7  2  0  0  0  0
  7  8  1  0  0  0  0
  7 31  1  0  0  0  0
  8  9  2  0  0  0  0
  8 32  1  0  0  0  0
  9 10  1  0  0  0  0
  9 22  1  0  0  0  0
 10 11  1  0  0  0  0
 10 33  1  0  0  0  0
 11 12  2  0  0  0  0
 11 13  1  0  0  0  0
 13 21  1  0  0  0  0
 13 14  1  0  0  0  0
 14 15  1  0  0  0  0
 14 34  1  0  0  0  0
 14 35  1  0  0  0  0
 15 16  1  0  0  0  0
 15 36  1  0  0  0  0
 15 37  1  0  0  0  0
 16 17  1  0  0  0  0
 16 38  1  0  0  0  0
 16 39  1  0  0  0  0
 17 21  1  0  0  0  0
 17 18  1  0  0  0  0
 17 40  1  0  0  0  0
 18 19  1  0  0  0  0
 18 41  1  0  0  0  0
 18 42  1  0  0  0  0
 19 20  1  0  0  0  0
 19 43  1  0  0  0  0
 19 44  1  0  0  0  0
 20 21  1  0  0  0  0
 20 45  1  0  0  0  0
 20 46  1  0  0  0  0
 21 47  1  0  0  0  0
 22 23  2  0  0  0  0
 22 48  1  0  0  0  0
M  END
> <s_m_source_file>
AV-unprocessed.smi

> <i_m_source_file_index>
746

> <i_lp_mmshare_version>
43012

> <i_f3d_flags>
0

> <s_epik_input>
W0NIM11PW0NIMl1bQ0gyXU9jMVtjSF1bY0hdYyhbY0hdbjEpW05IXUMoPU8pTihbQ0gyXVtDSDJdW0NIMl0yKVtDQEhdKFtDQEBIXTIzKVtDSDJdW0NIMl1bQ0gyXTM=

> <s_epik_cmdline>
J2VwaWtfcHl0aG9uJywgJy1waCcsICc3LjAnLCAnLXRuJywgJzgnLCAnLW1hJywgJzIwMCcsICctbWV0YWxfYmluZGluZycsICctaW1hZScsICc8aW5maWxlLm1hZT4nLCAnLW9tYWUnLCAnPG91dGZpbGUubWFlPic=

> <r_lp_tautomer_probability>
1

> <r_epik_Ionization_Penalty>
8.29966e-05

> <r_epik_Ionization_Penalty_Charging>
0

> <r_epik_Ionization_Penalty_Neutral>
8.29966e-05

> <r_epik_State_Penalty>
-0

> <r_epik_Charging_Adjusted_Penalty>
0

> <i_epik_Tot_Q>
0

> <i_epik_Tot_abs_Q>
0

> <r_epik_Metal_State_Penalty>
-0

> <b_epik_Metal_Only>
0

> <s_lp_Force_Field>
OPLS_2005

> <r_lp_Energy>
59.0162

> <b_lp_Chiralities_Consistent>
1

> <s_lp_Variant>
AV-unprocessed.smi:746-1

> <Gold.Version>
5.8.1

> <Gold.Id.Protein>
6NUR|6NUR_protein|mol2

> <Gold.PLP.Fitness>
42.1217

> <Gold.PLP.PLP>
-40.4473

> <Gold.PLP.part.hbond>
-1.0000

> <Gold.PLP.part.metal>
0.0000

> <Gold.PLP.part.buried>
-5.8971

> <Gold.PLP.part.nonpolar>
-33.5889

> <Gold.PLP.part.repulsive>
0.1618

> <Gold.PLP.ligand.clash>
0.0000

> <Gold.PLP.ligand.torsion>
0.8357

> <Gold.PLP.Chemscore.Hbond>
1.0000

> <Gold.PLP.Chemscore.CHOScore>
0.0000

> <Gold.PLP.Chemscore.Metal>
0.0000

> <Gold.Chemscore.Hbonds>
donor molecule, donor type, donor heavy atom, donor atom, acceptor molecule, acceptor atom, score
      P1  H  6896  6909       L1    23  0.95

> <Gold.PLP.Chemscore.Internal.Correction>
0.3458

> <Gold.Rescore>
     Score         DG    S(hbond)    S(metal)    S(lipo)     H(rot)  DE(clash)    DE(int)     intcor
     13.22     -17.67       0.69        0.00     117.67       1.52       0.07       4.39       ----

> <Gold.Chemscore.Fitness>
13.2158

> <Gold.Chemscore.DG>
-17.6730

> <Gold.Chemscore.ZeroCoef>
-5.4800

> <Gold.Chemscore.Hbond>
0.6914

> <Gold.Chemscore.Metal>
0.0000

> <Gold.Chemscore.Lipo>
117.6744

> <Gold.Chemscore.Internal_Hbond>
0.0000

> <Gold.Chemscore.DEClash>
0.0717

> <Gold.Chemscore.DEInternal>
4.3855

> <Gold.Chemscore.Rot>
1.5172

> <Gold.Chemscore.Internal.Correction>
   9.000000E+99

> <Gold.Chemscore.Hbonds>
donor molecule, donor type, donor heavy atom, donor atom, acceptor molecule, acceptor atom, score
      P1  H  6896  6909       L1    23  0.09

> <Gold.Chemscore.Hbond.Weighted>
-2.3092

> <Gold.Chemscore.Metal.Weighted>
-0.0000

> <Gold.Chemscore.Lipo.Weighted>
-13.7679

> <Gold.Chemscore.Internal_Hbond.Weighted>
0.0000

> <Gold.Chemscore.DEClash.Weighted>
0.0717

> <Gold.Chemscore.DEInternal.Weighted>
4.3855

> <Gold.Chemscore.Rot.Weighted>
3.8841

> <Gold.Chemscore.Internal.Correction.Weighted>
   9.000000E+99

> <Gold.Protein.RotatedTorsions>
[ 6907 6896 6895 6894 ] final   55.98 input  -60.11 | X-H torsion
[ 7974 7965 7964 7962 ] final   68.25 input  175.53 | X-H torsion
[ 8008 7997 7996 7995 ] final  141.38 input   59.86 | X-H torsion
[ 10167 10162 10161 10158 ] final  -37.49 input  -65.29 | X-H torsion
[ 10718 10713 10712 10709 ] final   73.14 input   66.30 | X-H torsion
[ 10763 10752 10751 10750 ] final -139.64 input  -60.55 | X-H torsion
[ 11005 11000 10999 10996 ] final -109.35 input  -57.11 | X-H torsion

> <Gold.Protein.ActiveResidues>
 VAL166  LYS551  ARG553  GLY616  TRP617  ASP618  TYR619  PRO620  LYS621  CYS622 
 ASP623  PHE694  ASN695  SER759  ASP760  ASP761  ALA762  ILE779  LEU786  VAL792 
 PHE793  MET794  SER795  GLU796  ALA797  LYS798  CYS799  TRP800  GLU811  SER814 

> <Gold.Protein.RotatedAtoms>
  152.3591  134.6897  160.0212 H   0  0  0  0  0  0  0  0  0  0  0  0  # atno 6907 bound_to 6896
  151.7226  133.3309  159.3327 H   0  0  0  0  0  0  0  0  0  0  0  0  # atno 6908 bound_to 6896
  150.7592  134.6369  159.6260 H   0  0  0  0  0  0  0  0  0  0  0  0  # atno 6909 bound_to 6896
  145.8048  139.3001  143.1133 H   0  0  0  0  0  0  0  0  0  0  0  0  # atno 7974 bound_to 7965
  156.2966  140.2316  156.4556 H   0  0  0  0  0  0  0  0  0  0  0  0  # atno 8008 bound_to 7997
  154.8063  140.0445  157.1331 H   0  0  0  0  0  0  0  0  0  0  0  0  # atno 8009 bound_to 7997
  154.9474  140.3037  155.5095 H   0  0  0  0  0  0  0  0  0  0  0  0  # atno 8010 bound_to 7997
  140.7117  143.3339  151.2507 H   0  0  0  0  0  0  0  0  0  0  0  0  # atno 10167 bound_to 10162
  157.6534  130.9614  150.1027 H   0  0  0  0  0  0  0  0  0  0  0  0  # atno 10718 bound_to 10713
  154.8603  135.3576  154.5579 H   0  0  0  0  0  0  0  0  0  0  0  0  # atno 10763 bound_to 10752
  153.6195  135.7006  153.5320 H   0  0  0  0  0  0  0  0  0  0  0  0  # atno 10764 bound_to 10752
  153.3141  135.4170  155.1321 H   0  0  0  0  0  0  0  0  0  0  0  0  # atno 10765 bound_to 10752
  141.0852  133.9151  157.2201 H   0  0  0  0  0  0  0  0  0  0  0  0  # atno 11005 bound_to 11000
  145.9839  140.8659  143.0100 LP  0  0  0  0  0  0  0  0  0  0  0  0  # atno 17320 bound_to 7965
  144.6764  140.2120  143.7376 LP  0  0  0  0  0  0  0  0  0  0  0  0  # atno 17321 bound_to 7965
  139.6828  143.9825  152.2818 LP  0  0  0  0  0  0  0  0  0  0  0  0  # atno 17342 bound_to 10162
  139.9460  144.6651  150.8219 LP  0  0  0  0  0  0  0  0  0  0  0  0  # atno 17343 bound_to 10162
  156.1945  130.3656  149.8866 LP  0  0  0  0  0  0  0  0  0  0  0  0  # atno 17370 bound_to 10713
  156.6786  130.8849  151.3572 LP  0  0  0  0  0  0  0  0  0  0  0  0  # atno 17371 bound_to 10713
  139.9669  135.0139  156.9411 LP  0  0  0  0  0  0  0  0  0  0  0  0  # atno 17394 bound_to 11000
  140.5379  134.0749  155.7333 LP  0  0  0  0  0  0  0  0  0  0  0  0  # atno 17395 bound_to 11000

$$$$
