AV-unprocessed.smi:2184|AV-procd|sdf|8872|dock1
  -GOLD-   2272012 73D 1   1.00000     0.00000
 Structure written by MMmdl.
 47 48  0  0  0  0  0  0  0  0  1 V2000
  148.7843  132.0750  154.4446 C   0  0  0  0  0  0  0  0  0  0  0  0
  149.5025  133.6320  153.8539 S   0  0  0  0  0  0  0  0  0  0  0  0
  149.7235  134.5278  155.4202 C   0  0  1  0  0  0  0  0  0  0  0  0
  150.0489  133.5430  156.5544 C   0  0  0  0  0  0  0  0  0  0  0  0
  150.7975  135.6171  155.3107 C   0  0  0  0  0  0  0  0  0  0  0  0
  151.7699  135.6110  156.0663 O   0  0  0  0  0  0  0  0  0  0  0  0
  150.6120  136.5475  154.3611 N   0  0  0  0  0  0  0  0  0  0  0  0
  151.5132  137.6651  154.0993 C   0  0  0  0  0  0  0  0  0  0  0  0
  151.6299  138.6606  155.2453 C   0  0  0  0  0  0  0  0  0  0  0  0
  152.1617  138.3000  156.5012 C   0  0  0  0  0  0  0  0  0  0  0  0
  152.2353  139.2717  157.5170 C   0  0  0  0  0  0  0  0  0  0  0  0
  151.7691  140.5818  157.2551 C   0  0  0  0  0  0  0  0  0  0  0  0
  151.8358  141.5716  158.2591 N   0  0  0  0  0  0  0  0  0  0  0  0
  150.6635  142.4182  158.4690 C   0  0  0  0  0  0  0  0  0  0  0  0
  151.0071  143.6281  159.3597 C   0  0  2  0  0  0  0  0  0  0  0  0
  151.8112  144.7186  158.6291 C   0  0  0  0  0  0  0  0  0  0  0  0
  151.6534  143.1909  160.5573 O   0  0  0  0  0  0  0  0  0  0  0  0
  152.8293  142.4091  160.3502 C   0  0  1  0  0  0  0  0  0  0  0  0
  153.3900  142.0235  161.7230 C   0  0  0  0  0  0  0  0  0  0  0  0
  152.4855  141.1710  159.5027 C   0  0  0  0  0  0  0  0  0  0  0  0
  151.2568  140.9238  156.0471 N   0  0  0  0  0  0  0  0  0  0  0  0
  151.1887  139.9883  155.0767 C   0  0  0  0  0  0  0  0  0  0  0  0
  148.6334  131.3930  153.6081 H   0  0  0  0  0  0  0  0  0  0  0  0
  147.8198  132.2499  154.9208 H   0  0  0  0  0  0  0  0  0  0  0  0
  149.4481  131.5966  155.1644 H   0  0  0  0  0  0  0  0  0  0  0  0
  148.7693  134.9996  155.6600 H   0  0  0  0  0  0  0  0  0  0  0  0
  150.1970  134.0629  157.5019 H   0  0  0  0  0  0  0  0  0  0  0  0
  150.9527  132.9702  156.3429 H   0  0  0  0  0  0  0  0  0  0  0  0
  149.2347  132.8319  156.6962 H   0  0  0  0  0  0  0  0  0  0  0  0
  149.7891  136.4771  153.7802 H   0  0  0  0  0  0  0  0  0  0  0  0
  152.5018  137.2840  153.8375 H   0  0  0  0  0  0  0  0  0  0  0  0
  151.1464  138.1980  153.2218 H   0  0  0  0  0  0  0  0  0  0  0  0
  152.5129  137.2966  156.6913 H   0  0  0  0  0  0  0  0  0  0  0  0
  152.6596  139.0068  158.4741 H   0  0  0  0  0  0  0  0  0  0  0  0
  150.2648  142.7669  157.5152 H   0  0  0  0  0  0  0  0  0  0  0  0
  149.8834  141.8225  158.9451 H   0  0  0  0  0  0  0  0  0  0  0  0
  150.0682  144.0865  159.6713 H   0  0  0  0  0  0  0  0  0  0  0  0
  151.2356  145.1305  157.8000 H   0  0  0  0  0  0  0  0  0  0  0  0
  152.7447  144.3381  158.2150 H   0  0  0  0  0  0  0  0  0  0  0  0
  152.0534  145.5409  159.3026 H   0  0  0  0  0  0  0  0  0  0  0  0
  153.5823  143.0063  159.8358 H   0  0  0  0  0  0  0  0  0  0  0  0
  154.3012  141.4336  161.6231 H   0  0  0  0  0  0  0  0  0  0  0  0
  152.6701  141.4350  162.2925 H   0  0  0  0  0  0  0  0  0  0  0  0
  153.6316  142.9112  162.3082 H   0  0  0  0  0  0  0  0  0  0  0  0
  151.8097  140.5149  160.0527 H   0  0  0  0  0  0  0  0  0  0  0  0
  153.3954  140.6020  159.3180 H   0  0  0  0  0  0  0  0  0  0  0  0
  150.7696  140.3130  154.1356 H   0  0  0  0  0  0  0  0  0  0  0  0
  1  2  1  0  0  0  0
  1 23  1  0  0  0  0
  1 24  1  0  0  0  0
  1 25  1  0  0  0  0
  2  3  1  0  0  0  0
  3  4  1  0  0  0  0
  3  5  1  0  0  0  0
  3 26  1  0  0  0  0
  4 27  1  0  0  0  0
  4 28  1  0  0  0  0
  4 29  1  0  0  0  0
  5  6  2  0  0  0  0
  5  7  1  0  0  0  0
  7  8  1  0  0  0  0
  7 30  1  0  0  0  0
  8  9  1  0  0  0  0
  8 31  1  0  0  0  0
  8 32  1  0  0  0  0
  9 22  1  0  0  0  0
  9 10  2  0  0  0  0
 10 11  1  0  0  0  0
 10 33  1  0  0  0  0
 11 12  2  0  0  0  0
 11 34  1  0  0  0  0
 12 13  1  0  0  0  0
 12 21  1  0  0  0  0
 13 20  1  0  0  0  0
 13 14  1  0  0  0  0
 14 15  1  0  0  0  0
 14 35  1  0  0  0  0
 14 36  1  0  0  0  0
 15 16  1  0  0  0  0
 15 17  1  0  0  0  0
 15 37  1  0  0  0  0
 16 38  1  0  0  0  0
 16 39  1  0  0  0  0
 16 40  1  0  0  0  0
 17 18  1  0  0  0  0
 18 19  1  0  0  0  0
 18 20  1  0  0  0  0
 18 41  1  0  0  0  0
 19 42  1  0  0  0  0
 19 43  1  0  0  0  0
 19 44  1  0  0  0  0
 20 45  1  0  0  0  0
 20 46  1  0  0  0  0
 21 22  2  0  0  0  0
 22 47  1  0  0  0  0
M  END
> <s_m_source_file>
AV-unprocessed.smi

> <i_m_source_file_index>
2184

> <i_lp_mmshare_version>
43012

> <i_f3d_flags>
0

> <s_epik_input>
W0NIM11TW0NASF0oW0NIM10pQyg9TylbTkhdW0NIMl1jMVtjSF1bY0hdYyhuW2NIXTEpTjJbQ0gyXVtDQEBIXShbQ0gzXSlPW0NAQEhdKFtDSDNdKVtDSDJdMg==

> <s_epik_cmdline>
J2VwaWtfcHl0aG9uJywgJy1waCcsICc3LjAnLCAnLXRuJywgJzgnLCAnLW1hJywgJzIwMCcsICctbWV0YWxfYmluZGluZycsICctaW1hZScsICc8aW5maWxlLm1hZT4nLCAnLW9tYWUnLCAnPG91dGZpbGUubWFlPic=

> <r_lp_tautomer_probability>
1

> <r_epik_Ionization_Penalty>
0.00551702

> <r_epik_Ionization_Penalty_Charging>
0

> <r_epik_Ionization_Penalty_Neutral>
0.00551702

> <r_epik_State_Penalty>
0.00403758

> <r_epik_Charging_Adjusted_Penalty>
0.00403758

> <i_epik_Tot_Q>
0

> <i_epik_Tot_abs_Q>
0

> <r_epik_Metal_State_Penalty>
-0

> <b_epik_Metal_Only>
0

> <s_lp_Force_Field>
OPLS_2005

> <r_lp_Energy>
17.5653

> <b_lp_Chiralities_Consistent>
1

> <s_lp_Variant>
AV-unprocessed.smi:2184-4

> <Gold.Version>
5.8.1

> <Gold.Id.Protein>
6NUR|6NUR_protein|mol2

> <Gold.PLP.Fitness>
48.9649

> <Gold.PLP.PLP>
-43.7394

> <Gold.PLP.part.hbond>
-3.4821

> <Gold.PLP.part.metal>
0.0000

> <Gold.PLP.part.buried>
-1.9527

> <Gold.PLP.part.nonpolar>
-38.4603

> <Gold.PLP.part.repulsive>
0.1932

> <Gold.PLP.ligand.clash>
0.0000

> <Gold.PLP.ligand.torsion>
0.5089

> <Gold.PLP.Chemscore.Hbond>
1.9360

> <Gold.PLP.Chemscore.CHOScore>
0.0000

> <Gold.PLP.Chemscore.Metal>
0.0000

> <Gold.Chemscore.Hbonds>
donor molecule, donor type, donor heavy atom, donor atom, acceptor molecule, acceptor atom, score
      L1  H     7    30       P1  7948  0.84
      P1  H 10752 10763       L1     6  0.95

> <Gold.PLP.Chemscore.Internal.Correction>
0.4353

> <Gold.Rescore>
     Score         DG    S(hbond)    S(metal)    S(lipo)     H(rot)  DE(clash)    DE(int)     intcor
     15.91     -20.38       1.54        0.00     118.39       1.59       2.48       1.98       ----

> <Gold.Chemscore.Fitness>
15.9129

> <Gold.Chemscore.DG>
-20.3790

> <Gold.Chemscore.ZeroCoef>
-5.4800

> <Gold.Chemscore.Hbond>
1.5359

> <Gold.Chemscore.Metal>
0.0000

> <Gold.Chemscore.Lipo>
118.3891

> <Gold.Chemscore.Internal_Hbond>
0.0000

> <Gold.Chemscore.DEClash>
2.4815

> <Gold.Chemscore.DEInternal>
1.9845

> <Gold.Chemscore.Rot>
1.5947

> <Gold.Chemscore.Internal.Correction>
   9.000000E+99

> <Gold.Chemscore.Hbonds>
donor molecule, donor type, donor heavy atom, donor atom, acceptor molecule, acceptor atom, score
      L1  H     7    30       P1  7948  0.35
      P1  H 10752 10763       L1     6  0.22

> <Gold.Chemscore.Hbond.Weighted>
-5.1299

> <Gold.Chemscore.Metal.Weighted>
-0.0000

> <Gold.Chemscore.Lipo.Weighted>
-13.8515

> <Gold.Chemscore.Internal_Hbond.Weighted>
0.0000

> <Gold.Chemscore.DEClash.Weighted>
2.4815

> <Gold.Chemscore.DEInternal.Weighted>
1.9845

> <Gold.Chemscore.Rot.Weighted>
4.0824

> <Gold.Chemscore.Internal.Correction.Weighted>
   9.000000E+99

> <Gold.Protein.RotatedTorsions>
[ 6907 6896 6895 6894 ] final  157.90 input  -60.11 | X-H torsion
[ 7974 7965 7964 7962 ] final  -16.06 input  175.53 | X-H torsion
[ 8008 7997 7996 7995 ] final   68.75 input   59.86 | X-H torsion
[ 10167 10162 10161 10158 ] final  -12.01 input  -65.29 | X-H torsion
[ 10718 10713 10712 10709 ] final   49.57 input   66.30 | X-H torsion
[ 10763 10752 10751 10750 ] final   77.60 input  -60.55 | X-H torsion
[ 11005 11000 10999 10996 ] final   62.26 input  -57.11 | X-H torsion

> <Gold.Protein.ActiveResidues>
 VAL166  LYS551  ARG553  GLY616  TRP617  ASP618  TYR619  PRO620  LYS621  CYS622 
 ASP623  PHE694  ASN695  SER759  ASP760  ASP761  ALA762  ILE779  LEU786  VAL792 
 PHE793  MET794  SER795  GLU796  ALA797  LYS798  CYS799  TRP800  GLU811  SER814 

> <Gold.Protein.RotatedAtoms>
  152.0083  133.3851  159.4209 H   0  0  0  0  0  0  0  0  0  0  0  0  # atno 6907 bound_to 6896
  150.6902  134.3759  159.5022 H   0  0  0  0  0  0  0  0  0  0  0  0  # atno 6908 bound_to 6896
  152.1516  134.8983  160.0598 H   0  0  0  0  0  0  0  0  0  0  0  0  # atno 6909 bound_to 6896
  146.2004  140.3582  142.8425 H   0  0  0  0  0  0  0  0  0  0  0  0  # atno 7974 bound_to 7965
  155.7131  140.3494  155.4982 H   0  0  0  0  0  0  0  0  0  0  0  0  # atno 8008 bound_to 7997
  155.9338  140.1089  157.1133 H   0  0  0  0  0  0  0  0  0  0  0  0  # atno 8009 bound_to 7997
  154.4090  140.1226  156.4823 H   0  0  0  0  0  0  0  0  0  0  0  0  # atno 8010 bound_to 7997
  140.7151  143.5578  150.9229 H   0  0  0  0  0  0  0  0  0  0  0  0  # atno 10167 bound_to 10162
  157.4799  130.8309  149.8082 H   0  0  0  0  0  0  0  0  0  0  0  0  # atno 10718 bound_to 10713
  153.0810  135.4908  154.8503 H   0  0  0  0  0  0  0  0  0  0  0  0  # atno 10763 bound_to 10752
  154.7151  135.3028  154.9139 H   0  0  0  0  0  0  0  0  0  0  0  0  # atno 10764 bound_to 10752
  153.9820  135.6788  153.4803 H   0  0  0  0  0  0  0  0  0  0  0  0  # atno 10765 bound_to 10752
  140.0104  134.6304  155.9789 H   0  0  0  0  0  0  0  0  0  0  0  0  # atno 11005 bound_to 11000
  144.8672  140.7222  143.6070 LP  0  0  0  0  0  0  0  0  0  0  0  0  # atno 17320 bound_to 7965
  145.3502  139.1708  143.4439 LP  0  0  0  0  0  0  0  0  0  0  0  0  # atno 17321 bound_to 7965
  139.9304  143.6500  152.3077 LP  0  0  0  0  0  0  0  0  0  0  0  0  # atno 17342 bound_to 10162
  139.6949  144.7642  151.1374 LP  0  0  0  0  0  0  0  0  0  0  0  0  # atno 17343 bound_to 10162
  156.0116  130.3831  150.2245 LP  0  0  0  0  0  0  0  0  0  0  0  0  # atno 17370 bound_to 10713
  157.0431  131.0041  151.3277 LP  0  0  0  0  0  0  0  0  0  0  0  0  # atno 17371 bound_to 10713
  141.1707  133.6537  156.4642 LP  0  0  0  0  0  0  0  0  0  0  0  0  # atno 17394 bound_to 11000
  140.4564  134.6882  157.5064 LP  0  0  0  0  0  0  0  0  0  0  0  0  # atno 17395 bound_to 11000

$$$$
