AV-unprocessed.smi:2772|AV-procd|sdf|10672|dock3
  -GOLD-   2272015123D 1   1.00000     0.00000
 Structure written by MMmdl.
 56 58  0  0  0  0  0  0  0  0  4 V2000
  151.8410  145.1903  158.7162 C   0  0  0  0  0  0  0  0  0  0  0  0
  151.7152  143.7299  158.3370 C   0  0  0  0  0  0  0  0  0  0  0  0
  152.5599  142.7368  158.8750 C   0  0  0  0  0  0  0  0  0  0  0  0
  152.3880  141.3958  158.4737 C   0  0  0  0  0  0  0  0  0  0  0  0
  151.3733  141.0648  157.5485 C   0  0  0  0  0  0  0  0  0  0  0  0
  151.2481  139.7014  157.1643 N   0  0  0  0  0  0  0  0  0  0  0  0
  150.1284  139.0016  156.9119 C   0  0  0  0  0  0  0  0  0  0  0  0
  148.9813  139.4380  157.0031 O   0  0  0  0  0  0  0  0  0  0  0  0
  150.4111  137.7387  156.5608 N   0  0  0  0  0  0  0  0  0  0  0  0
  149.4190  136.7202  156.2277 C   0  0  2  0  0  0  0  0  0  0  0  0
  150.0959  135.4222  155.7611 C   0  0  0  0  0  0  0  0  0  0  0  0
  149.0492  134.3807  155.3352 C   0  0  0  0  0  0  0  0  0  0  0  0
  148.1631  134.8935  154.2503 N   0  3  1  0  0  0  0  0  0  0  0  0
  147.2587  133.8251  153.7090 C   0  0  2  0  0  0  0  0  0  0  0  0
  147.9791  132.4555  153.6889 C   0  0  0  0  0  0  0  0  0  0  0  0
  147.0798  131.3347  153.1399 C   0  0  0  0  0  0  0  0  0  0  0  0
  146.5938  131.6586  151.7781 N   0  3  1  0  0  0  0  0  0  0  0  0
  145.8174  130.5519  151.1781 C   0  0  0  0  0  0  0  0  0  0  0  0
  145.8564  132.9438  151.7536 C   0  0  0  0  0  0  0  0  0  0  0  0
  146.7291  134.0977  152.2778 C   0  0  0  0  0  0  0  0  0  0  0  0
  147.4851  136.1522  154.6801 C   0  0  0  0  0  0  0  0  0  0  0  0
  148.4964  137.2287  155.1127 C   0  0  0  0  0  0  0  0  0  0  0  0
  150.5646  142.1098  157.0343 C   0  0  0  0  0  0  0  0  0  0  0  0
  150.7628  143.3818  157.4442 N   0  3  0  0  0  0  0  0  0  0  0  0
  152.3882  145.3040  159.6526 H   0  0  0  0  0  0  0  0  0  0  0  0
  150.8567  145.6426  158.8424 H   0  0  0  0  0  0  0  0  0  0  0  0
  152.3746  145.7369  157.9384 H   0  0  0  0  0  0  0  0  0  0  0  0
  153.3316  142.9960  159.5852 H   0  0  0  0  0  0  0  0  0  0  0  0
  153.0310  140.6284  158.8802 H   0  0  0  0  0  0  0  0  0  0  0  0
  152.1137  139.1835  157.1175 H   0  0  0  0  0  0  0  0  0  0  0  0
  151.3813  137.4632  156.5140 H   0  0  0  0  0  0  0  0  0  0  0  0
  148.8103  136.5118  157.1102 H   0  0  0  0  0  0  0  0  0  0  0  0
  150.7672  135.6282  154.9258 H   0  0  0  0  0  0  0  0  0  0  0  0
  150.7141  135.0106  156.5601 H   0  0  0  0  0  0  0  0  0  0  0  0
  149.5769  133.4830  155.0188 H   0  0  0  0  0  0  0  0  0  0  0  0
  148.4412  134.0951  156.1952 H   0  0  0  0  0  0  0  0  0  0  0  0
  146.3901  133.7590  154.3669 H   0  0  0  0  0  0  0  0  0  0  0  0
  148.8819  132.5253  153.0802 H   0  0  0  0  0  0  0  0  0  0  0  0
  148.3076  132.1637  154.6851 H   0  0  0  0  0  0  0  0  0  0  0  0
  147.6406  130.3994  153.1126 H   0  0  0  0  0  0  0  0  0  0  0  0
  146.2294  131.1749  153.8053 H   0  0  0  0  0  0  0  0  0  0  0  0
  144.9100  130.3542  151.7502 H   0  0  0  0  0  0  0  0  0  0  0  0
  146.4099  129.6369  151.1490 H   0  0  0  0  0  0  0  0  0  0  0  0
  145.5305  130.7935  150.1541 H   0  0  0  0  0  0  0  0  0  0  0  0
  145.5406  133.1625  150.7326 H   0  0  0  0  0  0  0  0  0  0  0  0
  144.9488  132.8564  152.3535 H   0  0  0  0  0  0  0  0  0  0  0  0
  146.1204  135.0020  152.2556 H   0  0  0  0  0  0  0  0  0  0  0  0
  147.5638  134.2589  151.5939 H   0  0  0  0  0  0  0  0  0  0  0  0
  146.9048  136.5798  153.8636 H   0  0  0  0  0  0  0  0  0  0  0  0
  146.7912  135.9353  155.4938 H   0  0  0  0  0  0  0  0  0  0  0  0
  147.9625  138.1191  155.4478 H   0  0  0  0  0  0  0  0  0  0  0  0
  149.0907  137.5324  154.2492 H   0  0  0  0  0  0  0  0  0  0  0  0
  149.7772  141.9895  156.3059 H   0  0  0  0  0  0  0  0  0  0  0  0
  148.7660  135.1613  153.4852 H   0  0  0  0  0  0  0  0  0  0  0  0
  147.4113  131.7799  151.1970 H   0  0  0  0  0  0  0  0  0  0  0  0
  150.1660  144.1142  157.0584 H   0  0  0  0  0  0  0  0  0  0  0  0
  1  2  1  0  0  0  0
  1 25  1  0  0  0  0
  1 26  1  0  0  0  0
  1 27  1  0  0  0  0
  2 24  1  0  0  0  0
  2  3  2  0  0  0  0
  3  4  1  0  0  0  0
  3 28  1  0  0  0  0
  4  5  2  0  0  0  0
  4 29  1  0  0  0  0
  5  6  1  0  0  0  0
  5 23  1  0  0  0  0
  6  7  1  0  0  0  0
  6 30  1  0  0  0  0
  7  8  2  0  0  0  0
  7  9  1  0  0  0  0
  9 10  1  0  0  0  0
  9 31  1  0  0  0  0
 10 22  1  0  0  0  0
 10 11  1  0  0  0  0
 10 32  1  0  0  0  0
 11 12  1  0  0  0  0
 11 33  1  0  0  0  0
 11 34  1  0  0  0  0
 12 13  1  0  0  0  0
 12 35  1  0  0  0  0
 12 36  1  0  0  0  0
 13 14  1  0  0  0  0
 13 21  1  0  0  0  0
 13 54  1  0  0  0  0
 14 20  1  0  0  0  0
 14 15  1  0  0  0  0
 14 37  1  0  0  0  0
 15 16  1  0  0  0  0
 15 38  1  0  0  0  0
 15 39  1  0  0  0  0
 16 17  1  0  0  0  0
 16 40  1  0  0  0  0
 16 41  1  0  0  0  0
 17 18  1  0  0  0  0
 17 19  1  0  0  0  0
 17 55  1  0  0  0  0
 18 42  1  0  0  0  0
 18 43  1  0  0  0  0
 18 44  1  0  0  0  0
 19 20  1  0  0  0  0
 19 45  1  0  0  0  0
 19 46  1  0  0  0  0
 20 47  1  0  0  0  0
 20 48  1  0  0  0  0
 21 22  1  0  0  0  0
 21 49  1  0  0  0  0
 21 50  1  0  0  0  0
 22 51  1  0  0  0  0
 22 52  1  0  0  0  0
 23 24  2  0  0  0  0
 23 53  1  0  0  0  0
 24 56  1  0  0  0  0
M  CHG  1  13   1
M  CHG  1  17   1
M  CHG  1  24   1
M  END
> <s_m_source_file>
AV-unprocessed.smi

> <i_m_source_file_index>
2772

> <i_lp_mmshare_version>
43012

> <i_f3d_flags>
0

> <s_epik_input>
W0NIM11jMVtjSF1bY0hdYyhbY0hdbjEpW05IXUMoPU8pW05IXVtDSF0yW0NIMl1bQ0gyXU4oW0NIMl1bQ0gyXTIpW0NIXTNbQ0gyXVtDSDJdTihbQ0gzXSlbQ0gyXVtDSDJdMw==

> <s_epik_cmdline>
J2VwaWtfcHl0aG9uJywgJy1waCcsICc3LjAnLCAnLXRuJywgJzgnLCAnLW1hJywgJzIwMCcsICctbWV0YWxfYmluZGluZycsICctaW1hZScsICc8aW5maWxlLm1hZT4nLCAnLW9tYWUnLCAnPG91dGZpbGUubWFlPic=

> <r_epik_Ionization_Penalty>
2.34117

> <r_epik_Ionization_Penalty_Charging>
2.34115

> <r_epik_Ionization_Penalty_Neutral>
2.22786e-05

> <r_epik_State_Penalty>
2.43944

> <r_epik_Charging_Adjusted_Penalty>
4.78059

> <i_epik_Tot_Q>
3

> <i_epik_Tot_abs_Q>
3

> <r_epik_Metal_State_Penalty>
2.45906

> <b_epik_Metal_Only>
0

> <s_lp_Force_Field>
OPLS_2005

> <r_lp_Energy>
50.0284

> <b_lp_Chiralities_Consistent>
1

> <s_lp_Variant>
AV-unprocessed.smi:2772-9

> <Gold.Version>
5.8.1

> <Gold.Id.Protein>
6NUR|6NUR_protein|mol2

> <Gold.PLP.Fitness>
48.5615

> <Gold.PLP.PLP>
-35.3826

> <Gold.PLP.part.hbond>
-3.0000

> <Gold.PLP.part.metal>
0.0000

> <Gold.PLP.part.buried>
-4.1860

> <Gold.PLP.part.nonpolar>
-28.9227

> <Gold.PLP.part.repulsive>
0.0614

> <Gold.PLP.ligand.clash>
0.0020

> <Gold.PLP.ligand.torsion>
0.6749

> <Gold.PLP.Chemscore.Hbond>
4.8320

> <Gold.PLP.Chemscore.CHOScore>
0.0000

> <Gold.PLP.Chemscore.Metal>
0.0000

> <Gold.Chemscore.Hbonds>
donor molecule, donor type, donor heavy atom, donor atom, acceptor molecule, acceptor atom, score
      L1  H    13    54       P1  7948  1.92
      L1  H    17    55       P1 10747  0.90
      L1  H    24    56       P1  8028  2.00

> <Gold.PLP.Chemscore.Internal.Correction>
0.0346

> <Gold.Rescore>
     Score         DG    S(hbond)    S(metal)    S(lipo)     H(rot)  DE(clash)    DE(int)     intcor
     21.19     -23.21       2.50        0.00     107.04       1.22       0.09       1.93       ----

> <Gold.Chemscore.Fitness>
21.1866

> <Gold.Chemscore.DG>
-23.2087

> <Gold.Chemscore.ZeroCoef>
-5.4800

> <Gold.Chemscore.Hbond>
2.4952

> <Gold.Chemscore.Metal>
0.0000

> <Gold.Chemscore.Lipo>
107.0400

> <Gold.Chemscore.Internal_Hbond>
0.0000

> <Gold.Chemscore.DEClash>
0.0907

> <Gold.Chemscore.DEInternal>
1.9315

> <Gold.Chemscore.Rot>
1.2222

> <Gold.Chemscore.Internal.Correction>
   9.000000E+99

> <Gold.Chemscore.Hbonds>
donor molecule, donor type, donor heavy atom, donor atom, acceptor molecule, acceptor atom, score
      L1  H    13    54       P1  7948  0.64
      L1  H    17    55       P1 10747  0.83
      L1  H    24    56       P1  8028  0.85

> <Gold.Chemscore.Hbond.Weighted>
-8.3339

> <Gold.Chemscore.Metal.Weighted>
-0.0000

> <Gold.Chemscore.Lipo.Weighted>
-12.5237

> <Gold.Chemscore.Internal_Hbond.Weighted>
0.0000

> <Gold.Chemscore.DEClash.Weighted>
0.0907

> <Gold.Chemscore.DEInternal.Weighted>
1.9315

> <Gold.Chemscore.Rot.Weighted>
3.1289

> <Gold.Chemscore.Internal.Correction.Weighted>
   9.000000E+99

> <Gold.Protein.RotatedTorsions>
[ 6907 6896 6895 6894 ] final -167.09 input  -60.11 | X-H torsion
[ 7974 7965 7964 7962 ] final  -14.26 input  175.53 | X-H torsion
[ 8008 7997 7996 7995 ] final  -20.43 input   59.86 | X-H torsion
[ 10167 10162 10161 10158 ] final   46.39 input  -65.29 | X-H torsion
[ 10718 10713 10712 10709 ] final -170.30 input   66.30 | X-H torsion
[ 10763 10752 10751 10750 ] final  115.37 input  -60.55 | X-H torsion
[ 11005 11000 10999 10996 ] final  -12.18 input  -57.11 | X-H torsion

> <Gold.Protein.ActiveResidues>
 VAL166  LYS551  ARG553  GLY616  TRP617  ASP618  TYR619  PRO620  LYS621  CYS622 
 ASP623  PHE694  ASN695  SER759  ASP760  ASP761  ALA762  ILE779  LEU786  VAL792 
 PHE793  MET794  SER795  GLU796  ALA797  LYS798  CYS799  TRP800  GLU811  SER814 

> <Gold.Protein.RotatedAtoms>
  151.4540  133.3610  159.2799 H   0  0  0  0  0  0  0  0  0  0  0  0  # atno 6907 bound_to 6896
  150.9071  134.8488  159.7411 H   0  0  0  0  0  0  0  0  0  0  0  0  # atno 6908 bound_to 6896
  152.4912  134.4466  159.9613 H   0  0  0  0  0  0  0  0  0  0  0  0  # atno 6909 bound_to 6896
  146.2081  140.3323  142.8400 H   0  0  0  0  0  0  0  0  0  0  0  0  # atno 7974 bound_to 7965
  154.4771  140.2062  155.9853 H   0  0  0  0  0  0  0  0  0  0  0  0  # atno 8008 bound_to 7997
  156.1106  140.3229  155.8037 H   0  0  0  0  0  0  0  0  0  0  0  0  # atno 8009 bound_to 7997
  155.4642  140.0526  157.2978 H   0  0  0  0  0  0  0  0  0  0  0  0  # atno 8010 bound_to 7997
  140.3144  144.2781  150.6194 H   0  0  0  0  0  0  0  0  0  0  0  0  # atno 10167 bound_to 10162
  156.7241  130.9281  151.3100 H   0  0  0  0  0  0  0  0  0  0  0  0  # atno 10718 bound_to 10713
  153.5211  135.3597  155.2632 H   0  0  0  0  0  0  0  0  0  0  0  0  # atno 10763 bound_to 10752
  154.8735  135.4046  154.3258 H   0  0  0  0  0  0  0  0  0  0  0  0  # atno 10764 bound_to 10752
  153.3929  135.7072  153.6549 H   0  0  0  0  0  0  0  0  0  0  0  0  # atno 10765 bound_to 10752
  140.7630  133.8500  155.9141 H   0  0  0  0  0  0  0  0  0  0  0  0  # atno 11005 bound_to 11000
  144.8844  140.7442  143.5966 LP  0  0  0  0  0  0  0  0  0  0  0  0  # atno 17320 bound_to 7965
  145.3244  139.1778  143.4571 LP  0  0  0  0  0  0  0  0  0  0  0  0  # atno 17321 bound_to 7965
  140.5539  143.2202  151.7880 LP  0  0  0  0  0  0  0  0  0  0  0  0  # atno 17342 bound_to 10162
  139.4887  144.4439  151.9732 LP  0  0  0  0  0  0  0  0  0  0  0  0  # atno 17343 bound_to 10162
  157.6886  130.9210  150.0452 LP  0  0  0  0  0  0  0  0  0  0  0  0  # atno 17370 bound_to 10713
  156.1574  130.3643  149.9349 LP  0  0  0  0  0  0  0  0  0  0  0  0  # atno 17371 bound_to 10713
  140.9645  134.1612  157.4627 LP  0  0  0  0  0  0  0  0  0  0  0  0  # atno 17394 bound_to 11000
  139.8768  134.9957  156.5756 LP  0  0  0  0  0  0  0  0  0  0  0  0  # atno 17395 bound_to 11000

$$$$
