AV-unprocessed.smi:3111|AV-procd|sdf|11832|dock4
  -GOLD-   2272017203D 1   1.00000     0.00000
 Structure written by MMmdl.
 29 29  0  0  0  0  0  0  0  0  1 V2000
  150.3818  136.3713  155.1954 C   0  0  0  0  0  0  0  0  0  0  0  0
  149.7737  135.2654  154.4716 N   0  0  0  0  0  0  0  0  0  0  0  0
  149.8617  133.9806  154.8437 C   0  0  0  0  0  0  0  0  0  0  0  0
  150.4594  133.6121  155.8561 O   0  0  0  0  0  0  0  0  0  0  0  0
  149.1448  132.9662  153.9439 C   0  0  0  0  0  0  0  0  0  0  0  0
  148.3167  133.5999  152.9205 N   0  0  0  0  0  0  0  0  0  0  0  0
  147.2172  133.0588  152.3710 C   0  0  0  0  0  0  0  0  0  0  0  0
  146.7958  131.9415  152.6728 O   0  0  0  0  0  0  0  0  0  0  0  0
  146.4907  133.9131  151.3200 C   0  0  2  0  0  0  0  0  0  0  0  0
  145.9076  135.2118  151.9079 C   0  0  0  0  0  0  0  0  0  0  0  0
  145.4625  133.1312  150.6475 N   0  0  0  0  0  0  0  0  0  0  0  0
  144.1032  133.4152  150.5942 C   0  0  0  0  0  0  0  0  0  0  0  0
  143.5174  132.4120  149.8559 C   0  0  0  0  0  0  0  0  0  0  0  0
  144.4891  131.5036  149.4448 N   0  0  0  0  0  0  0  0  0  0  0  0
  145.6135  131.9935  149.9504 C   0  0  0  0  0  0  0  0  0  0  0  0
  150.1877  137.3085  154.6738 H   0  0  0  0  0  0  0  0  0  0  0  0
  151.4622  136.2401  155.2694 H   0  0  0  0  0  0  0  0  0  0  0  0
  149.9700  136.4497  156.2026 H   0  0  0  0  0  0  0  0  0  0  0  0
  149.2602  135.4891  153.6314 H   0  0  0  0  0  0  0  0  0  0  0  0
  149.8966  132.3540  153.4455 H   0  0  0  0  0  0  0  0  0  0  0  0
  148.5390  132.2879  154.5478 H   0  0  0  0  0  0  0  0  0  0  0  0
  148.5936  134.5225  152.6182 H   0  0  0  0  0  0  0  0  0  0  0  0
  147.2293  134.1992  150.5691 H   0  0  0  0  0  0  0  0  0  0  0  0
  146.6798  135.8043  152.4001 H   0  0  0  0  0  0  0  0  0  0  0  0
  145.1246  135.0113  152.6402 H   0  0  0  0  0  0  0  0  0  0  0  0
  145.4724  135.8311  151.1230 H   0  0  0  0  0  0  0  0  0  0  0  0
  143.6757  134.2836  151.0735 H   0  0  0  0  0  0  0  0  0  0  0  0
  142.4793  132.2752  149.5908 H   0  0  0  0  0  0  0  0  0  0  0  0
  146.5713  131.5142  149.8087 H   0  0  0  0  0  0  0  0  0  0  0  0
  1  2  1  0  0  0  0
  1 16  1  0  0  0  0
  1 17  1  0  0  0  0
  1 18  1  0  0  0  0
  2  3  1  0  0  0  0
  2 19  1  0  0  0  0
  3  4  2  0  0  0  0
  3  5  1  0  0  0  0
  5  6  1  0  0  0  0
  5 20  1  0  0  0  0
  5 21  1  0  0  0  0
  6  7  1  0  0  0  0
  6 22  1  0  0  0  0
  7  8  2  0  0  0  0
  7  9  1  0  0  0  0
  9 10  1  0  0  0  0
  9 11  1  0  0  0  0
  9 23  1  0  0  0  0
 10 24  1  0  0  0  0
 10 25  1  0  0  0  0
 10 26  1  0  0  0  0
 11 15  1  0  0  0  0
 11 12  1  0  0  0  0
 12 13  2  0  0  0  0
 12 27  1  0  0  0  0
 13 14  1  0  0  0  0
 13 28  1  0  0  0  0
 14 15  2  0  0  0  0
 15 29  1  0  0  0  0
M  END
> <s_m_source_file>
AV-unprocessed.smi

> <i_m_source_file_index>
3111

> <i_lp_mmshare_version>
43012

> <i_f3d_flags>
0

> <s_epik_input>
W0NIM11bTkhdQyg9TylbQ0gyXVtOSF1DKD1PKVtDQEhdKFtDSDNdKW4xW2NIXVtjSF1uW2NIXTE=

> <s_epik_cmdline>
J2VwaWtfcHl0aG9uJywgJy1waCcsICc3LjAnLCAnLXRuJywgJzgnLCAnLW1hJywgJzIwMCcsICctbWV0YWxfYmluZGluZycsICctaW1hZScsICc8aW5maWxlLm1hZT4nLCAnLW9tYWUnLCAnPG91dGZpbGUubWFlPic=

> <r_lp_tautomer_probability>
1

> <r_epik_Ionization_Penalty>
0.278299

> <r_epik_Ionization_Penalty_Charging>
0.278299

> <r_epik_Ionization_Penalty_Neutral>
1.78617e-07

> <r_epik_State_Penalty>
0.270759

> <r_epik_Charging_Adjusted_Penalty>
0.549058

> <i_epik_Tot_Q>
0

> <i_epik_Tot_abs_Q>
0

> <r_epik_Metal_State_Penalty>
0.183212

> <b_epik_Metal_Only>
0

> <s_lp_Force_Field>
OPLS_2005

> <r_lp_Energy>
5.209

> <b_lp_Chiralities_Consistent>
1

> <s_lp_Variant>
AV-unprocessed.smi:3111-1

> <Gold.Version>
5.8.1

> <Gold.Id.Protein>
6NUR|6NUR_protein|mol2

> <Gold.PLP.Fitness>
40.9446

> <Gold.PLP.PLP>
-27.4565

> <Gold.PLP.part.hbond>
-3.0000

> <Gold.PLP.part.metal>
0.0000

> <Gold.PLP.part.buried>
-1.8579

> <Gold.PLP.part.nonpolar>
-22.6930

> <Gold.PLP.part.repulsive>
0.3168

> <Gold.PLP.ligand.clash>
0.0000

> <Gold.PLP.ligand.torsion>
0.3862

> <Gold.PLP.Chemscore.Hbond>
2.0888

> <Gold.PLP.Chemscore.CHOScore>
2.6420

> <Gold.PLP.Chemscore.Metal>
0.0000

> <Gold.Chemscore.Hbonds>
donor molecule, donor type, donor heavy atom, donor atom, acceptor molecule, acceptor atom, score
      L1  H     2    19       P1  7948  1.00
      L1  H     6    22       P1  7948  0.65
      P1  H 10785 10796       L1    14  0.35
      L1  C    13    28       P1 10186  0.63
      L1  C    13    28       P1 10952  0.99
      L1  C    15    29       P1 10747  1.00

> <Gold.PLP.Chemscore.Internal.Correction>
0.0682

> <Gold.Rescore>
     Score         DG    S(hbond)    S(metal)    S(lipo)     H(rot)  DE(clash)    DE(int)     intcor
      8.19     -10.15       1.80        0.00      38.22       2.27       0.35       1.61       ----

> <Gold.Chemscore.Fitness>
8.1863

> <Gold.Chemscore.DG>
-10.1510

> <Gold.Chemscore.ZeroCoef>
-5.4800

> <Gold.Chemscore.Hbond>
1.8003

> <Gold.Chemscore.Metal>
0.0000

> <Gold.Chemscore.Lipo>
38.2172

> <Gold.Chemscore.Internal_Hbond>
0.0000

> <Gold.Chemscore.DEClash>
0.3526

> <Gold.Chemscore.DEInternal>
1.6121

> <Gold.Chemscore.Rot>
2.2709

> <Gold.Chemscore.Internal.Correction>
   9.000000E+99

> <Gold.Chemscore.Hbonds>
donor molecule, donor type, donor heavy atom, donor atom, acceptor molecule, acceptor atom, score
      L1  H     2    19       P1  7948  0.44
      L1  H     6    22       P1  7948  0.06
      P1  H 10785 10796       L1    14  0.06

> <Gold.Chemscore.Hbond.Weighted>
-6.0131

> <Gold.Chemscore.Metal.Weighted>
-0.0000

> <Gold.Chemscore.Lipo.Weighted>
-4.4714

> <Gold.Chemscore.Internal_Hbond.Weighted>
0.0000

> <Gold.Chemscore.DEClash.Weighted>
0.3526

> <Gold.Chemscore.DEInternal.Weighted>
1.6121

> <Gold.Chemscore.Rot.Weighted>
5.8135

> <Gold.Chemscore.Internal.Correction.Weighted>
   9.000000E+99

> <Gold.Protein.RotatedTorsions>
[ 6907 6896 6895 6894 ] final   -4.78 input  -60.11 | X-H torsion
[ 7974 7965 7964 7962 ] final -175.36 input  175.53 | X-H torsion
[ 8008 7997 7996 7995 ] final -179.50 input   59.86 | X-H torsion
[ 10167 10162 10161 10158 ] final  155.37 input  -65.29 | X-H torsion
[ 10718 10713 10712 10709 ] final   92.75 input   66.30 | X-H torsion
[ 10763 10752 10751 10750 ] final   33.35 input  -60.55 | X-H torsion
[ 11005 11000 10999 10996 ] final -126.27 input  -57.11 | X-H torsion

> <Gold.Protein.ActiveResidues>
 VAL166  LYS551  ARG553  GLY616  TRP617  ASP618  TYR619  PRO620  LYS621  CYS622 
 ASP623  PHE694  ASN695  SER759  ASP760  ASP761  ALA762  ILE779  LEU786  VAL792 
 PHE793  MET794  SER795  GLU796  ALA797  LYS798  CYS799  TRP800  GLU811  SER814 

> <Gold.Protein.RotatedAtoms>
  151.4922  135.1058  159.9806 H   0  0  0  0  0  0  0  0  0  0  0  0  # atno 6907 bound_to 6896
  152.4736  133.8083  159.7000 H   0  0  0  0  0  0  0  0  0  0  0  0  # atno 6908 bound_to 6896
  150.8760  133.7375  159.2972 H   0  0  0  0  0  0  0  0  0  0  0  0  # atno 6909 bound_to 6896
  144.7128  140.1332  143.6397 H   0  0  0  0  0  0  0  0  0  0  0  0  # atno 7974 bound_to 7965
  156.0312  140.1282  157.0256 H   0  0  0  0  0  0  0  0  0  0  0  0  # atno 8008 bound_to 7997
  154.4351  140.1049  156.6173 H   0  0  0  0  0  0  0  0  0  0  0  0  # atno 8009 bound_to 7997
  155.5804  140.3468  155.4541 H   0  0  0  0  0  0  0  0  0  0  0  0  # atno 8010 bound_to 7997
  139.4821  144.5105  151.8032 H   0  0  0  0  0  0  0  0  0  0  0  0  # atno 10167 bound_to 10162
  157.6957  131.0454  150.3929 H   0  0  0  0  0  0  0  0  0  0  0  0  # atno 10718 bound_to 10713
  153.0216  135.6389  154.1497 H   0  0  0  0  0  0  0  0  0  0  0  0  # atno 10763 bound_to 10752
  154.1231  135.2845  155.3205 H   0  0  0  0  0  0  0  0  0  0  0  0  # atno 10764 bound_to 10752
  154.6249  135.5512  153.7678 H   0  0  0  0  0  0  0  0  0  0  0  0  # atno 10765 bound_to 10752
  140.9695  134.0825  157.3885 H   0  0  0  0  0  0  0  0  0  0  0  0  # atno 11005 bound_to 11000
  145.9268  139.2581  143.1348 LP  0  0  0  0  0  0  0  0  0  0  0  0  # atno 17320 bound_to 7965
  145.9564  140.8870  143.0233 LP  0  0  0  0  0  0  0  0  0  0  0  0  # atno 17321 bound_to 7965
  140.4607  144.1725  150.5906 LP  0  0  0  0  0  0  0  0  0  0  0  0  # atno 17342 bound_to 10162
  140.4487  143.2496  151.9377 LP  0  0  0  0  0  0  0  0  0  0  0  0  # atno 17343 bound_to 10162
  156.4331  130.3976  149.6747 LP  0  0  0  0  0  0  0  0  0  0  0  0  # atno 17370 bound_to 10713
  156.3958  130.7650  151.2654 LP  0  0  0  0  0  0  0  0  0  0  0  0  # atno 17371 bound_to 10713
  139.8907  135.0113  156.6749 LP  0  0  0  0  0  0  0  0  0  0  0  0  # atno 17394 bound_to 11000
  140.7350  133.9026  155.8238 LP  0  0  0  0  0  0  0  0  0  0  0  0  # atno 17395 bound_to 11000

$$$$
