AV-unprocessed.smi:882|AV-procd|sdf|4037|dock2
  -GOLD-   22720 1533D 1   1.00000     0.00000
 Structure written by MMmdl.
 33 34  0  0  0  0  0  0  0  0  1 V2000
  153.6572  134.6953  163.6165 C   0  0  0  0  0  0  0  0  0  0  0  0
  154.3800  135.2904  162.8326 C   0  0  0  0  0  0  0  0  0  0  0  0
  155.2449  135.9998  161.8746 C   0  0  0  0  0  0  0  0  0  0  0  0
  154.7291  137.3167  161.5189 N   0  0  0  0  0  0  0  0  0  0  0  0
  153.5807  137.5513  160.8615 C   0  0  0  0  0  0  0  0  0  0  0  0
  152.8349  136.6602  160.4547 O   0  0  0  0  0  0  0  0  0  0  0  0
  153.2749  138.9951  160.5856 C   0  0  0  0  0  0  0  0  0  0  0  0
  153.8861  140.0377  161.3159 C   0  0  0  0  0  0  0  0  0  0  0  0
  153.5404  141.3718  161.0271 C   0  0  0  0  0  0  0  0  0  0  0  0
  152.5815  141.6355  160.0205 C   0  0  0  0  0  0  0  0  0  0  0  0
  152.2175  142.9653  159.7157 N   0  0  0  0  0  0  0  0  0  0  0  0
  153.1091  143.6717  158.7990 C   0  0  0  0  0  0  0  0  0  0  0  0
  152.4542  144.9758  158.3118 C   0  0  0  0  0  0  0  0  0  0  0  0
  152.0684  145.7690  159.4293 O   0  0  0  0  0  0  0  0  0  0  0  0
  151.1118  145.1027  160.2459 C   0  0  0  0  0  0  0  0  0  0  0  0
  151.7219  143.8061  160.8041 C   0  0  0  0  0  0  0  0  0  0  0  0
  151.9927  140.6321  159.3240 N   0  0  0  0  0  0  0  0  0  0  0  0
  152.3258  139.3547  159.6052 C   0  0  0  0  0  0  0  0  0  0  0  0
  153.0232  134.1762  164.2996 H   0  0  0  0  0  0  0  0  0  0  0  0
  156.2266  136.1183  162.3330 H   0  0  0  0  0  0  0  0  0  0  0  0
  155.3768  135.3732  160.9912 H   0  0  0  0  0  0  0  0  0  0  0  0
  155.2882  138.1117  161.7924 H   0  0  0  0  0  0  0  0  0  0  0  0
  154.6115  139.8306  162.0893 H   0  0  0  0  0  0  0  0  0  0  0  0
  154.0207  142.1716  161.5704 H   0  0  0  0  0  0  0  0  0  0  0  0
  154.0414  143.8949  159.3192 H   0  0  0  0  0  0  0  0  0  0  0  0
  153.3675  143.0623  157.9345 H   0  0  0  0  0  0  0  0  0  0  0  0
  153.1566  145.5427  157.7009 H   0  0  0  0  0  0  0  0  0  0  0  0
  151.5862  144.7642  157.6851 H   0  0  0  0  0  0  0  0  0  0  0  0
  150.8215  145.7627  161.0632 H   0  0  0  0  0  0  0  0  0  0  0  0
  150.2091  144.8920  159.6703 H   0  0  0  0  0  0  0  0  0  0  0  0
  150.9662  143.2715  161.3810 H   0  0  0  0  0  0  0  0  0  0  0  0
  152.5438  144.0423  161.4815 H   0  0  0  0  0  0  0  0  0  0  0  0
  151.8183  138.6009  159.0207 H   0  0  0  0  0  0  0  0  0  0  0  0
  1  2  3  0  0  0  0
  1 19  1  0  0  0  0
  2  3  1  0  0  0  0
  3  4  1  0  0  0  0
  3 20  1  0  0  0  0
  3 21  1  0  0  0  0
  4  5  1  0  0  0  0
  4 22  1  0  0  0  0
  5  6  2  0  0  0  0
  5  7  1  0  0  0  0
  7 18  1  0  0  0  0
  7  8  2  0  0  0  0
  8  9  1  0  0  0  0
  8 23  1  0  0  0  0
  9 10  2  0  0  0  0
  9 24  1  0  0  0  0
 10 11  1  0  0  0  0
 10 17  1  0  0  0  0
 11 16  1  0  0  0  0
 11 12  1  0  0  0  0
 12 13  1  0  0  0  0
 12 25  1  0  0  0  0
 12 26  1  0  0  0  0
 13 14  1  0  0  0  0
 13 27  1  0  0  0  0
 13 28  1  0  0  0  0
 14 15  1  0  0  0  0
 15 16  1  0  0  0  0
 15 29  1  0  0  0  0
 15 30  1  0  0  0  0
 16 31  1  0  0  0  0
 16 32  1  0  0  0  0
 17 18  2  0  0  0  0
 18 33  1  0  0  0  0
M  END
> <s_m_source_file>
AV-unprocessed.smi

> <i_m_source_file_index>
882

> <i_lp_mmshare_version>
43012

> <i_f3d_flags>
0

> <s_epik_input>
W0NIXSNDW0NIMl1bTkhdQyg9TyljMVtjSF1bY0hdYyhuW2NIXTEpTjJbQ0gyXVtDSDJdT1tDSDJdW0NIMl0y

> <s_epik_cmdline>
J2VwaWtfcHl0aG9uJywgJy1waCcsICc3LjAnLCAnLXRuJywgJzgnLCAnLW1hJywgJzIwMCcsICctbWV0YWxfYmluZGluZycsICctaW1hZScsICc8aW5maWxlLm1hZT4nLCAnLW9tYWUnLCAnPG91dGZpbGUubWFlPic=

> <r_lp_tautomer_probability>
1

> <r_epik_Ionization_Penalty>
1.53095e-05

> <r_epik_Ionization_Penalty_Charging>
0

> <r_epik_Ionization_Penalty_Neutral>
1.53095e-05

> <r_epik_State_Penalty>
-0

> <r_epik_Charging_Adjusted_Penalty>
0

> <i_epik_Tot_Q>
0

> <i_epik_Tot_abs_Q>
0

> <r_epik_Metal_State_Penalty>
-0

> <b_epik_Metal_Only>
0

> <s_lp_Force_Field>
OPLS_2005

> <r_lp_Energy>
17.8132

> <b_lp_Chiralities_Consistent>
1

> <s_lp_Variant>
AV-unprocessed.smi:882-1

> <Gold.Version>
5.8.1

> <Gold.Id.Protein>
6NUR|6NUR_protein|mol2

> <Gold.PLP.Fitness>
38.1695

> <Gold.PLP.PLP>
-35.8373

> <Gold.PLP.part.hbond>
-1.5853

> <Gold.PLP.part.metal>
0.0000

> <Gold.PLP.part.buried>
-6.3290

> <Gold.PLP.part.nonpolar>
-28.9801

> <Gold.PLP.part.repulsive>
0.1157

> <Gold.PLP.ligand.clash>
0.0000

> <Gold.PLP.ligand.torsion>
0.4900

> <Gold.PLP.Chemscore.Hbond>
0.9913

> <Gold.PLP.Chemscore.CHOScore>
0.0000

> <Gold.PLP.Chemscore.Metal>
0.0000

> <Gold.Chemscore.Hbonds>
donor molecule, donor type, donor heavy atom, donor atom, acceptor molecule, acceptor atom, score
      P1  H  6896  6908       L1     6  1.00

> <Gold.PLP.Chemscore.Internal.Correction>
0.3384

> <Gold.Rescore>
     Score         DG    S(hbond)    S(metal)    S(lipo)     H(rot)  DE(clash)    DE(int)     intcor
     17.02     -17.39       0.98        0.00      99.72       1.19       0.01       0.35       ----

> <Gold.Chemscore.Fitness>
17.0243

> <Gold.Chemscore.DG>
-17.3861

> <Gold.Chemscore.ZeroCoef>
-5.4800

> <Gold.Chemscore.Hbond>
0.9827

> <Gold.Chemscore.Metal>
0.0000

> <Gold.Chemscore.Lipo>
99.7176

> <Gold.Chemscore.Internal_Hbond>
0.0000

> <Gold.Chemscore.DEClash>
0.0071

> <Gold.Chemscore.DEInternal>
0.3547

> <Gold.Chemscore.Rot>
1.1887

> <Gold.Chemscore.Internal.Correction>
   9.000000E+99

> <Gold.Chemscore.Hbonds>
donor molecule, donor type, donor heavy atom, donor atom, acceptor molecule, acceptor atom, score
      P1  H  6896  6908       L1     6  1.00

> <Gold.Chemscore.Hbond.Weighted>
-3.2823

> <Gold.Chemscore.Metal.Weighted>
-0.0000

> <Gold.Chemscore.Lipo.Weighted>
-11.6670

> <Gold.Chemscore.Internal_Hbond.Weighted>
0.0000

> <Gold.Chemscore.DEClash.Weighted>
0.0071

> <Gold.Chemscore.DEInternal.Weighted>
0.3547

> <Gold.Chemscore.Rot.Weighted>
3.0432

> <Gold.Chemscore.Internal.Correction.Weighted>
   9.000000E+99

> <Gold.Protein.RotatedTorsions>
[ 6907 6896 6895 6894 ] final  -86.22 input  -60.11 | X-H torsion
[ 7974 7965 7964 7962 ] final   80.35 input  175.53 | X-H torsion
[ 8008 7997 7996 7995 ] final -158.28 input   59.86 | X-H torsion
[ 10167 10162 10161 10158 ] final  173.24 input  -65.29 | X-H torsion
[ 10718 10713 10712 10709 ] final   46.84 input   66.30 | X-H torsion
[ 10763 10752 10751 10750 ] final   42.25 input  -60.55 | X-H torsion
[ 11005 11000 10999 10996 ] final   21.73 input  -57.11 | X-H torsion

> <Gold.Protein.ActiveResidues>
 VAL166  LYS551  ARG553  GLY616  TRP617  ASP618  TYR619  PRO620  LYS621  CYS622 
 ASP623  PHE694  ASN695  SER759  ASP760  ASP761  ALA762  ILE779  LEU786  VAL792 
 PHE793  MET794  SER795  GLU796  ALA797  LYS798  CYS799  TRP800  GLU811  SER814 

> <Gold.Protein.RotatedAtoms>
  150.6867  134.3084  159.4735 H   0  0  0  0  0  0  0  0  0  0  0  0  # atno 6907 bound_to 6896
  152.0972  134.9364  160.0579 H   0  0  0  0  0  0  0  0  0  0  0  0  # atno 6908 bound_to 6896
  152.0657  133.4048  159.4474 H   0  0  0  0  0  0  0  0  0  0  0  0  # atno 6909 bound_to 6896
  145.6523  139.2450  143.1970 H   0  0  0  0  0  0  0  0  0  0  0  0  # atno 7974 bound_to 7965
  155.7452  140.0819  157.2227 H   0  0  0  0  0  0  0  0  0  0  0  0  # atno 8008 bound_to 7997
  154.4017  140.1570  156.2717 H   0  0  0  0  0  0  0  0  0  0  0  0  # atno 8009 bound_to 7997
  155.8982  140.3411  155.6009 H   0  0  0  0  0  0  0  0  0  0  0  0  # atno 8010 bound_to 7997
  139.5102  144.3283  152.0136 H   0  0  0  0  0  0  0  0  0  0  0  0  # atno 10167 bound_to 10162
  157.4522  130.8145  149.7800 H   0  0  0  0  0  0  0  0  0  0  0  0  # atno 10718 bound_to 10713
  152.9887  135.6137  154.2919 H   0  0  0  0  0  0  0  0  0  0  0  0  # atno 10763 bound_to 10752
  154.2644  135.2781  155.2766 H   0  0  0  0  0  0  0  0  0  0  0  0  # atno 10764 bound_to 10752
  154.5178  135.5823  153.6713 H   0  0  0  0  0  0  0  0  0  0  0  0  # atno 10765 bound_to 10752
  140.3883  134.1846  155.7663 H   0  0  0  0  0  0  0  0  0  0  0  0  # atno 11005 bound_to 11000
  146.1193  140.7329  142.9465 LP  0  0  0  0  0  0  0  0  0  0  0  0  # atno 17320 bound_to 7965
  144.7118  140.4067  143.7074 LP  0  0  0  0  0  0  0  0  0  0  0  0  # atno 17321 bound_to 7965
  140.2724  144.3950  150.6147 LP  0  0  0  0  0  0  0  0  0  0  0  0  # atno 17342 bound_to 10162
  140.6079  143.2168  151.6945 LP  0  0  0  0  0  0  0  0  0  0  0  0  # atno 17343 bound_to 10162
  155.9992  130.3890  150.2673 LP  0  0  0  0  0  0  0  0  0  0  0  0  # atno 17370 bound_to 10713
  157.0845  131.0152  151.3144 LP  0  0  0  0  0  0  0  0  0  0  0  0  # atno 17371 bound_to 10713
  141.1899  133.8227  157.0937 LP  0  0  0  0  0  0  0  0  0  0  0  0  # atno 17394 bound_to 11000
  140.0426  134.9847  157.0989 LP  0  0  0  0  0  0  0  0  0  0  0  0  # atno 17395 bound_to 11000

$$$$
