AV-unprocessed.smi:1403|AV-procd|sdf|5701|dock4
  -GOLD-   22720 5333D 1   1.00000     0.00000
 Structure written by MMmdl.
 35 36  0  0  0  0  0  0  0  0  2 V2000
  152.1330  143.8472  157.8758 C   0  0  0  0  0  0  0  0  0  0  0  0
  152.1177  142.5020  158.6154 C   0  0  2  0  0  0  0  0  0  0  0  0
  151.0783  141.6468  158.0467 N   0  0  0  0  0  0  0  0  0  0  0  0
  151.2674  140.4485  157.4736 C   0  0  0  0  0  0  0  0  0  0  0  0
  152.3770  139.9589  157.2647 O   0  0  0  0  0  0  0  0  0  0  0  0
  149.9990  139.6777  157.0990 C   0  0  0  0  0  0  0  0  0  0  0  0
  149.2010  140.4395  156.1266 N   0  0  0  0  0  0  0  0  0  0  0  0
  147.9825  140.9759  156.5800 C   0  0  0  0  0  0  0  0  0  0  0  0
  147.1542  141.6526  155.7628 C   0  0  0  0  0  0  0  0  0  0  0  0
  147.5502  141.8271  154.3712 C   0  0  0  0  0  0  0  0  0  0  0  0
  146.8068  142.4431  153.6102 O   0  0  0  0  0  0  0  0  0  0  0  0
  148.7424  141.2900  153.9787 N   0  5  0  0  0  0  0  0  0  0  0  0
  149.5722  140.5977  154.8202 C   0  0  0  0  0  0  0  0  0  0  0  0
  150.6380  140.1127  154.4402 O   0  0  0  0  0  0  0  0  0  0  0  0
  151.9033  142.6777  160.1352 C   0  0  2  0  0  0  0  0  0  0  0  0
  152.4144  143.9965  160.7304 C   0  0  0  0  0  0  0  0  0  0  0  0
  152.7049  143.6018  162.1598 C   0  0  0  0  0  0  0  0  0  0  0  0
  153.2661  142.1967  161.9768 C   0  0  0  0  0  0  0  0  0  0  0  0
  152.5583  141.6434  160.8714 O   0  0  0  0  0  0  0  0  0  0  0  0
  152.9142  144.5001  158.2661 H   0  0  0  0  0  0  0  0  0  0  0  0
  151.1811  144.3694  157.9778 H   0  0  0  0  0  0  0  0  0  0  0  0
  152.3239  143.7070  156.8113 H   0  0  0  0  0  0  0  0  0  0  0  0
  153.0984  142.0466  158.4679 H   0  0  0  0  0  0  0  0  0  0  0  0
  150.1261  141.9596  158.1682 H   0  0  0  0  0  0  0  0  0  0  0  0
  150.2616  138.7018  156.6868 H   0  0  0  0  0  0  0  0  0  0  0  0
  149.4309  139.4620  158.0053 H   0  0  0  0  0  0  0  0  0  0  0  0
  147.7616  140.7944  157.6217 H   0  0  0  0  0  0  0  0  0  0  0  0
  146.2190  142.0517  156.1266 H   0  0  0  0  0  0  0  0  0  0  0  0
  150.8387  142.5989  160.3601 H   0  0  0  0  0  0  0  0  0  0  0  0
  153.3388  144.3260  160.2566 H   0  0  0  0  0  0  0  0  0  0  0  0
  151.6893  144.8064  160.6490 H   0  0  0  0  0  0  0  0  0  0  0  0
  153.4009  144.2768  162.6591 H   0  0  0  0  0  0  0  0  0  0  0  0
  151.7803  143.5688  162.7372 H   0  0  0  0  0  0  0  0  0  0  0  0
  154.3256  142.2425  161.7228 H   0  0  0  0  0  0  0  0  0  0  0  0
  153.1583  141.5820  162.8704 H   0  0  0  0  0  0  0  0  0  0  0  0
  1  2  1  0  0  0  0
  1 20  1  0  0  0  0
  1 21  1  0  0  0  0
  1 22  1  0  0  0  0
  2  3  1  0  0  0  0
  2 15  1  0  0  0  0
  2 23  1  0  0  0  0
  3  4  1  0  0  0  0
  3 24  1  0  0  0  0
  4  5  2  0  0  0  0
  4  6  1  0  0  0  0
  6  7  1  0  0  0  0
  6 25  1  0  0  0  0
  6 26  1  0  0  0  0
  7 13  1  0  0  0  0
  7  8  1  0  0  0  0
  8  9  2  0  0  0  0
  8 27  1  0  0  0  0
  9 10  1  0  0  0  0
  9 28  1  0  0  0  0
 10 11  2  0  0  0  0
 10 12  1  0  0  0  0
 12 13  1  0  0  0  0
 13 14  2  0  0  0  0
 15 19  1  0  0  0  0
 15 16  1  0  0  0  0
 15 29  1  0  0  0  0
 16 17  1  0  0  0  0
 16 30  1  0  0  0  0
 16 31  1  0  0  0  0
 17 18  1  0  0  0  0
 17 32  1  0  0  0  0
 17 33  1  0  0  0  0
 18 19  1  0  0  0  0
 18 34  1  0  0  0  0
 18 35  1  0  0  0  0
M  CHG  1  12  -1
M  END
> <s_m_source_file>
AV-unprocessed.smi

> <i_m_source_file_index>
1403

> <i_lp_mmshare_version>
43012

> <i_f3d_flags>
0

> <s_epik_input>
TzFbQ0gyXVtDSDJdW0NIMl1bQ0BIXTFbQ0BIXShbQ0gzXSlbTkhdQyg9TylbQ0gyXW4yW2NIXVtjSF1jKD1PKVtuSF1jMj1P

> <s_epik_cmdline>
J2VwaWtfcHl0aG9uJywgJy1waCcsICc3LjAnLCAnLXRuJywgJzgnLCAnLW1hJywgJzIwMCcsICctbWV0YWxfYmluZGluZycsICctaW1hZScsICc8aW5maWxlLm1hZT4nLCAnLW9tYWUnLCAnPG91dGZpbGUubWFlPic=

> <r_lp_tautomer_probability>
0.999537

> <r_epik_Ionization_Penalty>
3.07438

> <r_epik_Ionization_Penalty_Charging>
2.82466e-08

> <r_epik_Ionization_Penalty_Neutral>
3.07438

> <r_epik_State_Penalty>
3.07341

> <r_epik_Charging_Adjusted_Penalty>
3.07341

> <i_epik_Tot_Q>
-1

> <i_epik_Tot_abs_Q>
1

> <r_epik_Metal_State_Penalty>
0.45947

> <b_epik_Metal_Only>
1

> <s_lp_Force_Field>
OPLS_2005

> <r_lp_Energy>
29.4252

> <b_lp_Chiralities_Consistent>
1

> <s_lp_Variant>
AV-unprocessed.smi:1403-5

> <Gold.Version>
5.8.1

> <Gold.Id.Protein>
6NUR|6NUR_protein|mol2

> <Gold.PLP.Fitness>
39.6880

> <Gold.PLP.PLP>
-34.9798

> <Gold.PLP.part.hbond>
-2.5787

> <Gold.PLP.part.metal>
0.0000

> <Gold.PLP.part.buried>
-6.2289

> <Gold.PLP.part.nonpolar>
-25.7493

> <Gold.PLP.part.repulsive>
0.5304

> <Gold.PLP.ligand.clash>
0.0000

> <Gold.PLP.ligand.torsion>
0.8586

> <Gold.PLP.Chemscore.Hbond>
2.1327

> <Gold.PLP.Chemscore.CHOScore>
0.0000

> <Gold.PLP.Chemscore.Metal>
0.0000

> <Gold.Chemscore.Hbonds>
donor molecule, donor type, donor heavy atom, donor atom, acceptor molecule, acceptor atom, score
      P1  H  7989  7998       L1    14  1.00
      P1  H  7997  8009       L1     5  0.84
      P1  H  8011  8017       L1    12  0.34

> <Gold.PLP.Chemscore.Internal.Correction>
0.0276

> <Gold.Rescore>
     Score         DG    S(hbond)    S(metal)    S(lipo)     H(rot)  DE(clash)    DE(int)     intcor
     16.02     -16.89       2.17        0.00      79.26       1.99       0.21       0.66       ----

> <Gold.Chemscore.Fitness>
16.0152

> <Gold.Chemscore.DG>
-16.8866

> <Gold.Chemscore.ZeroCoef>
-5.4800

> <Gold.Chemscore.Hbond>
2.1670

> <Gold.Chemscore.Metal>
0.0000

> <Gold.Chemscore.Lipo>
79.2596

> <Gold.Chemscore.Internal_Hbond>
0.0000

> <Gold.Chemscore.DEClash>
0.2149

> <Gold.Chemscore.DEInternal>
0.6565

> <Gold.Chemscore.Rot>
1.9940

> <Gold.Chemscore.Internal.Correction>
   9.000000E+99

> <Gold.Chemscore.Hbonds>
donor molecule, donor type, donor heavy atom, donor atom, acceptor molecule, acceptor atom, score
      P1  H  7989  7998       L1    14  0.95
      P1  H  7997  8009       L1     5  0.82
      P1  H  8011  8017       L1    12  0.27

> <Gold.Chemscore.Hbond.Weighted>
-7.2379

> <Gold.Chemscore.Metal.Weighted>
-0.0000

> <Gold.Chemscore.Lipo.Weighted>
-9.2734

> <Gold.Chemscore.Internal_Hbond.Weighted>
0.0000

> <Gold.Chemscore.DEClash.Weighted>
0.2149

> <Gold.Chemscore.DEInternal.Weighted>
0.6565

> <Gold.Chemscore.Rot.Weighted>
5.1047

> <Gold.Chemscore.Internal.Correction.Weighted>
   9.000000E+99

> <Gold.Protein.RotatedTorsions>
[ 6907 6896 6895 6894 ] final   13.73 input  -60.11 | X-H torsion
[ 7974 7965 7964 7962 ] final  -57.24 input  175.53 | X-H torsion
[ 8008 7997 7996 7995 ] final -178.46 input   59.86 | X-H torsion
[ 10167 10162 10161 10158 ] final  -29.46 input  -65.29 | X-H torsion
[ 10718 10713 10712 10709 ] final -178.56 input   66.30 | X-H torsion
[ 10763 10752 10751 10750 ] final   95.24 input  -60.55 | X-H torsion
[ 11005 11000 10999 10996 ] final   -7.92 input  -57.11 | X-H torsion

> <Gold.Protein.ActiveResidues>
 VAL166  LYS551  ARG553  GLY616  TRP617  ASP618  TYR619  PRO620  LYS621  CYS622 
 ASP623  PHE694  ASN695  SER759  ASP760  ASP761  ALA762  ILE779  LEU786  VAL792 
 PHE793  MET794  SER795  GLU796  ALA797  LYS798  CYS799  TRP800  GLU811  SER814 

> <Gold.Protein.RotatedAtoms>
  151.7910  135.0735  160.0386 H   0  0  0  0  0  0  0  0  0  0  0  0  # atno 6907 bound_to 6896
  152.3156  133.5794  159.5718 H   0  0  0  0  0  0  0  0  0  0  0  0  # atno 6908 bound_to 6896
  150.7342  134.0003  159.3678 H   0  0  0  0  0  0  0  0  0  0  0  0  # atno 6909 bound_to 6896
  145.8533  140.8337  142.9974 H   0  0  0  0  0  0  0  0  0  0  0  0  # atno 7974 bound_to 7965
  156.0191  140.1257  157.0376 H   0  0  0  0  0  0  0  0  0  0  0  0  # atno 8008 bound_to 7997
  154.4304  140.1072  156.6007 H   0  0  0  0  0  0  0  0  0  0  0  0  # atno 8009 bound_to 7997
  155.5971  140.3470  155.4585 H   0  0  0  0  0  0  0  0  0  0  0  0  # atno 8010 bound_to 7997
  140.7260  143.3927  151.1402 H   0  0  0  0  0  0  0  0  0  0  0  0  # atno 10167 bound_to 10162
  156.8461  130.9703  151.3096 H   0  0  0  0  0  0  0  0  0  0  0  0  # atno 10718 bound_to 10713
  153.2509  135.4261  155.0796 H   0  0  0  0  0  0  0  0  0  0  0  0  # atno 10763 bound_to 10752
  154.8381  135.3425  154.6514 H   0  0  0  0  0  0  0  0  0  0  0  0  # atno 10764 bound_to 10752
  153.6935  135.7032  153.5140 H   0  0  0  0  0  0  0  0  0  0  0  0  # atno 10765 bound_to 10752
  140.7179  133.8853  155.8799 H   0  0  0  0  0  0  0  0  0  0  0  0  # atno 11005 bound_to 11000
  144.6728  140.0986  143.7461 LP  0  0  0  0  0  0  0  0  0  0  0  0  # atno 17320 bound_to 7965
  145.9332  139.2620  143.1313 LP  0  0  0  0  0  0  0  0  0  0  0  0  # atno 17321 bound_to 7965
  139.7534  143.8744  152.3082 LP  0  0  0  0  0  0  0  0  0  0  0  0  # atno 17342 bound_to 10162
  139.8605  144.7119  150.9105 LP  0  0  0  0  0  0  0  0  0  0  0  0  # atno 17343 bound_to 10162
  157.6329  130.8744  149.9306 LP  0  0  0  0  0  0  0  0  0  0  0  0  # atno 17370 bound_to 10713
  156.0854  130.3668  150.0498 LP  0  0  0  0  0  0  0  0  0  0  0  0  # atno 17371 bound_to 10713
  141.0028  134.1127  157.4300 LP  0  0  0  0  0  0  0  0  0  0  0  0  # atno 17394 bound_to 11000
  139.8855  135.0073  156.6439 LP  0  0  0  0  0  0  0  0  0  0  0  0  # atno 17395 bound_to 11000

$$$$
