AV-unprocessed.smi:274|AV-procd|sdf|2058|dock6
  -GOLD-   2262021303D 1   1.00000     0.00000
 Structure written by MMmdl.
 50 53  0  0  0  0  0  0  0  0  1 V2000
  148.8426  141.5534  156.6166 C   0  0  0  0  0  0  0  0  0  0  0  0
  149.2886  140.1086  156.9190 C   0  0  0  0  0  0  0  0  0  0  0  0
  150.7775  140.1217  157.3181 C   0  0  0  0  0  0  0  0  0  0  0  0
  148.9871  139.1127  155.7535 C   0  0  2  0  0  0  0  0  0  0  0  0
  149.6457  139.5489  154.4227 C   0  0  0  0  0  0  0  0  0  0  0  0
  150.8362  139.3152  154.2239 O   0  0  0  0  0  0  0  0  0  0  0  0
  148.8926  140.1531  153.4858 N   0  0  0  0  0  0  0  0  0  0  0  0
  147.4581  140.4297  153.5722 C   0  0  0  0  0  0  0  0  0  0  0  0
  146.8392  140.0749  154.9393 C   0  0  0  0  0  0  0  0  0  0  0  0
  147.5352  138.9506  155.5687 N   0  0  0  0  0  0  0  0  0  0  0  0
  147.0949  137.6887  155.3035 C   0  0  0  0  0  0  0  0  0  0  0  0
  147.5150  136.6493  156.0744 N   0  0  0  0  0  0  0  0  0  0  0  0
  147.0835  135.4078  155.8369 C   0  0  0  0  0  0  0  0  0  0  0  0
  146.2450  134.9838  154.8909 N   0  0  0  0  0  0  0  0  0  0  0  0
  145.8266  136.0157  154.1042 C   0  0  0  0  0  0  0  0  0  0  0  0
  146.1977  137.3842  154.2390 C   0  0  0  0  0  0  0  0  0  0  0  0
  145.5771  138.1370  153.2491 N   0  0  0  0  0  0  0  0  0  0  0  0
  144.8728  137.2684  152.5773 C   0  0  0  0  0  0  0  0  0  0  0  0
  144.9686  135.9688  153.0192 N   0  0  0  0  0  0  0  0  0  0  0  0
  144.2971  134.8070  152.4571 C   0  0  0  0  0  0  0  0  0  0  0  0
  144.9143  134.3265  151.1233 C   0  0  1  0  0  0  0  0  0  0  0  0
  144.9541  135.4151  150.2162 O   0  0  0  0  0  0  0  0  0  0  0  0
  146.3225  133.7541  151.2572 C   0  0  0  0  0  0  0  0  0  0  0  0
  146.3659  132.6988  150.1614 C   0  0  0  0  0  0  0  0  0  0  0  0
  145.0692  132.1306  150.2284 O   0  0  0  0  0  0  0  0  0  0  0  0
  144.1288  133.1733  150.4672 C   0  0  0  0  0  0  0  0  0  0  0  0
  149.2996  141.9245  155.6986 H   0  0  0  0  0  0  0  0  0  0  0  0
  149.1288  142.2286  157.4234 H   0  0  0  0  0  0  0  0  0  0  0  0
  147.7615  141.6365  156.5118 H   0  0  0  0  0  0  0  0  0  0  0  0
  148.7285  139.7907  157.7990 H   0  0  0  0  0  0  0  0  0  0  0  0
  151.4042  140.4583  156.4927 H   0  0  0  0  0  0  0  0  0  0  0  0
  151.1300  139.1382  157.6283 H   0  0  0  0  0  0  0  0  0  0  0  0
  150.9508  140.7972  158.1561 H   0  0  0  0  0  0  0  0  0  0  0  0
  149.4440  138.1574  156.0125 H   0  0  0  0  0  0  0  0  0  0  0  0
  149.3503  140.4220  152.6271 H   0  0  0  0  0  0  0  0  0  0  0  0
  147.2690  141.4753  153.3282 H   0  0  0  0  0  0  0  0  0  0  0  0
  146.9753  139.8403  152.7926 H   0  0  0  0  0  0  0  0  0  0  0  0
  146.9204  140.9348  155.6032 H   0  0  0  0  0  0  0  0  0  0  0  0
  145.7675  139.8914  154.8471 H   0  0  0  0  0  0  0  0  0  0  0  0
  147.4638  134.6456  156.5007 H   0  0  0  0  0  0  0  0  0  0  0  0
  144.2647  137.5522  151.7306 H   0  0  0  0  0  0  0  0  0  0  0  0
  144.3301  134.0046  153.1951 H   0  0  0  0  0  0  0  0  0  0  0  0
  143.2429  135.0523  152.3209 H   0  0  0  0  0  0  0  0  0  0  0  0
  145.1705  135.0823  149.3585 H   0  0  0  0  0  0  0  0  0  0  0  0
  147.1138  134.5000  151.1714 H   0  0  0  0  0  0  0  0  0  0  0  0
  146.4382  133.2574  152.2210 H   0  0  0  0  0  0  0  0  0  0  0  0
  146.5207  133.1539  149.1820 H   0  0  0  0  0  0  0  0  0  0  0  0
  147.1424  131.9511  150.3247 H   0  0  0  0  0  0  0  0  0  0  0  0
  143.3346  132.7935  151.1108 H   0  0  0  0  0  0  0  0  0  0  0  0
  143.6677  133.4730  149.5246 H   0  0  0  0  0  0  0  0  0  0  0  0
  1  2  1  0  0  0  0
  1 27  1  0  0  0  0
  1 28  1  0  0  0  0
  1 29  1  0  0  0  0
  2  3  1  0  0  0  0
  2  4  1  0  0  0  0
  2 30  1  0  0  0  0
  3 31  1  0  0  0  0
  3 32  1  0  0  0  0
  3 33  1  0  0  0  0
  4 10  1  0  0  0  0
  4  5  1  0  0  0  0
  4 34  1  0  0  0  0
  5  6  2  0  0  0  0
  5  7  1  0  0  0  0
  7  8  1  0  0  0  0
  7 35  1  0  0  0  0
  8  9  1  0  0  0  0
  8 36  1  0  0  0  0
  8 37  1  0  0  0  0
  9 10  1  0  0  0  0
  9 38  1  0  0  0  0
  9 39  1  0  0  0  0
 10 11  1  0  0  0  0
 11 16  1  0  0  0  0
 11 12  2  0  0  0  0
 12 13  1  0  0  0  0
 13 14  2  0  0  0  0
 13 40  1  0  0  0  0
 14 15  1  0  0  0  0
 15 19  1  0  0  0  0
 15 16  2  0  0  0  0
 16 17  1  0  0  0  0
 17 18  2  0  0  0  0
 18 19  1  0  0  0  0
 18 41  1  0  0  0  0
 19 20  1  0  0  0  0
 20 21  1  0  0  0  0
 20 42  1  0  0  0  0
 20 43  1  0  0  0  0
 21 26  1  0  0  0  0
 21 22  1  0  0  0  0
 21 23  1  0  0  0  0
 22 44  1  0  0  0  0
 23 24  1  0  0  0  0
 23 45  1  0  0  0  0
 23 46  1  0  0  0  0
 24 25  1  0  0  0  0
 24 47  1  0  0  0  0
 24 48  1  0  0  0  0
 25 26  1  0  0  0  0
 26 49  1  0  0  0  0
 26 50  1  0  0  0  0
M  END
> <s_m_source_file>
AV-unprocessed.smi

> <i_m_source_file_index>
274

> <i_lp_mmshare_version>
43012

> <i_f3d_flags>
0

> <s_epik_input>
W0NIM11bQ0hdKFtDSDNdKVtDQEBIXTFDKD1PKVtOSF1bQ0gyXVtDSDJdTjFjKG5bY0hdbjIpYyhjMjMpbltjSF1uM1tDSDJdW0NAQF00KFtPSF0pW0NIMl1bQ0gyXU9bQ0gyXTQ=

> <s_epik_cmdline>
J2VwaWtfcHl0aG9uJywgJy1waCcsICc3LjAnLCAnLXRuJywgJzgnLCAnLW1hJywgJzIwMCcsICctbWV0YWxfYmluZGluZycsICctaW1hZScsICc8aW5maWxlLm1hZT4nLCAnLW9tYWUnLCAnPG91dGZpbGUubWFlPic=

> <r_lp_tautomer_probability>
1

> <r_epik_Ionization_Penalty>
0.000690079

> <r_epik_Ionization_Penalty_Charging>
0

> <r_epik_Ionization_Penalty_Neutral>
0.000690079

> <r_epik_State_Penalty>
0.000321372

> <r_epik_Charging_Adjusted_Penalty>
0.000321372

> <i_epik_Tot_Q>
0

> <i_epik_Tot_abs_Q>
0

> <r_epik_Metal_State_Penalty>
-0

> <b_epik_Metal_Only>
0

> <s_lp_Force_Field>
OPLS_2005

> <r_lp_Energy>
40.3696

> <b_lp_Chiralities_Consistent>
1

> <s_lp_Variant>
AV-unprocessed.smi:274-1

> <Gold.Version>
5.8.1

> <Gold.Id.Protein>
6NUR|6NUR_protein|mol2

> <Gold.PLP.Fitness>
37.7735

> <Gold.PLP.PLP>
-27.1376

> <Gold.PLP.part.hbond>
-2.7393

> <Gold.PLP.part.metal>
0.0000

> <Gold.PLP.part.buried>
-5.7763

> <Gold.PLP.part.nonpolar>
-19.4642

> <Gold.PLP.part.repulsive>
0.9679

> <Gold.PLP.ligand.clash>
0.0000

> <Gold.PLP.ligand.torsion>
0.7236

> <Gold.PLP.Chemscore.Hbond>
2.9280

> <Gold.PLP.Chemscore.CHOScore>
1.0000

> <Gold.PLP.Chemscore.Metal>
0.0000

> <Gold.Chemscore.Hbonds>
donor molecule, donor type, donor heavy atom, donor atom, acceptor molecule, acceptor atom, score
      L1  H     7    35       P1  7957  0.91
      L1  H    22    44       P1  7921  1.00
      P1  H  7989  7998       L1     6  1.00
      L1  C    18    41       P1 10171  1.00

> <Gold.PLP.Chemscore.Internal.Correction>
0.2990

> <Gold.Rescore>
     Score         DG    S(hbond)    S(metal)    S(lipo)     H(rot)  DE(clash)    DE(int)     intcor
     11.49     -16.02       2.83        0.00      56.03       2.14       0.34       4.18       ----

> <Gold.Chemscore.Fitness>
11.4950

> <Gold.Chemscore.DG>
-16.0161

> <Gold.Chemscore.ZeroCoef>
-5.4800

> <Gold.Chemscore.Hbond>
2.8343

> <Gold.Chemscore.Metal>
0.0000

> <Gold.Chemscore.Lipo>
56.0316

> <Gold.Chemscore.Internal_Hbond>
0.0000

> <Gold.Chemscore.DEClash>
0.3387

> <Gold.Chemscore.DEInternal>
4.1824

> <Gold.Chemscore.Rot>
2.1431

> <Gold.Chemscore.Internal.Correction>
   9.000000E+99

> <Gold.Chemscore.Hbonds>
donor molecule, donor type, donor heavy atom, donor atom, acceptor molecule, acceptor atom, score
      L1  H     7    35       P1  7957  0.84
      L1  H    22    44       P1  7921  0.96
      P1  H  7989  7998       L1     6  0.70

> <Gold.Chemscore.Hbond.Weighted>
-9.4666

> <Gold.Chemscore.Metal.Weighted>
-0.0000

> <Gold.Chemscore.Lipo.Weighted>
-6.5557

> <Gold.Chemscore.Internal_Hbond.Weighted>
0.0000

> <Gold.Chemscore.DEClash.Weighted>
0.3387

> <Gold.Chemscore.DEInternal.Weighted>
4.1824

> <Gold.Chemscore.Rot.Weighted>
5.4863

> <Gold.Chemscore.Internal.Correction.Weighted>
   9.000000E+99

> <Gold.Protein.RotatedTorsions>
[ 6907 6896 6895 6894 ] final  129.70 input  -60.11 | X-H torsion
[ 7974 7965 7964 7962 ] final  -55.32 input  175.53 | X-H torsion
[ 8008 7997 7996 7995 ] final   54.46 input   59.86 | X-H torsion
[ 10167 10162 10161 10158 ] final    5.23 input  -65.29 | X-H torsion
[ 10718 10713 10712 10709 ] final  -46.94 input   66.30 | X-H torsion
[ 10763 10752 10751 10750 ] final -138.22 input  -60.55 | X-H torsion
[ 11005 11000 10999 10996 ] final -120.96 input  -57.11 | X-H torsion

> <Gold.Protein.ActiveResidues>
 VAL166  LYS551  ARG553  GLY616  TRP617  ASP618  TYR619  PRO620  LYS621  CYS622 
 ASP623  PHE694  ASN695  SER759  ASP760  ASP761  ALA762  ILE779  LEU786  VAL792 
 PHE793  MET794  SER795  GLU796  ALA797  LYS798  CYS799  TRP800  GLU811  SER814 

> <Gold.Protein.RotatedAtoms>
  152.3598  133.6283  159.6006 H   0  0  0  0  0  0  0  0  0  0  0  0  # atno 6907 bound_to 6896
  150.7593  133.9441  159.3474 H   0  0  0  0  0  0  0  0  0  0  0  0  # atno 6908 bound_to 6896
  151.7281  135.0881  160.0346 H   0  0  0  0  0  0  0  0  0  0  0  0  # atno 6909 bound_to 6896
  145.8756  140.8183  142.9866 H   0  0  0  0  0  0  0  0  0  0  0  0  # atno 7974 bound_to 7965
  155.4851  140.3469  155.4346 H   0  0  0  0  0  0  0  0  0  0  0  0  # atno 8008 bound_to 7997
  156.1014  140.1436  156.9491 H   0  0  0  0  0  0  0  0  0  0  0  0  # atno 8009 bound_to 7997
  154.4696  140.0905  156.7088 H   0  0  0  0  0  0  0  0  0  0  0  0  # atno 8010 bound_to 7997
  140.6493  143.7585  150.7549 H   0  0  0  0  0  0  0  0  0  0  0  0  # atno 10167 bound_to 10162
  156.2134  130.4162  149.9086 H   0  0  0  0  0  0  0  0  0  0  0  0  # atno 10718 bound_to 10713
  154.8642  135.3618  154.5350 H   0  0  0  0  0  0  0  0  0  0  0  0  # atno 10763 bound_to 10752
  153.5974  135.7013  153.5403 H   0  0  0  0  0  0  0  0  0  0  0  0  # atno 10764 bound_to 10752
  153.3320  135.4121  155.1465 H   0  0  0  0  0  0  0  0  0  0  0  0  # atno 10765 bound_to 10752
  141.0105  134.0271  157.3420 H   0  0  0  0  0  0  0  0  0  0  0  0  # atno 11005 bound_to 11000
  144.6726  140.1305  143.7444 LP  0  0  0  0  0  0  0  0  0  0  0  0  # atno 17320 bound_to 7965
  145.9085  139.2473  143.1451 LP  0  0  0  0  0  0  0  0  0  0  0  0  # atno 17321 bound_to 7965
  140.1232  143.4593  152.2300 LP  0  0  0  0  0  0  0  0  0  0  0  0  # atno 17342 bound_to 10162
  139.5706  144.7460  151.3901 LP  0  0  0  0  0  0  0  0  0  0  0  0  # atno 17343 bound_to 10162
  156.6756  130.8838  151.3568 LP  0  0  0  0  0  0  0  0  0  0  0  0  # atno 17370 bound_to 10713
  157.7050  130.9375  150.0903 LP  0  0  0  0  0  0  0  0  0  0  0  0  # atno 17371 bound_to 10713
  139.9087  135.0185  156.7599 LP  0  0  0  0  0  0  0  0  0  0  0  0  # atno 17394 bound_to 11000
  140.6741  133.9533  155.7873 LP  0  0  0  0  0  0  0  0  0  0  0  0  # atno 17395 bound_to 11000

$$$$
