AV-unprocessed.smi:141|AV-procd|sdf|1187|dock7
  -GOLD-   2262018343D 1   1.00000     0.00000
 Structure written by MMmdl.
 56 59  0  0  0  0  0  0  0  0  1 V2000
  152.3676  135.7415  157.7427 O   0  0  0  0  0  0  0  0  0  0  0  0
  151.7904  136.7632  157.3652 C   0  0  0  0  0  0  0  0  0  0  0  0
  150.3051  136.6768  156.9544 C   0  0  0  0  0  0  0  0  0  0  0  0
  149.4622  135.9304  157.9155 N   0  0  0  0  0  0  0  0  0  0  0  0
  148.9624  134.6591  157.5380 C   0  0  0  0  0  0  0  0  0  0  0  0
  149.2049  134.1805  156.4292 O   0  0  0  0  0  0  0  0  0  0  0  0
  148.1661  133.9707  158.5475 C   0  0  0  0  0  0  0  0  0  0  0  0
  147.6629  132.7531  158.2827 F   0  0  0  0  0  0  0  0  0  0  0  0
  147.9295  134.5357  159.7490 C   0  0  0  0  0  0  0  0  0  0  0  0
  148.4057  135.7842  160.0980 N   0  0  0  0  0  0  0  0  0  0  0  0
  148.1351  136.3149  161.4868 C   0  0  2  0  0  0  0  0  0  0  0  0
  147.5225  135.2707  162.4395 C   0  0  0  0  0  0  0  0  0  0  0  0
  146.2170  135.9231  162.8642 C   0  0  0  0  0  0  0  0  0  0  0  0
  146.4682  137.4000  162.5813 C   0  0  0  0  0  0  0  0  0  0  0  0
  147.2379  137.3777  161.3896 O   0  0  0  0  0  0  0  0  0  0  0  0
  149.2175  136.5006  159.1882 C   0  0  0  0  0  0  0  0  0  0  0  0
  149.7073  137.5888  159.4953 O   0  0  0  0  0  0  0  0  0  0  0  0
  152.4181  137.9630  157.3040 N   0  0  0  0  0  0  0  0  0  0  0  0
  151.7949  139.2359  156.9201 C   0  0  0  0  0  0  0  0  0  0  0  0
  151.6593  140.1133  158.1769 C   0  0  0  0  0  0  0  0  0  0  0  0
  153.0331  140.3410  158.8469 C   0  0  0  0  0  0  0  0  0  0  0  0
  152.9090  141.1476  160.1588 C   0  0  0  0  0  0  0  0  0  0  0  0
  152.6119  142.6152  159.9148 C   0  0  0  0  0  0  0  0  0  0  0  0
  152.5617  143.1193  158.5982 C   0  0  0  0  0  0  0  0  0  0  0  0
  152.2793  144.4807  158.3729 C   0  0  0  0  0  0  0  0  0  0  0  0
  152.0463  145.3419  159.4627 C   0  0  0  0  0  0  0  0  0  0  0  0
  152.0925  144.8409  160.7782 C   0  0  0  0  0  0  0  0  0  0  0  0
  152.3743  143.4795  161.0042 C   0  0  0  0  0  0  0  0  0  0  0  0
  153.7661  138.9968  159.0603 C   0  0  0  0  0  0  0  0  0  0  0  0
  153.7971  138.1619  157.7665 C   0  0  0  0  0  0  0  0  0  0  0  0
  149.9148  137.6871  156.8222 H   0  0  0  0  0  0  0  0  0  0  0  0
  150.2432  136.2288  155.9616 H   0  0  0  0  0  0  0  0  0  0  0  0
  147.3385  133.9808  160.4630 H   0  0  0  0  0  0  0  0  0  0  0  0
  149.0909  136.6867  161.8585 H   0  0  0  0  0  0  0  0  0  0  0  0
  147.3794  134.3002  161.9635 H   0  0  0  0  0  0  0  0  0  0  0  0
  148.1925  135.1423  163.2901 H   0  0  0  0  0  0  0  0  0  0  0  0
  145.3964  135.5606  162.2448 H   0  0  0  0  0  0  0  0  0  0  0  0
  145.9632  135.7289  163.9066 H   0  0  0  0  0  0  0  0  0  0  0  0
  145.5465  137.9684  162.4554 H   0  0  0  0  0  0  0  0  0  0  0  0
  147.0499  137.8573  163.3835 H   0  0  0  0  0  0  0  0  0  0  0  0
  152.4265  139.7366  156.1846 H   0  0  0  0  0  0  0  0  0  0  0  0
  150.8264  139.1256  156.4355 H   0  0  0  0  0  0  0  0  0  0  0  0
  151.2114  141.0719  157.9120 H   0  0  0  0  0  0  0  0  0  0  0  0
  150.9757  139.6347  158.8799 H   0  0  0  0  0  0  0  0  0  0  0  0
  153.6315  140.9184  158.1397 H   0  0  0  0  0  0  0  0  0  0  0  0
  152.1203  140.7374  160.7909 H   0  0  0  0  0  0  0  0  0  0  0  0
  153.8213  141.0682  160.7516 H   0  0  0  0  0  0  0  0  0  0  0  0
  152.7371  142.4626  157.7583 H   0  0  0  0  0  0  0  0  0  0  0  0
  152.2406  144.8634  157.3637 H   0  0  0  0  0  0  0  0  0  0  0  0
  151.8303  146.3859  159.2896 H   0  0  0  0  0  0  0  0  0  0  0  0
  151.9111  145.5001  161.6145 H   0  0  0  0  0  0  0  0  0  0  0  0
  152.4052  143.0996  162.0151 H   0  0  0  0  0  0  0  0  0  0  0  0
  154.7836  139.1786  159.4078 H   0  0  0  0  0  0  0  0  0  0  0  0
  153.2686  138.4234  159.8439 H   0  0  0  0  0  0  0  0  0  0  0  0
  154.3256  137.2243  157.9434 H   0  0  0  0  0  0  0  0  0  0  0  0
  154.3676  138.6814  156.9954 H   0  0  0  0  0  0  0  0  0  0  0  0
  1  2  2  0  0  0  0
  2  3  1  0  0  0  0
  2 18  1  0  0  0  0
  3  4  1  0  0  0  0
  3 31  1  0  0  0  0
  3 32  1  0  0  0  0
  4 16  1  0  0  0  0
  4  5  1  0  0  0  0
  5  6  2  0  0  0  0
  5  7  1  0  0  0  0
  7  8  1  0  0  0  0
  7  9  2  0  0  0  0
  9 10  1  0  0  0  0
  9 33  1  0  0  0  0
 10 11  1  0  0  0  0
 10 16  1  0  0  0  0
 11 15  1  0  0  0  0
 11 12  1  0  0  0  0
 11 34  1  0  0  0  0
 12 13  1  0  0  0  0
 12 35  1  0  0  0  0
 12 36  1  0  0  0  0
 13 14  1  0  0  0  0
 13 37  1  0  0  0  0
 13 38  1  0  0  0  0
 14 15  1  0  0  0  0
 14 39  1  0  0  0  0
 14 40  1  0  0  0  0
 16 17  2  0  0  0  0
 18 30  1  0  0  0  0
 18 19  1  0  0  0  0
 19 20  1  0  0  0  0
 19 41  1  0  0  0  0
 19 42  1  0  0  0  0
 20 21  1  0  0  0  0
 20 43  1  0  0  0  0
 20 44  1  0  0  0  0
 21 22  1  0  0  0  0
 21 29  1  0  0  0  0
 21 45  1  0  0  0  0
 22 23  1  0  0  0  0
 22 46  1  0  0  0  0
 22 47  1  0  0  0  0
 23 28  1  0  0  0  0
 23 24  2  0  0  0  0
 24 25  1  0  0  0  0
 24 48  1  0  0  0  0
 25 26  2  0  0  0  0
 25 49  1  0  0  0  0
 26 27  1  0  0  0  0
 26 50  1  0  0  0  0
 27 28  2  0  0  0  0
 27 51  1  0  0  0  0
 28 52  1  0  0  0  0
 29 30  1  0  0  0  0
 29 53  1  0  0  0  0
 29 54  1  0  0  0  0
 30 55  1  0  0  0  0
 30 56  1  0  0  0  0
M  END
> <s_m_source_file>
AV-unprocessed.smi

> <i_m_source_file_index>
141

> <i_lp_mmshare_version>
43012

> <i_f3d_flags>
0

> <s_epik_input>
W2NIXTFbY0hdW2NIXVtjSF1bY0hdYzFbQ0gyXVtDSF0oW0NIMl1bQ0gyXTIpW0NIMl1bQ0gyXU4yQyg9TylbQ0gyXW4zYyg9TyljKEYpW2NIXW4oYzM9TylbQ0BASF00W0NIMl1bQ0gyXVtDSDJdTzQ=

> <s_epik_cmdline>
J2VwaWtfcHl0aG9uJywgJy1waCcsICc3LjAnLCAnLXRuJywgJzgnLCAnLW1hJywgJzIwMCcsICctbWV0YWxfYmluZGluZycsICctaW1hZScsICc8aW5maWxlLm1hZT4nLCAnLW9tYWUnLCAnPG91dGZpbGUubWFlPic=

> <r_lp_tautomer_probability>
1

> <r_epik_Ionization_Penalty>
3.78313e-08

> <r_epik_Ionization_Penalty_Charging>
4.95074e-09

> <r_epik_Ionization_Penalty_Neutral>
3.28806e-08

> <r_epik_State_Penalty>
-0

> <r_epik_Charging_Adjusted_Penalty>
4.95074e-09

> <i_epik_Tot_Q>
0

> <i_epik_Tot_abs_Q>
0

> <r_epik_Metal_State_Penalty>
-0

> <b_epik_Metal_Only>
0

> <s_epik_Chemistry_Notes>
This compound contains an acetal/aminal-like group ( X-CH(R)-Y where X, Y are N, S, or O) that may be acid/base labile, releasing an aldehyde.

> <s_lp_Force_Field>
OPLS_2005

> <r_lp_Energy>
44.5211

> <b_lp_Chiralities_Consistent>
1

> <s_lp_Variant>
AV-unprocessed.smi:141-1

> <Gold.Version>
5.8.1

> <Gold.Id.Protein>
6NUR|6NUR_protein|mol2

> <Gold.PLP.Fitness>
58.6229

> <Gold.PLP.PLP>
-56.7841

> <Gold.PLP.part.hbond>
-4.0000

> <Gold.PLP.part.metal>
0.0000

> <Gold.PLP.part.buried>
-5.1227

> <Gold.PLP.part.nonpolar>
-48.6362

> <Gold.PLP.part.repulsive>
0.0000

> <Gold.PLP.ligand.clash>
0.0000

> <Gold.PLP.ligand.torsion>
0.6265

> <Gold.PLP.Chemscore.Hbond>
1.0000

> <Gold.PLP.Chemscore.CHOScore>
0.0000

> <Gold.PLP.Chemscore.Metal>
0.0000

> <Gold.Chemscore.Hbonds>
donor molecule, donor type, donor heavy atom, donor atom, acceptor molecule, acceptor atom, score
      P1  H  6934  6947       L1    15  0.99

> <Gold.PLP.Chemscore.Internal.Correction>
0.0920

> <Gold.Rescore>
     Score         DG    S(hbond)    S(metal)    S(lipo)     H(rot)  DE(clash)    DE(int)     intcor
     19.05     -19.99       0.66        0.00     145.56       1.85       0.09       0.86       ----

> <Gold.Chemscore.Fitness>
19.0474

> <Gold.Chemscore.DG>
-19.9949

> <Gold.Chemscore.ZeroCoef>
-5.4800

> <Gold.Chemscore.Hbond>
0.6618

> <Gold.Chemscore.Metal>
0.0000

> <Gold.Chemscore.Lipo>
145.5599

> <Gold.Chemscore.Internal_Hbond>
0.0000

> <Gold.Chemscore.DEClash>
0.0892

> <Gold.Chemscore.DEInternal>
0.8583

> <Gold.Chemscore.Rot>
1.8461

> <Gold.Chemscore.Internal.Correction>
   9.000000E+99

> <Gold.Chemscore.Hbonds>
donor molecule, donor type, donor heavy atom, donor atom, acceptor molecule, acceptor atom, score
      P1  H  6934  6947       L1    15  0.28

> <Gold.Chemscore.Hbond.Weighted>
-2.2104

> <Gold.Chemscore.Metal.Weighted>
-0.0000

> <Gold.Chemscore.Lipo.Weighted>
-17.0305

> <Gold.Chemscore.Internal_Hbond.Weighted>
0.0000

> <Gold.Chemscore.DEClash.Weighted>
0.0892

> <Gold.Chemscore.DEInternal.Weighted>
0.8583

> <Gold.Chemscore.Rot.Weighted>
4.7260

> <Gold.Chemscore.Internal.Correction.Weighted>
   9.000000E+99

> <Gold.Protein.RotatedTorsions>
[ 6907 6896 6895 6894 ] final   64.54 input  -60.11 | X-H torsion
[ 7974 7965 7964 7962 ] final  -81.35 input  175.53 | X-H torsion
[ 8008 7997 7996 7995 ] final -104.15 input   59.86 | X-H torsion
[ 10167 10162 10161 10158 ] final   20.75 input  -65.29 | X-H torsion
[ 10718 10713 10712 10709 ] final -156.67 input   66.30 | X-H torsion
[ 10763 10752 10751 10750 ] final  167.59 input  -60.55 | X-H torsion
[ 11005 11000 10999 10996 ] final   96.92 input  -57.11 | X-H torsion

> <Gold.Protein.ActiveResidues>
 VAL166  LYS551  ARG553  GLY616  TRP617  ASP618  TYR619  PRO620  LYS621  CYS622 
 ASP623  PHE694  ASN695  SER759  ASP760  ASP761  ALA762  ILE779  LEU786  VAL792 
 PHE793  MET794  SER795  GLU796  ALA797  LYS798  CYS799  TRP800  GLU811  SER814 

> <Gold.Protein.RotatedAtoms>
  152.4339  134.5724  159.9924 H   0  0  0  0  0  0  0  0  0  0  0  0  # atno 6907 bound_to 6896
  151.5840  133.3368  159.3022 H   0  0  0  0  0  0  0  0  0  0  0  0  # atno 6908 bound_to 6896
  150.8235  134.7490  159.6857 H   0  0  0  0  0  0  0  0  0  0  0  0  # atno 6909 bound_to 6896
  145.5478  140.9501  143.1515 H   0  0  0  0  0  0  0  0  0  0  0  0  # atno 7974 bound_to 7965
  154.8812  140.0419  157.1783 H   0  0  0  0  0  0  0  0  0  0  0  0  # atno 8008 bound_to 7997
  154.8637  140.2948  155.5502 H   0  0  0  0  0  0  0  0  0  0  0  0  # atno 8009 bound_to 7997
  156.2999  140.2442  156.3615 H   0  0  0  0  0  0  0  0  0  0  0  0  # atno 8010 bound_to 7997
  140.5480  143.9560  150.6560 H   0  0  0  0  0  0  0  0  0  0  0  0  # atno 10167 bound_to 10162
  156.5298  130.8515  151.2712 H   0  0  0  0  0  0  0  0  0  0  0  0  # atno 10718 bound_to 10713
  154.3561  135.2753  155.2345 H   0  0  0  0  0  0  0  0  0  0  0  0  # atno 10763 bound_to 10752
  154.4553  135.5920  153.6223 H   0  0  0  0  0  0  0  0  0  0  0  0  # atno 10764 bound_to 10752
  152.9846  135.6052  154.3777 H   0  0  0  0  0  0  0  0  0  0  0  0  # atno 10765 bound_to 10752
  139.8778  134.8975  156.4230 H   0  0  0  0  0  0  0  0  0  0  0  0  # atno 11005 bound_to 11000
  144.7544  139.7111  143.7260 LP  0  0  0  0  0  0  0  0  0  0  0  0  # atno 17320 bound_to 7965
  146.1937  139.5192  142.9788 LP  0  0  0  0  0  0  0  0  0  0  0  0  # atno 17321 bound_to 7965
  140.2978  143.3280  152.1000 LP  0  0  0  0  0  0  0  0  0  0  0  0  # atno 17342 bound_to 10162
  139.5015  144.6715  151.6230 LP  0  0  0  0  0  0  0  0  0  0  0  0  # atno 17343 bound_to 10162
  157.7423  130.9889  150.2511 LP  0  0  0  0  0  0  0  0  0  0  0  0  # atno 17370 bound_to 10713
  156.3071  130.3766  149.7696 LP  0  0  0  0  0  0  0  0  0  0  0  0  # atno 17371 bound_to 10713
  140.9120  133.7705  155.9803 LP  0  0  0  0  0  0  0  0  0  0  0  0  # atno 17394 bound_to 11000
  140.8535  134.2925  157.5265 LP  0  0  0  0  0  0  0  0  0  0  0  0  # atno 17395 bound_to 11000

$$$$
