AV-unprocessed.smi:1829|AV-procd|sdf|7431|dock8
  -GOLD-   22720 9113D 1   1.00000     0.00000
 Structure written by MMmdl.
 46 48  0  0  0  0  0  0  0  0  2 V2000
  143.9415  147.6607  156.1891 C   0  0  0  0  0  0  0  0  0  0  0  0
  143.2493  146.7194  155.1914 C   0  0  0  0  0  0  0  0  0  0  0  0
  141.7651  146.5170  155.5365 C   0  0  0  0  0  0  0  0  0  0  0  0
  143.9899  145.3936  155.0729 C   0  0  0  0  0  0  0  0  0  0  0  0
  144.6249  145.0445  153.8621 C   0  0  0  0  0  0  0  0  0  0  0  0
  145.3267  143.8288  153.7507 C   0  0  0  0  0  0  0  0  0  0  0  0
  145.3996  142.9453  154.8496 C   0  0  0  0  0  0  0  0  0  0  0  0
  146.1962  141.6505  154.7613 C   0  0  1  0  0  0  0  0  0  0  0  0
  145.4266  140.5731  154.2690 O   0  0  0  0  0  0  0  0  0  0  0  0
  147.4557  141.7901  153.8810 C   0  0  0  0  0  0  0  0  0  0  0  0
  148.2783  140.5688  153.8724 N   0  0  0  0  0  0  0  0  0  0  0  0
  148.1117  139.4050  153.1797 C   0  0  0  0  0  0  0  0  0  0  0  0
  147.0220  139.0807  152.2117 C   0  0  0  0  0  0  0  0  0  0  0  0
  147.4359  138.1543  151.2326 O   0  0  0  0  0  0  0  0  0  0  0  0
  149.1368  138.5774  153.5272 N   0  3  0  0  0  0  0  0  0  0  0  0
  149.9658  139.2132  154.4516 C   0  0  0  0  0  0  0  0  0  0  0  0
  151.1193  138.7726  155.0929 C   0  0  0  0  0  0  0  0  0  0  0  0
  151.7272  139.6732  155.9919 C   0  0  0  0  0  0  0  0  0  0  0  0
  151.1893  140.9559  156.2214 C   0  0  0  0  0  0  0  0  0  0  0  0
  150.0231  141.3934  155.5603 C   0  0  0  0  0  0  0  0  0  0  0  0
  149.4240  140.4957  154.6760 C   0  0  0  0  0  0  0  0  0  0  0  0
  144.7560  143.2894  156.0569 C   0  0  0  0  0  0  0  0  0  0  0  0
  144.0590  144.5070  156.1695 C   0  0  0  0  0  0  0  0  0  0  0  0
  144.9785  147.8399  155.9032 H   0  0  0  0  0  0  0  0  0  0  0  0
  143.9405  147.2486  157.1986 H   0  0  0  0  0  0  0  0  0  0  0  0
  143.4395  148.6281  156.2271 H   0  0  0  0  0  0  0  0  0  0  0  0
  143.2845  147.2056  154.2155 H   0  0  0  0  0  0  0  0  0  0  0  0
  141.2732  145.8889  154.7932 H   0  0  0  0  0  0  0  0  0  0  0  0
  141.2359  147.4700  155.5622 H   0  0  0  0  0  0  0  0  0  0  0  0
  141.6363  146.0444  156.5106 H   0  0  0  0  0  0  0  0  0  0  0  0
  144.5839  145.7116  153.0135 H   0  0  0  0  0  0  0  0  0  0  0  0
  145.8197  143.5858  152.8209 H   0  0  0  0  0  0  0  0  0  0  0  0
  146.4977  141.3678  155.7708 H   0  0  0  0  0  0  0  0  0  0  0  0
  144.8597  140.8954  153.5852 H   0  0  0  0  0  0  0  0  0  0  0  0
  147.1667  141.9802  152.8465 H   0  0  0  0  0  0  0  0  0  0  0  0
  148.0648  142.6420  154.1838 H   0  0  0  0  0  0  0  0  0  0  0  0
  146.1693  138.6696  152.7528 H   0  0  0  0  0  0  0  0  0  0  0  0
  146.6788  139.9904  151.7193 H   0  0  0  0  0  0  0  0  0  0  0  0
  147.7197  137.3641  151.6667 H   0  0  0  0  0  0  0  0  0  0  0  0
  151.5331  137.7901  154.9187 H   0  0  0  0  0  0  0  0  0  0  0  0
  152.6236  139.3742  156.5158 H   0  0  0  0  0  0  0  0  0  0  0  0
  151.6800  141.6185  156.9194 H   0  0  0  0  0  0  0  0  0  0  0  0
  149.6211  142.3772  155.7496 H   0  0  0  0  0  0  0  0  0  0  0  0
  144.8106  142.6275  156.9088 H   0  0  0  0  0  0  0  0  0  0  0  0
  143.5828  144.7597  157.1053 H   0  0  0  0  0  0  0  0  0  0  0  0
  149.2582  137.6448  153.1540 H   0  0  0  0  0  0  0  0  0  0  0  0
  1  2  1  0  0  0  0
  1 24  1  0  0  0  0
  1 25  1  0  0  0  0
  1 26  1  0  0  0  0
  2  3  1  0  0  0  0
  2  4  1  0  0  0  0
  2 27  1  0  0  0  0
  3 28  1  0  0  0  0
  3 29  1  0  0  0  0
  3 30  1  0  0  0  0
  4 23  1  0  0  0  0
  4  5  2  0  0  0  0
  5  6  1  0  0  0  0
  5 31  1  0  0  0  0
  6  7  2  0  0  0  0
  6 32  1  0  0  0  0
  7  8  1  0  0  0  0
  7 22  1  0  0  0  0
  8  9  1  0  0  0  0
  8 10  1  0  0  0  0
  8 33  1  0  0  0  0
  9 34  1  0  0  0  0
 10 11  1  0  0  0  0
 10 35  1  0  0  0  0
 10 36  1  0  0  0  0
 11 21  1  0  0  0  0
 11 12  1  0  0  0  0
 12 13  1  0  0  0  0
 12 15  2  0  0  0  0
 13 14  1  0  0  0  0
 13 37  1  0  0  0  0
 13 38  1  0  0  0  0
 14 39  1  0  0  0  0
 15 16  1  0  0  0  0
 15 46  1  0  0  0  0
 16 21  2  0  0  0  0
 16 17  1  0  0  0  0
 17 18  2  0  0  0  0
 17 40  1  0  0  0  0
 18 19  1  0  0  0  0
 18 41  1  0  0  0  0
 19 20  2  0  0  0  0
 19 42  1  0  0  0  0
 20 21  1  0  0  0  0
 20 43  1  0  0  0  0
 22 23  2  0  0  0  0
 22 44  1  0  0  0  0
 23 45  1  0  0  0  0
M  CHG  1  15   1
M  END
> <s_m_source_file>
AV-unprocessed.smi

> <i_m_source_file_index>
1829

> <i_lp_mmshare_version>
43012

> <i_f3d_flags>
0

> <s_epik_input>
W0NIM11bQ0hdKFtDSDNdKWMxW2NIXVtjSF1jKFtjSF1bY0hdMSlbQ0BIXShbT0hdKVtDSDJdbihjKG4yKVtDSDJdW09IXSljKGMyMylbY0hdW2NIXVtjSF1bY0hdMw==

> <s_epik_cmdline>
J2VwaWtfcHl0aG9uJywgJy1waCcsICc3LjAnLCAnLXRuJywgJzgnLCAnLW1hJywgJzIwMCcsICctbWV0YWxfYmluZGluZycsICctaW1hZScsICc8aW5maWxlLm1hZT4nLCAnLW9tYWUnLCAnPG91dGZpbGUubWFlPic=

> <r_epik_Ionization_Penalty>
1.35642

> <r_epik_Ionization_Penalty_Charging>
1.35557

> <r_epik_Ionization_Penalty_Neutral>
0.000856322

> <r_epik_State_Penalty>
1.43401

> <r_epik_Charging_Adjusted_Penalty>
2.78958

> <i_epik_Tot_Q>
1

> <i_epik_Tot_abs_Q>
1

> <r_epik_Metal_State_Penalty>
5.47166

> <b_epik_Metal_Only>
0

> <s_lp_Force_Field>
OPLS_2005

> <r_lp_Energy>
15.3906

> <b_lp_Chiralities_Consistent>
1

> <s_lp_Variant>
AV-unprocessed.smi:1829-4

> <Gold.Version>
5.8.1

> <Gold.Id.Protein>
6NUR|6NUR_protein|mol2

> <Gold.PLP.Fitness>
64.4789

> <Gold.PLP.PLP>
-52.9687

> <Gold.PLP.part.hbond>
-5.7877

> <Gold.PLP.part.metal>
0.0000

> <Gold.PLP.part.buried>
0.5405

> <Gold.PLP.part.nonpolar>
-47.3607

> <Gold.PLP.part.repulsive>
0.0671

> <Gold.PLP.ligand.clash>
0.0000

> <Gold.PLP.ligand.torsion>
1.3995

> <Gold.PLP.Chemscore.Hbond>
4.7400

> <Gold.PLP.Chemscore.CHOScore>
0.0000

> <Gold.PLP.Chemscore.Metal>
0.0000

> <Gold.Chemscore.Hbonds>
donor molecule, donor type, donor heavy atom, donor atom, acceptor molecule, acceptor atom, score
      L1  H     9    34       P1 10175  0.93
      L1  H    14    39       P1  7948  0.90
      L1  H    15    46       P1  7948  2.00
      P1  H  7954  7966       L1    14  0.80

> <Gold.PLP.Chemscore.Internal.Correction>
0.0893

> <Gold.Rescore>
     Score         DG    S(hbond)    S(metal)    S(lipo)     H(rot)  DE(clash)    DE(int)     intcor
     19.61     -22.37       3.19        0.00     113.48       2.75       1.32       1.43       ----

> <Gold.Chemscore.Fitness>
19.6098

> <Gold.Chemscore.DG>
-22.3655

> <Gold.Chemscore.ZeroCoef>
-5.4800

> <Gold.Chemscore.Hbond>
3.1918

> <Gold.Chemscore.Metal>
0.0000

> <Gold.Chemscore.Lipo>
113.4838

> <Gold.Chemscore.Internal_Hbond>
0.0000

> <Gold.Chemscore.DEClash>
1.3224

> <Gold.Chemscore.DEInternal>
1.4332

> <Gold.Chemscore.Rot>
2.7550

> <Gold.Chemscore.Internal.Correction>
   9.000000E+99

> <Gold.Chemscore.Hbonds>
donor molecule, donor type, donor heavy atom, donor atom, acceptor molecule, acceptor atom, score
      L1  H     9    34       P1 10175  0.73
      L1  H    14    39       P1  7948  0.88
      L1  H    15    46       P1  7948  0.96
      P1  H  7954  7966       L1    14  0.11

> <Gold.Chemscore.Hbond.Weighted>
-10.6606

> <Gold.Chemscore.Metal.Weighted>
-0.0000

> <Gold.Chemscore.Lipo.Weighted>
-13.2776

> <Gold.Chemscore.Internal_Hbond.Weighted>
0.0000

> <Gold.Chemscore.DEClash.Weighted>
1.3224

> <Gold.Chemscore.DEInternal.Weighted>
1.4332

> <Gold.Chemscore.Rot.Weighted>
7.0527

> <Gold.Chemscore.Internal.Correction.Weighted>
   9.000000E+99

> <Gold.Protein.RotatedTorsions>
[ 6907 6896 6895 6894 ] final  132.05 input  -60.11 | X-H torsion
[ 7974 7965 7964 7962 ] final  132.38 input  175.53 | X-H torsion
[ 8008 7997 7996 7995 ] final    1.53 input   59.86 | X-H torsion
[ 10167 10162 10161 10158 ] final   34.50 input  -65.29 | X-H torsion
[ 10718 10713 10712 10709 ] final  -42.89 input   66.30 | X-H torsion
[ 10763 10752 10751 10750 ] final -144.24 input  -60.55 | X-H torsion
[ 11005 11000 10999 10996 ] final -123.02 input  -57.11 | X-H torsion

> <Gold.Protein.ActiveResidues>
 VAL166  LYS551  ARG553  GLY616  TRP617  ASP618  TYR619  PRO620  LYS621  CYS622 
 ASP623  PHE694  ASN695  SER759  ASP760  ASP761  ALA762  ILE779  LEU786  VAL792 
 PHE793  MET794  SER795  GLU796  ALA797  LYS798  CYS799  TRP800  GLU811  SER814 

> <Gold.Protein.RotatedAtoms>
  152.3363  133.6015  159.5844 H   0  0  0  0  0  0  0  0  0  0  0  0  # atno 6907 bound_to 6896
  150.7452  133.9790  159.3579 H   0  0  0  0  0  0  0  0  0  0  0  0  # atno 6908 bound_to 6896
  151.7660  135.0799  160.0404 H   0  0  0  0  0  0  0  0  0  0  0  0  # atno 6909 bound_to 6896
  144.9974  139.4345  143.5309 H   0  0  0  0  0  0  0  0  0  0  0  0  # atno 7974 bound_to 7965
  154.6808  140.2632  155.6910 H   0  0  0  0  0  0  0  0  0  0  0  0  # atno 8008 bound_to 7997
  156.2696  140.2810  156.1275 H   0  0  0  0  0  0  0  0  0  0  0  0  # atno 8009 bound_to 7997
  155.1033  140.0374  157.2693 H   0  0  0  0  0  0  0  0  0  0  0  0  # atno 8010 bound_to 7997
  140.4309  144.1326  150.6159 H   0  0  0  0  0  0  0  0  0  0  0  0  # atno 10167 bound_to 10162
  156.2548  130.4191  149.8608 H   0  0  0  0  0  0  0  0  0  0  0  0  # atno 10718 bound_to 10713
  154.8436  135.3445  154.6315 H   0  0  0  0  0  0  0  0  0  0  0  0  # atno 10763 bound_to 10752
  153.6925  135.6974  153.5090 H   0  0  0  0  0  0  0  0  0  0  0  0  # atno 10764 bound_to 10752
  153.2584  135.4331  155.0824 H   0  0  0  0  0  0  0  0  0  0  0  0  # atno 10765 bound_to 10752
  140.9951  134.0484  157.3608 H   0  0  0  0  0  0  0  0  0  0  0  0  # atno 11005 bound_to 11000
  146.3445  139.9342  142.8749 LP  0  0  0  0  0  0  0  0  0  0  0  0  # atno 17320 bound_to 7965
  145.2200  140.9931  143.4051 LP  0  0  0  0  0  0  0  0  0  0  0  0  # atno 17321 bound_to 7965
  140.4428  143.2519  151.9451 LP  0  0  0  0  0  0  0  0  0  0  0  0  # atno 17342 bound_to 10162
  139.4785  144.5638  151.8197 LP  0  0  0  0  0  0  0  0  0  0  0  0  # atno 17343 bound_to 10162
  156.6144  130.8600  151.3461 LP  0  0  0  0  0  0  0  0  0  0  0  0  # atno 17370 bound_to 10713
  157.7228  130.9582  150.1510 LP  0  0  0  0  0  0  0  0  0  0  0  0  # atno 17371 bound_to 10713
  139.9010  135.0164  156.7270 LP  0  0  0  0  0  0  0  0  0  0  0  0  # atno 17394 bound_to 11000
  140.6979  133.9332  155.8006 LP  0  0  0  0  0  0  0  0  0  0  0  0  # atno 17395 bound_to 11000

$$$$
