AV-unprocessed.smi:3281|AV-procd|sdf|12558|dock4
  -GOLD-   2272018473D 1   1.00000     0.00000
 Structure written by MMmdl.
 36 37  0  0  0  0  0  0  0  0  1 V2000
  147.0998  139.1311  152.8047 C   0  0  0  0  0  0  0  0  0  0  0  0
  147.3076  140.4826  153.4967 C   0  0  0  0  0  0  0  0  0  0  0  0
  148.5795  140.5540  154.2755 C   0  0  0  0  0  0  0  0  0  0  0  0
  149.1070  141.6457  154.9196 C   0  0  0  0  0  0  0  0  0  0  0  0
  150.3245  141.3930  155.5553 N   0  0  0  0  0  0  0  0  0  0  0  0
  150.7200  140.1251  155.4152 C   0  0  0  0  0  0  0  0  0  0  0  0
  152.0062  139.5919  155.9600 C   0  0  0  0  0  0  0  0  0  0  0  0
  151.8578  138.9535  157.3502 C   0  0  0  0  0  0  0  0  0  0  0  0
  152.8834  139.4550  158.2555 N   0  0  0  0  0  0  0  0  0  0  0  0
  152.3933  140.5312  159.1067 C   0  0  2  0  0  0  0  0  0  0  0  0
  151.8429  141.6392  158.1878 C   0  0  0  0  0  0  0  0  0  0  0  0
  151.2425  142.8142  158.9758 C   0  0  0  0  0  0  0  0  0  0  0  0
  152.2790  143.5069  159.8709 C   0  0  0  0  0  0  0  0  0  0  0  0
  152.9357  142.3661  161.1178 S   0  0  0  0  0  0  0  0  0  0  0  0
  153.5291  141.0606  160.0076 C   0  0  0  0  0  0  0  0  0  0  0  0
  149.6093  139.1565  154.4543 S   0  0  0  0  0  0  0  0  0  0  0  0
  146.1650  139.1214  152.2440 H   0  0  0  0  0  0  0  0  0  0  0  0
  147.0613  138.3177  153.5299 H   0  0  0  0  0  0  0  0  0  0  0  0
  147.9097  138.9189  152.1061 H   0  0  0  0  0  0  0  0  0  0  0  0
  147.2935  141.2753  152.7479 H   0  0  0  0  0  0  0  0  0  0  0  0
  146.4661  140.6812  154.1612 H   0  0  0  0  0  0  0  0  0  0  0  0
  148.6870  142.6393  154.9719 H   0  0  0  0  0  0  0  0  0  0  0  0
  152.4217  138.8713  155.2540 H   0  0  0  0  0  0  0  0  0  0  0  0
  152.7197  140.4145  156.0133 H   0  0  0  0  0  0  0  0  0  0  0  0
  150.8762  139.1889  157.7626 H   0  0  0  0  0  0  0  0  0  0  0  0
  151.9169  137.8693  157.2587 H   0  0  0  0  0  0  0  0  0  0  0  0
  153.2487  138.7036  158.8239 H   0  0  0  0  0  0  0  0  0  0  0  0
  151.5744  140.1545  159.7217 H   0  0  0  0  0  0  0  0  0  0  0  0
  152.6318  142.0080  157.5303 H   0  0  0  0  0  0  0  0  0  0  0  0
  151.0727  141.2242  157.5361 H   0  0  0  0  0  0  0  0  0  0  0  0
  150.8292  143.5418  158.2766 H   0  0  0  0  0  0  0  0  0  0  0  0
  150.4062  142.4643  159.5823 H   0  0  0  0  0  0  0  0  0  0  0  0
  153.1042  143.8914  159.2707 H   0  0  0  0  0  0  0  0  0  0  0  0
  151.8288  144.3595  160.3798 H   0  0  0  0  0  0  0  0  0  0  0  0
  153.9500  140.2689  160.6266 H   0  0  0  0  0  0  0  0  0  0  0  0
  154.3455  141.4576  159.4029 H   0  0  0  0  0  0  0  0  0  0  0  0
  1  2  1  0  0  0  0
  1 17  1  0  0  0  0
  1 18  1  0  0  0  0
  1 19  1  0  0  0  0
  2  3  1  0  0  0  0
  2 20  1  0  0  0  0
  2 21  1  0  0  0  0
  3 16  1  0  0  0  0
  3  4  2  0  0  0  0
  4  5  1  0  0  0  0
  4 22  1  0  0  0  0
  5  6  2  0  0  0  0
  6  7  1  0  0  0  0
  6 16  1  0  0  0  0
  7  8  1  0  0  0  0
  7 23  1  0  0  0  0
  7 24  1  0  0  0  0
  8  9  1  0  0  0  0
  8 25  1  0  0  0  0
  8 26  1  0  0  0  0
  9 10  1  0  0  0  0
  9 27  1  0  0  0  0
 10 15  1  0  0  0  0
 10 11  1  0  0  0  0
 10 28  1  0  0  0  0
 11 12  1  0  0  0  0
 11 29  1  0  0  0  0
 11 30  1  0  0  0  0
 12 13  1  0  0  0  0
 12 31  1  0  0  0  0
 12 32  1  0  0  0  0
 13 14  1  0  0  0  0
 13 33  1  0  0  0  0
 13 34  1  0  0  0  0
 14 15  1  0  0  0  0
 15 35  1  0  0  0  0
 15 36  1  0  0  0  0
M  END
> <s_m_source_file>
AV-unprocessed.smi

> <i_m_source_file_index>
3281

> <i_lp_mmshare_version>
43012

> <i_f3d_flags>
0

> <s_epik_input>
W0NIM11bQ0gyXWMxW2NIXW5jKHMxKVtDSDJdW0NIMl1bTkhdW0NAQEhdMltDSDJdW0NIMl1bQ0gyXVNbQ0gyXTI=

> <s_epik_cmdline>
J2VwaWtfcHl0aG9uJywgJy1waCcsICc3LjAnLCAnLXRuJywgJzgnLCAnLW1hJywgJzIwMCcsICctbWV0YWxfYmluZGluZycsICctaW1hZScsICc8aW5maWxlLm1hZT4nLCAnLW9tYWUnLCAnPG91dGZpbGUubWFlPic=

> <r_epik_Ionization_Penalty>
2.53829

> <r_epik_Ionization_Penalty_Charging>
0

> <r_epik_Ionization_Penalty_Neutral>
2.53829

> <r_epik_State_Penalty>
2.70274

> <r_epik_Charging_Adjusted_Penalty>
2.70274

> <i_epik_Tot_Q>
0

> <i_epik_Tot_abs_Q>
0

> <r_epik_Metal_State_Penalty>
2.69977

> <b_epik_Metal_Only>
0

> <s_lp_Force_Field>
OPLS_2005

> <r_lp_Energy>
0.229732

> <b_lp_Chiralities_Consistent>
1

> <s_lp_Variant>
AV-unprocessed.smi:3281-3

> <Gold.Version>
5.8.1

> <Gold.Id.Protein>
6NUR|6NUR_protein|mol2

> <Gold.PLP.Fitness>
40.9176

> <Gold.PLP.PLP>
-36.9101

> <Gold.PLP.part.hbond>
-1.7377

> <Gold.PLP.part.metal>
0.0000

> <Gold.PLP.part.buried>
-0.8778

> <Gold.PLP.part.nonpolar>
-34.4336

> <Gold.PLP.part.repulsive>
0.0945

> <Gold.PLP.ligand.clash>
0.0000

> <Gold.PLP.ligand.torsion>
1.0040

> <Gold.PLP.Chemscore.Hbond>
1.0000

> <Gold.PLP.Chemscore.CHOScore>
1.0000

> <Gold.PLP.Chemscore.Metal>
0.0000

> <Gold.Chemscore.Hbonds>
donor molecule, donor type, donor heavy atom, donor atom, acceptor molecule, acceptor atom, score
      P1  H  7997  8010       L1     9  0.62
      L1  C     4    22       P1  8028  1.00

> <Gold.PLP.Chemscore.Internal.Correction>
0.0156

> <Gold.Rescore>
     Score         DG    S(hbond)    S(metal)    S(lipo)     H(rot)  DE(clash)    DE(int)     intcor
     14.88     -16.07       0.14        0.00     114.85       1.30       0.15       1.05       ----

> <Gold.Chemscore.Fitness>
14.8761

> <Gold.Chemscore.DG>
-16.0740

> <Gold.Chemscore.ZeroCoef>
-5.4800

> <Gold.Chemscore.Hbond>
0.1428

> <Gold.Chemscore.Metal>
0.0000

> <Gold.Chemscore.Lipo>
114.8535

> <Gold.Chemscore.Internal_Hbond>
0.0000

> <Gold.Chemscore.DEClash>
0.1472

> <Gold.Chemscore.DEInternal>
1.0506

> <Gold.Chemscore.Rot>
1.2972

> <Gold.Chemscore.Internal.Correction>
   9.000000E+99

> <Gold.Chemscore.Hbonds>
donor molecule, donor type, donor heavy atom, donor atom, acceptor molecule, acceptor atom, score
      P1  H  7997  8010       L1     9  0.14

> <Gold.Chemscore.Hbond.Weighted>
-0.4769

> <Gold.Chemscore.Metal.Weighted>
-0.0000

> <Gold.Chemscore.Lipo.Weighted>
-13.4379

> <Gold.Chemscore.Internal_Hbond.Weighted>
0.0000

> <Gold.Chemscore.DEClash.Weighted>
0.1472

> <Gold.Chemscore.DEInternal.Weighted>
1.0506

> <Gold.Chemscore.Rot.Weighted>
3.3208

> <Gold.Chemscore.Internal.Correction.Weighted>
   9.000000E+99

> <Gold.Protein.RotatedTorsions>
[ 6907 6896 6895 6894 ] final -160.28 input  -60.11 | X-H torsion
[ 7974 7965 7964 7962 ] final -113.58 input  175.53 | X-H torsion
[ 8008 7997 7996 7995 ] final   40.46 input   59.86 | X-H torsion
[ 10167 10162 10161 10158 ] final  155.49 input  -65.29 | X-H torsion
[ 10718 10713 10712 10709 ] final    4.37 input   66.30 | X-H torsion
[ 10763 10752 10751 10750 ] final   27.30 input  -60.55 | X-H torsion
[ 11005 11000 10999 10996 ] final  -96.55 input  -57.11 | X-H torsion

> <Gold.Protein.ActiveResidues>
 VAL166  LYS551  ARG553  GLY616  TRP617  ASP618  TYR619  PRO620  LYS621  CYS622 
 ASP623  PHE694  ASN695  SER759  ASP760  ASP761  ALA762  ILE779  LEU786  VAL792 
 PHE793  MET794  SER795  GLU796  ALA797  LYS798  CYS799  TRP800  GLU811  SER814 

> <Gold.Protein.RotatedAtoms>
  151.3466  133.3942  159.2675 H   0  0  0  0  0  0  0  0  0  0  0  0  # atno 6907 bound_to 6896
  150.9835  134.9186  159.7868 H   0  0  0  0  0  0  0  0  0  0  0  0  # atno 6908 bound_to 6896
  152.5225  134.3430  159.9276 H   0  0  0  0  0  0  0  0  0  0  0  0  # atno 6909 bound_to 6896
  145.1304  140.8721  143.3761 H   0  0  0  0  0  0  0  0  0  0  0  0  # atno 7974 bound_to 7965
  155.2534  140.3354  155.4280 H   0  0  0  0  0  0  0  0  0  0  0  0  # atno 8008 bound_to 7997
  156.2206  140.1807  156.7530 H   0  0  0  0  0  0  0  0  0  0  0  0  # atno 8009 bound_to 7997
  154.5819  140.0652  156.9101 H   0  0  0  0  0  0  0  0  0  0  0  0  # atno 8010 bound_to 7997
  139.4821  144.5094  151.8048 H   0  0  0  0  0  0  0  0  0  0  0  0  # atno 10167 bound_to 10162
  156.8916  130.5689  149.5650 H   0  0  0  0  0  0  0  0  0  0  0  0  # atno 10718 bound_to 10713
  153.0565  135.6540  154.0565 H   0  0  0  0  0  0  0  0  0  0  0  0  # atno 10763 bound_to 10752
  154.0242  135.2917  155.3378 H   0  0  0  0  0  0  0  0  0  0  0  0  # atno 10764 bound_to 10752
  154.6882  135.5293  153.8424 H   0  0  0  0  0  0  0  0  0  0  0  0  # atno 10765 bound_to 10752
  141.1408  133.8106  157.0586 H   0  0  0  0  0  0  0  0  0  0  0  0  # atno 11005 bound_to 11000
  145.0642  139.3082  143.5865 LP  0  0  0  0  0  0  0  0  0  0  0  0  # atno 17320 bound_to 7965
  146.3514  140.0094  142.8668 LP  0  0  0  0  0  0  0  0  0  0  0  0  # atno 17321 bound_to 7965
  140.4595  144.1742  150.5905 LP  0  0  0  0  0  0  0  0  0  0  0  0  # atno 17342 bound_to 10162
  140.4500  143.2491  151.9361 LP  0  0  0  0  0  0  0  0  0  0  0  0  # atno 17343 bound_to 10162
  156.0626  130.5676  150.9224 LP  0  0  0  0  0  0  0  0  0  0  0  0  # atno 17370 bound_to 10713
  157.6080  131.0938  150.8845 LP  0  0  0  0  0  0  0  0  0  0  0  0  # atno 17371 bound_to 10713
  140.0586  134.9767  157.1264 LP  0  0  0  0  0  0  0  0  0  0  0  0  # atno 17394 bound_to 11000
  140.3883  134.2213  155.7167 LP  0  0  0  0  0  0  0  0  0  0  0  0  # atno 17395 bound_to 11000

$$$$
