AV-unprocessed.smi:1622|AV-procd|sdf|6500|dock2
  -GOLD-   22720 7163D 1   1.00000     0.00000
 Structure written by MMmdl.
 40 41  0  0  0  0  0  0  0  0  3 V2000
  150.7651  144.5557  159.2909 C   0  0  0  0  0  0  0  0  0  0  0  0
  151.5735  144.2004  158.0331 C   0  0  0  0  0  0  0  0  0  0  0  0
  151.3438  142.7602  157.4986 C   0  0  1  0  0  0  0  0  0  0  0  0
  151.5495  141.6843  158.5938 C   0  0  0  0  0  0  0  0  0  0  0  0
  152.3680  140.5751  158.1190 N   0  0  0  0  0  0  0  0  0  0  0  0
  152.3196  139.3204  158.5842 C   0  0  0  0  0  0  0  0  0  0  0  0
  151.5255  139.0280  159.4812 O   0  0  0  0  0  0  0  0  0  0  0  0
  153.1960  138.4858  157.9822 N   0  5  0  0  0  0  0  0  0  0  0  0
  153.4646  137.2872  158.5261 C   0  0  0  0  0  0  0  0  0  0  0  0
  152.8025  136.8172  159.5930 N   0  0  0  0  0  0  0  0  0  0  0  0
  153.2334  135.5595  159.9898 N   0  0  0  0  0  0  0  0  0  0  0  0
  154.2110  135.0929  159.2093 C   0  0  0  0  0  0  0  0  0  0  0  0
  154.8459  133.7620  159.4239 C   0  0  0  0  0  0  0  0  0  0  0  0
  154.6840  136.1729  157.9084 S   0  0  0  0  0  0  0  0  0  0  0  0
  150.0105  142.6201  156.8408 N   0  3  0  0  0  0  0  0  0  0  0  0
  149.9228  141.5697  155.8014 C   0  0  0  0  0  0  0  0  0  0  0  0
  148.4371  141.2249  155.6506 C   0  0  0  0  0  0  0  0  0  0  0  0
  147.7451  141.8379  156.8701 C   0  0  0  0  0  0  0  0  0  0  0  0
  148.8773  142.3602  157.7541 C   0  0  0  0  0  0  0  0  0  0  0  0
  150.9500  145.5888  159.5853 H   0  0  0  0  0  0  0  0  0  0  0  0
  151.0402  143.9240  160.1356 H   0  0  0  0  0  0  0  0  0  0  0  0
  149.6935  144.4486  159.1236 H   0  0  0  0  0  0  0  0  0  0  0  0
  151.3569  144.9311  157.2541 H   0  0  0  0  0  0  0  0  0  0  0  0
  152.6319  144.3458  158.2509 H   0  0  0  0  0  0  0  0  0  0  0  0
  152.0970  142.5836  156.7287 H   0  0  0  0  0  0  0  0  0  0  0  0
  152.0028  142.1333  159.4792 H   0  0  0  0  0  0  0  0  0  0  0  0
  150.5957  141.2619  158.9096 H   0  0  0  0  0  0  0  0  0  0  0  0
  153.0294  140.7709  157.3819 H   0  0  0  0  0  0  0  0  0  0  0  0
  154.1159  132.9692  159.2603 H   0  0  0  0  0  0  0  0  0  0  0  0
  155.2250  133.6874  160.4433 H   0  0  0  0  0  0  0  0  0  0  0  0
  155.6762  133.6213  158.7318 H   0  0  0  0  0  0  0  0  0  0  0  0
  150.3574  141.9000  154.8574 H   0  0  0  0  0  0  0  0  0  0  0  0
  150.4670  140.6832  156.1310 H   0  0  0  0  0  0  0  0  0  0  0  0
  148.0302  141.6515  154.7330 H   0  0  0  0  0  0  0  0  0  0  0  0
  148.2899  140.1453  155.6030 H   0  0  0  0  0  0  0  0  0  0  0  0
  147.1095  142.6658  156.5531 H   0  0  0  0  0  0  0  0  0  0  0  0
  147.1141  141.1208  157.3964 H   0  0  0  0  0  0  0  0  0  0  0  0
  149.1608  141.5948  158.4785 H   0  0  0  0  0  0  0  0  0  0  0  0
  148.5772  143.2533  158.3031 H   0  0  0  0  0  0  0  0  0  0  0  0
  149.8089  143.4963  156.3805 H   0  0  0  0  0  0  0  0  0  0  0  0
  1  2  1  0  0  0  0
  1 20  1  0  0  0  0
  1 21  1  0  0  0  0
  1 22  1  0  0  0  0
  2  3  1  0  0  0  0
  2 23  1  0  0  0  0
  2 24  1  0  0  0  0
  3  4  1  0  0  0  0
  3 15  1  0  0  0  0
  3 25  1  0  0  0  0
  4  5  1  0  0  0  0
  4 26  1  0  0  0  0
  4 27  1  0  0  0  0
  5  6  1  0  0  0  0
  5 28  1  0  0  0  0
  6  7  2  0  0  0  0
  6  8  1  0  0  0  0
  8  9  1  0  0  0  0
  9 14  1  0  0  0  0
  9 10  2  0  0  0  0
 10 11  1  0  0  0  0
 11 12  2  0  0  0  0
 12 13  1  0  0  0  0
 12 14  1  0  0  0  0
 13 29  1  0  0  0  0
 13 30  1  0  0  0  0
 13 31  1  0  0  0  0
 15 19  1  0  0  0  0
 15 16  1  0  0  0  0
 15 40  1  0  0  0  0
 16 17  1  0  0  0  0
 16 32  1  0  0  0  0
 16 33  1  0  0  0  0
 17 18  1  0  0  0  0
 17 34  1  0  0  0  0
 17 35  1  0  0  0  0
 18 19  1  0  0  0  0
 18 36  1  0  0  0  0
 18 37  1  0  0  0  0
 19 38  1  0  0  0  0
 19 39  1  0  0  0  0
M  CHG  1   8  -1
M  CHG  1  15   1
M  END
> <s_m_source_file>
AV-unprocessed.smi

> <i_m_source_file_index>
1622

> <i_lp_mmshare_version>
43012

> <i_f3d_flags>
0

> <s_epik_input>
W0NIMl0xW0NIMl1bQ0gyXVtDSDJdTjFbQ0BIXShbQ0gyXVtDSDNdKVtDSDJdW05IXUMoPU8pW05IXWMybm5jKHMyKVtDSDNd

> <s_epik_cmdline>
J2VwaWtfcHl0aG9uJywgJy1waCcsICc3LjAnLCAnLXRuJywgJzgnLCAnLW1hJywgJzIwMCcsICctbWV0YWxfYmluZGluZycsICctaW1hZScsICc8aW5maWxlLm1hZT4nLCAnLW9tYWUnLCAnPG91dGZpbGUubWFlPic=

> <r_lp_tautomer_probability>
1

> <r_epik_Ionization_Penalty>
4.34497

> <r_epik_Ionization_Penalty_Charging>
4.23453

> <r_epik_Ionization_Penalty_Neutral>
0.110433

> <r_epik_State_Penalty>
4.23293

> <r_epik_Charging_Adjusted_Penalty>
8.46746

> <i_epik_Tot_Q>
0

> <i_epik_Tot_abs_Q>
2

> <r_epik_Metal_State_Penalty>
0.701092

> <b_epik_Metal_Only>
1

> <s_lp_Force_Field>
OPLS_2005

> <r_lp_Energy>
26.9801

> <b_lp_Chiralities_Consistent>
1

> <s_lp_Variant>
AV-unprocessed.smi:1622-4

> <Gold.Version>
5.8.1

> <Gold.Id.Protein>
6NUR|6NUR_protein|mol2

> <Gold.PLP.Fitness>
38.3865

> <Gold.PLP.PLP>
-25.9220

> <Gold.PLP.part.hbond>
-3.1244

> <Gold.PLP.part.metal>
0.0000

> <Gold.PLP.part.buried>
-3.3884

> <Gold.PLP.part.nonpolar>
-18.3759

> <Gold.PLP.part.repulsive>
0.1295

> <Gold.PLP.ligand.clash>
0.0000

> <Gold.PLP.ligand.torsion>
1.3457

> <Gold.PLP.Chemscore.Hbond>
5.0000

> <Gold.PLP.Chemscore.CHOScore>
0.0000

> <Gold.PLP.Chemscore.Metal>
0.0000

> <Gold.Chemscore.Hbonds>
donor molecule, donor type, donor heavy atom, donor atom, acceptor molecule, acceptor atom, score
      L1  H    15    40       P1  8028  2.00
      P1  H  6896  6908       L1    11  0.10
      P1  H  7997  8009       L1     8  0.46

> <Gold.PLP.Chemscore.Internal.Correction>
0.1559

> <Gold.Rescore>
     Score         DG    S(hbond)    S(metal)    S(lipo)     H(rot)  DE(clash)    DE(int)     intcor
     14.44     -17.33       2.62        0.00      64.37       1.73       0.11       2.78       ----

> <Gold.Chemscore.Fitness>
14.4400

> <Gold.Chemscore.DG>
-17.3269

> <Gold.Chemscore.ZeroCoef>
-5.4800

> <Gold.Chemscore.Hbond>
2.6216

> <Gold.Chemscore.Metal>
0.0000

> <Gold.Chemscore.Lipo>
64.3745

> <Gold.Chemscore.Internal_Hbond>
0.0000

> <Gold.Chemscore.DEClash>
0.1068

> <Gold.Chemscore.DEInternal>
2.7801

> <Gold.Chemscore.Rot>
1.7348

> <Gold.Chemscore.Internal.Correction>
   9.000000E+99

> <Gold.Chemscore.Hbonds>
donor molecule, donor type, donor heavy atom, donor atom, acceptor molecule, acceptor atom, score
      L1  H    15    40       P1  8028  0.99
      P1  H  6896  6908       L1    11  0.07
      P1  H  7997  8009       L1     8  0.06

> <Gold.Chemscore.Hbond.Weighted>
-8.7562

> <Gold.Chemscore.Metal.Weighted>
-0.0000

> <Gold.Chemscore.Lipo.Weighted>
-7.5318

> <Gold.Chemscore.Internal_Hbond.Weighted>
0.0000

> <Gold.Chemscore.DEClash.Weighted>
0.1068

> <Gold.Chemscore.DEInternal.Weighted>
2.7801

> <Gold.Chemscore.Rot.Weighted>
4.4411

> <Gold.Chemscore.Internal.Correction.Weighted>
   9.000000E+99

> <Gold.Protein.RotatedTorsions>
[ 6907 6896 6895 6894 ] final  -76.61 input  -60.11 | X-H torsion
[ 7974 7965 7964 7962 ] final -165.43 input  175.53 | X-H torsion
[ 8008 7997 7996 7995 ] final  174.15 input   59.86 | X-H torsion
[ 10167 10162 10161 10158 ] final   76.10 input  -65.29 | X-H torsion
[ 10718 10713 10712 10709 ] final  125.47 input   66.30 | X-H torsion
[ 10763 10752 10751 10750 ] final -119.23 input  -60.55 | X-H torsion
[ 11005 11000 10999 10996 ] final  149.32 input  -57.11 | X-H torsion

> <Gold.Protein.ActiveResidues>
 VAL166  LYS551  ARG553  GLY616  TRP617  ASP618  TYR619  PRO620  LYS621  CYS622 
 ASP623  PHE694  ASN695  SER759  ASP760  ASP761  ALA762  ILE779  LEU786  VAL792 
 PHE793  MET794  SER795  GLU796  ALA797  LYS798  CYS799  TRP800  GLU811  SER814 

> <Gold.Protein.RotatedAtoms>
  150.7022  134.4545  159.5351 H   0  0  0  0  0  0  0  0  0  0  0  0  # atno 6907 bound_to 6896
  152.2232  134.8390  160.0492 H   0  0  0  0  0  0  0  0  0  0  0  0  # atno 6908 bound_to 6896
  151.9233  133.3556  159.3942 H   0  0  0  0  0  0  0  0  0  0  0  0  # atno 6909 bound_to 6896
  144.7270  140.2815  143.6235 H   0  0  0  0  0  0  0  0  0  0  0  0  # atno 7974 bound_to 7965
  156.1003  140.1442  156.9476 H   0  0  0  0  0  0  0  0  0  0  0  0  # atno 8008 bound_to 7997
  154.4698  140.0914  156.7160 H   0  0  0  0  0  0  0  0  0  0  0  0  # atno 8009 bound_to 7997
  155.4771  140.3443  155.4336 H   0  0  0  0  0  0  0  0  0  0  0  0  # atno 8010 bound_to 7997
  139.9959  144.5723  150.7778 H   0  0  0  0  0  0  0  0  0  0  0  0  # atno 10167 bound_to 10162
  157.5501  131.1094  150.8717 H   0  0  0  0  0  0  0  0  0  0  0  0  # atno 10718 bound_to 10713
  154.8611  135.4246  154.2265 H   0  0  0  0  0  0  0  0  0  0  0  0  # atno 10763 bound_to 10752
  153.3259  135.6985  153.6995 H   0  0  0  0  0  0  0  0  0  0  0  0  # atno 10764 bound_to 10752
  153.6031  135.3533  155.2926 H   0  0  0  0  0  0  0  0  0  0  0  0  # atno 10765 bound_to 10752
  140.1035  134.8969  157.1830 H   0  0  0  0  0  0  0  0  0  0  0  0  # atno 11005 bound_to 11000
  145.7945  139.1940  143.2084 LP  0  0  0  0  0  0  0  0  0  0  0  0  # atno 17320 bound_to 7965
  146.0728  140.7850  142.9679 LP  0  0  0  0  0  0  0  0  0  0  0  0  # atno 17321 bound_to 7965
  140.7437  143.2850  151.3488 LP  0  0  0  0  0  0  0  0  0  0  0  0  # atno 17342 bound_to 10162
  139.6307  144.0727  152.2473 LP  0  0  0  0  0  0  0  0  0  0  0  0  # atno 17343 bound_to 10162
  156.9244  130.5327  149.5279 LP  0  0  0  0  0  0  0  0  0  0  0  0  # atno 17370 bound_to 10713
  156.0569  130.5629  150.9110 LP  0  0  0  0  0  0  0  0  0  0  0  0  # atno 17371 bound_to 10713
  140.3188  134.2940  155.7250 LP  0  0  0  0  0  0  0  0  0  0  0  0  # atno 17394 bound_to 11000
  141.2112  133.7697  156.9881 LP  0  0  0  0  0  0  0  0  0  0  0  0  # atno 17395 bound_to 11000

$$$$
