AV-unprocessed.smi:1784|AV-procd|sdf|7196|dock7
  -GOLD-   22720 8433D 1   1.00000     0.00000
 Structure written by MMmdl.
 43 45  0  0  0  0  0  0  0  0  1 V2000
  149.9000  135.8107  157.5456 O   0  0  0  0  0  0  0  0  0  0  0  0
  149.3783  136.8952  157.8049 C   0  0  0  0  0  0  0  0  0  0  0  0
  148.3561  137.0369  158.6575 N   0  0  0  0  0  0  0  0  0  0  0  0
  147.7179  135.9377  159.3673 C   0  0  0  0  0  0  0  0  0  0  0  0
  148.0472  136.0005  160.8648 C   0  0  2  0  0  0  0  0  0  0  0  0
  147.3590  134.9173  161.6922 C   0  0  0  0  0  0  0  0  0  0  0  0
  147.3560  135.5448  163.0672 C   0  0  0  0  0  0  0  0  0  0  0  0
  147.0813  137.0107  162.7428 C   0  0  0  0  0  0  0  0  0  0  0  0
  147.5967  137.2290  161.4313 O   0  0  0  0  0  0  0  0  0  0  0  0
  149.7548  138.0820  157.3003 N   0  0  0  0  0  0  0  0  0  0  0  0
  150.7925  138.3621  156.3657 C   0  0  0  0  0  0  0  0  0  0  0  0
  151.0650  137.5366  155.2474 C   0  0  0  0  0  0  0  0  0  0  0  0
  152.0956  137.9001  154.3615 C   0  0  0  0  0  0  0  0  0  0  0  0
  152.8132  139.0816  154.6193 C   0  0  0  0  0  0  0  0  0  0  0  0
  152.5561  139.8870  155.6700 N   0  0  0  0  0  0  0  0  0  0  0  0
  151.5642  139.5417  156.5268 C   0  0  0  0  0  0  0  0  0  0  0  0
  151.3088  140.4027  157.6093 N   0  0  0  0  0  0  0  0  0  0  0  0
  152.3799  140.5295  158.5835 C   0  0  0  0  0  0  0  0  0  0  0  0
  152.0233  141.7616  159.4182 C   0  0  0  0  0  0  0  0  0  0  0  0
  151.0903  142.5866  158.5232 C   0  0  0  0  0  0  0  0  0  0  0  0
  150.9329  141.7583  157.2446 C   0  0  0  0  0  0  0  0  0  0  0  0
  147.9860  137.9624  158.8176 H   0  0  0  0  0  0  0  0  0  0  0  0
  146.6381  135.9767  159.2145 H   0  0  0  0  0  0  0  0  0  0  0  0
  148.0696  134.9926  158.9504 H   0  0  0  0  0  0  0  0  0  0  0  0
  149.1255  135.9330  161.0186 H   0  0  0  0  0  0  0  0  0  0  0  0
  146.3342  134.7632  161.3509 H   0  0  0  0  0  0  0  0  0  0  0  0
  147.8801  133.9602  161.6585 H   0  0  0  0  0  0  0  0  0  0  0  0
  146.6152  135.1096  163.7385 H   0  0  0  0  0  0  0  0  0  0  0  0
  148.3397  135.4393  163.5267 H   0  0  0  0  0  0  0  0  0  0  0  0
  146.0082  137.2041  162.7283 H   0  0  0  0  0  0  0  0  0  0  0  0
  147.5369  137.6864  163.4668 H   0  0  0  0  0  0  0  0  0  0  0  0
  149.2920  138.8933  157.6834 H   0  0  0  0  0  0  0  0  0  0  0  0
  150.4957  136.6429  155.0439 H   0  0  0  0  0  0  0  0  0  0  0  0
  152.3270  137.2895  153.5015 H   0  0  0  0  0  0  0  0  0  0  0  0
  153.6109  139.3921  153.9610 H   0  0  0  0  0  0  0  0  0  0  0  0
  152.4580  139.6340  159.2008 H   0  0  0  0  0  0  0  0  0  0  0  0
  153.3388  140.6807  158.0859 H   0  0  0  0  0  0  0  0  0  0  0  0
  151.4964  141.4632  160.3253 H   0  0  0  0  0  0  0  0  0  0  0  0
  152.9127  142.3168  159.7174 H   0  0  0  0  0  0  0  0  0  0  0  0
  150.1251  142.7191  159.0136 H   0  0  0  0  0  0  0  0  0  0  0  0
  151.4928  143.5771  158.3090 H   0  0  0  0  0  0  0  0  0  0  0  0
  151.5929  142.1421  156.4652 H   0  0  0  0  0  0  0  0  0  0  0  0
  149.9105  141.7937  156.8671 H   0  0  0  0  0  0  0  0  0  0  0  0
  1  2  2  0  0  0  0
  2  3  1  0  0  0  0
  2 10  1  0  0  0  0
  3  4  1  0  0  0  0
  3 22  1  0  0  0  0
  4  5  1  0  0  0  0
  4 23  1  0  0  0  0
  4 24  1  0  0  0  0
  5  9  1  0  0  0  0
  5  6  1  0  0  0  0
  5 25  1  0  0  0  0
  6  7  1  0  0  0  0
  6 26  1  0  0  0  0
  6 27  1  0  0  0  0
  7  8  1  0  0  0  0
  7 28  1  0  0  0  0
  7 29  1  0  0  0  0
  8  9  1  0  0  0  0
  8 30  1  0  0  0  0
  8 31  1  0  0  0  0
 10 11  1  0  0  0  0
 10 32  1  0  0  0  0
 11 16  1  0  0  0  0
 11 12  2  0  0  0  0
 12 13  1  0  0  0  0
 12 33  1  0  0  0  0
 13 14  2  0  0  0  0
 13 34  1  0  0  0  0
 14 15  1  0  0  0  0
 14 35  1  0  0  0  0
 15 16  2  0  0  0  0
 16 17  1  0  0  0  0
 17 21  1  0  0  0  0
 17 18  1  0  0  0  0
 18 19  1  0  0  0  0
 18 36  1  0  0  0  0
 18 37  1  0  0  0  0
 19 20  1  0  0  0  0
 19 38  1  0  0  0  0
 19 39  1  0  0  0  0
 20 21  1  0  0  0  0
 20 40  1  0  0  0  0
 20 41  1  0  0  0  0
 21 42  1  0  0  0  0
 21 43  1  0  0  0  0
M  END
> <s_m_source_file>
AV-unprocessed.smi

> <i_m_source_file_index>
1784

> <i_lp_mmshare_version>
43012

> <i_f3d_flags>
0

> <s_epik_input>
TzFbQ0gyXVtDSDJdW0NIMl1bQ0BIXTFbQ0gyXVtOSF1DKD1PKVtOSF1jMltjSF1bY0hdW2NIXW5jMk4zW0NIMl1bQ0gyXVtDSDJdW0NIMl0z

> <s_epik_cmdline>
J2VwaWtfcHl0aG9uJywgJy1waCcsICc3LjAnLCAnLXRuJywgJzgnLCAnLW1hJywgJzIwMCcsICctbWV0YWxfYmluZGluZycsICctaW1hZScsICc8aW5maWxlLm1hZT4nLCAnLW9tYWUnLCAnPG91dGZpbGUubWFlPic=

> <r_lp_tautomer_probability>
1

> <r_epik_Ionization_Penalty>
0.0982482

> <r_epik_Ionization_Penalty_Charging>
0

> <r_epik_Ionization_Penalty_Neutral>
0.0982482

> <r_epik_State_Penalty>
0.0877864

> <r_epik_Charging_Adjusted_Penalty>
0.0877864

> <i_epik_Tot_Q>
0

> <i_epik_Tot_abs_Q>
0

> <r_epik_Metal_State_Penalty>
0.0752567

> <b_epik_Metal_Only>
0

> <s_lp_Force_Field>
OPLS_2005

> <r_lp_Energy>
47.4963

> <b_lp_Chiralities_Consistent>
1

> <s_lp_Variant>
AV-unprocessed.smi:1784-1

> <Gold.Version>
5.8.1

> <Gold.Id.Protein>
6NUR|6NUR_protein|mol2

> <Gold.PLP.Fitness>
45.0085

> <Gold.PLP.PLP>
-37.4094

> <Gold.PLP.part.hbond>
-3.0000

> <Gold.PLP.part.metal>
0.0000

> <Gold.PLP.part.buried>
-4.2932

> <Gold.PLP.part.nonpolar>
-30.0116

> <Gold.PLP.part.repulsive>
0.1713

> <Gold.PLP.ligand.clash>
0.0000

> <Gold.PLP.ligand.torsion>
0.3648

> <Gold.PLP.Chemscore.Hbond>
2.7613

> <Gold.PLP.Chemscore.CHOScore>
0.0000

> <Gold.PLP.Chemscore.Metal>
0.0000

> <Gold.Chemscore.Hbonds>
donor molecule, donor type, donor heavy atom, donor atom, acceptor molecule, acceptor atom, score
      P1  H  6931  6943       L1     9  0.80
      P1  H  6934  6947       L1     9  0.83
      P1  H  7997  8010       L1    15  0.95

> <Gold.PLP.Chemscore.Internal.Correction>
0.0448

> <Gold.Rescore>
     Score         DG    S(hbond)    S(metal)    S(lipo)     H(rot)  DE(clash)    DE(int)     intcor
     20.00     -20.44       2.16        0.00      96.33       1.38       0.06       0.38       ----

> <Gold.Chemscore.Fitness>
20.0002

> <Gold.Chemscore.DG>
-20.4371

> <Gold.Chemscore.ZeroCoef>
-5.4800

> <Gold.Chemscore.Hbond>
2.1610

> <Gold.Chemscore.Metal>
0.0000

> <Gold.Chemscore.Lipo>
96.3346

> <Gold.Chemscore.Internal_Hbond>
0.0000

> <Gold.Chemscore.DEClash>
0.0575

> <Gold.Chemscore.DEInternal>
0.3794

> <Gold.Chemscore.Rot>
1.3796

> <Gold.Chemscore.Internal.Correction>
   9.000000E+99

> <Gold.Chemscore.Hbonds>
donor molecule, donor type, donor heavy atom, donor atom, acceptor molecule, acceptor atom, score
      P1  H  6931  6943       L1     9  0.10
      P1  H  6934  6947       L1     9  0.53
      P1  H  7997  8010       L1    15  0.21

> <Gold.Chemscore.Hbond.Weighted>
-7.2176

> <Gold.Chemscore.Metal.Weighted>
-0.0000

> <Gold.Chemscore.Lipo.Weighted>
-11.2711

> <Gold.Chemscore.Internal_Hbond.Weighted>
0.0000

> <Gold.Chemscore.DEClash.Weighted>
0.0575

> <Gold.Chemscore.DEInternal.Weighted>
0.3794

> <Gold.Chemscore.Rot.Weighted>
3.5317

> <Gold.Chemscore.Internal.Correction.Weighted>
   9.000000E+99

> <Gold.Protein.RotatedTorsions>
[ 6907 6896 6895 6894 ] final   -2.69 input  -60.11 | X-H torsion
[ 7974 7965 7964 7962 ] final -161.05 input  175.53 | X-H torsion
[ 8008 7997 7996 7995 ] final   78.20 input   59.86 | X-H torsion
[ 10167 10162 10161 10158 ] final -178.84 input  -65.29 | X-H torsion
[ 10718 10713 10712 10709 ] final  157.52 input   66.30 | X-H torsion
[ 10763 10752 10751 10750 ] final  149.60 input  -60.55 | X-H torsion
[ 11005 11000 10999 10996 ] final -104.83 input  -57.11 | X-H torsion

> <Gold.Protein.ActiveResidues>
 VAL166  LYS551  ARG553  GLY616  TRP617  ASP618  TYR619  PRO620  LYS621  CYS622 
 ASP623  PHE694  ASN695  SER759  ASP760  ASP761  ALA762  ILE779  LEU786  VAL792 
 PHE793  MET794  SER795  GLU796  ALA797  LYS798  CYS799  TRP800  GLU811  SER814 

> <Gold.Protein.RotatedAtoms>
  151.5258  135.1068  159.9889 H   0  0  0  0  0  0  0  0  0  0  0  0  # atno 6907 bound_to 6896
  152.4600  133.7799  159.6855 H   0  0  0  0  0  0  0  0  0  0  0  0  # atno 6908 bound_to 6896
  150.8559  133.7652  159.3034 H   0  0  0  0  0  0  0  0  0  0  0  0  # atno 6909 bound_to 6896
  144.7405  140.3454  143.6126 H   0  0  0  0  0  0  0  0  0  0  0  0  # atno 7974 bound_to 7965
  155.8524  140.3457  155.5702 H   0  0  0  0  0  0  0  0  0  0  0  0  # atno 8008 bound_to 7997
  155.8023  140.0887  157.1970 H   0  0  0  0  0  0  0  0  0  0  0  0  # atno 8009 bound_to 7997
  154.4008  140.1463  156.3276 H   0  0  0  0  0  0  0  0  0  0  0  0  # atno 8010 bound_to 7997
  139.5414  144.2353  152.0902 H   0  0  0  0  0  0  0  0  0  0  0  0  # atno 10167 bound_to 10162
  157.1904  131.0653  151.2082 H   0  0  0  0  0  0  0  0  0  0  0  0  # atno 10718 bound_to 10713
  154.0738  135.2864  155.3303 H   0  0  0  0  0  0  0  0  0  0  0  0  # atno 10763 bound_to 10752
  154.6729  135.5292  153.8165 H   0  0  0  0  0  0  0  0  0  0  0  0  # atno 10764 bound_to 10752
  153.0475  135.6562  154.0918 H   0  0  0  0  0  0  0  0  0  0  0  0  # atno 10765 bound_to 10752
  141.1082  133.8756  157.1659 H   0  0  0  0  0  0  0  0  0  0  0  0  # atno 11005 bound_to 11000
  145.7331  139.1742  143.2419 LP  0  0  0  0  0  0  0  0  0  0  0  0  # atno 17320 bound_to 7965
  146.1191  140.7332  142.9466 LP  0  0  0  0  0  0  0  0  0  0  0  0  # atno 17321 bound_to 7965
  140.1833  144.4824  150.6517 LP  0  0  0  0  0  0  0  0  0  0  0  0  # atno 17342 bound_to 10162
  140.6645  143.2263  151.5776 LP  0  0  0  0  0  0  0  0  0  0  0  0  # atno 17343 bound_to 10162
  157.3866  130.7259  149.6667 LP  0  0  0  0  0  0  0  0  0  0  0  0  # atno 17370 bound_to 10713
  155.9712  130.4158  150.4198 LP  0  0  0  0  0  0  0  0  0  0  0  0  # atno 17371 bound_to 10713
  139.9962  135.0045  157.0088 LP  0  0  0  0  0  0  0  0  0  0  0  0  # atno 17394 bound_to 11000
  140.4846  134.1255  155.7222 LP  0  0  0  0  0  0  0  0  0  0  0  0  # atno 17395 bound_to 11000

$$$$
