AV-unprocessed.smi:532|AV-procd|sdf|2848|dock10
  -GOLD-   2262023343D 1   1.00000     0.00000
 Structure written by MMmdl.
 49 51  0  0  0  0  0  0  0  0  1 V2000
  151.8761  138.3823  159.1250 C   0  0  0  0  0  0  0  0  0  0  0  0
  151.0367  138.0832  158.0236 O   0  0  0  0  0  0  0  0  0  0  0  0
  151.7671  137.8547  156.8308 C   0  0  0  0  0  0  0  0  0  0  0  0
  152.2767  139.2046  156.3004 C   0  0  0  0  0  0  0  0  0  0  0  0
  151.1885  140.1138  155.9529 N   0  0  0  0  0  0  0  0  0  0  0  0
  150.8696  141.3347  156.4770 C   0  0  0  0  0  0  0  0  0  0  0  0
  151.6066  141.9681  157.4888 N   0  0  0  0  0  0  0  0  0  0  0  0
  151.6137  143.4206  157.6800 C   0  0  0  0  0  0  0  0  0  0  0  0
  151.2838  143.8126  159.1338 C   0  0  2  0  0  0  0  0  0  0  0  0
  151.2405  145.3369  159.3073 C   0  0  0  0  0  0  0  0  0  0  0  0
  152.2942  143.1646  160.0947 C   0  0  0  0  0  0  0  0  0  0  0  0
  152.3765  141.6508  159.8420 C   0  0  2  0  0  0  0  0  0  0  0  0
  153.4408  140.9857  160.7248 C   0  0  0  0  0  0  0  0  0  0  0  0
  152.6438  141.3888  158.3460 C   0  0  0  0  0  0  0  0  0  0  0  0
  149.7598  141.8740  155.9608 N   0  0  0  0  0  0  0  0  0  0  0  0
  149.3452  140.9394  155.0276 C   0  0  0  0  0  0  0  0  0  0  0  0
  150.1830  139.8735  155.0125 C   0  0  0  0  0  0  0  0  0  0  0  0
  149.9625  138.7151  154.1343 C   0  0  0  0  0  0  0  0  0  0  0  0
  150.6932  137.7271  154.1158 O   0  0  0  0  0  0  0  0  0  0  0  0
  148.8676  138.8445  153.3465 N   0  0  0  0  0  0  0  0  0  0  0  0
  147.9910  139.8937  153.3068 C   0  0  0  0  0  0  0  0  0  0  0  0
  147.0381  139.8702  152.5281 O   0  0  0  0  0  0  0  0  0  0  0  0
  148.2196  140.9465  154.1552 N   0  0  0  0  0  0  0  0  0  0  0  0
  147.3114  142.0951  154.1590 C   0  0  0  0  0  0  0  0  0  0  0  0
  148.6749  138.0778  152.7186 H   0  0  0  0  0  0  0  0  0  0  0  0
  151.2684  138.5489  160.0145 H   0  0  0  0  0  0  0  0  0  0  0  0
  152.4593  139.2858  158.9422 H   0  0  0  0  0  0  0  0  0  0  0  0
  152.5612  137.5597  159.3341 H   0  0  0  0  0  0  0  0  0  0  0  0
  152.5953  137.1738  157.0272 H   0  0  0  0  0  0  0  0  0  0  0  0
  151.1286  137.3687  156.0929 H   0  0  0  0  0  0  0  0  0  0  0  0
  152.9077  139.6854  157.0477 H   0  0  0  0  0  0  0  0  0  0  0  0
  152.9258  139.0636  155.4405 H   0  0  0  0  0  0  0  0  0  0  0  0
  152.5877  143.8174  157.3896 H   0  0  0  0  0  0  0  0  0  0  0  0
  150.8848  143.8842  157.0145 H   0  0  0  0  0  0  0  0  0  0  0  0
  150.2913  143.4254  159.3703 H   0  0  0  0  0  0  0  0  0  0  0  0
  152.2068  145.7887  159.0811 H   0  0  0  0  0  0  0  0  0  0  0  0
  150.9770  145.6079  160.3299 H   0  0  0  0  0  0  0  0  0  0  0  0
  150.4998  145.7860  158.6453 H   0  0  0  0  0  0  0  0  0  0  0  0
  153.2778  143.6145  159.9516 H   0  0  0  0  0  0  0  0  0  0  0  0
  152.0090  143.3591  161.1292 H   0  0  0  0  0  0  0  0  0  0  0  0
  151.4126  141.2142  160.1054 H   0  0  0  0  0  0  0  0  0  0  0  0
  154.4357  141.3764  160.5089 H   0  0  0  0  0  0  0  0  0  0  0  0
  153.4637  139.9074  160.5638 H   0  0  0  0  0  0  0  0  0  0  0  0
  153.2372  141.1568  161.7821 H   0  0  0  0  0  0  0  0  0  0  0  0
  152.7456  140.3240  158.1628 H   0  0  0  0  0  0  0  0  0  0  0  0
  153.6061  141.8192  158.0645 H   0  0  0  0  0  0  0  0  0  0  0  0
  146.2797  141.7734  154.3078 H   0  0  0  0  0  0  0  0  0  0  0  0
  147.3688  142.6263  153.2082 H   0  0  0  0  0  0  0  0  0  0  0  0
  147.5428  142.8092  154.9490 H   0  0  0  0  0  0  0  0  0  0  0  0
  1  2  1  0  0  0  0
  1 26  1  0  0  0  0
  1 27  1  0  0  0  0
  1 28  1  0  0  0  0
  2  3  1  0  0  0  0
  3  4  1  0  0  0  0
  3 29  1  0  0  0  0
  3 30  1  0  0  0  0
  4  5  1  0  0  0  0
  4 31  1  0  0  0  0
  4 32  1  0  0  0  0
  5 17  1  0  0  0  0
  5  6  1  0  0  0  0
  6  7  1  0  0  0  0
  6 15  2  0  0  0  0
  7 14  1  0  0  0  0
  7  8  1  0  0  0  0
  8  9  1  0  0  0  0
  8 33  1  0  0  0  0
  8 34  1  0  0  0  0
  9 10  1  0  0  0  0
  9 11  1  0  0  0  0
  9 35  1  0  0  0  0
 10 36  1  0  0  0  0
 10 37  1  0  0  0  0
 10 38  1  0  0  0  0
 11 12  1  0  0  0  0
 11 39  1  0  0  0  0
 11 40  1  0  0  0  0
 12 13  1  0  0  0  0
 12 14  1  0  0  0  0
 12 41  1  0  0  0  0
 13 42  1  0  0  0  0
 13 43  1  0  0  0  0
 13 44  1  0  0  0  0
 14 45  1  0  0  0  0
 14 46  1  0  0  0  0
 15 16  1  0  0  0  0
 16 23  1  0  0  0  0
 16 17  2  0  0  0  0
 17 18  1  0  0  0  0
 18 19  2  0  0  0  0
 18 20  1  0  0  0  0
 20 25  1  0  0  0  0
 20 21  1  0  0  0  0
 21 22  2  0  0  0  0
 21 23  1  0  0  0  0
 23 24  1  0  0  0  0
 24 47  1  0  0  0  0
 24 48  1  0  0  0  0
 24 49  1  0  0  0  0
M  END
> <s_m_source_file>
AV-unprocessed.smi

> <i_m_source_file_index>
532

> <i_lp_mmshare_version>
43012

> <i_f3d_flags>
0

> <s_epik_input>
W0NIM11uMWMoPU8pW25IXWMoPU8pYyhjMTIpbihbQ0gyXVtDSDJdT1tDSDNdKWMobjIpTjNbQ0gyXVtDQEBIXShbQ0gzXSlbQ0gyXVtDQEBIXShbQ0gzXSlbQ0gyXTM=

> <s_epik_cmdline>
J2VwaWtfcHl0aG9uJywgJy1waCcsICc3LjAnLCAnLXRuJywgJzgnLCAnLW1hJywgJzIwMCcsICctbWV0YWxfYmluZGluZycsICctaW1hZScsICc8aW5maWxlLm1hZT4nLCAnLW9tYWUnLCAnPG91dGZpbGUubWFlPic=

> <r_lp_tautomer_probability>
1

> <r_epik_Ionization_Penalty>
0.000642525

> <r_epik_Ionization_Penalty_Charging>
0.000121571

> <r_epik_Ionization_Penalty_Neutral>
0.000520954

> <r_epik_State_Penalty>
-0

> <r_epik_Charging_Adjusted_Penalty>
0.000121571

> <i_epik_Tot_Q>
0

> <i_epik_Tot_abs_Q>
0

> <r_epik_Metal_State_Penalty>
0.0931709

> <b_epik_Metal_Only>
0

> <s_lp_Force_Field>
OPLS_2005

> <r_lp_Energy>
38.055

> <b_lp_Chiralities_Consistent>
1

> <s_lp_Variant>
AV-unprocessed.smi:532-1

> <Gold.Version>
5.8.1

> <Gold.Id.Protein>
6NUR|6NUR_protein|mol2

> <Gold.PLP.Fitness>
48.7303

> <Gold.PLP.PLP>
-46.1701

> <Gold.PLP.part.hbond>
-2.0000

> <Gold.PLP.part.metal>
0.0000

> <Gold.PLP.part.buried>
-5.5486

> <Gold.PLP.part.nonpolar>
-41.2549

> <Gold.PLP.part.repulsive>
2.4872

> <Gold.PLP.ligand.clash>
0.0000

> <Gold.PLP.ligand.torsion>
0.2412

> <Gold.PLP.Chemscore.Hbond>
1.0000

> <Gold.PLP.Chemscore.CHOScore>
0.0000

> <Gold.PLP.Chemscore.Metal>
0.0000

> <Gold.Chemscore.Hbonds>
donor molecule, donor type, donor heavy atom, donor atom, acceptor molecule, acceptor atom, score
      L1  H    20    25       P1  7948  1.00

> <Gold.PLP.Chemscore.Internal.Correction>
0.0425

> <Gold.Rescore>
     Score         DG    S(hbond)    S(metal)    S(lipo)     H(rot)  DE(clash)    DE(int)     intcor
     14.34     -16.80       0.98        0.00     100.13       1.43       0.03       2.42       ----

> <Gold.Chemscore.Fitness>
14.3391

> <Gold.Chemscore.DG>
-16.7962

> <Gold.Chemscore.ZeroCoef>
-5.4800

> <Gold.Chemscore.Hbond>
0.9783

> <Gold.Chemscore.Metal>
0.0000

> <Gold.Chemscore.Lipo>
100.1339

> <Gold.Chemscore.Internal_Hbond>
0.0000

> <Gold.Chemscore.DEClash>
0.0324

> <Gold.Chemscore.DEInternal>
2.4246

> <Gold.Chemscore.Rot>
1.4324

> <Gold.Chemscore.Internal.Correction>
   9.000000E+99

> <Gold.Chemscore.Hbonds>
donor molecule, donor type, donor heavy atom, donor atom, acceptor molecule, acceptor atom, score
      L1  H    20    25       P1  7948  0.92

> <Gold.Chemscore.Hbond.Weighted>
-3.2674

> <Gold.Chemscore.Metal.Weighted>
-0.0000

> <Gold.Chemscore.Lipo.Weighted>
-11.7157

> <Gold.Chemscore.Internal_Hbond.Weighted>
0.0000

> <Gold.Chemscore.DEClash.Weighted>
0.0324

> <Gold.Chemscore.DEInternal.Weighted>
2.4246

> <Gold.Chemscore.Rot.Weighted>
3.6669

> <Gold.Chemscore.Internal.Correction.Weighted>
   9.000000E+99

> <Gold.Protein.RotatedTorsions>
[ 6907 6896 6895 6894 ] final  -69.32 input  -60.11 | X-H torsion
[ 7974 7965 7964 7962 ] final   83.37 input  175.53 | X-H torsion
[ 8008 7997 7996 7995 ] final  176.77 input   59.86 | X-H torsion
[ 10167 10162 10161 10158 ] final  170.29 input  -65.29 | X-H torsion
[ 10718 10713 10712 10709 ] final   85.71 input   66.30 | X-H torsion
[ 10763 10752 10751 10750 ] final  107.52 input  -60.55 | X-H torsion
[ 11005 11000 10999 10996 ] final -136.16 input  -57.11 | X-H torsion

> <Gold.Protein.ActiveResidues>
 VAL166  LYS551  ARG553  GLY616  TRP617  ASP618  TYR619  PRO620  LYS621  CYS622 
 ASP623  PHE694  ASN695  SER759  ASP760  ASP761  ALA762  ILE779  LEU786  VAL792 
 PHE793  MET794  SER795  GLU796  ALA797  LYS798  CYS799  TRP800  GLU811  SER814 

> <Gold.Protein.RotatedAtoms>
  150.7312  134.5614  159.5843 H   0  0  0  0  0  0  0  0  0  0  0  0  # atno 6907 bound_to 6896
  152.3076  134.7533  160.0353 H   0  0  0  0  0  0  0  0  0  0  0  0  # atno 6908 bound_to 6896
  151.8092  133.3344  159.3587 H   0  0  0  0  0  0  0  0  0  0  0  0  # atno 6909 bound_to 6896
  145.6129  139.2371  143.2182 H   0  0  0  0  0  0  0  0  0  0  0  0  # atno 7974 bound_to 7965
  156.0729  140.1375  156.9807 H   0  0  0  0  0  0  0  0  0  0  0  0  # atno 8008 bound_to 7997
  154.4541  140.0968  156.6758 H   0  0  0  0  0  0  0  0  0  0  0  0  # atno 8009 bound_to 7997
  155.5200  140.3456  155.4407 H   0  0  0  0  0  0  0  0  0  0  0  0  # atno 8010 bound_to 7997
  139.5014  144.3613  151.9822 H   0  0  0  0  0  0  0  0  0  0  0  0  # atno 10167 bound_to 10162
  157.6918  131.0186  150.2863 H   0  0  0  0  0  0  0  0  0  0  0  0  # atno 10718 bound_to 10713
  153.4079  135.3841  155.2031 H   0  0  0  0  0  0  0  0  0  0  0  0  # atno 10763 bound_to 10752
  154.8735  135.3787  154.4537 H   0  0  0  0  0  0  0  0  0  0  0  0  # atno 10764 bound_to 10752
  153.5042  135.7088  153.5877 H   0  0  0  0  0  0  0  0  0  0  0  0  # atno 10765 bound_to 10752
  140.8831  134.1907  157.4578 H   0  0  0  0  0  0  0  0  0  0  0  0  # atno 11005 bound_to 11000
  146.1491  140.6951  142.9331 LP  0  0  0  0  0  0  0  0  0  0  0  0  # atno 17320 bound_to 7965
  144.7262  140.4533  143.6971 LP  0  0  0  0  0  0  0  0  0  0  0  0  # atno 17321 bound_to 7965
  140.3049  144.3604  150.6050 LP  0  0  0  0  0  0  0  0  0  0  0  0  # atno 17342 bound_to 10162
  140.5844  143.2171  151.7369 LP  0  0  0  0  0  0  0  0  0  0  0  0  # atno 17343 bound_to 10162
  156.3402  130.3814  149.7416 LP  0  0  0  0  0  0  0  0  0  0  0  0  # atno 17370 bound_to 10713
  156.4927  130.8092  151.3101 LP  0  0  0  0  0  0  0  0  0  0  0  0  # atno 17371 bound_to 10713
  139.8721  134.9826  156.5163 LP  0  0  0  0  0  0  0  0  0  0  0  0  # atno 17394 bound_to 11000
  140.8437  133.8185  155.9100 LP  0  0  0  0  0  0  0  0  0  0  0  0  # atno 17395 bound_to 11000

$$$$
