AV-unprocessed.smi:2010|AV-procd|sdf|8152|dock9
  -GOLD-   2272010393D 1   1.00000     0.00000
 Structure written by MMmdl.
 40 41  0  0  0  0  0  0  0  0  2 V2000
  147.9172  140.3956  153.9832 C   0  0  0  0  0  0  0  0  0  0  0  0
  149.3769  140.5665  154.4265 C   0  0  0  0  0  0  0  0  0  0  0  0
  150.0778  139.2098  154.5978 C   0  0  0  0  0  0  0  0  0  0  0  0
  151.5343  139.3799  155.0673 C   0  0  0  0  0  0  0  0  0  0  0  0
  151.6232  140.1967  156.2963 N   0  0  0  0  0  0  0  0  0  0  0  0
  151.7382  139.4013  157.8435 S   0  0  0  0  0  0  0  0  0  0  0  0
  150.4957  139.7271  158.5627 O   0  0  0  0  0  0  0  0  0  0  0  0
  152.0135  137.9825  157.5646 O   0  0  0  0  0  0  0  0  0  0  0  0
  153.0364  140.2005  158.3931 N   0  5  0  0  0  0  0  0  0  0  0  0
  153.0309  140.7942  159.7211 C   0  0  1  0  0  0  0  0  0  0  0  0
  153.8565  139.9000  160.6592 C   0  0  0  0  0  0  0  0  0  0  0  0
  153.5423  142.2612  159.6675 C   0  0  0  0  0  0  0  0  0  0  0  0
  152.5116  143.2794  159.4725 N   0  0  0  0  0  0  0  0  0  0  0  0
  152.0796  144.2533  160.3527 C   0  0  0  0  0  0  0  0  0  0  0  0
  151.0880  144.9582  159.7331 C   0  0  0  0  0  0  0  0  0  0  0  0
  150.9659  144.3248  158.4654 C   0  0  0  0  0  0  0  0  0  0  0  0
  151.8051  143.3138  158.3178 N   0  0  0  0  0  0  0  0  0  0  0  0
  150.9447  141.5059  156.1983 C   0  0  0  0  0  0  0  0  0  0  0  0
  149.4819  141.3591  155.7393 C   0  0  0  0  0  0  0  0  0  0  0  0
  147.3422  139.8389  154.7239 H   0  0  0  0  0  0  0  0  0  0  0  0
  147.8546  139.8556  153.0382 H   0  0  0  0  0  0  0  0  0  0  0  0
  147.4338  141.3628  153.8438 H   0  0  0  0  0  0  0  0  0  0  0  0
  149.9001  141.1244  153.6489 H   0  0  0  0  0  0  0  0  0  0  0  0
  149.5261  138.5957  155.3094 H   0  0  0  0  0  0  0  0  0  0  0  0
  150.0643  138.6628  153.6547 H   0  0  0  0  0  0  0  0  0  0  0  0
  151.9943  138.4051  155.2264 H   0  0  0  0  0  0  0  0  0  0  0  0
  152.1146  139.8705  154.2854 H   0  0  0  0  0  0  0  0  0  0  0  0
  152.0185  140.8211  160.1258 H   0  0  0  0  0  0  0  0  0  0  0  0
  153.9058  140.3264  161.6611 H   0  0  0  0  0  0  0  0  0  0  0  0
  154.8780  139.7682  160.3011 H   0  0  0  0  0  0  0  0  0  0  0  0
  153.4101  138.9089  160.7470 H   0  0  0  0  0  0  0  0  0  0  0  0
  154.1036  142.5019  160.5709 H   0  0  0  0  0  0  0  0  0  0  0  0
  154.2562  142.3587  158.8491 H   0  0  0  0  0  0  0  0  0  0  0  0
  152.5174  144.3661  161.3335 H   0  0  0  0  0  0  0  0  0  0  0  0
  150.5338  145.7970  160.1263 H   0  0  0  0  0  0  0  0  0  0  0  0
  150.2935  144.5645  157.6551 H   0  0  0  0  0  0  0  0  0  0  0  0
  150.9911  142.0275  157.1538 H   0  0  0  0  0  0  0  0  0  0  0  0
  151.4902  142.1228  155.4841 H   0  0  0  0  0  0  0  0  0  0  0  0
  149.0435  142.3488  155.6102 H   0  0  0  0  0  0  0  0  0  0  0  0
  148.8957  140.8695  156.5173 H   0  0  0  0  0  0  0  0  0  0  0  0
  1  2  1  0  0  0  0
  1 20  1  0  0  0  0
  1 21  1  0  0  0  0
  1 22  1  0  0  0  0
  2 19  1  0  0  0  0
  2  3  1  0  0  0  0
  2 23  1  0  0  0  0
  3  4  1  0  0  0  0
  3 24  1  0  0  0  0
  3 25  1  0  0  0  0
  4  5  1  0  0  0  0
  4 26  1  0  0  0  0
  4 27  1  0  0  0  0
  5  6  1  0  0  0  0
  5 18  1  0  0  0  0
  6  7  2  0  0  0  0
  6  8  2  0  0  0  0
  6  9  1  0  0  0  0
  9 10  1  0  0  0  0
 10 11  1  0  0  0  0
 10 12  1  0  0  0  0
 10 28  1  0  0  0  0
 11 29  1  0  0  0  0
 11 30  1  0  0  0  0
 11 31  1  0  0  0  0
 12 13  1  0  0  0  0
 12 32  1  0  0  0  0
 12 33  1  0  0  0  0
 13 17  1  0  0  0  0
 13 14  1  0  0  0  0
 14 15  2  0  0  0  0
 14 34  1  0  0  0  0
 15 16  1  0  0  0  0
 15 35  1  0  0  0  0
 16 17  2  0  0  0  0
 16 36  1  0  0  0  0
 18 19  1  0  0  0  0
 18 37  1  0  0  0  0
 18 38  1  0  0  0  0
 19 39  1  0  0  0  0
 19 40  1  0  0  0  0
M  CHG  1   9  -1
M  END
> <s_m_source_file>
AV-unprocessed.smi

> <i_m_source_file_index>
2010

> <i_lp_mmshare_version>
43012

> <i_f3d_flags>
0

> <s_epik_input>
W0NIM11bQ0hdMVtDSDJdW0NIMl1OKFtDSDJdW0NIMl0xKVMoPU8pKD1PKVtOSF1bQ0BIXShbQ0gzXSlbQ0gyXW4yW2NIXVtjSF1bY0hdbjI=

> <s_epik_cmdline>
J2VwaWtfcHl0aG9uJywgJy1waCcsICc3LjAnLCAnLXRuJywgJzgnLCAnLW1hJywgJzIwMCcsICctbWV0YWxfYmluZGluZycsICctaW1hZScsICc8aW5maWxlLm1hZT4nLCAnLW9tYWUnLCAnPG91dGZpbGUubWFlPic=

> <r_lp_tautomer_probability>
1

> <r_epik_Ionization_Penalty>
1.75622

> <r_epik_Ionization_Penalty_Charging>
1.7562

> <r_epik_Ionization_Penalty_Neutral>
2.39925e-05

> <r_epik_State_Penalty>
1.86645

> <r_epik_Charging_Adjusted_Penalty>
3.62264

> <i_epik_Tot_Q>
-1

> <i_epik_Tot_abs_Q>
1

> <r_epik_Metal_State_Penalty>
0.460135

> <b_epik_Metal_Only>
0

> <s_lp_Force_Field>
OPLS_2005

> <r_lp_Energy>
3.33366

> <b_lp_Chiralities_Consistent>
1

> <s_lp_Variant>
AV-unprocessed.smi:2010-4

> <Gold.Version>
5.8.1

> <Gold.Id.Protein>
6NUR|6NUR_protein|mol2

> <Gold.PLP.Fitness>
51.4576

> <Gold.PLP.PLP>
-44.0876

> <Gold.PLP.part.hbond>
-1.0000

> <Gold.PLP.part.metal>
0.0000

> <Gold.PLP.part.buried>
-3.6394

> <Gold.PLP.part.nonpolar>
-39.0984

> <Gold.PLP.part.repulsive>
0.0479

> <Gold.PLP.ligand.clash>
0.0000

> <Gold.PLP.ligand.torsion>
2.2639

> <Gold.PLP.Chemscore.Hbond>
1.9200

> <Gold.PLP.Chemscore.CHOScore>
1.0065

> <Gold.PLP.Chemscore.Metal>
0.0000

> <Gold.Chemscore.Hbonds>
donor molecule, donor type, donor heavy atom, donor atom, acceptor molecule, acceptor atom, score
      P1  H  7997  8010       L1     9  1.72
      L1  C    16    36       P1  8028  1.00
      L1  C    16    36       P1  8029  0.07

> <Gold.PLP.Chemscore.Internal.Correction>
3.1181

> <Gold.Rescore>
     Score         DG    S(hbond)    S(metal)    S(lipo)     H(rot)  DE(clash)    DE(int)     intcor
     15.12     -17.46       0.93        0.00     105.77       1.37       0.02       2.33       ----

> <Gold.Chemscore.Fitness>
15.1177

> <Gold.Chemscore.DG>
-17.4622

> <Gold.Chemscore.ZeroCoef>
-5.4800

> <Gold.Chemscore.Hbond>
0.9287

> <Gold.Chemscore.Metal>
0.0000

> <Gold.Chemscore.Lipo>
105.7694

> <Gold.Chemscore.Internal_Hbond>
0.0000

> <Gold.Chemscore.DEClash>
0.0157

> <Gold.Chemscore.DEInternal>
2.3288

> <Gold.Chemscore.Rot>
1.3652

> <Gold.Chemscore.Internal.Correction>
   9.000000E+99

> <Gold.Chemscore.Hbonds>
donor molecule, donor type, donor heavy atom, donor atom, acceptor molecule, acceptor atom, score
      P1  H  7997  8010       L1     9  0.56

> <Gold.Chemscore.Hbond.Weighted>
-3.1020

> <Gold.Chemscore.Metal.Weighted>
-0.0000

> <Gold.Chemscore.Lipo.Weighted>
-12.3750

> <Gold.Chemscore.Internal_Hbond.Weighted>
0.0000

> <Gold.Chemscore.DEClash.Weighted>
0.0157

> <Gold.Chemscore.DEInternal.Weighted>
2.3288

> <Gold.Chemscore.Rot.Weighted>
3.4948

> <Gold.Chemscore.Internal.Correction.Weighted>
   9.000000E+99

> <Gold.Protein.RotatedTorsions>
[ 6907 6896 6895 6894 ] final -142.39 input  -60.11 | X-H torsion
[ 7974 7965 7964 7962 ] final -117.45 input  175.53 | X-H torsion
[ 8008 7997 7996 7995 ] final   37.20 input   59.86 | X-H torsion
[ 10167 10162 10161 10158 ] final  163.57 input  -65.29 | X-H torsion
[ 10718 10713 10712 10709 ] final  108.83 input   66.30 | X-H torsion
[ 10763 10752 10751 10750 ] final -109.92 input  -60.55 | X-H torsion
[ 11005 11000 10999 10996 ] final  177.62 input  -57.11 | X-H torsion

> <Gold.Protein.ActiveResidues>
 VAL166  LYS551  ARG553  GLY616  TRP617  ASP618  TYR619  PRO620  LYS621  CYS622 
 ASP623  PHE694  ASN695  SER759  ASP760  ASP761  ALA762  ILE779  LEU786  VAL792 
 PHE793  MET794  SER795  GLU796  ALA797  LYS798  CYS799  TRP800  GLU811  SER814 

> <Gold.Protein.RotatedAtoms>
  151.0864  133.5350  159.2617 H   0  0  0  0  0  0  0  0  0  0  0  0  # atno 6907 bound_to 6896
  151.2234  135.0526  159.8968 H   0  0  0  0  0  0  0  0  0  0  0  0  # atno 6908 bound_to 6896
  152.5429  134.0663  159.8228 H   0  0  0  0  0  0  0  0  0  0  0  0  # atno 6909 bound_to 6896
  145.0851  140.8452  143.4016 H   0  0  0  0  0  0  0  0  0  0  0  0  # atno 7974 bound_to 7965
  155.1998  140.3315  155.4345 H   0  0  0  0  0  0  0  0  0  0  0  0  # atno 8008 bound_to 7997
  156.2411  140.1895  156.7035 H   0  0  0  0  0  0  0  0  0  0  0  0  # atno 8009 bound_to 7997
  154.6149  140.0603  156.9527 H   0  0  0  0  0  0  0  0  0  0  0  0  # atno 8010 bound_to 7997
  139.4876  144.4323  151.9055 H   0  0  0  0  0  0  0  0  0  0  0  0  # atno 10167 bound_to 10162
  157.6569  131.0901  150.6364 H   0  0  0  0  0  0  0  0  0  0  0  0  # atno 10718 bound_to 10713
  154.8220  135.4583  154.0806 H   0  0  0  0  0  0  0  0  0  0  0  0  # atno 10763 bound_to 10752
  153.2152  135.6887  153.8072 H   0  0  0  0  0  0  0  0  0  0  0  0  # atno 10764 bound_to 10752
  153.7509  135.3298  155.3298 H   0  0  0  0  0  0  0  0  0  0  0  0  # atno 10765 bound_to 10752
  140.3861  134.6903  157.4480 H   0  0  0  0  0  0  0  0  0  0  0  0  # atno 11005 bound_to 11000
  145.1132  139.2743  143.5626 LP  0  0  0  0  0  0  0  0  0  0  0  0  # atno 17320 bound_to 7965
  146.3531  140.0734  142.8622 LP  0  0  0  0  0  0  0  0  0  0  0  0  # atno 17321 bound_to 7965
  140.3771  144.2782  150.5913 LP  0  0  0  0  0  0  0  0  0  0  0  0  # atno 17342 bound_to 10162
  140.5266  143.2253  151.8304 LP  0  0  0  0  0  0  0  0  0  0  0  0  # atno 17343 bound_to 10162
  156.6670  130.4528  149.5669 LP  0  0  0  0  0  0  0  0  0  0  0  0  # atno 17370 bound_to 10713
  156.2025  130.6629  151.1183 LP  0  0  0  0  0  0  0  0  0  0  0  0  # atno 17371 bound_to 10713
  140.0441  134.6224  155.8943 LP  0  0  0  0  0  0  0  0  0  0  0  0  # atno 17394 bound_to 11000
  141.1907  133.6569  156.5422 LP  0  0  0  0  0  0  0  0  0  0  0  0  # atno 17395 bound_to 11000

$$$$
