AV-unprocessed.smi:34|AV-procd|sdf|217|dock2
  -GOLD-   2262015523D 1   1.00000     0.00000
 Structure written by MMmdl.
 55 59  0  0  0  0  0  0  0  0  1 V2000
  152.7186  139.9548  158.3797 O   0  0  0  0  0  0  0  0  0  0  0  0
  152.0822  140.8403  157.8079 C   0  0  0  0  0  0  0  0  0  0  0  0
  151.3421  140.5912  156.5830 N   0  0  0  0  0  0  0  0  0  0  0  0
  151.1691  139.4149  155.9351 C   0  0  0  0  0  0  0  0  0  0  0  0
  151.4492  139.2614  154.6141 N   0  0  0  0  0  0  0  0  0  0  0  0
  151.2584  138.0807  154.0189 C   0  0  0  0  0  0  0  0  0  0  0  0
  150.8029  136.9444  154.5496 N   0  0  0  0  0  0  0  0  0  0  0  0
  150.5210  137.0876  155.8760 C   0  0  0  0  0  0  0  0  0  0  0  0
  150.6778  138.2816  156.6343 C   0  0  0  0  0  0  0  0  0  0  0  0
  150.2960  138.0562  157.9501 N   0  0  0  0  0  0  0  0  0  0  0  0
  149.9363  136.8008  157.9637 C   0  0  0  0  0  0  0  0  0  0  0  0
  150.0327  136.1438  156.7569 N   0  0  0  0  0  0  0  0  0  0  0  0
  149.6932  134.7159  156.4748 C   0  0  2  0  0  0  0  0  0  0  0  0
  150.5475  133.9045  157.2256 O   0  0  0  0  0  0  0  0  0  0  0  0
  151.0010  132.7967  156.4432 C   0  0  2  0  0  0  0  0  0  0  0  0
  152.5201  132.9014  156.2462 C   0  0  0  0  0  0  0  0  0  0  0  0
  153.0135  131.6839  155.7112 O   0  0  0  0  0  0  0  0  0  0  0  0
  154.3279  131.3970  155.7908 C   0  0  0  0  0  0  0  0  0  0  0  0
  155.1620  132.1529  156.2933 O   0  0  0  0  0  0  0  0  0  0  0  0
  154.6691  130.0686  155.2044 C   0  0  0  0  0  0  0  0  0  0  0  0
  153.6520  129.0978  155.0495 C   0  0  0  0  0  0  0  0  0  0  0  0
  153.9442  127.8337  154.5009 C   0  0  0  0  0  0  0  0  0  0  0  0
  155.2573  127.5248  154.1010 C   0  0  0  0  0  0  0  0  0  0  0  0
  156.2781  128.4816  154.2502 C   0  0  0  0  0  0  0  0  0  0  0  0
  155.9878  129.7464  154.7984 C   0  0  0  0  0  0  0  0  0  0  0  0
  150.2147  132.8751  155.1311 C   0  0  1  0  0  0  0  0  0  0  0  0
  149.0835  132.1827  155.2947 F   0  0  0  0  0  0  0  0  0  0  0  0
  149.9265  134.3617  155.0067 C   0  0  1  0  0  0  0  0  0  0  0  0
  148.8023  134.5849  154.1795 O   0  0  0  0  0  0  0  0  0  0  0  0
  152.0955  142.2604  158.2948 C   0  0  0  0  0  0  0  0  0  0  0  0
  151.5840  143.2926  157.4762 C   0  0  0  0  0  0  0  0  0  0  0  0
  151.6092  144.6304  157.9157 C   0  0  0  0  0  0  0  0  0  0  0  0
  152.1515  144.9488  159.1750 C   0  0  0  0  0  0  0  0  0  0  0  0
  152.6729  143.9286  159.9928 C   0  0  0  0  0  0  0  0  0  0  0  0
  152.6493  142.5903  159.5539 C   0  0  0  0  0  0  0  0  0  0  0  0
  150.8872  141.3932  156.1717 H   0  0  0  0  0  0  0  0  0  0  0  0
  151.5046  138.0410  152.9680 H   0  0  0  0  0  0  0  0  0  0  0  0
  149.5837  136.3164  158.8627 H   0  0  0  0  0  0  0  0  0  0  0  0
  148.6614  134.5795  156.8026 H   0  0  0  0  0  0  0  0  0  0  0  0
  150.7749  131.8748  156.9812 H   0  0  0  0  0  0  0  0  0  0  0  0
  152.7671  133.7291  155.5812 H   0  0  0  0  0  0  0  0  0  0  0  0
  153.0060  133.0907  157.2043 H   0  0  0  0  0  0  0  0  0  0  0  0
  152.6363  129.3119  155.3497 H   0  0  0  0  0  0  0  0  0  0  0  0
  153.1592  127.1004  154.3875 H   0  0  0  0  0  0  0  0  0  0  0  0
  155.4811  126.5555  153.6803 H   0  0  0  0  0  0  0  0  0  0  0  0
  157.2867  128.2457  153.9442 H   0  0  0  0  0  0  0  0  0  0  0  0
  156.7950  130.4572  154.8994 H   0  0  0  0  0  0  0  0  0  0  0  0
  150.7384  132.4541  154.2721 H   0  0  0  0  0  0  0  0  0  0  0  0
  150.8009  134.8880  154.6224 H   0  0  0  0  0  0  0  0  0  0  0  0
  148.9920  135.3123  153.6067 H   0  0  0  0  0  0  0  0  0  0  0  0
  151.1650  143.0653  156.5063 H   0  0  0  0  0  0  0  0  0  0  0  0
  151.2126  145.4127  157.2855 H   0  0  0  0  0  0  0  0  0  0  0  0
  152.1707  145.9748  159.5120 H   0  0  0  0  0  0  0  0  0  0  0  0
  153.0951  144.1732  160.9564 H   0  0  0  0  0  0  0  0  0  0  0  0
  153.0643  141.8249  160.1933 H   0  0  0  0  0  0  0  0  0  0  0  0
  1  2  2  0  0  0  0
  2  3  1  0  0  0  0
  2 30  1  0  0  0  0
  3  4  1  0  0  0  0
  3 36  1  0  0  0  0
  4  9  1  0  0  0  0
  4  5  2  0  0  0  0
  5  6  1  0  0  0  0
  6  7  2  0  0  0  0
  6 37  1  0  0  0  0
  7  8  1  0  0  0  0
  8 12  1  0  0  0  0
  8  9  2  0  0  0  0
  9 10  1  0  0  0  0
 10 11  2  0  0  0  0
 11 12  1  0  0  0  0
 11 38  1  0  0  0  0
 12 13  1  0  0  0  0
 13 28  1  0  0  0  0
 13 14  1  0  0  0  0
 13 39  1  0  0  0  0
 14 15  1  0  0  0  0
 15 16  1  0  0  0  0
 15 26  1  0  0  0  0
 15 40  1  0  0  0  0
 16 17  1  0  0  0  0
 16 41  1  0  0  0  0
 16 42  1  0  0  0  0
 17 18  1  0  0  0  0
 18 19  2  0  0  0  0
 18 20  1  0  0  0  0
 20 25  1  0  0  0  0
 20 21  2  0  0  0  0
 21 22  1  0  0  0  0
 21 43  1  0  0  0  0
 22 23  2  0  0  0  0
 22 44  1  0  0  0  0
 23 24  1  0  0  0  0
 23 45  1  0  0  0  0
 24 25  2  0  0  0  0
 24 46  1  0  0  0  0
 25 47  1  0  0  0  0
 26 27  1  0  0  0  0
 26 28  1  0  0  0  0
 26 48  1  0  0  0  0
 28 29  1  0  0  0  0
 28 49  1  0  0  0  0
 29 50  1  0  0  0  0
 30 35  1  0  0  0  0
 30 31  2  0  0  0  0
 31 32  1  0  0  0  0
 31 51  1  0  0  0  0
 32 33  2  0  0  0  0
 32 52  1  0  0  0  0
 33 34  1  0  0  0  0
 33 53  1  0  0  0  0
 34 35  2  0  0  0  0
 34 54  1  0  0  0  0
 35 55  1  0  0  0  0
M  END
> <s_m_source_file>
AV-unprocessed.smi

> <i_m_source_file_index>
34

> <i_lp_mmshare_version>
43012

> <i_f3d_flags>
0

> <s_epik_input>
W2NIXTFbY0hdW2NIXVtjSF1bY0hdYzFDKD1PKVtOSF1jKG5bY0hdbjIpYyhjMjMpbltjSF1uM1tDQEBIXTRPW0NASF0oW0NAQEhdKEYpW0NASF00W09IXSlbQ0gyXU9DKD1PKWM1W2NIXVtjSF1bY0hdW2NIXVtjSF01

> <s_epik_cmdline>
J2VwaWtfcHl0aG9uJywgJy1waCcsICc3LjAnLCAnLXRuJywgJzgnLCAnLW1hJywgJzIwMCcsICctbWV0YWxfYmluZGluZycsICctaW1hZScsICc8aW5maWxlLm1hZT4nLCAnLW9tYWUnLCAnPG91dGZpbGUubWFlPic=

> <r_lp_tautomer_probability>
1

> <r_epik_Ionization_Penalty>
0.00257489

> <r_epik_Ionization_Penalty_Charging>
0

> <r_epik_Ionization_Penalty_Neutral>
0.00257489

> <r_epik_State_Penalty>
0.00519398

> <r_epik_Charging_Adjusted_Penalty>
0.00519398

> <i_epik_Tot_Q>
0

> <i_epik_Tot_abs_Q>
0

> <r_epik_Metal_State_Penalty>
0.335891

> <b_epik_Metal_Only>
0

> <s_epik_Chemistry_Notes>
This compound has an ester and may undergo hydrolysis at high or low pH. This compound contains an acetal/aminal-like group ( X-CH(R)-Y where X, Y are N, S, or O) that may be acid/base labile, releasing an aldehyde.

> <s_lp_Force_Field>
OPLS_2005

> <r_lp_Energy>
51.1648

> <b_lp_Chiralities_Consistent>
1

> <s_lp_Variant>
AV-unprocessed.smi:34-3

> <Gold.Version>
5.8.1

> <Gold.Id.Protein>
6NUR|6NUR_protein|mol2

> <Gold.PLP.Fitness>
60.1195

> <Gold.PLP.PLP>
-50.3880

> <Gold.PLP.part.hbond>
-3.0000

> <Gold.PLP.part.metal>
0.0000

> <Gold.PLP.part.buried>
-8.0275

> <Gold.PLP.part.nonpolar>
-38.7844

> <Gold.PLP.part.repulsive>
0.3820

> <Gold.PLP.ligand.clash>
0.0000

> <Gold.PLP.ligand.torsion>
0.8809

> <Gold.PLP.Chemscore.Hbond>
2.7839

> <Gold.PLP.Chemscore.CHOScore>
0.9212

> <Gold.PLP.Chemscore.Metal>
0.0000

> <Gold.Chemscore.Hbonds>
donor molecule, donor type, donor heavy atom, donor atom, acceptor molecule, acceptor atom, score
      L1  H    29    50       P1  7948  1.00
      P1  H  6896  6908       L1    14  0.69
      P1  H  7989  7998       L1     5  1.00
      L1  C     6    37       P1  7949  0.87

> <Gold.PLP.Chemscore.Internal.Correction>
0.3782

> <Gold.Rescore>
     Score         DG    S(hbond)    S(metal)    S(lipo)     H(rot)  DE(clash)    DE(int)     intcor
     18.71     -21.22       2.46        0.00     123.90       2.72       0.11       2.39       ----

> <Gold.Chemscore.Fitness>
18.7120

> <Gold.Chemscore.DG>
-21.2181

> <Gold.Chemscore.ZeroCoef>
-5.4800

> <Gold.Chemscore.Hbond>
2.4579

> <Gold.Chemscore.Metal>
0.0000

> <Gold.Chemscore.Lipo>
123.8968

> <Gold.Chemscore.Internal_Hbond>
0.0000

> <Gold.Chemscore.DEClash>
0.1125

> <Gold.Chemscore.DEInternal>
2.3936

> <Gold.Chemscore.Rot>
2.7215

> <Gold.Chemscore.Internal.Correction>
   9.000000E+99

> <Gold.Chemscore.Hbonds>
donor molecule, donor type, donor heavy atom, donor atom, acceptor molecule, acceptor atom, score
      L1  H    29    50       P1  7948  0.63
      P1  H  6896  6908       L1    14  0.64
      P1  H  7989  7998       L1     5  0.91

> <Gold.Chemscore.Hbond.Weighted>
-8.2092

> <Gold.Chemscore.Metal.Weighted>
-0.0000

> <Gold.Chemscore.Lipo.Weighted>
-14.4959

> <Gold.Chemscore.Internal_Hbond.Weighted>
0.0000

> <Gold.Chemscore.DEClash.Weighted>
0.1125

> <Gold.Chemscore.DEInternal.Weighted>
2.3936

> <Gold.Chemscore.Rot.Weighted>
6.9670

> <Gold.Chemscore.Internal.Correction.Weighted>
   9.000000E+99

> <Gold.Protein.RotatedTorsions>
[ 6907 6896 6895 6894 ] final  123.66 input  -60.11 | X-H torsion
[ 7974 7965 7964 7962 ] final -159.23 input  175.53 | X-H torsion
[ 8008 7997 7996 7995 ] final -166.09 input   59.86 | X-H torsion
[ 10167 10162 10161 10158 ] final   21.96 input  -65.29 | X-H torsion
[ 10718 10713 10712 10709 ] final   43.58 input   66.30 | X-H torsion
[ 10763 10752 10751 10750 ] final   81.87 input  -60.55 | X-H torsion
[ 11005 11000 10999 10996 ] final  127.87 input  -57.11 | X-H torsion

> <Gold.Protein.ActiveResidues>
 VAL166  LYS551  ARG553  GLY616  TRP617  ASP618  TYR619  PRO620  LYS621  CYS622 
 ASP623  PHE694  ASN695  SER759  ASP760  ASP761  ALA762  ILE779  LEU786  VAL792 
 PHE793  MET794  SER795  GLU796  ALA797  LYS798  CYS799  TRP800  GLU811  SER814 

> <Gold.Protein.RotatedAtoms>
  152.4143  133.7014  159.6425 H   0  0  0  0  0  0  0  0  0  0  0  0  # atno 6907 bound_to 6896
  150.8021  133.8567  159.3229 H   0  0  0  0  0  0  0  0  0  0  0  0  # atno 6908 bound_to 6896
  151.6301  135.1025  160.0171 H   0  0  0  0  0  0  0  0  0  0  0  0  # atno 6909 bound_to 6896
  144.7473  140.3714  143.6075 H   0  0  0  0  0  0  0  0  0  0  0  0  # atno 7974 bound_to 7965
  155.8590  140.0975  157.1626 H   0  0  0  0  0  0  0  0  0  0  0  0  # atno 8008 bound_to 7997
  154.3989  140.1369  156.3999 H   0  0  0  0  0  0  0  0  0  0  0  0  # atno 8009 bound_to 7997
  155.7878  140.3456  155.5335 H   0  0  0  0  0  0  0  0  0  0  0  0  # atno 8010 bound_to 7997
  140.5386  143.9717  150.6506 H   0  0  0  0  0  0  0  0  0  0  0  0  # atno 10167 bound_to 10162
  157.4174  130.7949  149.7485 H   0  0  0  0  0  0  0  0  0  0  0  0  # atno 10718 bound_to 10713
  153.1154  135.4749  154.9105 H   0  0  0  0  0  0  0  0  0  0  0  0  # atno 10763 bound_to 10752
  154.7522  135.3109  154.8538 H   0  0  0  0  0  0  0  0  0  0  0  0  # atno 10764 bound_to 10752
  153.9116  135.6864  153.4804 H   0  0  0  0  0  0  0  0  0  0  0  0  # atno 10765 bound_to 10752
  139.9530  134.9618  156.8918 H   0  0  0  0  0  0  0  0  0  0  0  0  # atno 11005 bound_to 11000
  145.7073  139.1676  143.2558 LP  0  0  0  0  0  0  0  0  0  0  0  0  # atno 17320 bound_to 7965
  146.1372  140.7106  142.9384 LP  0  0  0  0  0  0  0  0  0  0  0  0  # atno 17321 bound_to 7965
  140.3112  143.3197  152.0877 LP  0  0  0  0  0  0  0  0  0  0  0  0  # atno 17342 bound_to 10162
  139.4980  144.6635  151.6410 LP  0  0  0  0  0  0  0  0  0  0  0  0  # atno 17343 bound_to 10162
  155.9869  130.3970  150.3188 LP  0  0  0  0  0  0  0  0  0  0  0  0  # atno 17370 bound_to 10713
  157.1332  131.0277  151.2960 LP  0  0  0  0  0  0  0  0  0  0  0  0  # atno 17371 bound_to 10713
  140.5674  134.0476  155.7419 LP  0  0  0  0  0  0  0  0  0  0  0  0  # atno 17394 bound_to 11000
  141.1197  133.9482  157.2754 LP  0  0  0  0  0  0  0  0  0  0  0  0  # atno 17395 bound_to 11000

$$$$
