AV-unprocessed.smi:290|AV-procd|sdf|2232|dock2
  -GOLD-   2262022 93D 1   1.00000     0.00000
 Structure written by MMmdl.
 59 62  0  0  0  0  0  0  0  0  2 V2000
  150.1658  144.3999  159.8460 C   0  0  0  0  0  0  0  0  0  0  0  0
  151.0908  144.0512  158.6669 C   0  0  1  0  0  0  0  0  0  0  0  0
  152.3727  144.6000  158.9796 O   0  0  0  0  0  0  0  0  0  0  0  0
  153.3788  143.5994  158.9027 C   0  0  0  0  0  0  0  0  0  0  0  0
  152.6287  142.3013  159.1586 C   0  0  0  0  0  0  0  0  0  0  0  0
  151.3179  142.5388  158.4181 C   0  0  1  0  0  0  0  0  0  0  0  0
  150.3100  141.7272  158.9961 O   0  0  0  0  0  0  0  0  0  0  0  0
  151.3818  142.2273  156.8990 C   0  0  0  0  0  0  0  0  0  0  0  0
  150.2105  141.5369  156.3807 N   0  0  0  0  0  0  0  0  0  0  0  0
  148.9168  142.0080  156.3532 C   0  0  0  0  0  0  0  0  0  0  0  0
  148.0389  141.1961  155.8289 N   0  0  0  0  0  0  0  0  0  0  0  0
  148.7867  140.0842  155.4601 C   0  0  0  0  0  0  0  0  0  0  0  0
  148.4798  138.8393  154.8419 C   0  0  0  0  0  0  0  0  0  0  0  0
  147.2446  138.4601  154.4476 N   0  0  0  0  0  0  0  0  0  0  0  0
  146.7120  139.1887  153.3057 C   0  0  0  0  0  0  0  0  0  0  0  0
  146.2761  138.1361  152.2931 C   0  0  0  0  0  0  0  0  0  0  0  0
  146.0028  136.8826  153.1361 C   0  0  1  0  0  0  0  0  0  0  0  0
  146.0840  135.6497  152.2939 N   0  3  1  0  0  0  0  0  0  0  0  0
  146.0367  134.3697  153.0406 C   0  0  0  0  0  0  0  0  0  0  0  0
  145.1081  135.6577  151.1699 C   0  0  0  0  0  0  0  0  0  0  0  0
  145.0276  134.2909  150.4703 C   0  0  0  0  0  0  0  0  0  0  0  0
  144.0622  134.3298  149.4405 O   0  0  0  0  0  0  0  0  0  0  0  0
  147.0727  137.0217  154.2474 C   0  0  2  0  0  0  0  0  0  0  0  0
  146.7096  136.3639  155.5948 C   0  0  0  0  0  0  0  0  0  0  0  0
  149.4944  137.9684  154.6232 N   0  0  0  0  0  0  0  0  0  0  0  0
  150.7399  138.2910  154.9857 C   0  0  0  0  0  0  0  0  0  0  0  0
  151.1767  139.4093  155.5697 N   0  0  0  0  0  0  0  0  0  0  0  0
  150.1553  140.2857  155.7920 C   0  0  0  0  0  0  0  0  0  0  0  0
  145.0112  136.9567  153.5870 H   0  0  0  0  0  0  0  0  0  0  0  0
  148.0126  136.6008  153.8874 H   0  0  0  0  0  0  0  0  0  0  0  0
  149.1478  144.0528  159.6689 H   0  0  0  0  0  0  0  0  0  0  0  0
  150.1204  145.4788  159.9960 H   0  0  0  0  0  0  0  0  0  0  0  0
  150.5191  143.9515  160.7753 H   0  0  0  0  0  0  0  0  0  0  0  0
  150.7072  144.5367  157.7686 H   0  0  0  0  0  0  0  0  0  0  0  0
  153.8198  143.6047  157.9052 H   0  0  0  0  0  0  0  0  0  0  0  0
  154.1741  143.7757  159.6271 H   0  0  0  0  0  0  0  0  0  0  0  0
  153.1789  141.4163  158.8421 H   0  0  0  0  0  0  0  0  0  0  0  0
  152.4473  142.2043  160.2304 H   0  0  0  0  0  0  0  0  0  0  0  0
  149.8609  141.2690  158.3026 H   0  0  0  0  0  0  0  0  0  0  0  0
  151.5058  143.1524  156.3341 H   0  0  0  0  0  0  0  0  0  0  0  0
  152.2596  141.6216  156.6710 H   0  0  0  0  0  0  0  0  0  0  0  0
  148.6431  142.9794  156.7396 H   0  0  0  0  0  0  0  0  0  0  0  0
  145.8496  139.7622  153.6470 H   0  0  0  0  0  0  0  0  0  0  0  0
  147.4212  139.8945  152.8699 H   0  0  0  0  0  0  0  0  0  0  0  0
  145.4178  138.4680  151.7091 H   0  0  0  0  0  0  0  0  0  0  0  0
  147.0972  137.9474  151.5996 H   0  0  0  0  0  0  0  0  0  0  0  0
  145.1213  134.2931  153.6282 H   0  0  0  0  0  0  0  0  0  0  0  0
  146.8964  134.2654  153.7016 H   0  0  0  0  0  0  0  0  0  0  0  0
  146.0663  133.5167  152.3634 H   0  0  0  0  0  0  0  0  0  0  0  0
  144.1254  135.9451  151.5469 H   0  0  0  0  0  0  0  0  0  0  0  0
  145.3612  136.4108  150.4240 H   0  0  0  0  0  0  0  0  0  0  0  0
  145.9892  133.9870  150.0576 H   0  0  0  0  0  0  0  0  0  0  0  0
  144.7323  133.5225  151.1852 H   0  0  0  0  0  0  0  0  0  0  0  0
  144.5073  134.3964  148.6089 H   0  0  0  0  0  0  0  0  0  0  0  0
  146.5912  135.2855  155.5276 H   0  0  0  0  0  0  0  0  0  0  0  0
  145.7789  136.7708  155.9916 H   0  0  0  0  0  0  0  0  0  0  0  0
  147.4867  136.5453  156.3377 H   0  0  0  0  0  0  0  0  0  0  0  0
  151.4949  137.5470  154.7778 H   0  0  0  0  0  0  0  0  0  0  0  0
  146.9978  135.6836  151.8638 H   0  0  0  0  0  0  0  0  0  0  0  0
  1  2  1  0  0  0  0
  1 31  1  0  0  0  0
  1 32  1  0  0  0  0
  1 33  1  0  0  0  0
  2  6  1  0  0  0  0
  2  3  1  0  0  0  0
  2 34  1  0  0  0  0
  3  4  1  0  0  0  0
  4  5  1  0  0  0  0
  4 35  1  0  0  0  0
  4 36  1  0  0  0  0
  5  6  1  0  0  0  0
  5 37  1  0  0  0  0
  5 38  1  0  0  0  0
  6  7  1  0  0  0  0
  6  8  1  0  0  0  0
  7 39  1  0  0  0  0
  8  9  1  0  0  0  0
  8 40  1  0  0  0  0
  8 41  1  0  0  0  0
  9 28  1  0  0  0  0
  9 10  1  0  0  0  0
 10 11  2  0  0  0  0
 10 42  1  0  0  0  0
 11 12  1  0  0  0  0
 12 28  2  0  0  0  0
 12 13  1  0  0  0  0
 13 14  1  0  0  0  0
 13 25  2  0  0  0  0
 14 23  1  0  0  0  0
 14 15  1  0  0  0  0
 15 16  1  0  0  0  0
 15 43  1  0  0  0  0
 15 44  1  0  0  0  0
 16 17  1  0  0  0  0
 16 45  1  0  0  0  0
 16 46  1  0  0  0  0
 17 29  1  0  0  0  0
 17 18  1  0  0  0  0
 17 23  1  0  0  0  0
 18 19  1  0  0  0  0
 18 20  1  0  0  0  0
 18 59  1  0  0  0  0
 19 47  1  0  0  0  0
 19 48  1  0  0  0  0
 19 49  1  0  0  0  0
 20 21  1  0  0  0  0
 20 50  1  0  0  0  0
 20 51  1  0  0  0  0
 21 22  1  0  0  0  0
 21 52  1  0  0  0  0
 21 53  1  0  0  0  0
 22 54  1  0  0  0  0
 23 30  1  0  0  0  0
 23 24  1  0  0  0  0
 24 55  1  0  0  0  0
 24 56  1  0  0  0  0
 24 57  1  0  0  0  0
 25 26  1  0  0  0  0
 26 27  2  0  0  0  0
 26 58  1  0  0  0  0
 27 28  1  0  0  0  0
M  CHG  1  18   1
M  END
> <s_m_source_file>
AV-unprocessed.smi

> <i_m_source_file_index>
290

> <i_lp_mmshare_version>
43012

> <i_f3d_flags>
0

> <s_epik_input>
W0NIMl0xW0NIMl1PW0NAQEhdKFtDSDNdKVtDQEBdMShbT0hdKVtDSDJdbihbY0hdbjIpYyhjMjMpbltjSF1uYzNONFtDSDJdW0NIMl1bQ0BIXShbQ0BIXTRbQ0gzXSlOKFtDSDNdKVtDSDJdW0NIMl1bT0hd

> <s_epik_cmdline>
J2VwaWtfcHl0aG9uJywgJy1waCcsICc3LjAnLCAnLXRuJywgJzgnLCAnLW1hJywgJzIwMCcsICctbWV0YWxfYmluZGluZycsICctaW1hZScsICc8aW5maWxlLm1hZT4nLCAnLW9tYWUnLCAnPG91dGZpbGUubWFlPic=

> <r_lp_tautomer_probability>
1

> <r_epik_Ionization_Penalty>
0.0036983

> <r_epik_Ionization_Penalty_Charging>
0.0032725

> <r_epik_Ionization_Penalty_Neutral>
0.000425798

> <r_epik_State_Penalty>
-0

> <r_epik_Charging_Adjusted_Penalty>
0.0032725

> <i_epik_Tot_Q>
1

> <i_epik_Tot_abs_Q>
1

> <r_epik_Metal_State_Penalty>
-0

> <b_epik_Metal_Only>
0

> <s_lp_Force_Field>
OPLS_2005

> <r_lp_Energy>
64.3392

> <b_lp_Chiralities_Consistent>
1

> <s_lp_Variant>
AV-unprocessed.smi:290-18

> <Gold.Version>
5.8.1

> <Gold.Id.Protein>
6NUR|6NUR_protein|mol2

> <Gold.PLP.Fitness>
46.0555

> <Gold.PLP.PLP>
-36.9311

> <Gold.PLP.part.hbond>
-3.7899

> <Gold.PLP.part.metal>
0.0000

> <Gold.PLP.part.buried>
-4.2401

> <Gold.PLP.part.nonpolar>
-30.5194

> <Gold.PLP.part.repulsive>
0.4044

> <Gold.PLP.ligand.clash>
0.0000

> <Gold.PLP.ligand.torsion>
1.4566

> <Gold.PLP.Chemscore.Hbond>
3.0000

> <Gold.PLP.Chemscore.CHOScore>
0.8932

> <Gold.PLP.Chemscore.Metal>
0.0000

> <Gold.Chemscore.Hbonds>
donor molecule, donor type, donor heavy atom, donor atom, acceptor molecule, acceptor atom, score
      L1  H    18    59       P1  7948  2.00
      L1  H    22    54       P1  7921  0.99
      L1  C    10    42       P1  8028  0.87

> <Gold.PLP.Chemscore.Internal.Correction>
0.3582

> <Gold.Rescore>
     Score         DG    S(hbond)    S(metal)    S(lipo)     H(rot)  DE(clash)    DE(int)     intcor
      9.80     -13.86       1.97        0.00      95.58       3.67       1.60       2.46       ----

> <Gold.Chemscore.Fitness>
9.7978

> <Gold.Chemscore.DG>
-13.8629

> <Gold.Chemscore.ZeroCoef>
-5.4800

> <Gold.Chemscore.Hbond>
1.9715

> <Gold.Chemscore.Metal>
0.0000

> <Gold.Chemscore.Lipo>
95.5775

> <Gold.Chemscore.Internal_Hbond>
0.0000

> <Gold.Chemscore.DEClash>
1.6019

> <Gold.Chemscore.DEInternal>
2.4631

> <Gold.Chemscore.Rot>
3.6658

> <Gold.Chemscore.Internal.Correction>
   9.000000E+99

> <Gold.Chemscore.Hbonds>
donor molecule, donor type, donor heavy atom, donor atom, acceptor molecule, acceptor atom, score
      L1  H    18    59       P1  7948  0.93
      L1  H    22    54       P1  7921  0.93

> <Gold.Chemscore.Hbond.Weighted>
-6.5847

> <Gold.Chemscore.Metal.Weighted>
-0.0000

> <Gold.Chemscore.Lipo.Weighted>
-11.1826

> <Gold.Chemscore.Internal_Hbond.Weighted>
0.0000

> <Gold.Chemscore.DEClash.Weighted>
1.6019

> <Gold.Chemscore.DEInternal.Weighted>
2.4631

> <Gold.Chemscore.Rot.Weighted>
9.3844

> <Gold.Chemscore.Internal.Correction.Weighted>
   9.000000E+99

> <Gold.Protein.RotatedTorsions>
[ 6907 6896 6895 6894 ] final  -99.15 input  -60.11 | X-H torsion
[ 7974 7965 7964 7962 ] final   36.01 input  175.53 | X-H torsion
[ 8008 7997 7996 7995 ] final   37.71 input   59.86 | X-H torsion
[ 10167 10162 10161 10158 ] final   47.35 input  -65.29 | X-H torsion
[ 10718 10713 10712 10709 ] final -171.32 input   66.30 | X-H torsion
[ 10763 10752 10751 10750 ] final  -63.28 input  -60.55 | X-H torsion
[ 11005 11000 10999 10996 ] final  143.76 input  -57.11 | X-H torsion

> <Gold.Protein.ActiveResidues>
 VAL166  LYS551  ARG553  GLY616  TRP617  ASP618  TYR619  PRO620  LYS621  CYS622 
 ASP623  PHE694  ASN695  SER759  ASP760  ASP761  ALA762  ILE779  LEU786  VAL792 
 PHE793  MET794  SER795  GLU796  ALA797  LYS798  CYS799  TRP800  GLU811  SER814 

> <Gold.Protein.RotatedAtoms>
  150.7070  134.1085  159.3991 H   0  0  0  0  0  0  0  0  0  0  0  0  # atno 6907 bound_to 6896
  151.9072  135.0352  160.0520 H   0  0  0  0  0  0  0  0  0  0  0  0  # atno 6908 bound_to 6896
  152.2366  133.5065  159.5282 H   0  0  0  0  0  0  0  0  0  0  0  0  # atno 6909 bound_to 6896
  146.1242  139.6071  142.9269 H   0  0  0  0  0  0  0  0  0  0  0  0  # atno 7974 bound_to 7965
  155.2083  140.3321  155.4332 H   0  0  0  0  0  0  0  0  0  0  0  0  # atno 8008 bound_to 7997
  156.2380  140.1881  156.7115 H   0  0  0  0  0  0  0  0  0  0  0  0  # atno 8009 bound_to 7997
  154.6095  140.0611  156.9460 H   0  0  0  0  0  0  0  0  0  0  0  0  # atno 8010 bound_to 7997
  140.3045  144.2895  150.6212 H   0  0  0  0  0  0  0  0  0  0  0  0  # atno 10167 bound_to 10162
  156.7391  130.9335  151.3109 H   0  0  0  0  0  0  0  0  0  0  0  0  # atno 10718 bound_to 10713
  154.3127  135.6212  153.5472 H   0  0  0  0  0  0  0  0  0  0  0  0  # atno 10763 bound_to 10752
  152.9828  135.5705  154.5159 H   0  0  0  0  0  0  0  0  0  0  0  0  # atno 10764 bound_to 10752
  154.4812  135.2863  155.1545 H   0  0  0  0  0  0  0  0  0  0  0  0  # atno 10765 bound_to 10752
  140.0579  134.9220  157.1132 H   0  0  0  0  0  0  0  0  0  0  0  0  # atno 11005 bound_to 11000
  145.5400  141.0421  143.2336 LP  0  0  0  0  0  0  0  0  0  0  0  0  # atno 17320 bound_to 7965
  144.7626  139.6920  143.7228 LP  0  0  0  0  0  0  0  0  0  0  0  0  # atno 17321 bound_to 7965
  140.5622  143.2190  151.7745 LP  0  0  0  0  0  0  0  0  0  0  0  0  # atno 17342 bound_to 10162
  139.4907  144.4332  151.9848 LP  0  0  0  0  0  0  0  0  0  0  0  0  # atno 17343 bound_to 10162
  157.6826  130.9155  150.0306 LP  0  0  0  0  0  0  0  0  0  0  0  0  # atno 17370 bound_to 10713
  156.1477  130.3642  149.9485 LP  0  0  0  0  0  0  0  0  0  0  0  0  # atno 17371 bound_to 10713
  140.3816  134.2281  155.7170 LP  0  0  0  0  0  0  0  0  0  0  0  0  # atno 17394 bound_to 11000
  141.1960  133.8092  157.0690 LP  0  0  0  0  0  0  0  0  0  0  0  0  # atno 17395 bound_to 11000

$$$$
