AV-unprocessed.smi:3351|AV-procd|sdf|12949|dock4
  -GOLD-   2272019383D 1   1.00000     0.00000
 Structure written by MMmdl.
 34 35  0  0  0  0  0  0  0  0  1 V2000
  150.7810  144.9720  158.9438 C   0  0  0  0  0  0  0  0  0  0  0  0
  151.0680  143.4821  158.7142 C   0  0  2  0  0  0  0  0  0  0  0  0
  152.5665  143.1616  158.9125 C   0  0  0  0  0  0  0  0  0  0  0  0
  152.8913  142.7899  160.2790 N   0  0  0  0  0  0  0  0  0  0  0  0
  152.4794  143.4299  161.4408 C   0  0  0  0  0  0  0  0  0  0  0  0
  153.0460  142.7442  162.4908 C   0  0  0  0  0  0  0  0  0  0  0  0
  153.7927  141.6745  162.0031 N   0  0  0  0  0  0  0  0  0  0  0  0
  153.6485  141.7619  160.6869 C   0  0  0  0  0  0  0  0  0  0  0  0
  150.6310  143.1143  157.3677 N   0  0  0  0  0  0  0  0  0  0  0  0
  150.5758  141.8639  156.8821 C   0  0  0  0  0  0  0  0  0  0  0  0
  150.8236  140.8622  157.5536 O   0  0  0  0  0  0  0  0  0  0  0  0
  150.1864  141.7166  155.4102 C   0  0  0  0  0  0  0  0  0  0  0  0
  150.2314  140.3123  155.0070 N   0  0  0  0  0  0  0  0  0  0  0  0
  149.0271  139.6706  154.4959 C   0  0  0  0  0  0  0  0  0  0  0  0
  149.2181  138.1592  154.6336 C   0  0  0  0  0  0  0  0  0  0  0  0
  150.9926  137.8358  154.6232 S   0  0  0  0  0  0  0  0  0  0  0  0
  151.3759  139.5297  155.0786 C   0  0  0  0  0  0  0  0  0  0  0  0
  152.5062  139.8816  155.4115 O   0  0  0  0  0  0  0  0  0  0  0  0
  151.0691  145.2755  159.9506 H   0  0  0  0  0  0  0  0  0  0  0  0
  149.7190  145.1906  158.8267 H   0  0  0  0  0  0  0  0  0  0  0  0
  151.3303  145.5969  158.2387 H   0  0  0  0  0  0  0  0  0  0  0  0
  150.4900  142.9266  159.4549 H   0  0  0  0  0  0  0  0  0  0  0  0
  152.8744  142.3531  158.2478 H   0  0  0  0  0  0  0  0  0  0  0  0
  153.1729  144.0293  158.6501 H   0  0  0  0  0  0  0  0  0  0  0  0
  151.8459  144.3045  161.4251 H   0  0  0  0  0  0  0  0  0  0  0  0
  152.9738  142.9372  163.5510 H   0  0  0  0  0  0  0  0  0  0  0  0
  154.1163  141.0701  160.0021 H   0  0  0  0  0  0  0  0  0  0  0  0
  150.4049  143.8734  156.7411 H   0  0  0  0  0  0  0  0  0  0  0  0
  149.1786  142.1095  155.2701 H   0  0  0  0  0  0  0  0  0  0  0  0
  150.8423  142.3151  154.7750 H   0  0  0  0  0  0  0  0  0  0  0  0
  148.1351  140.0051  155.0269 H   0  0  0  0  0  0  0  0  0  0  0  0
  148.9103  139.9445  153.4469 H   0  0  0  0  0  0  0  0  0  0  0  0
  148.8231  137.8210  155.5922 H   0  0  0  0  0  0  0  0  0  0  0  0
  148.7083  137.6030  153.8468 H   0  0  0  0  0  0  0  0  0  0  0  0
  1  2  1  0  0  0  0
  1 19  1  0  0  0  0
  1 20  1  0  0  0  0
  1 21  1  0  0  0  0
  2  3  1  0  0  0  0
  2  9  1  0  0  0  0
  2 22  1  0  0  0  0
  3  4  1  0  0  0  0
  3 23  1  0  0  0  0
  3 24  1  0  0  0  0
  4  8  1  0  0  0  0
  4  5  1  0  0  0  0
  5  6  2  0  0  0  0
  5 25  1  0  0  0  0
  6  7  1  0  0  0  0
  6 26  1  0  0  0  0
  7  8  2  0  0  0  0
  8 27  1  0  0  0  0
  9 10  1  0  0  0  0
  9 28  1  0  0  0  0
 10 11  2  0  0  0  0
 10 12  1  0  0  0  0
 12 13  1  0  0  0  0
 12 29  1  0  0  0  0
 12 30  1  0  0  0  0
 13 17  1  0  0  0  0
 13 14  1  0  0  0  0
 14 15  1  0  0  0  0
 14 31  1  0  0  0  0
 14 32  1  0  0  0  0
 15 16  1  0  0  0  0
 15 33  1  0  0  0  0
 15 34  1  0  0  0  0
 16 17  1  0  0  0  0
 17 18  2  0  0  0  0
M  END
> <s_m_source_file>
AV-unprocessed.smi

> <i_m_source_file_index>
3351

> <i_lp_mmshare_version>
43012

> <i_f3d_flags>
0

> <s_epik_input>
W2NIXTFuW2NIXVtjSF1uMVtDSDJdW0NAQEhdKFtDSDNdKVtOSF1DKD1PKVtDSDJdTjJbQ0gyXVtDSDJdU0MyPU8=

> <s_epik_cmdline>
J2VwaWtfcHl0aG9uJywgJy1waCcsICc3LjAnLCAnLXRuJywgJzgnLCAnLW1hJywgJzIwMCcsICctbWV0YWxfYmluZGluZycsICctaW1hZScsICc8aW5maWxlLm1hZT4nLCAnLW9tYWUnLCAnPG91dGZpbGUubWFlPic=

> <r_lp_tautomer_probability>
1

> <r_epik_Ionization_Penalty>
0.618163

> <r_epik_Ionization_Penalty_Charging>
0.618163

> <r_epik_Ionization_Penalty_Neutral>
6.6929e-08

> <r_epik_State_Penalty>
0.633954

> <r_epik_Charging_Adjusted_Penalty>
1.25212

> <i_epik_Tot_Q>
0

> <i_epik_Tot_abs_Q>
0

> <r_epik_Metal_State_Penalty>
0.305924

> <b_epik_Metal_Only>
0

> <s_lp_Force_Field>
OPLS_2005

> <r_lp_Energy>
3.88922

> <b_lp_Chiralities_Consistent>
1

> <s_lp_Variant>
AV-unprocessed.smi:3351-3

> <Gold.Version>
5.8.1

> <Gold.Id.Protein>
6NUR|6NUR_protein|mol2

> <Gold.PLP.Fitness>
50.8703

> <Gold.PLP.PLP>
-46.2017

> <Gold.PLP.part.hbond>
-3.2161

> <Gold.PLP.part.metal>
0.0000

> <Gold.PLP.part.buried>
-3.2389

> <Gold.PLP.part.nonpolar>
-38.6833

> <Gold.PLP.part.repulsive>
0.0269

> <Gold.PLP.ligand.clash>
0.0000

> <Gold.PLP.ligand.torsion>
0.6283

> <Gold.PLP.Chemscore.Hbond>
1.9440

> <Gold.PLP.Chemscore.CHOScore>
0.0000

> <Gold.PLP.Chemscore.Metal>
0.0000

> <Gold.Chemscore.Hbonds>
donor molecule, donor type, donor heavy atom, donor atom, acceptor molecule, acceptor atom, score
      L1  H     9    28       P1  8028  0.89
      P1  H  7997  8010       L1    18  1.00

> <Gold.PLP.Chemscore.Internal.Correction>
0.0932

> <Gold.Rescore>
     Score         DG    S(hbond)    S(metal)    S(lipo)     H(rot)  DE(clash)    DE(int)     intcor
     12.85     -15.58       1.95        0.00      81.83       2.33       0.29       2.44       ----

> <Gold.Chemscore.Fitness>
12.8515

> <Gold.Chemscore.DG>
-15.5838

> <Gold.Chemscore.ZeroCoef>
-5.4800

> <Gold.Chemscore.Hbond>
1.9458

> <Gold.Chemscore.Metal>
0.0000

> <Gold.Chemscore.Lipo>
81.8287

> <Gold.Chemscore.Internal_Hbond>
0.0000

> <Gold.Chemscore.DEClash>
0.2895

> <Gold.Chemscore.DEInternal>
2.4428

> <Gold.Chemscore.Rot>
2.3317

> <Gold.Chemscore.Internal.Correction>
   9.000000E+99

> <Gold.Chemscore.Hbonds>
donor molecule, donor type, donor heavy atom, donor atom, acceptor molecule, acceptor atom, score
      L1  H     9    28       P1  8028  0.82
      P1  H  7997  8010       L1    18  0.95

> <Gold.Chemscore.Hbond.Weighted>
-6.4990

> <Gold.Chemscore.Metal.Weighted>
-0.0000

> <Gold.Chemscore.Lipo.Weighted>
-9.5740

> <Gold.Chemscore.Internal_Hbond.Weighted>
0.0000

> <Gold.Chemscore.DEClash.Weighted>
0.2895

> <Gold.Chemscore.DEInternal.Weighted>
2.4428

> <Gold.Chemscore.Rot.Weighted>
5.9692

> <Gold.Chemscore.Internal.Correction.Weighted>
   9.000000E+99

> <Gold.Protein.RotatedTorsions>
[ 6907 6896 6895 6894 ] final -162.02 input  -60.11 | X-H torsion
[ 7974 7965 7964 7962 ] final  139.60 input  175.53 | X-H torsion
[ 8008 7997 7996 7995 ] final  101.56 input   59.86 | X-H torsion
[ 10167 10162 10161 10158 ] final -133.05 input  -65.29 | X-H torsion
[ 10718 10713 10712 10709 ] final -156.70 input   66.30 | X-H torsion
[ 10763 10752 10751 10750 ] final  166.30 input  -60.55 | X-H torsion
[ 11005 11000 10999 10996 ] final  138.95 input  -57.11 | X-H torsion

> <Gold.Protein.ActiveResidues>
 VAL166  LYS551  ARG553  GLY616  TRP617  ASP618  TYR619  PRO620  LYS621  CYS622 
 ASP623  PHE694  ASN695  SER759  ASP760  ASP761  ALA762  ILE779  LEU786  VAL792 
 PHE793  MET794  SER795  GLU796  ALA797  LYS798  CYS799  TRP800  GLU811  SER814 

> <Gold.Protein.RotatedAtoms>
  151.3738  133.3845  159.2702 H   0  0  0  0  0  0  0  0  0  0  0  0  # atno 6907 bound_to 6896
  150.9630  134.9016  159.7753 H   0  0  0  0  0  0  0  0  0  0  0  0  # atno 6908 bound_to 6896
  152.5156  134.3698  159.9366 H   0  0  0  0  0  0  0  0  0  0  0  0  # atno 6909 bound_to 6896
  144.9264  139.5102  143.5639 H   0  0  0  0  0  0  0  0  0  0  0  0  # atno 7974 bound_to 7965
  156.1311  140.3195  155.8350 H   0  0  0  0  0  0  0  0  0  0  0  0  # atno 8008 bound_to 7997
  155.4330  140.0520  157.3034 H   0  0  0  0  0  0  0  0  0  0  0  0  # atno 8009 bound_to 7997
  154.4900  140.2088  155.9583 H   0  0  0  0  0  0  0  0  0  0  0  0  # atno 8010 bound_to 7997
  139.9023  143.6593  152.2592 H   0  0  0  0  0  0  0  0  0  0  0  0  # atno 10167 bound_to 10162
  156.5301  130.8517  151.2713 H   0  0  0  0  0  0  0  0  0  0  0  0  # atno 10718 bound_to 10713
  154.3370  135.2754  155.2442 H   0  0  0  0  0  0  0  0  0  0  0  0  # atno 10763 bound_to 10752
  154.4729  135.5878  153.6338 H   0  0  0  0  0  0  0  0  0  0  0  0  # atno 10764 bound_to 10752
  152.9861  135.6092  154.3567 H   0  0  0  0  0  0  0  0  0  0  0  0  # atno 10765 bound_to 10752
  140.0220  134.9392  157.0493 H   0  0  0  0  0  0  0  0  0  0  0  0  # atno 11005 bound_to 11000
  146.3228  139.8182  142.8932 LP  0  0  0  0  0  0  0  0  0  0  0  0  # atno 17320 bound_to 7965
  145.3213  141.0244  143.3499 LP  0  0  0  0  0  0  0  0  0  0  0  0  # atno 17321 bound_to 7965
  139.7015  144.7634  151.1266 LP  0  0  0  0  0  0  0  0  0  0  0  0  # atno 17342 bound_to 10162
  140.7704  143.5452  150.9267 LP  0  0  0  0  0  0  0  0  0  0  0  0  # atno 17343 bound_to 10162
  157.7423  130.9887  150.2506 LP  0  0  0  0  0  0  0  0  0  0  0  0  # atno 17370 bound_to 10713
  156.3067  130.3766  149.7699 LP  0  0  0  0  0  0  0  0  0  0  0  0  # atno 17371 bound_to 10713
  140.4371  134.1720  155.7171 LP  0  0  0  0  0  0  0  0  0  0  0  0  # atno 17394 bound_to 11000
  141.1780  133.8474  157.1357 LP  0  0  0  0  0  0  0  0  0  0  0  0  # atno 17395 bound_to 11000

$$$$
