AV-unprocessed.smi:2682|AV-procd|sdf|10375|dock2
  -GOLD-   2272014403D 1   1.00000     0.00000
 Structure written by MMmdl.
 29 29  0  0  0  0  0  0  0  0  2 V2000
  150.4241  135.4548  154.7793 C   0  0  0  0  0  0  0  0  0  0  0  0
  151.5636  136.2516  155.0506 O   0  0  0  0  0  0  0  0  0  0  0  0
  151.2221  137.5697  155.4466 C   0  0  0  0  0  0  0  0  0  0  0  0
  150.6081  138.3099  154.2548 C   0  0  0  0  0  0  0  0  0  0  0  0
  150.9565  139.6819  154.3314 O   0  0  0  0  0  0  0  0  0  0  0  0
  150.3151  140.3503  155.4066 C   0  0  0  0  0  0  0  0  0  0  0  0
  151.3017  140.4975  156.5642 C   0  0  0  0  0  0  0  0  0  0  0  0
  152.3410  139.8397  156.5501 O   0  0  0  0  0  0  0  0  0  0  0  0
  150.9346  141.3678  157.5256 N   0  0  0  0  0  0  0  0  0  0  0  0
  151.6064  141.7633  158.6958 C   0  0  0  0  0  0  0  0  0  0  0  0
  151.7272  143.0474  159.1354 C   0  0  0  0  0  0  0  0  0  0  0  0
  152.4322  143.3689  160.3643 C   0  0  0  0  0  0  0  0  0  0  0  0
  152.9400  142.2658  161.0136 C   0  0  0  0  0  0  0  0  0  0  0  0
  152.8572  140.9681  160.6489 N   0  5  0  0  0  0  0  0  0  0  0  0
  152.1977  140.6652  159.4932 C   0  0  0  0  0  0  0  0  0  0  0  0
  152.0855  139.5016  159.1046 O   0  0  0  0  0  0  0  0  0  0  0  0
  150.7387  134.4532  154.4866 H   0  0  0  0  0  0  0  0  0  0  0  0
  149.8349  135.8746  153.9629 H   0  0  0  0  0  0  0  0  0  0  0  0
  149.7876  135.3639  155.6605 H   0  0  0  0  0  0  0  0  0  0  0  0
  150.4942  137.5216  156.2578 H   0  0  0  0  0  0  0  0  0  0  0  0
  152.0952  138.1067  155.8209 H   0  0  0  0  0  0  0  0  0  0  0  0
  150.9458  137.8705  153.3147 H   0  0  0  0  0  0  0  0  0  0  0  0
  149.5218  138.2152  154.2903 H   0  0  0  0  0  0  0  0  0  0  0  0
  149.9653  141.3338  155.0877 H   0  0  0  0  0  0  0  0  0  0  0  0
  149.4488  139.7821  155.7489 H   0  0  0  0  0  0  0  0  0  0  0  0
  150.0276  141.7960  157.4079 H   0  0  0  0  0  0  0  0  0  0  0  0
  151.2969  143.8748  158.5970 H   0  0  0  0  0  0  0  0  0  0  0  0
  152.5474  144.3775  160.7321 H   0  0  0  0  0  0  0  0  0  0  0  0
  153.4903  142.4548  161.9600 H   0  0  0  0  0  0  0  0  0  0  0  0
  1  2  1  0  0  0  0
  1 17  1  0  0  0  0
  1 18  1  0  0  0  0
  1 19  1  0  0  0  0
  2  3  1  0  0  0  0
  3  4  1  0  0  0  0
  3 20  1  0  0  0  0
  3 21  1  0  0  0  0
  4  5  1  0  0  0  0
  4 22  1  0  0  0  0
  4 23  1  0  0  0  0
  5  6  1  0  0  0  0
  6  7  1  0  0  0  0
  6 24  1  0  0  0  0
  6 25  1  0  0  0  0
  7  8  2  0  0  0  0
  7  9  1  0  0  0  0
  9 26  1  0  0  0  0
  9 10  1  0  0  0  0
 10 11  2  0  0  0  0
 10 15  1  0  0  0  0
 11 12  1  0  0  0  0
 11 27  1  0  0  0  0
 12 13  2  0  0  0  0
 12 28  1  0  0  0  0
 13 14  1  0  0  0  0
 13 29  1  0  0  0  0
 14 15  1  0  0  0  0
 15 16  2  0  0  0  0
M  CHG  1  14  -1
M  END
> <s_m_source_file>
AV-unprocessed.smi

> <i_m_source_file_index>
2682

> <i_lp_mmshare_version>
43012

> <i_f3d_flags>
0

> <s_epik_input>
W0NIM11PW0NIMl1bQ0gyXU9bQ0gyXUMoPU8pW05IXWMxW2NIXVtjSF1bY0hdbmMxW09IXQ==

> <s_epik_cmdline>
J2VwaWtfcHl0aG9uJywgJy1waCcsICc3LjAnLCAnLXRuJywgJzgnLCAnLW1hJywgJzIwMCcsICctbWV0YWxfYmluZGluZycsICctaW1hZScsICc8aW5maWxlLm1hZT4nLCAnLW9tYWUnLCAnPG91dGZpbGUubWFlPic=

> <r_lp_tautomer_probability>
1

> <r_epik_Ionization_Penalty>
5.6643

> <r_epik_Ionization_Penalty_Charging>
0.525144

> <r_epik_Ionization_Penalty_Neutral>
5.13916

> <r_epik_State_Penalty>
5.13906

> <r_epik_Charging_Adjusted_Penalty>
5.6642

> <i_epik_Tot_Q>
-1

> <i_epik_Tot_abs_Q>
1

> <r_epik_Metal_State_Penalty>
1.22048

> <b_epik_Metal_Only>
1

> <s_lp_Force_Field>
OPLS_2005

> <r_lp_Energy>
18.608

> <b_lp_Chiralities_Consistent>
1

> <s_lp_Variant>
AV-unprocessed.smi:2682-2

> <Gold.Version>
5.8.1

> <Gold.Id.Protein>
6NUR|6NUR_protein|mol2

> <Gold.PLP.Fitness>
37.4609

> <Gold.PLP.PLP>
-30.5864

> <Gold.PLP.part.hbond>
-3.0000

> <Gold.PLP.part.metal>
0.0000

> <Gold.PLP.part.buried>
-4.1153

> <Gold.PLP.part.nonpolar>
-23.4998

> <Gold.PLP.part.repulsive>
0.3046

> <Gold.PLP.ligand.clash>
0.0000

> <Gold.PLP.ligand.torsion>
1.0982

> <Gold.PLP.Chemscore.Hbond>
3.0000

> <Gold.PLP.Chemscore.CHOScore>
0.0000

> <Gold.PLP.Chemscore.Metal>
0.0000

> <Gold.Chemscore.Hbonds>
donor molecule, donor type, donor heavy atom, donor atom, acceptor molecule, acceptor atom, score
      P1  H  7989  7998       L1     5  1.00
      P1  H  7997  8008       L1     8  0.99
      P1  H 10752 10765       L1     2  1.00

> <Gold.PLP.Chemscore.Internal.Correction>
0.0709

> <Gold.Rescore>
     Score         DG    S(hbond)    S(metal)    S(lipo)     H(rot)  DE(clash)    DE(int)     intcor
     11.56     -16.46       2.63        0.00      64.86       2.11       0.11       4.79       ----

> <Gold.Chemscore.Fitness>
11.5560

> <Gold.Chemscore.DG>
-16.4550

> <Gold.Chemscore.ZeroCoef>
-5.4800

> <Gold.Chemscore.Hbond>
2.6345

> <Gold.Chemscore.Metal>
0.0000

> <Gold.Chemscore.Lipo>
64.8646

> <Gold.Chemscore.Internal_Hbond>
0.0000

> <Gold.Chemscore.DEClash>
0.1103

> <Gold.Chemscore.DEInternal>
4.7888

> <Gold.Chemscore.Rot>
2.1146

> <Gold.Chemscore.Internal.Correction>
   9.000000E+99

> <Gold.Chemscore.Hbonds>
donor molecule, donor type, donor heavy atom, donor atom, acceptor molecule, acceptor atom, score
      P1  H  7989  7998       L1     5  0.44
      P1  H  7997  8008       L1     8  0.93
      P1  H 10752 10765       L1     2  0.84

> <Gold.Chemscore.Hbond.Weighted>
-8.7991

> <Gold.Chemscore.Metal.Weighted>
-0.0000

> <Gold.Chemscore.Lipo.Weighted>
-7.5892

> <Gold.Chemscore.Internal_Hbond.Weighted>
0.0000

> <Gold.Chemscore.DEClash.Weighted>
0.1103

> <Gold.Chemscore.DEInternal.Weighted>
4.7888

> <Gold.Chemscore.Rot.Weighted>
5.4133

> <Gold.Chemscore.Internal.Correction.Weighted>
   9.000000E+99

> <Gold.Protein.RotatedTorsions>
[ 6907 6896 6895 6894 ] final   87.55 input  -60.11 | X-H torsion
[ 7974 7965 7964 7962 ] final   59.63 input  175.53 | X-H torsion
[ 8008 7997 7996 7995 ] final  -39.84 input   59.86 | X-H torsion
[ 10167 10162 10161 10158 ] final  161.42 input  -65.29 | X-H torsion
[ 10718 10713 10712 10709 ] final  -42.64 input   66.30 | X-H torsion
[ 10763 10752 10751 10750 ] final  175.30 input  -60.55 | X-H torsion
[ 11005 11000 10999 10996 ] final  -88.60 input  -57.11 | X-H torsion

> <Gold.Protein.ActiveResidues>
 VAL166  LYS551  ARG553  GLY616  TRP617  ASP618  TYR619  PRO620  LYS621  CYS622 
 ASP623  PHE694  ASN695  SER759  ASP760  ASP761  ALA762  ILE779  LEU786  VAL792 
 PHE793  MET794  SER795  GLU796  ALA797  LYS798  CYS799  TRP800  GLU811  SER814 

> <Gold.Protein.RotatedAtoms>
  152.5412  134.2259  159.8805 H   0  0  0  0  0  0  0  0  0  0  0  0  # atno 6907 bound_to 6896
  151.2234  133.4483  159.2609 H   0  0  0  0  0  0  0  0  0  0  0  0  # atno 6908 bound_to 6896
  151.0784  134.9856  159.8399 H   0  0  0  0  0  0  0  0  0  0  0  0  # atno 6909 bound_to 6896
  145.9050  139.3610  143.0570 H   0  0  0  0  0  0  0  0  0  0  0  0  # atno 7974 bound_to 7965
  154.4018  140.1541  156.2930 H   0  0  0  0  0  0  0  0  0  0  0  0  # atno 8008 bound_to 7997
  155.8769  140.3446  155.5838 H   0  0  0  0  0  0  0  0  0  0  0  0  # atno 8009 bound_to 7997
  155.7711  140.0830  157.2098 H   0  0  0  0  0  0  0  0  0  0  0  0  # atno 8010 bound_to 7997
  139.4849  144.4538  151.8795 H   0  0  0  0  0  0  0  0  0  0  0  0  # atno 10167 bound_to 10162
  156.2574  130.4193  149.8580 H   0  0  0  0  0  0  0  0  0  0  0  0  # atno 10718 bound_to 10713
  154.4657  135.2769  155.1680 H   0  0  0  0  0  0  0  0  0  0  0  0  # atno 10763 bound_to 10752
  154.3449  135.6162  153.5618 H   0  0  0  0  0  0  0  0  0  0  0  0  # atno 10764 bound_to 10752
  152.9859  135.5797  154.5028 H   0  0  0  0  0  0  0  0  0  0  0  0  # atno 10765 bound_to 10752
  141.1599  133.7580  156.9475 H   0  0  0  0  0  0  0  0  0  0  0  0  # atno 11005 bound_to 11000
  145.8744  140.9401  143.0634 LP  0  0  0  0  0  0  0  0  0  0  0  0  # atno 17320 bound_to 7965
  144.6738  140.0697  143.7473 LP  0  0  0  0  0  0  0  0  0  0  0  0  # atno 17321 bound_to 7965
  140.3996  144.2510  150.5894 LP  0  0  0  0  0  0  0  0  0  0  0  0  # atno 17342 bound_to 10162
  140.5069  143.2301  151.8594 LP  0  0  0  0  0  0  0  0  0  0  0  0  # atno 17343 bound_to 10162
  156.6108  130.8585  151.3453 LP  0  0  0  0  0  0  0  0  0  0  0  0  # atno 17370 bound_to 10713
  157.7238  130.9594  150.1547 LP  0  0  0  0  0  0  0  0  0  0  0  0  # atno 17371 bound_to 10713
  140.1279  134.9374  157.2296 LP  0  0  0  0  0  0  0  0  0  0  0  0  # atno 17394 bound_to 11000
  140.2989  134.3154  155.7295 LP  0  0  0  0  0  0  0  0  0  0  0  0  # atno 17395 bound_to 11000

$$$$
