AV-unprocessed.smi:1824|AV-procd|sdf|7402|dock6
  -GOLD-   22720 9 73D 1   1.00000     0.00000
 Structure written by MMmdl.
 45 47  0  0  0  0  0  0  0  0  2 V2000
  148.9933  141.5536  154.5183 C   0  0  0  0  0  0  0  0  0  0  0  0
  149.4765  140.1373  154.8479 C   0  0  1  0  0  0  0  0  0  0  0  0
  148.8668  139.0832  153.8986 C   0  0  0  0  0  0  0  0  0  0  0  0
  149.4386  137.7329  154.1357 N   0  3  2  0  0  0  0  0  0  0  0  0
  148.8833  137.0146  155.3152 C   0  0  0  0  0  0  0  0  0  0  0  0
  149.0883  135.4895  155.2237 C   0  0  1  0  0  0  0  0  0  0  0  0
  149.9573  135.0820  156.2638 O   0  0  0  0  0  0  0  0  0  0  0  0
  147.7583  134.7203  155.3422 C   0  0  0  0  0  0  0  0  0  0  0  0
  147.6360  133.6723  154.3448 N   0  0  0  0  0  0  0  0  0  0  0  0
  148.3458  132.5297  154.2709 C   0  0  0  0  0  0  0  0  0  0  0  0
  148.0727  131.7068  153.2626 N   0  0  0  0  0  0  0  0  0  0  0  0
  147.0653  132.3928  152.6063 C   0  0  0  0  0  0  0  0  0  0  0  0
  146.3335  132.0587  151.4446 C   0  0  0  0  0  0  0  0  0  0  0  0
  145.3356  132.9263  150.9538 C   0  0  0  0  0  0  0  0  0  0  0  0
  144.6420  132.5895  149.8407 F   0  0  0  0  0  0  0  0  0  0  0  0
  145.0561  134.1406  151.6157 C   0  0  0  0  0  0  0  0  0  0  0  0
  144.0962  134.9679  151.1385 F   0  0  0  0  0  0  0  0  0  0  0  0
  145.7741  134.4963  152.7736 C   0  0  0  0  0  0  0  0  0  0  0  0
  146.7674  133.6266  153.2599 C   0  0  0  0  0  0  0  0  0  0  0  0
  150.9207  137.7842  154.1094 C   0  0  0  0  0  0  0  0  0  0  0  0
  151.4619  138.8582  155.0745 C   0  0  1  0  0  0  0  0  0  0  0  0
  152.9873  138.9870  154.9978 C   0  0  0  0  0  0  0  0  0  0  0  0
  150.8947  140.1161  154.7258 O   0  0  0  0  0  0  0  0  0  0  0  0
  147.9091  141.6293  154.6050 H   0  0  0  0  0  0  0  0  0  0  0  0
  149.2693  141.8392  153.5028 H   0  0  0  0  0  0  0  0  0  0  0  0
  149.4327  142.2830  155.1994 H   0  0  0  0  0  0  0  0  0  0  0  0
  149.2039  139.9188  155.8811 H   0  0  0  0  0  0  0  0  0  0  0  0
  147.7811  139.0717  153.9845 H   0  0  0  0  0  0  0  0  0  0  0  0
  149.0848  139.3601  152.8660 H   0  0  0  0  0  0  0  0  0  0  0  0
  149.3687  137.3716  156.2248 H   0  0  0  0  0  0  0  0  0  0  0  0
  147.8247  137.2477  155.4304 H   0  0  0  0  0  0  0  0  0  0  0  0
  149.5536  135.2284  154.2737 H   0  0  0  0  0  0  0  0  0  0  0  0
  150.0084  135.7734  156.9063 H   0  0  0  0  0  0  0  0  0  0  0  0
  147.6576  134.2744  156.3330 H   0  0  0  0  0  0  0  0  0  0  0  0
  146.9159  135.4025  155.2209 H   0  0  0  0  0  0  0  0  0  0  0  0
  149.1100  132.2905  154.9960 H   0  0  0  0  0  0  0  0  0  0  0  0
  146.5392  131.1321  150.9293 H   0  0  0  0  0  0  0  0  0  0  0  0
  145.5619  135.4252  153.2813 H   0  0  0  0  0  0  0  0  0  0  0  0
  151.3422  136.8045  154.3373 H   0  0  0  0  0  0  0  0  0  0  0  0
  151.2338  138.0195  153.0912 H   0  0  0  0  0  0  0  0  0  0  0  0
  151.1888  138.6108  156.1017 H   0  0  0  0  0  0  0  0  0  0  0  0
  153.4743  138.0488  155.2650 H   0  0  0  0  0  0  0  0  0  0  0  0
  153.3486  139.7547  155.6825 H   0  0  0  0  0  0  0  0  0  0  0  0
  153.3121  139.2589  153.9931 H   0  0  0  0  0  0  0  0  0  0  0  0
  149.1715  137.1650  153.3436 H   0  0  0  0  0  0  0  0  0  0  0  0
  1  2  1  0  0  0  0
  1 24  1  0  0  0  0
  1 25  1  0  0  0  0
  1 26  1  0  0  0  0
  2 23  1  0  0  0  0
  2  3  1  0  0  0  0
  2 27  1  0  0  0  0
  3  4  1  0  0  0  0
  3 28  1  0  0  0  0
  3 29  1  0  0  0  0
  4  5  1  0  0  0  0
  4 20  1  0  0  0  0
  4 45  1  0  0  0  0
  5  6  1  0  0  0  0
  5 30  1  0  0  0  0
  5 31  1  0  0  0  0
  6  7  1  0  0  0  0
  6  8  1  0  0  0  0
  6 32  1  0  0  0  0
  7 33  1  0  0  0  0
  8  9  1  0  0  0  0
  8 34  1  0  0  0  0
  8 35  1  0  0  0  0
  9 19  1  0  0  0  0
  9 10  1  0  0  0  0
 10 11  2  0  0  0  0
 10 36  1  0  0  0  0
 11 12  1  0  0  0  0
 12 19  2  0  0  0  0
 12 13  1  0  0  0  0
 13 14  2  0  0  0  0
 13 37  1  0  0  0  0
 14 15  1  0  0  0  0
 14 16  1  0  0  0  0
 16 17  1  0  0  0  0
 16 18  2  0  0  0  0
 18 19  1  0  0  0  0
 18 38  1  0  0  0  0
 20 21  1  0  0  0  0
 20 39  1  0  0  0  0
 20 40  1  0  0  0  0
 21 22  1  0  0  0  0
 21 23  1  0  0  0  0
 21 41  1  0  0  0  0
 22 42  1  0  0  0  0
 22 43  1  0  0  0  0
 22 44  1  0  0  0  0
M  CHG  1   4   1
M  END
> <s_m_source_file>
AV-unprocessed.smi

> <i_m_source_file_index>
1824

> <i_lp_mmshare_version>
43012

> <i_f3d_flags>
0

> <s_epik_input>
W0NIM11bQ0BASF0xW0NIMl1OKFtDSDJdW0NASF0oTzEpW0NIM10pW0NIMl1bQ0BIXShbT0hdKVtDSDJdbihbY0hdbjIpYyhjMjMpW2NIXWMoRiljKEYpW2NIXTM=

> <s_epik_cmdline>
J2VwaWtfcHl0aG9uJywgJy1waCcsICc3LjAnLCAnLXRuJywgJzgnLCAnLW1hJywgJzIwMCcsICctbWV0YWxfYmluZGluZycsICctaW1hZScsICc8aW5maWxlLm1hZT4nLCAnLW9tYWUnLCAnPG91dGZpbGUubWFlPic=

> <r_epik_Ionization_Penalty>
0.61967

> <r_epik_Ionization_Penalty_Charging>
0.608065

> <r_epik_Ionization_Penalty_Neutral>
0.0116057

> <r_epik_State_Penalty>
0.664205

> <r_epik_Charging_Adjusted_Penalty>
1.27227

> <i_epik_Tot_Q>
1

> <i_epik_Tot_abs_Q>
1

> <r_epik_Metal_State_Penalty>
0.654947

> <b_epik_Metal_Only>
0

> <s_lp_Force_Field>
OPLS_2005

> <r_lp_Energy>
21.9473

> <b_lp_Chiralities_Consistent>
1

> <s_lp_Variant>
AV-unprocessed.smi:1824-10

> <Gold.Version>
5.8.1

> <Gold.Id.Protein>
6NUR|6NUR_protein|mol2

> <Gold.PLP.Fitness>
44.2661

> <Gold.PLP.PLP>
-38.3909

> <Gold.PLP.part.hbond>
-2.0000

> <Gold.PLP.part.metal>
0.0000

> <Gold.PLP.part.buried>
-1.8442

> <Gold.PLP.part.nonpolar>
-35.7321

> <Gold.PLP.part.repulsive>
0.1941

> <Gold.PLP.ligand.clash>
0.0000

> <Gold.PLP.ligand.torsion>
1.5997

> <Gold.PLP.Chemscore.Hbond>
3.0000

> <Gold.PLP.Chemscore.CHOScore>
0.0000

> <Gold.PLP.Chemscore.Metal>
0.0000

> <Gold.Chemscore.Hbonds>
donor molecule, donor type, donor heavy atom, donor atom, acceptor molecule, acceptor atom, score
      L1  H     4    45       P1  7948  2.00
      P1  H  7989  7998       L1    23  1.00

> <Gold.PLP.Chemscore.Internal.Correction>
0.0745

> <Gold.Rescore>
     Score         DG    S(hbond)    S(metal)    S(lipo)     H(rot)  DE(clash)    DE(int)     intcor
     14.17     -15.99       1.88        0.00      86.90       2.33       0.31       1.50       ----

> <Gold.Chemscore.Fitness>
14.1728

> <Gold.Chemscore.DG>
-15.9858

> <Gold.Chemscore.ZeroCoef>
-5.4800

> <Gold.Chemscore.Hbond>
1.8835

> <Gold.Chemscore.Metal>
0.0000

> <Gold.Chemscore.Lipo>
86.8982

> <Gold.Chemscore.Internal_Hbond>
0.0000

> <Gold.Chemscore.DEClash>
0.3094

> <Gold.Chemscore.DEInternal>
1.5036

> <Gold.Chemscore.Rot>
2.3251

> <Gold.Chemscore.Internal.Correction>
   9.000000E+99

> <Gold.Chemscore.Hbonds>
donor molecule, donor type, donor heavy atom, donor atom, acceptor molecule, acceptor atom, score
      L1  H     4    45       P1  7948  1.00
      P1  H  7989  7998       L1    23  0.88

> <Gold.Chemscore.Hbond.Weighted>
-6.2911

> <Gold.Chemscore.Metal.Weighted>
-0.0000

> <Gold.Chemscore.Lipo.Weighted>
-10.1671

> <Gold.Chemscore.Internal_Hbond.Weighted>
0.0000

> <Gold.Chemscore.DEClash.Weighted>
0.3094

> <Gold.Chemscore.DEInternal.Weighted>
1.5036

> <Gold.Chemscore.Rot.Weighted>
5.9523

> <Gold.Chemscore.Internal.Correction.Weighted>
   9.000000E+99

> <Gold.Protein.RotatedTorsions>
[ 6907 6896 6895 6894 ] final   97.27 input  -60.11 | X-H torsion
[ 7974 7965 7964 7962 ] final   -3.26 input  175.53 | X-H torsion
[ 8008 7997 7996 7995 ] final  146.06 input   59.86 | X-H torsion
[ 10167 10162 10161 10158 ] final   51.98 input  -65.29 | X-H torsion
[ 10718 10713 10712 10709 ] final  129.28 input   66.30 | X-H torsion
[ 10763 10752 10751 10750 ] final   30.37 input  -60.55 | X-H torsion
[ 11005 11000 10999 10996 ] final -109.07 input  -57.11 | X-H torsion

> <Gold.Protein.ActiveResidues>
 VAL166  LYS551  ARG553  GLY616  TRP617  ASP618  TYR619  PRO620  LYS621  CYS622 
 ASP623  PHE694  ASN695  SER759  ASP760  ASP761  ALA762  ILE779  LEU786  VAL792 
 PHE793  MET794  SER795  GLU796  ALA797  LYS798  CYS799  TRP800  GLU811  SER814 

> <Gold.Protein.RotatedAtoms>
  152.5425  134.0759  159.8214 H   0  0  0  0  0  0  0  0  0  0  0  0  # atno 6907 bound_to 6896
  151.0867  133.5340  159.2624 H   0  0  0  0  0  0  0  0  0  0  0  0  # atno 6908 bound_to 6896
  151.2146  135.0503  159.8979 H   0  0  0  0  0  0  0  0  0  0  0  0  # atno 6909 bound_to 6896
  146.2392  140.1695  142.8332 H   0  0  0  0  0  0  0  0  0  0  0  0  # atno 7974 bound_to 7965
  156.2866  140.2192  156.5316 H   0  0  0  0  0  0  0  0  0  0  0  0  # atno 8008 bound_to 7997
  154.7444  140.0485  157.0861 H   0  0  0  0  0  0  0  0  0  0  0  0  # atno 8009 bound_to 7997
  155.0189  140.3122  155.4804 H   0  0  0  0  0  0  0  0  0  0  0  0  # atno 8010 bound_to 7997
  140.2561  144.3425  150.6332 H   0  0  0  0  0  0  0  0  0  0  0  0  # atno 10167 bound_to 10162
  157.5169  131.1097  150.9211 H   0  0  0  0  0  0  0  0  0  0  0  0  # atno 10718 bound_to 10713
  153.0375  135.6466  154.1034 H   0  0  0  0  0  0  0  0  0  0  0  0  # atno 10763 bound_to 10752
  154.0747  135.2878  155.3303 H   0  0  0  0  0  0  0  0  0  0  0  0  # atno 10764 bound_to 10752
  154.6571  135.5405  153.8036 H   0  0  0  0  0  0  0  0  0  0  0  0  # atno 10765 bound_to 10752
  141.0867  133.9126  157.2169 H   0  0  0  0  0  0  0  0  0  0  0  0  # atno 11005 bound_to 11000
  145.0023  140.8643  143.5274 LP  0  0  0  0  0  0  0  0  0  0  0  0  # atno 17320 bound_to 7965
  145.1716  139.2401  143.5339 LP  0  0  0  0  0  0  0  0  0  0  0  0  # atno 17321 bound_to 7965
  140.6002  143.2167  151.7086 LP  0  0  0  0  0  0  0  0  0  0  0  0  # atno 17342 bound_to 10162
  139.5031  144.3804  152.0381 LP  0  0  0  0  0  0  0  0  0  0  0  0  # atno 17343 bound_to 10162
  156.9834  130.5535  149.5298 LP  0  0  0  0  0  0  0  0  0  0  0  0  # atno 17370 bound_to 10713
  156.0326  130.5416  150.8574 LP  0  0  0  0  0  0  0  0  0  0  0  0  # atno 17371 bound_to 10713
  139.9687  135.0134  156.9454 LP  0  0  0  0  0  0  0  0  0  0  0  0  # atno 17394 bound_to 11000
  140.5346  134.0780  155.7325 LP  0  0  0  0  0  0  0  0  0  0  0  0  # atno 17395 bound_to 11000

$$$$
