AV-unprocessed.smi:2953|AV-procd|sdf|11296|dock6
  -GOLD-   2272016193D 1   1.00000     0.00000
 Structure written by MMmdl.
 46 48  0  0  0  0  0  0  0  0  2 V2000
  148.1110  132.3140  160.5133 C   0  0  0  0  0  0  0  0  0  0  0  0
  147.8156  133.6210  161.2241 C   0  0  0  0  0  0  0  0  0  0  0  0
  147.2247  133.5859  162.5046 C   0  0  0  0  0  0  0  0  0  0  0  0
  146.9372  134.7808  163.1879 C   0  0  0  0  0  0  0  0  0  0  0  0
  147.2384  136.0167  162.5899 C   0  0  0  0  0  0  0  0  0  0  0  0
  147.8265  136.0581  161.3116 C   0  0  0  0  0  0  0  0  0  0  0  0
  148.1232  134.8598  160.6115 C   0  0  0  0  0  0  0  0  0  0  0  0
  148.6970  134.8333  159.3558 O   0  0  0  0  0  0  0  0  0  0  0  0
  148.6092  136.0033  158.5521 C   0  0  0  0  0  0  0  0  0  0  0  0
  149.9938  136.3474  157.9866 C   0  0  0  0  0  0  0  0  0  0  0  0
  149.9336  136.8473  156.6042 N   0  0  0  0  0  0  0  0  0  0  0  0
  149.7509  136.1899  155.4203 C   0  0  0  0  0  0  0  0  0  0  0  0
  149.5747  134.7123  155.2177 C   0  0  1  0  0  0  0  0  0  0  0  0
  148.4981  134.1501  156.1581 C   0  0  0  0  0  0  0  0  0  0  0  0
  149.2184  134.3978  153.8393 N   0  0  0  0  0  0  0  0  0  0  0  0
  149.0254  133.1599  153.3676 C   0  0  0  0  0  0  0  0  0  0  0  0
  149.1299  132.1533  154.0633 O   0  0  0  0  0  0  0  0  0  0  0  0
  149.8058  137.1282  154.4309 N   0  3  0  0  0  0  0  0  0  0  0  0
  150.0048  138.3927  154.9837 C   0  0  0  0  0  0  0  0  0  0  0  0
  150.1191  139.6426  154.3830 C   0  0  0  0  0  0  0  0  0  0  0  0
  150.3246  140.7414  155.2431 C   0  0  0  0  0  0  0  0  0  0  0  0
  150.4079  140.5739  156.6406 C   0  0  0  0  0  0  0  0  0  0  0  0
  150.2894  139.3013  157.2374 C   0  0  0  0  0  0  0  0  0  0  0  0
  150.0877  138.2201  156.3796 C   0  0  0  0  0  0  0  0  0  0  0  0
  148.1790  131.4884  161.2224 H   0  0  0  0  0  0  0  0  0  0  0  0
  149.0554  132.3630  159.9708 H   0  0  0  0  0  0  0  0  0  0  0  0
  147.3128  132.0891  159.8067 H   0  0  0  0  0  0  0  0  0  0  0  0
  146.9884  132.6397  162.9689 H   0  0  0  0  0  0  0  0  0  0  0  0
  146.4856  134.7488  164.1685 H   0  0  0  0  0  0  0  0  0  0  0  0
  147.0173  136.9359  163.1119 H   0  0  0  0  0  0  0  0  0  0  0  0
  148.0368  137.0286  160.8887 H   0  0  0  0  0  0  0  0  0  0  0  0
  147.9026  135.8472  157.7354 H   0  0  0  0  0  0  0  0  0  0  0  0
  148.2523  136.8436  159.1495 H   0  0  0  0  0  0  0  0  0  0  0  0
  150.4903  137.0951  158.6060 H   0  0  0  0  0  0  0  0  0  0  0  0
  150.6330  135.4660  158.0062 H   0  0  0  0  0  0  0  0  0  0  0  0
  150.5137  134.2118  155.4584 H   0  0  0  0  0  0  0  0  0  0  0  0
  148.7301  134.3764  157.1981 H   0  0  0  0  0  0  0  0  0  0  0  0
  148.4233  133.0660  156.0652 H   0  0  0  0  0  0  0  0  0  0  0  0
  147.5143  134.5685  155.9417 H   0  0  0  0  0  0  0  0  0  0  0  0
  149.1094  135.1725  153.2007 H   0  0  0  0  0  0  0  0  0  0  0  0
  148.7646  133.1611  152.2986 H   0  0  0  0  0  0  0  0  0  0  0  0
  150.0561  139.7731  153.3125 H   0  0  0  0  0  0  0  0  0  0  0  0
  150.4208  141.7322  154.8226 H   0  0  0  0  0  0  0  0  0  0  0  0
  150.5670  141.4391  157.2683 H   0  0  0  0  0  0  0  0  0  0  0  0
  150.3537  139.1842  158.3090 H   0  0  0  0  0  0  0  0  0  0  0  0
  149.7121  136.9134  153.4467 H   0  0  0  0  0  0  0  0  0  0  0  0
  1  2  1  0  0  0  0
  1 25  1  0  0  0  0
  1 26  1  0  0  0  0
  1 27  1  0  0  0  0
  2  7  1  0  0  0  0
  2  3  2  0  0  0  0
  3  4  1  0  0  0  0
  3 28  1  0  0  0  0
  4  5  2  0  0  0  0
  4 29  1  0  0  0  0
  5  6  1  0  0  0  0
  5 30  1  0  0  0  0
  6  7  2  0  0  0  0
  6 31  1  0  0  0  0
  7  8  1  0  0  0  0
  8  9  1  0  0  0  0
  9 10  1  0  0  0  0
  9 32  1  0  0  0  0
  9 33  1  0  0  0  0
 10 11  1  0  0  0  0
 10 34  1  0  0  0  0
 10 35  1  0  0  0  0
 11 24  1  0  0  0  0
 11 12  1  0  0  0  0
 12 13  1  0  0  0  0
 12 18  2  0  0  0  0
 13 14  1  0  0  0  0
 13 15  1  0  0  0  0
 13 36  1  0  0  0  0
 14 37  1  0  0  0  0
 14 38  1  0  0  0  0
 14 39  1  0  0  0  0
 15 16  1  0  0  0  0
 15 40  1  0  0  0  0
 16 17  2  0  0  0  0
 16 41  1  0  0  0  0
 18 19  1  0  0  0  0
 18 46  1  0  0  0  0
 19 24  2  0  0  0  0
 19 20  1  0  0  0  0
 20 21  2  0  0  0  0
 20 42  1  0  0  0  0
 21 22  1  0  0  0  0
 21 43  1  0  0  0  0
 22 23  2  0  0  0  0
 22 44  1  0  0  0  0
 23 24  1  0  0  0  0
 23 45  1  0  0  0  0
M  CHG  1  18   1
M  END
> <s_m_source_file>
AV-unprocessed.smi

> <i_m_source_file_index>
2953

> <i_lp_mmshare_version>
43012

> <i_f3d_flags>
0

> <s_epik_input>
W0NIM11jMVtjSF1bY0hdW2NIXVtjSF1jMU9bQ0gyXVtDSDJdbihjKG4yKVtDQEhdKFtDSDNdKVtOSF1bQ0hdPU8pYyhjMjMpW2NIXVtjSF1bY0hdW2NIXTM=

> <s_epik_cmdline>
J2VwaWtfcHl0aG9uJywgJy1waCcsICc3LjAnLCAnLXRuJywgJzgnLCAnLW1hJywgJzIwMCcsICctbWV0YWxfYmluZGluZycsICctaW1hZScsICc8aW5maWxlLm1hZT4nLCAnLW9tYWUnLCAnPG91dGZpbGUubWFlPic=

> <r_lp_tautomer_probability>
1

> <r_epik_Ionization_Penalty>
1.14644

> <r_epik_Ionization_Penalty_Charging>
1.14644

> <r_epik_Ionization_Penalty_Neutral>
5.5802e-08

> <r_epik_State_Penalty>
1.20743

> <r_epik_Charging_Adjusted_Penalty>
2.35387

> <i_epik_Tot_Q>
1

> <i_epik_Tot_abs_Q>
1

> <r_epik_Metal_State_Penalty>
1.28856

> <b_epik_Metal_Only>
0

> <s_lp_Force_Field>
OPLS_2005

> <r_lp_Energy>
17.243

> <b_lp_Chiralities_Consistent>
1

> <s_lp_Variant>
AV-unprocessed.smi:2953-4

> <Gold.Version>
5.8.1

> <Gold.Id.Protein>
6NUR|6NUR_protein|mol2

> <Gold.PLP.Fitness>
45.9360

> <Gold.PLP.PLP>
-36.7830

> <Gold.PLP.part.hbond>
-3.0000

> <Gold.PLP.part.metal>
0.0000

> <Gold.PLP.part.buried>
-0.6931

> <Gold.PLP.part.nonpolar>
-33.9293

> <Gold.PLP.part.repulsive>
0.1064

> <Gold.PLP.ligand.clash>
0.0000

> <Gold.PLP.ligand.torsion>
1.3124

> <Gold.PLP.Chemscore.Hbond>
3.8938

> <Gold.PLP.Chemscore.CHOScore>
0.0000

> <Gold.PLP.Chemscore.Metal>
0.0000

> <Gold.Chemscore.Hbonds>
donor molecule, donor type, donor heavy atom, donor atom, acceptor molecule, acceptor atom, score
      L1  H    15    40       P1  7948  0.90
      L1  H    18    46       P1  7948  2.00
      P1  H  6896  6908       L1     8  1.00

> <Gold.PLP.Chemscore.Internal.Correction>
0.0967

> <Gold.Rescore>
     Score         DG    S(hbond)    S(metal)    S(lipo)     H(rot)  DE(clash)    DE(int)     intcor
     16.36     -18.99       2.32        0.00     100.08       2.32       0.14       2.49       ----

> <Gold.Chemscore.Fitness>
16.3636

> <Gold.Chemscore.DG>
-18.9864

> <Gold.Chemscore.ZeroCoef>
-5.4800

> <Gold.Chemscore.Hbond>
2.3179

> <Gold.Chemscore.Metal>
0.0000

> <Gold.Chemscore.Lipo>
100.0810

> <Gold.Chemscore.Internal_Hbond>
0.0000

> <Gold.Chemscore.DEClash>
0.1375

> <Gold.Chemscore.DEInternal>
2.4853

> <Gold.Chemscore.Rot>
2.3223

> <Gold.Chemscore.Internal.Correction>
   9.000000E+99

> <Gold.Chemscore.Hbonds>
donor molecule, donor type, donor heavy atom, donor atom, acceptor molecule, acceptor atom, score
      L1  H    15    40       P1  7948  0.18
      L1  H    18    46       P1  7948  0.60
      P1  H  6896  6908       L1     8  0.43

> <Gold.Chemscore.Hbond.Weighted>
-7.7419

> <Gold.Chemscore.Metal.Weighted>
-0.0000

> <Gold.Chemscore.Lipo.Weighted>
-11.7095

> <Gold.Chemscore.Internal_Hbond.Weighted>
0.0000

> <Gold.Chemscore.DEClash.Weighted>
0.1375

> <Gold.Chemscore.DEInternal.Weighted>
2.4853

> <Gold.Chemscore.Rot.Weighted>
5.9450

> <Gold.Chemscore.Internal.Correction.Weighted>
   9.000000E+99

> <Gold.Protein.RotatedTorsions>
[ 6907 6896 6895 6894 ] final  156.34 input  -60.11 | X-H torsion
[ 7974 7965 7964 7962 ] final -102.51 input  175.53 | X-H torsion
[ 8008 7997 7996 7995 ] final -107.42 input   59.86 | X-H torsion
[ 10167 10162 10161 10158 ] final -170.43 input  -65.29 | X-H torsion
[ 10718 10713 10712 10709 ] final   74.65 input   66.30 | X-H torsion
[ 10763 10752 10751 10750 ] final  -80.50 input  -60.55 | X-H torsion
[ 11005 11000 10999 10996 ] final -104.40 input  -57.11 | X-H torsion

> <Gold.Protein.ActiveResidues>
 VAL166  LYS551  ARG553  GLY616  TRP617  ASP618  TYR619  PRO620  LYS621  CYS622 
 ASP623  PHE694  ASN695  SER759  ASP760  ASP761  ALA762  ILE779  LEU786  VAL792 
 PHE793  MET794  SER795  GLU796  ALA797  LYS798  CYS799  TRP800  GLU811  SER814 

> <Gold.Protein.RotatedAtoms>
  152.0312  133.3938  159.4297 H   0  0  0  0  0  0  0  0  0  0  0  0  # atno 6907 bound_to 6896
  150.6882  134.3519  159.4922 H   0  0  0  0  0  0  0  0  0  0  0  0  # atno 6908 bound_to 6896
  152.1305  134.9138  160.0609 H   0  0  0  0  0  0  0  0  0  0  0  0  # atno 6909 bound_to 6896
  145.2677  140.9289  143.3004 H   0  0  0  0  0  0  0  0  0  0  0  0  # atno 7974 bound_to 7965
  154.9291  140.0405  157.2038 H   0  0  0  0  0  0  0  0  0  0  0  0  # atno 8008 bound_to 7997
  154.8178  140.2878  155.5786 H   0  0  0  0  0  0  0  0  0  0  0  0  # atno 8009 bound_to 7997
  156.2977  140.2524  156.3079 H   0  0  0  0  0  0  0  0  0  0  0  0  # atno 8010 bound_to 7997
  139.5862  144.1313  152.1578 H   0  0  0  0  0  0  0  0  0  0  0  0  # atno 10167 bound_to 10162
  157.6601  130.9688  150.1242 H   0  0  0  0  0  0  0  0  0  0  0  0  # atno 10718 bound_to 10713
  154.5520  135.5659  153.6930 H   0  0  0  0  0  0  0  0  0  0  0  0  # atno 10763 bound_to 10752
  152.9992  135.6253  154.2361 H   0  0  0  0  0  0  0  0  0  0  0  0  # atno 10764 bound_to 10752
  154.2296  135.2866  155.2874 H   0  0  0  0  0  0  0  0  0  0  0  0  # atno 10765 bound_to 10752
  141.1102  133.8720  157.1606 H   0  0  0  0  0  0  0  0  0  0  0  0  # atno 11005 bound_to 11000
  144.9362  139.4241  143.6471 LP  0  0  0  0  0  0  0  0  0  0  0  0  # atno 17320 bound_to 7965
  146.3256  139.8299  142.8910 LP  0  0  0  0  0  0  0  0  0  0  0  0  # atno 17321 bound_to 7965
  140.0877  144.5647  150.7077 LP  0  0  0  0  0  0  0  0  0  0  0  0  # atno 17342 bound_to 10162
  140.7133  143.2523  151.4512 LP  0  0  0  0  0  0  0  0  0  0  0  0  # atno 17343 bound_to 10162
  156.2105  130.3666  149.8676 LP  0  0  0  0  0  0  0  0  0  0  0  0  # atno 17370 bound_to 10713
  156.6556  130.8761  151.3539 LP  0  0  0  0  0  0  0  0  0  0  0  0  # atno 17371 bound_to 10713
  139.9992  135.0034  157.0152 LP  0  0  0  0  0  0  0  0  0  0  0  0  # atno 17394 bound_to 11000
  140.4795  134.1304  155.7215 LP  0  0  0  0  0  0  0  0  0  0  0  0  # atno 17395 bound_to 11000

$$$$
