AV-unprocessed.smi:3129|AV-procd|sdf|11922|dock2
  -GOLD-   2272017303D 1   1.00000     0.00000
 Structure written by MMmdl.
 40 40  0  0  0  0  0  0  0  0  2 V2000
  141.6446  138.2509  153.4326 C   0  0  0  0  0  0  0  0  0  0  0  0
  142.5075  137.8081  154.6225 C   0  0  0  0  0  0  0  0  0  0  0  0
  142.8023  138.9968  155.5540 C   0  0  0  0  0  0  0  0  0  0  0  0
  143.7920  137.1019  154.1333 C   0  0  0  0  0  0  0  0  0  0  0  0
  144.7449  138.0168  153.5117 N   0  0  0  0  0  0  0  0  0  0  0  0
  146.0543  137.7738  153.3510 C   0  0  0  0  0  0  0  0  0  0  0  0
  146.5943  136.7215  153.6943 O   0  0  0  0  0  0  0  0  0  0  0  0
  146.8902  138.8900  152.7118 C   0  0  2  0  0  0  0  0  0  0  0  0
  146.4886  139.0770  151.2410 C   0  0  0  0  0  0  0  0  0  0  0  0
  148.3293  138.5641  152.8045 N   0  3  0  0  0  0  0  0  0  0  0  0
  148.9136  138.7050  154.1568 C   0  0  0  0  0  0  0  0  0  0  0  0
  149.0613  140.1836  154.5476 C   0  0  0  0  0  0  0  0  0  0  0  0
  150.1627  140.3907  155.4718 N   0  0  0  0  0  0  0  0  0  0  0  0
  150.3696  141.4408  156.3412 C   0  0  0  0  0  0  0  0  0  0  0  0
  151.5432  141.2007  156.9960 C   0  0  0  0  0  0  0  0  0  0  0  0
  151.9827  139.9587  156.4590 C   0  0  0  0  0  0  0  0  0  0  0  0
  151.1524  139.4750  155.5498 N   0  0  0  0  0  0  0  0  0  0  0  0
  142.1642  138.9856  152.8168 H   0  0  0  0  0  0  0  0  0  0  0  0
  140.7104  138.7004  153.7705 H   0  0  0  0  0  0  0  0  0  0  0  0
  141.3889  137.4035  152.7957 H   0  0  0  0  0  0  0  0  0  0  0  0
  141.9177  137.0872  155.1891 H   0  0  0  0  0  0  0  0  0  0  0  0
  143.4103  139.7508  155.0534 H   0  0  0  0  0  0  0  0  0  0  0  0
  143.3326  138.6821  156.4527 H   0  0  0  0  0  0  0  0  0  0  0  0
  141.8787  139.4764  155.8790 H   0  0  0  0  0  0  0  0  0  0  0  0
  144.2782  136.5830  154.9612 H   0  0  0  0  0  0  0  0  0  0  0  0
  143.5371  136.3363  153.3999 H   0  0  0  0  0  0  0  0  0  0  0  0
  144.3812  138.9049  153.1970 H   0  0  0  0  0  0  0  0  0  0  0  0
  146.7117  139.8322  153.2335 H   0  0  0  0  0  0  0  0  0  0  0  0
  145.4308  139.3271  151.1487 H   0  0  0  0  0  0  0  0  0  0  0  0
  146.6692  138.1744  150.6551 H   0  0  0  0  0  0  0  0  0  0  0  0
  147.0553  139.8876  150.7819 H   0  0  0  0  0  0  0  0  0  0  0  0
  148.4379  137.6056  152.5036 H   0  0  0  0  0  0  0  0  0  0  0  0
  148.2699  138.1854  154.8670 H   0  0  0  0  0  0  0  0  0  0  0  0
  149.8877  138.2168  154.2115 H   0  0  0  0  0  0  0  0  0  0  0  0
  149.2174  140.8027  153.6632 H   0  0  0  0  0  0  0  0  0  0  0  0
  148.1464  140.5382  155.0237 H   0  0  0  0  0  0  0  0  0  0  0  0
  149.6758  142.2651  156.4182 H   0  0  0  0  0  0  0  0  0  0  0  0
  152.0158  141.8173  157.7461 H   0  0  0  0  0  0  0  0  0  0  0  0
  152.8740  139.3984  156.6997 H   0  0  0  0  0  0  0  0  0  0  0  0
  148.8465  139.1610  152.1752 H   0  0  0  0  0  0  0  0  0  0  0  0
  1  2  1  0  0  0  0
  1 18  1  0  0  0  0
  1 19  1  0  0  0  0
  1 20  1  0  0  0  0
  2  3  1  0  0  0  0
  2  4  1  0  0  0  0
  2 21  1  0  0  0  0
  3 22  1  0  0  0  0
  3 23  1  0  0  0  0
  3 24  1  0  0  0  0
  4  5  1  0  0  0  0
  4 25  1  0  0  0  0
  4 26  1  0  0  0  0
  5  6  1  0  0  0  0
  5 27  1  0  0  0  0
  6  7  2  0  0  0  0
  6  8  1  0  0  0  0
  8  9  1  0  0  0  0
  8 10  1  0  0  0  0
  8 28  1  0  0  0  0
  9 29  1  0  0  0  0
  9 30  1  0  0  0  0
  9 31  1  0  0  0  0
 10 11  1  0  0  0  0
 10 32  1  0  0  0  0
 10 40  1  0  0  0  0
 11 12  1  0  0  0  0
 11 33  1  0  0  0  0
 11 34  1  0  0  0  0
 12 13  1  0  0  0  0
 12 35  1  0  0  0  0
 12 36  1  0  0  0  0
 13 17  1  0  0  0  0
 13 14  1  0  0  0  0
 14 15  2  0  0  0  0
 14 37  1  0  0  0  0
 15 16  1  0  0  0  0
 15 38  1  0  0  0  0
 16 17  2  0  0  0  0
 16 39  1  0  0  0  0
M  CHG  1  10   1
M  END
> <s_m_source_file>
AV-unprocessed.smi

> <i_m_source_file_index>
3129

> <i_lp_mmshare_version>
43012

> <i_f3d_flags>
0

> <s_epik_input>
W0NIM11bQ0hdKFtDSDNdKVtDSDJdW05IXUMoPU8pW0NASF0oW0NIM10pW05IXVtDSDJdW0NIMl1uMVtjSF1bY0hdW2NIXW4x

> <s_epik_cmdline>
J2VwaWtfcHl0aG9uJywgJy1waCcsICc3LjAnLCAnLXRuJywgJzgnLCAnLW1hJywgJzIwMCcsICctbWV0YWxfYmluZGluZycsICctaW1hZScsICc8aW5maWxlLm1hZT4nLCAnLW9tYWUnLCAnPG91dGZpbGUubWFlPic=

> <r_lp_tautomer_probability>
1

> <r_epik_Ionization_Penalty>
0.20724

> <r_epik_Ionization_Penalty_Charging>
0.207237

> <r_epik_Ionization_Penalty_Neutral>
3.32432e-06

> <r_epik_State_Penalty>
0.197234

> <r_epik_Charging_Adjusted_Penalty>
0.404471

> <i_epik_Tot_Q>
1

> <i_epik_Tot_abs_Q>
1

> <r_epik_Metal_State_Penalty>
0.197522

> <b_epik_Metal_Only>
0

> <s_lp_Force_Field>
OPLS_2005

> <r_lp_Energy>
5.48994

> <b_lp_Chiralities_Consistent>
1

> <s_lp_Variant>
AV-unprocessed.smi:3129-1

> <Gold.Version>
5.8.1

> <Gold.Id.Protein>
6NUR|6NUR_protein|mol2

> <Gold.PLP.Fitness>
41.5810

> <Gold.PLP.PLP>
-28.2143

> <Gold.PLP.part.hbond>
-3.0000

> <Gold.PLP.part.metal>
0.0000

> <Gold.PLP.part.buried>
-0.3355

> <Gold.PLP.part.nonpolar>
-25.3378

> <Gold.PLP.part.repulsive>
0.4215

> <Gold.PLP.ligand.clash>
0.0000

> <Gold.PLP.ligand.torsion>
0.9296

> <Gold.PLP.Chemscore.Hbond>
4.0000

> <Gold.PLP.Chemscore.CHOScore>
1.0000

> <Gold.PLP.Chemscore.Metal>
0.0000

> <Gold.Chemscore.Hbonds>
donor molecule, donor type, donor heavy atom, donor atom, acceptor molecule, acceptor atom, score
      L1  H     5    27       P1 10175  1.00
      L1  H    10    32       P1  7948  2.00
      L1  H    10    40       P1  7957  0.99
      L1  C    14    37       P1  8028  0.60

> <Gold.PLP.Chemscore.Internal.Correction>
0.2258

> <Gold.Rescore>
     Score         DG    S(hbond)    S(metal)    S(lipo)     H(rot)  DE(clash)    DE(int)     intcor
     15.68     -16.88       2.99        0.00      60.66       2.22       0.32       0.88       ----

> <Gold.Chemscore.Fitness>
15.6815

> <Gold.Chemscore.DG>
-16.8760

> <Gold.Chemscore.ZeroCoef>
-5.4800

> <Gold.Chemscore.Hbond>
2.9923

> <Gold.Chemscore.Metal>
0.0000

> <Gold.Chemscore.Lipo>
60.6608

> <Gold.Chemscore.Internal_Hbond>
0.0000

> <Gold.Chemscore.DEClash>
0.3167

> <Gold.Chemscore.DEInternal>
0.8778

> <Gold.Chemscore.Rot>
2.2249

> <Gold.Chemscore.Internal.Correction>
   9.000000E+99

> <Gold.Chemscore.Hbonds>
donor molecule, donor type, donor heavy atom, donor atom, acceptor molecule, acceptor atom, score
      L1  H     5    27       P1 10175  1.00
      L1  H    10    32       P1  7948  0.98
      L1  H    10    40       P1  7957  0.92

> <Gold.Chemscore.Hbond.Weighted>
-9.9944

> <Gold.Chemscore.Metal.Weighted>
-0.0000

> <Gold.Chemscore.Lipo.Weighted>
-7.0973

> <Gold.Chemscore.Internal_Hbond.Weighted>
0.0000

> <Gold.Chemscore.DEClash.Weighted>
0.3167

> <Gold.Chemscore.DEInternal.Weighted>
0.8778

> <Gold.Chemscore.Rot.Weighted>
5.6957

> <Gold.Chemscore.Internal.Correction.Weighted>
   9.000000E+99

> <Gold.Protein.RotatedTorsions>
[ 6907 6896 6895 6894 ] final -161.49 input  -60.11 | X-H torsion
[ 7974 7965 7964 7962 ] final -127.92 input  175.53 | X-H torsion
[ 8008 7997 7996 7995 ] final   -8.95 input   59.86 | X-H torsion
[ 10167 10162 10161 10158 ] final   19.89 input  -65.29 | X-H torsion
[ 10718 10713 10712 10709 ] final  166.20 input   66.30 | X-H torsion
[ 10763 10752 10751 10750 ] final -111.23 input  -60.55 | X-H torsion
[ 11005 11000 10999 10996 ] final  174.76 input  -57.11 | X-H torsion

> <Gold.Protein.ActiveResidues>
 VAL166  LYS551  ARG553  GLY616  TRP617  ASP618  TYR619  PRO620  LYS621  CYS622 
 ASP623  PHE694  ASN695  SER759  ASP760  ASP761  ALA762  ILE779  LEU786  VAL792 
 PHE793  MET794  SER795  GLU796  ALA797  LYS798  CYS799  TRP800  GLU811  SER814 

> <Gold.Protein.RotatedAtoms>
  151.3655  133.3874  159.2693 H   0  0  0  0  0  0  0  0  0  0  0  0  # atno 6907 bound_to 6896
  150.9692  134.9069  159.7788 H   0  0  0  0  0  0  0  0  0  0  0  0  # atno 6908 bound_to 6896
  152.5178  134.3616  159.9339 H   0  0  0  0  0  0  0  0  0  0  0  0  # atno 6909 bound_to 6896
  144.9722  140.7557  143.4663 H   0  0  0  0  0  0  0  0  0  0  0  0  # atno 7974 bound_to 7965
  154.5693  140.2368  155.8216 H   0  0  0  0  0  0  0  0  0  0  0  0  # atno 8008 bound_to 7997
  156.2093  140.3030  155.9656 H   0  0  0  0  0  0  0  0  0  0  0  0  # atno 8009 bound_to 7997
  155.2743  140.0419  157.3000 H   0  0  0  0  0  0  0  0  0  0  0  0  # atno 8010 bound_to 7997
  140.5545  143.9449  150.6600 H   0  0  0  0  0  0  0  0  0  0  0  0  # atno 10167 bound_to 10162
  157.0692  131.0361  151.2618 H   0  0  0  0  0  0  0  0  0  0  0  0  # atno 10718 bound_to 10713
  154.8289  135.4535  154.1007 H   0  0  0  0  0  0  0  0  0  0  0  0  # atno 10763 bound_to 10752
  153.2297  135.6904  153.7911 H   0  0  0  0  0  0  0  0  0  0  0  0  # atno 10764 bound_to 10752
  153.7298  135.3329  155.3260 H   0  0  0  0  0  0  0  0  0  0  0  0  # atno 10765 bound_to 10752
  140.3548  134.7164  157.4292 H   0  0  0  0  0  0  0  0  0  0  0  0  # atno 11005 bound_to 11000
  145.2542  139.2019  143.4926 LP  0  0  0  0  0  0  0  0  0  0  0  0  # atno 17320 bound_to 7965
  146.3385  140.2460  142.8597 LP  0  0  0  0  0  0  0  0  0  0  0  0  # atno 17321 bound_to 7965
  140.2884  143.3341  152.1086 LP  0  0  0  0  0  0  0  0  0  0  0  0  # atno 17342 bound_to 10162
  139.5042  144.6770  151.6103 LP  0  0  0  0  0  0  0  0  0  0  0  0  # atno 17343 bound_to 10162
  157.4892  130.7812  149.7490 LP  0  0  0  0  0  0  0  0  0  0  0  0  # atno 17370 bound_to 10713
  155.9955  130.3911  150.2815 LP  0  0  0  0  0  0  0  0  0  0  0  0  # atno 17371 bound_to 10713
  140.0674  134.5911  155.8680 LP  0  0  0  0  0  0  0  0  0  0  0  0  # atno 17394 bound_to 11000
  141.2001  133.6611  156.5881 LP  0  0  0  0  0  0  0  0  0  0  0  0  # atno 17395 bound_to 11000

$$$$
