AV-unprocessed.smi:1100|AV-procd|sdf|4760|dock3
  -GOLD-   22720 3293D 1   1.00000     0.00000
 Structure written by MMmdl.
 43 44  0  0  0  0  0  0  0  0  1 V2000
  146.8280  140.7169  152.9018 C   0  0  0  0  0  0  0  0  0  0  0  0
  147.2590  141.3281  154.2596 C   0  0  1  0  0  0  0  0  0  0  0  0
  148.7768  141.6717  154.2001 C   0  0  0  0  0  0  0  0  0  0  0  0
  149.2911  142.2549  155.4367 N   0  0  0  0  0  0  0  0  0  0  0  0
  150.2249  141.6997  156.2224 C   0  0  0  0  0  0  0  0  0  0  0  0
  150.7316  140.6022  155.9922 O   0  0  0  0  0  0  0  0  0  0  0  0
  150.5260  142.5100  157.2535 N   0  0  0  0  0  0  0  0  0  0  0  0
  151.4430  142.3125  158.2954 C   0  0  0  0  0  0  0  0  0  0  0  0
  152.4139  141.2301  158.3711 C   0  0  0  0  0  0  0  0  0  0  0  0
  153.2551  141.1292  159.4194 C   0  0  0  0  0  0  0  0  0  0  0  0
  153.2323  142.0937  160.5218 C   0  0  0  0  0  0  0  0  0  0  0  0
  153.9982  142.0128  161.4826 O   0  0  0  0  0  0  0  0  0  0  0  0
  152.3036  143.0871  160.4155 N   0  0  0  0  0  0  0  0  0  0  0  0
  152.1965  144.1000  161.4685 C   0  0  0  0  0  0  0  0  0  0  0  0
  151.4258  143.1849  159.3198 C   0  0  0  0  0  0  0  0  0  0  0  0
  146.4137  142.4755  154.6648 N   0  0  0  0  0  0  0  0  0  0  0  0
  145.9119  143.2366  153.5143 C   0  0  0  0  0  0  0  0  0  0  0  0
  145.0057  144.4114  153.9208 C   0  0  0  0  0  0  0  0  0  0  0  0
  143.9181  143.9301  154.6975 O   0  0  0  0  0  0  0  0  0  0  0  0
  144.3579  143.2546  155.8675 C   0  0  0  0  0  0  0  0  0  0  0  0
  145.2596  142.0705  155.4763 C   0  0  0  0  0  0  0  0  0  0  0  0
  147.4790  139.9031  152.5853 H   0  0  0  0  0  0  0  0  0  0  0  0
  146.8340  141.4676  152.1110 H   0  0  0  0  0  0  0  0  0  0  0  0
  145.8319  140.2787  152.9441 H   0  0  0  0  0  0  0  0  0  0  0  0
  147.1369  140.5456  155.0101 H   0  0  0  0  0  0  0  0  0  0  0  0
  149.3522  140.7704  153.9868 H   0  0  0  0  0  0  0  0  0  0  0  0
  149.0046  142.3783  153.4030 H   0  0  0  0  0  0  0  0  0  0  0  0
  148.9261  143.1592  155.6977 H   0  0  0  0  0  0  0  0  0  0  0  0
  150.0395  143.3939  157.2820 H   0  0  0  0  0  0  0  0  0  0  0  0
  152.4815  140.4742  157.6060 H   0  0  0  0  0  0  0  0  0  0  0  0
  153.9614  140.3127  159.4521 H   0  0  0  0  0  0  0  0  0  0  0  0
  151.4666  144.8758  161.2350 H   0  0  0  0  0  0  0  0  0  0  0  0
  153.1552  144.5967  161.6249 H   0  0  0  0  0  0  0  0  0  0  0  0
  151.8950  143.6390  162.4102 H   0  0  0  0  0  0  0  0  0  0  0  0
  150.7405  144.0195  159.3619 H   0  0  0  0  0  0  0  0  0  0  0  0
  146.7373  143.6562  152.9419 H   0  0  0  0  0  0  0  0  0  0  0  0
  145.3644  142.5734  152.8430 H   0  0  0  0  0  0  0  0  0  0  0  0
  145.5673  145.1560  154.4871 H   0  0  0  0  0  0  0  0  0  0  0  0
  144.6150  144.9114  153.0345 H   0  0  0  0  0  0  0  0  0  0  0  0
  144.8917  143.9484  156.5190 H   0  0  0  0  0  0  0  0  0  0  0  0
  143.4883  142.9007  156.4213 H   0  0  0  0  0  0  0  0  0  0  0  0
  144.6692  141.3286  154.9366 H   0  0  0  0  0  0  0  0  0  0  0  0
  145.5851  141.6040  156.4037 H   0  0  0  0  0  0  0  0  0  0  0  0
  1  2  1  0  0  0  0
  1 22  1  0  0  0  0
  1 23  1  0  0  0  0
  1 24  1  0  0  0  0
  2  3  1  0  0  0  0
  2 16  1  0  0  0  0
  2 25  1  0  0  0  0
  3  4  1  0  0  0  0
  3 26  1  0  0  0  0
  3 27  1  0  0  0  0
  4  5  1  0  0  0  0
  4 28  1  0  0  0  0
  5  6  2  0  0  0  0
  5  7  1  0  0  0  0
  7  8  1  0  0  0  0
  7 29  1  0  0  0  0
  8 15  2  0  0  0  0
  8  9  1  0  0  0  0
  9 10  2  0  0  0  0
  9 30  1  0  0  0  0
 10 11  1  0  0  0  0
 10 31  1  0  0  0  0
 11 12  2  0  0  0  0
 11 13  1  0  0  0  0
 13 14  1  0  0  0  0
 13 15  1  0  0  0  0
 14 32  1  0  0  0  0
 14 33  1  0  0  0  0
 14 34  1  0  0  0  0
 15 35  1  0  0  0  0
 16 21  1  0  0  0  0
 16 17  1  0  0  0  0
 17 18  1  0  0  0  0
 17 36  1  0  0  0  0
 17 37  1  0  0  0  0
 18 19  1  0  0  0  0
 18 38  1  0  0  0  0
 18 39  1  0  0  0  0
 19 20  1  0  0  0  0
 20 21  1  0  0  0  0
 20 40  1  0  0  0  0
 20 41  1  0  0  0  0
 21 42  1  0  0  0  0
 21 43  1  0  0  0  0
M  END
> <s_m_source_file>
AV-unprocessed.smi

> <i_m_source_file_index>
1100

> <i_lp_mmshare_version>
43012

> <i_f3d_flags>
0

> <s_epik_input>
W0NIMl0xW0NIMl1PW0NIMl1bQ0gyXU4xW0NASF0oW0NIM10pW0NIMl1bTkhdQyg9TylbTkhdYzJbY0hdW2NIXWMoPU8pbihbQ0gzXSlbY0hdMg==

> <s_epik_cmdline>
J2VwaWtfcHl0aG9uJywgJy1waCcsICc3LjAnLCAnLXRuJywgJzgnLCAnLW1hJywgJzIwMCcsICctbWV0YWxfYmluZGluZycsICctaW1hZScsICc8aW5maWxlLm1hZT4nLCAnLW9tYWUnLCAnPG91dGZpbGUubWFlPic=

> <r_lp_tautomer_probability>
1

> <r_epik_Ionization_Penalty>
0.266016

> <r_epik_Ionization_Penalty_Charging>
5.79683e-06

> <r_epik_Ionization_Penalty_Neutral>
0.26601

> <r_epik_State_Penalty>
0.257924

> <r_epik_Charging_Adjusted_Penalty>
0.25793

> <i_epik_Tot_Q>
0

> <i_epik_Tot_abs_Q>
0

> <r_epik_Metal_State_Penalty>
0.260326

> <b_epik_Metal_Only>
0

> <s_lp_Force_Field>
OPLS_2005

> <r_lp_Energy>
41.8839

> <b_lp_Chiralities_Consistent>
1

> <s_lp_Variant>
AV-unprocessed.smi:1100-2

> <Gold.Version>
5.8.1

> <Gold.Id.Protein>
6NUR|6NUR_protein|mol2

> <Gold.PLP.Fitness>
43.8981

> <Gold.PLP.PLP>
-42.2730

> <Gold.PLP.part.hbond>
-2.3522

> <Gold.PLP.part.metal>
0.0000

> <Gold.PLP.part.buried>
-5.3012

> <Gold.PLP.part.nonpolar>
-34.0952

> <Gold.PLP.part.repulsive>
0.5464

> <Gold.PLP.ligand.clash>
0.0000

> <Gold.PLP.ligand.torsion>
0.8417

> <Gold.PLP.Chemscore.Hbond>
1.0915

> <Gold.PLP.Chemscore.CHOScore>
0.0000

> <Gold.PLP.Chemscore.Metal>
0.0000

> <Gold.Chemscore.Hbonds>
donor molecule, donor type, donor heavy atom, donor atom, acceptor molecule, acceptor atom, score
      L1  H     4    28       P1  8028  1.00
      L1  H     7    29       P1  8028  0.09

> <Gold.PLP.Chemscore.Internal.Correction>
0.0338

> <Gold.Rescore>
     Score         DG    S(hbond)    S(metal)    S(lipo)     H(rot)  DE(clash)    DE(int)     intcor
     14.55     -16.67       1.30        0.00      91.09       1.49       0.15       1.96       ----

> <Gold.Chemscore.Fitness>
14.5507

> <Gold.Chemscore.DG>
-16.6661

> <Gold.Chemscore.ZeroCoef>
-5.4800

> <Gold.Chemscore.Hbond>
1.3033

> <Gold.Chemscore.Metal>
0.0000

> <Gold.Chemscore.Lipo>
91.0876

> <Gold.Chemscore.Internal_Hbond>
0.0000

> <Gold.Chemscore.DEClash>
0.1547

> <Gold.Chemscore.DEInternal>
1.9607

> <Gold.Chemscore.Rot>
1.4938

> <Gold.Chemscore.Internal.Correction>
   9.000000E+99

> <Gold.Chemscore.Hbonds>
donor molecule, donor type, donor heavy atom, donor atom, acceptor molecule, acceptor atom, score
      L1  H     4    28       P1  8028  0.94
      L1  H     7    29       P1  8028  0.10

> <Gold.Chemscore.Hbond.Weighted>
-4.3530

> <Gold.Chemscore.Metal.Weighted>
-0.0000

> <Gold.Chemscore.Lipo.Weighted>
-10.6572

> <Gold.Chemscore.Internal_Hbond.Weighted>
0.0000

> <Gold.Chemscore.DEClash.Weighted>
0.1547

> <Gold.Chemscore.DEInternal.Weighted>
1.9607

> <Gold.Chemscore.Rot.Weighted>
3.8242

> <Gold.Chemscore.Internal.Correction.Weighted>
   9.000000E+99

> <Gold.Protein.RotatedTorsions>
[ 6907 6896 6895 6894 ] final  -22.97 input  -60.11 | X-H torsion
[ 7974 7965 7964 7962 ] final  118.03 input  175.53 | X-H torsion
[ 8008 7997 7996 7995 ] final   32.25 input   59.86 | X-H torsion
[ 10167 10162 10161 10158 ] final  -34.67 input  -65.29 | X-H torsion
[ 10718 10713 10712 10709 ] final  170.42 input   66.30 | X-H torsion
[ 10763 10752 10751 10750 ] final  129.70 input  -60.55 | X-H torsion
[ 11005 11000 10999 10996 ] final  143.69 input  -57.11 | X-H torsion

> <Gold.Protein.ActiveResidues>
 VAL166  LYS551  ARG553  GLY616  TRP617  ASP618  TYR619  PRO620  LYS621  CYS622 
 ASP623  PHE694  ASN695  SER759  ASP760  ASP761  ALA762  ILE779  LEU786  VAL792 
 PHE793  MET794  SER795  GLU796  ALA797  LYS798  CYS799  TRP800  GLU811  SER814 

> <Gold.Protein.RotatedAtoms>
  151.2109  135.0481  159.8910 H   0  0  0  0  0  0  0  0  0  0  0  0  # atno 6907 bound_to 6896
  152.5425  134.0746  159.8219 H   0  0  0  0  0  0  0  0  0  0  0  0  # atno 6908 bound_to 6896
  151.0899  133.5276  159.2647 H   0  0  0  0  0  0  0  0  0  0  0  0  # atno 6909 bound_to 6896
  145.1602  139.3160  143.4521 H   0  0  0  0  0  0  0  0  0  0  0  0  # atno 7974 bound_to 7965
  155.1195  140.3247  155.4501 H   0  0  0  0  0  0  0  0  0  0  0  0  # atno 8008 bound_to 7997
  156.2667  140.2030  156.6265 H   0  0  0  0  0  0  0  0  0  0  0  0  # atno 8009 bound_to 7997
  154.6694  140.0538  157.0136 H   0  0  0  0  0  0  0  0  0  0  0  0  # atno 8010 bound_to 7997
  140.7181  143.3531  151.2114 H   0  0  0  0  0  0  0  0  0  0  0  0  # atno 10167 bound_to 10162
  157.0084  131.0197  151.2810 H   0  0  0  0  0  0  0  0  0  0  0  0  # atno 10718 bound_to 10713
  153.7460  135.3217  155.3312 H   0  0  0  0  0  0  0  0  0  0  0  0  # atno 10763 bound_to 10752
  154.8279  135.4556  154.0979 H   0  0  0  0  0  0  0  0  0  0  0  0  # atno 10764 bound_to 10752
  153.2168  135.6943  153.8130 H   0  0  0  0  0  0  0  0  0  0  0  0  # atno 10765 bound_to 10752
  140.0574  134.9223  157.1124 H   0  0  0  0  0  0  0  0  0  0  0  0  # atno 11005 bound_to 11000
  146.3483  140.1709  142.8589 LP  0  0  0  0  0  0  0  0  0  0  0  0  # atno 17320 bound_to 7965
  145.0339  140.8893  143.5093 LP  0  0  0  0  0  0  0  0  0  0  0  0  # atno 17321 bound_to 7965
  139.7067  143.9444  152.2930 LP  0  0  0  0  0  0  0  0  0  0  0  0  # atno 17342 bound_to 10162
  139.9155  144.6831  150.8516 LP  0  0  0  0  0  0  0  0  0  0  0  0  # atno 17343 bound_to 10162
  157.5338  130.8076  149.7948 LP  0  0  0  0  0  0  0  0  0  0  0  0  # atno 17370 bound_to 10713
  156.0145  130.3819  150.2155 LP  0  0  0  0  0  0  0  0  0  0  0  0  # atno 17371 bound_to 10713
  140.3823  134.2274  155.7170 LP  0  0  0  0  0  0  0  0  0  0  0  0  # atno 17394 bound_to 11000
  141.1958  133.8097  157.0699 LP  0  0  0  0  0  0  0  0  0  0  0  0  # atno 17395 bound_to 11000

$$$$
