AV-unprocessed.smi:1403|AV-procd|sdf|5702|dock3
  -GOLD-   22720 5333D 1   1.00000     0.00000
 Structure written by MMmdl.
 35 36  0  0  0  0  0  0  0  0  2 V2000
  151.7241  140.8545  157.6316 C   0  0  0  0  0  0  0  0  0  0  0  0
  151.2986  142.1526  156.9256 C   0  0  1  0  0  0  0  0  0  0  0  0
  149.9893  141.9738  156.3030 N   0  0  0  0  0  0  0  0  0  0  0  0
  149.7089  141.1164  155.3099 C   0  0  0  0  0  0  0  0  0  0  0  0
  150.5514  140.3837  154.7902 O   0  0  0  0  0  0  0  0  0  0  0  0
  148.2573  141.1105  154.8135 C   0  0  0  0  0  0  0  0  0  0  0  0
  147.6244  139.7868  154.9259 N   0  0  0  0  0  0  0  0  0  0  0  0
  147.1806  139.1694  153.7432 C   0  0  0  0  0  0  0  0  0  0  0  0
  146.5925  137.9578  153.7519 C   0  0  0  0  0  0  0  0  0  0  0  0
  146.4194  137.2836  155.0326 C   0  0  0  0  0  0  0  0  0  0  0  0
  145.8784  136.1798  155.0603 O   0  0  0  0  0  0  0  0  0  0  0  0
  146.8726  137.9210  156.1516 N   0  5  0  0  0  0  0  0  0  0  0  0
  147.4710  139.1524  156.1276 C   0  0  0  0  0  0  0  0  0  0  0  0
  147.8739  139.7096  157.1495 O   0  0  0  0  0  0  0  0  0  0  0  0
  151.2530  143.3448  157.9002 C   0  0  2  0  0  0  0  0  0  0  0  0
  151.4147  144.7184  157.2429 C   0  0  0  0  0  0  0  0  0  0  0  0
  152.0273  145.5797  158.3380 C   0  0  0  0  0  0  0  0  0  0  0  0
  152.4224  144.5788  159.4262 C   0  0  0  0  0  0  0  0  0  0  0  0
  152.3549  143.3097  158.7938 O   0  0  0  0  0  0  0  0  0  0  0  0
  152.7080  140.9594  158.0894 H   0  0  0  0  0  0  0  0  0  0  0  0
  151.7790  140.0217  156.9298 H   0  0  0  0  0  0  0  0  0  0  0  0
  151.0192  140.5805  158.4172 H   0  0  0  0  0  0  0  0  0  0  0  0
  152.0309  142.3809  156.1487 H   0  0  0  0  0  0  0  0  0  0  0  0
  149.2333  142.5361  156.6658 H   0  0  0  0  0  0  0  0  0  0  0  0
  147.6717  141.8527  155.3593 H   0  0  0  0  0  0  0  0  0  0  0  0
  148.2531  141.4491  153.7767 H   0  0  0  0  0  0  0  0  0  0  0  0
  147.3521  139.7326  152.8377 H   0  0  0  0  0  0  0  0  0  0  0  0
  146.2597  137.4955  152.8342 H   0  0  0  0  0  0  0  0  0  0  0  0
  150.3293  143.3236  158.4822 H   0  0  0  0  0  0  0  0  0  0  0  0
  152.1055  144.6565  156.4008 H   0  0  0  0  0  0  0  0  0  0  0  0
  150.4700  145.1165  156.8712 H   0  0  0  0  0  0  0  0  0  0  0  0
  152.8964  146.1183  157.9587 H   0  0  0  0  0  0  0  0  0  0  0  0
  151.3188  146.3139  158.7231 H   0  0  0  0  0  0  0  0  0  0  0  0
  153.4169  144.7683  159.8307 H   0  0  0  0  0  0  0  0  0  0  0  0
  151.7082  144.6061  160.2506 H   0  0  0  0  0  0  0  0  0  0  0  0
  1  2  1  0  0  0  0
  1 20  1  0  0  0  0
  1 21  1  0  0  0  0
  1 22  1  0  0  0  0
  2  3  1  0  0  0  0
  2 15  1  0  0  0  0
  2 23  1  0  0  0  0
  3  4  1  0  0  0  0
  3 24  1  0  0  0  0
  4  5  2  0  0  0  0
  4  6  1  0  0  0  0
  6  7  1  0  0  0  0
  6 25  1  0  0  0  0
  6 26  1  0  0  0  0
  7 13  1  0  0  0  0
  7  8  1  0  0  0  0
  8  9  2  0  0  0  0
  8 27  1  0  0  0  0
  9 10  1  0  0  0  0
  9 28  1  0  0  0  0
 10 11  2  0  0  0  0
 10 12  1  0  0  0  0
 12 13  1  0  0  0  0
 13 14  2  0  0  0  0
 15 19  1  0  0  0  0
 15 16  1  0  0  0  0
 15 29  1  0  0  0  0
 16 17  1  0  0  0  0
 16 30  1  0  0  0  0
 16 31  1  0  0  0  0
 17 18  1  0  0  0  0
 17 32  1  0  0  0  0
 17 33  1  0  0  0  0
 18 19  1  0  0  0  0
 18 34  1  0  0  0  0
 18 35  1  0  0  0  0
M  CHG  1  12  -1
M  END
> <s_m_source_file>
AV-unprocessed.smi

> <i_m_source_file_index>
1403

> <i_lp_mmshare_version>
43012

> <i_f3d_flags>
0

> <s_epik_input>
TzFbQ0gyXVtDSDJdW0NIMl1bQ0BIXTFbQ0BIXShbQ0gzXSlbTkhdQyg9TylbQ0gyXW4yW2NIXVtjSF1jKD1PKVtuSF1jMj1P

> <s_epik_cmdline>
J2VwaWtfcHl0aG9uJywgJy1waCcsICc3LjAnLCAnLXRuJywgJzgnLCAnLW1hJywgJzIwMCcsICctbWV0YWxfYmluZGluZycsICctaW1hZScsICc8aW5maWxlLm1hZT4nLCAnLW9tYWUnLCAnPG91dGZpbGUubWFlPic=

> <r_lp_tautomer_probability>
0.999537

> <r_epik_Ionization_Penalty>
3.07438

> <r_epik_Ionization_Penalty_Charging>
2.82466e-08

> <r_epik_Ionization_Penalty_Neutral>
3.07438

> <r_epik_State_Penalty>
3.07341

> <r_epik_Charging_Adjusted_Penalty>
3.07341

> <i_epik_Tot_Q>
-1

> <i_epik_Tot_abs_Q>
1

> <r_epik_Metal_State_Penalty>
0.45947

> <b_epik_Metal_Only>
1

> <s_lp_Force_Field>
OPLS_2005

> <r_lp_Energy>
26.8934

> <b_lp_Chiralities_Consistent>
1

> <s_lp_Variant>
AV-unprocessed.smi:1403-6

> <Gold.Version>
5.8.1

> <Gold.Id.Protein>
6NUR|6NUR_protein|mol2

> <Gold.PLP.Fitness>
41.6908

> <Gold.PLP.PLP>
-34.5677

> <Gold.PLP.part.hbond>
-2.0000

> <Gold.PLP.part.metal>
0.0000

> <Gold.PLP.part.buried>
-1.8617

> <Gold.PLP.part.nonpolar>
-30.1017

> <Gold.PLP.part.repulsive>
0.3661

> <Gold.PLP.ligand.clash>
0.0000

> <Gold.PLP.ligand.torsion>
0.4318

> <Gold.PLP.Chemscore.Hbond>
1.6484

> <Gold.PLP.Chemscore.CHOScore>
1.0000

> <Gold.PLP.Chemscore.Metal>
0.0000

> <Gold.Chemscore.Hbonds>
donor molecule, donor type, donor heavy atom, donor atom, acceptor molecule, acceptor atom, score
      P1  H  7989  7998       L1     5  1.00
      L1  C     8    27       P1  7957  0.30

> <Gold.PLP.Chemscore.Internal.Correction>
0.0415

> <Gold.Rescore>
     Score         DG    S(hbond)    S(metal)    S(lipo)     H(rot)  DE(clash)    DE(int)     intcor
     11.84     -13.27       0.96        0.00      82.71       1.99       0.07       1.36       ----

> <Gold.Chemscore.Fitness>
11.8419

> <Gold.Chemscore.DG>
-13.2684

> <Gold.Chemscore.ZeroCoef>
-5.4800

> <Gold.Chemscore.Hbond>
0.9628

> <Gold.Chemscore.Metal>
0.0000

> <Gold.Chemscore.Lipo>
82.7111

> <Gold.Chemscore.Internal_Hbond>
0.0000

> <Gold.Chemscore.DEClash>
0.0659

> <Gold.Chemscore.DEInternal>
1.3607

> <Gold.Chemscore.Rot>
1.9940

> <Gold.Chemscore.Internal.Correction>
   9.000000E+99

> <Gold.Chemscore.Hbonds>
donor molecule, donor type, donor heavy atom, donor atom, acceptor molecule, acceptor atom, score
      L1  H     3    24       P1  8028  0.03
      P1  H  7989  7998       L1     5  0.98

> <Gold.Chemscore.Hbond.Weighted>
-3.2159

> <Gold.Chemscore.Metal.Weighted>
-0.0000

> <Gold.Chemscore.Lipo.Weighted>
-9.6772

> <Gold.Chemscore.Internal_Hbond.Weighted>
0.0000

> <Gold.Chemscore.DEClash.Weighted>
0.0659

> <Gold.Chemscore.DEInternal.Weighted>
1.3607

> <Gold.Chemscore.Rot.Weighted>
5.1047

> <Gold.Chemscore.Internal.Correction.Weighted>
   9.000000E+99

> <Gold.Protein.RotatedTorsions>
[ 6907 6896 6895 6894 ] final    7.95 input  -60.11 | X-H torsion
[ 7974 7965 7964 7962 ] final   -2.13 input  175.53 | X-H torsion
[ 8008 7997 7996 7995 ] final  -32.01 input   59.86 | X-H torsion
[ 10167 10162 10161 10158 ] final -120.93 input  -65.29 | X-H torsion
[ 10718 10713 10712 10709 ] final  -85.80 input   66.30 | X-H torsion
[ 10763 10752 10751 10750 ] final  -15.08 input  -60.55 | X-H torsion
[ 11005 11000 10999 10996 ] final   86.85 input  -57.11 | X-H torsion

> <Gold.Protein.ActiveResidues>
 VAL166  LYS551  ARG553  GLY616  TRP617  ASP618  TYR619  PRO620  LYS621  CYS622 
 ASP623  PHE694  ASN695  SER759  ASP760  ASP761  ALA762  ILE779  LEU786  VAL792 
 PHE793  MET794  SER795  GLU796  ALA797  LYS798  CYS799  TRP800  GLU811  SER814 

> <Gold.Protein.RotatedAtoms>
  151.6981  135.0935  160.0245 H   0  0  0  0  0  0  0  0  0  0  0  0  # atno 6907 bound_to 6896
  152.3737  133.6449  159.6115 H   0  0  0  0  0  0  0  0  0  0  0  0  # atno 6908 bound_to 6896
  150.7693  133.9144  159.3420 H   0  0  0  0  0  0  0  0  0  0  0  0  # atno 6909 bound_to 6896
  146.2408  140.1525  142.8333 H   0  0  0  0  0  0  0  0  0  0  0  0  # atno 7974 bound_to 7965
  154.4194  140.1749  156.1659 H   0  0  0  0  0  0  0  0  0  0  0  0  # atno 8008 bound_to 7997
  155.9800  140.3378  155.6630 H   0  0  0  0  0  0  0  0  0  0  0  0  # atno 8009 bound_to 7997
  155.6512  140.0690  157.2577 H   0  0  0  0  0  0  0  0  0  0  0  0  # atno 8010 bound_to 7997
  140.0305  143.5253  152.2178 H   0  0  0  0  0  0  0  0  0  0  0  0  # atno 10167 bound_to 10162
  155.9994  130.4743  150.4617 H   0  0  0  0  0  0  0  0  0  0  0  0  # atno 10718 bound_to 10713
  153.5380  135.7013  153.5651 H   0  0  0  0  0  0  0  0  0  0  0  0  # atno 10763 bound_to 10752
  153.3629  135.3965  155.1732 H   0  0  0  0  0  0  0  0  0  0  0  0  # atno 10764 bound_to 10752
  154.8677  135.3793  154.4882 H   0  0  0  0  0  0  0  0  0  0  0  0  # atno 10765 bound_to 10752
  139.8934  134.8383  156.2778 H   0  0  0  0  0  0  0  0  0  0  0  0  # atno 11005 bound_to 11000
  145.0156  140.8751  143.5198 LP  0  0  0  0  0  0  0  0  0  0  0  0  # atno 17320 bound_to 7965
  145.1565  139.2483  143.5413 LP  0  0  0  0  0  0  0  0  0  0  0  0  # atno 17321 bound_to 7965
  139.6079  144.7601  151.3019 LP  0  0  0  0  0  0  0  0  0  0  0  0  # atno 17342 bound_to 10162
  140.7304  143.6881  150.7945 LP  0  0  0  0  0  0  0  0  0  0  0  0  # atno 17343 bound_to 10162
  157.2640  131.0573  151.2302 LP  0  0  0  0  0  0  0  0  0  0  0  0  # atno 17370 bound_to 10713
  157.3406  130.7031  149.6379 LP  0  0  0  0  0  0  0  0  0  0  0  0  # atno 17371 bound_to 10713
  141.0059  133.7124  156.1033 LP  0  0  0  0  0  0  0  0  0  0  0  0  # atno 17394 bound_to 11000
  140.7435  134.4124  157.5551 LP  0  0  0  0  0  0  0  0  0  0  0  0  # atno 17395 bound_to 11000

$$$$
