AV-unprocessed.smi:356|AV-procd|sdf|2408|dock7
  -GOLD-   2262022343D 1   1.00000     0.00000
 Structure written by MMmdl.
 41 43  0  0  0  0  0  0  0  0  1 V2000
  154.7142  138.1490  159.2671 C   0  0  0  0  0  0  0  0  0  0  0  0
  154.1560  139.4593  159.7250 C   0  0  0  0  0  0  0  0  0  0  0  0
  153.4200  140.2358  158.9297 N   0  0  0  0  0  0  0  0  0  0  0  0
  153.1313  141.3145  159.7435 C   0  0  0  0  0  0  0  0  0  0  0  0
  152.3816  142.4844  159.4850 C   0  0  0  0  0  0  0  0  0  0  0  0
  152.2193  143.4638  160.4866 C   0  0  0  0  0  0  0  0  0  0  0  0
  152.8031  143.2885  161.7580 C   0  0  0  0  0  0  0  0  0  0  0  0
  153.5550  142.1309  162.0363 C   0  0  0  0  0  0  0  0  0  0  0  0
  153.7140  141.1556  161.0334 C   0  0  0  0  0  0  0  0  0  0  0  0
  154.3720  139.9304  160.9777 N   0  0  0  0  0  0  0  0  0  0  0  0
  155.1311  139.3004  162.0489 C   0  0  0  0  0  0  0  0  0  0  0  0
  156.0193  140.3022  162.8156 C   0  0  2  0  0  0  0  0  0  0  0  0
  157.3556  140.1793  162.3726 O   0  0  0  0  0  0  0  0  0  0  0  0
  156.0032  140.0671  164.3393 C   0  0  0  0  0  0  0  0  0  0  0  0
  156.3671  141.2238  165.1590 N   0  0  0  0  0  0  0  0  0  0  0  0
  156.2626  140.9564  166.5922 C   0  0  0  0  0  0  0  0  0  0  0  0
  156.6209  142.1931  167.4349 C   0  0  0  0  0  0  0  0  0  0  0  0
  155.7909  143.2871  167.0595 O   0  0  0  0  0  0  0  0  0  0  0  0
  155.9014  143.6099  165.6775 C   0  0  0  0  0  0  0  0  0  0  0  0
  155.5367  142.3780  164.8311 C   0  0  0  0  0  0  0  0  0  0  0  0
  154.4037  137.9380  158.2434 H   0  0  0  0  0  0  0  0  0  0  0  0
  154.3594  137.3401  159.9054 H   0  0  0  0  0  0  0  0  0  0  0  0
  155.8036  138.1709  159.2967 H   0  0  0  0  0  0  0  0  0  0  0  0
  151.9303  142.6276  158.5144 H   0  0  0  0  0  0  0  0  0  0  0  0
  151.6431  144.3535  160.2778 H   0  0  0  0  0  0  0  0  0  0  0  0
  152.6728  144.0431  162.5198 H   0  0  0  0  0  0  0  0  0  0  0  0
  154.0015  141.9933  163.0096 H   0  0  0  0  0  0  0  0  0  0  0  0
  154.4307  138.8143  162.7281 H   0  0  0  0  0  0  0  0  0  0  0  0
  155.7384  138.5000  161.6244 H   0  0  0  0  0  0  0  0  0  0  0  0
  155.7115  141.3221  162.5894 H   0  0  0  0  0  0  0  0  0  0  0  0
  157.3496  139.8528  161.4860 H   0  0  0  0  0  0  0  0  0  0  0  0
  155.0005  139.7385  164.6166 H   0  0  0  0  0  0  0  0  0  0  0  0
  156.6656  139.2344  164.5822 H   0  0  0  0  0  0  0  0  0  0  0  0
  155.2492  140.6341  166.8360 H   0  0  0  0  0  0  0  0  0  0  0  0
  156.9275  140.1426  166.8770 H   0  0  0  0  0  0  0  0  0  0  0  0
  156.4779  141.9844  168.4952 H   0  0  0  0  0  0  0  0  0  0  0  0
  157.6701  142.4604  167.3001 H   0  0  0  0  0  0  0  0  0  0  0  0
  155.2310  144.4386  165.4504 H   0  0  0  0  0  0  0  0  0  0  0  0
  156.9150  143.9462  165.4545 H   0  0  0  0  0  0  0  0  0  0  0  0
  155.6456  142.6240  163.7744 H   0  0  0  0  0  0  0  0  0  0  0  0
  154.4847  142.1334  164.9876 H   0  0  0  0  0  0  0  0  0  0  0  0
  1  2  1  0  0  0  0
  1 21  1  0  0  0  0
  1 22  1  0  0  0  0
  1 23  1  0  0  0  0
  2 10  1  0  0  0  0
  2  3  2  0  0  0  0
  3  4  1  0  0  0  0
  4  9  2  0  0  0  0
  4  5  1  0  0  0  0
  5  6  2  0  0  0  0
  5 24  1  0  0  0  0
  6  7  1  0  0  0  0
  6 25  1  0  0  0  0
  7  8  2  0  0  0  0
  7 26  1  0  0  0  0
  8  9  1  0  0  0  0
  8 27  1  0  0  0  0
  9 10  1  0  0  0  0
 10 11  1  0  0  0  0
 11 12  1  0  0  0  0
 11 28  1  0  0  0  0
 11 29  1  0  0  0  0
 12 13  1  0  0  0  0
 12 14  1  0  0  0  0
 12 30  1  0  0  0  0
 13 31  1  0  0  0  0
 14 15  1  0  0  0  0
 14 32  1  0  0  0  0
 14 33  1  0  0  0  0
 15 20  1  0  0  0  0
 15 16  1  0  0  0  0
 16 17  1  0  0  0  0
 16 34  1  0  0  0  0
 16 35  1  0  0  0  0
 17 18  1  0  0  0  0
 17 36  1  0  0  0  0
 17 37  1  0  0  0  0
 18 19  1  0  0  0  0
 19 20  1  0  0  0  0
 19 38  1  0  0  0  0
 19 39  1  0  0  0  0
 20 40  1  0  0  0  0
 20 41  1  0  0  0  0
M  END
> <s_m_source_file>
AV-unprocessed.smi

> <i_m_source_file_index>
356

> <i_lp_mmshare_version>
43012

> <i_f3d_flags>
0

> <s_epik_input>
W2NIXTFbY0hdW2NIXVtjSF1jKGMxMiluKGMobjIpW0NIM10pW0NIMl1bQ0BIXShbT0hdKVtDSDJdTjNbQ0gyXVtDSDJdT1tDSDJdW0NIMl0z

> <s_epik_cmdline>
J2VwaWtfcHl0aG9uJywgJy1waCcsICc3LjAnLCAnLXRuJywgJzgnLCAnLW1hJywgJzIwMCcsICctbWV0YWxfYmluZGluZycsICctaW1hZScsICc8aW5maWxlLm1hZT4nLCAnLW9tYWUnLCAnPG91dGZpbGUubWFlPic=

> <r_epik_Ionization_Penalty>
0.355661

> <r_epik_Ionization_Penalty_Charging>
0

> <r_epik_Ionization_Penalty_Neutral>
0.355661

> <r_epik_State_Penalty>
0.325123

> <r_epik_Charging_Adjusted_Penalty>
0.325123

> <i_epik_Tot_Q>
0

> <i_epik_Tot_abs_Q>
0

> <r_epik_Metal_State_Penalty>
0.239925

> <b_epik_Metal_Only>
0

> <s_lp_Force_Field>
OPLS_2005

> <r_lp_Energy>
27.9323

> <b_lp_Chiralities_Consistent>
1

> <s_lp_Variant>
AV-unprocessed.smi:356-1

> <Gold.Version>
5.8.1

> <Gold.Id.Protein>
6NUR|6NUR_protein|mol2

> <Gold.PLP.Fitness>
43.6119

> <Gold.PLP.PLP>
-42.8995

> <Gold.PLP.part.hbond>
-2.0000

> <Gold.PLP.part.metal>
0.0000

> <Gold.PLP.part.buried>
-3.7845

> <Gold.PLP.part.nonpolar>
-36.4261

> <Gold.PLP.part.repulsive>
0.0623

> <Gold.PLP.ligand.clash>
0.0000

> <Gold.PLP.ligand.torsion>
1.0634

> <Gold.PLP.Chemscore.Hbond>
0.9440

> <Gold.PLP.Chemscore.CHOScore>
0.0000

> <Gold.PLP.Chemscore.Metal>
0.0000

> <Gold.Chemscore.Hbonds>
donor molecule, donor type, donor heavy atom, donor atom, acceptor molecule, acceptor atom, score
      P1  H  7997  8008       L1     3  0.32

> <Gold.PLP.Chemscore.Internal.Correction>
0.0072

> <Gold.Rescore>
     Score         DG    S(hbond)    S(metal)    S(lipo)     H(rot)  DE(clash)    DE(int)     intcor
     16.18     -17.21       0.96        0.00     116.32       1.99       0.02       1.01       ----

> <Gold.Chemscore.Fitness>
16.1787

> <Gold.Chemscore.DG>
-17.2127

> <Gold.Chemscore.ZeroCoef>
-5.4800

> <Gold.Chemscore.Hbond>
0.9604

> <Gold.Chemscore.Metal>
0.0000

> <Gold.Chemscore.Lipo>
116.3244

> <Gold.Chemscore.Internal_Hbond>
0.0000

> <Gold.Chemscore.DEClash>
0.0236

> <Gold.Chemscore.DEInternal>
1.0104

> <Gold.Chemscore.Rot>
1.9863

> <Gold.Chemscore.Internal.Correction>
   9.000000E+99

> <Gold.Chemscore.Hbonds>
donor molecule, donor type, donor heavy atom, donor atom, acceptor molecule, acceptor atom, score
      P1  H  7997  8008       L1     3  0.03

> <Gold.Chemscore.Hbond.Weighted>
-3.2078

> <Gold.Chemscore.Metal.Weighted>
-0.0000

> <Gold.Chemscore.Lipo.Weighted>
-13.6100

> <Gold.Chemscore.Internal_Hbond.Weighted>
0.0000

> <Gold.Chemscore.DEClash.Weighted>
0.0236

> <Gold.Chemscore.DEInternal.Weighted>
1.0104

> <Gold.Chemscore.Rot.Weighted>
5.0850

> <Gold.Chemscore.Internal.Correction.Weighted>
   9.000000E+99

> <Gold.Protein.RotatedTorsions>
[ 6907 6896 6895 6894 ] final -162.87 input  -60.11 | X-H torsion
[ 7974 7965 7964 7962 ] final -160.22 input  175.53 | X-H torsion
[ 8008 7997 7996 7995 ] final -103.09 input   59.86 | X-H torsion
[ 10167 10162 10161 10158 ] final  120.51 input  -65.29 | X-H torsion
[ 10718 10713 10712 10709 ] final -140.97 input   66.30 | X-H torsion
[ 10763 10752 10751 10750 ] final   80.17 input  -60.55 | X-H torsion
[ 11005 11000 10999 10996 ] final  110.23 input  -57.11 | X-H torsion

> <Gold.Protein.ActiveResidues>
 VAL166  LYS551  ARG553  GLY616  TRP617  ASP618  TYR619  PRO620  LYS621  CYS622 
 ASP623  PHE694  ASN695  SER759  ASP760  ASP761  ALA762  ILE779  LEU786  VAL792 
 PHE793  MET794  SER795  GLU796  ALA797  LYS798  CYS799  TRP800  GLU811  SER814 

> <Gold.Protein.RotatedAtoms>
  151.3871  133.3801  159.2716 H   0  0  0  0  0  0  0  0  0  0  0  0  # atno 6907 bound_to 6896
  150.9533  134.8932  159.7696 H   0  0  0  0  0  0  0  0  0  0  0  0  # atno 6908 bound_to 6896
  152.5120  134.3827  159.9409 H   0  0  0  0  0  0  0  0  0  0  0  0  # atno 6909 bound_to 6896
  144.7435  140.3573  143.6103 H   0  0  0  0  0  0  0  0  0  0  0  0  # atno 7974 bound_to 7965
  154.8659  140.0425  157.1694 H   0  0  0  0  0  0  0  0  0  0  0  0  # atno 8008 bound_to 7997
  154.8790  140.2970  155.5415 H   0  0  0  0  0  0  0  0  0  0  0  0  # atno 8009 bound_to 7997
  156.2999  140.2415  156.3790 H   0  0  0  0  0  0  0  0  0  0  0  0  # atno 8010 bound_to 7997
  139.5978  144.7047  151.3135 H   0  0  0  0  0  0  0  0  0  0  0  0  # atno 10167 bound_to 10162
  156.3286  130.7573  151.1687 H   0  0  0  0  0  0  0  0  0  0  0  0  # atno 10718 bound_to 10713
  153.1011  135.4812  154.8869 H   0  0  0  0  0  0  0  0  0  0  0  0  # atno 10763 bound_to 10752
  154.7380  135.3075  154.8780 H   0  0  0  0  0  0  0  0  0  0  0  0  # atno 10764 bound_to 10752
  153.9396  135.6835  153.4798 H   0  0  0  0  0  0  0  0  0  0  0  0  # atno 10765 bound_to 10752
  139.8878  134.9479  156.6247 H   0  0  0  0  0  0  0  0  0  0  0  0  # atno 11005 bound_to 11000
  145.7214  139.1711  143.2482 LP  0  0  0  0  0  0  0  0  0  0  0  0  # atno 17320 bound_to 7965
  146.1274  140.7230  142.9428 LP  0  0  0  0  0  0  0  0  0  0  0  0  # atno 17321 bound_to 7965
  140.7225  143.7095  150.7781 LP  0  0  0  0  0  0  0  0  0  0  0  0  # atno 17342 bound_to 10162
  140.0665  143.5103  152.2602 LP  0  0  0  0  0  0  0  0  0  0  0  0  # atno 17343 bound_to 10162
  157.7426  131.0487  150.5012 LP  0  0  0  0  0  0  0  0  0  0  0  0  # atno 17370 bound_to 10713
  156.5174  130.4154  149.6268 LP  0  0  0  0  0  0  0  0  0  0  0  0  # atno 17371 bound_to 10713
  140.7712  133.8737  155.8493 LP  0  0  0  0  0  0  0  0  0  0  0  0  # atno 17394 bound_to 11000
  140.9840  134.1367  157.4468 LP  0  0  0  0  0  0  0  0  0  0  0  0  # atno 17395 bound_to 11000

$$$$
