AV-unprocessed.smi:1295|AV-procd|sdf|5403|dock9
  -GOLD-   22720 4563D 1   1.00000     0.00000
 Structure written by MMmdl.
 43 44  0  0  0  0  0  0  0  0  1 V2000
  152.0542  130.5538  155.2024 C   0  0  0  0  0  0  0  0  0  0  0  0
  151.3326  131.8778  155.0674 C   0  0  0  0  0  0  0  0  0  0  0  0
  150.3515  132.0842  154.2519 N   0  0  0  0  0  0  0  0  0  0  0  0
  149.7585  133.3537  154.2183 C   0  0  0  0  0  0  0  0  0  0  0  0
  148.6008  133.5117  153.2479 C   0  0  0  0  0  0  0  0  0  0  0  0
  150.1957  134.3695  155.0188 C   0  0  0  0  0  0  0  0  0  0  0  0
  149.5556  135.7588  155.0201 C   0  0  0  0  0  0  0  0  0  0  0  0
  150.4921  136.9162  154.6664 C   0  0  0  0  0  0  0  0  0  0  0  0
  151.6463  136.6889  154.3064 O   0  0  0  0  0  0  0  0  0  0  0  0
  149.9721  138.1482  154.7698 N   0  0  0  0  0  0  0  0  0  0  0  0
  150.6248  139.4053  154.4118 C   0  0  2  0  0  0  0  0  0  0  0  0
  152.0066  139.4985  155.0899 C   0  0  0  0  0  0  0  0  0  0  0  0
  151.8931  139.6638  156.6156 C   0  0  0  0  0  0  0  0  0  0  0  0
  151.0129  140.8688  156.9801 C   0  0  0  0  0  0  0  0  0  0  0  0
  149.6260  140.7698  156.3247 C   0  0  0  0  0  0  0  0  0  0  0  0
  149.7308  140.6116  154.7930 C   0  0  2  0  0  0  0  0  0  0  0  0
  148.3393  140.5514  154.1376 C   0  0  0  0  0  0  0  0  0  0  0  0
  151.3140  134.1212  155.9495 C   0  0  0  0  0  0  0  0  0  0  0  0
  151.7702  134.9559  156.7292 O   0  0  0  0  0  0  0  0  0  0  0  0
  151.8242  132.8700  155.9140 N   0  0  0  0  0  0  0  0  0  0  0  0
  152.5905  132.6497  156.5334 H   0  0  0  0  0  0  0  0  0  0  0  0
  151.3504  129.7709  155.4855 H   0  0  0  0  0  0  0  0  0  0  0  0
  152.8386  130.5975  155.9592 H   0  0  0  0  0  0  0  0  0  0  0  0
  152.5115  130.2768  154.2522 H   0  0  0  0  0  0  0  0  0  0  0  0
  148.8283  134.2708  152.4994 H   0  0  0  0  0  0  0  0  0  0  0  0
  147.6939  133.8044  153.7773 H   0  0  0  0  0  0  0  0  0  0  0  0
  148.3925  132.5782  152.7235 H   0  0  0  0  0  0  0  0  0  0  0  0
  148.7024  135.7900  154.3416 H   0  0  0  0  0  0  0  0  0  0  0  0
  149.1315  135.9479  156.0066 H   0  0  0  0  0  0  0  0  0  0  0  0
  149.0183  138.2212  155.0927 H   0  0  0  0  0  0  0  0  0  0  0  0
  150.7783  139.4345  153.3316 H   0  0  0  0  0  0  0  0  0  0  0  0
  152.6036  138.6170  154.8527 H   0  0  0  0  0  0  0  0  0  0  0  0
  152.5493  140.3508  154.6790 H   0  0  0  0  0  0  0  0  0  0  0  0
  151.4748  138.7578  157.0563 H   0  0  0  0  0  0  0  0  0  0  0  0
  152.8860  139.7853  157.0496 H   0  0  0  0  0  0  0  0  0  0  0  0
  150.9079  140.9368  158.0633 H   0  0  0  0  0  0  0  0  0  0  0  0
  151.5030  141.7889  156.6593 H   0  0  0  0  0  0  0  0  0  0  0  0
  149.0807  139.9264  156.7508 H   0  0  0  0  0  0  0  0  0  0  0  0
  149.0465  141.6610  156.5672 H   0  0  0  0  0  0  0  0  0  0  0  0
  150.2214  141.5073  154.4086 H   0  0  0  0  0  0  0  0  0  0  0  0
  147.7490  139.7152  154.5142 H   0  0  0  0  0  0  0  0  0  0  0  0
  148.4199  140.4408  153.0559 H   0  0  0  0  0  0  0  0  0  0  0  0
  147.7761  141.4642  154.3332 H   0  0  0  0  0  0  0  0  0  0  0  0
  1  2  1  0  0  0  0
  1 22  1  0  0  0  0
  1 23  1  0  0  0  0
  1 24  1  0  0  0  0
  2 20  1  0  0  0  0
  2  3  2  0  0  0  0
  3  4  1  0  0  0  0
  4  5  1  0  0  0  0
  4  6  2  0  0  0  0
  5 25  1  0  0  0  0
  5 26  1  0  0  0  0
  5 27  1  0  0  0  0
  6  7  1  0  0  0  0
  6 18  1  0  0  0  0
  7  8  1  0  0  0  0
  7 28  1  0  0  0  0
  7 29  1  0  0  0  0
  8  9  2  0  0  0  0
  8 10  1  0  0  0  0
 10 11  1  0  0  0  0
 10 30  1  0  0  0  0
 11 16  1  0  0  0  0
 11 12  1  0  0  0  0
 11 31  1  0  0  0  0
 12 13  1  0  0  0  0
 12 32  1  0  0  0  0
 12 33  1  0  0  0  0
 13 14  1  0  0  0  0
 13 34  1  0  0  0  0
 13 35  1  0  0  0  0
 14 15  1  0  0  0  0
 14 36  1  0  0  0  0
 14 37  1  0  0  0  0
 15 16  1  0  0  0  0
 15 38  1  0  0  0  0
 15 39  1  0  0  0  0
 16 17  1  0  0  0  0
 16 40  1  0  0  0  0
 17 41  1  0  0  0  0
 17 42  1  0  0  0  0
 17 43  1  0  0  0  0
 18 19  2  0  0  0  0
 18 20  1  0  0  0  0
 20 21  1  0  0  0  0
M  END
> <s_m_source_file>
AV-unprocessed.smi

> <i_m_source_file_index>
1295

> <i_lp_mmshare_version>
43012

> <i_f3d_flags>
0

> <s_epik_input>
W0NIM11jMW5jKFtDSDNdKWMoYyg9TylbbkhdMSlbQ0gyXUMoPU8pW05IXVtDQEBIXTJbQ0gyXVtDSDJdW0NIMl1bQ0gyXVtDQEhdMltDSDNd

> <s_epik_cmdline>
J2VwaWtfcHl0aG9uJywgJy1waCcsICc3LjAnLCAnLXRuJywgJzgnLCAnLW1hJywgJzIwMCcsICctbWV0YWxfYmluZGluZycsICctaW1hZScsICc8aW5maWxlLm1hZT4nLCAnLW9tYWUnLCAnPG91dGZpbGUubWFlPic=

> <r_lp_tautomer_probability>
0.839158

> <r_epik_Ionization_Penalty>
0.00037085

> <r_epik_Ionization_Penalty_Charging>
0.000336002

> <r_epik_Ionization_Penalty_Neutral>
3.48485e-05

> <r_epik_State_Penalty>
0.09125

> <r_epik_Charging_Adjusted_Penalty>
0.091586

> <i_epik_Tot_Q>
0

> <i_epik_Tot_abs_Q>
0

> <r_epik_Metal_State_Penalty>
0.251445

> <b_epik_Metal_Only>
0

> <s_lp_Force_Field>
OPLS_2005

> <r_lp_Energy>
10.0645

> <b_lp_Chiralities_Consistent>
1

> <s_lp_Variant>
AV-unprocessed.smi:1295-3

> <Gold.Version>
5.8.1

> <Gold.Id.Protein>
6NUR|6NUR_protein|mol2

> <Gold.PLP.Fitness>
36.7800

> <Gold.PLP.PLP>
-33.9177

> <Gold.PLP.part.hbond>
-2.0000

> <Gold.PLP.part.metal>
0.0000

> <Gold.PLP.part.buried>
-1.8532

> <Gold.PLP.part.nonpolar>
-30.0868

> <Gold.PLP.part.repulsive>
0.3219

> <Gold.PLP.ligand.clash>
0.0000

> <Gold.PLP.ligand.torsion>
0.0732

> <Gold.PLP.Chemscore.Hbond>
1.0000

> <Gold.PLP.Chemscore.CHOScore>
0.0000

> <Gold.PLP.Chemscore.Metal>
0.0000

> <Gold.Chemscore.Hbonds>
donor molecule, donor type, donor heavy atom, donor atom, acceptor molecule, acceptor atom, score
      P1  H 10752 10763       L1     9  1.00

> <Gold.PLP.Chemscore.Internal.Correction>
0.0086

> <Gold.Rescore>
     Score         DG    S(hbond)    S(metal)    S(lipo)     H(rot)  DE(clash)    DE(int)     intcor
     11.87     -13.28       1.02        0.00      69.96       1.48       0.02       1.39       ----

> <Gold.Chemscore.Fitness>
11.8734

> <Gold.Chemscore.DG>
-13.2816

> <Gold.Chemscore.ZeroCoef>
-5.4800

> <Gold.Chemscore.Hbond>
1.0195

> <Gold.Chemscore.Metal>
0.0000

> <Gold.Chemscore.Lipo>
69.9613

> <Gold.Chemscore.Internal_Hbond>
0.0000

> <Gold.Chemscore.DEClash>
0.0210

> <Gold.Chemscore.DEInternal>
1.3872

> <Gold.Chemscore.Rot>
1.4801

> <Gold.Chemscore.Internal.Correction>
   9.000000E+99

> <Gold.Chemscore.Hbonds>
donor molecule, donor type, donor heavy atom, donor atom, acceptor molecule, acceptor atom, score
      P1  H 10752 10763       L1     9  0.99

> <Gold.Chemscore.Hbond.Weighted>
-3.4053

> <Gold.Chemscore.Metal.Weighted>
-0.0000

> <Gold.Chemscore.Lipo.Weighted>
-8.1855

> <Gold.Chemscore.Internal_Hbond.Weighted>
0.0000

> <Gold.Chemscore.DEClash.Weighted>
0.0210

> <Gold.Chemscore.DEInternal.Weighted>
1.3872

> <Gold.Chemscore.Rot.Weighted>
3.7891

> <Gold.Chemscore.Internal.Correction.Weighted>
   9.000000E+99

> <Gold.Protein.RotatedTorsions>
[ 6907 6896 6895 6894 ] final   49.58 input  -60.11 | X-H torsion
[ 7974 7965 7964 7962 ] final   69.77 input  175.53 | X-H torsion
[ 8008 7997 7996 7995 ] final   92.95 input   59.86 | X-H torsion
[ 10167 10162 10161 10158 ] final  110.48 input  -65.29 | X-H torsion
[ 10718 10713 10712 10709 ] final  127.71 input   66.30 | X-H torsion
[ 10763 10752 10751 10750 ] final   32.18 input  -60.55 | X-H torsion
[ 11005 11000 10999 10996 ] final -169.83 input  -57.11 | X-H torsion

> <Gold.Protein.ActiveResidues>
 VAL166  LYS551  ARG553  GLY616  TRP617  ASP618  TYR619  PRO620  LYS621  CYS622 
 ASP623  PHE694  ASN695  SER759  ASP760  ASP761  ALA762  ILE779  LEU786  VAL792 
 PHE793  MET794  SER795  GLU796  ALA797  LYS798  CYS799  TRP800  GLU811  SER814 

> <Gold.Protein.RotatedAtoms>
  152.2923  134.7707  160.0374 H   0  0  0  0  0  0  0  0  0  0  0  0  # atno 6907 bound_to 6896
  151.8249  133.3394  159.3603 H   0  0  0  0  0  0  0  0  0  0  0  0  # atno 6908 bound_to 6896
  150.7236  134.5467  159.5819 H   0  0  0  0  0  0  0  0  0  0  0  0  # atno 6909 bound_to 6896
  145.7863  139.2912  143.1236 H   0  0  0  0  0  0  0  0  0  0  0  0  # atno 7974 bound_to 7965
  156.0412  140.3319  155.7246 H   0  0  0  0  0  0  0  0  0  0  0  0  # atno 8008 bound_to 7997
  155.5742  140.0631  157.2817 H   0  0  0  0  0  0  0  0  0  0  0  0  # atno 8009 bound_to 7997
  154.4394  140.1855  156.0898 H   0  0  0  0  0  0  0  0  0  0  0  0  # atno 8010 bound_to 7997
  139.6685  144.7126  151.1732 H   0  0  0  0  0  0  0  0  0  0  0  0  # atno 10167 bound_to 10162
  157.5309  131.1098  150.9011 H   0  0  0  0  0  0  0  0  0  0  0  0  # atno 10718 bound_to 10713
  153.0276  135.6420  154.1314 H   0  0  0  0  0  0  0  0  0  0  0  0  # atno 10763 bound_to 10752
  154.1041  135.2857  155.3247 H   0  0  0  0  0  0  0  0  0  0  0  0  # atno 10764 bound_to 10752
  154.6378  135.5470  153.7817 H   0  0  0  0  0  0  0  0  0  0  0  0  # atno 10765 bound_to 10752
  140.5263  134.5660  157.5062 H   0  0  0  0  0  0  0  0  0  0  0  0  # atno 11005 bound_to 11000
  146.0022  140.8510  143.0013 LP  0  0  0  0  0  0  0  0  0  0  0  0  # atno 17320 bound_to 7965
  144.6788  140.2369  143.7348 LP  0  0  0  0  0  0  0  0  0  0  0  0  # atno 17321 bound_to 7965
  140.7609  143.5882  150.8824 LP  0  0  0  0  0  0  0  0  0  0  0  0  # atno 17342 bound_to 10162
  139.9545  143.6234  152.3020 LP  0  0  0  0  0  0  0  0  0  0  0  0  # atno 17343 bound_to 10162
  156.9593  130.5449  149.5285 LP  0  0  0  0  0  0  0  0  0  0  0  0  # atno 17370 bound_to 10713
  156.0421  130.5503  150.8796 LP  0  0  0  0  0  0  0  0  0  0  0  0  # atno 17371 bound_to 10713
  139.9578  134.7504  156.0302 LP  0  0  0  0  0  0  0  0  0  0  0  0  # atno 17394 bound_to 11000
  141.1306  133.6587  156.3455 LP  0  0  0  0  0  0  0  0  0  0  0  0  # atno 17395 bound_to 11000

$$$$
