AV-unprocessed.smi:290|AV-procd|sdf|2231|dock7
  -GOLD-   2262022 93D 1   1.00000     0.00000
 Structure written by MMmdl.
 59 62  0  0  0  0  0  0  0  0  2 V2000
  152.5633  144.7121  158.1790 C   0  0  0  0  0  0  0  0  0  0  0  0
  151.9998  143.7462  159.2280 C   0  0  2  0  0  0  0  0  0  0  0  0
  153.0032  143.5070  160.2069 O   0  0  0  0  0  0  0  0  0  0  0  0
  152.6516  142.3244  160.8976 C   0  0  0  0  0  0  0  0  0  0  0  0
  152.2421  141.4070  159.7561 C   0  0  0  0  0  0  0  0  0  0  0  0
  151.5292  142.3328  158.7659 C   0  0  1  0  0  0  0  0  0  0  0  0
  150.1408  142.2374  159.0293 O   0  0  0  0  0  0  0  0  0  0  0  0
  151.8285  141.8840  157.3037 C   0  0  0  0  0  0  0  0  0  0  0  0
  150.7190  141.2762  156.5777 N   0  0  0  0  0  0  0  0  0  0  0  0
  149.9621  141.8562  155.5862 C   0  0  0  0  0  0  0  0  0  0  0  0
  149.0354  141.0946  155.0749 N   0  0  0  0  0  0  0  0  0  0  0  0
  149.1871  139.8746  155.7251 C   0  0  0  0  0  0  0  0  0  0  0  0
  148.5341  138.6057  155.6527 C   0  0  0  0  0  0  0  0  0  0  0  0
  147.5023  138.2893  154.8245 N   0  0  0  0  0  0  0  0  0  0  0  0
  147.1013  139.2121  153.7752 C   0  0  0  0  0  0  0  0  0  0  0  0
  146.6731  138.3243  152.6146 C   0  0  0  0  0  0  0  0  0  0  0  0
  146.1432  137.0493  153.2901 C   0  0  1  0  0  0  0  0  0  0  0  0
  146.1756  135.8772  152.3624 N   0  3  1  0  0  0  0  0  0  0  0  0
  146.1015  134.5549  153.0309 C   0  0  0  0  0  0  0  0  0  0  0  0
  145.1816  135.9808  151.2592 C   0  0  0  0  0  0  0  0  0  0  0  0
  145.0515  134.6621  150.4795 C   0  0  0  0  0  0  0  0  0  0  0  0
  144.1113  134.8120  149.4366 O   0  0  0  0  0  0  0  0  0  0  0  0
  147.0529  136.9289  154.5413 C   0  0  2  0  0  0  0  0  0  0  0  0
  146.3255  136.3431  155.7716 C   0  0  0  0  0  0  0  0  0  0  0  0
  148.9893  137.6269  156.4782 N   0  0  0  0  0  0  0  0  0  0  0  0
  150.0101  137.8548  157.3078 C   0  0  0  0  0  0  0  0  0  0  0  0
  150.7094  138.9764  157.4777 N   0  0  0  0  0  0  0  0  0  0  0  0
  150.2530  139.9737  156.6673 C   0  0  0  0  0  0  0  0  0  0  0  0
  145.1151  137.2256  153.6120 H   0  0  0  0  0  0  0  0  0  0  0  0
  147.9260  136.3308  154.2829 H   0  0  0  0  0  0  0  0  0  0  0  0
  151.7890  145.0253  157.4808 H   0  0  0  0  0  0  0  0  0  0  0  0
  153.3902  144.2740  157.6211 H   0  0  0  0  0  0  0  0  0  0  0  0
  152.9392  145.6161  158.6586 H   0  0  0  0  0  0  0  0  0  0  0  0
  151.1860  144.2573  159.7467 H   0  0  0  0  0  0  0  0  0  0  0  0
  153.4855  141.9308  161.4790 H   0  0  0  0  0  0  0  0  0  0  0  0
  151.8150  142.5170  161.5711 H   0  0  0  0  0  0  0  0  0  0  0  0
  153.1473  140.9983  159.3043 H   0  0  0  0  0  0  0  0  0  0  0  0
  151.6368  140.5619  160.0873 H   0  0  0  0  0  0  0  0  0  0  0  0
  149.7847  143.1112  159.0858 H   0  0  0  0  0  0  0  0  0  0  0  0
  152.2203  142.7158  156.7180 H   0  0  0  0  0  0  0  0  0  0  0  0
  152.6290  141.1429  157.3191 H   0  0  0  0  0  0  0  0  0  0  0  0
  150.1151  142.8711  155.2499 H   0  0  0  0  0  0  0  0  0  0  0  0
  146.2646  139.8118  154.1352 H   0  0  0  0  0  0  0  0  0  0  0  0
  147.9034  139.8875  153.4746 H   0  0  0  0  0  0  0  0  0  0  0  0
  145.9418  138.8217  151.9779 H   0  0  0  0  0  0  0  0  0  0  0  0
  147.5452  138.0886  152.0024 H   0  0  0  0  0  0  0  0  0  0  0  0
  145.1908  134.4687  153.6247 H   0  0  0  0  0  0  0  0  0  0  0  0
  146.9618  134.3853  153.6772 H   0  0  0  0  0  0  0  0  0  0  0  0
  146.1005  133.7438  152.3033 H   0  0  0  0  0  0  0  0  0  0  0  0
  144.2138  136.2740  151.6686 H   0  0  0  0  0  0  0  0  0  0  0  0
  145.4444  136.7668  150.5524 H   0  0  0  0  0  0  0  0  0  0  0  0
  146.0055  134.3321  150.0691 H   0  0  0  0  0  0  0  0  0  0  0  0
  144.7016  133.8722  151.1447 H   0  0  0  0  0  0  0  0  0  0  0  0
  144.5604  134.7202  148.6093 H   0  0  0  0  0  0  0  0  0  0  0  0
  145.9961  135.3185  155.6143 H   0  0  0  0  0  0  0  0  0  0  0  0
  145.4443  136.9343  156.0224 H   0  0  0  0  0  0  0  0  0  0  0  0
  146.9653  136.3343  156.6533 H   0  0  0  0  0  0  0  0  0  0  0  0
  150.3096  137.0185  157.9221 H   0  0  0  0  0  0  0  0  0  0  0  0
  147.0818  135.9164  151.9173 H   0  0  0  0  0  0  0  0  0  0  0  0
  1  2  1  0  0  0  0
  1 31  1  0  0  0  0
  1 32  1  0  0  0  0
  1 33  1  0  0  0  0
  2  6  1  0  0  0  0
  2  3  1  0  0  0  0
  2 34  1  0  0  0  0
  3  4  1  0  0  0  0
  4  5  1  0  0  0  0
  4 35  1  0  0  0  0
  4 36  1  0  0  0  0
  5  6  1  0  0  0  0
  5 37  1  0  0  0  0
  5 38  1  0  0  0  0
  6  7  1  0  0  0  0
  6  8  1  0  0  0  0
  7 39  1  0  0  0  0
  8  9  1  0  0  0  0
  8 40  1  0  0  0  0
  8 41  1  0  0  0  0
  9 28  1  0  0  0  0
  9 10  1  0  0  0  0
 10 11  2  0  0  0  0
 10 42  1  0  0  0  0
 11 12  1  0  0  0  0
 12 28  2  0  0  0  0
 12 13  1  0  0  0  0
 13 14  1  0  0  0  0
 13 25  2  0  0  0  0
 14 23  1  0  0  0  0
 14 15  1  0  0  0  0
 15 16  1  0  0  0  0
 15 43  1  0  0  0  0
 15 44  1  0  0  0  0
 16 17  1  0  0  0  0
 16 45  1  0  0  0  0
 16 46  1  0  0  0  0
 17 29  1  0  0  0  0
 17 18  1  0  0  0  0
 17 23  1  0  0  0  0
 18 19  1  0  0  0  0
 18 20  1  0  0  0  0
 18 59  1  0  0  0  0
 19 47  1  0  0  0  0
 19 48  1  0  0  0  0
 19 49  1  0  0  0  0
 20 21  1  0  0  0  0
 20 50  1  0  0  0  0
 20 51  1  0  0  0  0
 21 22  1  0  0  0  0
 21 52  1  0  0  0  0
 21 53  1  0  0  0  0
 22 54  1  0  0  0  0
 23 30  1  0  0  0  0
 23 24  1  0  0  0  0
 24 55  1  0  0  0  0
 24 56  1  0  0  0  0
 24 57  1  0  0  0  0
 25 26  1  0  0  0  0
 26 27  2  0  0  0  0
 26 58  1  0  0  0  0
 27 28  1  0  0  0  0
M  CHG  1  18   1
M  END
> <s_m_source_file>
AV-unprocessed.smi

> <i_m_source_file_index>
290

> <i_lp_mmshare_version>
43012

> <i_f3d_flags>
0

> <s_epik_input>
W0NIMl0xW0NIMl1PW0NAQEhdKFtDSDNdKVtDQEBdMShbT0hdKVtDSDJdbihbY0hdbjIpYyhjMjMpbltjSF1uYzNONFtDSDJdW0NIMl1bQ0BIXShbQ0BIXTRbQ0gzXSlOKFtDSDNdKVtDSDJdW0NIMl1bT0hd

> <s_epik_cmdline>
J2VwaWtfcHl0aG9uJywgJy1waCcsICc3LjAnLCAnLXRuJywgJzgnLCAnLW1hJywgJzIwMCcsICctbWV0YWxfYmluZGluZycsICctaW1hZScsICc8aW5maWxlLm1hZT4nLCAnLW9tYWUnLCAnPG91dGZpbGUubWFlPic=

> <r_lp_tautomer_probability>
1

> <r_epik_Ionization_Penalty>
0.0036983

> <r_epik_Ionization_Penalty_Charging>
0.0032725

> <r_epik_Ionization_Penalty_Neutral>
0.000425798

> <r_epik_State_Penalty>
-0

> <r_epik_Charging_Adjusted_Penalty>
0.0032725

> <i_epik_Tot_Q>
1

> <i_epik_Tot_abs_Q>
1

> <r_epik_Metal_State_Penalty>
-0

> <b_epik_Metal_Only>
0

> <s_lp_Force_Field>
OPLS_2005

> <r_lp_Energy>
63.0436

> <b_lp_Chiralities_Consistent>
1

> <s_lp_Variant>
AV-unprocessed.smi:290-17

> <Gold.Version>
5.8.1

> <Gold.Id.Protein>
6NUR|6NUR_protein|mol2

> <Gold.PLP.Fitness>
48.2042

> <Gold.PLP.PLP>
-39.1673

> <Gold.PLP.part.hbond>
-3.7474

> <Gold.PLP.part.metal>
0.0000

> <Gold.PLP.part.buried>
-3.8219

> <Gold.PLP.part.nonpolar>
-31.3736

> <Gold.PLP.part.repulsive>
0.1362

> <Gold.PLP.ligand.clash>
0.0000

> <Gold.PLP.ligand.torsion>
1.6320

> <Gold.PLP.Chemscore.Hbond>
3.0000

> <Gold.PLP.Chemscore.CHOScore>
0.9818

> <Gold.PLP.Chemscore.Metal>
0.0000

> <Gold.Chemscore.Hbonds>
donor molecule, donor type, donor heavy atom, donor atom, acceptor molecule, acceptor atom, score
      L1  H    18    59       P1  7948  2.00
      L1  H    22    54       P1  7921  0.99
      L1  C    10    42       P1  8028  1.00

> <Gold.PLP.Chemscore.Internal.Correction>
0.3554

> <Gold.Rescore>
     Score         DG    S(hbond)    S(metal)    S(lipo)     H(rot)  DE(clash)    DE(int)     intcor
     11.18     -15.19       1.98        0.00      99.90       3.35       0.42       3.60       ----

> <Gold.Chemscore.Fitness>
11.1763

> <Gold.Chemscore.DG>
-15.1930

> <Gold.Chemscore.ZeroCoef>
-5.4800

> <Gold.Chemscore.Hbond>
1.9775

> <Gold.Chemscore.Metal>
0.0000

> <Gold.Chemscore.Lipo>
99.9033

> <Gold.Chemscore.Internal_Hbond>
0.0000

> <Gold.Chemscore.DEClash>
0.4177

> <Gold.Chemscore.DEInternal>
3.5990

> <Gold.Chemscore.Rot>
3.3518

> <Gold.Chemscore.Internal.Correction>
   9.000000E+99

> <Gold.Chemscore.Hbonds>
donor molecule, donor type, donor heavy atom, donor atom, acceptor molecule, acceptor atom, score
      L1  H    18    59       P1  7948  0.98
      L1  H    22    54       P1  7921  0.94

> <Gold.Chemscore.Hbond.Weighted>
-6.6049

> <Gold.Chemscore.Metal.Weighted>
-0.0000

> <Gold.Chemscore.Lipo.Weighted>
-11.6887

> <Gold.Chemscore.Internal_Hbond.Weighted>
0.0000

> <Gold.Chemscore.DEClash.Weighted>
0.4177

> <Gold.Chemscore.DEInternal.Weighted>
3.5990

> <Gold.Chemscore.Rot.Weighted>
8.5806

> <Gold.Chemscore.Internal.Correction.Weighted>
   9.000000E+99

> <Gold.Protein.RotatedTorsions>
[ 6907 6896 6895 6894 ] final  167.48 input  -60.11 | X-H torsion
[ 7974 7965 7964 7962 ] final  -17.54 input  175.53 | X-H torsion
[ 8008 7997 7996 7995 ] final  176.97 input   59.86 | X-H torsion
[ 10167 10162 10161 10158 ] final   60.24 input  -65.29 | X-H torsion
[ 10718 10713 10712 10709 ] final   35.65 input   66.30 | X-H torsion
[ 10763 10752 10751 10750 ] final  -59.03 input  -60.55 | X-H torsion
[ 11005 11000 10999 10996 ] final  134.63 input  -57.11 | X-H torsion

> <Gold.Protein.ActiveResidues>
 VAL166  LYS551  ARG553  GLY616  TRP617  ASP618  TYR619  PRO620  LYS621  CYS622 
 ASP623  PHE694  ASN695  SER759  ASP760  ASP761  ALA762  ILE779  LEU786  VAL792 
 PHE793  MET794  SER795  GLU796  ALA797  LYS798  CYS799  TRP800  GLU811  SER814 

> <Gold.Protein.RotatedAtoms>
  151.8627  133.3460  159.3708 H   0  0  0  0  0  0  0  0  0  0  0  0  # atno 6907 bound_to 6896
  150.7174  134.5190  159.5654 H   0  0  0  0  0  0  0  0  0  0  0  0  # atno 6908 bound_to 6896
  152.2707  134.7936  160.0465 H   0  0  0  0  0  0  0  0  0  0  0  0  # atno 6909 bound_to 6896
  146.1936  140.3794  142.8449 H   0  0  0  0  0  0  0  0  0  0  0  0  # atno 7974 bound_to 7965
  156.0707  140.1370  156.9832 H   0  0  0  0  0  0  0  0  0  0  0  0  # atno 8008 bound_to 7997
  154.4530  140.0972  156.6726 H   0  0  0  0  0  0  0  0  0  0  0  0  # atno 8009 bound_to 7997
  155.5233  140.3457  155.4413 H   0  0  0  0  0  0  0  0  0  0  0  0  # atno 8010 bound_to 7997
  140.1677  144.4308  150.6677 H   0  0  0  0  0  0  0  0  0  0  0  0  # atno 10167 bound_to 10162
  157.3252  130.7469  149.6811 H   0  0  0  0  0  0  0  0  0  0  0  0  # atno 10718 bound_to 10713
  154.2474  135.6332  153.5228 H   0  0  0  0  0  0  0  0  0  0  0  0  # atno 10763 bound_to 10752
  152.9919  135.5556  154.5845 H   0  0  0  0  0  0  0  0  0  0  0  0  # atno 10764 bound_to 10752
  154.5364  135.2892  155.1109 H   0  0  0  0  0  0  0  0  0  0  0  0  # atno 10765 bound_to 10752
  139.9927  134.9509  156.9894 H   0  0  0  0  0  0  0  0  0  0  0  0  # atno 11005 bound_to 11000
  144.8535  140.7036  143.6153 LP  0  0  0  0  0  0  0  0  0  0  0  0  # atno 17320 bound_to 7965
  145.3715  139.1657  143.4329 LP  0  0  0  0  0  0  0  0  0  0  0  0  # atno 17321 bound_to 7965
  140.6602  143.2250  151.5873 LP  0  0  0  0  0  0  0  0  0  0  0  0  # atno 17342 bound_to 10162
  139.5352  144.2801  152.1236 LP  0  0  0  0  0  0  0  0  0  0  0  0  # atno 17343 bound_to 10162
  155.9690  130.4211  150.4454 LP  0  0  0  0  0  0  0  0  0  0  0  0  # atno 17370 bound_to 10713
  157.2477  131.0539  151.2398 LP  0  0  0  0  0  0  0  0  0  0  0  0  # atno 17371 bound_to 10713
  140.4877  134.1225  155.7227 LP  0  0  0  0  0  0  0  0  0  0  0  0  # atno 17394 bound_to 11000
  141.1579  133.8848  157.1927 LP  0  0  0  0  0  0  0  0  0  0  0  0  # atno 17395 bound_to 11000

$$$$
