AV-unprocessed.smi:193|AV-procd|sdf|1513|dock4
  -GOLD-   2262019343D 1   1.00000     0.00000
 Structure written by MMmdl.
 61 65  0  0  0  0  0  0  0  0  1 V2000
  147.9882  141.4820  153.6634 C   0  0  0  0  0  0  0  0  0  0  0  0
  148.1819  141.4514  155.1864 C   0  0  1  0  0  0  0  0  0  0  0  0
  147.3059  140.3645  155.8474 C   0  0  0  0  0  0  0  0  0  0  0  0
  147.9463  139.0561  155.9756 N   0  0  0  0  0  0  0  0  0  0  0  0
  147.0874  138.0361  155.7208 C   0  0  0  0  0  0  0  0  0  0  0  0
  146.7176  137.1862  156.7171 N   0  0  0  0  0  0  0  0  0  0  0  0
  145.8463  136.2023  156.4756 C   0  0  0  0  0  0  0  0  0  0  0  0
  145.2302  135.8955  155.3328 N   0  0  0  0  0  0  0  0  0  0  0  0
  145.5986  136.7421  154.3291 C   0  0  0  0  0  0  0  0  0  0  0  0
  146.5096  137.8306  154.4373 C   0  0  0  0  0  0  0  0  0  0  0  0
  146.6316  138.4694  153.2100 N   0  0  0  0  0  0  0  0  0  0  0  0
  145.8368  137.7993  152.4216 C   0  0  0  0  0  0  0  0  0  0  0  0
  145.1826  136.7396  153.0089 N   0  0  0  0  0  0  0  0  0  0  0  0
  144.2467  135.8310  152.3642 C   0  0  0  0  0  0  0  0  0  0  0  0
  144.8958  134.8924  151.3162 C   0  0  0  0  0  0  0  0  0  0  0  0
  145.1979  135.6676  150.1694 O   0  0  0  0  0  0  0  0  0  0  0  0
  146.2118  134.3047  151.8648 C   0  0  0  0  0  0  0  0  0  0  0  0
  146.8073  133.2387  150.9282 C   0  0  0  0  0  0  0  0  0  0  0  0
  145.8480  132.2182  150.6796 O   0  0  0  0  0  0  0  0  0  0  0  0
  144.6906  132.7032  150.0100 C   0  0  0  0  0  0  0  0  0  0  0  0
  143.9641  133.7369  150.8890 C   0  0  0  0  0  0  0  0  0  0  0  0
  148.8007  138.9072  157.1553 C   0  0  0  0  0  0  0  0  0  0  0  0
  150.1409  139.6474  157.0414 C   0  0  0  0  0  0  0  0  0  0  0  0
  149.9831  141.0977  156.9205 N   0  0  0  0  0  0  0  0  0  0  0  0
  151.2562  141.7110  157.2679 C   0  0  2  0  0  0  0  0  0  0  0  0
  151.7175  141.5958  158.7033 C   0  0  0  0  0  0  0  0  0  0  0  0
  151.2198  142.9213  158.1765 C   0  0  1  0  0  0  0  0  0  0  0  0
  152.1754  144.0745  157.9623 C   0  0  0  0  0  0  0  0  0  0  0  0
  149.6880  141.4338  155.5266 C   0  0  0  0  0  0  0  0  0  0  0  0
  148.3876  140.5820  153.1967 H   0  0  0  0  0  0  0  0  0  0  0  0
  148.5007  142.3371  153.2215 H   0  0  0  0  0  0  0  0  0  0  0  0
  146.9334  141.5586  153.3973 H   0  0  0  0  0  0  0  0  0  0  0  0
  147.7902  142.3995  155.5571 H   0  0  0  0  0  0  0  0  0  0  0  0
  147.0434  140.7002  156.8515 H   0  0  0  0  0  0  0  0  0  0  0  0
  146.3528  140.2942  155.3207 H   0  0  0  0  0  0  0  0  0  0  0  0
  145.6059  135.5733  157.3198 H   0  0  0  0  0  0  0  0  0  0  0  0
  145.7099  138.0572  151.3802 H   0  0  0  0  0  0  0  0  0  0  0  0
  143.7438  135.2489  153.1381 H   0  0  0  0  0  0  0  0  0  0  0  0
  143.4719  136.4351  151.8905 H   0  0  0  0  0  0  0  0  0  0  0  0
  145.4956  135.0887  149.4845 H   0  0  0  0  0  0  0  0  0  0  0  0
  146.9402  135.0970  152.0424 H   0  0  0  0  0  0  0  0  0  0  0  0
  146.0233  133.8415  152.8342 H   0  0  0  0  0  0  0  0  0  0  0  0
  147.1382  133.6807  149.9871 H   0  0  0  0  0  0  0  0  0  0  0  0
  147.6858  132.7874  151.3897 H   0  0  0  0  0  0  0  0  0  0  0  0
  144.9669  133.1315  149.0453 H   0  0  0  0  0  0  0  0  0  0  0  0
  144.0288  131.8624  149.8017 H   0  0  0  0  0  0  0  0  0  0  0  0
  143.5868  133.2322  151.7792 H   0  0  0  0  0  0  0  0  0  0  0  0
  143.0908  134.1163  150.3571 H   0  0  0  0  0  0  0  0  0  0  0  0
  148.2635  139.2449  158.0428 H   0  0  0  0  0  0  0  0  0  0  0  0
  149.0254  137.8516  157.3152 H   0  0  0  0  0  0  0  0  0  0  0  0
  150.6932  139.4342  157.9577 H   0  0  0  0  0  0  0  0  0  0  0  0
  150.7464  139.2405  156.2301 H   0  0  0  0  0  0  0  0  0  0  0  0
  152.0525  141.7085  156.5250 H   0  0  0  0  0  0  0  0  0  0  0  0
  151.0768  141.0626  159.4034 H   0  0  0  0  0  0  0  0  0  0  0  0
  152.7861  141.4858  158.8763 H   0  0  0  0  0  0  0  0  0  0  0  0
  150.2368  143.2319  158.5265 H   0  0  0  0  0  0  0  0  0  0  0  0
  153.1479  143.7156  157.6242 H   0  0  0  0  0  0  0  0  0  0  0  0
  152.3115  144.6245  158.8934 H   0  0  0  0  0  0  0  0  0  0  0  0
  151.7756  144.7552  157.2109 H   0  0  0  0  0  0  0  0  0  0  0  0
  150.2280  140.7679  154.8516 H   0  0  0  0  0  0  0  0  0  0  0  0
  150.0691  142.4326  155.3063 H   0  0  0  0  0  0  0  0  0  0  0  0
  1  2  1  0  0  0  0
  1 30  1  0  0  0  0
  1 31  1  0  0  0  0
  1 32  1  0  0  0  0
  2 29  1  0  0  0  0
  2  3  1  0  0  0  0
  2 33  1  0  0  0  0
  3  4  1  0  0  0  0
  3 34  1  0  0  0  0
  3 35  1  0  0  0  0
  4  5  1  0  0  0  0
  4 22  1  0  0  0  0
  5 10  1  0  0  0  0
  5  6  2  0  0  0  0
  6  7  1  0  0  0  0
  7  8  2  0  0  0  0
  7 36  1  0  0  0  0
  8  9  1  0  0  0  0
  9 13  1  0  0  0  0
  9 10  2  0  0  0  0
 10 11  1  0  0  0  0
 11 12  2  0  0  0  0
 12 13  1  0  0  0  0
 12 37  1  0  0  0  0
 13 14  1  0  0  0  0
 14 15  1  0  0  0  0
 14 38  1  0  0  0  0
 14 39  1  0  0  0  0
 15 21  1  0  0  0  0
 15 16  1  0  0  0  0
 15 17  1  0  0  0  0
 16 40  1  0  0  0  0
 17 18  1  0  0  0  0
 17 41  1  0  0  0  0
 17 42  1  0  0  0  0
 18 19  1  0  0  0  0
 18 43  1  0  0  0  0
 18 44  1  0  0  0  0
 19 20  1  0  0  0  0
 20 21  1  0  0  0  0
 20 45  1  0  0  0  0
 20 46  1  0  0  0  0
 21 47  1  0  0  0  0
 21 48  1  0  0  0  0
 22 23  1  0  0  0  0
 22 49  1  0  0  0  0
 22 50  1  0  0  0  0
 23 24  1  0  0  0  0
 23 51  1  0  0  0  0
 23 52  1  0  0  0  0
 24 25  1  0  0  0  0
 24 29  1  0  0  0  0
 25 27  1  0  0  0  0
 25 26  1  0  0  0  0
 25 53  1  0  0  0  0
 26 27  1  0  0  0  0
 26 54  1  0  0  0  0
 26 55  1  0  0  0  0
 27 28  1  0  0  0  0
 27 56  1  0  0  0  0
 28 57  1  0  0  0  0
 28 58  1  0  0  0  0
 28 59  1  0  0  0  0
 29 60  1  0  0  0  0
 29 61  1  0  0  0  0
M  END
> <s_m_source_file>
AV-unprocessed.smi

> <i_m_source_file_index>
193

> <i_lp_mmshare_version>
43012

> <i_f3d_flags>
0

> <s_epik_input>
W0NIM11bQ0BASF0xW0NIMl1bQ0BIXTFOKFtDSDJdMilbQ0gyXVtDSDJdTihbQ0gyXVtDQEhdMltDSDNdKWMobltjSF1uMyljKGMzNCluW2NIXW40W0NIMl1DNShbT0hdKVtDSDJdW0NIMl1PW0NIMl1bQ0gyXTU=

> <s_epik_cmdline>
J2VwaWtfcHl0aG9uJywgJy1waCcsICc3LjAnLCAnLXRuJywgJzgnLCAnLW1hJywgJzIwMCcsICctbWV0YWxfYmluZGluZycsICctaW1hZScsICc8aW5maWxlLm1hZT4nLCAnLW9tYWUnLCAnPG91dGZpbGUubWFlPic=

> <r_lp_tautomer_probability>
1

> <r_epik_Ionization_Penalty>
1.45227

> <r_epik_Ionization_Penalty_Charging>
0

> <r_epik_Ionization_Penalty_Neutral>
1.45227

> <r_epik_State_Penalty>
2.02377

> <r_epik_Charging_Adjusted_Penalty>
2.02377

> <i_epik_Tot_Q>
0

> <i_epik_Tot_abs_Q>
0

> <r_epik_Metal_State_Penalty>
2.01937

> <b_epik_Metal_Only>
0

> <s_lp_Force_Field>
OPLS_2005

> <r_lp_Energy>
55.7491

> <b_lp_Chiralities_Consistent>
1

> <s_lp_Variant>
AV-unprocessed.smi:193-18

> <Gold.Version>
5.8.1

> <Gold.Id.Protein>
6NUR|6NUR_protein|mol2

> <Gold.PLP.Fitness>
43.9156

> <Gold.PLP.PLP>
-38.8972

> <Gold.PLP.part.hbond>
-1.6321

> <Gold.PLP.part.metal>
0.0000

> <Gold.PLP.part.buried>
-7.0893

> <Gold.PLP.part.nonpolar>
-31.2946

> <Gold.PLP.part.repulsive>
0.4394

> <Gold.PLP.ligand.clash>
0.0000

> <Gold.PLP.ligand.torsion>
1.2109

> <Gold.PLP.Chemscore.Hbond>
1.0000

> <Gold.PLP.Chemscore.CHOScore>
1.0000

> <Gold.PLP.Chemscore.Metal>
0.0000

> <Gold.Chemscore.Hbonds>
donor molecule, donor type, donor heavy atom, donor atom, acceptor molecule, acceptor atom, score
      L1  H    16    40       P1  7921  0.99
      L1  C    12    37       P1 10171  1.00

> <Gold.PLP.Chemscore.Internal.Correction>
1.4403

> <Gold.Rescore>
     Score         DG    S(hbond)    S(metal)    S(lipo)     H(rot)  DE(clash)    DE(int)     intcor
     14.41     -15.66       0.99        0.00     106.03       2.17       0.08       1.16       ----

> <Gold.Chemscore.Fitness>
14.4105

> <Gold.Chemscore.DG>
-15.6589

> <Gold.Chemscore.ZeroCoef>
-5.4800

> <Gold.Chemscore.Hbond>
0.9939

> <Gold.Chemscore.Metal>
0.0000

> <Gold.Chemscore.Lipo>
106.0280

> <Gold.Chemscore.Internal_Hbond>
0.0000

> <Gold.Chemscore.DEClash>
0.0848

> <Gold.Chemscore.DEInternal>
1.1637

> <Gold.Chemscore.Rot>
2.1664

> <Gold.Chemscore.Internal.Correction>
   9.000000E+99

> <Gold.Chemscore.Hbonds>
donor molecule, donor type, donor heavy atom, donor atom, acceptor molecule, acceptor atom, score
      L1  H    16    40       P1  7921  0.91

> <Gold.Chemscore.Hbond.Weighted>
-3.3196

> <Gold.Chemscore.Metal.Weighted>
-0.0000

> <Gold.Chemscore.Lipo.Weighted>
-12.4053

> <Gold.Chemscore.Internal_Hbond.Weighted>
0.0000

> <Gold.Chemscore.DEClash.Weighted>
0.0848

> <Gold.Chemscore.DEInternal.Weighted>
1.1637

> <Gold.Chemscore.Rot.Weighted>
5.5459

> <Gold.Chemscore.Internal.Correction.Weighted>
   9.000000E+99

> <Gold.Protein.RotatedTorsions>
[ 6907 6896 6895 6894 ] final -130.89 input  -60.11 | X-H torsion
[ 7974 7965 7964 7962 ] final   31.59 input  175.53 | X-H torsion
[ 8008 7997 7996 7995 ] final -175.35 input   59.86 | X-H torsion
[ 10167 10162 10161 10158 ] final  -61.64 input  -65.29 | X-H torsion
[ 10718 10713 10712 10709 ] final -159.51 input   66.30 | X-H torsion
[ 10763 10752 10751 10750 ] final  117.43 input  -60.55 | X-H torsion
[ 11005 11000 10999 10996 ] final -110.56 input  -57.11 | X-H torsion

> <Gold.Protein.ActiveResidues>
 VAL166  LYS551  ARG553  GLY616  TRP617  ASP618  TYR619  PRO620  LYS621  CYS622 
 ASP623  PHE694  ASN695  SER759  ASP760  ASP761  ALA762  ILE779  LEU786  VAL792 
 PHE793  MET794  SER795  GLU796  ALA797  LYS798  CYS799  TRP800  GLU811  SER814 

> <Gold.Protein.RotatedAtoms>
  150.9447  133.6616  159.2783 H   0  0  0  0  0  0  0  0  0  0  0  0  # atno 6907 bound_to 6896
  151.3993  135.0967  159.9560 H   0  0  0  0  0  0  0  0  0  0  0  0  # atno 6908 bound_to 6896
  152.5085  133.8945  159.7465 H   0  0  0  0  0  0  0  0  0  0  0  0  # atno 6909 bound_to 6896
  146.1540  139.6636  142.9079 H   0  0  0  0  0  0  0  0  0  0  0  0  # atno 7974 bound_to 7965
  155.9815  140.1182  157.0722 H   0  0  0  0  0  0  0  0  0  0  0  0  # atno 8008 bound_to 7997
  154.4184  140.1143  156.5510 H   0  0  0  0  0  0  0  0  0  0  0  0  # atno 8009 bound_to 7997
  155.6464  140.3473  155.4735 H   0  0  0  0  0  0  0  0  0  0  0  0  # atno 8010 bound_to 7997
  140.5992  143.2357  151.5966 H   0  0  0  0  0  0  0  0  0  0  0  0  # atno 10167 bound_to 10162
  156.5692  130.8681  151.2832 H   0  0  0  0  0  0  0  0  0  0  0  0  # atno 10718 bound_to 10713
  153.5523  135.3537  155.2764 H   0  0  0  0  0  0  0  0  0  0  0  0  # atno 10763 bound_to 10752
  154.8705  135.4117  154.2923 H   0  0  0  0  0  0  0  0  0  0  0  0  # atno 10764 bound_to 10752
  153.3652  135.7062  153.6749 H   0  0  0  0  0  0  0  0  0  0  0  0  # atno 10765 bound_to 10752
  141.0784  133.9261  157.2340 H   0  0  0  0  0  0  0  0  0  0  0  0  # atno 11005 bound_to 11000
  145.4754  141.0437  143.2675 LP  0  0  0  0  0  0  0  0  0  0  0  0  # atno 17320 bound_to 7965
  144.7940  139.6272  143.7101 LP  0  0  0  0  0  0  0  0  0  0  0  0  # atno 17321 bound_to 7965
  139.5279  144.3003  152.1079 LP  0  0  0  0  0  0  0  0  0  0  0  0  # atno 17342 bound_to 10162
  140.2180  144.4495  150.6355 LP  0  0  0  0  0  0  0  0  0  0  0  0  # atno 17343 bound_to 10162
  157.7352  130.9758  150.2068 LP  0  0  0  0  0  0  0  0  0  0  0  0  # atno 17370 bound_to 10713
  156.2730  130.3724  149.8012 LP  0  0  0  0  0  0  0  0  0  0  0  0  # atno 17371 bound_to 10713
  139.9597  135.0157  156.9227 LP  0  0  0  0  0  0  0  0  0  0  0  0  # atno 17394 bound_to 11000
  140.5522  134.0616  155.7372 LP  0  0  0  0  0  0  0  0  0  0  0  0  # atno 17395 bound_to 11000

$$$$
