AV-unprocessed.smi:244|AV-procd|sdf|1864|dock1
  -GOLD-   2262020503D 1   1.00000     0.00000
 Structure written by MMmdl.
 57 61  0  0  0  0  0  0  0  0  2 V2000
  146.9258  128.9960  152.4635 C   0  0  0  0  0  0  0  0  0  0  0  0
  146.5264  130.2803  151.8490 N   0  3  1  0  0  0  0  0  0  0  0  0
  145.1694  130.2205  151.2507 C   0  0  0  0  0  0  0  0  0  0  0  0
  144.8274  131.5323  150.5263 C   0  0  0  0  0  0  0  0  0  0  0  0
  144.9567  132.7224  151.4843 C   0  0  2  0  0  0  0  0  0  0  0  0
  144.6892  133.9316  150.7830 O   0  0  0  0  0  0  0  0  0  0  0  0
  144.7315  135.0620  151.6476 C   0  0  0  0  0  0  0  0  0  0  0  0
  146.1351  135.1812  152.2623 C   0  0  0  0  0  0  0  0  0  0  0  0
  146.4994  133.9421  152.9468 N   0  0  0  0  0  0  0  0  0  0  0  0
  147.6615  134.0318  153.6341 C   0  0  0  0  0  0  0  0  0  0  0  0
  148.6593  133.1357  153.4129 N   0  0  0  0  0  0  0  0  0  0  0  0
  149.7974  133.2201  154.1096 C   0  0  0  0  0  0  0  0  0  0  0  0
  150.1319  134.0968  155.0593 N   0  0  0  0  0  0  0  0  0  0  0  0
  149.1281  134.9920  155.2860 C   0  0  0  0  0  0  0  0  0  0  0  0
  147.8698  135.0277  154.6239 C   0  0  0  0  0  0  0  0  0  0  0  0
  147.0937  136.0650  155.1239 N   0  0  0  0  0  0  0  0  0  0  0  0
  147.8534  136.6161  156.0312 C   0  0  0  0  0  0  0  0  0  0  0  0
  149.0954  136.0414  156.1877 N   0  0  0  0  0  0  0  0  0  0  0  0
  150.1353  136.4543  157.1182 C   0  0  0  0  0  0  0  0  0  0  0  0
  150.9432  137.6915  156.6526 C   0  0  0  0  0  0  0  0  0  0  0  0
  151.9983  137.8920  157.5771 O   0  0  0  0  0  0  0  0  0  0  0  0
  151.5561  137.5092  155.2467 C   0  0  0  0  0  0  0  0  0  0  0  0
  152.1690  138.8133  154.7059 C   0  0  0  0  0  0  0  0  0  0  0  0
  151.2021  139.8562  154.7256 O   0  0  0  0  0  0  0  0  0  0  0  0
  150.7561  140.1667  156.0398 C   0  0  0  0  0  0  0  0  0  0  0  0
  150.0485  138.9471  156.6560 C   0  0  0  0  0  0  0  0  0  0  0  0
  146.3825  132.7690  152.0758 C   0  0  1  0  0  0  0  0  0  0  0  0
  146.6832  131.4243  152.7830 C   0  0  0  0  0  0  0  0  0  0  0  0
  146.2800  128.7480  153.3069 H   0  0  0  0  0  0  0  0  0  0  0  0
  147.9544  129.0438  152.8226 H   0  0  0  0  0  0  0  0  0  0  0  0
  146.8660  128.1855  151.7365 H   0  0  0  0  0  0  0  0  0  0  0  0
  145.1173  129.3906  150.5449 H   0  0  0  0  0  0  0  0  0  0  0  0
  144.4341  130.0201  152.0318 H   0  0  0  0  0  0  0  0  0  0  0  0
  145.4945  131.6680  149.6738 H   0  0  0  0  0  0  0  0  0  0  0  0
  143.8147  131.4828  150.1249 H   0  0  0  0  0  0  0  0  0  0  0  0
  144.2240  132.6077  152.2859 H   0  0  0  0  0  0  0  0  0  0  0  0
  144.4946  135.9580  151.0738 H   0  0  0  0  0  0  0  0  0  0  0  0
  143.9718  134.9712  152.4256 H   0  0  0  0  0  0  0  0  0  0  0  0
  146.8571  135.3982  151.4737 H   0  0  0  0  0  0  0  0  0  0  0  0
  146.1633  136.0158  152.9645 H   0  0  0  0  0  0  0  0  0  0  0  0
  150.5469  132.4791  153.8730 H   0  0  0  0  0  0  0  0  0  0  0  0
  147.5301  137.4685  156.6110 H   0  0  0  0  0  0  0  0  0  0  0  0
  149.6607  136.6594  158.0786 H   0  0  0  0  0  0  0  0  0  0  0  0
  150.8020  135.6071  157.2867 H   0  0  0  0  0  0  0  0  0  0  0  0
  152.2834  137.0493  157.8959 H   0  0  0  0  0  0  0  0  0  0  0  0
  152.3154  136.7266  155.2510 H   0  0  0  0  0  0  0  0  0  0  0  0
  150.7786  137.1792  154.5566 H   0  0  0  0  0  0  0  0  0  0  0  0
  153.0467  139.1046  155.2845 H   0  0  0  0  0  0  0  0  0  0  0  0
  152.5046  138.6674  153.6790 H   0  0  0  0  0  0  0  0  0  0  0  0
  151.5968  140.4890  156.6560 H   0  0  0  0  0  0  0  0  0  0  0  0
  150.0657  141.0084  155.9851 H   0  0  0  0  0  0  0  0  0  0  0  0
  149.1446  138.7474  156.0788 H   0  0  0  0  0  0  0  0  0  0  0  0
  149.7171  139.1788  157.6690 H   0  0  0  0  0  0  0  0  0  0  0  0
  147.0948  132.8933  151.2581 H   0  0  0  0  0  0  0  0  0  0  0  0
  146.0235  131.2892  153.6418 H   0  0  0  0  0  0  0  0  0  0  0  0
  147.7064  131.4136  153.1602 H   0  0  0  0  0  0  0  0  0  0  0  0
  147.1685  130.4437  151.0864 H   0  0  0  0  0  0  0  0  0  0  0  0
  1  2  1  0  0  0  0
  1 29  1  0  0  0  0
  1 30  1  0  0  0  0
  1 31  1  0  0  0  0
  2 28  1  0  0  0  0
  2  3  1  0  0  0  0
  2 57  1  0  0  0  0
  3  4  1  0  0  0  0
  3 32  1  0  0  0  0
  3 33  1  0  0  0  0
  4  5  1  0  0  0  0
  4 34  1  0  0  0  0
  4 35  1  0  0  0  0
  5 27  1  0  0  0  0
  5  6  1  0  0  0  0
  5 36  1  0  0  0  0
  6  7  1  0  0  0  0
  7  8  1  0  0  0  0
  7 37  1  0  0  0  0
  7 38  1  0  0  0  0
  8  9  1  0  0  0  0
  8 39  1  0  0  0  0
  8 40  1  0  0  0  0
  9 10  1  0  0  0  0
  9 27  1  0  0  0  0
 10 15  1  0  0  0  0
 10 11  2  0  0  0  0
 11 12  1  0  0  0  0
 12 13  2  0  0  0  0
 12 41  1  0  0  0  0
 13 14  1  0  0  0  0
 14 18  1  0  0  0  0
 14 15  2  0  0  0  0
 15 16  1  0  0  0  0
 16 17  2  0  0  0  0
 17 18  1  0  0  0  0
 17 42  1  0  0  0  0
 18 19  1  0  0  0  0
 19 20  1  0  0  0  0
 19 43  1  0  0  0  0
 19 44  1  0  0  0  0
 20 26  1  0  0  0  0
 20 21  1  0  0  0  0
 20 22  1  0  0  0  0
 21 45  1  0  0  0  0
 22 23  1  0  0  0  0
 22 46  1  0  0  0  0
 22 47  1  0  0  0  0
 23 24  1  0  0  0  0
 23 48  1  0  0  0  0
 23 49  1  0  0  0  0
 24 25  1  0  0  0  0
 25 26  1  0  0  0  0
 25 50  1  0  0  0  0
 25 51  1  0  0  0  0
 26 52  1  0  0  0  0
 26 53  1  0  0  0  0
 27 28  1  0  0  0  0
 27 54  1  0  0  0  0
 28 55  1  0  0  0  0
 28 56  1  0  0  0  0
M  CHG  1   2   1
M  END
> <s_m_source_file>
AV-unprocessed.smi

> <i_m_source_file_index>
244

> <i_lp_mmshare_version>
43012

> <i_f3d_flags>
0

> <s_epik_input>
W0NIMl0xW0NIMl1OKFtDSDNdKVtDSDJdW0NAQEhdKFtDQEhdMTIpTihbQ0gyXVtDSDJdTzIpYyhuW2NIXW4zKWMoYzM0KW5bY0hdbjRbQ0gyXUM1KFtPSF0pW0NIMl1bQ0gyXU9bQ0gyXVtDSDJdNQ==

> <s_epik_cmdline>
J2VwaWtfcHl0aG9uJywgJy1waCcsICc3LjAnLCAnLXRuJywgJzgnLCAnLW1hJywgJzIwMCcsICctbWV0YWxfYmluZGluZycsICctaW1hZScsICc8aW5maWxlLm1hZT4nLCAnLW9tYWUnLCAnPG91dGZpbGUubWFlPic=

> <r_lp_tautomer_probability>
1

> <r_epik_Ionization_Penalty>
0.0136215

> <r_epik_Ionization_Penalty_Charging>
0.0131385

> <r_epik_Ionization_Penalty_Neutral>
0.000483022

> <r_epik_State_Penalty>
0.0104001

> <r_epik_Charging_Adjusted_Penalty>
0.0235387

> <i_epik_Tot_Q>
1

> <i_epik_Tot_abs_Q>
1

> <r_epik_Metal_State_Penalty>
0.0104469

> <b_epik_Metal_Only>
0

> <s_lp_Force_Field>
OPLS_2005

> <r_lp_Energy>
41.0301

> <b_lp_Chiralities_Consistent>
1

> <s_lp_Variant>
AV-unprocessed.smi:244-1

> <Gold.Version>
5.8.1

> <Gold.Id.Protein>
6NUR|6NUR_protein|mol2

> <Gold.PLP.Fitness>
36.1472

> <Gold.PLP.PLP>
-32.9067

> <Gold.PLP.part.hbond>
-2.0000

> <Gold.PLP.part.metal>
0.0000

> <Gold.PLP.part.buried>
-5.1723

> <Gold.PLP.part.nonpolar>
-25.5192

> <Gold.PLP.part.repulsive>
0.6670

> <Gold.PLP.ligand.clash>
2.1920

> <Gold.PLP.ligand.torsion>
0.3526

> <Gold.PLP.Chemscore.Hbond>
2.0000

> <Gold.PLP.Chemscore.CHOScore>
0.0000

> <Gold.PLP.Chemscore.Metal>
0.0000

> <Gold.Chemscore.Hbonds>
donor molecule, donor type, donor heavy atom, donor atom, acceptor molecule, acceptor atom, score
      L1  H     2    57       P1 10747  1.00
      P1  H  7989  7998       L1    24  1.00

> <Gold.PLP.Chemscore.Internal.Correction>
0.1378

> <Gold.Rescore>
     Score         DG    S(hbond)    S(metal)    S(lipo)     H(rot)  DE(clash)    DE(int)     intcor
     13.85     -16.78       1.93        0.00      87.14       2.09       1.04       1.89       ----

> <Gold.Chemscore.Fitness>
13.8481

> <Gold.Chemscore.DG>
-16.7797

> <Gold.Chemscore.ZeroCoef>
-5.4800

> <Gold.Chemscore.Hbond>
1.9334

> <Gold.Chemscore.Metal>
0.0000

> <Gold.Chemscore.Lipo>
87.1382

> <Gold.Chemscore.Internal_Hbond>
0.0000

> <Gold.Chemscore.DEClash>
1.0423

> <Gold.Chemscore.DEInternal>
1.8893

> <Gold.Chemscore.Rot>
2.0911

> <Gold.Chemscore.Internal.Correction>
   9.000000E+99

> <Gold.Chemscore.Hbonds>
donor molecule, donor type, donor heavy atom, donor atom, acceptor molecule, acceptor atom, score
      L1  H     2    57       P1 10747  0.93
      P1  H  7989  7998       L1    24  0.50

> <Gold.Chemscore.Hbond.Weighted>
-6.4577

> <Gold.Chemscore.Metal.Weighted>
-0.0000

> <Gold.Chemscore.Lipo.Weighted>
-10.1952

> <Gold.Chemscore.Internal_Hbond.Weighted>
0.0000

> <Gold.Chemscore.DEClash.Weighted>
1.0423

> <Gold.Chemscore.DEInternal.Weighted>
1.8893

> <Gold.Chemscore.Rot.Weighted>
5.3531

> <Gold.Chemscore.Internal.Correction.Weighted>
   9.000000E+99

> <Gold.Protein.RotatedTorsions>
[ 6907 6896 6895 6894 ] final   54.52 input  -60.11 | X-H torsion
[ 7974 7965 7964 7962 ] final   37.44 input  175.53 | X-H torsion
[ 8008 7997 7996 7995 ] final  144.41 input   59.86 | X-H torsion
[ 10167 10162 10161 10158 ] final   -6.58 input  -65.29 | X-H torsion
[ 10718 10713 10712 10709 ] final  -24.31 input   66.30 | X-H torsion
[ 10763 10752 10751 10750 ] final  169.94 input  -60.55 | X-H torsion
[ 11005 11000 10999 10996 ] final  -76.55 input  -57.11 | X-H torsion

> <Gold.Protein.ActiveResidues>
 VAL166  LYS551  ARG553  GLY616  TRP617  ASP618  TYR619  PRO620  LYS621  CYS622 
 ASP623  PHE694  ASN695  SER759  ASP760  ASP761  ALA762  ILE779  LEU786  VAL792 
 PHE793  MET794  SER795  GLU796  ALA797  LYS798  CYS799  TRP800  GLU811  SER814 

> <Gold.Protein.RotatedAtoms>
  152.3447  134.7087  160.0253 H   0  0  0  0  0  0  0  0  0  0  0  0  # atno 6907 bound_to 6896
  151.7461  133.3319  159.3387 H   0  0  0  0  0  0  0  0  0  0  0  0  # atno 6908 bound_to 6896
  150.7501  134.6167  159.6159 H   0  0  0  0  0  0  0  0  0  0  0  0  # atno 6909 bound_to 6896
  146.1137  139.5894  142.9335 H   0  0  0  0  0  0  0  0  0  0  0  0  # atno 7974 bound_to 7965
  156.2908  140.2236  156.5048 H   0  0  0  0  0  0  0  0  0  0  0  0  # atno 8008 bound_to 7997
  154.7658  140.0470  157.1033 H   0  0  0  0  0  0  0  0  0  0  0  0  # atno 8009 bound_to 7997
  154.9934  140.3093  155.4900 H   0  0  0  0  0  0  0  0  0  0  0  0  # atno 8010 bound_to 7997
  140.7001  143.6177  150.8642 H   0  0  0  0  0  0  0  0  0  0  0  0  # atno 10167 bound_to 10162
  156.4793  130.4541  149.6821 H   0  0  0  0  0  0  0  0  0  0  0  0  # atno 10718 bound_to 10713
  154.3905  135.2754  155.2158 H   0  0  0  0  0  0  0  0  0  0  0  0  # atno 10763 bound_to 10752
  154.4226  135.5996  153.6023 H   0  0  0  0  0  0  0  0  0  0  0  0  # atno 10764 bound_to 10752
  152.9832  135.5976  154.4159 H   0  0  0  0  0  0  0  0  0  0  0  0  # atno 10765 bound_to 10752
  141.1654  133.6988  156.7686 H   0  0  0  0  0  0  0  0  0  0  0  0  # atno 11005 bound_to 11000
  145.5610  141.0404  143.2226 LP  0  0  0  0  0  0  0  0  0  0  0  0  # atno 17320 bound_to 7965
  144.7534  139.7135  143.7264 LP  0  0  0  0  0  0  0  0  0  0  0  0  # atno 17321 bound_to 7965
  139.9899  143.5858  152.2914 LP  0  0  0  0  0  0  0  0  0  0  0  0  # atno 17342 bound_to 10162
  139.6510  144.7660  151.2149 LP  0  0  0  0  0  0  0  0  0  0  0  0  # atno 17343 bound_to 10162
  156.3538  130.7446  151.2409 LP  0  0  0  0  0  0  0  0  0  0  0  0  # atno 17370 bound_to 10713
  157.7484  131.0369  150.4434 LP  0  0  0  0  0  0  0  0  0  0  0  0  # atno 17371 bound_to 10713
  140.2481  134.8562  157.3640 LP  0  0  0  0  0  0  0  0  0  0  0  0  # atno 17394 bound_to 11000
  140.1730  134.4585  155.7819 LP  0  0  0  0  0  0  0  0  0  0  0  0  # atno 17395 bound_to 11000

$$$$
