AV-unprocessed.smi:38|AV-procd|sdf|335|dock8
  -GOLD-   2262016173D 1   1.00000     0.00000
 Structure written by MMmdl.
 28 29  0  0  0  0  0  0  0  0  1 V2000
  151.1081  141.4066  155.9382 O   0  0  0  0  0  0  0  0  0  0  0  0
  150.1171  140.9861  155.3444 C   0  0  0  0  0  0  0  0  0  0  0  0
  148.9422  141.7434  155.3125 N   0  0  0  0  0  0  0  0  0  0  0  0
  147.7566  141.3779  154.6715 C   0  0  0  0  0  0  0  0  0  0  0  0
  146.7881  142.1355  154.7014 O   0  0  0  0  0  0  0  0  0  0  0  0
  147.7442  140.1329  154.0024 N   0  0  0  0  0  0  0  0  0  0  0  0
  146.4927  139.6638  153.2961 C   0  0  1  0  0  0  0  0  0  0  0  0
  146.7570  139.4353  151.8045 C   0  0  0  0  0  0  0  0  0  0  0  0
  146.7574  137.9213  151.7000 C   0  0  2  0  0  0  0  0  0  0  0  0
  146.2993  137.5066  150.4294 O   0  0  0  0  0  0  0  0  0  0  0  0
  145.8048  137.5119  152.8267 C   0  0  1  0  0  0  0  0  0  0  0  0
  146.0387  136.0828  153.3400 C   0  0  0  0  0  0  0  0  0  0  0  0
  147.3554  135.9542  153.8316 O   0  0  0  0  0  0  0  0  0  0  0  0
  146.1014  138.4480  153.8581 O   0  0  0  0  0  0  0  0  0  0  0  0
  148.8893  139.3479  154.0075 C   0  0  0  0  0  0  0  0  0  0  0  0
  150.0336  139.7153  154.6307 C   0  0  0  0  0  0  0  0  0  0  0  0
  151.1015  138.9003  154.5920 F   0  0  0  0  0  0  0  0  0  0  0  0
  148.9521  142.6312  155.7930 H   0  0  0  0  0  0  0  0  0  0  0  0
  145.7064  140.3973  153.4786 H   0  0  0  0  0  0  0  0  0  0  0  0
  147.7601  137.5320  151.8795 H   0  0  0  0  0  0  0  0  0  0  0  0
  144.7715  137.6560  152.5039 H   0  0  0  0  0  0  0  0  0  0  0  0
  145.9279  139.8697  151.2433 H   0  0  0  0  0  0  0  0  0  0  0  0
  147.6862  139.8989  151.4706 H   0  0  0  0  0  0  0  0  0  0  0  0
  145.6571  138.1280  150.1216 H   0  0  0  0  0  0  0  0  0  0  0  0
  145.3605  135.8639  154.1650 H   0  0  0  0  0  0  0  0  0  0  0  0
  145.8490  135.3449  152.5598 H   0  0  0  0  0  0  0  0  0  0  0  0
  147.9494  135.9202  153.0974 H   0  0  0  0  0  0  0  0  0  0  0  0
  148.8780  138.3971  153.4958 H   0  0  0  0  0  0  0  0  0  0  0  0
  1  2  2  0  0  0  0
  2 16  1  0  0  0  0
  2  3  1  0  0  0  0
  3 18  1  0  0  0  0
  3  4  1  0  0  0  0
  4  5  2  0  0  0  0
  4  6  1  0  0  0  0
  6  7  1  0  0  0  0
  6 15  1  0  0  0  0
  7 19  1  0  0  0  0
  7 14  1  0  0  0  0
  7  8  1  0  0  0  0
  8  9  1  0  0  0  0
  8 22  1  0  0  0  0
  8 23  1  0  0  0  0
  9 20  1  0  0  0  0
  9 10  1  0  0  0  0
  9 11  1  0  0  0  0
 10 24  1  0  0  0  0
 11 21  1  0  0  0  0
 11 12  1  0  0  0  0
 11 14  1  0  0  0  0
 12 13  1  0  0  0  0
 12 25  1  0  0  0  0
 12 26  1  0  0  0  0
 13 27  1  0  0  0  0
 15 16  2  0  0  0  0
 15 28  1  0  0  0  0
 16 17  1  0  0  0  0
M  END
> <s_m_source_file>
AV-unprocessed.smi

> <i_m_source_file_index>
38

> <i_lp_mmshare_version>
43012

> <i_f3d_flags>
0

> <s_epik_input>
Tz1jMVtuSF1jKD1PKW4oW2NIXWMxRilbQ0BIXTJbQ0gyXVtDQEhdKFtPSF0pW0NASF0oTzIpW0NIMl1bT0hd

> <s_epik_cmdline>
J2VwaWtfcHl0aG9uJywgJy1waCcsICc3LjAnLCAnLXRuJywgJzgnLCAnLW1hJywgJzIwMCcsICctbWV0YWxfYmluZGluZycsICctaW1hZScsICc8aW5maWxlLm1hZT4nLCAnLW9tYWUnLCAnPG91dGZpbGUubWFlPic=

> <r_lp_tautomer_probability>
0.999537

> <r_epik_Ionization_Penalty>
0.0357432

> <r_epik_Ionization_Penalty_Charging>
0.0357431

> <r_epik_Ionization_Penalty_Neutral>
1.19946e-07

> <r_epik_State_Penalty>
0.0298169

> <r_epik_Charging_Adjusted_Penalty>
0.06556

> <i_epik_Tot_Q>
0

> <i_epik_Tot_abs_Q>
0

> <r_epik_Metal_State_Penalty>
2.348

> <b_epik_Metal_Only>
0

> <s_epik_Chemistry_Notes>
This compound contains an acetal/aminal-like group ( X-CH(R)-Y where X, Y are N, S, or O) that may be acid/base labile, releasing an aldehyde.

> <s_lp_Force_Field>
OPLS_2005

> <r_lp_Energy>
27.0042

> <b_lp_Chiralities_Consistent>
1

> <s_lp_Variant>
AV-unprocessed.smi:38-1

> <Gold.Version>
5.8.1

> <Gold.Id.Protein>
6NUR|6NUR_protein|mol2

> <Gold.PLP.Fitness>
37.1322

> <Gold.PLP.PLP>
-25.8898

> <Gold.PLP.part.hbond>
-4.7777

> <Gold.PLP.part.metal>
0.0000

> <Gold.PLP.part.buried>
4.6574

> <Gold.PLP.part.nonpolar>
-26.8114

> <Gold.PLP.part.repulsive>
0.5270

> <Gold.PLP.ligand.clash>
0.0000

> <Gold.PLP.ligand.torsion>
0.0067

> <Gold.PLP.Chemscore.Hbond>
3.1920

> <Gold.PLP.Chemscore.CHOScore>
0.5569

> <Gold.PLP.Chemscore.Metal>
0.0000

> <Gold.Chemscore.Hbonds>
donor molecule, donor type, donor heavy atom, donor atom, acceptor molecule, acceptor atom, score
      L1  H     3    18       P1  8028  0.80
      L1  H    10    24       P1 10171  1.00
      L1  H    13    27       P1  7948  1.00
      P1  H  7954  7966       L1    10  0.17
      L1  C    15    28       P1  7948  0.60

> <Gold.PLP.Chemscore.Internal.Correction>
0.0092

> <Gold.Rescore>
     Score         DG    S(hbond)    S(metal)    S(lipo)     H(rot)  DE(clash)    DE(int)     intcor
     10.52     -12.45       2.97        0.00      38.70       2.91       1.89       0.04       ----

> <Gold.Chemscore.Fitness>
10.5216

> <Gold.Chemscore.DG>
-12.4547

> <Gold.Chemscore.ZeroCoef>
-5.4800

> <Gold.Chemscore.Hbond>
2.9662

> <Gold.Chemscore.Metal>
0.0000

> <Gold.Chemscore.Lipo>
38.6989

> <Gold.Chemscore.Internal_Hbond>
0.0000

> <Gold.Chemscore.DEClash>
1.8900

> <Gold.Chemscore.DEInternal>
0.0431

> <Gold.Chemscore.Rot>
2.9141

> <Gold.Chemscore.Internal.Correction>
   9.000000E+99

> <Gold.Chemscore.Hbonds>
donor molecule, donor type, donor heavy atom, donor atom, acceptor molecule, acceptor atom, score
      L1  H     3    18       P1  8028  0.76
      L1  H    10    24       P1 10171  0.95
      L1  H    13    27       P1  7948  0.99

> <Gold.Chemscore.Hbond.Weighted>
-9.9070

> <Gold.Chemscore.Metal.Weighted>
-0.0000

> <Gold.Chemscore.Lipo.Weighted>
-4.5278

> <Gold.Chemscore.Internal_Hbond.Weighted>
0.0000

> <Gold.Chemscore.DEClash.Weighted>
1.8900

> <Gold.Chemscore.DEInternal.Weighted>
0.0431

> <Gold.Chemscore.Rot.Weighted>
7.4601

> <Gold.Chemscore.Internal.Correction.Weighted>
   9.000000E+99

> <Gold.Protein.RotatedTorsions>
[ 6907 6896 6895 6894 ] final  -56.25 input  -60.11 | X-H torsion
[ 7974 7965 7964 7962 ] final   72.97 input  175.53 | X-H torsion
[ 8008 7997 7996 7995 ] final  175.90 input   59.86 | X-H torsion
[ 10167 10162 10161 10158 ] final  -73.62 input  -65.29 | X-H torsion
[ 10718 10713 10712 10709 ] final -170.31 input   66.30 | X-H torsion
[ 10763 10752 10751 10750 ] final   61.62 input  -60.55 | X-H torsion
[ 11005 11000 10999 10996 ] final   69.22 input  -57.11 | X-H torsion

> <Gold.Protein.ActiveResidues>
 VAL166  LYS551  ARG553  GLY616  TRP617  ASP618  TYR619  PRO620  LYS621  CYS622 
 ASP623  PHE694  ASN695  SER759  ASP760  ASP761  ALA762  ILE779  LEU786  VAL792 
 PHE793  MET794  SER795  GLU796  ALA797  LYS798  CYS799  TRP800  GLU811  SER814 

> <Gold.Protein.RotatedAtoms>
  150.8183  134.7377  159.6749 H   0  0  0  0  0  0  0  0  0  0  0  0  # atno 6907 bound_to 6896
  152.4300  134.5791  159.9952 H   0  0  0  0  0  0  0  0  0  0  0  0  # atno 6908 bound_to 6896
  151.5982  133.3322  159.3078 H   0  0  0  0  0  0  0  0  0  0  0  0  # atno 6909 bound_to 6896
  145.7467  139.2743  143.1455 H   0  0  0  0  0  0  0  0  0  0  0  0  # atno 7974 bound_to 7965
  156.0822  140.1397  156.9698 H   0  0  0  0  0  0  0  0  0  0  0  0  # atno 8008 bound_to 7997
  154.4591  140.0950  156.6892 H   0  0  0  0  0  0  0  0  0  0  0  0  # atno 8009 bound_to 7997
  155.5058  140.3452  155.4381 H   0  0  0  0  0  0  0  0  0  0  0  0  # atno 8010 bound_to 7997
  140.5095  143.2347  151.7617 H   0  0  0  0  0  0  0  0  0  0  0  0  # atno 10167 bound_to 10162
  156.7243  130.9282  151.3100 H   0  0  0  0  0  0  0  0  0  0  0  0  # atno 10718 bound_to 10713
  152.9956  135.5494  154.6063 H   0  0  0  0  0  0  0  0  0  0  0  0  # atno 10763 bound_to 10752
  154.5393  135.2819  155.1112 H   0  0  0  0  0  0  0  0  0  0  0  0  # atno 10764 bound_to 10752
  154.2395  135.6419  153.5255 H   0  0  0  0  0  0  0  0  0  0  0  0  # atno 10765 bound_to 10752
  139.9666  134.6970  156.0533 H   0  0  0  0  0  0  0  0  0  0  0  0  # atno 11005 bound_to 11000
  146.0396  140.8178  142.9835 LP  0  0  0  0  0  0  0  0  0  0  0  0  # atno 17320 bound_to 7965
  144.6858  140.2890  143.7281 LP  0  0  0  0  0  0  0  0  0  0  0  0  # atno 17321 bound_to 7965
  139.4892  144.4410  151.9764 LP  0  0  0  0  0  0  0  0  0  0  0  0  # atno 17342 bound_to 10162
  140.3502  144.3098  150.5950 LP  0  0  0  0  0  0  0  0  0  0  0  0  # atno 17343 bound_to 10162
  157.6885  130.9209  150.0450 LP  0  0  0  0  0  0  0  0  0  0  0  0  # atno 17370 bound_to 10713
  156.1573  130.3643  149.9351 LP  0  0  0  0  0  0  0  0  0  0  0  0  # atno 17371 bound_to 10713
  141.1346  133.6578  156.3557 LP  0  0  0  0  0  0  0  0  0  0  0  0  # atno 17394 bound_to 11000
  140.5383  134.6145  157.5372 LP  0  0  0  0  0  0  0  0  0  0  0  0  # atno 17395 bound_to 11000

$$$$
