AV-unprocessed.smi:2928|AV-procd|sdf|11238|dock9
  -GOLD-   2272016133D 1   1.00000     0.00000
 Structure written by MMmdl.
 56 59  0  0  0  0  0  0  0  0  3 V2000
  151.4896  139.0777  157.4514 C   0  0  0  0  0  0  0  0  0  0  0  0
  150.3109  138.9367  156.5638 N   0  3  2  0  0  0  0  0  0  0  0  0
  149.3587  137.8712  156.9576 C   0  0  1  0  0  0  0  0  0  0  0  0
  148.0098  138.1092  156.2406 C   0  0  0  0  0  0  0  0  0  0  0  0
  148.1329  138.2613  154.7125 C   0  0  0  0  0  0  0  0  0  0  0  0
  149.3470  139.1160  154.2998 C   0  0  0  0  0  0  0  0  0  0  0  0
  150.6265  138.8287  155.1197 C   0  0  2  0  0  0  0  0  0  0  0  0
  151.3331  137.4890  154.7916 C   0  0  0  0  0  0  0  0  0  0  0  0
  150.6954  136.2185  155.4066 C   0  0  2  0  0  0  0  0  0  0  0  0
  149.8710  135.5073  154.4317 N   0  0  0  0  0  0  0  0  0  0  0  0
  149.4639  134.2333  154.5287 C   0  0  0  0  0  0  0  0  0  0  0  0
  149.7530  133.4963  155.4709 O   0  0  0  0  0  0  0  0  0  0  0  0
  148.6901  133.8905  153.4857 N   0  0  0  0  0  0  0  0  0  0  0  0
  148.0058  132.6615  153.2652 C   0  0  0  0  0  0  0  0  0  0  0  0
  148.5528  131.4043  153.6282 C   0  0  0  0  0  0  0  0  0  0  0  0
  147.8279  130.2251  153.3643 C   0  0  0  0  0  0  0  0  0  0  0  0
  146.5742  130.3183  152.7324 C   0  0  0  0  0  0  0  0  0  0  0  0
  146.0888  131.5285  152.3847 N   0  3  0  0  0  0  0  0  0  0  0  0
  146.7450  132.6918  152.6166 C   0  0  0  0  0  0  0  0  0  0  0  0
  146.1507  133.9007  152.2155 N   0  0  0  0  0  0  0  0  0  0  0  0
  145.9790  134.0656  150.7820 C   0  0  0  0  0  0  0  0  0  0  0  0
  144.9934  135.2258  150.6204 C   0  0  0  0  0  0  0  0  0  0  0  0
  144.2544  135.3065  151.9621 C   0  0  0  0  0  0  0  0  0  0  0  0
  144.8557  134.1836  152.8110 C   0  0  0  0  0  0  0  0  0  0  0  0
  149.9690  136.4613  156.7577 C   0  0  0  0  0  0  0  0  0  0  0  0
  152.1261  138.1933  157.4374 H   0  0  0  0  0  0  0  0  0  0  0  0
  151.1715  139.2481  158.4802 H   0  0  0  0  0  0  0  0  0  0  0  0
  152.0938  139.9330  157.1478 H   0  0  0  0  0  0  0  0  0  0  0  0
  149.1588  137.9851  158.0241 H   0  0  0  0  0  0  0  0  0  0  0  0
  147.3039  137.3140  156.4820 H   0  0  0  0  0  0  0  0  0  0  0  0
  147.5714  139.0257  156.6380 H   0  0  0  0  0  0  0  0  0  0  0  0
  148.1767  137.2864  154.2394 H   0  0  0  0  0  0  0  0  0  0  0  0
  147.2214  138.7120  154.3183 H   0  0  0  0  0  0  0  0  0  0  0  0
  149.5425  138.9993  153.2333 H   0  0  0  0  0  0  0  0  0  0  0  0
  149.0842  140.1654  154.4401 H   0  0  0  0  0  0  0  0  0  0  0  0
  151.3278  139.6282  154.8754 H   0  0  0  0  0  0  0  0  0  0  0  0
  151.4511  137.3791  153.7126 H   0  0  0  0  0  0  0  0  0  0  0  0
  152.3532  137.5576  155.1710 H   0  0  0  0  0  0  0  0  0  0  0  0
  151.5245  135.5384  155.6125 H   0  0  0  0  0  0  0  0  0  0  0  0
  149.5821  136.0327  153.6195 H   0  0  0  0  0  0  0  0  0  0  0  0
  148.4787  134.6275  152.8290 H   0  0  0  0  0  0  0  0  0  0  0  0
  149.5233  131.3217  154.0931 H   0  0  0  0  0  0  0  0  0  0  0  0
  148.2323  129.2617  153.6387 H   0  0  0  0  0  0  0  0  0  0  0  0
  145.9522  129.4686  152.4904 H   0  0  0  0  0  0  0  0  0  0  0  0
  146.9312  134.2765  150.2942 H   0  0  0  0  0  0  0  0  0  0  0  0
  145.5660  133.1588  150.3380 H   0  0  0  0  0  0  0  0  0  0  0  0
  145.5297  136.1573  150.4357 H   0  0  0  0  0  0  0  0  0  0  0  0
  144.3155  135.0613  149.7823 H   0  0  0  0  0  0  0  0  0  0  0  0
  144.4378  136.2749  152.4293 H   0  0  0  0  0  0  0  0  0  0  0  0
  143.1758  135.1911  151.8499 H   0  0  0  0  0  0  0  0  0  0  0  0
  144.2153  133.3011  152.7730 H   0  0  0  0  0  0  0  0  0  0  0  0
  144.9586  134.4802  153.8553 H   0  0  0  0  0  0  0  0  0  0  0  0
  150.7025  136.3082  157.5502 H   0  0  0  0  0  0  0  0  0  0  0  0
  149.2106  135.6997  156.9415 H   0  0  0  0  0  0  0  0  0  0  0  0
  149.8061  139.8055  156.6681 H   0  0  0  0  0  0  0  0  0  0  0  0
  145.1800  131.5688  151.9230 H   0  0  0  0  0  0  0  0  0  0  0  0
  1  2  1  0  0  0  0
  1 26  1  0  0  0  0
  1 27  1  0  0  0  0
  1 28  1  0  0  0  0
  2  7  1  0  0  0  0
  2  3  1  0  0  0  0
  2 55  1  0  0  0  0
  3 25  1  0  0  0  0
  3  4  1  0  0  0  0
  3 29  1  0  0  0  0
  4  5  1  0  0  0  0
  4 30  1  0  0  0  0
  4 31  1  0  0  0  0
  5  6  1  0  0  0  0
  5 32  1  0  0  0  0
  5 33  1  0  0  0  0
  6  7  1  0  0  0  0
  6 34  1  0  0  0  0
  6 35  1  0  0  0  0
  7  8  1  0  0  0  0
  7 36  1  0  0  0  0
  8  9  1  0  0  0  0
  8 37  1  0  0  0  0
  8 38  1  0  0  0  0
  9 10  1  0  0  0  0
  9 25  1  0  0  0  0
  9 39  1  0  0  0  0
 10 11  1  0  0  0  0
 10 40  1  0  0  0  0
 11 12  2  0  0  0  0
 11 13  1  0  0  0  0
 13 14  1  0  0  0  0
 13 41  1  0  0  0  0
 14 19  1  0  0  0  0
 14 15  2  0  0  0  0
 15 16  1  0  0  0  0
 15 42  1  0  0  0  0
 16 17  2  0  0  0  0
 16 43  1  0  0  0  0
 17 18  1  0  0  0  0
 17 44  1  0  0  0  0
 18 19  2  0  0  0  0
 18 56  1  0  0  0  0
 19 20  1  0  0  0  0
 20 24  1  0  0  0  0
 20 21  1  0  0  0  0
 21 22  1  0  0  0  0
 21 45  1  0  0  0  0
 21 46  1  0  0  0  0
 22 23  1  0  0  0  0
 22 47  1  0  0  0  0
 22 48  1  0  0  0  0
 23 24  1  0  0  0  0
 23 49  1  0  0  0  0
 23 50  1  0  0  0  0
 24 51  1  0  0  0  0
 24 52  1  0  0  0  0
 25 53  1  0  0  0  0
 25 54  1  0  0  0  0
M  CHG  1   2   1
M  CHG  1  18   1
M  END
> <s_m_source_file>
AV-unprocessed.smi

> <i_m_source_file_index>
2928

> <i_lp_mmshare_version>
43012

> <i_f3d_flags>
0

> <s_epik_input>
W0NIMl0xW0NIMl1bQ0gyXVtDQEhdKE4oW0NIM10pW0NIXTEyKVtDSDJdW0NASF0oW0NIMl0yKVtOSF1DKD1PKVtOSF1jM1tjSF1bY0hdW2NIXW5jM040W0NIMl1bQ0gyXVtDSDJdW0NIMl00

> <s_epik_cmdline>
J2VwaWtfcHl0aG9uJywgJy1waCcsICc3LjAnLCAnLXRuJywgJzgnLCAnLW1hJywgJzIwMCcsICctbWV0YWxfYmluZGluZycsICctaW1hZScsICc8aW5maWxlLm1hZT4nLCAnLW9tYWUnLCAnPG91dGZpbGUubWFlPic=

> <r_lp_tautomer_probability>
0.999994

> <r_epik_Ionization_Penalty>
1.2404

> <r_epik_Ionization_Penalty_Charging>
1.24038

> <r_epik_Ionization_Penalty_Neutral>
1.86539e-05

> <r_epik_State_Penalty>
1.30821

> <r_epik_Charging_Adjusted_Penalty>
2.54859

> <i_epik_Tot_Q>
2

> <i_epik_Tot_abs_Q>
2

> <r_epik_Metal_State_Penalty>
1.3782

> <b_epik_Metal_Only>
0

> <s_lp_Force_Field>
OPLS_2005

> <r_lp_Energy>
76.0972

> <b_lp_Chiralities_Consistent>
1

> <s_lp_Variant>
AV-unprocessed.smi:2928-8

> <Gold.Version>
5.8.1

> <Gold.Id.Protein>
6NUR|6NUR_protein|mol2

> <Gold.PLP.Fitness>
39.7518

> <Gold.PLP.PLP>
-34.5322

> <Gold.PLP.part.hbond>
-2.4746

> <Gold.PLP.part.metal>
0.0000

> <Gold.PLP.part.buried>
-4.3959

> <Gold.PLP.part.nonpolar>
-28.2821

> <Gold.PLP.part.repulsive>
0.2021

> <Gold.PLP.ligand.clash>
0.0000

> <Gold.PLP.ligand.torsion>
0.4281

> <Gold.PLP.Chemscore.Hbond>
2.0000

> <Gold.PLP.Chemscore.CHOScore>
0.0000

> <Gold.PLP.Chemscore.Metal>
0.0000

> <Gold.Chemscore.Hbonds>
donor molecule, donor type, donor heavy atom, donor atom, acceptor molecule, acceptor atom, score
      L1  H    10    40       P1  7948  1.00
      L1  H    13    41       P1  7948  1.00

> <Gold.PLP.Chemscore.Internal.Correction>
0.0759

> <Gold.Rescore>
     Score         DG    S(hbond)    S(metal)    S(lipo)     H(rot)  DE(clash)    DE(int)     intcor
     14.65     -16.00       1.37        0.00      76.67       1.19       0.01       1.34       ----

> <Gold.Chemscore.Fitness>
14.6524

> <Gold.Chemscore.DG>
-15.9979

> <Gold.Chemscore.ZeroCoef>
-5.4800

> <Gold.Chemscore.Hbond>
1.3737

> <Gold.Chemscore.Metal>
0.0000

> <Gold.Chemscore.Lipo>
76.6741

> <Gold.Chemscore.Internal_Hbond>
0.0000

> <Gold.Chemscore.DEClash>
0.0098

> <Gold.Chemscore.DEInternal>
1.3357

> <Gold.Chemscore.Rot>
1.1879

> <Gold.Chemscore.Internal.Correction>
   9.000000E+99

> <Gold.Chemscore.Hbonds>
donor molecule, donor type, donor heavy atom, donor atom, acceptor molecule, acceptor atom, score
      L1  H    10    40       P1  7948  0.39
      L1  H    13    41       P1  7948  0.24

> <Gold.Chemscore.Hbond.Weighted>
-4.5881

> <Gold.Chemscore.Metal.Weighted>
-0.0000

> <Gold.Chemscore.Lipo.Weighted>
-8.9709

> <Gold.Chemscore.Internal_Hbond.Weighted>
0.0000

> <Gold.Chemscore.DEClash.Weighted>
0.0098

> <Gold.Chemscore.DEInternal.Weighted>
1.3357

> <Gold.Chemscore.Rot.Weighted>
3.0410

> <Gold.Chemscore.Internal.Correction.Weighted>
   9.000000E+99

> <Gold.Protein.RotatedTorsions>
[ 6907 6896 6895 6894 ] final   82.44 input  -60.11 | X-H torsion
[ 7974 7965 7964 7962 ] final  104.31 input  175.53 | X-H torsion
[ 8008 7997 7996 7995 ] final  165.95 input   59.86 | X-H torsion
[ 10167 10162 10161 10158 ] final  -79.21 input  -65.29 | X-H torsion
[ 10718 10713 10712 10709 ] final   74.23 input   66.30 | X-H torsion
[ 10763 10752 10751 10750 ] final  122.74 input  -60.55 | X-H torsion
[ 11005 11000 10999 10996 ] final -122.72 input  -57.11 | X-H torsion

> <Gold.Protein.ActiveResidues>
 VAL166  LYS551  ARG553  GLY616  TRP617  ASP618  TYR619  PRO620  LYS621  CYS622 
 ASP623  PHE694  ASN695  SER759  ASP760  ASP761  ALA762  ILE779  LEU786  VAL792 
 PHE793  MET794  SER795  GLU796  ALA797  LYS798  CYS799  TRP800  GLU811  SER814 

> <Gold.Protein.RotatedAtoms>
  152.5299  134.3050  159.9092 H   0  0  0  0  0  0  0  0  0  0  0  0  # atno 6907 bound_to 6896
  151.3000  133.4120  159.2646 H   0  0  0  0  0  0  0  0  0  0  0  0  # atno 6908 bound_to 6896
  151.0127  134.9425  159.8073 H   0  0  0  0  0  0  0  0  0  0  0  0  # atno 6909 bound_to 6896
  145.3345  139.2478  143.3643 H   0  0  0  0  0  0  0  0  0  0  0  0  # atno 7974 bound_to 7965
  156.1758  140.1656  156.8365 H   0  0  0  0  0  0  0  0  0  0  0  0  # atno 8008 bound_to 7997
  154.5306  140.0758  156.8371 H   0  0  0  0  0  0  0  0  0  0  0  0  # atno 8009 bound_to 7997
  155.3416  140.3385  155.4241 H   0  0  0  0  0  0  0  0  0  0  0  0  # atno 8010 bound_to 7997
  140.4614  143.2453  151.8344 H   0  0  0  0  0  0  0  0  0  0  0  0  # atno 10167 bound_to 10162
  157.6583  130.9668  150.1182 H   0  0  0  0  0  0  0  0  0  0  0  0  # atno 10718 bound_to 10713
  153.6345  135.3390  155.3052 H   0  0  0  0  0  0  0  0  0  0  0  0  # atno 10763 bound_to 10752
  154.8573  135.4303  154.2070 H   0  0  0  0  0  0  0  0  0  0  0  0  # atno 10764 bound_to 10752
  153.2974  135.7022  153.7309 H   0  0  0  0  0  0  0  0  0  0  0  0  # atno 10765 bound_to 10752
  140.9973  134.0453  157.3581 H   0  0  0  0  0  0  0  0  0  0  0  0  # atno 11005 bound_to 11000
  146.3032  140.3930  142.8696 LP  0  0  0  0  0  0  0  0  0  0  0  0  # atno 17320 bound_to 7965
  144.8838  140.7435  143.5970 LP  0  0  0  0  0  0  0  0  0  0  0  0  # atno 17321 bound_to 7965
  139.4806  144.5003  151.9068 LP  0  0  0  0  0  0  0  0  0  0  0  0  # atno 17342 bound_to 10162
  140.4089  144.2395  150.5889 LP  0  0  0  0  0  0  0  0  0  0  0  0  # atno 17343 bound_to 10162
  156.2060  130.3663  149.8728 LP  0  0  0  0  0  0  0  0  0  0  0  0  # atno 17370 bound_to 10713
  156.6620  130.8786  151.3549 LP  0  0  0  0  0  0  0  0  0  0  0  0  # atno 17371 bound_to 10713
  139.9021  135.0168  156.7318 LP  0  0  0  0  0  0  0  0  0  0  0  0  # atno 17394 bound_to 11000
  140.6945  133.9361  155.7986 LP  0  0  0  0  0  0  0  0  0  0  0  0  # atno 17395 bound_to 11000

$$$$
