AV-unprocessed.smi:196|AV-procd|sdf|1533|dock5
  -GOLD-   2262019383D 1   1.00000     0.00000
 Structure written by MMmdl.
 47 50  0  0  0  0  0  0  0  0  1 V2000
  150.6597  141.0133  157.0345 C   0  0  0  0  0  0  0  0  0  0  0  0
  150.3832  140.4351  155.6370 C   0  0  1  0  0  0  0  0  0  0  0  0
  151.6061  140.1466  154.9599 O   0  0  0  0  0  0  0  0  0  0  0  0
  151.6429  138.7790  154.5777 C   0  0  0  0  0  0  0  0  0  0  0  0
  150.1777  138.3878  154.4347 C   0  0  0  0  0  0  0  0  0  0  0  0
  149.5202  139.1527  155.5749 C   0  0  1  0  0  0  0  0  0  0  0  0
  149.6608  138.3887  156.7625 O   0  0  0  0  0  0  0  0  0  0  0  0
  148.0170  139.4437  155.3531 C   0  0  0  0  0  0  0  0  0  0  0  0
  147.2411  138.2574  155.0269 N   0  0  0  0  0  0  0  0  0  0  0  0
  146.9282  137.2176  155.8741 C   0  0  0  0  0  0  0  0  0  0  0  0
  146.2132  136.2626  155.3445 N   0  0  0  0  0  0  0  0  0  0  0  0
  146.0251  136.6730  154.0311 C   0  0  0  0  0  0  0  0  0  0  0  0
  145.3490  136.1210  152.9121 C   0  0  0  0  0  0  0  0  0  0  0  0
  144.6863  134.9430  152.9831 N   0  0  0  0  0  0  0  0  0  0  0  0
  145.3807  133.8039  152.3866 C   0  0  0  0  0  0  0  0  0  0  0  0
  144.4871  133.3244  151.2480 C   0  0  1  0  0  0  0  0  0  0  0  0
  144.6514  132.0308  150.9730 F   0  0  0  0  0  0  0  0  0  0  0  0
  143.0953  133.6395  151.7744 C   0  0  0  0  0  0  0  0  0  0  0  0
  143.2956  134.9795  152.5021 C   0  0  1  0  0  0  0  0  0  0  0  0
  142.2461  135.1845  153.6098 C   0  0  0  0  0  0  0  0  0  0  0  0
  142.0455  134.2066  154.4987 N   0  0  0  0  0  0  0  0  0  0  0  0
  141.6176  136.2393  153.6634 O   0  0  0  0  0  0  0  0  0  0  0  0
  145.3812  136.8145  151.7430 N   0  0  0  0  0  0  0  0  0  0  0  0
  146.0312  137.9805  151.6770 C   0  0  0  0  0  0  0  0  0  0  0  0
  146.7002  138.6192  152.6398 N   0  0  0  0  0  0  0  0  0  0  0  0
  146.6707  137.9215  153.8115 C   0  0  0  0  0  0  0  0  0  0  0  0
  144.6875  133.8908  150.3374 H   0  0  0  0  0  0  0  0  0  0  0  0
  143.1691  135.7861  151.7768 H   0  0  0  0  0  0  0  0  0  0  0  0
  149.7294  141.2313  157.5594 H   0  0  0  0  0  0  0  0  0  0  0  0
  151.2249  141.9425  156.9618 H   0  0  0  0  0  0  0  0  0  0  0  0
  151.2421  140.3251  157.6476 H   0  0  0  0  0  0  0  0  0  0  0  0
  149.9012  141.2116  155.0416 H   0  0  0  0  0  0  0  0  0  0  0  0
  152.2099  138.6351  153.6580 H   0  0  0  0  0  0  0  0  0  0  0  0
  152.1213  138.1998  155.3688 H   0  0  0  0  0  0  0  0  0  0  0  0
  149.8044  138.7478  153.4749 H   0  0  0  0  0  0  0  0  0  0  0  0
  150.0160  137.3097  154.4750 H   0  0  0  0  0  0  0  0  0  0  0  0
  149.1728  137.5855  156.6634 H   0  0  0  0  0  0  0  0  0  0  0  0
  147.5859  139.9084  156.2408 H   0  0  0  0  0  0  0  0  0  0  0  0
  147.8874  140.1607  154.5413 H   0  0  0  0  0  0  0  0  0  0  0  0
  147.2455  137.1919  156.9067 H   0  0  0  0  0  0  0  0  0  0  0  0
  146.3909  134.0288  152.0392 H   0  0  0  0  0  0  0  0  0  0  0  0
  145.4683  133.0321  153.1523 H   0  0  0  0  0  0  0  0  0  0  0  0
  142.3512  133.6981  150.9796 H   0  0  0  0  0  0  0  0  0  0  0  0
  142.7817  132.8602  152.4718 H   0  0  0  0  0  0  0  0  0  0  0  0
  141.3581  134.3246  155.2293 H   0  0  0  0  0  0  0  0  0  0  0  0
  142.5796  133.3521  154.4344 H   0  0  0  0  0  0  0  0  0  0  0  0
  146.0122  138.4726  150.7156 H   0  0  0  0  0  0  0  0  0  0  0  0
  1  2  1  0  0  0  0
  1 29  1  0  0  0  0
  1 30  1  0  0  0  0
  1 31  1  0  0  0  0
  2  6  1  0  0  0  0
  2  3  1  0  0  0  0
  2 32  1  0  0  0  0
  3  4  1  0  0  0  0
  4  5  1  0  0  0  0
  4 33  1  0  0  0  0
  4 34  1  0  0  0  0
  5  6  1  0  0  0  0
  5 35  1  0  0  0  0
  5 36  1  0  0  0  0
  6  7  1  0  0  0  0
  6  8  1  0  0  0  0
  7 37  1  0  0  0  0
  8  9  1  0  0  0  0
  8 38  1  0  0  0  0
  8 39  1  0  0  0  0
  9 26  1  0  0  0  0
  9 10  1  0  0  0  0
 10 11  2  0  0  0  0
 10 40  1  0  0  0  0
 11 12  1  0  0  0  0
 12 26  2  0  0  0  0
 12 13  1  0  0  0  0
 13 14  1  0  0  0  0
 13 23  2  0  0  0  0
 14 19  1  0  0  0  0
 14 15  1  0  0  0  0
 15 16  1  0  0  0  0
 15 41  1  0  0  0  0
 15 42  1  0  0  0  0
 16 27  1  0  0  0  0
 16 17  1  0  0  0  0
 16 18  1  0  0  0  0
 18 19  1  0  0  0  0
 18 43  1  0  0  0  0
 18 44  1  0  0  0  0
 19 28  1  0  0  0  0
 19 20  1  0  0  0  0
 20 21  1  0  0  0  0
 20 22  2  0  0  0  0
 21 45  1  0  0  0  0
 21 46  1  0  0  0  0
 23 24  1  0  0  0  0
 24 25  2  0  0  0  0
 24 47  1  0  0  0  0
 25 26  1  0  0  0  0
M  END
> <s_m_source_file>
AV-unprocessed.smi

> <i_m_source_file_index>
196

> <i_lp_mmshare_version>
43012

> <i_f3d_flags>
0

> <s_epik_input>
W0NIMl0xW0NIMl1PW0NAQEhdKFtDSDNdKVtDQEBdMShbT0hdKVtDSDJdbihbY0hdbjIpYyhjMjMpbltjSF1uYzNONFtDSDJdW0NASF0oRilbQ0gyXVtDQEhdNEMoPU8pW05IMl0=

> <s_epik_cmdline>
J2VwaWtfcHl0aG9uJywgJy1waCcsICc3LjAnLCAnLXRuJywgJzgnLCAnLW1hJywgJzIwMCcsICctbWV0YWxfYmluZGluZycsICctaW1hZScsICc8aW5maWxlLm1hZT4nLCAnLW9tYWUnLCAnPG91dGZpbGUubWFlPic=

> <r_lp_tautomer_probability>
1

> <r_epik_Ionization_Penalty>
0.000857933

> <r_epik_Ionization_Penalty_Charging>
0

> <r_epik_Ionization_Penalty_Neutral>
0.000857933

> <r_epik_State_Penalty>
0.000462053

> <r_epik_Charging_Adjusted_Penalty>
0.000462053

> <i_epik_Tot_Q>
0

> <i_epik_Tot_abs_Q>
0

> <r_epik_Metal_State_Penalty>
-0

> <b_epik_Metal_Only>
0

> <s_lp_Force_Field>
OPLS_2005

> <r_lp_Energy>
45.9197

> <b_lp_Chiralities_Consistent>
1

> <s_lp_Variant>
AV-unprocessed.smi:196-6

> <Gold.Version>
5.8.1

> <Gold.Id.Protein>
6NUR|6NUR_protein|mol2

> <Gold.PLP.Fitness>
42.0219

> <Gold.PLP.PLP>
-32.5825

> <Gold.PLP.part.hbond>
-3.0000

> <Gold.PLP.part.metal>
0.0000

> <Gold.PLP.part.buried>
-5.5433

> <Gold.PLP.part.nonpolar>
-26.2874

> <Gold.PLP.part.repulsive>
1.0895

> <Gold.PLP.ligand.clash>
0.0000

> <Gold.PLP.ligand.torsion>
0.6190

> <Gold.PLP.Chemscore.Hbond>
2.9920

> <Gold.PLP.Chemscore.CHOScore>
0.5369

> <Gold.PLP.Chemscore.Metal>
0.0000

> <Gold.Chemscore.Hbonds>
donor molecule, donor type, donor heavy atom, donor atom, acceptor molecule, acceptor atom, score
      L1  H    21    45       P1 11000  1.00
      L1  H    21    46       P1 10957  0.91
      P1  H  7989  7998       L1     3  1.00
      L1  C    24    47       P1 10171  0.67

> <Gold.PLP.Chemscore.Internal.Correction>
0.0909

> <Gold.Rescore>
     Score         DG    S(hbond)    S(metal)    S(lipo)     H(rot)  DE(clash)    DE(int)     intcor
     10.83     -12.25       2.38        0.00      56.44       3.04       0.74       0.68       ----

> <Gold.Chemscore.Fitness>
10.8298

> <Gold.Chemscore.DG>
-12.2546

> <Gold.Chemscore.ZeroCoef>
-5.4800

> <Gold.Chemscore.Hbond>
2.3824

> <Gold.Chemscore.Metal>
0.0000

> <Gold.Chemscore.Lipo>
56.4364

> <Gold.Chemscore.Internal_Hbond>
0.0000

> <Gold.Chemscore.DEClash>
0.7402

> <Gold.Chemscore.DEInternal>
0.6847

> <Gold.Chemscore.Rot>
3.0413

> <Gold.Chemscore.Internal.Correction>
   9.000000E+99

> <Gold.Chemscore.Hbonds>
donor molecule, donor type, donor heavy atom, donor atom, acceptor molecule, acceptor atom, score
      L1  H    21    45       P1 11000  0.93
      L1  H    21    46       P1 10957  0.89
      P1  H  7989  7998       L1     3  0.22

> <Gold.Chemscore.Hbond.Weighted>
-7.9572

> <Gold.Chemscore.Metal.Weighted>
-0.0000

> <Gold.Chemscore.Lipo.Weighted>
-6.6031

> <Gold.Chemscore.Internal_Hbond.Weighted>
0.0000

> <Gold.Chemscore.DEClash.Weighted>
0.7402

> <Gold.Chemscore.DEInternal.Weighted>
0.6847

> <Gold.Chemscore.Rot.Weighted>
7.7856

> <Gold.Chemscore.Internal.Correction.Weighted>
   9.000000E+99

> <Gold.Protein.RotatedTorsions>
[ 6907 6896 6895 6894 ] final  113.65 input  -60.11 | X-H torsion
[ 7974 7965 7964 7962 ] final  142.20 input  175.53 | X-H torsion
[ 8008 7997 7996 7995 ] final -127.39 input   59.86 | X-H torsion
[ 10167 10162 10161 10158 ] final   47.66 input  -65.29 | X-H torsion
[ 10718 10713 10712 10709 ] final -165.26 input   66.30 | X-H torsion
[ 10763 10752 10751 10750 ] final -152.63 input  -60.55 | X-H torsion
[ 11005 11000 10999 10996 ] final -157.95 input  -57.11 | X-H torsion

> <Gold.Protein.ActiveResidues>
 VAL166  LYS551  ARG553  GLY616  TRP617  ASP618  TYR619  PRO620  LYS621  CYS622 
 ASP623  PHE694  ASN695  SER759  ASP760  ASP761  ALA762  ILE779  LEU786  VAL792 
 PHE793  MET794  SER795  GLU796  ALA797  LYS798  CYS799  TRP800  GLU811  SER814 

> <Gold.Protein.RotatedAtoms>
  152.4849  133.8346  159.7120 H   0  0  0  0  0  0  0  0  0  0  0  0  # atno 6907 bound_to 6896
  150.8927  133.7213  159.2907 H   0  0  0  0  0  0  0  0  0  0  0  0  # atno 6908 bound_to 6896
  151.4680  135.1047  159.9796 H   0  0  0  0  0  0  0  0  0  0  0  0  # atno 6909 bound_to 6896
  144.9029  139.5399  143.5745 H   0  0  0  0  0  0  0  0  0  0  0  0  # atno 7974 bound_to 7965
  155.2453  140.0430  157.2980 H   0  0  0  0  0  0  0  0  0  0  0  0  # atno 8008 bound_to 7997
  154.5802  140.2398  155.8034 H   0  0  0  0  0  0  0  0  0  0  0  0  # atno 8009 bound_to 7997
  156.2188  140.2976  155.9910 H   0  0  0  0  0  0  0  0  0  0  0  0  # atno 8010 bound_to 7997
  140.3013  144.2931  150.6218 H   0  0  0  0  0  0  0  0  0  0  0  0  # atno 10167 bound_to 10162
  156.6509  130.9007  151.3013 H   0  0  0  0  0  0  0  0  0  0  0  0  # atno 10718 bound_to 10713
  154.7981  135.3231  154.7616 H   0  0  0  0  0  0  0  0  0  0  0  0  # atno 10763 bound_to 10752
  153.8290  135.6881  153.4821 H   0  0  0  0  0  0  0  0  0  0  0  0  # atno 10764 bound_to 10752
  153.1683  135.4633  154.9811 H   0  0  0  0  0  0  0  0  0  0  0  0  # atno 10765 bound_to 10752
  140.6590  134.4370  157.5234 H   0  0  0  0  0  0  0  0  0  0  0  0  # atno 11005 bound_to 11000
  146.3118  139.7773  142.9014 LP  0  0  0  0  0  0  0  0  0  0  0  0  # atno 17320 bound_to 7965
  145.3586  141.0321  143.3297 LP  0  0  0  0  0  0  0  0  0  0  0  0  # atno 17321 bound_to 7965
  140.5649  143.2187  151.7701 LP  0  0  0  0  0  0  0  0  0  0  0  0  # atno 17342 bound_to 10162
  139.4914  144.4298  151.9885 LP  0  0  0  0  0  0  0  0  0  0  0  0  # atno 17343 bound_to 10162
  157.7141  130.9476  150.1192 LP  0  0  0  0  0  0  0  0  0  0  0  0  # atno 17370 bound_to 10713
  156.2085  130.3665  149.8699 LP  0  0  0  0  0  0  0  0  0  0  0  0  # atno 17371 bound_to 10713
  139.9019  134.8535  156.1859 LP  0  0  0  0  0  0  0  0  0  0  0  0  # atno 17394 bound_to 11000
  141.0480  133.6903  156.1718 LP  0  0  0  0  0  0  0  0  0  0  0  0  # atno 17395 bound_to 11000

$$$$
