AV-unprocessed.smi:2635|AV-procd|sdf|10256|dock7
  -GOLD-   2272014263D 1   1.00000     0.00000
 Structure written by MMmdl.
 31 32  0  0  0  0  0  0  0  0  2 V2000
  147.0479  141.8661  154.1450 C   0  0  0  0  0  0  0  0  0  0  0  0
  148.3120  141.1350  154.5589 C   0  0  0  0  0  0  0  0  0  0  0  0
  149.2467  141.6902  155.3577 C   0  0  0  0  0  0  0  0  0  0  0  0
  150.4132  141.0042  155.7340 N   0  0  0  0  0  0  0  0  0  0  0  0
  151.3905  141.6893  156.5626 C   0  0  0  0  0  0  0  0  0  0  0  0
  150.7509  142.6936  157.2803 O   0  0  0  0  0  0  0  0  0  0  0  0
  151.6442  143.6850  157.7598 C   0  0  0  0  0  0  0  0  0  0  0  0
  152.1153  143.3792  159.1679 C   0  0  0  0  0  0  0  0  0  0  0  0
  152.8096  142.1802  159.4343 C   0  0  0  0  0  0  0  0  0  0  0  0
  153.2365  141.8852  160.7438 C   0  0  0  0  0  0  0  0  0  0  0  0
  152.9676  142.7860  161.7925 C   0  0  0  0  0  0  0  0  0  0  0  0
  152.2696  143.9811  161.5315 C   0  0  0  0  0  0  0  0  0  0  0  0
  151.8414  144.2761  160.2223 C   0  0  0  0  0  0  0  0  0  0  0  0
  150.6575  139.7470  155.2582 C   0  0  0  0  0  0  0  0  0  0  0  0
  151.7051  139.1781  155.5694 O   0  0  0  0  0  0  0  0  0  0  0  0
  149.7190  139.1607  154.4535 N   0  5  0  0  0  0  0  0  0  0  0  0
  148.5575  139.7726  154.0782 C   0  0  0  0  0  0  0  0  0  0  0  0
  147.7253  139.2217  153.3581 O   0  0  0  0  0  0  0  0  0  0  0  0
  147.0009  142.8573  154.5969 H   0  0  0  0  0  0  0  0  0  0  0  0
  146.1646  141.3088  154.4583 H   0  0  0  0  0  0  0  0  0  0  0  0
  147.0148  141.9852  153.0616 H   0  0  0  0  0  0  0  0  0  0  0  0
  149.1590  142.6919  155.7522 H   0  0  0  0  0  0  0  0  0  0  0  0
  151.8548  140.9756  157.2450 H   0  0  0  0  0  0  0  0  0  0  0  0
  152.1704  142.1020  155.9187 H   0  0  0  0  0  0  0  0  0  0  0  0
  152.5035  143.7617  157.0916 H   0  0  0  0  0  0  0  0  0  0  0  0
  151.1508  144.6580  157.7684 H   0  0  0  0  0  0  0  0  0  0  0  0
  153.0164  141.4853  158.6331 H   0  0  0  0  0  0  0  0  0  0  0  0
  153.7693  140.9674  160.9443 H   0  0  0  0  0  0  0  0  0  0  0  0
  153.2951  142.5596  162.7964 H   0  0  0  0  0  0  0  0  0  0  0  0
  152.0614  144.6714  162.3353 H   0  0  0  0  0  0  0  0  0  0  0  0
  151.3047  145.1938  160.0317 H   0  0  0  0  0  0  0  0  0  0  0  0
  1  2  1  0  0  0  0
  1 19  1  0  0  0  0
  1 20  1  0  0  0  0
  1 21  1  0  0  0  0
  2 17  1  0  0  0  0
  2  3  2  0  0  0  0
  3  4  1  0  0  0  0
  3 22  1  0  0  0  0
  4  5  1  0  0  0  0
  4 14  1  0  0  0  0
  5  6  1  0  0  0  0
  5 23  1  0  0  0  0
  5 24  1  0  0  0  0
  6  7  1  0  0  0  0
  7  8  1  0  0  0  0
  7 25  1  0  0  0  0
  7 26  1  0  0  0  0
  8 13  1  0  0  0  0
  8  9  2  0  0  0  0
  9 10  1  0  0  0  0
  9 27  1  0  0  0  0
 10 11  2  0  0  0  0
 10 28  1  0  0  0  0
 11 12  1  0  0  0  0
 11 29  1  0  0  0  0
 12 13  2  0  0  0  0
 12 30  1  0  0  0  0
 13 31  1  0  0  0  0
 14 15  2  0  0  0  0
 14 16  1  0  0  0  0
 16 17  1  0  0  0  0
 17 18  2  0  0  0  0
M  CHG  1  16  -1
M  END
> <s_m_source_file>
AV-unprocessed.smi

> <i_m_source_file_index>
2635

> <i_lp_mmshare_version>
43012

> <i_f3d_flags>
0

> <s_epik_input>
Tz1jMVtuSF1jKD1PKW4oW2NIXWMxW0NIM10pW0NIMl1PW0NIMl1jMltjSF1bY0hdW2NIXVtjSF1bY0hdMg==

> <s_epik_cmdline>
J2VwaWtfcHl0aG9uJywgJy1waCcsICc3LjAnLCAnLXRuJywgJzgnLCAnLW1hJywgJzIwMCcsICctbWV0YWxfYmluZGluZycsICctaW1hZScsICc8aW5maWxlLm1hZT4nLCAnLW9tYWUnLCAnPG91dGZpbGUubWFlPic=

> <r_lp_tautomer_probability>
0.999537

> <r_epik_Ionization_Penalty>
3.41553

> <r_epik_Ionization_Penalty_Charging>
6.94296e-08

> <r_epik_Ionization_Penalty_Neutral>
3.41553

> <r_epik_State_Penalty>
3.41493

> <r_epik_Charging_Adjusted_Penalty>
3.41493

> <i_epik_Tot_Q>
-1

> <i_epik_Tot_abs_Q>
1

> <r_epik_Metal_State_Penalty>
0.16353

> <b_epik_Metal_Only>
1

> <s_epik_Chemistry_Notes>
This compound contains an acetal/aminal-like group ( X-CH(R)-Y where X, Y are N, S, or O) that may be acid/base labile, releasing an aldehyde.

> <s_lp_Force_Field>
OPLS_2005

> <r_lp_Energy>
15.2245

> <b_lp_Chiralities_Consistent>
1

> <s_lp_Variant>
AV-unprocessed.smi:2635-2

> <Gold.Version>
5.8.1

> <Gold.Id.Protein>
6NUR|6NUR_protein|mol2

> <Gold.PLP.Fitness>
45.8607

> <Gold.PLP.PLP>
-44.1113

> <Gold.PLP.part.hbond>
0.0000

> <Gold.PLP.part.metal>
0.0000

> <Gold.PLP.part.buried>
-5.1526

> <Gold.PLP.part.nonpolar>
-40.3593

> <Gold.PLP.part.repulsive>
1.3760

> <Gold.PLP.ligand.clash>
0.0000

> <Gold.PLP.ligand.torsion>
0.6305

> <Gold.PLP.Chemscore.Hbond>
0.0000

> <Gold.PLP.Chemscore.CHOScore>
0.9968

> <Gold.PLP.Chemscore.Metal>
0.0000

> <Gold.Chemscore.Hbonds>
donor molecule, donor type, donor heavy atom, donor atom, acceptor molecule, acceptor atom, score
      L1  C     3    22       P1  8028  1.00

> <Gold.PLP.Chemscore.Internal.Correction>
0.0199

> <Gold.Rescore>
     Score         DG    S(hbond)    S(metal)    S(lipo)     H(rot)  DE(clash)    DE(int)     intcor
     11.81     -12.47       0.00        0.00     101.31       1.90       0.05       0.60       ----

> <Gold.Chemscore.Fitness>
11.8102

> <Gold.Chemscore.DG>
-12.4685

> <Gold.Chemscore.ZeroCoef>
-5.4800

> <Gold.Chemscore.Hbond>
0.0000

> <Gold.Chemscore.Metal>
0.0000

> <Gold.Chemscore.Lipo>
101.3129

> <Gold.Chemscore.Internal_Hbond>
0.0000

> <Gold.Chemscore.DEClash>
0.0548

> <Gold.Chemscore.DEInternal>
0.6035

> <Gold.Chemscore.Rot>
1.9004

> <Gold.Chemscore.Internal.Correction>
   9.000000E+99

> <Gold.Chemscore.Hbond.Weighted>
-0.0000

> <Gold.Chemscore.Metal.Weighted>
-0.0000

> <Gold.Chemscore.Lipo.Weighted>
-11.8536

> <Gold.Chemscore.Internal_Hbond.Weighted>
0.0000

> <Gold.Chemscore.DEClash.Weighted>
0.0548

> <Gold.Chemscore.DEInternal.Weighted>
0.6035

> <Gold.Chemscore.Rot.Weighted>
4.8651

> <Gold.Chemscore.Internal.Correction.Weighted>
   9.000000E+99

> <Gold.Protein.RotatedTorsions>
[ 6907 6896 6895 6894 ] final   79.90 input  -60.11 | X-H torsion
[ 7974 7965 7964 7962 ] final -123.12 input  175.53 | X-H torsion
[ 8008 7997 7996 7995 ] final  177.85 input   59.86 | X-H torsion
[ 10167 10162 10161 10158 ] final -130.24 input  -65.29 | X-H torsion
[ 10718 10713 10712 10709 ] final -121.81 input   66.30 | X-H torsion
[ 10763 10752 10751 10750 ] final -155.83 input  -60.55 | X-H torsion
[ 11005 11000 10999 10996 ] final   76.50 input  -57.11 | X-H torsion

> <Gold.Protein.ActiveResidues>
 VAL166  LYS551  ARG553  GLY616  TRP617  ASP618  TYR619  PRO620  LYS621  CYS622 
 ASP623  PHE694  ASN695  SER759  ASP760  ASP761  ALA762  ILE779  LEU786  VAL792 
 PHE793  MET794  SER795  GLU796  ALA797  LYS798  CYS799  TRP800  GLU811  SER814 

> <Gold.Protein.RotatedAtoms>
  152.5215  134.3440  159.9227 H   0  0  0  0  0  0  0  0  0  0  0  0  # atno 6907 bound_to 6896
  151.3390  133.3963  159.2677 H   0  0  0  0  0  0  0  0  0  0  0  0  # atno 6908 bound_to 6896
  150.9818  134.9190  159.7907 H   0  0  0  0  0  0  0  0  0  0  0  0  # atno 6909 bound_to 6896
  145.0220  140.7996  143.4375 H   0  0  0  0  0  0  0  0  0  0  0  0  # atno 7974 bound_to 7965
  156.0611  140.1348  156.9939 H   0  0  0  0  0  0  0  0  0  0  0  0  # atno 8008 bound_to 7997
  154.4482  140.0991  156.6590 H   0  0  0  0  0  0  0  0  0  0  0  0  # atno 8009 bound_to 7997
  155.5375  140.3460  155.4442 H   0  0  0  0  0  0  0  0  0  0  0  0  # atno 8010 bound_to 7997
  139.9313  143.6268  152.2529 H   0  0  0  0  0  0  0  0  0  0  0  0  # atno 10167 bound_to 10162
  156.1367  130.6436  150.9708 H   0  0  0  0  0  0  0  0  0  0  0  0  # atno 10718 bound_to 10713
  154.7758  135.3159  154.8095 H   0  0  0  0  0  0  0  0  0  0  0  0  # atno 10763 bound_to 10752
  153.8819  135.6834  153.4770 H   0  0  0  0  0  0  0  0  0  0  0  0  # atno 10764 bound_to 10752
  153.1381  135.4751  154.9390 H   0  0  0  0  0  0  0  0  0  0  0  0  # atno 10765 bound_to 10752
  139.9295  134.7606  156.1403 H   0  0  0  0  0  0  0  0  0  0  0  0  # atno 11005 bound_to 11000
  145.1883  139.2315  143.5256 LP  0  0  0  0  0  0  0  0  0  0  0  0  # atno 17320 bound_to 7965
  146.3487  140.1672  142.8590 LP  0  0  0  0  0  0  0  0  0  0  0  0  # atno 17321 bound_to 7965
  139.6780  144.7657  151.1661 LP  0  0  0  0  0  0  0  0  0  0  0  0  # atno 17342 bound_to 10162
  140.7636  143.5767  150.8938 LP  0  0  0  0  0  0  0  0  0  0  0  0  # atno 17343 bound_to 10162
  157.6539  131.0892  150.7991 LP  0  0  0  0  0  0  0  0  0  0  0  0  # atno 17370 bound_to 10713
  156.8070  130.4940  149.5361 LP  0  0  0  0  0  0  0  0  0  0  0  0  # atno 17371 bound_to 10713
  141.0875  133.6728  156.2469 LP  0  0  0  0  0  0  0  0  0  0  0  0  # atno 17394 bound_to 11000
  140.6240  134.5332  157.5551 LP  0  0  0  0  0  0  0  0  0  0  0  0  # atno 17395 bound_to 11000

$$$$
