AV-unprocessed.smi:862|AV-procd|sdf|3979|dock1
  -GOLD-   22720 1453D 1   1.00000     0.00000
 Structure written by MMmdl.
 44 46  0  0  0  0  0  0  0  0  2 V2000
  147.8914  140.2257  153.3279 N   0  0  0  0  0  0  0  0  0  0  0  0
  147.7147  140.1343  154.6495 C   0  0  0  0  0  0  0  0  0  0  0  0
  146.6914  140.5602  155.1818 O   0  0  0  0  0  0  0  0  0  0  0  0
  148.7112  139.5089  155.3261 N   0  0  0  0  0  0  0  0  0  0  0  0
  150.0349  139.1544  154.7876 C   0  0  0  0  0  0  0  0  0  0  0  0
  151.0763  140.1386  155.3507 C   0  0  0  0  0  0  0  0  0  0  0  0
  151.0766  140.1304  156.8940 C   0  0  0  0  0  0  0  0  0  0  0  0
  151.9914  141.1754  157.4036 N   0  3  0  0  0  0  0  0  0  0  0  0
  152.2487  141.1499  158.8608 C   0  0  1  0  0  0  0  0  0  0  0  0
  153.2032  140.0275  159.2808 C   0  0  0  0  0  0  0  0  0  0  0  0
  153.8232  140.4973  160.6045 C   0  0  0  0  0  0  0  0  0  0  0  0
  153.5837  142.0135  160.6876 C   0  0  0  0  0  0  0  0  0  0  0  0
  152.9739  142.4130  159.3362 C   0  0  2  0  0  0  0  0  0  0  0  0
  152.1071  143.5797  159.4070 N   0  0  0  0  0  0  0  0  0  0  0  0
  151.3414  144.1068  158.3747 C   0  0  0  0  0  0  0  0  0  0  0  0
  150.6716  145.1922  158.8928 C   0  0  0  0  0  0  0  0  0  0  0  0
  151.0042  145.3502  160.2354 N   0  0  0  0  0  0  0  0  0  0  0  0
  151.8567  144.3616  160.4686 C   0  0  0  0  0  0  0  0  0  0  0  0
  149.6434  140.3166  157.4434 C   0  0  0  0  0  0  0  0  0  0  0  0
  148.6642  139.3294  156.7824 C   0  0  0  0  0  0  0  0  0  0  0  0
  147.1840  140.6697  152.7602 H   0  0  0  0  0  0  0  0  0  0  0  0
  148.7218  139.8440  152.8994 H   0  0  0  0  0  0  0  0  0  0  0  0
  150.2831  138.1357  155.0890 H   0  0  0  0  0  0  0  0  0  0  0  0
  150.0820  139.1529  153.6990 H   0  0  0  0  0  0  0  0  0  0  0  0
  152.0676  139.8818  154.9756 H   0  0  0  0  0  0  0  0  0  0  0  0
  150.8569  141.1424  154.9833 H   0  0  0  0  0  0  0  0  0  0  0  0
  151.4486  139.1561  157.2138 H   0  0  0  0  0  0  0  0  0  0  0  0
  152.8809  141.0792  156.9351 H   0  0  0  0  0  0  0  0  0  0  0  0
  151.3128  141.0453  159.4104 H   0  0  0  0  0  0  0  0  0  0  0  0
  152.7001  139.0650  159.3804 H   0  0  0  0  0  0  0  0  0  0  0  0
  153.9926  139.9099  158.5366 H   0  0  0  0  0  0  0  0  0  0  0  0
  153.3481  139.9985  161.4500 H   0  0  0  0  0  0  0  0  0  0  0  0
  154.8861  140.2569  160.6421 H   0  0  0  0  0  0  0  0  0  0  0  0
  152.8958  142.2205  161.5080 H   0  0  0  0  0  0  0  0  0  0  0  0
  154.5029  142.5633  160.8919 H   0  0  0  0  0  0  0  0  0  0  0  0
  153.7912  142.6339  158.6467 H   0  0  0  0  0  0  0  0  0  0  0  0
  151.3347  143.6795  157.3827 H   0  0  0  0  0  0  0  0  0  0  0  0
  149.9798  145.8648  158.4073 H   0  0  0  0  0  0  0  0  0  0  0  0
  152.3063  144.2012  161.4377 H   0  0  0  0  0  0  0  0  0  0  0  0
  149.6219  140.1743  158.5238 H   0  0  0  0  0  0  0  0  0  0  0  0
  149.3048  141.3379  157.2599 H   0  0  0  0  0  0  0  0  0  0  0  0
  147.6615  139.4687  157.1896 H   0  0  0  0  0  0  0  0  0  0  0  0
  148.9410  138.3035  157.0295 H   0  0  0  0  0  0  0  0  0  0  0  0
  151.5994  142.0741  157.1605 H   0  0  0  0  0  0  0  0  0  0  0  0
  1  2  1  0  0  0  0
  1 21  1  0  0  0  0
  1 22  1  0  0  0  0
  2  3  2  0  0  0  0
  2  4  1  0  0  0  0
  4 20  1  0  0  0  0
  4  5  1  0  0  0  0
  5  6  1  0  0  0  0
  5 23  1  0  0  0  0
  5 24  1  0  0  0  0
  6  7  1  0  0  0  0
  6 25  1  0  0  0  0
  6 26  1  0  0  0  0
  7  8  1  0  0  0  0
  7 19  1  0  0  0  0
  7 27  1  0  0  0  0
  8  9  1  0  0  0  0
  8 28  1  0  0  0  0
  8 44  1  0  0  0  0
  9 13  1  0  0  0  0
  9 10  1  0  0  0  0
  9 29  1  0  0  0  0
 10 11  1  0  0  0  0
 10 30  1  0  0  0  0
 10 31  1  0  0  0  0
 11 12  1  0  0  0  0
 11 32  1  0  0  0  0
 11 33  1  0  0  0  0
 12 13  1  0  0  0  0
 12 34  1  0  0  0  0
 12 35  1  0  0  0  0
 13 14  1  0  0  0  0
 13 36  1  0  0  0  0
 14 18  1  0  0  0  0
 14 15  1  0  0  0  0
 15 16  2  0  0  0  0
 15 37  1  0  0  0  0
 16 17  1  0  0  0  0
 16 38  1  0  0  0  0
 17 18  2  0  0  0  0
 18 39  1  0  0  0  0
 19 20  1  0  0  0  0
 19 40  1  0  0  0  0
 19 41  1  0  0  0  0
 20 42  1  0  0  0  0
 20 43  1  0  0  0  0
M  CHG  1   8   1
M  END
> <s_m_source_file>
AV-unprocessed.smi

> <i_m_source_file_index>
862

> <i_lp_mmshare_version>
43012

> <i_f3d_flags>
0

> <s_epik_input>
W05IMl1DKD1PKU4xW0NIMl1bQ0gyXVtDSF0oW0NIMl1bQ0gyXTEpW05IXVtDQEBIXTJbQ0gyXVtDSDJdW0NIMl1bQ0BIXTJuM1tjSF1bY0hdbltjSF0z

> <s_epik_cmdline>
J2VwaWtfcHl0aG9uJywgJy1waCcsICc3LjAnLCAnLXRuJywgJzgnLCAnLW1hJywgJzIwMCcsICctbWV0YWxfYmluZGluZycsICctaW1hZScsICc8aW5maWxlLm1hZT4nLCAnLW9tYWUnLCAnPG91dGZpbGUubWFlPic=

> <r_lp_tautomer_probability>
1

> <r_epik_Ionization_Penalty>
0.0731506

> <r_epik_Ionization_Penalty_Charging>
0.0731

> <r_epik_Ionization_Penalty_Neutral>
5.05966e-05

> <r_epik_State_Penalty>
0.128895

> <r_epik_Charging_Adjusted_Penalty>
0.201995

> <i_epik_Tot_Q>
1

> <i_epik_Tot_abs_Q>
1

> <r_epik_Metal_State_Penalty>
0.113934

> <b_epik_Metal_Only>
0

> <s_lp_Force_Field>
OPLS_2005

> <r_lp_Energy>
55.4297

> <b_lp_Chiralities_Consistent>
1

> <s_lp_Variant>
AV-unprocessed.smi:862-4

> <Gold.Version>
5.8.1

> <Gold.Id.Protein>
6NUR|6NUR_protein|mol2

> <Gold.PLP.Fitness>
43.7211

> <Gold.PLP.PLP>
-38.8920

> <Gold.PLP.part.hbond>
-1.0000

> <Gold.PLP.part.metal>
0.0000

> <Gold.PLP.part.buried>
-3.3557

> <Gold.PLP.part.nonpolar>
-35.3860

> <Gold.PLP.part.repulsive>
0.5136

> <Gold.PLP.ligand.clash>
0.0000

> <Gold.PLP.ligand.torsion>
0.1792

> <Gold.PLP.Chemscore.Hbond>
0.7200

> <Gold.PLP.Chemscore.CHOScore>
0.9908

> <Gold.PLP.Chemscore.Metal>
0.0000

> <Gold.Chemscore.Hbonds>
donor molecule, donor type, donor heavy atom, donor atom, acceptor molecule, acceptor atom, score
      L1  H     1    22       P1  7957  0.70
      L1  C    16    38       P1  8029  1.00

> <Gold.PLP.Chemscore.Internal.Correction>
0.0550

> <Gold.Rescore>
     Score         DG    S(hbond)    S(metal)    S(lipo)     H(rot)  DE(clash)    DE(int)     intcor
     14.17     -14.80       0.90        0.00      89.89       1.64       0.44       0.19       ----

> <Gold.Chemscore.Fitness>
14.1747

> <Gold.Chemscore.DG>
-14.8001

> <Gold.Chemscore.ZeroCoef>
-5.4800

> <Gold.Chemscore.Hbond>
0.8996

> <Gold.Chemscore.Metal>
0.0000

> <Gold.Chemscore.Lipo>
89.8884

> <Gold.Chemscore.Internal_Hbond>
0.0000

> <Gold.Chemscore.DEClash>
0.4355

> <Gold.Chemscore.DEInternal>
0.1899

> <Gold.Chemscore.Rot>
1.6411

> <Gold.Chemscore.Internal.Correction>
   9.000000E+99

> <Gold.Chemscore.Hbonds>
donor molecule, donor type, donor heavy atom, donor atom, acceptor molecule, acceptor atom, score
      L1  H     1    22       P1  7957  0.69

> <Gold.Chemscore.Hbond.Weighted>
-3.0045

> <Gold.Chemscore.Metal.Weighted>
-0.0000

> <Gold.Chemscore.Lipo.Weighted>
-10.5169

> <Gold.Chemscore.Internal_Hbond.Weighted>
0.0000

> <Gold.Chemscore.DEClash.Weighted>
0.4355

> <Gold.Chemscore.DEInternal.Weighted>
0.1899

> <Gold.Chemscore.Rot.Weighted>
4.2013

> <Gold.Chemscore.Internal.Correction.Weighted>
   9.000000E+99

> <Gold.Protein.RotatedTorsions>
[ 6907 6896 6895 6894 ] final  -54.90 input  -60.11 | X-H torsion
[ 7974 7965 7964 7962 ] final  113.87 input  175.53 | X-H torsion
[ 8008 7997 7996 7995 ] final  -41.14 input   59.86 | X-H torsion
[ 10167 10162 10161 10158 ] final  171.33 input  -65.29 | X-H torsion
[ 10718 10713 10712 10709 ] final  -92.40 input   66.30 | X-H torsion
[ 10763 10752 10751 10750 ] final   87.26 input  -60.55 | X-H torsion
[ 11005 11000 10999 10996 ] final  121.11 input  -57.11 | X-H torsion

> <Gold.Protein.ActiveResidues>
 VAL166  LYS551  ARG553  GLY616  TRP617  ASP618  TYR619  PRO620  LYS621  CYS622 
 ASP623  PHE694  ASN695  SER759  ASP760  ASP761  ALA762  ILE779  LEU786  VAL792 
 PHE793  MET794  SER795  GLU796  ALA797  LYS798  CYS799  TRP800  GLU811  SER814 

> <Gold.Protein.RotatedAtoms>
  150.8297  134.7545  159.6843 H   0  0  0  0  0  0  0  0  0  0  0  0  # atno 6907 bound_to 6896
  152.4403  134.5600  159.9901 H   0  0  0  0  0  0  0  0  0  0  0  0  # atno 6908 bound_to 6896
  151.5764  133.3346  159.3035 H   0  0  0  0  0  0  0  0  0  0  0  0  # atno 6909 bound_to 6896
  145.2115  139.2904  143.4266 H   0  0  0  0  0  0  0  0  0  0  0  0  # atno 7974 bound_to 7965
  154.4006  140.1507  156.3142 H   0  0  0  0  0  0  0  0  0  0  0  0  # atno 8008 bound_to 7997
  155.8588  140.3454  155.5721 H   0  0  0  0  0  0  0  0  0  0  0  0  # atno 8009 bound_to 7997
  155.7903  140.0855  157.2003 H   0  0  0  0  0  0  0  0  0  0  0  0  # atno 8010 bound_to 7997
  139.5043  144.3497  151.9935 H   0  0  0  0  0  0  0  0  0  0  0  0  # atno 10167 bound_to 10162
  156.0002  130.4985  150.5620 H   0  0  0  0  0  0  0  0  0  0  0  0  # atno 10718 bound_to 10713
  153.1650  135.4550  154.9825 H   0  0  0  0  0  0  0  0  0  0  0  0  # atno 10763 bound_to 10752
  154.7925  135.3226  154.7745 H   0  0  0  0  0  0  0  0  0  0  0  0  # atno 10764 bound_to 10752
  153.8229  135.6945  153.4879 H   0  0  0  0  0  0  0  0  0  0  0  0  # atno 10765 bound_to 10752
  139.9212  134.9637  156.7909 H   0  0  0  0  0  0  0  0  0  0  0  0  # atno 11005 bound_to 11000
  146.3396  140.2392  142.8595 LP  0  0  0  0  0  0  0  0  0  0  0  0  # atno 17320 bound_to 7965
  144.9851  140.8495  143.5373 LP  0  0  0  0  0  0  0  0  0  0  0  0  # atno 17321 bound_to 7965
  140.2934  144.3728  150.6081 LP  0  0  0  0  0  0  0  0  0  0  0  0  # atno 17342 bound_to 10162
  140.5929  143.2167  151.7219 LP  0  0  0  0  0  0  0  0  0  0  0  0  # atno 17343 bound_to 10162
  157.3528  131.0736  151.1700 LP  0  0  0  0  0  0  0  0  0  0  0  0  # atno 17370 bound_to 10713
  157.2511  130.6614  149.5931 LP  0  0  0  0  0  0  0  0  0  0  0  0  # atno 17371 bound_to 10713
  140.6468  133.9768  155.7735 LP  0  0  0  0  0  0  0  0  0  0  0  0  # atno 17394 bound_to 11000
  141.0735  134.0170  157.3492 LP  0  0  0  0  0  0  0  0  0  0  0  0  # atno 17395 bound_to 11000

$$$$
