AV-unprocessed.smi:2840|AV-procd|sdf|10931|dock2
  -GOLD-   2272015373D 1   1.00000     0.00000
 Structure written by MMmdl.
 36 37  0  0  0  0  0  0  0  0  1 V2000
  152.0929  144.9671  158.5678 C   0  0  0  0  0  0  0  0  0  0  0  0
  151.9940  143.6123  159.2915 C   0  0  2  0  0  0  0  0  0  0  0  0
  153.0951  143.4960  160.3652 C   0  0  0  0  0  0  0  0  0  0  0  0
  153.0243  142.1593  161.1180 C   0  0  0  0  0  0  0  0  0  0  0  0
  153.1038  140.9758  160.1447 C   0  0  0  0  0  0  0  0  0  0  0  0
  152.0015  141.0666  159.0799 C   0  0  0  0  0  0  0  0  0  0  0  0
  152.0505  142.4060  158.3180 C   0  0  1  0  0  0  0  0  0  0  0  0
  150.9365  142.4462  157.3713 N   0  0  0  0  0  0  0  0  0  0  0  0
  150.5120  141.4272  156.6087 C   0  0  0  0  0  0  0  0  0  0  0  0
  151.0319  140.3110  156.6090 O   0  0  0  0  0  0  0  0  0  0  0  0
  149.4585  141.7938  155.8581 N   0  0  0  0  0  0  0  0  0  0  0  0
  148.7380  141.0148  154.9139 C   0  0  0  0  0  0  0  0  0  0  0  0
  147.7693  141.7243  154.1686 C   0  0  0  0  0  0  0  0  0  0  0  0
  147.0030  141.0436  153.2029 C   0  0  0  0  0  0  0  0  0  0  0  0
  147.2249  139.6688  153.0071 C   0  0  0  0  0  0  0  0  0  0  0  0
  148.2089  139.0380  153.7904 C   0  0  0  0  0  0  0  0  0  0  0  0
  148.9448  139.6887  154.7162 N   0  0  0  0  0  0  0  0  0  0  0  0
  153.0173  145.0405  157.9938 H   0  0  0  0  0  0  0  0  0  0  0  0
  152.0771  145.7934  159.2789 H   0  0  0  0  0  0  0  0  0  0  0  0
  151.2613  145.1197  157.8802 H   0  0  0  0  0  0  0  0  0  0  0  0
  151.0315  143.5868  159.8052 H   0  0  0  0  0  0  0  0  0  0  0  0
  154.0761  143.5963  159.8983 H   0  0  0  0  0  0  0  0  0  0  0  0
  153.0092  144.3173  161.0776 H   0  0  0  0  0  0  0  0  0  0  0  0
  153.8349  142.0979  161.8446 H   0  0  0  0  0  0  0  0  0  0  0  0
  152.0944  142.1067  161.6856 H   0  0  0  0  0  0  0  0  0  0  0  0
  154.0813  140.9628  159.6610 H   0  0  0  0  0  0  0  0  0  0  0  0
  153.0158  140.0371  160.6922 H   0  0  0  0  0  0  0  0  0  0  0  0
  152.1022  140.2361  158.3800 H   0  0  0  0  0  0  0  0  0  0  0  0
  151.0287  140.9482  159.5595 H   0  0  0  0  0  0  0  0  0  0  0  0
  153.0002  142.4444  157.7807 H   0  0  0  0  0  0  0  0  0  0  0  0
  150.4458  143.3250  157.2957 H   0  0  0  0  0  0  0  0  0  0  0  0
  149.1359  142.7430  155.9728 H   0  0  0  0  0  0  0  0  0  0  0  0
  147.6115  142.7807  154.3322 H   0  0  0  0  0  0  0  0  0  0  0  0
  146.2586  141.5684  152.6227 H   0  0  0  0  0  0  0  0  0  0  0  0
  146.6570  139.1127  152.2758 H   0  0  0  0  0  0  0  0  0  0  0  0
  148.4116  137.9840  153.6703 H   0  0  0  0  0  0  0  0  0  0  0  0
  1  2  1  0  0  0  0
  1 18  1  0  0  0  0
  1 19  1  0  0  0  0
  1 20  1  0  0  0  0
  2  7  1  0  0  0  0
  2  3  1  0  0  0  0
  2 21  1  0  0  0  0
  3  4  1  0  0  0  0
  3 22  1  0  0  0  0
  3 23  1  0  0  0  0
  4  5  1  0  0  0  0
  4 24  1  0  0  0  0
  4 25  1  0  0  0  0
  5  6  1  0  0  0  0
  5 26  1  0  0  0  0
  5 27  1  0  0  0  0
  6  7  1  0  0  0  0
  6 28  1  0  0  0  0
  6 29  1  0  0  0  0
  7  8  1  0  0  0  0
  7 30  1  0  0  0  0
  8  9  1  0  0  0  0
  8 31  1  0  0  0  0
  9 10  2  0  0  0  0
  9 11  1  0  0  0  0
 11 12  1  0  0  0  0
 11 32  1  0  0  0  0
 12 17  1  0  0  0  0
 12 13  2  0  0  0  0
 13 14  1  0  0  0  0
 13 33  1  0  0  0  0
 14 15  2  0  0  0  0
 14 34  1  0  0  0  0
 15 16  1  0  0  0  0
 15 35  1  0  0  0  0
 16 17  2  0  0  0  0
 16 36  1  0  0  0  0
M  END
> <s_m_source_file>
AV-unprocessed.smi

> <i_m_source_file_index>
2840

> <i_lp_mmshare_version>
43012

> <i_f3d_flags>
0

> <s_epik_input>
W0NIM11bQ0BASF0xW0NIMl1bQ0gyXVtDSDJdW0NIMl1bQ0BIXTFbTkhdQyg9TylbTkhdYzJbY0hdW2NIXVtjSF1bY0hdbjI=

> <s_epik_cmdline>
J2VwaWtfcHl0aG9uJywgJy1waCcsICc3LjAnLCAnLXRuJywgJzgnLCAnLW1hJywgJzIwMCcsICctbWV0YWxfYmluZGluZycsICctaW1hZScsICc8aW5maWxlLm1hZT4nLCAnLW9tYWUnLCAnPG91dGZpbGUubWFlPic=

> <r_lp_tautomer_probability>
1

> <r_epik_Ionization_Penalty>
5.29956e-05

> <r_epik_Ionization_Penalty_Charging>
0

> <r_epik_Ionization_Penalty_Neutral>
5.29956e-05

> <r_epik_State_Penalty>
-0

> <r_epik_Charging_Adjusted_Penalty>
0

> <i_epik_Tot_Q>
0

> <i_epik_Tot_abs_Q>
0

> <r_epik_Metal_State_Penalty>
-0

> <b_epik_Metal_Only>
0

> <s_lp_Force_Field>
OPLS_2005

> <r_lp_Energy>
13.2298

> <b_lp_Chiralities_Consistent>
1

> <s_lp_Variant>
AV-unprocessed.smi:2840-1

> <Gold.Version>
5.8.1

> <Gold.Id.Protein>
6NUR|6NUR_protein|mol2

> <Gold.PLP.Fitness>
42.5557

> <Gold.PLP.PLP>
-37.0663

> <Gold.PLP.part.hbond>
-1.0000

> <Gold.PLP.part.metal>
0.0000

> <Gold.PLP.part.buried>
-3.6293

> <Gold.PLP.part.nonpolar>
-31.6600

> <Gold.PLP.part.repulsive>
0.2335

> <Gold.PLP.ligand.clash>
0.0000

> <Gold.PLP.ligand.torsion>
0.2445

> <Gold.PLP.Chemscore.Hbond>
1.0000

> <Gold.PLP.Chemscore.CHOScore>
0.9915

> <Gold.PLP.Chemscore.Metal>
0.0000

> <Gold.Chemscore.Hbonds>
donor molecule, donor type, donor heavy atom, donor atom, acceptor molecule, acceptor atom, score
      L1  H    11    32       P1  8028  1.00
      L1  C    16    36       P1  7948  0.92

> <Gold.PLP.Chemscore.Internal.Correction>
0.0038

> <Gold.Rescore>
     Score         DG    S(hbond)    S(metal)    S(lipo)     H(rot)  DE(clash)    DE(int)     intcor
     15.70     -18.71       1.03        0.00     105.53       1.00       0.11       2.90       ----

> <Gold.Chemscore.Fitness>
15.7031

> <Gold.Chemscore.DG>
-18.7110

> <Gold.Chemscore.ZeroCoef>
-5.4800

> <Gold.Chemscore.Hbond>
1.0310

> <Gold.Chemscore.Metal>
0.0000

> <Gold.Chemscore.Lipo>
105.5324

> <Gold.Chemscore.Internal_Hbond>
0.0000

> <Gold.Chemscore.DEClash>
0.1054

> <Gold.Chemscore.DEInternal>
2.9025

> <Gold.Chemscore.Rot>
1.0000

> <Gold.Chemscore.Internal.Correction>
   9.000000E+99

> <Gold.Chemscore.Hbonds>
donor molecule, donor type, donor heavy atom, donor atom, acceptor molecule, acceptor atom, score
      L1  H    11    32       P1  8028  0.94

> <Gold.Chemscore.Hbond.Weighted>
-3.4437

> <Gold.Chemscore.Metal.Weighted>
-0.0000

> <Gold.Chemscore.Lipo.Weighted>
-12.3473

> <Gold.Chemscore.Internal_Hbond.Weighted>
0.0000

> <Gold.Chemscore.DEClash.Weighted>
0.1054

> <Gold.Chemscore.DEInternal.Weighted>
2.9025

> <Gold.Chemscore.Rot.Weighted>
2.5600

> <Gold.Chemscore.Internal.Correction.Weighted>
   9.000000E+99

> <Gold.Protein.RotatedTorsions>
[ 6907 6896 6895 6894 ] final -104.07 input  -60.11 | X-H torsion
[ 7974 7965 7964 7962 ] final   60.78 input  175.53 | X-H torsion
[ 8008 7997 7996 7995 ] final   42.14 input   59.86 | X-H torsion
[ 10167 10162 10161 10158 ] final -150.68 input  -65.29 | X-H torsion
[ 10718 10713 10712 10709 ] final  -81.77 input   66.30 | X-H torsion
[ 10763 10752 10751 10750 ] final   94.27 input  -60.55 | X-H torsion
[ 11005 11000 10999 10996 ] final -155.88 input  -57.11 | X-H torsion

> <Gold.Protein.ActiveResidues>
 VAL166  LYS551  ARG553  GLY616  TRP617  ASP618  TYR619  PRO620  LYS621  CYS622 
 ASP623  PHE694  ASN695  SER759  ASP760  ASP761  ALA762  ILE779  LEU786  VAL792 
 PHE793  MET794  SER795  GLU796  ALA797  LYS798  CYS799  TRP800  GLU811  SER814 

> <Gold.Protein.RotatedAtoms>
  150.7269  134.0334  159.3740 H   0  0  0  0  0  0  0  0  0  0  0  0  # atno 6907 bound_to 6896
  151.8304  135.0621  160.0445 H   0  0  0  0  0  0  0  0  0  0  0  0  # atno 6908 bound_to 6896
  152.2938  133.5551  159.5610 H   0  0  0  0  0  0  0  0  0  0  0  0  # atno 6909 bound_to 6896
  145.8922  139.3519  143.0643 H   0  0  0  0  0  0  0  0  0  0  0  0  # atno 7974 bound_to 7965
  155.2812  140.3372  155.4258 H   0  0  0  0  0  0  0  0  0  0  0  0  # atno 8008 bound_to 7997
  156.2089  140.1762  156.7780 H   0  0  0  0  0  0  0  0  0  0  0  0  # atno 8009 bound_to 7997
  154.5658  140.0679  156.8874 H   0  0  0  0  0  0  0  0  0  0  0  0  # atno 8010 bound_to 7997
  139.7333  143.8774  152.2541 H   0  0  0  0  0  0  0  0  0  0  0  0  # atno 10167 bound_to 10162
  156.0044  130.4614  150.4003 H   0  0  0  0  0  0  0  0  0  0  0  0  # atno 10718 bound_to 10713
  153.2397  135.4296  155.0684 H   0  0  0  0  0  0  0  0  0  0  0  0  # atno 10763 bound_to 10752
  154.8335  135.3399  154.6667 H   0  0  0  0  0  0  0  0  0  0  0  0  # atno 10764 bound_to 10752
  153.7091  135.7024  153.5098 H   0  0  0  0  0  0  0  0  0  0  0  0  # atno 10765 bound_to 10752
  140.6817  134.4138  157.5226 H   0  0  0  0  0  0  0  0  0  0  0  0  # atno 11005 bound_to 11000
  145.8895  140.9313  143.0559 LP  0  0  0  0  0  0  0  0  0  0  0  0  # atno 17320 bound_to 7965
  144.6731  140.0886  143.7466 LP  0  0  0  0  0  0  0  0  0  0  0  0  # atno 17321 bound_to 7965
  139.8703  144.7071  150.8995 LP  0  0  0  0  0  0  0  0  0  0  0  0  # atno 17342 bound_to 10162
  140.7775  143.3743  151.1591 LP  0  0  0  0  0  0  0  0  0  0  0  0  # atno 17343 bound_to 10162
  157.2072  131.0452  151.2618 LP  0  0  0  0  0  0  0  0  0  0  0  0  # atno 17370 bound_to 10713
  157.3921  130.7288  149.6705 LP  0  0  0  0  0  0  0  0  0  0  0  0  # atno 17371 bound_to 10713
  139.8950  134.8694  156.2152 LP  0  0  0  0  0  0  0  0  0  0  0  0  # atno 17394 bound_to 11000
  141.0312  133.6987  156.1434 LP  0  0  0  0  0  0  0  0  0  0  0  0  # atno 17395 bound_to 11000

$$$$
