AV-unprocessed.smi:2345|AV-procd|sdf|9361|dock7
  -GOLD-   2272012583D 1   1.00000     0.00000
 Structure written by MMmdl.
 37 38  0  0  0  0  0  0  0  0  1 V2000
  152.5636  138.7064  154.6907 C   0  0  0  0  0  0  0  0  0  0  0  0
  151.5763  139.6191  155.4220 C   0  0  0  0  0  0  0  0  0  0  0  0
  150.0327  138.7498  155.8136 S   0  0  0  0  0  0  0  0  0  0  0  0
  149.0101  139.2263  154.3886 C   0  0  2  0  0  0  0  0  0  0  0  0
  148.8399  140.7439  154.2817 C   0  0  0  0  0  0  0  0  0  0  0  0
  147.5412  140.9193  153.5023 C   0  0  0  0  0  0  0  0  0  0  0  0
  146.6379  139.8022  154.0259 C   0  0  0  0  0  0  0  0  0  0  0  0
  147.5775  138.6534  154.4445 C   0  0  1  0  0  0  0  0  0  0  0  0
  147.4465  137.5076  153.5479 N   0  0  0  0  0  0  0  0  0  0  0  0
  146.3592  136.7311  153.4440 C   0  0  0  0  0  0  0  0  0  0  0  0
  145.3264  136.9214  154.0857 O   0  0  0  0  0  0  0  0  0  0  0  0
  146.5636  135.7265  152.5755 N   0  0  0  0  0  0  0  0  0  0  0  0
  145.6750  134.6818  152.2025 C   0  0  0  0  0  0  0  0  0  0  0  0
  144.2851  134.8583  151.9978 C   0  0  0  0  0  0  0  0  0  0  0  0
  143.5132  133.7439  151.6123 C   0  0  0  0  0  0  0  0  0  0  0  0
  144.0299  132.5120  151.4181 N   0  0  0  0  0  0  0  0  0  0  0  0
  145.3577  132.3509  151.5997 C   0  0  0  0  0  0  0  0  0  0  0  0
  146.2187  133.3982  151.9843 C   0  0  0  0  0  0  0  0  0  0  0  0
  147.5447  133.1694  152.1453 F   0  0  0  0  0  0  0  0  0  0  0  0
  153.4830  139.2410  154.4519 H   0  0  0  0  0  0  0  0  0  0  0  0
  152.1400  138.3378  153.7562 H   0  0  0  0  0  0  0  0  0  0  0  0
  152.8285  137.8441  155.3031 H   0  0  0  0  0  0  0  0  0  0  0  0
  152.0232  139.9846  156.3466 H   0  0  0  0  0  0  0  0  0  0  0  0
  151.3504  140.4895  154.8062 H   0  0  0  0  0  0  0  0  0  0  0  0
  149.5134  138.8862  153.4817 H   0  0  0  0  0  0  0  0  0  0  0  0
  148.7281  141.1822  155.2745 H   0  0  0  0  0  0  0  0  0  0  0  0
  149.6887  141.2278  153.7976 H   0  0  0  0  0  0  0  0  0  0  0  0
  147.1026  141.9091  153.6317 H   0  0  0  0  0  0  0  0  0  0  0  0
  147.7291  140.7728  152.4378 H   0  0  0  0  0  0  0  0  0  0  0  0
  146.0966  140.1586  154.9033 H   0  0  0  0  0  0  0  0  0  0  0  0
  145.8895  139.5065  153.2892 H   0  0  0  0  0  0  0  0  0  0  0  0
  147.3353  138.3542  155.4663 H   0  0  0  0  0  0  0  0  0  0  0  0
  148.2519  137.2782  152.9839 H   0  0  0  0  0  0  0  0  0  0  0  0
  147.4933  135.6572  152.1881 H   0  0  0  0  0  0  0  0  0  0  0  0
  143.8026  135.8164  152.1149 H   0  0  0  0  0  0  0  0  0  0  0  0
  142.4508  133.8475  151.4489 H   0  0  0  0  0  0  0  0  0  0  0  0
  145.7464  131.3573  151.4320 H   0  0  0  0  0  0  0  0  0  0  0  0
  1  2  1  0  0  0  0
  1 20  1  0  0  0  0
  1 21  1  0  0  0  0
  1 22  1  0  0  0  0
  2  3  1  0  0  0  0
  2 23  1  0  0  0  0
  2 24  1  0  0  0  0
  3  4  1  0  0  0  0
  4  8  1  0  0  0  0
  4  5  1  0  0  0  0
  4 25  1  0  0  0  0
  5  6  1  0  0  0  0
  5 26  1  0  0  0  0
  5 27  1  0  0  0  0
  6  7  1  0  0  0  0
  6 28  1  0  0  0  0
  6 29  1  0  0  0  0
  7  8  1  0  0  0  0
  7 30  1  0  0  0  0
  7 31  1  0  0  0  0
  8  9  1  0  0  0  0
  8 32  1  0  0  0  0
  9 10  1  0  0  0  0
  9 33  1  0  0  0  0
 10 11  2  0  0  0  0
 10 12  1  0  0  0  0
 12 13  1  0  0  0  0
 12 34  1  0  0  0  0
 13 18  1  0  0  0  0
 13 14  2  0  0  0  0
 14 15  1  0  0  0  0
 14 35  1  0  0  0  0
 15 16  2  0  0  0  0
 15 36  1  0  0  0  0
 16 17  1  0  0  0  0
 17 18  2  0  0  0  0
 17 37  1  0  0  0  0
 18 19  1  0  0  0  0
M  END
> <s_m_source_file>
AV-unprocessed.smi

> <i_m_source_file_index>
2345

> <i_lp_mmshare_version>
43012

> <i_f3d_flags>
0

> <s_epik_input>
W0NIM11bQ0gyXVNbQ0BASF0xW0NIMl1bQ0gyXVtDSDJdW0NASF0xW05IXUMoPU8pW05IXWMyW2NIXVtjSF1uW2NIXWMyRg==

> <s_epik_cmdline>
J2VwaWtfcHl0aG9uJywgJy1waCcsICc3LjAnLCAnLXRuJywgJzgnLCAnLW1hJywgJzIwMCcsICctbWV0YWxfYmluZGluZycsICctaW1hZScsICc8aW5maWxlLm1hZT4nLCAnLW9tYWUnLCAnPG91dGZpbGUubWFlPic=

> <r_epik_Ionization_Penalty>
0.00333745

> <r_epik_Ionization_Penalty_Charging>
0

> <r_epik_Ionization_Penalty_Neutral>
0.00333745

> <r_epik_State_Penalty>
0.00233401

> <r_epik_Charging_Adjusted_Penalty>
0.00233401

> <i_epik_Tot_Q>
0

> <i_epik_Tot_abs_Q>
0

> <r_epik_Metal_State_Penalty>
-0

> <b_epik_Metal_Only>
0

> <s_lp_Force_Field>
OPLS_2005

> <r_lp_Energy>
20.2563

> <b_lp_Chiralities_Consistent>
1

> <s_lp_Variant>
AV-unprocessed.smi:2345-1

> <Gold.Version>
5.8.1

> <Gold.Id.Protein>
6NUR|6NUR_protein|mol2

> <Gold.PLP.Fitness>
38.2884

> <Gold.PLP.PLP>
-30.5684

> <Gold.PLP.part.hbond>
-1.9892

> <Gold.PLP.part.metal>
0.0000

> <Gold.PLP.part.buried>
-3.0814

> <Gold.PLP.part.nonpolar>
-26.8880

> <Gold.PLP.part.repulsive>
0.2920

> <Gold.PLP.ligand.clash>
0.0000

> <Gold.PLP.ligand.torsion>
0.5678

> <Gold.PLP.Chemscore.Hbond>
1.9760

> <Gold.PLP.Chemscore.CHOScore>
0.9725

> <Gold.PLP.Chemscore.Metal>
0.0000

> <Gold.Chemscore.Hbonds>
donor molecule, donor type, donor heavy atom, donor atom, acceptor molecule, acceptor atom, score
      L1  H     9    33       P1  7948  0.98
      L1  H    12    34       P1  7948  1.00
      L1  C    15    36       P1 10186  0.97

> <Gold.PLP.Chemscore.Internal.Correction>
0.0100

> <Gold.Rescore>
     Score         DG    S(hbond)    S(metal)    S(lipo)     H(rot)  DE(clash)    DE(int)     intcor
     16.70     -17.32       1.91        0.00      76.27       1.35       0.03       0.58       ----

> <Gold.Chemscore.Fitness>
16.6999

> <Gold.Chemscore.DG>
-17.3172

> <Gold.Chemscore.ZeroCoef>
-5.4800

> <Gold.Chemscore.Hbond>
1.9051

> <Gold.Chemscore.Metal>
0.0000

> <Gold.Chemscore.Lipo>
76.2709

> <Gold.Chemscore.Internal_Hbond>
0.0000

> <Gold.Chemscore.DEClash>
0.0328

> <Gold.Chemscore.DEInternal>
0.5844

> <Gold.Chemscore.Rot>
1.3475

> <Gold.Chemscore.Internal.Correction>
   9.000000E+99

> <Gold.Chemscore.Hbonds>
donor molecule, donor type, donor heavy atom, donor atom, acceptor molecule, acceptor atom, score
      L1  H     9    33       P1  7948  0.92
      L1  H    12    34       P1  7948  0.95

> <Gold.Chemscore.Hbond.Weighted>
-6.3631

> <Gold.Chemscore.Metal.Weighted>
-0.0000

> <Gold.Chemscore.Lipo.Weighted>
-8.9237

> <Gold.Chemscore.Internal_Hbond.Weighted>
0.0000

> <Gold.Chemscore.DEClash.Weighted>
0.0328

> <Gold.Chemscore.DEInternal.Weighted>
0.5844

> <Gold.Chemscore.Rot.Weighted>
3.4496

> <Gold.Chemscore.Internal.Correction.Weighted>
   9.000000E+99

> <Gold.Protein.RotatedTorsions>
[ 6907 6896 6895 6894 ] final  -98.35 input  -60.11 | X-H torsion
[ 7974 7965 7964 7962 ] final   35.59 input  175.53 | X-H torsion
[ 8008 7997 7996 7995 ] final   50.11 input   59.86 | X-H torsion
[ 10167 10162 10161 10158 ] final  -74.42 input  -65.29 | X-H torsion
[ 10718 10713 10712 10709 ] final -135.38 input   66.30 | X-H torsion
[ 10763 10752 10751 10750 ] final  137.57 input  -60.55 | X-H torsion
[ 11005 11000 10999 10996 ] final   78.01 input  -57.11 | X-H torsion

> <Gold.Protein.ActiveResidues>
 VAL166  LYS551  ARG553  GLY616  TRP617  ASP618  TYR619  PRO620  LYS621  CYS622 
 ASP623  PHE694  ASN695  SER759  ASP760  ASP761  ALA762  ILE779  LEU786  VAL792 
 PHE793  MET794  SER795  GLU796  ALA797  LYS798  CYS799  TRP800  GLU811  SER814 

> <Gold.Protein.RotatedAtoms>
  150.7044  134.1207  159.4033 H   0  0  0  0  0  0  0  0  0  0  0  0  # atno 6907 bound_to 6896
  151.9194  135.0303  160.0530 H   0  0  0  0  0  0  0  0  0  0  0  0  # atno 6908 bound_to 6896
  152.2269  133.4992  159.5230 H   0  0  0  0  0  0  0  0  0  0  0  0  # atno 6909 bound_to 6896
  146.1272  139.6123  142.9251 H   0  0  0  0  0  0  0  0  0  0  0  0  # atno 7974 bound_to 7965
  155.4134  140.3443  155.4265 H   0  0  0  0  0  0  0  0  0  0  0  0  # atno 8008 bound_to 7997
  156.1435  140.1549  156.8914 H   0  0  0  0  0  0  0  0  0  0  0  0  # atno 8009 bound_to 7997
  154.4991  140.0819  156.7741 H   0  0  0  0  0  0  0  0  0  0  0  0  # atno 8010 bound_to 7997
  140.5028  143.2358  151.7724 H   0  0  0  0  0  0  0  0  0  0  0  0  # atno 10167 bound_to 10162
  156.2656  130.7235  151.1185 H   0  0  0  0  0  0  0  0  0  0  0  0  # atno 10718 bound_to 10713
  153.8752  135.3051  155.3443 H   0  0  0  0  0  0  0  0  0  0  0  0  # atno 10763 bound_to 10752
  154.7787  135.4847  153.9802 H   0  0  0  0  0  0  0  0  0  0  0  0  # atno 10764 bound_to 10752
  153.1383  135.6819  153.9163 H   0  0  0  0  0  0  0  0  0  0  0  0  # atno 10765 bound_to 10752
  139.9230  134.7729  156.1595 H   0  0  0  0  0  0  0  0  0  0  0  0  # atno 11005 bound_to 11000
  145.5340  141.0425  143.2367 LP  0  0  0  0  0  0  0  0  0  0  0  0  # atno 17320 bound_to 7965
  144.7654  139.6858  143.7217 LP  0  0  0  0  0  0  0  0  0  0  0  0  # atno 17321 bound_to 7965
  139.4876  144.4498  151.9667 LP  0  0  0  0  0  0  0  0  0  0  0  0  # atno 17342 bound_to 10162
  140.3588  144.2999  150.5937 LP  0  0  0  0  0  0  0  0  0  0  0  0  # atno 17343 bound_to 10162
  157.7266  131.0645  150.5902 LP  0  0  0  0  0  0  0  0  0  0  0  0  # atno 17370 bound_to 10713
  156.5994  130.4350  149.5903 LP  0  0  0  0  0  0  0  0  0  0  0  0  # atno 17371 bound_to 10713
  141.0767  133.6772  156.2250 LP  0  0  0  0  0  0  0  0  0  0  0  0  # atno 17394 bound_to 11000
  140.6417  134.5159  157.5570 LP  0  0  0  0  0  0  0  0  0  0  0  0  # atno 17395 bound_to 11000

$$$$
