AV-unprocessed.smi:1041|AV-procd|sdf|4535|dock7
  -GOLD-   22720 2563D 1   1.00000     0.00000
 Structure written by MMmdl.
 51 52  0  0  0  0  0  0  0  0  2 V2000
  150.4946  145.6028  158.3176 C   0  0  0  0  0  0  0  0  0  0  0  0
  151.1485  144.4536  158.8260 O   0  0  0  0  0  0  0  0  0  0  0  0
  151.4510  143.5072  157.8135 C   0  0  0  0  0  0  0  0  0  0  0  0
  150.2050  142.6719  157.4732 C   0  0  0  0  0  0  0  0  0  0  0  0
  150.3603  141.7181  156.3730 N   0  0  0  0  0  0  0  0  0  0  0  0
  149.3228  140.6836  156.3717 C   0  0  0  0  0  0  0  0  0  0  0  0
  149.4635  139.7036  155.1943 C   0  0  0  0  0  0  0  0  0  0  0  0
  150.8503  139.0363  155.1925 C   0  0  0  0  0  0  0  0  0  0  0  0
  151.0190  138.0896  153.9900 C   0  0  0  0  0  0  0  0  0  0  0  0
  150.6087  136.7337  154.3274 N   0  0  0  0  0  0  0  0  0  0  0  0
  151.3543  135.8577  155.0150 C   0  0  0  0  0  0  0  0  0  0  0  0
  152.4915  136.1046  155.4157 O   0  0  0  0  0  0  0  0  0  0  0  0
  150.7116  134.4998  155.3027 C   0  0  0  0  0  0  0  0  0  0  0  0
  151.6564  133.3003  155.2423 C   0  0  0  0  0  0  0  0  0  0  0  0
  151.4825  132.2564  154.3809 C   0  0  0  0  0  0  0  0  0  0  0  0
  150.3239  132.1745  153.4011 C   0  0  0  0  0  0  0  0  0  0  0  0
  152.3837  131.1786  154.3533 N   0  0  0  0  0  0  0  0  0  0  0  0
  153.3868  131.1761  155.1461 C   0  0  0  0  0  0  0  0  0  0  0  0
  154.3563  130.0142  155.1089 C   0  0  0  0  0  0  0  0  0  0  0  0
  153.6547  132.1799  156.0491 N   0  5  0  0  0  0  0  0  0  0  0  0
  152.8218  133.2553  156.1444 C   0  0  0  0  0  0  0  0  0  0  0  0
  153.0197  134.1630  156.9510 O   0  0  0  0  0  0  0  0  0  0  0  0
  151.9328  140.1341  155.2469 C   0  0  0  0  0  0  0  0  0  0  0  0
  151.6806  141.0899  156.4247 C   0  0  0  0  0  0  0  0  0  0  0  0
  150.2976  146.3018  159.1302 H   0  0  0  0  0  0  0  0  0  0  0  0
  149.5396  145.3418  157.8601 H   0  0  0  0  0  0  0  0  0  0  0  0
  151.1109  146.1130  157.5764 H   0  0  0  0  0  0  0  0  0  0  0  0
  151.8365  143.9987  156.9184 H   0  0  0  0  0  0  0  0  0  0  0  0
  152.2362  142.8448  158.1810 H   0  0  0  0  0  0  0  0  0  0  0  0
  149.9510  142.1093  158.3726 H   0  0  0  0  0  0  0  0  0  0  0  0
  149.3554  143.3312  157.2884 H   0  0  0  0  0  0  0  0  0  0  0  0
  149.3469  140.1324  157.3131 H   0  0  0  0  0  0  0  0  0  0  0  0
  148.3373  141.1418  156.3041 H   0  0  0  0  0  0  0  0  0  0  0  0
  148.6815  138.9457  155.2514 H   0  0  0  0  0  0  0  0  0  0  0  0
  149.3082  140.2393  154.2567 H   0  0  0  0  0  0  0  0  0  0  0  0
  150.9309  138.4387  156.1023 H   0  0  0  0  0  0  0  0  0  0  0  0
  150.4184  138.4418  153.1499 H   0  0  0  0  0  0  0  0  0  0  0  0
  152.0591  138.0826  153.6591 H   0  0  0  0  0  0  0  0  0  0  0  0
  149.6848  136.4483  154.0375 H   0  0  0  0  0  0  0  0  0  0  0  0
  150.2532  134.5212  156.2921 H   0  0  0  0  0  0  0  0  0  0  0  0
  149.8720  134.3724  154.6190 H   0  0  0  0  0  0  0  0  0  0  0  0
  149.3732  132.1436  153.9331 H   0  0  0  0  0  0  0  0  0  0  0  0
  150.3897  131.2753  152.7878 H   0  0  0  0  0  0  0  0  0  0  0  0
  150.3212  133.0344  152.7317 H   0  0  0  0  0  0  0  0  0  0  0  0
  154.5915  129.6797  156.1199 H   0  0  0  0  0  0  0  0  0  0  0  0
  155.2831  130.3138  154.6190 H   0  0  0  0  0  0  0  0  0  0  0  0
  153.9353  129.1698  154.5617 H   0  0  0  0  0  0  0  0  0  0  0  0
  152.9243  139.6918  155.3469 H   0  0  0  0  0  0  0  0  0  0  0  0
  151.9383  140.6986  154.3133 H   0  0  0  0  0  0  0  0  0  0  0  0
  152.4534  141.8595  156.4198 H   0  0  0  0  0  0  0  0  0  0  0  0
  151.7948  140.5464  157.3641 H   0  0  0  0  0  0  0  0  0  0  0  0
  1  2  1  0  0  0  0
  1 25  1  0  0  0  0
  1 26  1  0  0  0  0
  1 27  1  0  0  0  0
  2  3  1  0  0  0  0
  3  4  1  0  0  0  0
  3 28  1  0  0  0  0
  3 29  1  0  0  0  0
  4  5  1  0  0  0  0
  4 30  1  0  0  0  0
  4 31  1  0  0  0  0
  5 24  1  0  0  0  0
  5  6  1  0  0  0  0
  6  7  1  0  0  0  0
  6 32  1  0  0  0  0
  6 33  1  0  0  0  0
  7  8  1  0  0  0  0
  7 34  1  0  0  0  0
  7 35  1  0  0  0  0
  8  9  1  0  0  0  0
  8 23  1  0  0  0  0
  8 36  1  0  0  0  0
  9 10  1  0  0  0  0
  9 37  1  0  0  0  0
  9 38  1  0  0  0  0
 10 11  1  0  0  0  0
 10 39  1  0  0  0  0
 11 12  2  0  0  0  0
 11 13  1  0  0  0  0
 13 14  1  0  0  0  0
 13 40  1  0  0  0  0
 13 41  1  0  0  0  0
 14 21  1  0  0  0  0
 14 15  2  0  0  0  0
 15 16  1  0  0  0  0
 15 17  1  0  0  0  0
 16 42  1  0  0  0  0
 16 43  1  0  0  0  0
 16 44  1  0  0  0  0
 17 18  2  0  0  0  0
 18 19  1  0  0  0  0
 18 20  1  0  0  0  0
 19 45  1  0  0  0  0
 19 46  1  0  0  0  0
 19 47  1  0  0  0  0
 20 21  1  0  0  0  0
 21 22  2  0  0  0  0
 23 24  1  0  0  0  0
 23 48  1  0  0  0  0
 23 49  1  0  0  0  0
 24 50  1  0  0  0  0
 24 51  1  0  0  0  0
M  CHG  1  20  -1
M  END
> <s_m_source_file>
AV-unprocessed.smi

> <i_m_source_file_index>
1041

> <i_lp_mmshare_version>
43012

> <i_f3d_flags>
0

> <s_epik_input>
W0NIM11PW0NIMl1bQ0gyXU4xW0NIMl1bQ0gyXVtDSF0oW0NIMl1bQ0gyXTEpW0NIMl1bTkhdQyg9TylbQ0gyXWMyYyhbQ0gzXSluYyhbQ0gzXSlbbkhdYzI9Tw==

> <s_epik_cmdline>
J2VwaWtfcHl0aG9uJywgJy1waCcsICc3LjAnLCAnLXRuJywgJzgnLCAnLW1hJywgJzIwMCcsICctbWV0YWxfYmluZGluZycsICctaW1hZScsICc8aW5maWxlLm1hZT4nLCAnLW9tYWUnLCAnPG91dGZpbGUubWFlPic=

> <r_lp_tautomer_probability>
0.839158

> <r_epik_Ionization_Penalty>
9.04559

> <r_epik_Ionization_Penalty_Charging>
6.70107e-08

> <r_epik_Ionization_Penalty_Neutral>
9.04559

> <r_epik_State_Penalty>
7.10582

> <r_epik_Charging_Adjusted_Penalty>
7.10582

> <i_epik_Tot_Q>
-1

> <i_epik_Tot_abs_Q>
1

> <r_epik_Metal_State_Penalty>
3.46994

> <b_epik_Metal_Only>
1

> <s_lp_Force_Field>
OPLS_2005

> <r_lp_Energy>
32.0623

> <b_lp_Chiralities_Consistent>
1

> <s_lp_Variant>
AV-unprocessed.smi:1041-8

> <Gold.Version>
5.8.1

> <Gold.Id.Protein>
6NUR|6NUR_protein|mol2

> <Gold.PLP.Fitness>
48.9078

> <Gold.PLP.PLP>
-44.9542

> <Gold.PLP.part.hbond>
-3.6755

> <Gold.PLP.part.metal>
0.0000

> <Gold.PLP.part.buried>
-6.3442

> <Gold.PLP.part.nonpolar>
-36.2670

> <Gold.PLP.part.repulsive>
0.2419

> <Gold.PLP.ligand.clash>
0.0000

> <Gold.PLP.ligand.torsion>
1.1627

> <Gold.PLP.Chemscore.Hbond>
2.0739

> <Gold.PLP.Chemscore.CHOScore>
0.0000

> <Gold.PLP.Chemscore.Metal>
0.0000

> <Gold.Chemscore.Hbonds>
donor molecule, donor type, donor heavy atom, donor atom, acceptor molecule, acceptor atom, score
      L1  H    10    39       P1  7948  0.19

> <Gold.PLP.Chemscore.Internal.Correction>
0.0573

> <Gold.Rescore>
     Score         DG    S(hbond)    S(metal)    S(lipo)     H(rot)  DE(clash)    DE(int)     intcor
     15.02     -16.17       1.83        0.00      89.12       2.28       0.04       1.12       ----

> <Gold.Chemscore.Fitness>
15.0161

> <Gold.Chemscore.DG>
-16.1723

> <Gold.Chemscore.ZeroCoef>
-5.4800

> <Gold.Chemscore.Hbond>
1.8281

> <Gold.Chemscore.Metal>
0.0000

> <Gold.Chemscore.Lipo>
89.1240

> <Gold.Chemscore.Internal_Hbond>
0.0000

> <Gold.Chemscore.DEClash>
0.0351

> <Gold.Chemscore.DEInternal>
1.1211

> <Gold.Chemscore.Rot>
2.2816

> <Gold.Chemscore.Internal.Correction>
   9.000000E+99

> <Gold.Chemscore.Hbonds>
donor molecule, donor type, donor heavy atom, donor atom, acceptor molecule, acceptor atom, score
      L1  H    10    39       P1  7948  0.13

> <Gold.Chemscore.Hbond.Weighted>
-6.1057

> <Gold.Chemscore.Metal.Weighted>
-0.0000

> <Gold.Chemscore.Lipo.Weighted>
-10.4275

> <Gold.Chemscore.Internal_Hbond.Weighted>
0.0000

> <Gold.Chemscore.DEClash.Weighted>
0.0351

> <Gold.Chemscore.DEInternal.Weighted>
1.1211

> <Gold.Chemscore.Rot.Weighted>
5.8409

> <Gold.Chemscore.Internal.Correction.Weighted>
   9.000000E+99

> <Gold.Protein.RotatedTorsions>
[ 6907 6896 6895 6894 ] final  -15.48 input  -60.11 | X-H torsion
[ 7974 7965 7964 7962 ] final   33.20 input  175.53 | X-H torsion
[ 8008 7997 7996 7995 ] final -132.85 input   59.86 | X-H torsion
[ 10167 10162 10161 10158 ] final   71.38 input  -65.29 | X-H torsion
[ 10718 10713 10712 10709 ] final -173.18 input   66.30 | X-H torsion
[ 10763 10752 10751 10750 ] final  175.15 input  -60.55 | X-H torsion
[ 11005 11000 10999 10996 ] final  178.54 input  -57.11 | X-H torsion

> <Gold.Protein.ActiveResidues>
 VAL166  LYS551  ARG553  GLY616  TRP617  ASP618  TYR619  PRO620  LYS621  CYS622 
 ASP623  PHE694  ASN695  SER759  ASP760  ASP761  ALA762  ILE779  LEU786  VAL792 
 PHE793  MET794  SER795  GLU796  ALA797  LYS798  CYS799  TRP800  GLU811  SER814 

> <Gold.Protein.RotatedAtoms>
  151.3233  135.0824  159.9313 H   0  0  0  0  0  0  0  0  0  0  0  0  # atno 6907 bound_to 6896
  152.5251  133.9616  159.7730 H   0  0  0  0  0  0  0  0  0  0  0  0  # atno 6908 bound_to 6896
  150.9941  133.6068  159.2734 H   0  0  0  0  0  0  0  0  0  0  0  0  # atno 6909 bound_to 6896
  146.1436  139.6427  142.9146 H   0  0  0  0  0  0  0  0  0  0  0  0  # atno 7974 bound_to 7965
  155.3357  140.0469  157.3044 H   0  0  0  0  0  0  0  0  0  0  0  0  # atno 8008 bound_to 7997
  154.5304  140.2255  155.8780 H   0  0  0  0  0  0  0  0  0  0  0  0  # atno 8009 bound_to 7997
  156.1782  140.3080  155.9106 H   0  0  0  0  0  0  0  0  0  0  0  0  # atno 8010 bound_to 7997
  140.0467  144.5345  150.7393 H   0  0  0  0  0  0  0  0  0  0  0  0  # atno 10167 bound_to 10162
  156.7665  130.9433  151.3119 H   0  0  0  0  0  0  0  0  0  0  0  0  # atno 10718 bound_to 10713
  154.4637  135.2768  155.1694 H   0  0  0  0  0  0  0  0  0  0  0  0  # atno 10763 bound_to 10752
  154.3471  135.6158  153.5628 H   0  0  0  0  0  0  0  0  0  0  0  0  # atno 10764 bound_to 10752
  152.9857  135.5802  154.5004 H   0  0  0  0  0  0  0  0  0  0  0  0  # atno 10765 bound_to 10752
  140.3963  134.6817  157.4536 H   0  0  0  0  0  0  0  0  0  0  0  0  # atno 11005 bound_to 11000
  145.4989  141.0438  143.2551 LP  0  0  0  0  0  0  0  0  0  0  0  0  # atno 17320 bound_to 7965
  144.7821  139.6505  143.7150 LP  0  0  0  0  0  0  0  0  0  0  0  0  # atno 17321 bound_to 7965
  140.7235  143.2613  151.4198 LP  0  0  0  0  0  0  0  0  0  0  0  0  # atno 17342 bound_to 10162
  139.5979  144.1358  152.2165 LP  0  0  0  0  0  0  0  0  0  0  0  0  # atno 17343 bound_to 10162
  157.6711  130.9051  150.0042 LP  0  0  0  0  0  0  0  0  0  0  0  0  # atno 17370 bound_to 10713
  156.1305  130.3643  149.9739 LP  0  0  0  0  0  0  0  0  0  0  0  0  # atno 17371 bound_to 10713
  140.0369  134.6323  155.9031 LP  0  0  0  0  0  0  0  0  0  0  0  0  # atno 17394 bound_to 11000
  141.1873  133.6559  156.5275 LP  0  0  0  0  0  0  0  0  0  0  0  0  # atno 17395 bound_to 11000

$$$$
