AV-unprocessed.smi:2528|AV-procd|sdf|9959|dock4
  -GOLD-   2272014 03D 1   1.00000     0.00000
 Structure written by MMmdl.
 43 45  0  0  0  0  0  0  0  0  1 V2000
  151.6669  135.9785  155.9631 O   0  0  0  0  0  0  0  0  0  0  0  0
  150.8747  136.0721  155.0248 C   0  0  0  0  0  0  0  0  0  0  0  0
  150.7656  137.1656  154.2571 N   0  0  0  0  0  0  0  0  0  0  0  0
  151.5467  138.3865  154.4234 C   0  0  0  0  0  0  0  0  0  0  0  0
  151.0582  139.2134  155.6244 C   0  0  1  0  0  0  0  0  0  0  0  0
  152.1704  139.4251  156.6684 C   0  0  0  0  0  0  0  0  0  0  0  0
  151.7287  140.2724  157.7690 N   0  0  0  0  0  0  0  0  0  0  0  0
  152.7967  140.4740  158.7468 C   0  0  0  0  0  0  0  0  0  0  0  0
  152.3450  141.3343  159.9375 C   0  0  0  0  0  0  0  0  0  0  0  0
  151.8144  142.6883  159.4451 C   0  0  0  0  0  0  0  0  0  0  0  0
  150.7309  142.4731  158.3772 C   0  0  0  0  0  0  0  0  0  0  0  0
  151.2415  141.5535  157.2486 C   0  0  2  0  0  0  0  0  0  0  0  0
  150.1441  141.3343  156.1873 C   0  0  0  0  0  0  0  0  0  0  0  0
  150.6337  140.4894  155.1514 O   0  0  0  0  0  0  0  0  0  0  0  0
  150.0120  135.1168  154.6358 N   0  0  0  0  0  0  0  0  0  0  0  0
  149.8518  133.8084  155.1651 C   0  0  0  0  0  0  0  0  0  0  0  0
  149.2881  132.8674  154.2738 C   0  0  0  0  0  0  0  0  0  0  0  0
  149.0972  131.5381  154.6983 C   0  0  0  0  0  0  0  0  0  0  0  0
  149.4748  131.1832  156.0055 C   0  0  0  0  0  0  0  0  0  0  0  0
  150.0267  132.1810  156.8299 C   0  0  0  0  0  0  0  0  0  0  0  0
  150.2110  133.4555  156.4250 N   0  0  0  0  0  0  0  0  0  0  0  0
  150.0849  137.1612  153.5119 H   0  0  0  0  0  0  0  0  0  0  0  0
  152.6029  138.1371  154.5387 H   0  0  0  0  0  0  0  0  0  0  0  0
  151.4662  138.9735  153.5080 H   0  0  0  0  0  0  0  0  0  0  0  0
  150.2152  138.7058  156.0972 H   0  0  0  0  0  0  0  0  0  0  0  0
  152.4921  138.4580  157.0571 H   0  0  0  0  0  0  0  0  0  0  0  0
  153.0411  139.8717  156.1851 H   0  0  0  0  0  0  0  0  0  0  0  0
  153.1413  139.5078  159.1173 H   0  0  0  0  0  0  0  0  0  0  0  0
  153.6557  140.9439  158.2652 H   0  0  0  0  0  0  0  0  0  0  0  0
  151.5640  140.8122  160.4919 H   0  0  0  0  0  0  0  0  0  0  0  0
  153.1734  141.4838  160.6302 H   0  0  0  0  0  0  0  0  0  0  0  0
  151.4156  143.2663  160.2791 H   0  0  0  0  0  0  0  0  0  0  0  0
  152.6342  143.2711  159.0231 H   0  0  0  0  0  0  0  0  0  0  0  0
  149.8469  142.0327  158.8407 H   0  0  0  0  0  0  0  0  0  0  0  0
  150.4205  143.4352  157.9685 H   0  0  0  0  0  0  0  0  0  0  0  0
  152.0721  142.0634  156.7566 H   0  0  0  0  0  0  0  0  0  0  0  0
  149.2521  140.8901  156.6321 H   0  0  0  0  0  0  0  0  0  0  0  0
  149.8425  142.2855  155.7482 H   0  0  0  0  0  0  0  0  0  0  0  0
  149.4104  135.3470  153.8591 H   0  0  0  0  0  0  0  0  0  0  0  0
  149.0047  133.1564  153.2720 H   0  0  0  0  0  0  0  0  0  0  0  0
  148.6699  130.8040  154.0313 H   0  0  0  0  0  0  0  0  0  0  0  0
  149.3456  130.1736  156.3667 H   0  0  0  0  0  0  0  0  0  0  0  0
  150.3295  131.9498  157.8404 H   0  0  0  0  0  0  0  0  0  0  0  0
  1  2  2  0  0  0  0
  2  3  1  0  0  0  0
  2 15  1  0  0  0  0
  3  4  1  0  0  0  0
  3 22  1  0  0  0  0
  4  5  1  0  0  0  0
  4 23  1  0  0  0  0
  4 24  1  0  0  0  0
  5 14  1  0  0  0  0
  5  6  1  0  0  0  0
  5 25  1  0  0  0  0
  6  7  1  0  0  0  0
  6 26  1  0  0  0  0
  6 27  1  0  0  0  0
  7 12  1  0  0  0  0
  7  8  1  0  0  0  0
  8  9  1  0  0  0  0
  8 28  1  0  0  0  0
  8 29  1  0  0  0  0
  9 10  1  0  0  0  0
  9 30  1  0  0  0  0
  9 31  1  0  0  0  0
 10 11  1  0  0  0  0
 10 32  1  0  0  0  0
 10 33  1  0  0  0  0
 11 12  1  0  0  0  0
 11 34  1  0  0  0  0
 11 35  1  0  0  0  0
 12 13  1  0  0  0  0
 12 36  1  0  0  0  0
 13 14  1  0  0  0  0
 13 37  1  0  0  0  0
 13 38  1  0  0  0  0
 15 16  1  0  0  0  0
 15 39  1  0  0  0  0
 16 21  1  0  0  0  0
 16 17  2  0  0  0  0
 17 18  1  0  0  0  0
 17 40  1  0  0  0  0
 18 19  2  0  0  0  0
 18 41  1  0  0  0  0
 19 20  1  0  0  0  0
 19 42  1  0  0  0  0
 20 21  2  0  0  0  0
 20 43  1  0  0  0  0
M  END
> <s_m_source_file>
AV-unprocessed.smi

> <i_m_source_file_index>
2528

> <i_lp_mmshare_version>
43012

> <i_f3d_flags>
0

> <s_epik_input>
bjFbY0hdW2NIXVtjSF1bY0hdYzFbTkhdQyg9TylbTkhdW0NIMl1bQ0BIXShbQ0gyXTIpT1tDSDJdW0NAQEhdKE4yMylbQ0gyXVtDSDJdW0NIMl1bQ0gyXTM=

> <s_epik_cmdline>
J2VwaWtfcHl0aG9uJywgJy1waCcsICc3LjAnLCAnLXRuJywgJzgnLCAnLW1hJywgJzIwMCcsICctbWV0YWxfYmluZGluZycsICctaW1hZScsICc8aW5maWxlLm1hZT4nLCAnLW9tYWUnLCAnPG91dGZpbGUubWFlPic=

> <r_epik_Ionization_Penalty>
1.14192

> <r_epik_Ionization_Penalty_Charging>
0

> <r_epik_Ionization_Penalty_Neutral>
1.14192

> <r_epik_State_Penalty>
1.20248

> <r_epik_Charging_Adjusted_Penalty>
1.20248

> <i_epik_Tot_Q>
0

> <i_epik_Tot_abs_Q>
0

> <r_epik_Metal_State_Penalty>
1.20248

> <b_epik_Metal_Only>
0

> <s_lp_Force_Field>
OPLS_2005

> <r_lp_Energy>
35.0124

> <b_lp_Chiralities_Consistent>
1

> <s_lp_Variant>
AV-unprocessed.smi:2528-12

> <Gold.Version>
5.8.1

> <Gold.Id.Protein>
6NUR|6NUR_protein|mol2

> <Gold.PLP.Fitness>
46.7315

> <Gold.PLP.PLP>
-36.7882

> <Gold.PLP.part.hbond>
-5.3891

> <Gold.PLP.part.metal>
0.0000

> <Gold.PLP.part.buried>
-3.6013

> <Gold.PLP.part.nonpolar>
-28.7201

> <Gold.PLP.part.repulsive>
0.2686

> <Gold.PLP.ligand.clash>
0.0000

> <Gold.PLP.ligand.torsion>
0.9678

> <Gold.PLP.Chemscore.Hbond>
3.9595

> <Gold.PLP.Chemscore.CHOScore>
0.0000

> <Gold.PLP.Chemscore.Metal>
0.0000

> <Gold.Chemscore.Hbonds>
donor molecule, donor type, donor heavy atom, donor atom, acceptor molecule, acceptor atom, score
      L1  H     3    22       P1  7948  0.67
      L1  H    15    39       P1  7948  0.59
      P1  H  7989  7998       L1    14  1.00
      P1  H 10752 10763       L1     1  0.80

> <Gold.PLP.Chemscore.Internal.Correction>
0.0004

> <Gold.Rescore>
     Score         DG    S(hbond)    S(metal)    S(lipo)     H(rot)  DE(clash)    DE(int)     intcor
     18.23     -21.16       2.68        0.00      85.25       1.27       0.82       2.10       ----

> <Gold.Chemscore.Fitness>
18.2348

> <Gold.Chemscore.DG>
-21.1562

> <Gold.Chemscore.ZeroCoef>
-5.4800

> <Gold.Chemscore.Hbond>
2.6805

> <Gold.Chemscore.Metal>
0.0000

> <Gold.Chemscore.Lipo>
85.2453

> <Gold.Chemscore.Internal_Hbond>
0.0000

> <Gold.Chemscore.DEClash>
0.8199

> <Gold.Chemscore.DEInternal>
2.1015

> <Gold.Chemscore.Rot>
1.2696

> <Gold.Chemscore.Internal.Correction>
   9.000000E+99

> <Gold.Chemscore.Hbonds>
donor molecule, donor type, donor heavy atom, donor atom, acceptor molecule, acceptor atom, score
      L1  H     3    22       P1  7948  0.17
      L1  H    15    39       P1  7948  0.17
      P1  H  7989  7998       L1    14  0.61
      P1  H 10752 10763       L1     1  0.12

> <Gold.Chemscore.Hbond.Weighted>
-8.9527

> <Gold.Chemscore.Metal.Weighted>
-0.0000

> <Gold.Chemscore.Lipo.Weighted>
-9.9737

> <Gold.Chemscore.Internal_Hbond.Weighted>
0.0000

> <Gold.Chemscore.DEClash.Weighted>
0.8199

> <Gold.Chemscore.DEInternal.Weighted>
2.1015

> <Gold.Chemscore.Rot.Weighted>
3.2502

> <Gold.Chemscore.Internal.Correction.Weighted>
   9.000000E+99

> <Gold.Protein.RotatedTorsions>
[ 6907 6896 6895 6894 ] final  143.01 input  -60.11 | X-H torsion
[ 7974 7965 7964 7962 ] final  101.03 input  175.53 | X-H torsion
[ 8008 7997 7996 7995 ] final  -49.18 input   59.86 | X-H torsion
[ 10167 10162 10161 10158 ] final -144.32 input  -65.29 | X-H torsion
[ 10718 10713 10712 10709 ] final -129.29 input   66.30 | X-H torsion
[ 10763 10752 10751 10750 ] final   83.36 input  -60.55 | X-H torsion
[ 11005 11000 10999 10996 ] final  -76.55 input  -57.11 | X-H torsion

> <Gold.Protein.ActiveResidues>
 VAL166  LYS551  ARG553  GLY616  TRP617  ASP618  TYR619  PRO620  LYS621  CYS622 
 ASP623  PHE694  ASN695  SER759  ASP760  ASP761  ALA762  ILE779  LEU786  VAL792 
 PHE793  MET794  SER795  GLU796  ALA797  LYS798  CYS799  TRP800  GLU811  SER814 

> <Gold.Protein.RotatedAtoms>
  152.2116  133.4916  159.5113 H   0  0  0  0  0  0  0  0  0  0  0  0  # atno 6907 bound_to 6896
  150.6991  134.1459  159.4131 H   0  0  0  0  0  0  0  0  0  0  0  0  # atno 6908 bound_to 6896
  151.9378  135.0227  160.0584 H   0  0  0  0  0  0  0  0  0  0  0  0  # atno 6909 bound_to 6896
  145.3777  139.2386  143.3421 H   0  0  0  0  0  0  0  0  0  0  0  0  # atno 7974 bound_to 7965
  154.4040  140.1303  156.4461 H   0  0  0  0  0  0  0  0  0  0  0  0  # atno 8008 bound_to 7997
  155.7412  140.3490  155.5085 H   0  0  0  0  0  0  0  0  0  0  0  0  # atno 8009 bound_to 7997
  155.9037  140.1024  157.1321 H   0  0  0  0  0  0  0  0  0  0  0  0  # atno 8010 bound_to 7997
  139.7910  143.7966  152.2650 H   0  0  0  0  0  0  0  0  0  0  0  0  # atno 10167 bound_to 10162
  156.2033  130.6871  151.0564 H   0  0  0  0  0  0  0  0  0  0  0  0  # atno 10718 bound_to 10713
  153.1285  135.4694  154.9310 H   0  0  0  0  0  0  0  0  0  0  0  0  # atno 10763 bound_to 10752
  154.7642  135.3140  154.8321 H   0  0  0  0  0  0  0  0  0  0  0  0  # atno 10764 bound_to 10752
  153.8869  135.6888  153.4817 H   0  0  0  0  0  0  0  0  0  0  0  0  # atno 10765 bound_to 10752
  141.1654  133.6988  156.7685 H   0  0  0  0  0  0  0  0  0  0  0  0  # atno 11005 bound_to 11000
  146.2856  140.4439  142.8759 LP  0  0  0  0  0  0  0  0  0  0  0  0  # atno 17320 bound_to 7965
  144.8530  140.7029  143.6156 LP  0  0  0  0  0  0  0  0  0  0  0  0  # atno 17321 bound_to 7965
  139.8057  144.7356  150.9765 LP  0  0  0  0  0  0  0  0  0  0  0  0  # atno 17342 bound_to 10162
  140.7820  143.4300  151.0708 LP  0  0  0  0  0  0  0  0  0  0  0  0  # atno 17343 bound_to 10162
  157.6998  131.0780  150.6856 LP  0  0  0  0  0  0  0  0  0  0  0  0  # atno 17370 bound_to 10713
  156.6914  130.4596  149.5598 LP  0  0  0  0  0  0  0  0  0  0  0  0  # atno 17371 bound_to 10713
  140.2481  134.8562  157.3640 LP  0  0  0  0  0  0  0  0  0  0  0  0  # atno 17394 bound_to 11000
  140.1729  134.4586  155.7820 LP  0  0  0  0  0  0  0  0  0  0  0  0  # atno 17395 bound_to 11000

$$$$
