AV-unprocessed.smi:2331|AV-procd|sdf|9315|dock3
  -GOLD-   2272012533D 1   1.00000     0.00000
 Structure written by MMmdl.
 49 50  0  0  0  0  0  0  0  0  1 V2000
  151.3883  141.7446  157.6168 C   0  0  0  0  0  0  0  0  0  0  0  0
  151.1837  143.0047  158.4834 C   0  0  0  0  0  0  0  0  0  0  0  0
  151.6294  144.2207  157.6357 C   0  0  0  0  0  0  0  0  0  0  0  0
  149.6735  143.1581  158.7998 C   0  0  0  0  0  0  0  0  0  0  0  0
  148.8400  142.7888  157.6595 N   0  0  0  0  0  0  0  0  0  0  0  0
  147.6628  142.1467  157.7196 C   0  0  0  0  0  0  0  0  0  0  0  0
  147.1331  141.8255  158.7839 O   0  0  0  0  0  0  0  0  0  0  0  0
  147.0839  141.9574  156.5091 N   0  0  0  0  0  0  0  0  0  0  0  0
  145.6340  142.0464  156.2837 C   0  0  0  0  0  0  0  0  0  0  0  0
  145.4249  142.1641  154.7754 C   0  0  0  0  0  0  0  0  0  0  0  0
  146.7758  142.6155  154.2387 C   0  0  0  0  0  0  0  0  0  0  0  0
  147.8074  142.0429  155.2277 C   0  0  2  0  0  0  0  0  0  0  0  0
  148.4791  140.7002  154.7738 C   0  0  0  0  0  0  0  0  0  0  0  0
  149.4650  140.2021  155.8493 C   0  0  0  0  0  0  0  0  0  0  0  0
  147.4903  139.5637  154.4457 C   0  0  0  0  0  0  0  0  0  0  0  0
  149.2479  140.9145  153.6052 O   0  0  0  0  0  0  0  0  0  0  0  0
  151.9916  142.8685  159.7891 C   0  0  0  0  0  0  0  0  0  0  0  0
  151.9537  143.8384  160.8212 C   0  0  0  0  0  0  0  0  0  0  0  0
  152.7101  143.6234  161.9905 C   0  0  0  0  0  0  0  0  0  0  0  0
  153.4794  142.5338  162.1892 N   0  0  0  0  0  0  0  0  0  0  0  0
  153.5180  141.6085  161.2092 C   0  0  0  0  0  0  0  0  0  0  0  0
  152.7988  141.7269  160.0038 C   0  0  0  0  0  0  0  0  0  0  0  0
  150.8464  141.8198  156.6733 H   0  0  0  0  0  0  0  0  0  0  0  0
  151.0356  140.8415  158.1152 H   0  0  0  0  0  0  0  0  0  0  0  0
  152.4421  141.5960  157.3783 H   0  0  0  0  0  0  0  0  0  0  0  0
  151.0492  144.2933  156.7151 H   0  0  0  0  0  0  0  0  0  0  0  0
  152.6781  144.1449  157.3459 H   0  0  0  0  0  0  0  0  0  0  0  0
  151.4962  145.1633  158.1677 H   0  0  0  0  0  0  0  0  0  0  0  0
  149.4150  142.5641  159.6783 H   0  0  0  0  0  0  0  0  0  0  0  0
  149.4390  144.1924  159.0540 H   0  0  0  0  0  0  0  0  0  0  0  0
  149.1882  143.0419  156.7461 H   0  0  0  0  0  0  0  0  0  0  0  0
  145.1154  141.1745  156.6852 H   0  0  0  0  0  0  0  0  0  0  0  0
  145.2357  142.9333  156.7803 H   0  0  0  0  0  0  0  0  0  0  0  0
  145.1667  141.1889  154.3616 H   0  0  0  0  0  0  0  0  0  0  0  0
  144.6211  142.8533  154.5157 H   0  0  0  0  0  0  0  0  0  0  0  0
  146.9297  142.3148  153.2030 H   0  0  0  0  0  0  0  0  0  0  0  0
  146.8211  143.7051  154.2655 H   0  0  0  0  0  0  0  0  0  0  0  0
  148.6027  142.7840  155.3297 H   0  0  0  0  0  0  0  0  0  0  0  0
  148.9513  140.0090  156.7916 H   0  0  0  0  0  0  0  0  0  0  0  0
  150.2569  140.9228  156.0508 H   0  0  0  0  0  0  0  0  0  0  0  0
  149.9485  139.2723  155.5470 H   0  0  0  0  0  0  0  0  0  0  0  0
  146.8559  139.3330  155.3016 H   0  0  0  0  0  0  0  0  0  0  0  0
  148.0158  138.6462  154.1786 H   0  0  0  0  0  0  0  0  0  0  0  0
  146.8449  139.8124  153.6030 H   0  0  0  0  0  0  0  0  0  0  0  0
  149.1298  140.1756  153.0282 H   0  0  0  0  0  0  0  0  0  0  0  0
  151.3624  144.7377  160.7479 H   0  0  0  0  0  0  0  0  0  0  0  0
  152.6938  144.3486  162.7905 H   0  0  0  0  0  0  0  0  0  0  0  0
  154.1394  140.7441  161.3911 H   0  0  0  0  0  0  0  0  0  0  0  0
  152.8676  140.9448  159.2625 H   0  0  0  0  0  0  0  0  0  0  0  0
  1  2  1  0  0  0  0
  1 23  1  0  0  0  0
  1 24  1  0  0  0  0
  1 25  1  0  0  0  0
  2  3  1  0  0  0  0
  2  4  1  0  0  0  0
  2 17  1  0  0  0  0
  3 26  1  0  0  0  0
  3 27  1  0  0  0  0
  3 28  1  0  0  0  0
  4  5  1  0  0  0  0
  4 29  1  0  0  0  0
  4 30  1  0  0  0  0
  5  6  1  0  0  0  0
  5 31  1  0  0  0  0
  6  7  2  0  0  0  0
  6  8  1  0  0  0  0
  8 12  1  0  0  0  0
  8  9  1  0  0  0  0
  9 10  1  0  0  0  0
  9 32  1  0  0  0  0
  9 33  1  0  0  0  0
 10 11  1  0  0  0  0
 10 34  1  0  0  0  0
 10 35  1  0  0  0  0
 11 12  1  0  0  0  0
 11 36  1  0  0  0  0
 11 37  1  0  0  0  0
 12 13  1  0  0  0  0
 12 38  1  0  0  0  0
 13 14  1  0  0  0  0
 13 15  1  0  0  0  0
 13 16  1  0  0  0  0
 14 39  1  0  0  0  0
 14 40  1  0  0  0  0
 14 41  1  0  0  0  0
 15 42  1  0  0  0  0
 15 43  1  0  0  0  0
 15 44  1  0  0  0  0
 16 45  1  0  0  0  0
 17 22  1  0  0  0  0
 17 18  2  0  0  0  0
 18 19  1  0  0  0  0
 18 46  1  0  0  0  0
 19 20  2  0  0  0  0
 19 47  1  0  0  0  0
 20 21  1  0  0  0  0
 21 22  2  0  0  0  0
 21 48  1  0  0  0  0
 22 49  1  0  0  0  0
M  END
> <s_m_source_file>
AV-unprocessed.smi

> <i_m_source_file_index>
2331

> <i_lp_mmshare_version>
43012

> <i_f3d_flags>
0

> <s_epik_input>
W2NIXTFbY0hdbltjSF1bY0hdYzFDKFtDSDNdKShbQ0gzXSlbQ0gyXVtOSF1DKD1PKU4yW0NIMl1bQ0gyXVtDSDJdW0NASF0yQyhbQ0gzXSkoW0NIM10pW09IXQ==

> <s_epik_cmdline>
J2VwaWtfcHl0aG9uJywgJy1waCcsICc3LjAnLCAnLXRuJywgJzgnLCAnLW1hJywgJzIwMCcsICctbWV0YWxfYmluZGluZycsICctaW1hZScsICc8aW5maWxlLm1hZT4nLCAnLW9tYWUnLCAnPG91dGZpbGUubWFlPic=

> <r_epik_Ionization_Penalty>
0.0581496

> <r_epik_Ionization_Penalty_Charging>
0

> <r_epik_Ionization_Penalty_Neutral>
0.0581496

> <r_epik_State_Penalty>
0.0501956

> <r_epik_Charging_Adjusted_Penalty>
0.0501956

> <i_epik_Tot_Q>
0

> <i_epik_Tot_abs_Q>
0

> <r_epik_Metal_State_Penalty>
0.0456895

> <b_epik_Metal_Only>
0

> <s_lp_Force_Field>
OPLS_2005

> <r_lp_Energy>
50.0165

> <b_lp_Chiralities_Consistent>
1

> <s_lp_Variant>
AV-unprocessed.smi:2331-2

> <Gold.Version>
5.8.1

> <Gold.Id.Protein>
6NUR|6NUR_protein|mol2

> <Gold.PLP.Fitness>
53.0165

> <Gold.PLP.PLP>
-46.4560

> <Gold.PLP.part.hbond>
-4.9183

> <Gold.PLP.part.metal>
0.0000

> <Gold.PLP.part.buried>
-3.2429

> <Gold.PLP.part.nonpolar>
-39.1274

> <Gold.PLP.part.repulsive>
0.1412

> <Gold.PLP.ligand.clash>
0.1735

> <Gold.PLP.ligand.torsion>
0.8236

> <Gold.PLP.Chemscore.Hbond>
2.7098

> <Gold.PLP.Chemscore.CHOScore>
0.0000

> <Gold.PLP.Chemscore.Metal>
0.0000

> <Gold.Chemscore.Hbonds>
donor molecule, donor type, donor heavy atom, donor atom, acceptor molecule, acceptor atom, score
      L1  H     5    31       P1  8028  0.59
      L1  H    16    45       P1  7957  0.56
      P1  H  6934  6946       L1     7  0.36
      P1  H  7989  7998       L1    16  0.05
      P1  H  8011  8017       L1    16  0.98

> <Gold.PLP.Chemscore.Internal.Correction>
0.2519

> <Gold.Rescore>
     Score         DG    S(hbond)    S(metal)    S(lipo)     H(rot)  DE(clash)    DE(int)     intcor
     19.97     -21.68       1.89        0.00     126.89       1.94       0.89       0.81       ----

> <Gold.Chemscore.Fitness>
19.9688

> <Gold.Chemscore.DG>
-21.6752

> <Gold.Chemscore.ZeroCoef>
-5.4800

> <Gold.Chemscore.Hbond>
1.8871

> <Gold.Chemscore.Metal>
0.0000

> <Gold.Chemscore.Lipo>
126.8888

> <Gold.Chemscore.Internal_Hbond>
0.0000

> <Gold.Chemscore.DEClash>
0.8925

> <Gold.Chemscore.DEInternal>
0.8138

> <Gold.Chemscore.Rot>
1.9350

> <Gold.Chemscore.Internal.Correction>
   9.000000E+99

> <Gold.Chemscore.Hbonds>
donor molecule, donor type, donor heavy atom, donor atom, acceptor molecule, acceptor atom, score
      L1  H     5    31       P1  8028  0.54
      L1  H    16    45       P1  7957  0.56
      P1  H  6934  6946       L1     7  0.37
      P1  H  7989  7998       L1    16  0.01
      P1  H  8011  8017       L1    16  0.35

> <Gold.Chemscore.Hbond.Weighted>
-6.3028

> <Gold.Chemscore.Metal.Weighted>
-0.0000

> <Gold.Chemscore.Lipo.Weighted>
-14.8460

> <Gold.Chemscore.Internal_Hbond.Weighted>
0.0000

> <Gold.Chemscore.DEClash.Weighted>
0.8925

> <Gold.Chemscore.DEInternal.Weighted>
0.8138

> <Gold.Chemscore.Rot.Weighted>
4.9536

> <Gold.Chemscore.Internal.Correction.Weighted>
   9.000000E+99

> <Gold.Protein.RotatedTorsions>
[ 6907 6896 6895 6894 ] final   27.60 input  -60.11 | X-H torsion
[ 7974 7965 7964 7962 ] final   57.47 input  175.53 | X-H torsion
[ 8008 7997 7996 7995 ] final  178.54 input   59.86 | X-H torsion
[ 10167 10162 10161 10158 ] final -134.24 input  -65.29 | X-H torsion
[ 10718 10713 10712 10709 ] final  -62.62 input   66.30 | X-H torsion
[ 10763 10752 10751 10750 ] final  -52.78 input  -60.55 | X-H torsion
[ 11005 11000 10999 10996 ] final  176.28 input  -57.11 | X-H torsion

> <Gold.Protein.ActiveResidues>
 VAL166  LYS551  ARG553  GLY616  TRP617  ASP618  TYR619  PRO620  LYS621  CYS622 
 ASP623  PHE694  ASN695  SER759  ASP760  ASP761  ALA762  ILE779  LEU786  VAL792 
 PHE793  MET794  SER795  GLU796  ALA797  LYS798  CYS799  TRP800  GLU811  SER814 

> <Gold.Protein.RotatedAtoms>
  152.0047  134.9909  160.0566 H   0  0  0  0  0  0  0  0  0  0  0  0  # atno 6907 bound_to 6896
  152.1486  133.4503  159.4810 H   0  0  0  0  0  0  0  0  0  0  0  0  # atno 6908 bound_to 6896
  150.6873  134.2135  159.4412 H   0  0  0  0  0  0  0  0  0  0  0  0  # atno 6909 bound_to 6896
  145.9287  139.3789  143.0434 H   0  0  0  0  0  0  0  0  0  0  0  0  # atno 7974 bound_to 7965
  156.0535  140.1331  157.0023 H   0  0  0  0  0  0  0  0  0  0  0  0  # atno 8008 bound_to 7997
  154.4446  140.1006  156.6482 H   0  0  0  0  0  0  0  0  0  0  0  0  # atno 8009 bound_to 7997
  155.5487  140.3462  155.4466 H   0  0  0  0  0  0  0  0  0  0  0  0  # atno 8010 bound_to 7997
  139.8900  143.6734  152.2613 H   0  0  0  0  0  0  0  0  0  0  0  0  # atno 10167 bound_to 10162
  156.0843  130.4211  150.1161 H   0  0  0  0  0  0  0  0  0  0  0  0  # atno 10718 bound_to 10713
  154.1483  135.6494  153.4957 H   0  0  0  0  0  0  0  0  0  0  0  0  # atno 10763 bound_to 10752
  153.0145  135.5332  154.6835 H   0  0  0  0  0  0  0  0  0  0  0  0  # atno 10764 bound_to 10752
  154.6115  135.2954  155.0398 H   0  0  0  0  0  0  0  0  0  0  0  0  # atno 10765 bound_to 10752
  140.3714  134.7027  157.4394 H   0  0  0  0  0  0  0  0  0  0  0  0  # atno 11005 bound_to 11000
  145.8455  140.9557  143.0777 LP  0  0  0  0  0  0  0  0  0  0  0  0  # atno 17320 bound_to 7965
  144.6762  140.0339  143.7482 LP  0  0  0  0  0  0  0  0  0  0  0  0  # atno 17321 bound_to 7965
  139.7118  144.7619  151.1100 LP  0  0  0  0  0  0  0  0  0  0  0  0  # atno 17342 bound_to 10162
  140.7728  143.5321  150.9411 LP  0  0  0  0  0  0  0  0  0  0  0  0  # atno 17343 bound_to 10162
  156.9186  130.9675  151.3552 LP  0  0  0  0  0  0  0  0  0  0  0  0  # atno 17370 bound_to 10713
  157.5972  130.8486  149.8747 LP  0  0  0  0  0  0  0  0  0  0  0  0  # atno 17371 bound_to 10713
  140.0549  134.6078  155.8817 LP  0  0  0  0  0  0  0  0  0  0  0  0  # atno 17394 bound_to 11000
  141.1953  133.6586  156.5638 LP  0  0  0  0  0  0  0  0  0  0  0  0  # atno 17395 bound_to 11000

$$$$
