AV-unprocessed.smi:3116|AV-procd|sdf|11877|dock6
  -GOLD-   2272017263D 1   1.00000     0.00000
 Structure written by MMmdl.
 33 33  0  0  0  0  0  0  0  0  1 V2000
  152.8468  138.7300  155.2509 C   0  0  0  0  0  0  0  0  0  0  0  0
  151.8770  139.1672  156.3607 C   0  0  1  0  0  0  0  0  0  0  0  0
  152.6163  139.9327  157.3844 N   0  0  0  0  0  0  0  0  0  0  0  0
  152.0450  139.9893  158.7331 C   0  0  1  0  0  0  0  0  0  0  0  0
  152.3191  138.6531  159.4573 C   0  0  0  0  0  0  0  0  0  0  0  0
  152.6638  141.2184  159.4543 C   0  0  1  0  0  0  0  0  0  0  0  0
  154.1871  141.0796  159.6486 C   0  0  0  0  0  0  0  0  0  0  0  0
  152.3584  142.4725  158.7753 N   0  0  0  0  0  0  0  0  0  0  0  0
  152.7701  143.7456  159.1124 C   0  0  0  0  0  0  0  0  0  0  0  0
  152.2343  144.6055  158.1972 C   0  0  0  0  0  0  0  0  0  0  0  0
  151.4993  143.7552  157.3252 C   0  0  0  0  0  0  0  0  0  0  0  0
  151.5733  142.4811  157.6734 N   0  0  0  0  0  0  0  0  0  0  0  0
  150.6862  139.9316  155.7590 C   0  0  0  0  0  0  0  0  0  0  0  0
  149.8080  140.4612  156.6143 N   0  0  0  0  0  0  0  0  0  0  0  0
  150.5721  140.0598  154.5414 O   0  0  0  0  0  0  0  0  0  0  0  0
  152.3347  138.1518  154.4808 H   0  0  0  0  0  0  0  0  0  0  0  0
  153.6421  138.1015  155.6530 H   0  0  0  0  0  0  0  0  0  0  0  0
  153.3174  139.5867  154.7662 H   0  0  0  0  0  0  0  0  0  0  0  0
  151.4980  138.2543  156.8212 H   0  0  0  0  0  0  0  0  0  0  0  0
  153.5856  139.6546  157.4344 H   0  0  0  0  0  0  0  0  0  0  0  0
  150.9669  140.1439  158.6940 H   0  0  0  0  0  0  0  0  0  0  0  0
  151.8970  138.6450  160.4619 H   0  0  0  0  0  0  0  0  0  0  0  0
  153.3890  138.4626  159.5471 H   0  0  0  0  0  0  0  0  0  0  0  0
  151.8720  137.8080  158.9350 H   0  0  0  0  0  0  0  0  0  0  0  0
  152.2129  141.2917  160.4456 H   0  0  0  0  0  0  0  0  0  0  0  0
  154.4344  140.2141  160.2635 H   0  0  0  0  0  0  0  0  0  0  0  0
  154.5996  141.9582  160.1452 H   0  0  0  0  0  0  0  0  0  0  0  0
  154.7035  140.9632  158.6953 H   0  0  0  0  0  0  0  0  0  0  0  0
  153.4023  143.9322  159.9679 H   0  0  0  0  0  0  0  0  0  0  0  0
  152.3500  145.6783  158.1571 H   0  0  0  0  0  0  0  0  0  0  0  0
  150.9178  144.0242  156.4559 H   0  0  0  0  0  0  0  0  0  0  0  0
  149.0082  140.9690  156.2657 H   0  0  0  0  0  0  0  0  0  0  0  0
  149.9467  140.3479  157.6079 H   0  0  0  0  0  0  0  0  0  0  0  0
  1  2  1  0  0  0  0
  1 16  1  0  0  0  0
  1 17  1  0  0  0  0
  1 18  1  0  0  0  0
  2  3  1  0  0  0  0
  2 13  1  0  0  0  0
  2 19  1  0  0  0  0
  3  4  1  0  0  0  0
  3 20  1  0  0  0  0
  4  5  1  0  0  0  0
  4  6  1  0  0  0  0
  4 21  1  0  0  0  0
  5 22  1  0  0  0  0
  5 23  1  0  0  0  0
  5 24  1  0  0  0  0
  6  7  1  0  0  0  0
  6  8  1  0  0  0  0
  6 25  1  0  0  0  0
  7 26  1  0  0  0  0
  7 27  1  0  0  0  0
  7 28  1  0  0  0  0
  8 12  1  0  0  0  0
  8  9  1  0  0  0  0
  9 10  2  0  0  0  0
  9 29  1  0  0  0  0
 10 11  1  0  0  0  0
 10 30  1  0  0  0  0
 11 12  2  0  0  0  0
 11 31  1  0  0  0  0
 13 14  1  0  0  0  0
 13 15  2  0  0  0  0
 14 32  1  0  0  0  0
 14 33  1  0  0  0  0
M  END
> <s_m_source_file>
AV-unprocessed.smi

> <i_m_source_file_index>
3116

> <i_lp_mmshare_version>
43012

> <i_f3d_flags>
0

> <s_epik_input>
W05IMl1DKD1PKVtDQEhdKFtDSDNdKVtOSF1bQ0BIXShbQ0gzXSlbQ0BIXShbQ0gzXSluMVtjSF1bY0hdW2NIXW4x

> <s_epik_cmdline>
J2VwaWtfcHl0aG9uJywgJy1waCcsICc3LjAnLCAnLXRuJywgJzgnLCAnLW1hJywgJzIwMCcsICctbWV0YWxfYmluZGluZycsICctaW1hZScsICc8aW5maWxlLm1hZT4nLCAnLW9tYWUnLCAnPG91dGZpbGUubWFlPic=

> <r_lp_tautomer_probability>
1

> <r_epik_Ionization_Penalty>
0.865977

> <r_epik_Ionization_Penalty_Charging>
0

> <r_epik_Ionization_Penalty_Neutral>
0.865977

> <r_epik_State_Penalty>
0.901888

> <r_epik_Charging_Adjusted_Penalty>
0.901888

> <i_epik_Tot_Q>
0

> <i_epik_Tot_abs_Q>
0

> <r_epik_Metal_State_Penalty>
0.901181

> <b_epik_Metal_Only>
0

> <s_lp_Force_Field>
OPLS_2005

> <r_lp_Energy>
8.45698

> <b_lp_Chiralities_Consistent>
1

> <s_lp_Variant>
AV-unprocessed.smi:3116-16

> <Gold.Version>
5.8.1

> <Gold.Id.Protein>
6NUR|6NUR_protein|mol2

> <Gold.PLP.Fitness>
39.3453

> <Gold.PLP.PLP>
-34.3316

> <Gold.PLP.part.hbond>
-2.0000

> <Gold.PLP.part.metal>
0.0000

> <Gold.PLP.part.buried>
-3.3207

> <Gold.PLP.part.nonpolar>
-29.7590

> <Gold.PLP.part.repulsive>
0.1771

> <Gold.PLP.ligand.clash>
0.0000

> <Gold.PLP.ligand.torsion>
0.5329

> <Gold.PLP.Chemscore.Hbond>
1.0000

> <Gold.PLP.Chemscore.CHOScore>
1.0000

> <Gold.PLP.Chemscore.Metal>
0.0000

> <Gold.Chemscore.Hbonds>
donor molecule, donor type, donor heavy atom, donor atom, acceptor molecule, acceptor atom, score
      P1  H  7989  7998       L1    15  1.00
      L1  C    11    31       P1  8028  1.00

> <Gold.PLP.Chemscore.Internal.Correction>
0.0794

> <Gold.Rescore>
     Score         DG    S(hbond)    S(metal)    S(lipo)     H(rot)  DE(clash)    DE(int)     intcor
     10.83     -12.49       1.00        0.00      83.52       2.38       0.01       1.65       ----

> <Gold.Chemscore.Fitness>
10.8268

> <Gold.Chemscore.DG>
-12.4873

> <Gold.Chemscore.ZeroCoef>
-5.4800

> <Gold.Chemscore.Hbond>
0.9992

> <Gold.Chemscore.Metal>
0.0000

> <Gold.Chemscore.Lipo>
83.5219

> <Gold.Chemscore.Internal_Hbond>
0.0000

> <Gold.Chemscore.DEClash>
0.0103

> <Gold.Chemscore.DEInternal>
1.6501

> <Gold.Chemscore.Rot>
2.3836

> <Gold.Chemscore.Internal.Correction>
   9.000000E+99

> <Gold.Chemscore.Hbonds>
donor molecule, donor type, donor heavy atom, donor atom, acceptor molecule, acceptor atom, score
      P1  H  7989  7998       L1    15  1.00

> <Gold.Chemscore.Hbond.Weighted>
-3.3372

> <Gold.Chemscore.Metal.Weighted>
-0.0000

> <Gold.Chemscore.Lipo.Weighted>
-9.7721

> <Gold.Chemscore.Internal_Hbond.Weighted>
0.0000

> <Gold.Chemscore.DEClash.Weighted>
0.0103

> <Gold.Chemscore.DEInternal.Weighted>
1.6501

> <Gold.Chemscore.Rot.Weighted>
6.1020

> <Gold.Chemscore.Internal.Correction.Weighted>
   9.000000E+99

> <Gold.Protein.RotatedTorsions>
[ 6907 6896 6895 6894 ] final   77.41 input  -60.11 | X-H torsion
[ 7974 7965 7964 7962 ] final  -33.71 input  175.53 | X-H torsion
[ 8008 7997 7996 7995 ] final    5.91 input   59.86 | X-H torsion
[ 10167 10162 10161 10158 ] final   53.30 input  -65.29 | X-H torsion
[ 10718 10713 10712 10709 ] final  -29.50 input   66.30 | X-H torsion
[ 10763 10752 10751 10750 ] final  -92.83 input  -60.55 | X-H torsion
[ 11005 11000 10999 10996 ] final -130.62 input  -57.11 | X-H torsion

> <Gold.Protein.ActiveResidues>
 VAL166  LYS551  ARG553  GLY616  TRP617  ASP618  TYR619  PRO620  LYS621  CYS622 
 ASP623  PHE694  ASN695  SER759  ASP760  ASP761  ALA762  ILE779  LEU786  VAL792 
 PHE793  MET794  SER795  GLU796  ALA797  LYS798  CYS799  TRP800  GLU811  SER814 

> <Gold.Protein.RotatedAtoms>
  152.5116  134.3822  159.9354 H   0  0  0  0  0  0  0  0  0  0  0  0  # atno 6907 bound_to 6896
  151.3779  133.3825  159.2714 H   0  0  0  0  0  0  0  0  0  0  0  0  # atno 6908 bound_to 6896
  150.9527  134.8945  159.7740 H   0  0  0  0  0  0  0  0  0  0  0  0  # atno 6909 bound_to 6896
  146.0889  140.5949  142.8874 H   0  0  0  0  0  0  0  0  0  0  0  0  # atno 7974 bound_to 7965
  154.7344  140.2737  155.6428 H   0  0  0  0  0  0  0  0  0  0  0  0  # atno 8008 bound_to 7997
  156.2858  140.2709  156.1979 H   0  0  0  0  0  0  0  0  0  0  0  0  # atno 8009 bound_to 7997
  155.0340  140.0371  157.2474 H   0  0  0  0  0  0  0  0  0  0  0  0  # atno 8010 bound_to 7997
  140.2422  144.3571  150.6376 H   0  0  0  0  0  0  0  0  0  0  0  0  # atno 10167 bound_to 10162
  156.4116  130.4409  149.7248 H   0  0  0  0  0  0  0  0  0  0  0  0  # atno 10718 bound_to 10713
  154.6900  135.5217  153.8379 H   0  0  0  0  0  0  0  0  0  0  0  0  # atno 10763 bound_to 10752
  153.0625  135.6573  154.0439 H   0  0  0  0  0  0  0  0  0  0  0  0  # atno 10764 bound_to 10752
  154.0315  135.2985  155.3347 H   0  0  0  0  0  0  0  0  0  0  0  0  # atno 10765 bound_to 10752
  140.9330  134.1294  157.4218 H   0  0  0  0  0  0  0  0  0  0  0  0  # atno 11005 bound_to 11000
  144.7345  140.4769  143.6913 LP  0  0  0  0  0  0  0  0  0  0  0  0  # atno 17320 bound_to 7965
  145.6078  139.1510  143.3093 LP  0  0  0  0  0  0  0  0  0  0  0  0  # atno 17321 bound_to 7965
  140.6105  143.2169  151.6896 LP  0  0  0  0  0  0  0  0  0  0  0  0  # atno 17342 bound_to 10162
  139.5073  144.3649  152.0526 LP  0  0  0  0  0  0  0  0  0  0  0  0  # atno 17343 bound_to 10162
  156.4224  130.7775  151.2793 LP  0  0  0  0  0  0  0  0  0  0  0  0  # atno 17370 bound_to 10713
  157.7507  131.0179  150.3603 LP  0  0  0  0  0  0  0  0  0  0  0  0  # atno 17371 bound_to 10713
  139.8801  135.0011  156.6050 LP  0  0  0  0  0  0  0  0  0  0  0  0  # atno 17394 bound_to 11000
  140.7837  133.8639  155.8588 LP  0  0  0  0  0  0  0  0  0  0  0  0  # atno 17395 bound_to 11000

$$$$
