AV-unprocessed.smi:2076|AV-procd|sdf|8458|dock10
  -GOLD-   2272011153D 1   1.00000     0.00000
 Structure written by MMmdl.
 44 45  0  0  0  0  0  0  0  0  1 V2000
  151.9945  142.5776  158.1260 C   0  0  0  0  0  0  0  0  0  0  0  0
  152.6502  142.3767  159.4602 C   0  0  0  0  0  0  0  0  0  0  0  0
  152.4138  143.0808  160.6739 C   0  0  0  0  0  0  0  0  0  0  0  0
  153.2680  142.5041  161.5711 C   0  0  0  0  0  0  0  0  0  0  0  0
  153.4886  142.8018  163.0178 C   0  0  0  0  0  0  0  0  0  0  0  0
  153.9582  141.5163  160.8904 N   0  0  0  0  0  0  0  0  0  0  0  0
  154.9767  140.6016  161.3823 C   0  0  0  0  0  0  0  0  0  0  0  0
  154.5704  139.1453  161.1529 C   0  0  0  0  0  0  0  0  0  0  0  0
  154.1281  138.7931  160.0597 O   0  0  0  0  0  0  0  0  0  0  0  0
  154.7258  138.3117  162.1913 N   0  0  0  0  0  0  0  0  0  0  0  0
  154.4019  136.8900  162.1729 C   0  0  0  0  0  0  0  0  0  0  0  0
  154.7171  136.1957  163.5266 C   0  0  1  0  0  0  0  0  0  0  0  0
  154.0378  136.9959  164.6674 C   0  0  0  0  0  0  0  0  0  0  0  0
  154.3593  134.7579  163.5486 N   0  0  0  0  0  0  0  0  0  0  0  0
  154.4491  134.1779  164.8937 C   0  0  0  0  0  0  0  0  0  0  0  0
  154.1057  132.6785  164.9241 C   0  0  0  0  0  0  0  0  0  0  0  0
  154.9559  131.9738  164.0302 O   0  0  0  0  0  0  0  0  0  0  0  0
  154.8404  132.4520  162.6975 C   0  0  0  0  0  0  0  0  0  0  0  0
  155.1926  133.9490  162.6513 C   0  0  0  0  0  0  0  0  0  0  0  0
  153.5762  141.4417  159.5961 N   0  0  0  0  0  0  0  0  0  0  0  0
  151.2219  143.3450  158.1783 H   0  0  0  0  0  0  0  0  0  0  0  0
  151.5247  141.6580  157.7761 H   0  0  0  0  0  0  0  0  0  0  0  0
  152.7208  142.8892  157.3752 H   0  0  0  0  0  0  0  0  0  0  0  0
  151.7199  143.8874  160.8587 H   0  0  0  0  0  0  0  0  0  0  0  0
  152.9130  143.6742  163.3273 H   0  0  0  0  0  0  0  0  0  0  0  0
  154.5396  143.0078  163.2189 H   0  0  0  0  0  0  0  0  0  0  0  0
  153.1818  141.9597  163.6382 H   0  0  0  0  0  0  0  0  0  0  0  0
  155.9240  140.8070  160.8806 H   0  0  0  0  0  0  0  0  0  0  0  0
  155.1379  140.7833  162.4453 H   0  0  0  0  0  0  0  0  0  0  0  0
  155.1017  138.6865  163.0504 H   0  0  0  0  0  0  0  0  0  0  0  0
  153.3493  136.7505  161.9196 H   0  0  0  0  0  0  0  0  0  0  0  0
  154.9874  136.4675  161.3579 H   0  0  0  0  0  0  0  0  0  0  0  0
  155.7946  136.2751  163.6796 H   0  0  0  0  0  0  0  0  0  0  0  0
  154.2527  138.0628  164.6167 H   0  0  0  0  0  0  0  0  0  0  0  0
  154.3829  136.6850  165.6524 H   0  0  0  0  0  0  0  0  0  0  0  0
  152.9539  136.8803  164.6370 H   0  0  0  0  0  0  0  0  0  0  0  0
  155.4528  134.3269  165.2946 H   0  0  0  0  0  0  0  0  0  0  0  0
  153.7598  134.6751  165.5737 H   0  0  0  0  0  0  0  0  0  0  0  0
  154.2405  132.2803  165.9297 H   0  0  0  0  0  0  0  0  0  0  0  0
  153.0618  132.5150  164.6521 H   0  0  0  0  0  0  0  0  0  0  0  0
  155.5151  131.8847  162.0562 H   0  0  0  0  0  0  0  0  0  0  0  0
  153.8283  132.2814  162.3268 H   0  0  0  0  0  0  0  0  0  0  0  0
  155.0702  134.2679  161.6183 H   0  0  0  0  0  0  0  0  0  0  0  0
  156.2457  134.0819  162.9037 H   0  0  0  0  0  0  0  0  0  0  0  0
  1  2  1  0  0  0  0
  1 21  1  0  0  0  0
  1 22  1  0  0  0  0
  1 23  1  0  0  0  0
  2 20  2  0  0  0  0
  2  3  1  0  0  0  0
  3  4  2  0  0  0  0
  3 24  1  0  0  0  0
  4  5  1  0  0  0  0
  4  6  1  0  0  0  0
  5 25  1  0  0  0  0
  5 26  1  0  0  0  0
  5 27  1  0  0  0  0
  6  7  1  0  0  0  0
  6 20  1  0  0  0  0
  7  8  1  0  0  0  0
  7 28  1  0  0  0  0
  7 29  1  0  0  0  0
  8  9  2  0  0  0  0
  8 10  1  0  0  0  0
 10 11  1  0  0  0  0
 10 30  1  0  0  0  0
 11 12  1  0  0  0  0
 11 31  1  0  0  0  0
 11 32  1  0  0  0  0
 12 13  1  0  0  0  0
 12 14  1  0  0  0  0
 12 33  1  0  0  0  0
 13 34  1  0  0  0  0
 13 35  1  0  0  0  0
 13 36  1  0  0  0  0
 14 19  1  0  0  0  0
 14 15  1  0  0  0  0
 15 16  1  0  0  0  0
 15 37  1  0  0  0  0
 15 38  1  0  0  0  0
 16 17  1  0  0  0  0
 16 39  1  0  0  0  0
 16 40  1  0  0  0  0
 17 18  1  0  0  0  0
 18 19  1  0  0  0  0
 18 41  1  0  0  0  0
 18 42  1  0  0  0  0
 19 43  1  0  0  0  0
 19 44  1  0  0  0  0
M  END
> <s_m_source_file>
AV-unprocessed.smi

> <i_m_source_file_index>
2076

> <i_lp_mmshare_version>
43012

> <i_f3d_flags>
0

> <s_epik_input>
W0NIM11jMVtjSF1jKFtDSDNdKW4objEpW0NIMl1DKD1PKVtOSF1bQ0gyXVtDQEhdKFtDSDNdKU4yW0NIMl1bQ0gyXU9bQ0gyXVtDSDJdMg==

> <s_epik_cmdline>
J2VwaWtfcHl0aG9uJywgJy1waCcsICc3LjAnLCAnLXRuJywgJzgnLCAnLW1hJywgJzIwMCcsICctbWV0YWxfYmluZGluZycsICctaW1hZScsICc8aW5maWxlLm1hZT4nLCAnLW9tYWUnLCAnPG91dGZpbGUubWFlPic=

> <r_lp_tautomer_probability>
1

> <r_epik_Ionization_Penalty>
0.197284

> <r_epik_Ionization_Penalty_Charging>
0

> <r_epik_Ionization_Penalty_Neutral>
0.197284

> <r_epik_State_Penalty>
0.186684

> <r_epik_Charging_Adjusted_Penalty>
0.186684

> <i_epik_Tot_Q>
0

> <i_epik_Tot_abs_Q>
0

> <r_epik_Metal_State_Penalty>
0.186636

> <b_epik_Metal_Only>
0

> <s_lp_Force_Field>
OPLS_2005

> <r_lp_Energy>
27.1724

> <b_lp_Chiralities_Consistent>
1

> <s_lp_Variant>
AV-unprocessed.smi:2076-2

> <Gold.Version>
5.8.1

> <Gold.Id.Protein>
6NUR|6NUR_protein|mol2

> <Gold.PLP.Fitness>
43.9565

> <Gold.PLP.PLP>
-44.5046

> <Gold.PLP.part.hbond>
0.0000

> <Gold.PLP.part.metal>
0.0000

> <Gold.PLP.part.buried>
-4.5228

> <Gold.PLP.part.nonpolar>
-40.0705

> <Gold.PLP.part.repulsive>
0.0285

> <Gold.PLP.ligand.clash>
0.0000

> <Gold.PLP.ligand.torsion>
0.2961

> <Gold.PLP.Chemscore.Hbond>
0.0000

> <Gold.PLP.Chemscore.CHOScore>
0.0000

> <Gold.PLP.Chemscore.Metal>
0.0000

> <Gold.PLP.Chemscore.Internal.Correction>
0.0441

> <Gold.Rescore>
     Score         DG    S(hbond)    S(metal)    S(lipo)     H(rot)  DE(clash)    DE(int)     intcor
     12.98     -14.60       0.00        0.00     115.15       1.70       0.04       1.58       ----

> <Gold.Chemscore.Fitness>
12.9841

> <Gold.Chemscore.DG>
-14.6022

> <Gold.Chemscore.ZeroCoef>
-5.4800

> <Gold.Chemscore.Hbond>
0.0000

> <Gold.Chemscore.Metal>
0.0000

> <Gold.Chemscore.Lipo>
115.1489

> <Gold.Chemscore.Internal_Hbond>
0.0000

> <Gold.Chemscore.DEClash>
0.0374

> <Gold.Chemscore.DEInternal>
1.5807

> <Gold.Chemscore.Rot>
1.6993

> <Gold.Chemscore.Internal.Correction>
   9.000000E+99

> <Gold.Chemscore.Hbond.Weighted>
-0.0000

> <Gold.Chemscore.Metal.Weighted>
-0.0000

> <Gold.Chemscore.Lipo.Weighted>
-13.4724

> <Gold.Chemscore.Internal_Hbond.Weighted>
0.0000

> <Gold.Chemscore.DEClash.Weighted>
0.0374

> <Gold.Chemscore.DEInternal.Weighted>
1.5807

> <Gold.Chemscore.Rot.Weighted>
4.3502

> <Gold.Chemscore.Internal.Correction.Weighted>
   9.000000E+99

> <Gold.Protein.RotatedTorsions>
[ 6907 6896 6895 6894 ] final  -84.21 input  -60.11 | X-H torsion
[ 7974 7965 7964 7962 ] final  160.03 input  175.53 | X-H torsion
[ 8008 7997 7996 7995 ] final  114.26 input   59.86 | X-H torsion
[ 10167 10162 10161 10158 ] final   -9.34 input  -65.29 | X-H torsion
[ 10718 10713 10712 10709 ] final  -47.89 input   66.30 | X-H torsion
[ 10763 10752 10751 10750 ] final -149.91 input  -60.55 | X-H torsion
[ 11005 11000 10999 10996 ] final  158.70 input  -57.11 | X-H torsion

> <Gold.Protein.ActiveResidues>
 VAL166  LYS551  ARG553  GLY616  TRP617  ASP618  TYR619  PRO620  LYS621  CYS622 
 ASP623  PHE694  ASN695  SER759  ASP760  ASP761  ALA762  ILE779  LEU786  VAL792 
 PHE793  MET794  SER795  GLU796  ALA797  LYS798  CYS799  TRP800  GLU811  SER814 

> <Gold.Protein.RotatedAtoms>
  150.6878  134.3394  159.4861 H   0  0  0  0  0  0  0  0  0  0  0  0  # atno 6907 bound_to 6896
  152.1249  134.9175  160.0570 H   0  0  0  0  0  0  0  0  0  0  0  0  # atno 6908 bound_to 6896
  152.0367  133.3925  159.4357 H   0  0  0  0  0  0  0  0  0  0  0  0  # atno 6909 bound_to 6896
  144.7758  139.7700  143.6279 H   0  0  0  0  0  0  0  0  0  0  0  0  # atno 7974 bound_to 7965
  156.2310  140.2962  156.0189 H   0  0  0  0  0  0  0  0  0  0  0  0  # atno 8008 bound_to 7997
  155.2224  140.0416  157.2967 H   0  0  0  0  0  0  0  0  0  0  0  0  # atno 8009 bound_to 7997
  154.5996  140.2423  155.7818 H   0  0  0  0  0  0  0  0  0  0  0  0  # atno 8010 bound_to 7997
  140.7085  143.5868  150.8934 H   0  0  0  0  0  0  0  0  0  0  0  0  # atno 10167 bound_to 10162
  156.2041  130.4157  149.9202 H   0  0  0  0  0  0  0  0  0  0  0  0  # atno 10718 bound_to 10713
  154.8150  135.3297  154.7201 H   0  0  0  0  0  0  0  0  0  0  0  0  # atno 10763 bound_to 10752
  153.7844  135.6916  153.4887 H   0  0  0  0  0  0  0  0  0  0  0  0  # atno 10764 bound_to 10752
  153.1959  135.4534  155.0154 H   0  0  0  0  0  0  0  0  0  0  0  0  # atno 10765 bound_to 10752
  140.1890  134.8421  157.2890 H   0  0  0  0  0  0  0  0  0  0  0  0  # atno 11005 bound_to 11000
  146.1937  139.5191  142.9788 LP  0  0  0  0  0  0  0  0  0  0  0  0  # atno 17320 bound_to 7965
  145.6190  141.0326  143.1925 LP  0  0  0  0  0  0  0  0  0  0  0  0  # atno 17321 bound_to 7965
  139.9594  143.6181  152.3006 LP  0  0  0  0  0  0  0  0  0  0  0  0  # atno 17342 bound_to 10162
  139.6728  144.7660  151.1751 LP  0  0  0  0  0  0  0  0  0  0  0  0  # atno 17343 bound_to 10162
  156.6902  130.8892  151.3587 LP  0  0  0  0  0  0  0  0  0  0  0  0  # atno 17370 bound_to 10713
  157.7002  130.9325  150.0763 LP  0  0  0  0  0  0  0  0  0  0  0  0  # atno 17371 bound_to 10713
  140.2181  134.4057  155.7579 LP  0  0  0  0  0  0  0  0  0  0  0  0  # atno 17394 bound_to 11000
  141.2226  133.7152  156.8446 LP  0  0  0  0  0  0  0  0  0  0  0  0  # atno 17395 bound_to 11000

$$$$
