AV-unprocessed.smi:3209|AV-procd|sdf|12271|dock2
  -GOLD-   2272018103D 1   1.00000     0.00000
 Structure written by MMmdl.
 37 39  0  0  0  0  0  0  0  0  2 V2000
  152.2687  144.0617  161.3901 C   0  0  0  0  0  0  0  0  0  0  0  0
  151.8190  143.8889  159.9797 C   0  0  0  0  0  0  0  0  0  0  0  0
  151.6727  142.6994  159.3899 N   0  0  0  0  0  0  0  0  0  0  0  0
  151.2404  142.8051  158.0642 C   0  0  0  0  0  0  0  0  0  0  0  0
  151.0260  141.5667  157.2481 C   0  0  0  0  0  0  0  0  0  0  0  0
  150.6308  141.8859  155.7999 C   0  0  0  0  0  0  0  0  0  0  0  0
  149.1679  141.7989  155.6187 N   0  3  0  0  0  0  0  0  0  0  0  0
  148.7407  141.3047  154.2916 C   0  0  1  0  0  0  0  0  0  0  0  0
  148.8115  139.7698  154.1365 C   0  0  0  0  0  0  0  0  0  0  0  0
  147.3983  139.4158  153.6329 C   0  0  1  0  0  0  0  0  0  0  0  0
  146.4102  139.5109  154.8087 C   0  0  0  0  0  0  0  0  0  0  0  0
  146.3150  141.0291  155.0450 C   0  0  0  0  0  0  0  0  0  0  0  0
  147.2611  141.6080  153.9700 C   0  0  2  0  0  0  0  0  0  0  0  0
  147.0215  140.6453  152.8111 C   0  0  0  0  0  0  0  0  0  0  0  0
  151.0570  144.1030  157.6566 C   0  0  0  0  0  0  0  0  0  0  0  0
  151.4237  145.2401  158.9247 S   0  0  0  0  0  0  0  0  0  0  0  0
  152.6289  143.1166  161.7979 H   0  0  0  0  0  0  0  0  0  0  0  0
  151.4405  144.4153  162.0041 H   0  0  0  0  0  0  0  0  0  0  0  0
  153.0767  144.7919  161.4370 H   0  0  0  0  0  0  0  0  0  0  0  0
  151.9330  140.9607  157.2530 H   0  0  0  0  0  0  0  0  0  0  0  0
  150.2522  140.9505  157.7076 H   0  0  0  0  0  0  0  0  0  0  0  0
  150.9659  142.8897  155.5354 H   0  0  0  0  0  0  0  0  0  0  0  0
  151.1231  141.1915  155.1181 H   0  0  0  0  0  0  0  0  0  0  0  0
  148.7816  141.1928  156.3285 H   0  0  0  0  0  0  0  0  0  0  0  0
  149.3632  141.7785  153.5300 H   0  0  0  0  0  0  0  0  0  0  0  0
  149.5684  139.4968  153.4001 H   0  0  0  0  0  0  0  0  0  0  0  0
  149.0509  139.2511  155.0659 H   0  0  0  0  0  0  0  0  0  0  0  0
  147.3483  138.4674  153.0971 H   0  0  0  0  0  0  0  0  0  0  0  0
  145.4364  139.1052  154.5306 H   0  0  0  0  0  0  0  0  0  0  0  0
  146.7568  138.9709  155.6907 H   0  0  0  0  0  0  0  0  0  0  0  0
  145.2931  141.3729  154.8791 H   0  0  0  0  0  0  0  0  0  0  0  0
  146.5929  141.3125  156.0602 H   0  0  0  0  0  0  0  0  0  0  0  0
  147.0703  142.6562  153.7381 H   0  0  0  0  0  0  0  0  0  0  0  0
  147.6817  140.8151  151.9587 H   0  0  0  0  0  0  0  0  0  0  0  0
  145.9866  140.6332  152.4638 H   0  0  0  0  0  0  0  0  0  0  0  0
  150.7289  144.4602  156.6915 H   0  0  0  0  0  0  0  0  0  0  0  0
  148.7865  142.7257  155.7448 H   0  0  0  0  0  0  0  0  0  0  0  0
  1  2  1  0  0  0  0
  1 17  1  0  0  0  0
  1 18  1  0  0  0  0
  1 19  1  0  0  0  0
  2 16  1  0  0  0  0
  2  3  2  0  0  0  0
  3  4  1  0  0  0  0
  4  5  1  0  0  0  0
  4 15  2  0  0  0  0
  5  6  1  0  0  0  0
  5 20  1  0  0  0  0
  5 21  1  0  0  0  0
  6  7  1  0  0  0  0
  6 22  1  0  0  0  0
  6 23  1  0  0  0  0
  7  8  1  0  0  0  0
  7 24  1  0  0  0  0
  7 37  1  0  0  0  0
  8 13  1  0  0  0  0
  8  9  1  0  0  0  0
  8 25  1  0  0  0  0
  9 10  1  0  0  0  0
  9 26  1  0  0  0  0
  9 27  1  0  0  0  0
 10 14  1  0  0  0  0
 10 11  1  0  0  0  0
 10 28  1  0  0  0  0
 11 12  1  0  0  0  0
 11 29  1  0  0  0  0
 11 30  1  0  0  0  0
 12 13  1  0  0  0  0
 12 31  1  0  0  0  0
 12 32  1  0  0  0  0
 13 14  1  0  0  0  0
 13 33  1  0  0  0  0
 14 34  1  0  0  0  0
 14 35  1  0  0  0  0
 15 16  1  0  0  0  0
 15 36  1  0  0  0  0
M  CHG  1   7   1
M  END
> <s_m_source_file>
AV-unprocessed.smi

> <i_m_source_file_index>
3209

> <i_lp_mmshare_version>
43012

> <i_f3d_flags>
0

> <s_epik_input>
W0NIM11jMW5jKFtjSF1zMSlbQ0gyXVtDSDJdW05IXVtDQEhdKFtDSDJdW0NASF0yMylbQ0BIXShbQ0gyXTMpW0NIMl1bQ0gyXTI=

> <s_epik_cmdline>
J2VwaWtfcHl0aG9uJywgJy1waCcsICc3LjAnLCAnLXRuJywgJzgnLCAnLW1hJywgJzIwMCcsICctbWV0YWxfYmluZGluZycsICctaW1hZScsICc8aW5maWxlLm1hZT4nLCAnLW9tYWUnLCAnPG91dGZpbGUubWFlPic=

> <r_lp_tautomer_probability>
1

> <r_epik_Ionization_Penalty>
0.000342479

> <r_epik_Ionization_Penalty_Charging>
0.000317129

> <r_epik_Ionization_Penalty_Neutral>
2.535e-05

> <r_epik_State_Penalty>
-0

> <r_epik_Charging_Adjusted_Penalty>
0.000317129

> <i_epik_Tot_Q>
1

> <i_epik_Tot_abs_Q>
1

> <r_epik_Metal_State_Penalty>
-0

> <b_epik_Metal_Only>
0

> <s_lp_Force_Field>
OPLS_2005

> <r_lp_Energy>
49.0881

> <b_lp_Chiralities_Consistent>
1

> <s_lp_Variant>
AV-unprocessed.smi:3209-4

> <Gold.Version>
5.8.1

> <Gold.Id.Protein>
6NUR|6NUR_protein|mol2

> <Gold.PLP.Fitness>
46.0865

> <Gold.PLP.PLP>
-38.3782

> <Gold.PLP.part.hbond>
-1.0000

> <Gold.PLP.part.metal>
0.0000

> <Gold.PLP.part.buried>
-4.6857

> <Gold.PLP.part.nonpolar>
-31.8325

> <Gold.PLP.part.repulsive>
0.1185

> <Gold.PLP.ligand.clash>
0.0000

> <Gold.PLP.ligand.torsion>
0.6653

> <Gold.PLP.Chemscore.Hbond>
2.0000

> <Gold.PLP.Chemscore.CHOScore>
1.0000

> <Gold.PLP.Chemscore.Metal>
0.0000

> <Gold.Chemscore.Hbonds>
donor molecule, donor type, donor heavy atom, donor atom, acceptor molecule, acceptor atom, score
      L1  H     7    37       P1  8028  2.00
      L1  C    15    36       P1  8028  1.00

> <Gold.PLP.Chemscore.Internal.Correction>
0.0389

> <Gold.Rescore>
     Score         DG    S(hbond)    S(metal)    S(lipo)     H(rot)  DE(clash)    DE(int)     intcor
     18.08     -18.73       0.99        0.00     113.85       1.31       0.14       0.51       ----

> <Gold.Chemscore.Fitness>
18.0835

> <Gold.Chemscore.DG>
-18.7342

> <Gold.Chemscore.ZeroCoef>
-5.4800

> <Gold.Chemscore.Hbond>
0.9850

> <Gold.Chemscore.Metal>
0.0000

> <Gold.Chemscore.Lipo>
113.8452

> <Gold.Chemscore.Internal_Hbond>
0.0000

> <Gold.Chemscore.DEClash>
0.1436

> <Gold.Chemscore.DEInternal>
0.5071

> <Gold.Chemscore.Rot>
1.3108

> <Gold.Chemscore.Internal.Correction>
   9.000000E+99

> <Gold.Chemscore.Hbonds>
donor molecule, donor type, donor heavy atom, donor atom, acceptor molecule, acceptor atom, score
      L1  H     7    37       P1  8028  0.94

> <Gold.Chemscore.Hbond.Weighted>
-3.2901

> <Gold.Chemscore.Metal.Weighted>
-0.0000

> <Gold.Chemscore.Lipo.Weighted>
-13.3199

> <Gold.Chemscore.Internal_Hbond.Weighted>
0.0000

> <Gold.Chemscore.DEClash.Weighted>
0.1436

> <Gold.Chemscore.DEInternal.Weighted>
0.5071

> <Gold.Chemscore.Rot.Weighted>
3.3558

> <Gold.Chemscore.Internal.Correction.Weighted>
   9.000000E+99

> <Gold.Protein.RotatedTorsions>
[ 6907 6896 6895 6894 ] final  -79.06 input  -60.11 | X-H torsion
[ 7974 7965 7964 7962 ] final  178.42 input  175.53 | X-H torsion
[ 8008 7997 7996 7995 ] final -109.30 input   59.86 | X-H torsion
[ 10167 10162 10161 10158 ] final -119.84 input  -65.29 | X-H torsion
[ 10718 10713 10712 10709 ] final -179.66 input   66.30 | X-H torsion
[ 10763 10752 10751 10750 ] final -127.05 input  -60.55 | X-H torsion
[ 11005 11000 10999 10996 ] final  -89.24 input  -57.11 | X-H torsion

> <Gold.Protein.ActiveResidues>
 VAL166  LYS551  ARG553  GLY616  TRP617  ASP618  TYR619  PRO620  LYS621  CYS622 
 ASP623  PHE694  ASN695  SER759  ASP760  ASP761  ALA762  ILE779  LEU786  VAL792 
 PHE793  MET794  SER795  GLU796  ALA797  LYS798  CYS799  TRP800  GLU811  SER814 

> <Gold.Protein.RotatedAtoms>
  150.6958  134.4177  159.5190 H   0  0  0  0  0  0  0  0  0  0  0  0  # atno 6907 bound_to 6896
  152.1925  134.8656  160.0525 H   0  0  0  0  0  0  0  0  0  0  0  0  # atno 6908 bound_to 6896
  151.9606  133.3659  159.4071 H   0  0  0  0  0  0  0  0  0  0  0  0  # atno 6909 bound_to 6896
  144.7156  140.0395  143.6437 H   0  0  0  0  0  0  0  0  0  0  0  0  # atno 7974 bound_to 7965
  154.9573  140.0399  157.2173 H   0  0  0  0  0  0  0  0  0  0  0  0  # atno 8008 bound_to 7997
  154.7922  140.2837  155.5961 H   0  0  0  0  0  0  0  0  0  0  0  0  # atno 8009 bound_to 7997
  156.2951  140.2571  156.2772 H   0  0  0  0  0  0  0  0  0  0  0  0  # atno 8010 bound_to 7997
  140.0423  143.5141  152.2124 H   0  0  0  0  0  0  0  0  0  0  0  0  # atno 10167 bound_to 10162
  156.8624  130.9756  151.3082 H   0  0  0  0  0  0  0  0  0  0  0  0  # atno 10718 bound_to 10713
  154.8750  135.3975  154.3530 H   0  0  0  0  0  0  0  0  0  0  0  0  # atno 10763 bound_to 10752
  153.4313  135.7025  153.6234 H   0  0  0  0  0  0  0  0  0  0  0  0  # atno 10764 bound_to 10752
  153.4854  135.3760  155.2434 H   0  0  0  0  0  0  0  0  0  0  0  0  # atno 10765 bound_to 10752
  141.1588  133.7618  156.9567 H   0  0  0  0  0  0  0  0  0  0  0  0  # atno 11005 bound_to 11000
  146.0035  139.3110  143.0913 LP  0  0  0  0  0  0  0  0  0  0  0  0  # atno 17320 bound_to 7965
  145.8765  140.9388  143.0623 LP  0  0  0  0  0  0  0  0  0  0  0  0  # atno 17321 bound_to 7965
  139.6006  144.7581  151.3181 LP  0  0  0  0  0  0  0  0  0  0  0  0  # atno 17342 bound_to 10162
  140.7254  143.7017  150.7839 LP  0  0  0  0  0  0  0  0  0  0  0  0  # atno 17343 bound_to 10162
  157.6243  130.8679  149.9162 LP  0  0  0  0  0  0  0  0  0  0  0  0  # atno 17370 bound_to 10713
  156.0770  130.3677  150.0658 LP  0  0  0  0  0  0  0  0  0  0  0  0  # atno 17371 bound_to 10713
  140.1221  134.9410  157.2218 LP  0  0  0  0  0  0  0  0  0  0  0  0  # atno 17394 bound_to 11000
  140.3059  134.3078  155.7278 LP  0  0  0  0  0  0  0  0  0  0  0  0  # atno 17395 bound_to 11000

$$$$
