AV-unprocessed.smi:697|AV-procd|sdf|3391|dock1
  -GOLD-   22720 0373D 1   1.00000     0.00000
 Structure written by MMmdl.
 44 45  0  0  0  0  0  0  0  0  1 V2000
  151.2386  139.4192  158.0191 C   0  0  0  0  0  0  0  0  0  0  0  0
  149.9630  139.5266  157.3994 O   0  0  0  0  0  0  0  0  0  0  0  0
  149.9362  139.7990  155.9914 C   0  0  1  0  0  0  0  0  0  0  0  0
  150.7152  141.0823  155.6759 C   0  0  0  0  0  0  0  0  0  0  0  0
  150.2405  138.5148  155.1962 C   0  0  0  0  0  0  0  0  0  0  0  0
  148.7652  138.1535  155.3575 C   0  0  2  0  0  0  0  0  0  0  0  0
  148.2099  137.5142  154.1694 N   0  0  0  0  0  0  0  0  0  0  0  0
  147.0828  136.7902  154.1558 C   0  0  0  0  0  0  0  0  0  0  0  0
  146.4086  136.5766  155.1629 O   0  0  0  0  0  0  0  0  0  0  0  0
  146.8155  136.3439  152.9146 N   0  0  0  0  0  0  0  0  0  0  0  0
  145.7233  135.5913  152.4499 C   0  0  0  0  0  0  0  0  0  0  0  0
  145.8133  134.4984  151.6470 C   0  0  0  0  0  0  0  0  0  0  0  0
  144.6385  133.7608  151.2129 C   0  0  0  0  0  0  0  0  0  0  0  0
  144.7462  132.5910  150.2472 C   0  0  0  0  0  0  0  0  0  0  0  0
  146.0134  132.3647  149.8990 F   0  0  0  0  0  0  0  0  0  0  0  0
  144.2561  131.4763  150.7904 F   0  0  0  0  0  0  0  0  0  0  0  0
  144.0519  132.8523  149.1407 F   0  0  0  0  0  0  0  0  0  0  0  0
  143.4487  134.2200  151.6422 C   0  0  0  0  0  0  0  0  0  0  0  0
  143.3489  135.3280  152.4862 N   0  0  0  0  0  0  0  0  0  0  0  0
  144.4061  136.0482  152.9234 C   0  0  0  0  0  0  0  0  0  0  0  0
  144.2341  137.0134  153.6672 O   0  0  0  0  0  0  0  0  0  0  0  0
  148.4602  139.6683  155.4908 C   0  0  0  0  0  0  0  0  0  0  0  0
  147.3615  140.0459  156.4905 C   0  0  0  0  0  0  0  0  0  0  0  0
  148.1198  140.4237  154.1917 C   0  0  0  0  0  0  0  0  0  0  0  0
  142.4215  135.5995  152.7799 H   0  0  0  0  0  0  0  0  0  0  0  0
  151.1088  139.0540  159.0376 H   0  0  0  0  0  0  0  0  0  0  0  0
  151.7346  140.3873  158.0861 H   0  0  0  0  0  0  0  0  0  0  0  0
  151.8967  138.7236  157.4998 H   0  0  0  0  0  0  0  0  0  0  0  0
  150.6240  141.3649  154.6277 H   0  0  0  0  0  0  0  0  0  0  0  0
  151.7824  140.9696  155.8653 H   0  0  0  0  0  0  0  0  0  0  0  0
  150.3546  141.9203  156.2726 H   0  0  0  0  0  0  0  0  0  0  0  0
  150.5310  138.7150  154.1633 H   0  0  0  0  0  0  0  0  0  0  0  0
  150.9269  137.8102  155.6644 H   0  0  0  0  0  0  0  0  0  0  0  0
  148.5855  137.5998  156.2822 H   0  0  0  0  0  0  0  0  0  0  0  0
  148.7121  137.6393  153.3028 H   0  0  0  0  0  0  0  0  0  0  0  0
  147.5034  136.5584  152.2072 H   0  0  0  0  0  0  0  0  0  0  0  0
  146.7684  134.1257  151.3161 H   0  0  0  0  0  0  0  0  0  0  0  0
  142.4963  133.7873  151.3733 H   0  0  0  0  0  0  0  0  0  0  0  0
  146.3669  139.8588  156.0843 H   0  0  0  0  0  0  0  0  0  0  0  0
  147.4147  141.1007  156.7611 H   0  0  0  0  0  0  0  0  0  0  0  0
  147.4331  139.4699  157.4132 H   0  0  0  0  0  0  0  0  0  0  0  0
  147.1350  140.1493  153.8117 H   0  0  0  0  0  0  0  0  0  0  0  0
  148.8356  140.2185  153.3958 H   0  0  0  0  0  0  0  0  0  0  0  0
  148.1135  141.5029  154.3477 H   0  0  0  0  0  0  0  0  0  0  0  0
  1  2  1  0  0  0  0
  1 26  1  0  0  0  0
  1 27  1  0  0  0  0
  1 28  1  0  0  0  0
  2  3  1  0  0  0  0
  3 22  1  0  0  0  0
  3  4  1  0  0  0  0
  3  5  1  0  0  0  0
  4 29  1  0  0  0  0
  4 30  1  0  0  0  0
  4 31  1  0  0  0  0
  5  6  1  0  0  0  0
  5 32  1  0  0  0  0
  5 33  1  0  0  0  0
  6  7  1  0  0  0  0
  6 22  1  0  0  0  0
  6 34  1  0  0  0  0
  7  8  1  0  0  0  0
  7 35  1  0  0  0  0
  8  9  2  0  0  0  0
  8 10  1  0  0  0  0
 10 11  1  0  0  0  0
 10 36  1  0  0  0  0
 11 20  1  0  0  0  0
 11 12  2  0  0  0  0
 12 13  1  0  0  0  0
 12 37  1  0  0  0  0
 13 14  1  0  0  0  0
 13 18  2  0  0  0  0
 14 15  1  0  0  0  0
 14 16  1  0  0  0  0
 14 17  1  0  0  0  0
 18 19  1  0  0  0  0
 18 38  1  0  0  0  0
 19 25  1  0  0  0  0
 19 20  1  0  0  0  0
 20 21  2  0  0  0  0
 22 23  1  0  0  0  0
 22 24  1  0  0  0  0
 23 39  1  0  0  0  0
 23 40  1  0  0  0  0
 23 41  1  0  0  0  0
 24 42  1  0  0  0  0
 24 43  1  0  0  0  0
 24 44  1  0  0  0  0
M  END
> <s_m_source_file>
AV-unprocessed.smi

> <i_m_source_file_index>
697

> <i_lp_mmshare_version>
43012

> <i_f3d_flags>
0

> <s_epik_input>
W0NIM11PW0NAQF0xKFtDSDNdKVtDSDJdW0NASF0oQzEoW0NIM10pW0NIM10pW05IXUMoPU8pW05IXWMyW2NIXWMoQyhGKShGKUYpW2NIXVtuSF1jMj1P

> <s_epik_cmdline>
J2VwaWtfcHl0aG9uJywgJy1waCcsICc3LjAnLCAnLXRuJywgJzgnLCAnLW1hJywgJzIwMCcsICctbWV0YWxfYmluZGluZycsICctaW1hZScsICc8aW5maWxlLm1hZT4nLCAnLW9tYWUnLCAnPG91dGZpbGUubWFlPic=

> <r_lp_tautomer_probability>
1

> <r_epik_Ionization_Penalty>
0.0036482

> <r_epik_Ionization_Penalty_Charging>
0.00362828

> <r_epik_Ionization_Penalty_Neutral>
1.99208e-05

> <r_epik_State_Penalty>
-0

> <r_epik_Charging_Adjusted_Penalty>
0.00362828

> <i_epik_Tot_Q>
0

> <i_epik_Tot_abs_Q>
0

> <r_epik_Metal_State_Penalty>
0.369362

> <b_epik_Metal_Only>
0

> <s_lp_Force_Field>
OPLS_2005

> <r_lp_Energy>
34.6264

> <b_lp_Chiralities_Consistent>
1

> <s_lp_Variant>
AV-unprocessed.smi:697-3

> <Gold.Version>
5.8.1

> <Gold.Id.Protein>
6NUR|6NUR_protein|mol2

> <Gold.PLP.Fitness>
37.8234

> <Gold.PLP.PLP>
-31.8963

> <Gold.PLP.part.hbond>
-1.5476

> <Gold.PLP.part.metal>
0.0000

> <Gold.PLP.part.buried>
-3.3240

> <Gold.PLP.part.nonpolar>
-26.7779

> <Gold.PLP.part.repulsive>
0.1729

> <Gold.PLP.ligand.clash>
0.0000

> <Gold.PLP.ligand.torsion>
0.7790

> <Gold.PLP.Chemscore.Hbond>
1.3600

> <Gold.PLP.Chemscore.CHOScore>
0.9753

> <Gold.PLP.Chemscore.Metal>
0.0000

> <Gold.Chemscore.Hbonds>
donor molecule, donor type, donor heavy atom, donor atom, acceptor molecule, acceptor atom, score
      L1  H     7    35       P1  7948  0.53
      L1  H    10    36       P1  7948  0.78
      L1  C    18    38       P1 10186  0.97

> <Gold.PLP.Chemscore.Internal.Correction>
0.4790

> <Gold.Rescore>
     Score         DG    S(hbond)    S(metal)    S(lipo)     H(rot)  DE(clash)    DE(int)     intcor
     10.92     -14.41       1.75        0.00      54.86       1.31       0.14       3.35       ----

> <Gold.Chemscore.Fitness>
10.9230

> <Gold.Chemscore.DG>
-14.4131

> <Gold.Chemscore.ZeroCoef>
-5.4800

> <Gold.Chemscore.Hbond>
1.7539

> <Gold.Chemscore.Metal>
0.0000

> <Gold.Chemscore.Lipo>
54.8632

> <Gold.Chemscore.Internal_Hbond>
0.0000

> <Gold.Chemscore.DEClash>
0.1386

> <Gold.Chemscore.DEInternal>
3.3515

> <Gold.Chemscore.Rot>
1.3062

> <Gold.Chemscore.Internal.Correction>
   9.000000E+99

> <Gold.Chemscore.Hbonds>
donor molecule, donor type, donor heavy atom, donor atom, acceptor molecule, acceptor atom, score
      L1  H     7    35       P1  7948  0.51
      L1  H    10    36       P1  7948  0.74

> <Gold.Chemscore.Hbond.Weighted>
-5.8581

> <Gold.Chemscore.Metal.Weighted>
-0.0000

> <Gold.Chemscore.Lipo.Weighted>
-6.4190

> <Gold.Chemscore.Internal_Hbond.Weighted>
0.0000

> <Gold.Chemscore.DEClash.Weighted>
0.1386

> <Gold.Chemscore.DEInternal.Weighted>
3.3515

> <Gold.Chemscore.Rot.Weighted>
3.3440

> <Gold.Chemscore.Internal.Correction.Weighted>
   9.000000E+99

> <Gold.Protein.RotatedTorsions>
[ 6907 6896 6895 6894 ] final  -48.89 input  -60.11 | X-H torsion
[ 7974 7965 7964 7962 ] final   81.05 input  175.53 | X-H torsion
[ 8008 7997 7996 7995 ] final   54.60 input   59.86 | X-H torsion
[ 10167 10162 10161 10158 ] final  -69.54 input  -65.29 | X-H torsion
[ 10718 10713 10712 10709 ] final  -30.50 input   66.30 | X-H torsion
[ 10763 10752 10751 10750 ] final   71.14 input  -60.55 | X-H torsion
[ 11005 11000 10999 10996 ] final -119.54 input  -57.11 | X-H torsion

> <Gold.Protein.ActiveResidues>
 VAL166  LYS551  ARG553  GLY616  TRP617  ASP618  TYR619  PRO620  LYS621  CYS622 
 ASP623  PHE694  ASN695  SER759  ASP760  ASP761  ALA762  ILE779  LEU786  VAL792 
 PHE793  MET794  SER795  GLU796  ALA797  LYS798  CYS799  TRP800  GLU811  SER814 

> <Gold.Protein.RotatedAtoms>
  150.8860  134.8258  159.7258 H   0  0  0  0  0  0  0  0  0  0  0  0  # atno 6907 bound_to 6896
  152.4808  134.4722  159.9649 H   0  0  0  0  0  0  0  0  0  0  0  0  # atno 6908 bound_to 6896
  151.4791  133.3512  159.2871 H   0  0  0  0  0  0  0  0  0  0  0  0  # atno 6909 bound_to 6896
  145.6432  139.2430  143.2019 H   0  0  0  0  0  0  0  0  0  0  0  0  # atno 7974 bound_to 7965
  155.4875  140.3470  155.4349 H   0  0  0  0  0  0  0  0  0  0  0  0  # atno 8008 bound_to 7997
  156.0999  140.1432  156.9510 H   0  0  0  0  0  0  0  0  0  0  0  0  # atno 8009 bound_to 7997
  154.4687  140.0908  156.7066 H   0  0  0  0  0  0  0  0  0  0  0  0  # atno 8010 bound_to 7997
  140.5423  143.2314  151.7067 H   0  0  0  0  0  0  0  0  0  0  0  0  # atno 10167 bound_to 10162
  156.3990  130.4387  149.7337 H   0  0  0  0  0  0  0  0  0  0  0  0  # atno 10718 bound_to 10713
  153.0382  135.5148  154.7548 H   0  0  0  0  0  0  0  0  0  0  0  0  # atno 10763 bound_to 10752
  154.6507  135.2925  154.9992 H   0  0  0  0  0  0  0  0  0  0  0  0  # atno 10764 bound_to 10752
  154.0877  135.6655  153.4900 H   0  0  0  0  0  0  0  0  0  0  0  0  # atno 10765 bound_to 10752
  141.0208  134.0127  157.3285 H   0  0  0  0  0  0  0  0  0  0  0  0  # atno 11005 bound_to 11000
  146.1264  140.7243  142.9433 LP  0  0  0  0  0  0  0  0  0  0  0  0  # atno 17320 bound_to 7965
  144.7150  140.4175  143.7051 LP  0  0  0  0  0  0  0  0  0  0  0  0  # atno 17321 bound_to 7965
  139.4993  144.3950  152.0241 LP  0  0  0  0  0  0  0  0  0  0  0  0  # atno 17342 bound_to 10162
  140.3060  144.3593  150.6047 LP  0  0  0  0  0  0  0  0  0  0  0  0  # atno 17343 bound_to 10162
  156.4360  130.7838  151.2859 LP  0  0  0  0  0  0  0  0  0  0  0  0  # atno 17370 bound_to 10713
  157.7503  131.0139  150.3443 LP  0  0  0  0  0  0  0  0  0  0  0  0  # atno 17371 bound_to 10713
  139.9145  135.0195  156.7825 LP  0  0  0  0  0  0  0  0  0  0  0  0  # atno 17394 bound_to 11000
  140.6576  133.9674  155.7788 LP  0  0  0  0  0  0  0  0  0  0  0  0  # atno 17395 bound_to 11000

$$$$
