AV-unprocessed.smi:3249|AV-procd|sdf|12419|dock4
  -GOLD-   2272018303D 1   1.00000     0.00000
 Structure written by MMmdl.
 44 45  0  0  0  0  0  0  0  0  2 V2000
  151.1578  142.1653  158.9585 C   0  0  0  0  0  0  0  0  0  0  0  0
  150.9503  141.2816  157.7623 C   0  0  0  0  0  0  0  0  0  0  0  0
  150.8620  141.6668  156.3949 C   0  0  0  0  0  0  0  0  0  0  0  0
  150.6873  140.6379  155.5821 N   0  0  0  0  0  0  0  0  0  0  0  0
  150.6396  139.5624  156.3977 N   0  0  0  0  0  0  0  0  0  0  0  0
  150.4857  138.2292  155.8252 C   0  0  2  0  0  0  0  0  0  0  0  0
  151.6144  137.9645  154.8109 C   0  0  0  0  0  0  0  0  0  0  0  0
  149.0636  138.0492  155.2329 C   0  0  1  0  0  0  0  0  0  0  0  0
  148.7844  139.0080  154.0598 C   0  0  0  0  0  0  0  0  0  0  0  0
  148.8801  136.6465  154.7903 N   0  3  0  0  0  0  0  0  0  0  0  0
  147.6919  135.9578  155.3364 C   0  0  0  0  0  0  0  0  0  0  0  0
  147.6673  134.4779  154.9246 C   0  0  2  0  0  0  0  0  0  0  0  0
  149.0628  133.8216  154.9766 C   0  0  0  0  0  0  0  0  0  0  0  0
  148.9990  132.3786  154.4633 C   0  0  0  0  0  0  0  0  0  0  0  0
  148.3431  132.3506  153.0790 C   0  0  0  0  0  0  0  0  0  0  0  0
  146.9924  133.0823  153.1133 C   0  0  0  0  0  0  0  0  0  0  0  0
  147.1729  134.4129  153.5893 O   0  0  0  0  0  0  0  0  0  0  0  0
  150.8075  139.9240  157.7197 C   0  0  0  0  0  0  0  0  0  0  0  0
  151.0241  143.2190  158.7124 H   0  0  0  0  0  0  0  0  0  0  0  0
  152.1617  142.0560  159.3687 H   0  0  0  0  0  0  0  0  0  0  0  0
  150.4556  141.9318  159.7589 H   0  0  0  0  0  0  0  0  0  0  0  0
  150.9259  142.6582  155.9708 H   0  0  0  0  0  0  0  0  0  0  0  0
  150.6097  137.5081  156.6358 H   0  0  0  0  0  0  0  0  0  0  0  0
  151.6391  136.9208  154.4988 H   0  0  0  0  0  0  0  0  0  0  0  0
  152.5894  138.1865  155.2462 H   0  0  0  0  0  0  0  0  0  0  0  0
  151.5029  138.5777  153.9161 H   0  0  0  0  0  0  0  0  0  0  0  0
  148.3424  138.2535  156.0262 H   0  0  0  0  0  0  0  0  0  0  0  0
  148.8236  140.0504  154.3740 H   0  0  0  0  0  0  0  0  0  0  0  0
  147.7923  138.8501  153.6377 H   0  0  0  0  0  0  0  0  0  0  0  0
  149.5102  138.8737  153.2571 H   0  0  0  0  0  0  0  0  0  0  0  0
  148.8528  136.6212  153.7811 H   0  0  0  0  0  0  0  0  0  0  0  0
  147.7245  136.0261  156.4247 H   0  0  0  0  0  0  0  0  0  0  0  0
  146.7772  136.4547  155.0131 H   0  0  0  0  0  0  0  0  0  0  0  0
  146.9771  133.9402  155.5777 H   0  0  0  0  0  0  0  0  0  0  0  0
  149.7619  134.3939  154.3653 H   0  0  0  0  0  0  0  0  0  0  0  0
  149.4554  133.8331  155.9938 H   0  0  0  0  0  0  0  0  0  0  0  0
  149.9984  131.9445  154.4203 H   0  0  0  0  0  0  0  0  0  0  0  0
  148.4206  131.7667  155.1565 H   0  0  0  0  0  0  0  0  0  0  0  0
  148.9984  132.8320  152.3521 H   0  0  0  0  0  0  0  0  0  0  0  0
  148.2073  131.3215  152.7455 H   0  0  0  0  0  0  0  0  0  0  0  0
  146.5630  133.1222  152.1122 H   0  0  0  0  0  0  0  0  0  0  0  0
  146.2778  132.5518  153.7446 H   0  0  0  0  0  0  0  0  0  0  0  0
  150.8145  139.1926  158.5146 H   0  0  0  0  0  0  0  0  0  0  0  0
  149.6910  136.1279  155.0981 H   0  0  0  0  0  0  0  0  0  0  0  0
  1  2  1  0  0  0  0
  1 19  1  0  0  0  0
  1 20  1  0  0  0  0
  1 21  1  0  0  0  0
  2 18  2  0  0  0  0
  2  3  1  0  0  0  0
  3  4  2  0  0  0  0
  3 22  1  0  0  0  0
  4  5  1  0  0  0  0
  5  6  1  0  0  0  0
  5 18  1  0  0  0  0
  6  7  1  0  0  0  0
  6  8  1  0  0  0  0
  6 23  1  0  0  0  0
  7 24  1  0  0  0  0
  7 25  1  0  0  0  0
  7 26  1  0  0  0  0
  8  9  1  0  0  0  0
  8 10  1  0  0  0  0
  8 27  1  0  0  0  0
  9 28  1  0  0  0  0
  9 29  1  0  0  0  0
  9 30  1  0  0  0  0
 10 11  1  0  0  0  0
 10 31  1  0  0  0  0
 10 44  1  0  0  0  0
 11 12  1  0  0  0  0
 11 32  1  0  0  0  0
 11 33  1  0  0  0  0
 12 17  1  0  0  0  0
 12 13  1  0  0  0  0
 12 34  1  0  0  0  0
 13 14  1  0  0  0  0
 13 35  1  0  0  0  0
 13 36  1  0  0  0  0
 14 15  1  0  0  0  0
 14 37  1  0  0  0  0
 14 38  1  0  0  0  0
 15 16  1  0  0  0  0
 15 39  1  0  0  0  0
 15 40  1  0  0  0  0
 16 17  1  0  0  0  0
 16 41  1  0  0  0  0
 16 42  1  0  0  0  0
 18 43  1  0  0  0  0
M  CHG  1  10   1
M  END
> <s_m_source_file>
AV-unprocessed.smi

> <i_m_source_file_index>
3249

> <i_lp_mmshare_version>
43012

> <i_f3d_flags>
0

> <s_epik_input>
W0NIM11jMVtjSF1ubihbY0hdMSlbQ0BIXShbQ0gzXSlbQ0BIXShbQ0gzXSlbTkhdW0NIMl1bQ0BASF0yW0NIMl1bQ0gyXVtDSDJdW0NIMl1PMg==

> <s_epik_cmdline>
J2VwaWtfcHl0aG9uJywgJy1waCcsICc3LjAnLCAnLXRuJywgJzgnLCAnLW1hJywgJzIwMCcsICctbWV0YWxfYmluZGluZycsICctaW1hZScsICc8aW5maWxlLm1hZT4nLCAnLW9tYWUnLCAnPG91dGZpbGUubWFlPic=

> <r_lp_tautomer_probability>
1

> <r_epik_Ionization_Penalty>
0.00659207

> <r_epik_Ionization_Penalty_Charging>
0.00656881

> <r_epik_Ionization_Penalty_Neutral>
2.32662e-05

> <r_epik_State_Penalty>
0.0048654

> <r_epik_Charging_Adjusted_Penalty>
0.0114342

> <i_epik_Tot_Q>
1

> <i_epik_Tot_abs_Q>
1

> <r_epik_Metal_State_Penalty>
-0

> <b_epik_Metal_Only>
0

> <s_lp_Force_Field>
OPLS_2005

> <r_lp_Energy>
18.0919

> <b_lp_Chiralities_Consistent>
1

> <s_lp_Variant>
AV-unprocessed.smi:3249-3

> <Gold.Version>
5.8.1

> <Gold.Id.Protein>
6NUR|6NUR_protein|mol2

> <Gold.PLP.Fitness>
38.5567

> <Gold.PLP.PLP>
-29.0983

> <Gold.PLP.part.hbond>
-2.0000

> <Gold.PLP.part.metal>
0.0000

> <Gold.PLP.part.buried>
-3.5526

> <Gold.PLP.part.nonpolar>
-23.1962

> <Gold.PLP.part.repulsive>
0.5176

> <Gold.PLP.ligand.clash>
0.0000

> <Gold.PLP.ligand.torsion>
0.9926

> <Gold.PLP.Chemscore.Hbond>
2.7840

> <Gold.PLP.Chemscore.CHOScore>
1.0000

> <Gold.PLP.Chemscore.Metal>
0.0000

> <Gold.Chemscore.Hbonds>
donor molecule, donor type, donor heavy atom, donor atom, acceptor molecule, acceptor atom, score
      L1  H    10    31       P1  7948  2.00
      P1  H  7989  7998       L1     4  0.31
      L1  C     3    22       P1  8028  0.05

> <Gold.PLP.Chemscore.Internal.Correction>
0.0917

> <Gold.Rescore>
     Score         DG    S(hbond)    S(metal)    S(lipo)     H(rot)  DE(clash)    DE(int)     intcor
     14.44     -16.35       1.77        0.00      76.07       1.53       0.76       1.16       ----

> <Gold.Chemscore.Fitness>
14.4389

> <Gold.Chemscore.DG>
-16.3523

> <Gold.Chemscore.ZeroCoef>
-5.4800

> <Gold.Chemscore.Hbond>
1.7655

> <Gold.Chemscore.Metal>
0.0000

> <Gold.Chemscore.Lipo>
76.0742

> <Gold.Chemscore.Internal_Hbond>
0.0000

> <Gold.Chemscore.DEClash>
0.7573

> <Gold.Chemscore.DEInternal>
1.1562

> <Gold.Chemscore.Rot>
1.5333

> <Gold.Chemscore.Internal.Correction>
   9.000000E+99

> <Gold.Chemscore.Hbonds>
donor molecule, donor type, donor heavy atom, donor atom, acceptor molecule, acceptor atom, score
      L1  H    10    31       P1  7948  0.99
      P1  H  7989  7998       L1     4  0.27

> <Gold.Chemscore.Hbond.Weighted>
-5.8968

> <Gold.Chemscore.Metal.Weighted>
-0.0000

> <Gold.Chemscore.Lipo.Weighted>
-8.9007

> <Gold.Chemscore.Internal_Hbond.Weighted>
0.0000

> <Gold.Chemscore.DEClash.Weighted>
0.7573

> <Gold.Chemscore.DEInternal.Weighted>
1.1562

> <Gold.Chemscore.Rot.Weighted>
3.9252

> <Gold.Chemscore.Internal.Correction.Weighted>
   9.000000E+99

> <Gold.Protein.RotatedTorsions>
[ 6907 6896 6895 6894 ] final  161.75 input  -60.11 | X-H torsion
[ 7974 7965 7964 7962 ] final  173.44 input  175.53 | X-H torsion
[ 8008 7997 7996 7995 ] final -162.31 input   59.86 | X-H torsion
[ 10167 10162 10161 10158 ] final   59.50 input  -65.29 | X-H torsion
[ 10718 10713 10712 10709 ] final  -13.27 input   66.30 | X-H torsion
[ 10763 10752 10751 10750 ] final   57.16 input  -60.55 | X-H torsion
[ 11005 11000 10999 10996 ] final  178.65 input  -57.11 | X-H torsion

> <Gold.Protein.ActiveResidues>
 VAL166  LYS551  ARG553  GLY616  TRP617  ASP618  TYR619  PRO620  LYS621  CYS622 
 ASP623  PHE694  ASN695  SER759  ASP760  ASP761  ALA762  ILE779  LEU786  VAL792 
 PHE793  MET794  SER795  GLU796  ALA797  LYS798  CYS799  TRP800  GLU811  SER814 

> <Gold.Protein.RotatedAtoms>
  151.9508  133.3665  159.3999 H   0  0  0  0  0  0  0  0  0  0  0  0  # atno 6907 bound_to 6896
  150.6981  134.4342  159.5271 H   0  0  0  0  0  0  0  0  0  0  0  0  # atno 6908 bound_to 6896
  152.2014  134.8584  160.0558 H   0  0  0  0  0  0  0  0  0  0  0  0  # atno 6909 bound_to 6896
  144.7244  139.9648  143.6435 H   0  0  0  0  0  0  0  0  0  0  0  0  # atno 7974 bound_to 7965
  155.8049  140.0897  157.1936 H   0  0  0  0  0  0  0  0  0  0  0  0  # atno 8008 bound_to 7997
  154.3981  140.1465  156.3377 H   0  0  0  0  0  0  0  0  0  0  0  0  # atno 8009 bound_to 7997
  155.8425  140.3438  155.5643 H   0  0  0  0  0  0  0  0  0  0  0  0  # atno 8010 bound_to 7997
  140.1757  144.4232  150.6639 H   0  0  0  0  0  0  0  0  0  0  0  0  # atno 10167 bound_to 10162
  156.6327  130.4906  149.6123 H   0  0  0  0  0  0  0  0  0  0  0  0  # atno 10718 bound_to 10713
  152.9845  135.5651  154.5345 H   0  0  0  0  0  0  0  0  0  0  0  0  # atno 10763 bound_to 10752
  154.4811  135.2788  155.1572 H   0  0  0  0  0  0  0  0  0  0  0  0  # atno 10764 bound_to 10752
  154.3081  135.6294  153.5506 H   0  0  0  0  0  0  0  0  0  0  0  0  # atno 10765 bound_to 10752
  140.3975  134.6807  157.4543 H   0  0  0  0  0  0  0  0  0  0  0  0  # atno 11005 bound_to 11000
  146.0609  139.3603  143.0582 LP  0  0  0  0  0  0  0  0  0  0  0  0  # atno 17320 bound_to 7965
  145.8093  140.9733  143.0957 LP  0  0  0  0  0  0  0  0  0  0  0  0  # atno 17321 bound_to 7965
  140.6552  143.2236  151.5984 LP  0  0  0  0  0  0  0  0  0  0  0  0  # atno 17342 bound_to 10162
  139.5318  144.2895  152.1164 LP  0  0  0  0  0  0  0  0  0  0  0  0  # atno 17343 bound_to 10162
  156.2221  130.6744  151.1379 LP  0  0  0  0  0  0  0  0  0  0  0  0  # atno 17370 bound_to 10713
  157.7195  131.0690  150.6194 LP  0  0  0  0  0  0  0  0  0  0  0  0  # atno 17371 bound_to 10713
  140.0361  134.6336  155.9042 LP  0  0  0  0  0  0  0  0  0  0  0  0  # atno 17394 bound_to 11000
  141.1869  133.6558  156.5258 LP  0  0  0  0  0  0  0  0  0  0  0  0  # atno 17395 bound_to 11000

$$$$
