AV-unprocessed.smi:175|AV-procd|sdf|1429|dock9
  -GOLD-   2262019203D 1   1.00000     0.00000
 Structure written by MMmdl.
 47 50  0  0  0  0  0  0  0  0  1 V2000
  149.0570  133.1808  153.5578 C   0  0  0  0  0  0  0  0  0  0  0  0
  150.1684  132.9595  154.5958 C   0  0  2  0  0  0  0  0  0  0  0  0
  149.9021  131.7211  155.2505 O   0  0  0  0  0  0  0  0  0  0  0  0
  150.3588  131.7971  156.5894 C   0  0  0  0  0  0  0  0  0  0  0  0
  149.9787  133.2149  156.9867 C   0  0  0  0  0  0  0  0  0  0  0  0
  150.2899  134.0189  155.7276 C   0  0  1  0  0  0  0  0  0  0  0  0
  151.6483  134.4212  155.7944 O   0  0  0  0  0  0  0  0  0  0  0  0
  149.4233  135.2964  155.5742 C   0  0  0  0  0  0  0  0  0  0  0  0
  149.9321  136.4337  156.3262 N   0  0  0  0  0  0  0  0  0  0  0  0
  150.2687  136.4544  157.6598 C   0  0  0  0  0  0  0  0  0  0  0  0
  150.7034  137.6011  158.1045 N   0  0  0  0  0  0  0  0  0  0  0  0
  150.6737  138.4384  156.9940 C   0  0  0  0  0  0  0  0  0  0  0  0
  151.0083  139.8057  156.7591 C   0  0  0  0  0  0  0  0  0  0  0  0
  151.4850  140.6593  157.7021 N   0  0  0  0  0  0  0  0  0  0  0  0
  152.0660  140.2355  158.9677 C   0  0  0  0  0  0  0  0  0  0  0  0
  152.5340  141.5601  159.5424 C   0  0  0  0  0  0  0  0  0  0  0  0
  153.0713  141.6614  160.6441 O   0  0  0  0  0  0  0  0  0  0  0  0
  152.2721  142.5585  158.6914 N   0  0  0  0  0  0  0  0  0  0  0  0
  152.5651  143.9764  158.8890 C   0  0  0  0  0  0  0  0  0  0  0  0
  151.7959  144.5748  160.0807 C   0  0  0  0  0  0  0  0  0  0  0  0
  152.0245  145.8864  160.1293 F   0  0  0  0  0  0  0  0  0  0  0  0
  150.4837  144.3797  159.9551 F   0  0  0  0  0  0  0  0  0  0  0  0
  152.2126  144.0288  161.2232 F   0  0  0  0  0  0  0  0  0  0  0  0
  151.6005  142.0973  157.4878 C   0  0  0  0  0  0  0  0  0  0  0  0
  150.8314  140.2800  155.4975 N   0  0  0  0  0  0  0  0  0  0  0  0
  150.3701  139.4839  154.5295 C   0  0  0  0  0  0  0  0  0  0  0  0
  150.0248  138.1984  154.6026 N   0  0  0  0  0  0  0  0  0  0  0  0
  150.1912  137.7129  155.8658 C   0  0  0  0  0  0  0  0  0  0  0  0
  149.2032  134.1110  153.0084 H   0  0  0  0  0  0  0  0  0  0  0  0
  148.0724  133.2098  154.0251 H   0  0  0  0  0  0  0  0  0  0  0  0
  149.0473  132.3709  152.8282 H   0  0  0  0  0  0  0  0  0  0  0  0
  151.1175  132.8573  154.0659 H   0  0  0  0  0  0  0  0  0  0  0  0
  149.8892  131.0414  157.2192 H   0  0  0  0  0  0  0  0  0  0  0  0
  151.4401  131.6540  156.6210 H   0  0  0  0  0  0  0  0  0  0  0  0
  148.9085  133.2416  157.1946 H   0  0  0  0  0  0  0  0  0  0  0  0
  150.4998  133.5681  157.8778 H   0  0  0  0  0  0  0  0  0  0  0  0
  152.0286  134.3332  154.9336 H   0  0  0  0  0  0  0  0  0  0  0  0
  149.3559  135.5868  154.5248 H   0  0  0  0  0  0  0  0  0  0  0  0
  148.4028  135.1095  155.9085 H   0  0  0  0  0  0  0  0  0  0  0  0
  150.1754  135.5872  158.2976 H   0  0  0  0  0  0  0  0  0  0  0  0
  151.3228  139.7715  159.6172 H   0  0  0  0  0  0  0  0  0  0  0  0
  152.9109  139.5615  158.8209 H   0  0  0  0  0  0  0  0  0  0  0  0
  153.6372  144.0970  159.0486 H   0  0  0  0  0  0  0  0  0  0  0  0
  152.3305  144.5279  157.9772 H   0  0  0  0  0  0  0  0  0  0  0  0
  152.1991  142.3225  156.6040 H   0  0  0  0  0  0  0  0  0  0  0  0
  150.6173  142.5598  157.3884 H   0  0  0  0  0  0  0  0  0  0  0  0
  150.2623  139.9430  153.5580 H   0  0  0  0  0  0  0  0  0  0  0  0
  1  2  1  0  0  0  0
  1 29  1  0  0  0  0
  1 30  1  0  0  0  0
  1 31  1  0  0  0  0
  2  6  1  0  0  0  0
  2  3  1  0  0  0  0
  2 32  1  0  0  0  0
  3  4  1  0  0  0  0
  4  5  1  0  0  0  0
  4 33  1  0  0  0  0
  4 34  1  0  0  0  0
  5  6  1  0  0  0  0
  5 35  1  0  0  0  0
  5 36  1  0  0  0  0
  6  7  1  0  0  0  0
  6  8  1  0  0  0  0
  7 37  1  0  0  0  0
  8  9  1  0  0  0  0
  8 38  1  0  0  0  0
  8 39  1  0  0  0  0
  9 28  1  0  0  0  0
  9 10  1  0  0  0  0
 10 11  2  0  0  0  0
 10 40  1  0  0  0  0
 11 12  1  0  0  0  0
 12 28  2  0  0  0  0
 12 13  1  0  0  0  0
 13 14  1  0  0  0  0
 13 25  2  0  0  0  0
 14 24  1  0  0  0  0
 14 15  1  0  0  0  0
 15 16  1  0  0  0  0
 15 41  1  0  0  0  0
 15 42  1  0  0  0  0
 16 17  2  0  0  0  0
 16 18  1  0  0  0  0
 18 19  1  0  0  0  0
 18 24  1  0  0  0  0
 19 20  1  0  0  0  0
 19 43  1  0  0  0  0
 19 44  1  0  0  0  0
 20 21  1  0  0  0  0
 20 22  1  0  0  0  0
 20 23  1  0  0  0  0
 24 45  1  0  0  0  0
 24 46  1  0  0  0  0
 25 26  1  0  0  0  0
 26 27  2  0  0  0  0
 26 47  1  0  0  0  0
 27 28  1  0  0  0  0
M  END
> <s_m_source_file>
AV-unprocessed.smi

> <i_m_source_file_index>
175

> <i_lp_mmshare_version>
43012

> <i_f3d_flags>
0

> <s_epik_input>
W0NIMl0xW0NIMl1PW0NAQEhdKFtDSDNdKVtDQEBdMShbT0hdKVtDSDJdbihbY0hdbjIpYyhjMjMpbltjSF1uYzNONFtDSDJdQyg9TylOKFtDSDJdNClbQ0gyXUMoRikoRilG

> <s_epik_cmdline>
J2VwaWtfcHl0aG9uJywgJy1waCcsICc3LjAnLCAnLXRuJywgJzgnLCAnLW1hJywgJzIwMCcsICctbWV0YWxfYmluZGluZycsICctaW1hZScsICc8aW5maWxlLm1hZT4nLCAnLW9tYWUnLCAnPG91dGZpbGUubWFlPic=

> <r_lp_tautomer_probability>
1

> <r_epik_Ionization_Penalty>
0.000307802

> <r_epik_Ionization_Penalty_Charging>
0

> <r_epik_Ionization_Penalty_Neutral>
0.000307802

> <r_epik_State_Penalty>
-0

> <r_epik_Charging_Adjusted_Penalty>
0

> <i_epik_Tot_Q>
0

> <i_epik_Tot_abs_Q>
0

> <r_epik_Metal_State_Penalty>
-0

> <b_epik_Metal_Only>
0

> <s_epik_Chemistry_Notes>
This compound contains an acetal/aminal-like group ( X-CH(R)-Y where X, Y are N, S, or O) that may be acid/base labile, releasing an aldehyde.

> <s_lp_Force_Field>
OPLS_2005

> <r_lp_Energy>
32.9701

> <b_lp_Chiralities_Consistent>
1

> <s_lp_Variant>
AV-unprocessed.smi:175-1

> <Gold.Version>
5.8.1

> <Gold.Id.Protein>
6NUR|6NUR_protein|mol2

> <Gold.PLP.Fitness>
48.0831

> <Gold.PLP.PLP>
-46.0512

> <Gold.PLP.part.hbond>
-1.5631

> <Gold.PLP.part.metal>
0.0000

> <Gold.PLP.part.buried>
-5.1639

> <Gold.PLP.part.nonpolar>
-39.0559

> <Gold.PLP.part.repulsive>
0.2206

> <Gold.PLP.ligand.clash>
0.0000

> <Gold.PLP.ligand.torsion>
0.5616

> <Gold.PLP.Chemscore.Hbond>
0.0000

> <Gold.PLP.Chemscore.CHOScore>
1.0000

> <Gold.PLP.Chemscore.Metal>
0.0000

> <Gold.Chemscore.Hbonds>
donor molecule, donor type, donor heavy atom, donor atom, acceptor molecule, acceptor atom, score
      L1  C    26    47       P1  7957  1.00

> <Gold.PLP.Chemscore.Internal.Correction>
0.1550

> <Gold.Rescore>
     Score         DG    S(hbond)    S(metal)    S(lipo)     H(rot)  DE(clash)    DE(int)     intcor
      3.93      -6.10       0.00        0.00      60.84       2.54       0.02       2.15       ----

> <Gold.Chemscore.Fitness>
3.9299

> <Gold.Chemscore.DG>
-6.1017

> <Gold.Chemscore.ZeroCoef>
-5.4800

> <Gold.Chemscore.Hbond>
0.0000

> <Gold.Chemscore.Metal>
0.0000

> <Gold.Chemscore.Lipo>
60.8356

> <Gold.Chemscore.Internal_Hbond>
0.0000

> <Gold.Chemscore.DEClash>
0.0239

> <Gold.Chemscore.DEInternal>
2.1479

> <Gold.Chemscore.Rot>
2.5375

> <Gold.Chemscore.Internal.Correction>
   9.000000E+99

> <Gold.Chemscore.Hbond.Weighted>
-0.0000

> <Gold.Chemscore.Metal.Weighted>
-0.0000

> <Gold.Chemscore.Lipo.Weighted>
-7.1178

> <Gold.Chemscore.Internal_Hbond.Weighted>
0.0000

> <Gold.Chemscore.DEClash.Weighted>
0.0239

> <Gold.Chemscore.DEInternal.Weighted>
2.1479

> <Gold.Chemscore.Rot.Weighted>
6.4961

> <Gold.Chemscore.Internal.Correction.Weighted>
   9.000000E+99

> <Gold.Protein.RotatedTorsions>
[ 6907 6896 6895 6894 ] final   29.48 input  -60.11 | X-H torsion
[ 7974 7965 7964 7962 ] final -122.92 input  175.53 | X-H torsion
[ 8008 7997 7996 7995 ] final -151.99 input   59.86 | X-H torsion
[ 10167 10162 10161 10158 ] final -163.93 input  -65.29 | X-H torsion
[ 10718 10713 10712 10709 ] final  139.71 input   66.30 | X-H torsion
[ 10763 10752 10751 10750 ] final  -84.58 input  -60.55 | X-H torsion
[ 11005 11000 10999 10996 ] final -139.24 input  -57.11 | X-H torsion

> <Gold.Protein.ActiveResidues>
 VAL166  LYS551  ARG553  GLY616  TRP617  ASP618  TYR619  PRO620  LYS621  CYS622 
 ASP623  PHE694  ASN695  SER759  ASP760  ASP761  ALA762  ILE779  LEU786  VAL792 
 PHE793  MET794  SER795  GLU796  ALA797  LYS798  CYS799  TRP800  GLU811  SER814 

> <Gold.Protein.RotatedAtoms>
  152.0321  134.9761  160.0572 H   0  0  0  0  0  0  0  0  0  0  0  0  # atno 6907 bound_to 6896
  152.1233  133.4361  159.4694 H   0  0  0  0  0  0  0  0  0  0  0  0  # atno 6908 bound_to 6896
  150.6850  134.2427  159.4522 H   0  0  0  0  0  0  0  0  0  0  0  0  # atno 6909 bound_to 6896
  145.0242  140.8014  143.4362 H   0  0  0  0  0  0  0  0  0  0  0  0  # atno 7974 bound_to 7965
  155.6481  140.0709  157.2596 H   0  0  0  0  0  0  0  0  0  0  0  0  # atno 8008 bound_to 7997
  154.4168  140.1738  156.1695 H   0  0  0  0  0  0  0  0  0  0  0  0  # atno 8009 bound_to 7997
  155.9800  140.3354  155.6657 H   0  0  0  0  0  0  0  0  0  0  0  0  # atno 8010 bound_to 7997
  139.6286  144.0483  152.1996 H   0  0  0  0  0  0  0  0  0  0  0  0  # atno 10167 bound_to 10162
  157.4113  131.1028  151.0450 H   0  0  0  0  0  0  0  0  0  0  0  0  # atno 10718 bound_to 10713
  154.6011  135.5516  153.7375 H   0  0  0  0  0  0  0  0  0  0  0  0  # atno 10763 bound_to 10752
  153.0155  135.6366  154.1713 H   0  0  0  0  0  0  0  0  0  0  0  0  # atno 10764 bound_to 10752
  154.1653  135.2895  155.3077 H   0  0  0  0  0  0  0  0  0  0  0  0  # atno 10765 bound_to 10752
  140.8539  134.2252  157.4745 H   0  0  0  0  0  0  0  0  0  0  0  0  # atno 11005 bound_to 11000
  145.1855  139.2329  143.5270 LP  0  0  0  0  0  0  0  0  0  0  0  0  # atno 17320 bound_to 7965
  146.3490  140.1639  142.8590 LP  0  0  0  0  0  0  0  0  0  0  0  0  # atno 17321 bound_to 7965
  140.0143  144.6200  150.7620 LP  0  0  0  0  0  0  0  0  0  0  0  0  # atno 17342 bound_to 10162
  140.7426  143.2834  151.3533 LP  0  0  0  0  0  0  0  0  0  0  0  0  # atno 17343 bound_to 10162
  157.1414  130.6144  149.5556 LP  0  0  0  0  0  0  0  0  0  0  0  0  # atno 17370 bound_to 10713
  155.9852  130.4880  150.7018 LP  0  0  0  0  0  0  0  0  0  0  0  0  # atno 17371 bound_to 10713
  139.8705  134.9697  156.4674 LP  0  0  0  0  0  0  0  0  0  0  0  0  # atno 17394 bound_to 11000
  140.8759  133.7954  155.9414 LP  0  0  0  0  0  0  0  0  0  0  0  0  # atno 17395 bound_to 11000

$$$$
