AV-unprocessed.smi:224|AV-procd|sdf|1717|dock6
  -GOLD-   2262020193D 1   1.00000     0.00000
 Structure written by MMmdl.
 56 59  0  0  0  0  0  0  0  0  2 V2000
  143.6906  132.7687  151.3222 C   0  0  0  0  0  0  0  0  0  0  0  0
  144.7618  133.4908  150.4947 C   0  0  2  0  0  0  0  0  0  0  0  0
  144.1581  133.9266  149.2929 O   0  0  0  0  0  0  0  0  0  0  0  0
  145.9502  132.5665  150.1620 C   0  0  0  0  0  0  0  0  0  0  0  0
  146.7957  132.2804  151.3558 N   0  3  1  0  0  0  0  0  0  0  0  0
  147.2882  133.5434  151.9756 C   0  0  0  0  0  0  0  0  0  0  0  0
  148.2166  133.2766  153.1674 C   0  0  0  0  0  0  0  0  0  0  0  0
  147.5412  132.4405  154.1495 N   0  0  0  0  0  0  0  0  0  0  0  0
  146.7858  133.0875  155.0770 C   0  0  0  0  0  0  0  0  0  0  0  0
  145.6581  133.7435  154.6933 N   0  0  0  0  0  0  0  0  0  0  0  0
  144.9158  134.3979  155.5909 C   0  0  0  0  0  0  0  0  0  0  0  0
  145.1122  134.5198  156.9041 N   0  0  0  0  0  0  0  0  0  0  0  0
  146.2308  133.8496  157.3021 C   0  0  0  0  0  0  0  0  0  0  0  0
  147.1181  133.1183  156.4621 C   0  0  0  0  0  0  0  0  0  0  0  0
  148.1441  132.5721  157.2245 N   0  0  0  0  0  0  0  0  0  0  0  0
  147.8850  132.9671  158.4409 C   0  0  0  0  0  0  0  0  0  0  0  0
  146.7471  133.7287  158.5811 N   0  0  0  0  0  0  0  0  0  0  0  0
  146.2243  134.2982  159.8145 C   0  0  0  0  0  0  0  0  0  0  0  0
  146.2406  135.8480  159.8594 C   0  0  1  0  0  0  0  0  0  0  0  0
  145.4796  136.3570  158.7797 O   0  0  0  0  0  0  0  0  0  0  0  0
  145.7131  136.4445  161.1667 C   0  0  0  0  0  0  0  0  0  0  0  0
  146.9858  136.7684  161.9355 C   0  0  0  0  0  0  0  0  0  0  0  0
  147.8422  137.2450  160.9135 O   0  0  0  0  0  0  0  0  0  0  0  0
  147.6789  136.4005  159.7809 C   0  0  0  0  0  0  0  0  0  0  0  0
  147.0706  131.1728  153.5997 C   0  0  0  0  0  0  0  0  0  0  0  0
  146.1682  131.3542  152.3529 C   0  0  2  0  0  0  0  0  0  0  0  0
  145.8824  129.9551  151.7688 C   0  0  0  0  0  0  0  0  0  0  0  0
  144.0951  132.4297  152.2764 H   0  0  0  0  0  0  0  0  0  0  0  0
  143.3016  131.8956  150.7967 H   0  0  0  0  0  0  0  0  0  0  0  0
  142.8496  133.4285  151.5387 H   0  0  0  0  0  0  0  0  0  0  0  0
  145.0915  134.3676  151.0513 H   0  0  0  0  0  0  0  0  0  0  0  0
  144.8268  134.2568  148.7132 H   0  0  0  0  0  0  0  0  0  0  0  0
  145.5913  131.6237  149.7458 H   0  0  0  0  0  0  0  0  0  0  0  0
  146.5160  133.0300  149.3576 H   0  0  0  0  0  0  0  0  0  0  0  0
  147.8228  134.1438  151.2405 H   0  0  0  0  0  0  0  0  0  0  0  0
  146.4366  134.1406  152.3064 H   0  0  0  0  0  0  0  0  0  0  0  0
  149.1169  132.7607  152.8312 H   0  0  0  0  0  0  0  0  0  0  0  0
  148.5476  134.2228  153.5930 H   0  0  0  0  0  0  0  0  0  0  0  0
  144.0391  134.8945  155.2019 H   0  0  0  0  0  0  0  0  0  0  0  0
  148.5193  132.7067  159.2760 H   0  0  0  0  0  0  0  0  0  0  0  0
  145.2063  133.9306  159.9510 H   0  0  0  0  0  0  0  0  0  0  0  0
  146.8058  133.8950  160.6449 H   0  0  0  0  0  0  0  0  0  0  0  0
  144.6544  135.8974  158.7520 H   0  0  0  0  0  0  0  0  0  0  0  0
  145.1756  137.3753  160.9774 H   0  0  0  0  0  0  0  0  0  0  0  0
  145.0428  135.7934  161.7249 H   0  0  0  0  0  0  0  0  0  0  0  0
  146.8316  137.5156  162.7142 H   0  0  0  0  0  0  0  0  0  0  0  0
  147.4113  135.8725  162.3905 H   0  0  0  0  0  0  0  0  0  0  0  0
  148.4149  135.5976  159.8428 H   0  0  0  0  0  0  0  0  0  0  0  0
  147.8797  136.9546  158.8630 H   0  0  0  0  0  0  0  0  0  0  0  0
  147.9525  130.5910  153.3277 H   0  0  0  0  0  0  0  0  0  0  0  0
  146.5582  130.5901  154.3669 H   0  0  0  0  0  0  0  0  0  0  0  0
  145.2224  131.7976  152.6667 H   0  0  0  0  0  0  0  0  0  0  0  0
  145.5690  129.2668  152.5545 H   0  0  0  0  0  0  0  0  0  0  0  0
  146.7718  129.5322  151.3003 H   0  0  0  0  0  0  0  0  0  0  0  0
  145.0806  129.9534  151.0326 H   0  0  0  0  0  0  0  0  0  0  0  0
  147.6106  131.7910  151.0152 H   0  0  0  0  0  0  0  0  0  0  0  0
  1  2  1  0  0  0  0
  1 28  1  0  0  0  0
  1 29  1  0  0  0  0
  1 30  1  0  0  0  0
  2  3  1  0  0  0  0
  2  4  1  0  0  0  0
  2 31  1  0  0  0  0
  3 32  1  0  0  0  0
  4  5  1  0  0  0  0
  4 33  1  0  0  0  0
  4 34  1  0  0  0  0
  5 26  1  0  0  0  0
  5  6  1  0  0  0  0
  5 56  1  0  0  0  0
  6  7  1  0  0  0  0
  6 35  1  0  0  0  0
  6 36  1  0  0  0  0
  7  8  1  0  0  0  0
  7 37  1  0  0  0  0
  7 38  1  0  0  0  0
  8  9  1  0  0  0  0
  8 25  1  0  0  0  0
  9 14  1  0  0  0  0
  9 10  2  0  0  0  0
 10 11  1  0  0  0  0
 11 12  2  0  0  0  0
 11 39  1  0  0  0  0
 12 13  1  0  0  0  0
 13 17  1  0  0  0  0
 13 14  2  0  0  0  0
 14 15  1  0  0  0  0
 15 16  2  0  0  0  0
 16 17  1  0  0  0  0
 16 40  1  0  0  0  0
 17 18  1  0  0  0  0
 18 19  1  0  0  0  0
 18 41  1  0  0  0  0
 18 42  1  0  0  0  0
 19 24  1  0  0  0  0
 19 20  1  0  0  0  0
 19 21  1  0  0  0  0
 20 43  1  0  0  0  0
 21 22  1  0  0  0  0
 21 44  1  0  0  0  0
 21 45  1  0  0  0  0
 22 23  1  0  0  0  0
 22 46  1  0  0  0  0
 22 47  1  0  0  0  0
 23 24  1  0  0  0  0
 24 48  1  0  0  0  0
 24 49  1  0  0  0  0
 25 26  1  0  0  0  0
 25 50  1  0  0  0  0
 25 51  1  0  0  0  0
 26 27  1  0  0  0  0
 26 52  1  0  0  0  0
 27 53  1  0  0  0  0
 27 54  1  0  0  0  0
 27 55  1  0  0  0  0
M  CHG  1   5   1
M  END
> <s_m_source_file>
AV-unprocessed.smi

> <i_m_source_file_index>
224

> <i_lp_mmshare_version>
43012

> <i_f3d_flags>
0

> <s_epik_input>
W0NIM11bQ0BIXShbT0hdKVtDSDJdTjFbQ0gyXVtDSDJdTihbQ0gyXVtDQEhdMVtDSDNdKWMobltjSF1uMiljKGMyMyluW2NIXW4zW0NIMl1bQ0BAXTQoW09IXSlbQ0gyXVtDSDJdT1tDSDJdNA==

> <s_epik_cmdline>
J2VwaWtfcHl0aG9uJywgJy1waCcsICc3LjAnLCAnLXRuJywgJzgnLCAnLW1hJywgJzIwMCcsICctbWV0YWxfYmluZGluZycsICctaW1hZScsICc8aW5maWxlLm1hZT4nLCAnLW9tYWUnLCAnPG91dGZpbGUubWFlPic=

> <r_lp_tautomer_probability>
1

> <r_epik_Ionization_Penalty>
0.00516958

> <r_epik_Ionization_Penalty_Charging>
0.00509693

> <r_epik_Ionization_Penalty_Neutral>
7.26542e-05

> <r_epik_State_Penalty>
-0

> <r_epik_Charging_Adjusted_Penalty>
0.00509693

> <i_epik_Tot_Q>
1

> <i_epik_Tot_abs_Q>
1

> <r_epik_Metal_State_Penalty>
-0

> <b_epik_Metal_Only>
0

> <s_lp_Force_Field>
OPLS_2005

> <r_lp_Energy>
50.0315

> <b_lp_Chiralities_Consistent>
1

> <s_lp_Variant>
AV-unprocessed.smi:224-11

> <Gold.Version>
5.8.1

> <Gold.Id.Protein>
6NUR|6NUR_protein|mol2

> <Gold.PLP.Fitness>
44.4531

> <Gold.PLP.PLP>
-33.2169

> <Gold.PLP.part.hbond>
-4.6357

> <Gold.PLP.part.metal>
0.0000

> <Gold.PLP.part.buried>
-5.4143

> <Gold.PLP.part.nonpolar>
-23.2063

> <Gold.PLP.part.repulsive>
0.2075

> <Gold.PLP.ligand.clash>
0.0000

> <Gold.PLP.ligand.torsion>
0.3672

> <Gold.PLP.Chemscore.Hbond>
3.8080

> <Gold.PLP.Chemscore.CHOScore>
0.0000

> <Gold.PLP.Chemscore.Metal>
0.0000

> <Gold.Chemscore.Hbonds>
donor molecule, donor type, donor heavy atom, donor atom, acceptor molecule, acceptor atom, score
      L1  H     3    32       P1  7921  1.00
      L1  H     5    56       P1 10747  1.00
      P1  H  6931  6943       L1    23  0.86
      P1  H  6934  6947       L1    23  0.65

> <Gold.PLP.Chemscore.Internal.Correction>
0.5466

> <Gold.Rescore>
     Score         DG    S(hbond)    S(metal)    S(lipo)     H(rot)  DE(clash)    DE(int)     intcor
     16.34     -17.89       3.55        0.00      78.18       3.36       0.08       1.47       ----

> <Gold.Chemscore.Fitness>
16.3370

> <Gold.Chemscore.DG>
-17.8920

> <Gold.Chemscore.ZeroCoef>
-5.4800

> <Gold.Chemscore.Hbond>
3.5538

> <Gold.Chemscore.Metal>
0.0000

> <Gold.Chemscore.Lipo>
78.1783

> <Gold.Chemscore.Internal_Hbond>
0.0000

> <Gold.Chemscore.DEClash>
0.0811

> <Gold.Chemscore.DEInternal>
1.4739

> <Gold.Chemscore.Rot>
3.3611

> <Gold.Chemscore.Internal.Correction>
   9.000000E+99

> <Gold.Chemscore.Hbonds>
donor molecule, donor type, donor heavy atom, donor atom, acceptor molecule, acceptor atom, score
      L1  H     3    32       P1  7921  1.00
      L1  H     5    56       P1 10747  1.00
      P1  H  6931  6943       L1    23  0.25
      P1  H  6934  6947       L1    23  0.09

> <Gold.Chemscore.Hbond.Weighted>
-11.8696

> <Gold.Chemscore.Metal.Weighted>
-0.0000

> <Gold.Chemscore.Lipo.Weighted>
-9.1469

> <Gold.Chemscore.Internal_Hbond.Weighted>
0.0000

> <Gold.Chemscore.DEClash.Weighted>
0.0811

> <Gold.Chemscore.DEInternal.Weighted>
1.4739

> <Gold.Chemscore.Rot.Weighted>
8.6045

> <Gold.Chemscore.Internal.Correction.Weighted>
   9.000000E+99

> <Gold.Protein.RotatedTorsions>
[ 6907 6896 6895 6894 ] final  174.20 input  -60.11 | X-H torsion
[ 7974 7965 7964 7962 ] final  111.05 input  175.53 | X-H torsion
[ 8008 7997 7996 7995 ] final   35.97 input   59.86 | X-H torsion
[ 10167 10162 10161 10158 ] final -106.06 input  -65.29 | X-H torsion
[ 10718 10713 10712 10709 ] final  -46.11 input   66.30 | X-H torsion
[ 10763 10752 10751 10750 ] final   -2.82 input  -60.55 | X-H torsion
[ 11005 11000 10999 10996 ] final  -85.33 input  -57.11 | X-H torsion

> <Gold.Protein.ActiveResidues>
 VAL166  LYS551  ARG553  GLY616  TRP617  ASP618  TYR619  PRO620  LYS621  CYS622 
 ASP623  PHE694  ASN695  SER759  ASP760  ASP761  ALA762  ILE779  LEU786  VAL792 
 PHE793  MET794  SER795  GLU796  ALA797  LYS798  CYS799  TRP800  GLU811  SER814 

> <Gold.Protein.RotatedAtoms>
  151.7561  133.3330  159.3404 H   0  0  0  0  0  0  0  0  0  0  0  0  # atno 6907 bound_to 6896
  150.7516  134.6148  159.6114 H   0  0  0  0  0  0  0  0  0  0  0  0  # atno 6908 bound_to 6896
  152.3436  134.7103  160.0308 H   0  0  0  0  0  0  0  0  0  0  0  0  # atno 6909 bound_to 6896
  145.2472  139.2754  143.4087 H   0  0  0  0  0  0  0  0  0  0  0  0  # atno 7974 bound_to 7965
  155.1798  140.3299  155.4377 H   0  0  0  0  0  0  0  0  0  0  0  0  # atno 8008 bound_to 7997
  156.2481  140.1929  156.6847 H   0  0  0  0  0  0  0  0  0  0  0  0  # atno 8009 bound_to 7997
  154.6279  140.0586  156.9682 H   0  0  0  0  0  0  0  0  0  0  0  0  # atno 8010 bound_to 7997
  140.1918  143.3886  152.1200 H   0  0  0  0  0  0  0  0  0  0  0  0  # atno 10167 bound_to 10162
  156.2215  130.4166  149.8986 H   0  0  0  0  0  0  0  0  0  0  0  0  # atno 10718 bound_to 10713
  153.3631  135.6991  153.6696 H   0  0  0  0  0  0  0  0  0  0  0  0  # atno 10763 bound_to 10752
  153.5377  135.3579  155.2705 H   0  0  0  0  0  0  0  0  0  0  0  0  # atno 10764 bound_to 10752
  154.8671  135.4196  154.2893 H   0  0  0  0  0  0  0  0  0  0  0  0  # atno 10765 bound_to 10752
  141.1642  133.7393  156.8999 H   0  0  0  0  0  0  0  0  0  0  0  0  # atno 11005 bound_to 11000
  146.3312  140.2852  142.8612 LP  0  0  0  0  0  0  0  0  0  0  0  0  # atno 17320 bound_to 7965
  144.9536  140.8203  143.5557 LP  0  0  0  0  0  0  0  0  0  0  0  0  # atno 17321 bound_to 7965
  139.5253  144.7094  151.5254 LP  0  0  0  0  0  0  0  0  0  0  0  0  # atno 17342 bound_to 10162
  140.6450  143.8812  150.6729 LP  0  0  0  0  0  0  0  0  0  0  0  0  # atno 17343 bound_to 10162
  156.6631  130.8790  151.3550 LP  0  0  0  0  0  0  0  0  0  0  0  0  # atno 17370 bound_to 10713
  157.7090  130.9418  150.1025 LP  0  0  0  0  0  0  0  0  0  0  0  0  # atno 17371 bound_to 10713
  140.1590  134.9179  157.2690 LP  0  0  0  0  0  0  0  0  0  0  0  0  # atno 17394 bound_to 11000
  140.2634  134.3545  155.7398 LP  0  0  0  0  0  0  0  0  0  0  0  0  # atno 17395 bound_to 11000

$$$$
