AV-unprocessed.smi:229|AV-procd|sdf|1750|dock5
  -GOLD-   2262020273D 1   1.00000     0.00000
 Structure written by MMmdl.
 58 62  0  0  0  0  0  0  0  0  1 V2000
  152.0350  144.6762  158.4705 C   0  0  0  0  0  0  0  0  0  0  0  0
  152.7495  144.1402  159.7180 C   0  0  0  0  0  0  0  0  0  0  0  0
  152.7445  142.6062  159.8225 C   0  0  1  0  0  0  0  0  0  0  0  0
  152.0437  141.9283  158.6306 C   0  0  0  0  0  0  0  0  0  0  0  0
  152.2032  140.4822  158.7111 N   0  0  0  0  0  0  0  0  0  0  0  0
  151.3673  139.7725  157.9122 C   0  0  0  0  0  0  0  0  0  0  0  0
  151.1881  138.4409  158.1244 N   0  0  0  0  0  0  0  0  0  0  0  0
  150.3710  137.7357  157.3365 C   0  0  0  0  0  0  0  0  0  0  0  0
  149.6444  138.1551  156.2993 N   0  0  0  0  0  0  0  0  0  0  0  0
  149.8121  139.4917  156.0876 C   0  0  0  0  0  0  0  0  0  0  0  0
  150.6464  140.3668  156.8385 C   0  0  0  0  0  0  0  0  0  0  0  0
  150.5470  141.6600  156.3376 N   0  0  0  0  0  0  0  0  0  0  0  0
  149.6995  141.5558  155.3505 C   0  0  0  0  0  0  0  0  0  0  0  0
  149.2050  140.2902  155.1343 N   0  0  0  0  0  0  0  0  0  0  0  0
  148.2393  139.8981  154.1239 C   0  0  0  0  0  0  0  0  0  0  0  0
  147.2623  141.0334  153.7505 C   0  0  1  0  0  0  0  0  0  0  0  0
  146.4877  140.5784  152.6587 O   0  0  0  0  0  0  0  0  0  0  0  0
  146.3199  141.4632  154.8971 C   0  0  2  0  0  0  0  0  0  0  0  0
  145.4821  142.7100  154.6088 C   0  0  0  0  0  0  0  0  0  0  0  0
  145.1200  143.2177  155.9951 C   0  0  0  0  0  0  0  0  0  0  0  0
  146.1585  142.5623  156.9091 C   0  0  0  0  0  0  0  0  0  0  0  0
  147.0556  141.8968  156.0319 O   0  0  0  0  0  0  0  0  0  0  0  0
  153.6012  140.0705  158.7799 C   0  0  0  0  0  0  0  0  0  0  0  0
  154.3160  140.7657  159.9570 C   0  0  1  0  0  0  0  0  0  0  0  0
  153.9591  140.2035  161.3297 C   0  0  0  0  0  0  0  0  0  0  0  0
  155.1688  140.6036  162.1601 C   0  0  0  0  0  0  0  0  0  0  0  0
  156.2664  140.3963  161.2839 O   0  0  0  0  0  0  0  0  0  0  0  0
  155.8367  140.5429  159.9318 C   0  0  0  0  0  0  0  0  0  0  0  0
  154.1077  142.1811  159.8736 O   0  0  0  0  0  0  0  0  0  0  0  0
  152.0165  145.7661  158.4755 H   0  0  0  0  0  0  0  0  0  0  0  0
  151.0029  144.3276  158.4277 H   0  0  0  0  0  0  0  0  0  0  0  0
  152.5350  144.3614  157.5546 H   0  0  0  0  0  0  0  0  0  0  0  0
  153.7752  144.5098  159.7423 H   0  0  0  0  0  0  0  0  0  0  0  0
  152.2580  144.5542  160.5991 H   0  0  0  0  0  0  0  0  0  0  0  0
  152.2397  142.3303  160.7475 H   0  0  0  0  0  0  0  0  0  0  0  0
  150.9908  142.2059  158.6140 H   0  0  0  0  0  0  0  0  0  0  0  0
  152.4768  142.2774  157.6921 H   0  0  0  0  0  0  0  0  0  0  0  0
  150.2866  136.6850  157.5717 H   0  0  0  0  0  0  0  0  0  0  0  0
  149.4024  142.4065  154.7547 H   0  0  0  0  0  0  0  0  0  0  0  0
  148.7890  139.5680  153.2412 H   0  0  0  0  0  0  0  0  0  0  0  0
  147.6899  139.0292  154.4887 H   0  0  0  0  0  0  0  0  0  0  0  0
  147.8282  141.9012  153.4092 H   0  0  0  0  0  0  0  0  0  0  0  0
  145.7201  141.1242  152.5858 H   0  0  0  0  0  0  0  0  0  0  0  0
  145.6658  140.6370  155.1832 H   0  0  0  0  0  0  0  0  0  0  0  0
  146.0866  143.4564  154.0915 H   0  0  0  0  0  0  0  0  0  0  0  0
  144.6064  142.4997  153.9942 H   0  0  0  0  0  0  0  0  0  0  0  0
  145.1588  144.3064  156.0423 H   0  0  0  0  0  0  0  0  0  0  0  0
  144.1147  142.9035  156.2779 H   0  0  0  0  0  0  0  0  0  0  0  0
  146.6887  143.2861  157.5284 H   0  0  0  0  0  0  0  0  0  0  0  0
  145.6877  141.8305  157.5668 H   0  0  0  0  0  0  0  0  0  0  0  0
  153.6747  138.9870  158.8840 H   0  0  0  0  0  0  0  0  0  0  0  0
  154.0923  140.3373  157.8427 H   0  0  0  0  0  0  0  0  0  0  0  0
  153.0193  140.5620  161.7462 H   0  0  0  0  0  0  0  0  0  0  0  0
  153.8994  139.1152  161.2848 H   0  0  0  0  0  0  0  0  0  0  0  0
  155.1177  141.6590  162.4312 H   0  0  0  0  0  0  0  0  0  0  0  0
  155.2675  140.0178  163.0740 H   0  0  0  0  0  0  0  0  0  0  0  0
  156.0905  139.6225  159.4047 H   0  0  0  0  0  0  0  0  0  0  0  0
  156.3662  141.3586  159.4381 H   0  0  0  0  0  0  0  0  0  0  0  0
  1  2  1  0  0  0  0
  1 30  1  0  0  0  0
  1 31  1  0  0  0  0
  1 32  1  0  0  0  0
  2  3  1  0  0  0  0
  2 33  1  0  0  0  0
  2 34  1  0  0  0  0
  3 29  1  0  0  0  0
  3  4  1  0  0  0  0
  3 35  1  0  0  0  0
  4  5  1  0  0  0  0
  4 36  1  0  0  0  0
  4 37  1  0  0  0  0
  5  6  1  0  0  0  0
  5 23  1  0  0  0  0
  6 11  1  0  0  0  0
  6  7  2  0  0  0  0
  7  8  1  0  0  0  0
  8  9  2  0  0  0  0
  8 38  1  0  0  0  0
  9 10  1  0  0  0  0
 10 14  1  0  0  0  0
 10 11  2  0  0  0  0
 11 12  1  0  0  0  0
 12 13  2  0  0  0  0
 13 14  1  0  0  0  0
 13 39  1  0  0  0  0
 14 15  1  0  0  0  0
 15 16  1  0  0  0  0
 15 40  1  0  0  0  0
 15 41  1  0  0  0  0
 16 17  1  0  0  0  0
 16 18  1  0  0  0  0
 16 42  1  0  0  0  0
 17 43  1  0  0  0  0
 18 22  1  0  0  0  0
 18 19  1  0  0  0  0
 18 44  1  0  0  0  0
 19 20  1  0  0  0  0
 19 45  1  0  0  0  0
 19 46  1  0  0  0  0
 20 21  1  0  0  0  0
 20 47  1  0  0  0  0
 20 48  1  0  0  0  0
 21 22  1  0  0  0  0
 21 49  1  0  0  0  0
 21 50  1  0  0  0  0
 23 24  1  0  0  0  0
 23 51  1  0  0  0  0
 23 52  1  0  0  0  0
 24 28  1  0  0  0  0
 24 25  1  0  0  0  0
 24 29  1  0  0  0  0
 25 26  1  0  0  0  0
 25 53  1  0  0  0  0
 25 54  1  0  0  0  0
 26 27  1  0  0  0  0
 26 55  1  0  0  0  0
 26 56  1  0  0  0  0
 27 28  1  0  0  0  0
 28 57  1  0  0  0  0
 28 58  1  0  0  0  0
M  END
> <s_m_source_file>
AV-unprocessed.smi

> <i_m_source_file_index>
229

> <i_lp_mmshare_version>
43012

> <i_f3d_flags>
0

> <s_epik_input>
W0NIMl0xT1tDSDJdW0NIMl1bQ0BdMTJbQ0gyXU4oW0NIMl1bQ0BIXShPMilbQ0gyXVtDSDNdKWMobltjSF1uMyljKGMzNCluW2NIXW40W0NIMl1bQ0BIXShbT0hdKVtDQEBIXTVbQ0gyXVtDSDJdW0NIMl1PNQ==

> <s_epik_cmdline>
J2VwaWtfcHl0aG9uJywgJy1waCcsICc3LjAnLCAnLXRuJywgJzgnLCAnLW1hJywgJzIwMCcsICctbWV0YWxfYmluZGluZycsICctaW1hZScsICc8aW5maWxlLm1hZT4nLCAnLW9tYWUnLCAnPG91dGZpbGUubWFlPic=

> <r_lp_tautomer_probability>
1

> <r_epik_Ionization_Penalty>
0.00318402

> <r_epik_Ionization_Penalty_Charging>
0

> <r_epik_Ionization_Penalty_Neutral>
0.00318402

> <r_epik_State_Penalty>
0.00215642

> <r_epik_Charging_Adjusted_Penalty>
0.00215642

> <i_epik_Tot_Q>
0

> <i_epik_Tot_abs_Q>
0

> <r_epik_Metal_State_Penalty>
-0

> <b_epik_Metal_Only>
0

> <s_lp_Force_Field>
OPLS_2005

> <r_lp_Energy>
55.6403

> <b_lp_Chiralities_Consistent>
1

> <s_lp_Variant>
AV-unprocessed.smi:229-4

> <Gold.Version>
5.8.1

> <Gold.Id.Protein>
6NUR|6NUR_protein|mol2

> <Gold.PLP.Fitness>
46.3018

> <Gold.PLP.PLP>
-45.8956

> <Gold.PLP.part.hbond>
-2.2706

> <Gold.PLP.part.metal>
0.0000

> <Gold.PLP.part.buried>
-3.6503

> <Gold.PLP.part.nonpolar>
-40.3071

> <Gold.PLP.part.repulsive>
0.2153

> <Gold.PLP.ligand.clash>
0.0000

> <Gold.PLP.ligand.torsion>
1.3818

> <Gold.PLP.Chemscore.Hbond>
0.0524

> <Gold.PLP.Chemscore.CHOScore>
0.8943

> <Gold.PLP.Chemscore.Metal>
0.0000

> <Gold.Chemscore.Hbonds>
donor molecule, donor type, donor heavy atom, donor atom, acceptor molecule, acceptor atom, score
      L1  H    17    43       P1 10175  0.28
      L1  C    13    39       P1  8028  0.92

> <Gold.PLP.Chemscore.Internal.Correction>
0.3298

> <Gold.Rescore>
     Score         DG    S(hbond)    S(metal)    S(lipo)     H(rot)  DE(clash)    DE(int)     intcor
      7.42     -12.42       0.06        0.00     111.58       2.46       0.06       4.94       ----

> <Gold.Chemscore.Fitness>
7.4200

> <Gold.Chemscore.DG>
-12.4250

> <Gold.Chemscore.ZeroCoef>
-5.4800

> <Gold.Chemscore.Hbond>
0.0557

> <Gold.Chemscore.Metal>
0.0000

> <Gold.Chemscore.Lipo>
111.5753

> <Gold.Chemscore.Internal_Hbond>
0.0000

> <Gold.Chemscore.DEClash>
0.0645

> <Gold.Chemscore.DEInternal>
4.9404

> <Gold.Chemscore.Rot>
2.4591

> <Gold.Chemscore.Internal.Correction>
   9.000000E+99

> <Gold.Chemscore.Hbonds>
donor molecule, donor type, donor heavy atom, donor atom, acceptor molecule, acceptor atom, score
      L1  H    17    43       P1 10175  0.02

> <Gold.Chemscore.Hbond.Weighted>
-0.1860

> <Gold.Chemscore.Metal.Weighted>
-0.0000

> <Gold.Chemscore.Lipo.Weighted>
-13.0543

> <Gold.Chemscore.Internal_Hbond.Weighted>
0.0000

> <Gold.Chemscore.DEClash.Weighted>
0.0645

> <Gold.Chemscore.DEInternal.Weighted>
4.9404

> <Gold.Chemscore.Rot.Weighted>
6.2953

> <Gold.Chemscore.Internal.Correction.Weighted>
   9.000000E+99

> <Gold.Protein.RotatedTorsions>
[ 6907 6896 6895 6894 ] final   45.96 input  -60.11 | X-H torsion
[ 7974 7965 7964 7962 ] final  167.45 input  175.53 | X-H torsion
[ 8008 7997 7996 7995 ] final  -88.73 input   59.86 | X-H torsion
[ 10167 10162 10161 10158 ] final   22.67 input  -65.29 | X-H torsion
[ 10718 10713 10712 10709 ] final  152.27 input   66.30 | X-H torsion
[ 10763 10752 10751 10750 ] final  156.95 input  -60.55 | X-H torsion
[ 11005 11000 10999 10996 ] final  -42.01 input  -57.11 | X-H torsion

> <Gold.Protein.ActiveResidues>
 VAL166  LYS551  ARG553  GLY616  TRP617  ASP618  TYR619  PRO620  LYS621  CYS622 
 ASP623  PHE694  ASN695  SER759  ASP760  ASP761  ALA762  ILE779  LEU786  VAL792 
 PHE793  MET794  SER795  GLU796  ALA797  LYS798  CYS799  TRP800  GLU811  SER814 

> <Gold.Protein.RotatedAtoms>
  152.2508  134.8134  160.0445 H   0  0  0  0  0  0  0  0  0  0  0  0  # atno 6907 bound_to 6896
  151.8815  133.3491  159.3776 H   0  0  0  0  0  0  0  0  0  0  0  0  # atno 6908 bound_to 6896
  150.7083  134.4940  159.5573 H   0  0  0  0  0  0  0  0  0  0  0  0  # atno 6909 bound_to 6896
  144.7424  139.8762  143.6393 H   0  0  0  0  0  0  0  0  0  0  0  0  # atno 7974 bound_to 7965
  154.6783  140.0550  157.0239 H   0  0  0  0  0  0  0  0  0  0  0  0  # atno 8008 bound_to 7997
  155.0989  140.3227  155.4534 H   0  0  0  0  0  0  0  0  0  0  0  0  # atno 8009 bound_to 7997
  156.2684  140.2035  156.6115 H   0  0  0  0  0  0  0  0  0  0  0  0  # atno 8010 bound_to 7997
  140.5330  143.9809  150.6476 H   0  0  0  0  0  0  0  0  0  0  0  0  # atno 10167 bound_to 10162
  157.2600  131.0796  151.1672 H   0  0  0  0  0  0  0  0  0  0  0  0  # atno 10718 bound_to 10713
  154.1924  135.2794  155.3017 H   0  0  0  0  0  0  0  0  0  0  0  0  # atno 10763 bound_to 10752
  154.5918  135.5557  153.7289 H   0  0  0  0  0  0  0  0  0  0  0  0  # atno 10764 bound_to 10752
  153.0109  135.6370  154.2063 H   0  0  0  0  0  0  0  0  0  0  0  0  # atno 10765 bound_to 10752
  141.0286  133.6830  156.2536 H   0  0  0  0  0  0  0  0  0  0  0  0  # atno 11005 bound_to 11000
  146.1244  139.4268  143.0208 LP  0  0  0  0  0  0  0  0  0  0  0  0  # atno 17320 bound_to 7965
  145.7256  141.0060  143.1379 LP  0  0  0  0  0  0  0  0  0  0  0  0  # atno 17321 bound_to 7965
  140.3189  143.3150  152.0804 LP  0  0  0  0  0  0  0  0  0  0  0  0  # atno 17342 bound_to 10162
  139.4961  144.6587  151.6514 LP  0  0  0  0  0  0  0  0  0  0  0  0  # atno 17343 bound_to 10162
  157.3186  130.6925  149.6256 LP  0  0  0  0  0  0  0  0  0  0  0  0  # atno 17370 bound_to 10713
  155.9664  130.4342  150.5039 LP  0  0  0  0  0  0  0  0  0  0  0  0  # atno 17371 bound_to 10713
  140.6447  134.5129  157.5572 LP  0  0  0  0  0  0  0  0  0  0  0  0  # atno 17394 bound_to 11000
  139.9192  134.8183  156.1265 LP  0  0  0  0  0  0  0  0  0  0  0  0  # atno 17395 bound_to 11000

$$$$
