AV-unprocessed.smi:36|AV-procd|sdf|295|dock3
  -GOLD-   2262016 93D 1   1.00000     0.00000
 Structure written by MMmdl.
 63 66  0  0  0  0  0  0  0  0  2 V2000
  151.6935  128.7352  166.6837 C   0  0  0  0  0  0  0  0  0  0  0  0
  152.6054  127.9024  165.7676 C   0  0  0  0  0  0  0  0  0  0  0  0
  154.0226  127.8447  166.3628 C   0  0  0  0  0  0  0  0  0  0  0  0
  152.0405  126.4800  165.6195 C   0  0  0  0  0  0  0  0  0  0  0  0
  152.6921  128.7323  164.0495 Si  0  0  0  0  0  0  0  0  0  0  0  0
  153.7106  127.6778  162.8372 C   0  0  0  0  0  0  0  0  0  0  0  0
  150.9553  129.0234  163.3368 C   0  0  0  0  0  0  0  0  0  0  0  0
  153.4356  130.2417  164.2421 O   0  0  0  0  0  0  0  0  0  0  0  0
  152.9470  131.2656  165.0844 C   0  0  0  0  0  0  0  0  0  0  0  0
  153.8355  132.5079  164.9342 C   0  0  2  0  0  0  0  0  0  0  0  0
  153.7376  133.0104  163.6051 O   0  0  0  0  0  0  0  0  0  0  0  0
  154.9313  133.6359  163.2378 C   0  0  1  0  0  0  0  0  0  0  0  0
  154.6554  135.0901  163.0380 N   0  0  0  0  0  0  0  0  0  0  0  0
  154.3442  136.0242  163.9601 C   0  0  0  0  0  0  0  0  0  0  0  0
  154.1347  137.2664  163.5273 N   0  0  0  0  0  0  0  0  0  0  0  0
  154.3285  137.1240  162.1606 C   0  0  0  0  0  0  0  0  0  0  0  0
  154.2550  138.0452  161.0792 C   0  0  0  0  0  0  0  0  0  0  0  0
  153.9590  139.3435  161.2461 N   0  5  0  0  0  0  0  0  0  0  0  0
  153.8582  140.1592  160.1660 C   0  0  0  0  0  0  0  0  0  0  0  0
  154.2672  139.9527  159.0215 O   0  0  0  0  0  0  0  0  0  0  0  0
  153.2232  141.4879  160.4800 C   0  0  0  0  0  0  0  0  0  0  0  0
  153.0473  141.8785  161.8273 C   0  0  0  0  0  0  0  0  0  0  0  0
  152.4767  143.1269  162.1432 C   0  0  0  0  0  0  0  0  0  0  0  0
  152.0837  144.0029  161.1145 C   0  0  0  0  0  0  0  0  0  0  0  0
  152.2664  143.6315  159.7694 C   0  0  0  0  0  0  0  0  0  0  0  0
  152.8376  142.3835  159.4527 C   0  0  0  0  0  0  0  0  0  0  0  0
  154.5204  137.5597  159.8393 N   0  0  0  0  0  0  0  0  0  0  0  0
  154.8204  136.2665  159.6687 C   0  0  0  0  0  0  0  0  0  0  0  0
  154.9152  135.2972  160.5843 N   0  0  0  0  0  0  0  0  0  0  0  0
  154.6575  135.7757  161.8363 C   0  0  0  0  0  0  0  0  0  0  0  0
  155.9268  133.4312  164.3837 C   0  0  0  0  0  0  0  0  0  0  0  0
  155.3307  132.2307  165.0899 C   0  0  1  0  0  0  0  0  0  0  0  0
  155.7323  132.1853  166.4441 O   0  0  0  0  0  0  0  0  0  0  0  0
  151.6295  128.2998  167.6816 H   0  0  0  0  0  0  0  0  0  0  0  0
  150.6796  128.7965  166.2878 H   0  0  0  0  0  0  0  0  0  0  0  0
  152.0662  129.7541  166.7927 H   0  0  0  0  0  0  0  0  0  0  0  0
  154.4551  128.8420  166.4528 H   0  0  0  0  0  0  0  0  0  0  0  0
  154.6931  127.2522  165.7402 H   0  0  0  0  0  0  0  0  0  0  0  0
  154.0182  127.3970  167.3570 H   0  0  0  0  0  0  0  0  0  0  0  0
  151.9820  125.9749  166.5842 H   0  0  0  0  0  0  0  0  0  0  0  0
  152.6655  125.8696  164.9671 H   0  0  0  0  0  0  0  0  0  0  0  0
  151.0366  126.4939  165.1947 H   0  0  0  0  0  0  0  0  0  0  0  0
  153.2421  126.7099  162.6607 H   0  0  0  0  0  0  0  0  0  0  0  0
  154.7148  127.4858  163.2140 H   0  0  0  0  0  0  0  0  0  0  0  0
  153.8156  128.1664  161.8689 H   0  0  0  0  0  0  0  0  0  0  0  0
  150.4139  128.0872  163.2039 H   0  0  0  0  0  0  0  0  0  0  0  0
  151.0003  129.5133  162.3644 H   0  0  0  0  0  0  0  0  0  0  0  0
  150.3555  129.6565  163.9902 H   0  0  0  0  0  0  0  0  0  0  0  0
  151.9175  131.4970  164.8090 H   0  0  0  0  0  0  0  0  0  0  0  0
  152.9310  130.9185  166.1176 H   0  0  0  0  0  0  0  0  0  0  0  0
  153.5328  133.2940  165.6275 H   0  0  0  0  0  0  0  0  0  0  0  0
  155.2771  133.2589  162.2748 H   0  0  0  0  0  0  0  0  0  0  0  0
  154.2653  135.7793  165.0089 H   0  0  0  0  0  0  0  0  0  0  0  0
  153.3445  141.2183  162.6291 H   0  0  0  0  0  0  0  0  0  0  0  0
  152.3420  143.4118  163.1760 H   0  0  0  0  0  0  0  0  0  0  0  0
  151.6465  144.9602  161.3567 H   0  0  0  0  0  0  0  0  0  0  0  0
  151.9717  144.3052  158.9787 H   0  0  0  0  0  0  0  0  0  0  0  0
  152.9786  142.1228  158.4136 H   0  0  0  0  0  0  0  0  0  0  0  0
  155.0128  135.9648  158.6499 H   0  0  0  0  0  0  0  0  0  0  0  0
  156.9363  133.2657  164.0066 H   0  0  0  0  0  0  0  0  0  0  0  0
  155.9291  134.3061  165.0368 H   0  0  0  0  0  0  0  0  0  0  0  0
  155.6118  131.3096  164.5772 H   0  0  0  0  0  0  0  0  0  0  0  0
  155.1961  131.5521  166.8968 H   0  0  0  0  0  0  0  0  0  0  0  0
  1  2  1  0  0  0  0
  1 34  1  0  0  0  0
  1 35  1  0  0  0  0
  1 36  1  0  0  0  0
  2  3  1  0  0  0  0
  2  4  1  0  0  0  0
  2  5  1  0  0  0  0
  3 37  1  0  0  0  0
  3 38  1  0  0  0  0
  3 39  1  0  0  0  0
  4 40  1  0  0  0  0
  4 41  1  0  0  0  0
  4 42  1  0  0  0  0
  5  6  1  0  0  0  0
  5  7  1  0  0  0  0
  5  8  1  0  0  0  0
  6 43  1  0  0  0  0
  6 44  1  0  0  0  0
  6 45  1  0  0  0  0
  7 46  1  0  0  0  0
  7 47  1  0  0  0  0
  7 48  1  0  0  0  0
  8  9  1  0  0  0  0
  9 10  1  0  0  0  0
  9 49  1  0  0  0  0
  9 50  1  0  0  0  0
 10 32  1  0  0  0  0
 10 11  1  0  0  0  0
 10 51  1  0  0  0  0
 11 12  1  0  0  0  0
 12 13  1  0  0  0  0
 12 31  1  0  0  0  0
 12 52  1  0  0  0  0
 13 30  1  0  0  0  0
 13 14  1  0  0  0  0
 14 15  2  0  0  0  0
 14 53  1  0  0  0  0
 15 16  1  0  0  0  0
 16 30  2  0  0  0  0
 16 17  1  0  0  0  0
 17 18  1  0  0  0  0
 17 27  2  0  0  0  0
 18 19  1  0  0  0  0
 19 20  2  0  0  0  0
 19 21  1  0  0  0  0
 21 26  1  0  0  0  0
 21 22  2  0  0  0  0
 22 23  1  0  0  0  0
 22 54  1  0  0  0  0
 23 24  2  0  0  0  0
 23 55  1  0  0  0  0
 24 25  1  0  0  0  0
 24 56  1  0  0  0  0
 25 26  2  0  0  0  0
 25 57  1  0  0  0  0
 26 58  1  0  0  0  0
 27 28  1  0  0  0  0
 28 29  2  0  0  0  0
 28 59  1  0  0  0  0
 29 30  1  0  0  0  0
 31 32  1  0  0  0  0
 31 60  1  0  0  0  0
 31 61  1  0  0  0  0
 32 33  1  0  0  0  0
 32 62  1  0  0  0  0
 33 63  1  0  0  0  0
M  CHG  1  18  -1
M  END
> <s_m_source_file>
AV-unprocessed.smi

> <i_m_source_file_index>
36

> <i_lp_mmshare_version>
43012

> <i_f3d_flags>
0

> <s_epik_input>
W0NIM11DKFtDSDNdKShbQ0gzXSlbU2ldKFtDSDNdKShbQ0gzXSlPW0NIMl1bQ0BASF0xT1tDQEhdKFtDSDJdW0NASF0xW09IXSluKFtjSF1uMiljKGMyMyluW2NIXW5jM1tOSF1DKD1PKWM0W2NIXVtjSF1bY0hdW2NIXVtjSF00

> <s_epik_cmdline>
J2VwaWtfcHl0aG9uJywgJy1waCcsICc3LjAnLCAnLXRuJywgJzgnLCAnLW1hJywgJzIwMCcsICctbWV0YWxfYmluZGluZycsICctaW1hZScsICc8aW5maWxlLm1hZT4nLCAnLW9tYWUnLCAnPG91dGZpbGUubWFlPic=

> <r_lp_tautomer_probability>
1

> <r_epik_Ionization_Penalty>
4.75685

> <r_epik_Ionization_Penalty_Charging>
3.55822

> <r_epik_Ionization_Penalty_Neutral>
1.19863

> <r_epik_State_Penalty>
3.564

> <r_epik_Charging_Adjusted_Penalty>
7.12222

> <i_epik_Tot_Q>
-1

> <i_epik_Tot_abs_Q>
1

> <r_epik_Metal_State_Penalty>
0.523258

> <b_epik_Metal_Only>
1

> <s_epik_Chemistry_Notes>
This compound contains an acetal/aminal-like group ( X-CH(R)-Y where X, Y are N, S, or O) that may be acid/base labile, releasing an aldehyde.

> <s_lp_Force_Field>
OPLS_2005

> <r_lp_Energy>
36.9476

> <b_lp_Chiralities_Consistent>
1

> <s_lp_Variant>
AV-unprocessed.smi:36-17

> <Gold.Version>
5.8.1

> <Gold.Id.Protein>
6NUR|6NUR_protein|mol2

> <Gold.PLP.Fitness>
58.7822

> <Gold.PLP.PLP>
-56.1077

> <Gold.PLP.part.hbond>
-1.0000

> <Gold.PLP.part.metal>
0.0000

> <Gold.PLP.part.buried>
-6.4713

> <Gold.PLP.part.nonpolar>
-47.8983

> <Gold.PLP.part.repulsive>
0.0595

> <Gold.PLP.ligand.clash>
0.0000

> <Gold.PLP.ligand.torsion>
0.4322

> <Gold.PLP.Chemscore.Hbond>
1.0715

> <Gold.PLP.Chemscore.CHOScore>
0.0000

> <Gold.PLP.Chemscore.Metal>
0.0000

> <Gold.Chemscore.Hbonds>
donor molecule, donor type, donor heavy atom, donor atom, acceptor molecule, acceptor atom, score
      P1  H  7997  8010       L1    20  1.00

> <Gold.PLP.Chemscore.Internal.Correction>
0.3245

> <Gold.Rescore>
     Score         DG    S(hbond)    S(metal)    S(lipo)     H(rot)  DE(clash)    DE(int)     intcor
     15.95     -18.04       1.00        0.00     137.32       2.67       0.00       2.09       ----

> <Gold.Chemscore.Fitness>
15.9519

> <Gold.Chemscore.DG>
-18.0429

> <Gold.Chemscore.ZeroCoef>
-5.4800

> <Gold.Chemscore.Hbond>
0.9975

> <Gold.Chemscore.Metal>
0.0000

> <Gold.Chemscore.Lipo>
137.3234

> <Gold.Chemscore.Internal_Hbond>
0.0000

> <Gold.Chemscore.DEClash>
0.0015

> <Gold.Chemscore.DEInternal>
2.0895

> <Gold.Chemscore.Rot>
2.6702

> <Gold.Chemscore.Internal.Correction>
   9.000000E+99

> <Gold.Chemscore.Hbonds>
donor molecule, donor type, donor heavy atom, donor atom, acceptor molecule, acceptor atom, score
      P1  H  7997  8010       L1    20  0.97

> <Gold.Chemscore.Hbond.Weighted>
-3.3318

> <Gold.Chemscore.Metal.Weighted>
-0.0000

> <Gold.Chemscore.Lipo.Weighted>
-16.0668

> <Gold.Chemscore.Internal_Hbond.Weighted>
0.0000

> <Gold.Chemscore.DEClash.Weighted>
0.0015

> <Gold.Chemscore.DEInternal.Weighted>
2.0895

> <Gold.Chemscore.Rot.Weighted>
6.8358

> <Gold.Chemscore.Internal.Correction.Weighted>
   9.000000E+99

> <Gold.Protein.RotatedTorsions>
[ 6907 6896 6895 6894 ] final -166.68 input  -60.11 | X-H torsion
[ 7974 7965 7964 7962 ] final  179.06 input  175.53 | X-H torsion
[ 8008 7997 7996 7995 ] final    3.96 input   59.86 | X-H torsion
[ 10167 10162 10161 10158 ] final   15.44 input  -65.29 | X-H torsion
[ 10718 10713 10712 10709 ] final   -2.33 input   66.30 | X-H torsion
[ 10763 10752 10751 10750 ] final  152.05 input  -60.55 | X-H torsion
[ 11005 11000 10999 10996 ] final  -49.14 input  -57.11 | X-H torsion

> <Gold.Protein.ActiveResidues>
 VAL166  LYS551  ARG553  GLY616  TRP617  ASP618  TYR619  PRO620  LYS621  CYS622 
 ASP623  PHE694  ASN695  SER759  ASP760  ASP761  ALA762  ILE779  LEU786  VAL792 
 PHE793  MET794  SER795  GLU796  ALA797  LYS798  CYS799  TRP800  GLU811  SER814 

> <Gold.Protein.RotatedAtoms>
  151.4474  133.3626  159.2790 H   0  0  0  0  0  0  0  0  0  0  0  0  # atno 6907 bound_to 6896
  150.9115  134.8533  159.7439 H   0  0  0  0  0  0  0  0  0  0  0  0  # atno 6908 bound_to 6896
  152.4934  134.4404  159.9593 H   0  0  0  0  0  0  0  0  0  0  0  0  # atno 6909 bound_to 6896
  144.7149  140.0491  143.6435 H   0  0  0  0  0  0  0  0  0  0  0  0  # atno 7974 bound_to 7965
  154.7100  140.2691  155.6638 H   0  0  0  0  0  0  0  0  0  0  0  0  # atno 8008 bound_to 7997
  156.2792  140.2755  156.1663 H   0  0  0  0  0  0  0  0  0  0  0  0  # atno 8009 bound_to 7997
  155.0647  140.0371  157.2578 H   0  0  0  0  0  0  0  0  0  0  0  0  # atno 8010 bound_to 7997
  140.5867  143.8876  150.6836 H   0  0  0  0  0  0  0  0  0  0  0  0  # atno 10167 bound_to 10162
  156.7924  130.5366  149.5734 H   0  0  0  0  0  0  0  0  0  0  0  0  # atno 10718 bound_to 10713
  154.1137  135.2837  155.3225 H   0  0  0  0  0  0  0  0  0  0  0  0  # atno 10763 bound_to 10752
  154.6472  135.5382  153.7862 H   0  0  0  0  0  0  0  0  0  0  0  0  # atno 10764 bound_to 10752
  153.0337  135.6501  154.1294 H   0  0  0  0  0  0  0  0  0  0  0  0  # atno 10765 bound_to 10752
  141.0742  133.6670  156.3542 H   0  0  0  0  0  0  0  0  0  0  0  0  # atno 11005 bound_to 11000
  145.9959  139.3052  143.0957 LP  0  0  0  0  0  0  0  0  0  0  0  0  # atno 17320 bound_to 7965
  145.8849  140.9340  143.0582 LP  0  0  0  0  0  0  0  0  0  0  0  0  # atno 17321 bound_to 7965
  140.2389  143.3679  152.1503 LP  0  0  0  0  0  0  0  0  0  0  0  0  # atno 17342 bound_to 10162
  139.5202  144.7029  151.5440 LP  0  0  0  0  0  0  0  0  0  0  0  0  # atno 17343 bound_to 10162
  156.1151  130.6069  151.0108 LP  0  0  0  0  0  0  0  0  0  0  0  0  # atno 17370 bound_to 10713
  157.6594  131.0883  150.7873 LP  0  0  0  0  0  0  0  0  0  0  0  0  # atno 17371 bound_to 10713
  140.5609  134.5935  157.5433 LP  0  0  0  0  0  0  0  0  0  0  0  0  # atno 17394 bound_to 11000
  139.9554  134.7544  156.0353 LP  0  0  0  0  0  0  0  0  0  0  0  0  # atno 17395 bound_to 11000

$$$$
