AV-unprocessed.smi:2068|AV-procd|sdf|8427|dock6
  -GOLD-   2272011123D 1   1.00000     0.00000
 Structure written by MMmdl.
 33 34  0  0  0  0  0  0  0  0  1 V2000
  149.6221  135.5346  154.7799 N   0  0  0  0  0  0  0  0  0  0  0  0
  150.4810  136.3824  155.3530 C   0  0  0  0  0  0  0  0  0  0  0  0
  150.7539  136.3322  156.5507 O   0  0  0  0  0  0  0  0  0  0  0  0
  151.1314  137.4346  154.4527 C   0  0  0  0  0  0  0  0  0  0  0  0
  150.8230  138.8152  154.9551 C   0  0  0  0  0  0  0  0  0  0  0  0
  149.9470  139.7183  154.4021 C   0  0  0  0  0  0  0  0  0  0  0  0
  149.8872  141.2093  155.3034 S   0  0  0  0  0  0  0  0  0  0  0  0
  151.0690  140.5386  156.4162 C   0  0  0  0  0  0  0  0  0  0  0  0
  151.5483  141.2701  157.5342 N   0  0  0  0  0  0  0  0  0  0  0  0
  152.5269  140.9326  158.3949 C   0  0  0  0  0  0  0  0  0  0  0  0
  153.1980  139.9027  158.3217 O   0  0  0  0  0  0  0  0  0  0  0  0
  152.7973  141.9359  159.5226 C   0  0  0  0  0  0  0  0  0  0  0  0
  151.8137  143.1270  159.5472 C   0  0  2  0  0  0  0  0  0  0  0  0
  152.0111  144.1018  158.4110 C   0  0  0  0  0  0  0  0  0  0  0  0
  152.1659  145.3556  158.8298 C   0  0  0  0  0  0  0  0  0  0  0  0
  152.1049  145.4741  160.3272 C   0  0  0  0  0  0  0  0  0  0  0  0
  151.9623  144.0135  160.8105 C   0  0  0  0  0  0  0  0  0  0  0  0
  151.4536  139.2950  156.1081 N   0  0  0  0  0  0  0  0  0  0  0  0
  149.1635  134.8305  155.3397 H   0  0  0  0  0  0  0  0  0  0  0  0
  149.4276  135.6065  153.7915 H   0  0  0  0  0  0  0  0  0  0  0  0
  152.2094  137.2697  154.4281 H   0  0  0  0  0  0  0  0  0  0  0  0
  150.7781  137.3023  153.4292 H   0  0  0  0  0  0  0  0  0  0  0  0
  149.3378  139.5965  153.5186 H   0  0  0  0  0  0  0  0  0  0  0  0
  151.0890  142.1528  157.7041 H   0  0  0  0  0  0  0  0  0  0  0  0
  152.7420  141.3981  160.4697 H   0  0  0  0  0  0  0  0  0  0  0  0
  153.8197  142.3090  159.4408 H   0  0  0  0  0  0  0  0  0  0  0  0
  150.7881  142.7594  159.4868 H   0  0  0  0  0  0  0  0  0  0  0  0
  152.0050  143.7926  157.3759 H   0  0  0  0  0  0  0  0  0  0  0  0
  152.3076  146.2134  158.1892 H   0  0  0  0  0  0  0  0  0  0  0  0
  153.0105  145.9430  160.7127 H   0  0  0  0  0  0  0  0  0  0  0  0
  151.2464  146.0806  160.6168 H   0  0  0  0  0  0  0  0  0  0  0  0
  151.1041  143.8999  161.4737 H   0  0  0  0  0  0  0  0  0  0  0  0
  152.8454  143.7306  161.3847 H   0  0  0  0  0  0  0  0  0  0  0  0
  1  2  1  0  0  0  0
  1 19  1  0  0  0  0
  1 20  1  0  0  0  0
  2  3  2  0  0  0  0
  2  4  1  0  0  0  0
  4  5  1  0  0  0  0
  4 21  1  0  0  0  0
  4 22  1  0  0  0  0
  5 18  1  0  0  0  0
  5  6  2  0  0  0  0
  6  7  1  0  0  0  0
  6 23  1  0  0  0  0
  7  8  1  0  0  0  0
  8  9  1  0  0  0  0
  8 18  2  0  0  0  0
  9 10  1  0  0  0  0
  9 24  1  0  0  0  0
 10 11  2  0  0  0  0
 10 12  1  0  0  0  0
 12 13  1  0  0  0  0
 12 25  1  0  0  0  0
 12 26  1  0  0  0  0
 13 17  1  0  0  0  0
 13 14  1  0  0  0  0
 13 27  1  0  0  0  0
 14 15  2  0  0  0  0
 14 28  1  0  0  0  0
 15 16  1  0  0  0  0
 15 29  1  0  0  0  0
 16 17  1  0  0  0  0
 16 30  1  0  0  0  0
 16 31  1  0  0  0  0
 17 32  1  0  0  0  0
 17 33  1  0  0  0  0
M  END
> <s_m_source_file>
AV-unprocessed.smi

> <i_m_source_file_index>
2068

> <i_lp_mmshare_version>
43012

> <i_f3d_flags>
0

> <s_epik_input>
W05IMl1DKD1PKVtDSDJdYzFbY0hdc2MobjEpW05IXUMoPU8pW0NIMl1bQ0BASF0yW0NIXT1bQ0hdW0NIMl1bQ0gyXTI=

> <s_epik_cmdline>
J2VwaWtfcHl0aG9uJywgJy1waCcsICc3LjAnLCAnLXRuJywgJzgnLCAnLW1hJywgJzIwMCcsICctbWV0YWxfYmluZGluZycsICctaW1hZScsICc8aW5maWxlLm1hZT4nLCAnLW9tYWUnLCAnPG91dGZpbGUubWFlPic=

> <r_lp_tautomer_probability>
1

> <r_epik_Ionization_Penalty>
0.000253249

> <r_epik_Ionization_Penalty_Charging>
0

> <r_epik_Ionization_Penalty_Neutral>
0.000253249

> <r_epik_State_Penalty>
-0

> <r_epik_Charging_Adjusted_Penalty>
0

> <i_epik_Tot_Q>
0

> <i_epik_Tot_abs_Q>
0

> <r_epik_Metal_State_Penalty>
0.148671

> <b_epik_Metal_Only>
0

> <s_lp_Force_Field>
OPLS_2005

> <r_lp_Energy>
16.3977

> <b_lp_Chiralities_Consistent>
1

> <s_lp_Variant>
AV-unprocessed.smi:2068-1

> <Gold.Version>
5.8.1

> <Gold.Id.Protein>
6NUR|6NUR_protein|mol2

> <Gold.PLP.Fitness>
50.2458

> <Gold.PLP.PLP>
-41.6823

> <Gold.PLP.part.hbond>
-2.0000

> <Gold.PLP.part.metal>
0.0000

> <Gold.PLP.part.buried>
-4.3337

> <Gold.PLP.part.nonpolar>
-35.5381

> <Gold.PLP.part.repulsive>
0.1095

> <Gold.PLP.ligand.clash>
0.0000

> <Gold.PLP.ligand.torsion>
0.2436

> <Gold.PLP.Chemscore.Hbond>
2.0000

> <Gold.PLP.Chemscore.CHOScore>
1.0000

> <Gold.PLP.Chemscore.Metal>
0.0000

> <Gold.Chemscore.Hbonds>
donor molecule, donor type, donor heavy atom, donor atom, acceptor molecule, acceptor atom, score
      L1  H     1    20       P1  7948  0.96
      P1  H  7997  8009       L1    11  1.00
      L1  C     6    23       P1  7957  1.00

> <Gold.PLP.Chemscore.Internal.Correction>
0.0507

> <Gold.Rescore>
     Score         DG    S(hbond)    S(metal)    S(lipo)     H(rot)  DE(clash)    DE(int)     intcor
     16.25     -17.98       1.88        0.00     101.32       2.21       0.07       1.67       ----

> <Gold.Chemscore.Fitness>
16.2475

> <Gold.Chemscore.DG>
-17.9832

> <Gold.Chemscore.ZeroCoef>
-5.4800

> <Gold.Chemscore.Hbond>
1.8845

> <Gold.Chemscore.Metal>
0.0000

> <Gold.Chemscore.Lipo>
101.3198

> <Gold.Chemscore.Internal_Hbond>
0.0000

> <Gold.Chemscore.DEClash>
0.0685

> <Gold.Chemscore.DEInternal>
1.6672

> <Gold.Chemscore.Rot>
2.2053

> <Gold.Chemscore.Internal.Correction>
   9.000000E+99

> <Gold.Chemscore.Hbonds>
donor molecule, donor type, donor heavy atom, donor atom, acceptor molecule, acceptor atom, score
      L1  H     1    20       P1  7948  0.36
      P1  H  7997  8009       L1    11  0.84

> <Gold.Chemscore.Hbond.Weighted>
-6.2944

> <Gold.Chemscore.Metal.Weighted>
-0.0000

> <Gold.Chemscore.Lipo.Weighted>
-11.8544

> <Gold.Chemscore.Internal_Hbond.Weighted>
0.0000

> <Gold.Chemscore.DEClash.Weighted>
0.0685

> <Gold.Chemscore.DEInternal.Weighted>
1.6672

> <Gold.Chemscore.Rot.Weighted>
5.6456

> <Gold.Chemscore.Internal.Correction.Weighted>
   9.000000E+99

> <Gold.Protein.RotatedTorsions>
[ 6907 6896 6895 6894 ] final   81.80 input  -60.11 | X-H torsion
[ 7974 7965 7964 7962 ] final  103.38 input  175.53 | X-H torsion
[ 8008 7997 7996 7995 ] final  148.71 input   59.86 | X-H torsion
[ 10167 10162 10161 10158 ] final   27.53 input  -65.29 | X-H torsion
[ 10718 10713 10712 10709 ] final  106.82 input   66.30 | X-H torsion
[ 10763 10752 10751 10750 ] final -103.66 input  -60.55 | X-H torsion
[ 11005 11000 10999 10996 ] final -150.15 input  -57.11 | X-H torsion

> <Gold.Protein.ActiveResidues>
 VAL166  LYS551  ARG553  GLY616  TRP617  ASP618  TYR619  PRO620  LYS621  CYS622 
 ASP623  PHE694  ASN695  SER759  ASP760  ASP761  ALA762  ILE779  LEU786  VAL792 
 PHE793  MET794  SER795  GLU796  ALA797  LYS798  CYS799  TRP800  GLU811  SER814 

> <Gold.Protein.RotatedAtoms>
  152.5280  134.3148  159.9126 H   0  0  0  0  0  0  0  0  0  0  0  0  # atno 6907 bound_to 6896
  151.3097  133.4079  159.2653 H   0  0  0  0  0  0  0  0  0  0  0  0  # atno 6908 bound_to 6896
  151.0049  134.9368  159.8032 H   0  0  0  0  0  0  0  0  0  0  0  0  # atno 6909 bound_to 6896
  145.3467  139.2449  143.3580 H   0  0  0  0  0  0  0  0  0  0  0  0  # atno 7974 bound_to 7965
  156.2781  140.2121  156.5742 H   0  0  0  0  0  0  0  0  0  0  0  0  # atno 8008 bound_to 7997
  154.7111  140.0512  157.0574 H   0  0  0  0  0  0  0  0  0  0  0  0  # atno 8009 bound_to 7997
  155.0604  140.3166  155.4665 H   0  0  0  0  0  0  0  0  0  0  0  0  # atno 8010 bound_to 7997
  140.4931  144.0436  150.6304 H   0  0  0  0  0  0  0  0  0  0  0  0  # atno 10167 bound_to 10162
  157.6653  131.0859  150.6064 H   0  0  0  0  0  0  0  0  0  0  0  0  # atno 10718 bound_to 10713
  154.7823  135.4815  153.9871 H   0  0  0  0  0  0  0  0  0  0  0  0  # atno 10763 bound_to 10752
  153.1511  135.6791  153.8888 H   0  0  0  0  0  0  0  0  0  0  0  0  # atno 10764 bound_to 10752
  153.8532  135.3164  155.3412 H   0  0  0  0  0  0  0  0  0  0  0  0  # atno 10765 bound_to 10752
  140.7432  134.3490  157.5143 H   0  0  0  0  0  0  0  0  0  0  0  0  # atno 11005 bound_to 11000
  146.2985  140.4076  142.8713 LP  0  0  0  0  0  0  0  0  0  0  0  0  # atno 17320 bound_to 7965
  144.8748  140.7322  143.6024 LP  0  0  0  0  0  0  0  0  0  0  0  0  # atno 17321 bound_to 7965
  140.3710  143.2854  152.0278 LP  0  0  0  0  0  0  0  0  0  0  0  0  # atno 17342 bound_to 10162
  139.4855  144.6230  151.7220 LP  0  0  0  0  0  0  0  0  0  0  0  0  # atno 17343 bound_to 10162
  156.6365  130.4446  149.5767 LP  0  0  0  0  0  0  0  0  0  0  0  0  # atno 17370 bound_to 10713
  156.2242  130.6755  151.1398 LP  0  0  0  0  0  0  0  0  0  0  0  0  # atno 17371 bound_to 10713
  139.8802  134.9094  156.2991 LP  0  0  0  0  0  0  0  0  0  0  0  0  # atno 17394 bound_to 11000
  140.9818  133.7263  156.0683 LP  0  0  0  0  0  0  0  0  0  0  0  0  # atno 17395 bound_to 11000

$$$$
