AV-unprocessed.smi:251|AV-procd|sdf|1935|dock1
  -GOLD-   2262021 53D 1   1.00000     0.00000
 Structure written by MMmdl.
 50 54  0  0  0  0  0  0  0  0  1 V2000
  150.2043  133.8692  157.4124 O   0  0  0  0  0  0  0  0  0  0  0  0
  150.7601  134.9543  156.6968 C   0  0  0  0  0  0  0  0  0  0  0  0
  150.0980  135.1431  155.3063 C   0  0  0  0  0  0  0  0  0  0  0  0
  150.7815  136.3111  154.5250 C   0  0  0  0  0  0  0  0  0  0  0  0
  151.2419  137.4207  155.3498 N   0  0  0  0  0  0  0  0  0  0  0  0
  152.5265  137.9084  155.4253 C   0  0  0  0  0  0  0  0  0  0  0  0
  152.6930  138.9149  156.2369 N   0  0  0  0  0  0  0  0  0  0  0  0
  151.4230  139.1656  156.7449 C   0  0  0  0  0  0  0  0  0  0  0  0
  150.8808  140.1128  157.6650 C   0  0  0  0  0  0  0  0  0  0  0  0
  151.6044  141.0689  158.3050 N   0  0  0  0  0  0  0  0  0  0  0  0
  152.2450  140.8072  159.5931 C   0  0  0  0  0  0  0  0  0  0  0  0
  152.7423  142.1491  160.0723 C   0  0  1  0  0  0  0  0  0  0  0  0
  153.6696  143.0044  159.2323 C   0  0  0  0  0  0  0  0  0  0  0  0
  152.1692  143.1996  159.1722 C   0  0  2  0  0  0  0  0  0  0  0  0
  151.5328  144.4856  159.6827 C   0  0  0  0  0  0  0  0  0  0  0  0
  152.1176  144.8522  160.8224 F   0  0  0  0  0  0  0  0  0  0  0  0
  151.6788  145.4613  158.7858 F   0  0  0  0  0  0  0  0  0  0  0  0
  150.2298  144.3172  159.9094 F   0  0  0  0  0  0  0  0  0  0  0  0
  151.3505  142.4934  158.1109 C   0  0  0  0  0  0  0  0  0  0  0  0
  149.5478  140.0342  157.9209 N   0  0  0  0  0  0  0  0  0  0  0  0
  148.7920  139.1131  157.3179 C   0  0  0  0  0  0  0  0  0  0  0  0
  149.1593  138.1782  156.4417 N   0  0  0  0  0  0  0  0  0  0  0  0
  150.4971  138.2359  156.1866 C   0  0  0  0  0  0  0  0  0  0  0  0
  150.2002  133.7936  154.5507 C   0  0  0  0  0  0  0  0  0  0  0  0
  149.3393  133.7629  153.2758 C   0  0  0  0  0  0  0  0  0  0  0  0
  147.9814  134.0174  153.6098 O   0  0  0  0  0  0  0  0  0  0  0  0
  147.7850  135.3044  154.1820 C   0  0  0  0  0  0  0  0  0  0  0  0
  148.5871  135.4338  155.4911 C   0  0  0  0  0  0  0  0  0  0  0  0
  149.7550  133.3049  156.8020 H   0  0  0  0  0  0  0  0  0  0  0  0
  150.6695  135.8576  157.3002 H   0  0  0  0  0  0  0  0  0  0  0  0
  151.8290  134.7659  156.5915 H   0  0  0  0  0  0  0  0  0  0  0  0
  151.6433  135.9529  153.9640 H   0  0  0  0  0  0  0  0  0  0  0  0
  150.1006  136.7100  153.7725 H   0  0  0  0  0  0  0  0  0  0  0  0
  153.3461  137.4863  154.8629 H   0  0  0  0  0  0  0  0  0  0  0  0
  151.5249  140.4058  160.3072 H   0  0  0  0  0  0  0  0  0  0  0  0
  153.0766  140.1090  159.4929 H   0  0  0  0  0  0  0  0  0  0  0  0
  152.7460  142.3168  161.1472 H   0  0  0  0  0  0  0  0  0  0  0  0
  154.2664  143.7518  159.7505 H   0  0  0  0  0  0  0  0  0  0  0  0
  154.1549  142.5397  158.3761 H   0  0  0  0  0  0  0  0  0  0  0  0
  151.6674  142.8224  157.1212 H   0  0  0  0  0  0  0  0  0  0  0  0
  150.2891  142.7093  158.2357 H   0  0  0  0  0  0  0  0  0  0  0  0
  147.7436  139.1256  157.5763 H   0  0  0  0  0  0  0  0  0  0  0  0
  151.2350  133.5475  154.3154 H   0  0  0  0  0  0  0  0  0  0  0  0
  149.8550  132.9885  155.2008 H   0  0  0  0  0  0  0  0  0  0  0  0
  149.6873  134.4835  152.5354 H   0  0  0  0  0  0  0  0  0  0  0  0
  149.4036  132.7799  152.8091 H   0  0  0  0  0  0  0  0  0  0  0  0
  148.0561  136.0797  153.4652 H   0  0  0  0  0  0  0  0  0  0  0  0
  146.7221  135.4321  154.3868 H   0  0  0  0  0  0  0  0  0  0  0  0
  148.1682  134.7327  156.2144 H   0  0  0  0  0  0  0  0  0  0  0  0
  148.4366  136.4277  155.9140 H   0  0  0  0  0  0  0  0  0  0  0  0
  1  2  1  0  0  0  0
  1 29  1  0  0  0  0
  2  3  1  0  0  0  0
  2 30  1  0  0  0  0
  2 31  1  0  0  0  0
  3 28  1  0  0  0  0
  3  4  1  0  0  0  0
  3 24  1  0  0  0  0
  4  5  1  0  0  0  0
  4 32  1  0  0  0  0
  4 33  1  0  0  0  0
  5 23  1  0  0  0  0
  5  6  1  0  0  0  0
  6  7  2  0  0  0  0
  6 34  1  0  0  0  0
  7  8  1  0  0  0  0
  8 23  2  0  0  0  0
  8  9  1  0  0  0  0
  9 10  1  0  0  0  0
  9 20  2  0  0  0  0
 10 19  1  0  0  0  0
 10 11  1  0  0  0  0
 11 12  1  0  0  0  0
 11 35  1  0  0  0  0
 11 36  1  0  0  0  0
 12 14  1  0  0  0  0
 12 13  1  0  0  0  0
 12 37  1  0  0  0  0
 13 14  1  0  0  0  0
 13 38  1  0  0  0  0
 13 39  1  0  0  0  0
 14 15  1  0  0  0  0
 14 19  1  0  0  0  0
 15 16  1  0  0  0  0
 15 17  1  0  0  0  0
 15 18  1  0  0  0  0
 19 40  1  0  0  0  0
 19 41  1  0  0  0  0
 20 21  1  0  0  0  0
 21 22  2  0  0  0  0
 21 42  1  0  0  0  0
 22 23  1  0  0  0  0
 24 25  1  0  0  0  0
 24 43  1  0  0  0  0
 24 44  1  0  0  0  0
 25 26  1  0  0  0  0
 25 45  1  0  0  0  0
 25 46  1  0  0  0  0
 26 27  1  0  0  0  0
 27 28  1  0  0  0  0
 27 47  1  0  0  0  0
 27 48  1  0  0  0  0
 28 49  1  0  0  0  0
 28 50  1  0  0  0  0
M  END
> <s_m_source_file>
AV-unprocessed.smi

> <i_m_source_file_index>
251

> <i_lp_mmshare_version>
43012

> <i_f3d_flags>
0

> <s_epik_input>
W0NIMl0xW0NIMl1PW0NIMl1bQ0gyXUMxKFtDSDJdW09IXSlbQ0gyXW4oW2NIXW4yKWMoYzIzKW5bY0hdbmMzTihbQ0gyXTQpW0NIMl1bQ0BIXShbQ0gyXTUpW0NAQF00NUMoRikoRilG

> <s_epik_cmdline>
J2VwaWtfcHl0aG9uJywgJy1waCcsICc3LjAnLCAnLXRuJywgJzgnLCAnLW1hJywgJzIwMCcsICctbWV0YWxfYmluZGluZycsICctaW1hZScsICc8aW5maWxlLm1hZT4nLCAnLW9tYWUnLCAnPG91dGZpbGUubWFlPic=

> <r_lp_tautomer_probability>
1

> <r_epik_Ionization_Penalty>
0.00226625

> <r_epik_Ionization_Penalty_Charging>
0

> <r_epik_Ionization_Penalty_Neutral>
0.00226625

> <r_epik_State_Penalty>
0.00138204

> <r_epik_Charging_Adjusted_Penalty>
0.00138204

> <i_epik_Tot_Q>
0

> <i_epik_Tot_abs_Q>
0

> <r_epik_Metal_State_Penalty>
-0

> <b_epik_Metal_Only>
0

> <s_lp_Force_Field>
OPLS_2005

> <r_lp_Energy>
66.9276

> <b_lp_Chiralities_Consistent>
1

> <s_lp_Variant>
AV-unprocessed.smi:251-2

> <Gold.Version>
5.8.1

> <Gold.Id.Protein>
6NUR|6NUR_protein|mol2

> <Gold.PLP.Fitness>
44.3252

> <Gold.PLP.PLP>
-42.6483

> <Gold.PLP.part.hbond>
-1.7699

> <Gold.PLP.part.metal>
0.0000

> <Gold.PLP.part.buried>
-1.8087

> <Gold.PLP.part.nonpolar>
-37.3847

> <Gold.PLP.part.repulsive>
0.1123

> <Gold.PLP.ligand.clash>
0.0000

> <Gold.PLP.ligand.torsion>
2.7495

> <Gold.PLP.Chemscore.Hbond>
1.7963

> <Gold.PLP.Chemscore.CHOScore>
0.0000

> <Gold.PLP.Chemscore.Metal>
0.0000

> <Gold.Chemscore.Hbonds>
donor molecule, donor type, donor heavy atom, donor atom, acceptor molecule, acceptor atom, score
      P1  H  6896  6908       L1     1  0.91
      P1  H  7997  8008       L1     7  0.96

> <Gold.PLP.Chemscore.Internal.Correction>
1.7872

> <Gold.Rescore>
     Score         DG    S(hbond)    S(metal)    S(lipo)     H(rot)  DE(clash)    DE(int)     intcor
     12.90     -16.67       1.60        0.00      98.94       2.23       0.26       3.51       ----

> <Gold.Chemscore.Fitness>
12.9033

> <Gold.Chemscore.DG>
-16.6750

> <Gold.Chemscore.ZeroCoef>
-5.4800

> <Gold.Chemscore.Hbond>
1.5984

> <Gold.Chemscore.Metal>
0.0000

> <Gold.Chemscore.Lipo>
98.9441

> <Gold.Chemscore.Internal_Hbond>
0.0000

> <Gold.Chemscore.DEClash>
0.2616

> <Gold.Chemscore.DEInternal>
3.5102

> <Gold.Chemscore.Rot>
2.2344

> <Gold.Chemscore.Internal.Correction>
   9.000000E+99

> <Gold.Chemscore.Hbonds>
donor molecule, donor type, donor heavy atom, donor atom, acceptor molecule, acceptor atom, score
      P1  H  6896  6908       L1     1  0.76
      P1  H  7997  8008       L1     7  0.90

> <Gold.Chemscore.Hbond.Weighted>
-5.3385

> <Gold.Chemscore.Metal.Weighted>
-0.0000

> <Gold.Chemscore.Lipo.Weighted>
-11.5765

> <Gold.Chemscore.Internal_Hbond.Weighted>
0.0000

> <Gold.Chemscore.DEClash.Weighted>
0.2616

> <Gold.Chemscore.DEInternal.Weighted>
3.5102

> <Gold.Chemscore.Rot.Weighted>
5.7200

> <Gold.Chemscore.Internal.Correction.Weighted>
   9.000000E+99

> <Gold.Protein.RotatedTorsions>
[ 6907 6896 6895 6894 ] final  118.49 input  -60.11 | X-H torsion
[ 7974 7965 7964 7962 ] final   77.10 input  175.53 | X-H torsion
[ 8008 7997 7996 7995 ] final  -53.16 input   59.86 | X-H torsion
[ 10167 10162 10161 10158 ] final  -98.48 input  -65.29 | X-H torsion
[ 10718 10713 10712 10709 ] final  -29.08 input   66.30 | X-H torsion
[ 10763 10752 10751 10750 ] final  -70.34 input  -60.55 | X-H torsion
[ 11005 11000 10999 10996 ] final  -61.60 input  -57.11 | X-H torsion

> <Gold.Protein.ActiveResidues>
 VAL166  LYS551  ARG553  GLY616  TRP617  ASP618  TYR619  PRO620  LYS621  CYS622 
 ASP623  PHE694  ASN695  SER759  ASP760  ASP761  ALA762  ILE779  LEU786  VAL792 
 PHE793  MET794  SER795  GLU796  ALA797  LYS798  CYS799  TRP800  GLU811  SER814 

> <Gold.Protein.RotatedAtoms>
  152.4539  133.7684  159.6785 H   0  0  0  0  0  0  0  0  0  0  0  0  # atno 6907 bound_to 6896
  150.8459  133.7851  159.3049 H   0  0  0  0  0  0  0  0  0  0  0  0  # atno 6908 bound_to 6896
  151.5462  135.1071  159.9990 H   0  0  0  0  0  0  0  0  0  0  0  0  # atno 6909 bound_to 6896
  145.6944  139.2562  143.1741 H   0  0  0  0  0  0  0  0  0  0  0  0  # atno 7974 bound_to 7965
  154.4126  140.1206  156.5109 H   0  0  0  0  0  0  0  0  0  0  0  0  # atno 8008 bound_to 7997
  155.6800  140.3496  155.4832 H   0  0  0  0  0  0  0  0  0  0  0  0  # atno 8009 bound_to 7997
  155.9559  140.1114  157.0927 H   0  0  0  0  0  0  0  0  0  0  0  0  # atno 8010 bound_to 7997
  140.2725  143.3334  152.0520 H   0  0  0  0  0  0  0  0  0  0  0  0  # atno 10167 bound_to 10162
  156.4170  130.4419  149.7211 H   0  0  0  0  0  0  0  0  0  0  0  0  # atno 10718 bound_to 10713
  154.4163  135.5997  153.5983 H   0  0  0  0  0  0  0  0  0  0  0  0  # atno 10763 bound_to 10752
  152.9792  135.5941  154.4009 H   0  0  0  0  0  0  0  0  0  0  0  0  # atno 10764 bound_to 10752
  154.3829  135.2841  155.2179 H   0  0  0  0  0  0  0  0  0  0  0  0  # atno 10765 bound_to 10752
  141.1330  133.6631  156.5400 H   0  0  0  0  0  0  0  0  0  0  0  0  # atno 11005 bound_to 11000
  146.0853  140.7717  142.9621 LP  0  0  0  0  0  0  0  0  0  0  0  0  # atno 17320 bound_to 7965
  144.6987  140.3553  143.7174 LP  0  0  0  0  0  0  0  0  0  0  0  0  # atno 17321 bound_to 7965
  139.4985  144.6646  151.6385 LP  0  0  0  0  0  0  0  0  0  0  0  0  # atno 17342 bound_to 10162
  140.5878  143.9834  150.6306 LP  0  0  0  0  0  0  0  0  0  0  0  0  # atno 17343 bound_to 10162
  156.4167  130.7749  151.2764 LP  0  0  0  0  0  0  0  0  0  0  0  0  # atno 17370 bound_to 10713
  157.7508  131.0195  150.3670 LP  0  0  0  0  0  0  0  0  0  0  0  0  # atno 17371 bound_to 10713
  140.4147  134.7240  157.4856 LP  0  0  0  0  0  0  0  0  0  0  0  0  # atno 17394 bound_to 11000
  140.0402  134.6278  155.8991 LP  0  0  0  0  0  0  0  0  0  0  0  0  # atno 17395 bound_to 11000

$$$$
