AV-unprocessed.smi:2288|AV-procd|sdf|9207|dock2
  -GOLD-   2272012423D 1   1.00000     0.00000
 Structure written by MMmdl.
 40 41  0  0  0  0  0  0  0  0  1 V2000
  146.0868  142.9689  154.4412 C   0  0  0  0  0  0  0  0  0  0  0  0
  146.9320  141.7149  154.3531 C   0  0  0  0  0  0  0  0  0  0  0  0
  146.6097  140.7001  153.4288 C   0  0  0  0  0  0  0  0  0  0  0  0
  147.3964  139.5331  153.3547 C   0  0  0  0  0  0  0  0  0  0  0  0
  147.0415  138.4459  152.3616 C   0  0  0  0  0  0  0  0  0  0  0  0
  148.5116  139.3848  154.2047 C   0  0  0  0  0  0  0  0  0  0  0  0
  148.8444  140.3976  155.1289 C   0  0  0  0  0  0  0  0  0  0  0  0
  150.0429  140.2155  156.0484 C   0  0  1  0  0  0  0  0  0  0  0  0
  150.8295  139.1058  155.6608 O   0  0  0  0  0  0  0  0  0  0  0  0
  150.9329  141.4780  156.0485 C   0  0  0  0  0  0  0  0  0  0  0  0
  151.4418  141.8050  157.3913 N   0  0  0  0  0  0  0  0  0  0  0  0
  150.9450  142.9815  157.9756 C   0  0  0  0  0  0  0  0  0  0  0  0
  151.3172  143.3647  159.1530 N   0  0  0  0  0  0  0  0  0  0  0  0
  152.2394  142.6018  159.8753 C   0  0  0  0  0  0  0  0  0  0  0  0
  152.6044  143.1402  161.2474 C   0  0  0  0  0  0  0  0  0  0  0  0
  152.7642  141.4552  159.3628 C   0  0  0  0  0  0  0  0  0  0  0  0
  153.7726  140.5849  160.1025 C   0  0  0  0  0  0  0  0  0  0  0  0
  152.3528  141.0087  158.0221 C   0  0  0  0  0  0  0  0  0  0  0  0
  152.7953  139.9870  157.4928 O   0  0  0  0  0  0  0  0  0  0  0  0
  148.0465  141.5605  155.2018 C   0  0  0  0  0  0  0  0  0  0  0  0
  145.2844  142.9617  153.7028 H   0  0  0  0  0  0  0  0  0  0  0  0
  146.7019  143.8519  154.2664 H   0  0  0  0  0  0  0  0  0  0  0  0
  145.6380  143.0527  155.4312 H   0  0  0  0  0  0  0  0  0  0  0  0
  145.7566  140.8136  152.7757 H   0  0  0  0  0  0  0  0  0  0  0  0
  147.5951  137.5283  152.5629 H   0  0  0  0  0  0  0  0  0  0  0  0
  147.2746  138.7715  151.3477 H   0  0  0  0  0  0  0  0  0  0  0  0
  145.9768  138.2161  152.4127 H   0  0  0  0  0  0  0  0  0  0  0  0
  149.1130  138.4889  154.1502 H   0  0  0  0  0  0  0  0  0  0  0  0
  149.6699  140.0156  157.0537 H   0  0  0  0  0  0  0  0  0  0  0  0
  150.6017  138.8742  154.7731 H   0  0  0  0  0  0  0  0  0  0  0  0
  151.7318  141.3840  155.3098 H   0  0  0  0  0  0  0  0  0  0  0  0
  150.3454  142.3293  155.6988 H   0  0  0  0  0  0  0  0  0  0  0  0
  150.2329  143.5435  157.3687 H   0  0  0  0  0  0  0  0  0  0  0  0
  152.3363  142.4224  162.0232 H   0  0  0  0  0  0  0  0  0  0  0  0
  152.0815  144.0734  161.4601 H   0  0  0  0  0  0  0  0  0  0  0  0
  153.6751  143.3368  161.3080 H   0  0  0  0  0  0  0  0  0  0  0  0
  154.7010  140.5200  159.5340 H   0  0  0  0  0  0  0  0  0  0  0  0
  153.3795  139.5751  160.2251 H   0  0  0  0  0  0  0  0  0  0  0  0
  154.0201  140.9615  161.0935 H   0  0  0  0  0  0  0  0  0  0  0  0
  148.2871  142.3378  155.9129 H   0  0  0  0  0  0  0  0  0  0  0  0
  1  2  1  0  0  0  0
  1 21  1  0  0  0  0
  1 22  1  0  0  0  0
  1 23  1  0  0  0  0
  2 20  1  0  0  0  0
  2  3  2  0  0  0  0
  3  4  1  0  0  0  0
  3 24  1  0  0  0  0
  4  5  1  0  0  0  0
  4  6  2  0  0  0  0
  5 25  1  0  0  0  0
  5 26  1  0  0  0  0
  5 27  1  0  0  0  0
  6  7  1  0  0  0  0
  6 28  1  0  0  0  0
  7  8  1  0  0  0  0
  7 20  2  0  0  0  0
  8  9  1  0  0  0  0
  8 10  1  0  0  0  0
  8 29  1  0  0  0  0
  9 30  1  0  0  0  0
 10 11  1  0  0  0  0
 10 31  1  0  0  0  0
 10 32  1  0  0  0  0
 11 18  1  0  0  0  0
 11 12  1  0  0  0  0
 12 13  2  0  0  0  0
 12 33  1  0  0  0  0
 13 14  1  0  0  0  0
 14 15  1  0  0  0  0
 14 16  2  0  0  0  0
 15 34  1  0  0  0  0
 15 35  1  0  0  0  0
 15 36  1  0  0  0  0
 16 17  1  0  0  0  0
 16 18  1  0  0  0  0
 17 37  1  0  0  0  0
 17 38  1  0  0  0  0
 17 39  1  0  0  0  0
 18 19  2  0  0  0  0
 20 40  1  0  0  0  0
M  END
> <s_m_source_file>
AV-unprocessed.smi

> <i_m_source_file_index>
2288

> <i_lp_mmshare_version>
43012

> <i_f3d_flags>
0

> <s_epik_input>
W0NIM11jMVtjSF1jKFtDSDNdKVtjSF1jKFtjSF0xKVtDQEhdKFtPSF0pW0NIMl1uMltjSF1uYyhbQ0gzXSljKFtDSDNdKWMyPU8=

> <s_epik_cmdline>
J2VwaWtfcHl0aG9uJywgJy1waCcsICc3LjAnLCAnLXRuJywgJzgnLCAnLW1hJywgJzIwMCcsICctbWV0YWxfYmluZGluZycsICctaW1hZScsICc8aW5maWxlLm1hZT4nLCAnLW9tYWUnLCAnPG91dGZpbGUubWFlPic=

> <r_lp_tautomer_probability>
1

> <r_epik_Ionization_Penalty>
5.07027e-05

> <r_epik_Ionization_Penalty_Charging>
7.56727e-08

> <r_epik_Ionization_Penalty_Neutral>
5.06271e-05

> <r_epik_State_Penalty>
-0

> <r_epik_Charging_Adjusted_Penalty>
7.56727e-08

> <i_epik_Tot_Q>
0

> <i_epik_Tot_abs_Q>
0

> <r_epik_Metal_State_Penalty>
-0

> <b_epik_Metal_Only>
0

> <s_lp_Force_Field>
OPLS_2005

> <r_lp_Energy>
19.2499

> <b_lp_Chiralities_Consistent>
1

> <s_lp_Variant>
AV-unprocessed.smi:2288-2

> <Gold.Version>
5.8.1

> <Gold.Id.Protein>
6NUR|6NUR_protein|mol2

> <Gold.PLP.Fitness>
44.6712

> <Gold.PLP.PLP>
-40.3155

> <Gold.PLP.part.hbond>
-1.0000

> <Gold.PLP.part.metal>
0.0000

> <Gold.PLP.part.buried>
0.0736

> <Gold.PLP.part.nonpolar>
-39.0048

> <Gold.PLP.part.repulsive>
0.0524

> <Gold.PLP.ligand.clash>
0.0000

> <Gold.PLP.ligand.torsion>
0.8340

> <Gold.PLP.Chemscore.Hbond>
1.0000

> <Gold.PLP.Chemscore.CHOScore>
1.0000

> <Gold.PLP.Chemscore.Metal>
0.0000

> <Gold.Chemscore.Hbonds>
donor molecule, donor type, donor heavy atom, donor atom, acceptor molecule, acceptor atom, score
      P1  H  7997  8010       L1    19  1.00
      L1  C    12    33       P1  8028  1.00

> <Gold.PLP.Chemscore.Internal.Correction>
0.0238

> <Gold.Rescore>
     Score         DG    S(hbond)    S(metal)    S(lipo)     H(rot)  DE(clash)    DE(int)     intcor
     13.70     -16.47       0.96        0.00     107.78       1.89       0.56       2.21       ----

> <Gold.Chemscore.Fitness>
13.6996

> <Gold.Chemscore.DG>
-16.4723

> <Gold.Chemscore.ZeroCoef>
-5.4800

> <Gold.Chemscore.Hbond>
0.9646

> <Gold.Chemscore.Metal>
0.0000

> <Gold.Chemscore.Lipo>
107.7828

> <Gold.Chemscore.Internal_Hbond>
0.0000

> <Gold.Chemscore.DEClash>
0.5592

> <Gold.Chemscore.DEInternal>
2.2135

> <Gold.Chemscore.Rot>
1.8907

> <Gold.Chemscore.Internal.Correction>
   9.000000E+99

> <Gold.Chemscore.Hbonds>
donor molecule, donor type, donor heavy atom, donor atom, acceptor molecule, acceptor atom, score
      P1  H  7997  8010       L1    19  0.90

> <Gold.Chemscore.Hbond.Weighted>
-3.2218

> <Gold.Chemscore.Metal.Weighted>
-0.0000

> <Gold.Chemscore.Lipo.Weighted>
-12.6106

> <Gold.Chemscore.Internal_Hbond.Weighted>
0.0000

> <Gold.Chemscore.DEClash.Weighted>
0.5592

> <Gold.Chemscore.DEInternal.Weighted>
2.2135

> <Gold.Chemscore.Rot.Weighted>
4.8401

> <Gold.Chemscore.Internal.Correction.Weighted>
   9.000000E+99

> <Gold.Protein.RotatedTorsions>
[ 6907 6896 6895 6894 ] final   10.11 input  -60.11 | X-H torsion
[ 7974 7965 7964 7962 ] final  -45.34 input  175.53 | X-H torsion
[ 8008 7997 7996 7995 ] final   43.41 input   59.86 | X-H torsion
[ 10167 10162 10161 10158 ] final  -20.54 input  -65.29 | X-H torsion
[ 10718 10713 10712 10709 ] final  -10.26 input   66.30 | X-H torsion
[ 10763 10752 10751 10750 ] final   62.97 input  -60.55 | X-H torsion
[ 11005 11000 10999 10996 ] final  -68.95 input  -57.11 | X-H torsion

> <Gold.Protein.ActiveResidues>
 VAL166  LYS551  ARG553  GLY616  TRP617  ASP618  TYR619  PRO620  LYS621  CYS622 
 ASP623  PHE694  ASN695  SER759  ASP760  ASP761  ALA762  ILE779  LEU786  VAL792 
 PHE793  MET794  SER795  GLU796  ALA797  LYS798  CYS799  TRP800  GLU811  SER814 

> <Gold.Protein.RotatedAtoms>
  151.7330  135.0871  160.0302 H   0  0  0  0  0  0  0  0  0  0  0  0  # atno 6907 bound_to 6896
  152.3529  133.6197  159.5966 H   0  0  0  0  0  0  0  0  0  0  0  0  # atno 6908 bound_to 6896
  150.7552  133.9462  159.3513 H   0  0  0  0  0  0  0  0  0  0  0  0  # atno 6909 bound_to 6896
  145.9830  140.7263  142.9354 H   0  0  0  0  0  0  0  0  0  0  0  0  # atno 7974 bound_to 7965
  155.3023  140.3386  155.4247 H   0  0  0  0  0  0  0  0  0  0  0  0  # atno 8008 bound_to 7997
  156.1995  140.1727  156.7967 H   0  0  0  0  0  0  0  0  0  0  0  0  # atno 8009 bound_to 7997
  154.5541  140.0700  156.8700 H   0  0  0  0  0  0  0  0  0  0  0  0  # atno 8010 bound_to 7997
  140.7277  143.4713  151.0243 H   0  0  0  0  0  0  0  0  0  0  0  0  # atno 10167 bound_to 10162
  156.6761  130.5023  149.5985 H   0  0  0  0  0  0  0  0  0  0  0  0  # atno 10718 bound_to 10713
  153.0001  135.5446  154.6278 H   0  0  0  0  0  0  0  0  0  0  0  0  # atno 10763 bound_to 10752
  154.5563  135.2830  155.0964 H   0  0  0  0  0  0  0  0  0  0  0  0  # atno 10764 bound_to 10752
  154.2184  135.6455  153.5189 H   0  0  0  0  0  0  0  0  0  0  0  0  # atno 10765 bound_to 10752
  141.1543  133.6753  156.6525 H   0  0  0  0  0  0  0  0  0  0  0  0  # atno 11005 bound_to 11000
  144.6867  140.2941  143.7273 LP  0  0  0  0  0  0  0  0  0  0  0  0  # atno 17320 bound_to 7965
  145.7741  139.1868  143.2195 LP  0  0  0  0  0  0  0  0  0  0  0  0  # atno 17321 bound_to 7965
  139.8405  143.7570  152.3180 LP  0  0  0  0  0  0  0  0  0  0  0  0  # atno 17342 bound_to 10162
  139.7717  144.7474  151.0214 LP  0  0  0  0  0  0  0  0  0  0  0  0  # atno 17343 bound_to 10162
  156.1902  130.6555  151.1052 LP  0  0  0  0  0  0  0  0  0  0  0  0  # atno 17370 bound_to 10713
  157.7060  131.0756  150.6665 LP  0  0  0  0  0  0  0  0  0  0  0  0  # atno 17371 bound_to 10713
  140.3309  134.7929  157.4325 LP  0  0  0  0  0  0  0  0  0  0  0  0  # atno 17394 bound_to 11000
  140.1017  134.5463  155.8346 LP  0  0  0  0  0  0  0  0  0  0  0  0  # atno 17395 bound_to 11000

$$$$
