AV-unprocessed.smi:3303|AV-procd|sdf|12680|dock3
  -GOLD-   2272019 13D 1   1.00000     0.00000
 Structure written by MMmdl.
 44 45  0  0  0  0  0  0  0  0  2 V2000
  147.2496  141.2754  154.2782 C   0  0  0  0  0  0  0  0  0  0  0  0
  148.6525  140.6687  154.1032 C   0  0  1  0  0  0  0  0  0  0  0  0
  149.5748  141.1280  155.2495 C   0  0  0  0  0  0  0  0  0  0  0  0
  150.9349  140.6067  155.0902 N   0  0  0  0  0  0  0  0  0  0  0  0
  151.7480  141.1873  156.1557 C   0  0  0  0  0  0  0  0  0  0  0  0
  150.9259  139.1347  155.1420 C   0  0  2  0  0  0  0  0  0  0  0  0
  152.3451  138.5397  155.0368 C   0  0  0  0  0  0  0  0  0  0  0  0
  150.0567  138.5962  153.9861 C   0  0  0  0  0  0  0  0  0  0  0  0
  148.6185  139.1293  154.0442 C   0  0  2  0  0  0  0  0  0  0  0  0
  147.8672  138.6609  152.8580 N   0  3  0  0  0  0  0  0  0  0  0  0
  146.4469  138.3448  153.1091 C   0  0  0  0  0  0  0  0  0  0  0  0
  145.9348  137.2896  152.1193 C   0  0  0  0  0  0  0  0  0  0  0  0
  144.6932  136.5811  152.6260 C   0  0  0  0  0  0  0  0  0  0  0  0
  143.5096  137.3020  152.8921 C   0  0  0  0  0  0  0  0  0  0  0  0
  142.3871  136.5963  153.3674 C   0  0  0  0  0  0  0  0  0  0  0  0
  142.4913  135.2049  153.5573 C   0  0  0  0  0  0  0  0  0  0  0  0
  143.7186  134.5781  153.2631 C   0  0  0  0  0  0  0  0  0  0  0  0
  144.8018  135.2460  152.8094 N   0  0  0  0  0  0  0  0  0  0  0  0
  146.7724  140.9150  155.1902 H   0  0  0  0  0  0  0  0  0  0  0  0
  146.5972  141.0279  153.4406 H   0  0  0  0  0  0  0  0  0  0  0  0
  147.2989  142.3629  154.3381 H   0  0  0  0  0  0  0  0  0  0  0  0
  149.0665  141.0467  153.1666 H   0  0  0  0  0  0  0  0  0  0  0  0
  149.6083  142.2185  155.2592 H   0  0  0  0  0  0  0  0  0  0  0  0
  149.1668  140.8162  156.2128 H   0  0  0  0  0  0  0  0  0  0  0  0
  152.8032  140.9487  156.0268 H   0  0  0  0  0  0  0  0  0  0  0  0
  151.4303  140.8329  157.1374 H   0  0  0  0  0  0  0  0  0  0  0  0
  151.6736  142.2754  156.1472 H   0  0  0  0  0  0  0  0  0  0  0  0
  150.4886  138.8166  156.0902 H   0  0  0  0  0  0  0  0  0  0  0  0
  152.3044  137.4539  154.9467 H   0  0  0  0  0  0  0  0  0  0  0  0
  152.9478  138.7522  155.9196 H   0  0  0  0  0  0  0  0  0  0  0  0
  152.8751  138.9218  154.1635 H   0  0  0  0  0  0  0  0  0  0  0  0
  150.5130  138.8665  153.0321 H   0  0  0  0  0  0  0  0  0  0  0  0
  150.0378  137.5059  154.0180 H   0  0  0  0  0  0  0  0  0  0  0  0
  148.1501  138.7510  154.9549 H   0  0  0  0  0  0  0  0  0  0  0  0
  147.9144  139.3816  152.1521 H   0  0  0  0  0  0  0  0  0  0  0  0
  146.3376  137.9866  154.1336 H   0  0  0  0  0  0  0  0  0  0  0  0
  145.8536  139.2558  153.0182 H   0  0  0  0  0  0  0  0  0  0  0  0
  145.7123  137.7563  151.1587 H   0  0  0  0  0  0  0  0  0  0  0  0
  146.7112  136.5473  151.9276 H   0  0  0  0  0  0  0  0  0  0  0  0
  143.4597  138.3699  152.7373 H   0  0  0  0  0  0  0  0  0  0  0  0
  141.4635  137.1130  153.5828 H   0  0  0  0  0  0  0  0  0  0  0  0
  141.6507  134.6316  153.9195 H   0  0  0  0  0  0  0  0  0  0  0  0
  143.8339  133.5126  153.3971 H   0  0  0  0  0  0  0  0  0  0  0  0
  148.3210  137.8326  152.4997 H   0  0  0  0  0  0  0  0  0  0  0  0
  1  2  1  0  0  0  0
  1 19  1  0  0  0  0
  1 20  1  0  0  0  0
  1 21  1  0  0  0  0
  2  9  1  0  0  0  0
  2  3  1  0  0  0  0
  2 22  1  0  0  0  0
  3  4  1  0  0  0  0
  3 23  1  0  0  0  0
  3 24  1  0  0  0  0
  4  5  1  0  0  0  0
  4  6  1  0  0  0  0
  5 25  1  0  0  0  0
  5 26  1  0  0  0  0
  5 27  1  0  0  0  0
  6  7  1  0  0  0  0
  6  8  1  0  0  0  0
  6 28  1  0  0  0  0
  7 29  1  0  0  0  0
  7 30  1  0  0  0  0
  7 31  1  0  0  0  0
  8  9  1  0  0  0  0
  8 32  1  0  0  0  0
  8 33  1  0  0  0  0
  9 10  1  0  0  0  0
  9 34  1  0  0  0  0
 10 11  1  0  0  0  0
 10 35  1  0  0  0  0
 10 44  1  0  0  0  0
 11 12  1  0  0  0  0
 11 36  1  0  0  0  0
 11 37  1  0  0  0  0
 12 13  1  0  0  0  0
 12 38  1  0  0  0  0
 12 39  1  0  0  0  0
 13 18  1  0  0  0  0
 13 14  2  0  0  0  0
 14 15  1  0  0  0  0
 14 40  1  0  0  0  0
 15 16  2  0  0  0  0
 15 41  1  0  0  0  0
 16 17  1  0  0  0  0
 16 42  1  0  0  0  0
 17 18  2  0  0  0  0
 17 43  1  0  0  0  0
M  CHG  1  10   1
M  END
> <s_m_source_file>
AV-unprocessed.smi

> <i_m_source_file_index>
3303

> <i_lp_mmshare_version>
43012

> <i_f3d_flags>
0

> <s_epik_input>
W0NIM11bQ0BASF0xW0NIMl1OKFtDSDNdKVtDQEBIXShbQ0gzXSlbQ0gyXVtDQEhdMVtOSF1bQ0gyXVtDSDJdYzJbY0hdW2NIXVtjSF1bY0hdbjI=

> <s_epik_cmdline>
J2VwaWtfcHl0aG9uJywgJy1waCcsICc3LjAnLCAnLXRuJywgJzgnLCAnLW1hJywgJzIwMCcsICctbWV0YWxfYmluZGluZycsICctaW1hZScsICc8aW5maWxlLm1hZT4nLCAnLW9tYWUnLCAnPG91dGZpbGUubWFlPic=

> <r_epik_Ionization_Penalty>
1.37325

> <r_epik_Ionization_Penalty_Charging>
0.000251572

> <r_epik_Ionization_Penalty_Neutral>
1.373

> <r_epik_State_Penalty>
1.46343

> <r_epik_Charging_Adjusted_Penalty>
1.46368

> <i_epik_Tot_Q>
1

> <i_epik_Tot_abs_Q>
1

> <r_epik_Metal_State_Penalty>
1.46331

> <b_epik_Metal_Only>
0

> <s_lp_Force_Field>
OPLS_2005

> <r_lp_Energy>
21.6133

> <b_lp_Chiralities_Consistent>
1

> <s_lp_Variant>
AV-unprocessed.smi:3303-24

> <Gold.Version>
5.8.1

> <Gold.Id.Protein>
6NUR|6NUR_protein|mol2

> <Gold.PLP.Fitness>
45.3662

> <Gold.PLP.PLP>
-33.1282

> <Gold.PLP.part.hbond>
-3.0000

> <Gold.PLP.part.metal>
0.0000

> <Gold.PLP.part.buried>
-1.6926

> <Gold.PLP.part.nonpolar>
-28.4700

> <Gold.PLP.part.repulsive>
0.1817

> <Gold.PLP.ligand.clash>
0.0000

> <Gold.PLP.ligand.torsion>
0.7446

> <Gold.PLP.Chemscore.Hbond>
3.5787

> <Gold.PLP.Chemscore.CHOScore>
0.9952

> <Gold.PLP.Chemscore.Metal>
0.0000

> <Gold.Chemscore.Hbonds>
donor molecule, donor type, donor heavy atom, donor atom, acceptor molecule, acceptor atom, score
      L1  H    10    35       P1  7957  0.54
      L1  H    10    44       P1  7948  2.00
      P1  H  7989  7998       L1     4  0.94
      L1  C    17    43       P1 10957  1.00

> <Gold.PLP.Chemscore.Internal.Correction>
0.0055

> <Gold.Rescore>
     Score         DG    S(hbond)    S(metal)    S(lipo)     H(rot)  DE(clash)    DE(int)     intcor
     17.09     -18.42       1.92        0.00      84.95       1.33       0.49       0.84       ----

> <Gold.Chemscore.Fitness>
17.0870

> <Gold.Chemscore.DG>
-18.4236

> <Gold.Chemscore.ZeroCoef>
-5.4800

> <Gold.Chemscore.Hbond>
1.9189

> <Gold.Chemscore.Metal>
0.0000

> <Gold.Chemscore.Lipo>
84.9460

> <Gold.Chemscore.Internal_Hbond>
0.0000

> <Gold.Chemscore.DEClash>
0.4930

> <Gold.Chemscore.DEInternal>
0.8436

> <Gold.Chemscore.Rot>
1.3298

> <Gold.Chemscore.Internal.Correction>
   9.000000E+99

> <Gold.Chemscore.Hbonds>
donor molecule, donor type, donor heavy atom, donor atom, acceptor molecule, acceptor atom, score
      L1  H    10    35       P1  7957  0.51
      L1  H    10    44       P1  7948  1.00
      P1  H  7989  7998       L1     4  0.20

> <Gold.Chemscore.Hbond.Weighted>
-6.4092

> <Gold.Chemscore.Metal.Weighted>
-0.0000

> <Gold.Chemscore.Lipo.Weighted>
-9.9387

> <Gold.Chemscore.Internal_Hbond.Weighted>
0.0000

> <Gold.Chemscore.DEClash.Weighted>
0.4930

> <Gold.Chemscore.DEInternal.Weighted>
0.8436

> <Gold.Chemscore.Rot.Weighted>
3.4043

> <Gold.Chemscore.Internal.Correction.Weighted>
   9.000000E+99

> <Gold.Protein.RotatedTorsions>
[ 6907 6896 6895 6894 ] final  118.56 input  -60.11 | X-H torsion
[ 7974 7965 7964 7962 ] final   97.06 input  175.53 | X-H torsion
[ 8008 7997 7996 7995 ] final   53.20 input   59.86 | X-H torsion
[ 10167 10162 10161 10158 ] final   -2.83 input  -65.29 | X-H torsion
[ 10718 10713 10712 10709 ] final  -44.23 input   66.30 | X-H torsion
[ 10763 10752 10751 10750 ] final    3.51 input  -60.55 | X-H torsion
[ 11005 11000 10999 10996 ] final   32.62 input  -57.11 | X-H torsion

> <Gold.Protein.ActiveResidues>
 VAL166  LYS551  ARG553  GLY616  TRP617  ASP618  TYR619  PRO620  LYS621  CYS622 
 ASP623  PHE694  ASN695  SER759  ASP760  ASP761  ALA762  ILE779  LEU786  VAL792 
 PHE793  MET794  SER795  GLU796  ALA797  LYS798  CYS799  TRP800  GLU811  SER814 

> <Gold.Protein.RotatedAtoms>
  152.4535  133.7675  159.6780 H   0  0  0  0  0  0  0  0  0  0  0  0  # atno 6907 bound_to 6896
  150.8453  133.7861  159.3051 H   0  0  0  0  0  0  0  0  0  0  0  0  # atno 6908 bound_to 6896
  151.5473  135.1070  159.9993 H   0  0  0  0  0  0  0  0  0  0  0  0  # atno 6909 bound_to 6896
  145.4305  139.2311  143.3146 H   0  0  0  0  0  0  0  0  0  0  0  0  # atno 7974 bound_to 7965
  155.4643  140.3463  155.4317 H   0  0  0  0  0  0  0  0  0  0  0  0  # atno 8008 bound_to 7997
  156.1141  140.1469  156.9327 H   0  0  0  0  0  0  0  0  0  0  0  0  # atno 8009 bound_to 7997
  154.4777  140.0880  156.7280 H   0  0  0  0  0  0  0  0  0  0  0  0  # atno 8010 bound_to 7997
  140.6866  143.6611  150.8266 H   0  0  0  0  0  0  0  0  0  0  0  0  # atno 10167 bound_to 10162
  156.2407  130.4179  149.8764 H   0  0  0  0  0  0  0  0  0  0  0  0  # atno 10718 bound_to 10713
  153.2825  135.6942  153.7372 H   0  0  0  0  0  0  0  0  0  0  0  0  # atno 10763 bound_to 10752
  153.6354  135.3403  155.3055 H   0  0  0  0  0  0  0  0  0  0  0  0  # atno 10764 bound_to 10752
  154.8499  135.4419  154.1882 H   0  0  0  0  0  0  0  0  0  0  0  0  # atno 10765 bound_to 10752
  140.2716  134.3075  155.7826 H   0  0  0  0  0  0  0  0  0  0  0  0  # atno 11005 bound_to 11000
  146.2609  140.5042  142.8854 LP  0  0  0  0  0  0  0  0  0  0  0  0  # atno 17320 bound_to 7965
  144.8186  140.6510  143.6368 LP  0  0  0  0  0  0  0  0  0  0  0  0  # atno 17321 bound_to 7965
  140.0318  143.5435  152.2756 LP  0  0  0  0  0  0  0  0  0  0  0  0  # atno 17342 bound_to 10162
  139.6231  144.7632  151.2697 LP  0  0  0  0  0  0  0  0  0  0  0  0  # atno 17343 bound_to 10162
  156.6346  130.8680  151.3502 LP  0  0  0  0  0  0  0  0  0  0  0  0  # atno 17370 bound_to 10713
  157.7174  130.9514  150.1306 LP  0  0  0  0  0  0  0  0  0  0  0  0  # atno 17371 bound_to 10713
  141.2176  133.7470  156.9343 LP  0  0  0  0  0  0  0  0  0  0  0  0  # atno 17394 bound_to 11000
  140.1367  134.9320  157.2412 LP  0  0  0  0  0  0  0  0  0  0  0  0  # atno 17395 bound_to 11000

$$$$
