AV-unprocessed.smi:1535|AV-procd|sdf|6184|dock2
  -GOLD-   22720 6343D 1   1.00000     0.00000
 Structure written by MMmdl.
 47 48  0  0  0  0  0  0  0  0  2 V2000
  152.8639  143.5623  161.0974 C   0  0  0  0  0  0  0  0  0  0  0  0
  152.2445  142.9204  159.8681 C   0  0  0  0  0  0  0  0  0  0  0  0
  152.8313  141.7508  159.3340 C   0  0  0  0  0  0  0  0  0  0  0  0
  152.2850  141.1221  158.1942 C   0  0  0  0  0  0  0  0  0  0  0  0
  152.6899  139.9878  157.5121 N   0  0  0  0  0  0  0  0  0  0  0  0
  151.7803  139.9165  156.5450 C   0  0  0  0  0  0  0  0  0  0  0  0
  150.8398  140.8804  156.5114 N   0  0  0  0  0  0  0  0  0  0  0  0
  149.7602  141.0182  155.5510 C   0  0  0  0  0  0  0  0  0  0  0  0
  149.7690  139.9030  154.4866 C   0  0  2  0  0  0  0  0  0  0  0  0
  148.8421  140.2577  153.4806 O   0  0  0  0  0  0  0  0  0  0  0  0
  149.3848  138.5149  155.0464 C   0  0  0  0  0  0  0  0  0  0  0  0
  150.0984  137.4076  154.3577 N   0  3  1  0  0  0  0  0  0  0  0  0
  151.5432  137.6914  154.1742 C   0  0  0  0  0  0  0  0  0  0  0  0
  149.8512  136.0903  155.0022 C   0  0  0  0  0  0  0  0  0  0  0  0
  150.8225  135.7904  156.1606 C   0  0  1  0  0  0  0  0  0  0  0  0
  150.8497  136.9377  157.1785 C   0  0  0  0  0  0  0  0  0  0  0  0
  150.4924  134.5167  156.8206 C   0  0  0  0  0  0  0  0  0  0  0  0
  150.2373  133.5151  157.3390 N   0  0  0  0  0  0  0  0  0  0  0  0
  151.1281  141.7018  157.5959 C   0  0  0  0  0  0  0  0  0  0  0  0
  150.5344  142.8644  158.1185 C   0  0  0  0  0  0  0  0  0  0  0  0
  151.0919  143.4785  159.2594 C   0  0  0  0  0  0  0  0  0  0  0  0
  150.4428  144.7329  159.8171 C   0  0  0  0  0  0  0  0  0  0  0  0
  153.7560  143.0252  161.4207 H   0  0  0  0  0  0  0  0  0  0  0  0
  152.1549  143.5628  161.9256 H   0  0  0  0  0  0  0  0  0  0  0  0
  153.1526  144.5925  160.8873 H   0  0  0  0  0  0  0  0  0  0  0  0
  153.7084  141.3247  159.7985 H   0  0  0  0  0  0  0  0  0  0  0  0
  151.8054  139.1227  155.8124 H   0  0  0  0  0  0  0  0  0  0  0  0
  148.8129  141.0181  156.0927 H   0  0  0  0  0  0  0  0  0  0  0  0
  149.8497  141.9970  155.0776 H   0  0  0  0  0  0  0  0  0  0  0  0
  150.7579  139.8698  154.0314 H   0  0  0  0  0  0  0  0  0  0  0  0
  149.1591  139.9357  152.6497 H   0  0  0  0  0  0  0  0  0  0  0  0
  149.5897  138.4474  156.1158 H   0  0  0  0  0  0  0  0  0  0  0  0
  148.3052  138.3984  154.9403 H   0  0  0  0  0  0  0  0  0  0  0  0
  152.0622  137.7090  155.1335 H   0  0  0  0  0  0  0  0  0  0  0  0
  151.7053  138.6530  153.6893 H   0  0  0  0  0  0  0  0  0  0  0  0
  152.0182  136.9413  153.5436 H   0  0  0  0  0  0  0  0  0  0  0  0
  148.8167  136.0426  155.3460 H   0  0  0  0  0  0  0  0  0  0  0  0
  149.9672  135.2982  154.2611 H   0  0  0  0  0  0  0  0  0  0  0  0
  151.8342  135.6796  155.7723 H   0  0  0  0  0  0  0  0  0  0  0  0
  151.5624  136.7332  157.9781 H   0  0  0  0  0  0  0  0  0  0  0  0
  149.8707  137.0844  157.6359 H   0  0  0  0  0  0  0  0  0  0  0  0
  151.1427  137.8763  156.7070 H   0  0  0  0  0  0  0  0  0  0  0  0
  149.6561  143.2795  157.6469 H   0  0  0  0  0  0  0  0  0  0  0  0
  149.5560  145.0100  159.2464 H   0  0  0  0  0  0  0  0  0  0  0  0
  151.1397  145.5705  159.7811 H   0  0  0  0  0  0  0  0  0  0  0  0
  150.1387  144.5792  160.8528 H   0  0  0  0  0  0  0  0  0  0  0  0
  149.6838  137.3510  153.4376 H   0  0  0  0  0  0  0  0  0  0  0  0
  1  2  1  0  0  0  0
  1 23  1  0  0  0  0
  1 24  1  0  0  0  0
  1 25  1  0  0  0  0
  2 21  1  0  0  0  0
  2  3  2  0  0  0  0
  3  4  1  0  0  0  0
  3 26  1  0  0  0  0
  4 19  2  0  0  0  0
  4  5  1  0  0  0  0
  5  6  2  0  0  0  0
  6  7  1  0  0  0  0
  6 27  1  0  0  0  0
  7  8  1  0  0  0  0
  7 19  1  0  0  0  0
  8  9  1  0  0  0  0
  8 28  1  0  0  0  0
  8 29  1  0  0  0  0
  9 10  1  0  0  0  0
  9 11  1  0  0  0  0
  9 30  1  0  0  0  0
 10 31  1  0  0  0  0
 11 12  1  0  0  0  0
 11 32  1  0  0  0  0
 11 33  1  0  0  0  0
 12 13  1  0  0  0  0
 12 14  1  0  0  0  0
 12 47  1  0  0  0  0
 13 34  1  0  0  0  0
 13 35  1  0  0  0  0
 13 36  1  0  0  0  0
 14 15  1  0  0  0  0
 14 37  1  0  0  0  0
 14 38  1  0  0  0  0
 15 16  1  0  0  0  0
 15 17  1  0  0  0  0
 15 39  1  0  0  0  0
 16 40  1  0  0  0  0
 16 41  1  0  0  0  0
 16 42  1  0  0  0  0
 17 18  3  0  0  0  0
 19 20  1  0  0  0  0
 20 21  2  0  0  0  0
 20 43  1  0  0  0  0
 21 22  1  0  0  0  0
 22 44  1  0  0  0  0
 22 45  1  0  0  0  0
 22 46  1  0  0  0  0
M  CHG  1  12   1
M  END
> <s_m_source_file>
AV-unprocessed.smi

> <i_m_source_file_index>
1535

> <i_lp_mmshare_version>
43012

> <i_f3d_flags>
0

> <s_epik_input>
W0NIM11jKFtjSF0xKWMoW0NIM10pW2NIXWMoYzEyKW4oW2NIXW4yKVtDSDJdW0NASF0oW09IXSlbQ0gyXU4oW0NIM10pW0NIMl1bQ0BIXShbQ0gzXSlDI04=

> <s_epik_cmdline>
J2VwaWtfcHl0aG9uJywgJy1waCcsICc3LjAnLCAnLXRuJywgJzgnLCAnLW1hJywgJzIwMCcsICctbWV0YWxfYmluZGluZycsICctaW1hZScsICc8aW5maWxlLm1hZT4nLCAnLW9tYWUnLCAnPG91dGZpbGUubWFlPic=

> <r_epik_Ionization_Penalty>
2.21058

> <r_epik_Ionization_Penalty_Charging>
2.12381

> <r_epik_Ionization_Penalty_Neutral>
0.0867699

> <r_epik_State_Penalty>
2.36208

> <r_epik_Charging_Adjusted_Penalty>
4.48589

> <i_epik_Tot_Q>
1

> <i_epik_Tot_abs_Q>
1

> <r_epik_Metal_State_Penalty>
2.2818

> <b_epik_Metal_Only>
0

> <s_lp_Force_Field>
OPLS_2005

> <r_lp_Energy>
14.8259

> <b_lp_Chiralities_Consistent>
1

> <s_lp_Variant>
AV-unprocessed.smi:1535-15

> <Gold.Version>
5.8.1

> <Gold.Id.Protein>
6NUR|6NUR_protein|mol2

> <Gold.PLP.Fitness>
54.0876

> <Gold.PLP.PLP>
-40.4783

> <Gold.PLP.part.hbond>
-3.6274

> <Gold.PLP.part.metal>
0.0000

> <Gold.PLP.part.buried>
-5.5554

> <Gold.PLP.part.nonpolar>
-32.4185

> <Gold.PLP.part.repulsive>
0.0426

> <Gold.PLP.ligand.clash>
0.0000

> <Gold.PLP.ligand.torsion>
0.8097

> <Gold.PLP.Chemscore.Hbond>
4.9760

> <Gold.PLP.Chemscore.CHOScore>
0.0000

> <Gold.PLP.Chemscore.Metal>
0.0000

> <Gold.Chemscore.Hbonds>
donor molecule, donor type, donor heavy atom, donor atom, acceptor molecule, acceptor atom, score
      L1  H    10    31       P1  7957  1.00
      L1  H    12    47       P1  7948  1.98
      P1  H  6896  6909       L1    18  0.96
      P1  H  7997  8009       L1     5  1.00

> <Gold.PLP.Chemscore.Internal.Correction>
0.3007

> <Gold.Rescore>
     Score         DG    S(hbond)    S(metal)    S(lipo)     H(rot)  DE(clash)    DE(int)     intcor
     21.03     -23.22       3.43        0.00     110.67       2.60       0.41       1.78       ----

> <Gold.Chemscore.Fitness>
21.0251

> <Gold.Chemscore.DG>
-23.2156

> <Gold.Chemscore.ZeroCoef>
-5.4800

> <Gold.Chemscore.Hbond>
3.4284

> <Gold.Chemscore.Metal>
0.0000

> <Gold.Chemscore.Lipo>
110.6737

> <Gold.Chemscore.Internal_Hbond>
0.0000

> <Gold.Chemscore.DEClash>
0.4064

> <Gold.Chemscore.DEInternal>
1.7841

> <Gold.Chemscore.Rot>
2.6031

> <Gold.Chemscore.Internal.Correction>
   9.000000E+99

> <Gold.Chemscore.Hbonds>
donor molecule, donor type, donor heavy atom, donor atom, acceptor molecule, acceptor atom, score
      L1  H    10    31       P1  7957  0.95
      L1  H    12    47       P1  7948  0.65
      P1  H  6896  6909       L1    18  0.57
      P1  H  7997  8009       L1     5  0.44

> <Gold.Chemscore.Hbond.Weighted>
-11.4508

> <Gold.Chemscore.Metal.Weighted>
-0.0000

> <Gold.Chemscore.Lipo.Weighted>
-12.9488

> <Gold.Chemscore.Internal_Hbond.Weighted>
0.0000

> <Gold.Chemscore.DEClash.Weighted>
0.4064

> <Gold.Chemscore.DEInternal.Weighted>
1.7841

> <Gold.Chemscore.Rot.Weighted>
6.6640

> <Gold.Chemscore.Internal.Correction.Weighted>
   9.000000E+99

> <Gold.Protein.RotatedTorsions>
[ 6907 6896 6895 6894 ] final  -18.30 input  -60.11 | X-H torsion
[ 7974 7965 7964 7962 ] final  -74.18 input  175.53 | X-H torsion
[ 8008 7997 7996 7995 ] final -176.21 input   59.86 | X-H torsion
[ 10167 10162 10161 10158 ] final  -63.69 input  -65.29 | X-H torsion
[ 10718 10713 10712 10709 ] final   83.84 input   66.30 | X-H torsion
[ 10763 10752 10751 10750 ] final -105.10 input  -60.55 | X-H torsion
[ 11005 11000 10999 10996 ] final  -30.37 input  -57.11 | X-H torsion

> <Gold.Protein.ActiveResidues>
 VAL166  LYS551  ARG553  GLY616  TRP617  ASP618  TYR619  PRO620  LYS621  CYS622 
 ASP623  PHE694  ASN695  SER759  ASP760  ASP761  ALA762  ILE779  LEU786  VAL792 
 PHE793  MET794  SER795  GLU796  ALA797  LYS798  CYS799  TRP800  GLU811  SER814 

> <Gold.Protein.RotatedAtoms>
  151.2803  135.0711  159.9166 H   0  0  0  0  0  0  0  0  0  0  0  0  # atno 6907 bound_to 6896
  152.5335  134.0038  159.7917 H   0  0  0  0  0  0  0  0  0  0  0  0  # atno 6908 bound_to 6896
  151.0291  133.5756  159.2693 H   0  0  0  0  0  0  0  0  0  0  0  0  # atno 6909 bound_to 6896
  145.6424  140.9307  143.1028 H   0  0  0  0  0  0  0  0  0  0  0  0  # atno 7974 bound_to 7965
  155.9921  140.1203  157.0629 H   0  0  0  0  0  0  0  0  0  0  0  0  # atno 8008 bound_to 7997
  154.4215  140.1123  156.5648 H   0  0  0  0  0  0  0  0  0  0  0  0  # atno 8009 bound_to 7997
  155.6329  140.3473  155.4691 H   0  0  0  0  0  0  0  0  0  0  0  0  # atno 8010 bound_to 7997
  140.5853  143.2333  151.6255 H   0  0  0  0  0  0  0  0  0  0  0  0  # atno 10167 bound_to 10162
  157.6887  131.0108  150.2583 H   0  0  0  0  0  0  0  0  0  0  0  0  # atno 10718 bound_to 10713
  154.7923  135.4762  154.0081 H   0  0  0  0  0  0  0  0  0  0  0  0  # atno 10763 bound_to 10752
  153.1650  135.6815  153.8695 H   0  0  0  0  0  0  0  0  0  0  0  0  # atno 10764 bound_to 10752
  153.8296  135.3193  155.3395 H   0  0  0  0  0  0  0  0  0  0  0  0  # atno 10765 bound_to 10752
  140.9377  133.7298  156.1029 H   0  0  0  0  0  0  0  0  0  0  0  0  # atno 11005 bound_to 11000
  144.7152  139.8222  143.7401 LP  0  0  0  0  0  0  0  0  0  0  0  0  # atno 17320 bound_to 7965
  146.1270  139.4298  143.0193 LP  0  0  0  0  0  0  0  0  0  0  0  0  # atno 17321 bound_to 7965
  139.5194  144.3254  152.0873 LP  0  0  0  0  0  0  0  0  0  0  0  0  # atno 17342 bound_to 10162
  140.2410  144.4269  150.6260 LP  0  0  0  0  0  0  0  0  0  0  0  0  # atno 17343 bound_to 10162
  156.3167  130.3780  149.7612 LP  0  0  0  0  0  0  0  0  0  0  0  0  # atno 17370 bound_to 10713
  156.5195  130.8208  151.3198 LP  0  0  0  0  0  0  0  0  0  0  0  0  # atno 17371 bound_to 10713
  140.7777  134.3761  157.5494 LP  0  0  0  0  0  0  0  0  0  0  0  0  # atno 17394 bound_to 11000
  139.8812  134.9062  156.2917 LP  0  0  0  0  0  0  0  0  0  0  0  0  # atno 17395 bound_to 11000

$$$$
