AV-unprocessed.smi:2789|AV-procd|sdf|10763|dock1
  -GOLD-   2272015193D 1   1.00000     0.00000
 Structure written by MMmdl.
 35 36  0  0  0  0  0  0  0  0  1 V2000
  151.5551  145.6635  159.9267 C   0  0  0  0  0  0  0  0  0  0  0  0
  152.0358  144.6114  159.1041 O   0  0  0  0  0  0  0  0  0  0  0  0
  152.8484  143.6738  159.8004 C   0  0  1  0  0  0  0  0  0  0  0  0
  152.2029  143.2716  161.1249 C   0  0  0  0  0  0  0  0  0  0  0  0
  152.9268  141.9812  161.5016 C   0  0  0  0  0  0  0  0  0  0  0  0
  153.1957  141.2685  160.1705 C   0  0  0  0  0  0  0  0  0  0  0  0
  153.0745  142.3379  159.0626 C   0  0  1  0  0  0  0  0  0  0  0  0
  151.9619  142.0398  158.1618 N   0  0  0  0  0  0  0  0  0  0  0  0
  151.8782  140.9628  157.3691 C   0  0  0  0  0  0  0  0  0  0  0  0
  152.7361  140.0806  157.3325 O   0  0  0  0  0  0  0  0  0  0  0  0
  150.7516  140.9883  156.6362 N   0  0  0  0  0  0  0  0  0  0  0  0
  150.3107  140.0819  155.7239 C   0  0  0  0  0  0  0  0  0  0  0  0
  150.6340  138.7581  155.6006 C   0  0  0  0  0  0  0  0  0  0  0  0
  149.8563  138.3545  154.4778 C   0  0  0  0  0  0  0  0  0  0  0  0
  149.1276  139.3400  153.9684 N   0  0  0  0  0  0  0  0  0  0  0  0
  149.4063  140.4142  154.7389 N   0  0  0  0  0  0  0  0  0  0  0  0
  148.7727  141.6892  154.4636 C   0  0  0  0  0  0  0  0  0  0  0  0
  150.9480  146.3439  159.3300 H   0  0  0  0  0  0  0  0  0  0  0  0
  152.3719  146.2396  160.3623 H   0  0  0  0  0  0  0  0  0  0  0  0
  150.9311  145.2782  160.7338 H   0  0  0  0  0  0  0  0  0  0  0  0
  153.8161  144.1244  160.0310 H   0  0  0  0  0  0  0  0  0  0  0  0
  152.2931  144.0438  161.8893 H   0  0  0  0  0  0  0  0  0  0  0  0
  151.1414  143.0678  160.9764 H   0  0  0  0  0  0  0  0  0  0  0  0
  153.8745  142.2239  161.9839 H   0  0  0  0  0  0  0  0  0  0  0  0
  152.3519  141.3681  162.1960 H   0  0  0  0  0  0  0  0  0  0  0  0
  154.1847  140.8088  160.1714 H   0  0  0  0  0  0  0  0  0  0  0  0
  152.4737  140.4630  160.0268 H   0  0  0  0  0  0  0  0  0  0  0  0
  153.9963  142.3994  158.4812 H   0  0  0  0  0  0  0  0  0  0  0  0
  151.2149  142.7182  158.1282 H   0  0  0  0  0  0  0  0  0  0  0  0
  150.1530  141.7899  156.7703 H   0  0  0  0  0  0  0  0  0  0  0  0
  151.3059  138.1615  156.1991 H   0  0  0  0  0  0  0  0  0  0  0  0
  149.7981  137.3782  154.0200 H   0  0  0  0  0  0  0  0  0  0  0  0
  148.1450  141.9753  155.3077 H   0  0  0  0  0  0  0  0  0  0  0  0
  148.1541  141.6259  153.5674 H   0  0  0  0  0  0  0  0  0  0  0  0
  149.5362  142.4525  154.3117 H   0  0  0  0  0  0  0  0  0  0  0  0
  1  2  1  0  0  0  0
  1 18  1  0  0  0  0
  1 19  1  0  0  0  0
  1 20  1  0  0  0  0
  2  3  1  0  0  0  0
  3  7  1  0  0  0  0
  3  4  1  0  0  0  0
  3 21  1  0  0  0  0
  4  5  1  0  0  0  0
  4 22  1  0  0  0  0
  4 23  1  0  0  0  0
  5  6  1  0  0  0  0
  5 24  1  0  0  0  0
  5 25  1  0  0  0  0
  6  7  1  0  0  0  0
  6 26  1  0  0  0  0
  6 27  1  0  0  0  0
  7  8  1  0  0  0  0
  7 28  1  0  0  0  0
  8  9  1  0  0  0  0
  8 29  1  0  0  0  0
  9 10  2  0  0  0  0
  9 11  1  0  0  0  0
 11 12  1  0  0  0  0
 11 30  1  0  0  0  0
 12 16  1  0  0  0  0
 12 13  2  0  0  0  0
 13 14  1  0  0  0  0
 13 31  1  0  0  0  0
 14 15  2  0  0  0  0
 14 32  1  0  0  0  0
 15 16  1  0  0  0  0
 16 17  1  0  0  0  0
 17 33  1  0  0  0  0
 17 34  1  0  0  0  0
 17 35  1  0  0  0  0
M  END
> <s_m_source_file>
AV-unprocessed.smi

> <i_m_source_file_index>
2789

> <i_lp_mmshare_version>
43012

> <i_f3d_flags>
0

> <s_epik_input>
W0NIM11PW0NAQEhdMVtDSDJdW0NIMl1bQ0gyXVtDQEhdMVtOSF1DKD1PKVtOSF1jMltjSF1bY0hdbm4yW0NIM10=

> <s_epik_cmdline>
J2VwaWtfcHl0aG9uJywgJy1waCcsICc3LjAnLCAnLXRuJywgJzgnLCAnLW1hJywgJzIwMCcsICctbWV0YWxfYmluZGluZycsICctaW1hZScsICc8aW5maWxlLm1hZT4nLCAnLW9tYWUnLCAnPG91dGZpbGUubWFlPic=

> <r_lp_tautomer_probability>
1

> <r_epik_Ionization_Penalty>
4.40608e-05

> <r_epik_Ionization_Penalty_Charging>
0

> <r_epik_Ionization_Penalty_Neutral>
4.40608e-05

> <r_epik_State_Penalty>
-0

> <r_epik_Charging_Adjusted_Penalty>
0

> <i_epik_Tot_Q>
0

> <i_epik_Tot_abs_Q>
0

> <r_epik_Metal_State_Penalty>
-0

> <b_epik_Metal_Only>
0

> <s_lp_Force_Field>
OPLS_2005

> <r_lp_Energy>
22.0425

> <b_lp_Chiralities_Consistent>
1

> <s_lp_Variant>
AV-unprocessed.smi:2789-2

> <Gold.Version>
5.8.1

> <Gold.Id.Protein>
6NUR|6NUR_protein|mol2

> <Gold.PLP.Fitness>
41.2543

> <Gold.PLP.PLP>
-35.6921

> <Gold.PLP.part.hbond>
-1.0000

> <Gold.PLP.part.metal>
0.0000

> <Gold.PLP.part.buried>
-3.5809

> <Gold.PLP.part.nonpolar>
-31.2291

> <Gold.PLP.part.repulsive>
1.6720

> <Gold.PLP.ligand.clash>
0.0000

> <Gold.PLP.ligand.torsion>
0.2234

> <Gold.PLP.Chemscore.Hbond>
1.0000

> <Gold.PLP.Chemscore.CHOScore>
1.0000

> <Gold.PLP.Chemscore.Metal>
0.0000

> <Gold.Chemscore.Hbonds>
donor molecule, donor type, donor heavy atom, donor atom, acceptor molecule, acceptor atom, score
      P1  H  7997  8010       L1    10  1.00
      L1  C    14    32       P1  7948  0.94

> <Gold.PLP.Chemscore.Internal.Correction>
0.0091

> <Gold.Rescore>
     Score         DG    S(hbond)    S(metal)    S(lipo)     H(rot)  DE(clash)    DE(int)     intcor
     14.51     -15.56       0.98        0.00      85.90       1.27       0.07       0.97       ----

> <Gold.Chemscore.Fitness>
14.5130

> <Gold.Chemscore.DG>
-15.5603

> <Gold.Chemscore.ZeroCoef>
-5.4800

> <Gold.Chemscore.Hbond>
0.9833

> <Gold.Chemscore.Metal>
0.0000

> <Gold.Chemscore.Lipo>
85.9004

> <Gold.Chemscore.Internal_Hbond>
0.0000

> <Gold.Chemscore.DEClash>
0.0742

> <Gold.Chemscore.DEInternal>
0.9732

> <Gold.Chemscore.Rot>
1.2712

> <Gold.Chemscore.Internal.Correction>
   9.000000E+99

> <Gold.Chemscore.Hbonds>
donor molecule, donor type, donor heavy atom, donor atom, acceptor molecule, acceptor atom, score
      P1  H  7997  8010       L1    10  0.97

> <Gold.Chemscore.Hbond.Weighted>
-3.2844

> <Gold.Chemscore.Metal.Weighted>
-0.0000

> <Gold.Chemscore.Lipo.Weighted>
-10.0503

> <Gold.Chemscore.Internal_Hbond.Weighted>
0.0000

> <Gold.Chemscore.DEClash.Weighted>
0.0742

> <Gold.Chemscore.DEInternal.Weighted>
0.9732

> <Gold.Chemscore.Rot.Weighted>
3.2544

> <Gold.Chemscore.Internal.Correction.Weighted>
   9.000000E+99

> <Gold.Protein.RotatedTorsions>
[ 6907 6896 6895 6894 ] final -140.31 input  -60.11 | X-H torsion
[ 7974 7965 7964 7962 ] final   22.27 input  175.53 | X-H torsion
[ 8008 7997 7996 7995 ] final   49.27 input   59.86 | X-H torsion
[ 10167 10162 10161 10158 ] final  -61.45 input  -65.29 | X-H torsion
[ 10718 10713 10712 10709 ] final   44.93 input   66.30 | X-H torsion
[ 10763 10752 10751 10750 ] final   90.04 input  -60.55 | X-H torsion
[ 11005 11000 10999 10996 ] final  -63.09 input  -57.11 | X-H torsion

> <Gold.Protein.ActiveResidues>
 VAL166  LYS551  ARG553  GLY616  TRP617  ASP618  TYR619  PRO620  LYS621  CYS622 
 ASP623  PHE694  ASN695  SER759  ASP760  ASP761  ALA762  ILE779  LEU786  VAL792 
 PHE793  MET794  SER795  GLU796  ALA797  LYS798  CYS799  TRP800  GLU811  SER814 

> <Gold.Protein.RotatedAtoms>
  151.0590  133.5560  159.2635 H   0  0  0  0  0  0  0  0  0  0  0  0  # atno 6907 bound_to 6896
  151.2542  135.0631  159.9083 H   0  0  0  0  0  0  0  0  0  0  0  0  # atno 6908 bound_to 6896
  152.5394  134.0346  159.8094 H   0  0  0  0  0  0  0  0  0  0  0  0  # atno 6909 bound_to 6896
  146.2036  139.7909  142.8743 H   0  0  0  0  0  0  0  0  0  0  0  0  # atno 7974 bound_to 7965
  155.3994  140.3437  155.4256 H   0  0  0  0  0  0  0  0  0  0  0  0  # atno 8008 bound_to 7997
  156.1512  140.1571  156.8799 H   0  0  0  0  0  0  0  0  0  0  0  0  # atno 8009 bound_to 7997
  154.5054  140.0803  156.7865 H   0  0  0  0  0  0  0  0  0  0  0  0  # atno 8010 bound_to 7997
  140.6005  143.2360  151.5939 H   0  0  0  0  0  0  0  0  0  0  0  0  # atno 10167 bound_to 10162
  157.4322  130.8031  149.7614 H   0  0  0  0  0  0  0  0  0  0  0  0  # atno 10718 bound_to 10713
  153.1933  135.4448  155.0177 H   0  0  0  0  0  0  0  0  0  0  0  0  # atno 10763 bound_to 10752
  154.8104  135.3292  154.7323 H   0  0  0  0  0  0  0  0  0  0  0  0  # atno 10764 bound_to 10752
  153.7775  135.6980  153.4950 H   0  0  0  0  0  0  0  0  0  0  0  0  # atno 10765 bound_to 10752
  141.1381  133.6647  156.5627 H   0  0  0  0  0  0  0  0  0  0  0  0  # atno 11005 bound_to 11000
  145.3398  141.0285  143.3399 LP  0  0  0  0  0  0  0  0  0  0  0  0  # atno 17320 bound_to 7965
  144.8740  139.4998  143.6754 LP  0  0  0  0  0  0  0  0  0  0  0  0  # atno 17321 bound_to 7965
  139.5288  144.2978  152.1098 LP  0  0  0  0  0  0  0  0  0  0  0  0  # atno 17342 bound_to 10162
  140.2158  144.4516  150.6364 LP  0  0  0  0  0  0  0  0  0  0  0  0  # atno 17343 bound_to 10162
  155.9917  130.3936  150.2972 LP  0  0  0  0  0  0  0  0  0  0  0  0  # atno 17370 bound_to 10713
  157.1130  131.0226  151.3040 LP  0  0  0  0  0  0  0  0  0  0  0  0  # atno 17371 bound_to 10713
  140.3975  134.7386  157.4760 LP  0  0  0  0  0  0  0  0  0  0  0  0  # atno 17394 bound_to 11000
  140.0520  134.6117  155.8850 LP  0  0  0  0  0  0  0  0  0  0  0  0  # atno 17395 bound_to 11000

$$$$
