AV-unprocessed.smi:430|AV-procd|sdf|2546|dock4
  -GOLD-   2262022513D 1   1.00000     0.00000
 Structure written by MMmdl.
 37 38  0  0  0  0  0  0  0  0  1 V2000
  146.2190  142.5764  154.2622 C   0  0  0  0  0  0  0  0  0  0  0  0
  146.6983  141.2253  153.7087 C   0  0  0  0  0  0  0  0  0  0  0  0
  148.1512  140.8926  154.0638 C   0  0  0  0  0  0  0  0  0  0  0  0
  149.0560  141.7049  153.8681 O   0  0  0  0  0  0  0  0  0  0  0  0
  148.3590  139.6765  154.5910 N   0  0  0  0  0  0  0  0  0  0  0  0
  149.6559  139.1551  155.0127 C   0  0  0  0  0  0  0  0  0  0  0  0
  150.2614  139.8389  156.2320 C   0  0  0  0  0  0  0  0  0  0  0  0
  150.3920  141.2406  156.2550 C   0  0  0  0  0  0  0  0  0  0  0  0
  150.9416  141.8630  157.3920 C   0  0  0  0  0  0  0  0  0  0  0  0
  151.3517  141.0632  158.4886 C   0  0  0  0  0  0  0  0  0  0  0  0
  151.9033  141.6223  159.6637 N   0  0  0  0  0  0  0  0  0  0  0  0
  151.7884  143.0628  159.8753 C   0  0  0  0  0  0  0  0  0  0  0  0
  152.1378  143.4254  161.3286 C   0  0  0  0  0  0  0  0  0  0  0  0
  153.4263  142.9170  161.6545 O   0  0  0  0  0  0  0  0  0  0  0  0
  153.4676  141.4970  161.5682 C   0  0  0  0  0  0  0  0  0  0  0  0
  153.1686  141.0523  160.1263 C   0  0  0  0  0  0  0  0  0  0  0  0
  151.2184  139.7149  158.4631 N   0  0  0  0  0  0  0  0  0  0  0  0
  150.6889  139.1240  157.3716 C   0  0  0  0  0  0  0  0  0  0  0  0
  145.1775  142.7537  153.9944 H   0  0  0  0  0  0  0  0  0  0  0  0
  146.8070  143.4025  153.8605 H   0  0  0  0  0  0  0  0  0  0  0  0
  146.2881  142.6093  155.3501 H   0  0  0  0  0  0  0  0  0  0  0  0
  146.0578  140.4292  154.0896 H   0  0  0  0  0  0  0  0  0  0  0  0
  146.5939  141.2193  152.6230 H   0  0  0  0  0  0  0  0  0  0  0  0
  147.5608  139.0710  154.7175 H   0  0  0  0  0  0  0  0  0  0  0  0
  149.5756  138.0828  155.1995 H   0  0  0  0  0  0  0  0  0  0  0  0
  150.3508  139.2700  154.1810 H   0  0  0  0  0  0  0  0  0  0  0  0
  150.0758  141.8357  155.4108 H   0  0  0  0  0  0  0  0  0  0  0  0
  151.0448  142.9373  157.3922 H   0  0  0  0  0  0  0  0  0  0  0  0
  152.4572  143.5826  159.1880 H   0  0  0  0  0  0  0  0  0  0  0  0
  150.7719  143.3973  159.6653 H   0  0  0  0  0  0  0  0  0  0  0  0
  152.1403  144.5081  161.4543 H   0  0  0  0  0  0  0  0  0  0  0  0
  151.3923  143.0272  162.0190 H   0  0  0  0  0  0  0  0  0  0  0  0
  154.4571  141.1524  161.8683 H   0  0  0  0  0  0  0  0  0  0  0  0
  152.7531  141.0576  162.2663 H   0  0  0  0  0  0  0  0  0  0  0  0
  153.1564  139.9629  160.0929 H   0  0  0  0  0  0  0  0  0  0  0  0
  153.9663  141.3828  159.4600 H   0  0  0  0  0  0  0  0  0  0  0  0
  150.6046  138.0487  157.4214 H   0  0  0  0  0  0  0  0  0  0  0  0
  1  2  1  0  0  0  0
  1 19  1  0  0  0  0
  1 20  1  0  0  0  0
  1 21  1  0  0  0  0
  2  3  1  0  0  0  0
  2 22  1  0  0  0  0
  2 23  1  0  0  0  0
  3  4  2  0  0  0  0
  3  5  1  0  0  0  0
  5  6  1  0  0  0  0
  5 24  1  0  0  0  0
  6  7  1  0  0  0  0
  6 25  1  0  0  0  0
  6 26  1  0  0  0  0
  7 18  1  0  0  0  0
  7  8  2  0  0  0  0
  8  9  1  0  0  0  0
  8 27  1  0  0  0  0
  9 10  2  0  0  0  0
  9 28  1  0  0  0  0
 10 11  1  0  0  0  0
 10 17  1  0  0  0  0
 11 16  1  0  0  0  0
 11 12  1  0  0  0  0
 12 13  1  0  0  0  0
 12 29  1  0  0  0  0
 12 30  1  0  0  0  0
 13 14  1  0  0  0  0
 13 31  1  0  0  0  0
 13 32  1  0  0  0  0
 14 15  1  0  0  0  0
 15 16  1  0  0  0  0
 15 33  1  0  0  0  0
 15 34  1  0  0  0  0
 16 35  1  0  0  0  0
 16 36  1  0  0  0  0
 17 18  2  0  0  0  0
 18 37  1  0  0  0  0
M  END
> <s_m_source_file>
AV-unprocessed.smi

> <i_m_source_file_index>
430

> <i_lp_mmshare_version>
43012

> <i_f3d_flags>
0

> <s_epik_input>
W0NIM11bQ0gyXUMoPU8pW05IXVtDSDJdYzFbY0hdW2NIXWMobltjSF0xKU4yW0NIMl1bQ0gyXU9bQ0gyXVtDSDJdMg==

> <s_epik_cmdline>
J2VwaWtfcHl0aG9uJywgJy1waCcsICc3LjAnLCAnLXRuJywgJzgnLCAnLW1hJywgJzIwMCcsICctbWV0YWxfYmluZGluZycsICctaW1hZScsICc8aW5maWxlLm1hZT4nLCAnLW9tYWUnLCAnPG91dGZpbGUubWFlPic=

> <r_lp_tautomer_probability>
1

> <r_epik_Ionization_Penalty>
0.00505548

> <r_epik_Ionization_Penalty_Charging>
0

> <r_epik_Ionization_Penalty_Neutral>
0.00505548

> <r_epik_State_Penalty>
0.00367784

> <r_epik_Charging_Adjusted_Penalty>
0.00367784

> <i_epik_Tot_Q>
0

> <i_epik_Tot_abs_Q>
0

> <r_epik_Metal_State_Penalty>
-0

> <b_epik_Metal_Only>
0

> <s_lp_Force_Field>
OPLS_2005

> <r_lp_Energy>
16.0515

> <b_lp_Chiralities_Consistent>
1

> <s_lp_Variant>
AV-unprocessed.smi:430-1

> <Gold.Version>
5.8.1

> <Gold.Id.Protein>
6NUR|6NUR_protein|mol2

> <Gold.PLP.Fitness>
34.8527

> <Gold.PLP.PLP>
-33.2827

> <Gold.PLP.part.hbond>
-1.9505

> <Gold.PLP.part.metal>
0.0000

> <Gold.PLP.part.buried>
-1.7174

> <Gold.PLP.part.nonpolar>
-29.6916

> <Gold.PLP.part.repulsive>
0.2972

> <Gold.PLP.ligand.clash>
0.0000

> <Gold.PLP.ligand.torsion>
0.4067

> <Gold.PLP.Chemscore.Hbond>
0.6400

> <Gold.PLP.Chemscore.CHOScore>
0.0000

> <Gold.PLP.Chemscore.Metal>
0.0000

> <Gold.Chemscore.Hbonds>
donor molecule, donor type, donor heavy atom, donor atom, acceptor molecule, acceptor atom, score
      P1  H  8011  8017       L1     4  0.61

> <Gold.PLP.Chemscore.Internal.Correction>
0.4635

> <Gold.Rescore>
     Score         DG    S(hbond)    S(metal)    S(lipo)     H(rot)  DE(clash)    DE(int)     intcor
     11.21     -12.90       0.66        0.00      79.97       1.62       0.02       1.67       ----

> <Gold.Chemscore.Fitness>
11.2072

> <Gold.Chemscore.DG>
-12.8986

> <Gold.Chemscore.ZeroCoef>
-5.4800

> <Gold.Chemscore.Hbond>
0.6597

> <Gold.Chemscore.Metal>
0.0000

> <Gold.Chemscore.Lipo>
79.9742

> <Gold.Chemscore.Internal_Hbond>
0.0000

> <Gold.Chemscore.DEClash>
0.0249

> <Gold.Chemscore.DEInternal>
1.6665

> <Gold.Chemscore.Rot>
1.6178

> <Gold.Chemscore.Internal.Correction>
   9.000000E+99

> <Gold.Chemscore.Hbonds>
donor molecule, donor type, donor heavy atom, donor atom, acceptor molecule, acceptor atom, score
      P1  H  8011  8017       L1     4  0.62

> <Gold.Chemscore.Hbond.Weighted>
-2.2033

> <Gold.Chemscore.Metal.Weighted>
-0.0000

> <Gold.Chemscore.Lipo.Weighted>
-9.3570

> <Gold.Chemscore.Internal_Hbond.Weighted>
0.0000

> <Gold.Chemscore.DEClash.Weighted>
0.0249

> <Gold.Chemscore.DEInternal.Weighted>
1.6665

> <Gold.Chemscore.Rot.Weighted>
4.1416

> <Gold.Chemscore.Internal.Correction.Weighted>
   9.000000E+99

> <Gold.Protein.RotatedTorsions>
[ 6907 6896 6895 6894 ] final -154.69 input  -60.11 | X-H torsion
[ 7974 7965 7964 7962 ] final  -95.42 input  175.53 | X-H torsion
[ 8008 7997 7996 7995 ] final   36.62 input   59.86 | X-H torsion
[ 10167 10162 10161 10158 ] final  -79.12 input  -65.29 | X-H torsion
[ 10718 10713 10712 10709 ] final   71.55 input   66.30 | X-H torsion
[ 10763 10752 10751 10750 ] final -172.83 input  -60.55 | X-H torsion
[ 11005 11000 10999 10996 ] final   38.11 input  -57.11 | X-H torsion

> <Gold.Protein.ActiveResidues>
 VAL166  LYS551  ARG553  GLY616  TRP617  ASP618  TYR619  PRO620  LYS621  CYS622 
 ASP623  PHE694  ASN695  SER759  ASP760  ASP761  ALA762  ILE779  LEU786  VAL792 
 PHE793  MET794  SER795  GLU796  ALA797  LYS798  CYS799  TRP800  GLU811  SER814 

> <Gold.Protein.RotatedAtoms>
  151.2613  133.4301  159.2616 H   0  0  0  0  0  0  0  0  0  0  0  0  # atno 6907 bound_to 6896
  151.0528  134.9685  159.8230 H   0  0  0  0  0  0  0  0  0  0  0  0  # atno 6908 bound_to 6896
  152.5385  134.2566  159.8972 H   0  0  0  0  0  0  0  0  0  0  0  0  # atno 6909 bound_to 6896
  145.3603  140.9491  143.2504 H   0  0  0  0  0  0  0  0  0  0  0  0  # atno 7974 bound_to 7965
  155.1904  140.3307  155.4359 H   0  0  0  0  0  0  0  0  0  0  0  0  # atno 8008 bound_to 7997
  156.2444  140.1911  156.6947 H   0  0  0  0  0  0  0  0  0  0  0  0  # atno 8009 bound_to 7997
  154.6210  140.0595  156.9600 H   0  0  0  0  0  0  0  0  0  0  0  0  # atno 8010 bound_to 7997
  140.4621  143.2450  151.8333 H   0  0  0  0  0  0  0  0  0  0  0  0  # atno 10167 bound_to 10162
  157.6457  130.9534  150.0805 H   0  0  0  0  0  0  0  0  0  0  0  0  # atno 10718 bound_to 10713
  154.6148  135.2868  155.0392 H   0  0  0  0  0  0  0  0  0  0  0  0  # atno 10763 bound_to 10752
  154.1608  135.6488  153.4989 H   0  0  0  0  0  0  0  0  0  0  0  0  # atno 10764 bound_to 10752
  153.0210  135.5378  154.6915 H   0  0  0  0  0  0  0  0  0  0  0  0  # atno 10765 bound_to 10752
  140.2158  134.3700  155.8027 H   0  0  0  0  0  0  0  0  0  0  0  0  # atno 11005 bound_to 11000
  144.8651  139.5120  143.6794 LP  0  0  0  0  0  0  0  0  0  0  0  0  # atno 17320 bound_to 7965
  146.2930  139.7194  142.9147 LP  0  0  0  0  0  0  0  0  0  0  0  0  # atno 17321 bound_to 7965
  139.4807  144.4995  151.9079 LP  0  0  0  0  0  0  0  0  0  0  0  0  # atno 17342 bound_to 10162
  140.4080  144.2406  150.5890 LP  0  0  0  0  0  0  0  0  0  0  0  0  # atno 17343 bound_to 10162
  156.1783  130.3649  149.9070 LP  0  0  0  0  0  0  0  0  0  0  0  0  # atno 17370 bound_to 10713
  156.7029  130.8940  151.3601 LP  0  0  0  0  0  0  0  0  0  0  0  0  # atno 17371 bound_to 10713
  141.2225  133.7167  156.8494 LP  0  0  0  0  0  0  0  0  0  0  0  0  # atno 17394 bound_to 11000
  140.1902  134.8971  157.3051 LP  0  0  0  0  0  0  0  0  0  0  0  0  # atno 17395 bound_to 11000

$$$$
