AV-unprocessed.smi:3149|AV-procd|sdf|12005|dock5
  -GOLD-   2272017413D 1   1.00000     0.00000
 Structure written by MMmdl.
 37 38  0  0  0  0  0  0  0  0  1 V2000
  148.8108  140.8892  157.1826 C   0  0  0  0  0  0  0  0  0  0  0  0
  150.1336  140.9915  156.3919 C   0  0  2  0  0  0  0  0  0  0  0  0
  150.5577  142.3882  156.3311 N   0  0  0  0  0  0  0  0  0  0  0  0
  150.5469  143.0616  157.6370 C   0  0  0  0  0  0  0  0  0  0  0  0
  151.5769  142.4547  158.5952 C   0  0  0  0  0  0  0  0  0  0  0  0
  151.8772  141.2645  158.5068 O   0  0  0  0  0  0  0  0  0  0  0  0
  152.2190  143.3109  159.4952 N   0  0  0  0  0  0  0  0  0  0  0  0
  151.5899  144.5425  159.9459 C   0  0  0  0  0  0  0  0  0  0  0  0
  152.4069  144.3582  161.2293 C   0  0  0  0  0  0  0  0  0  0  0  0
  152.5770  142.8861  160.8401 C   0  0  0  0  0  0  0  0  0  0  0  0
  150.0164  140.4567  154.9380 C   0  0  1  0  0  0  0  0  0  0  0  0
  150.1138  138.9200  154.8600 C   0  0  0  0  0  0  0  0  0  0  0  0
  148.7958  140.9108  154.2822 N   0  0  0  0  0  0  0  0  0  0  0  0
  148.3774  142.2072  154.0627 C   0  0  0  0  0  0  0  0  0  0  0  0
  147.1747  142.1459  153.4193 C   0  0  0  0  0  0  0  0  0  0  0  0
  146.9355  140.7505  153.2820 C   0  0  0  0  0  0  0  0  0  0  0  0
  147.9061  140.0142  153.7976 N   0  0  0  0  0  0  0  0  0  0  0  0
  148.4751  139.8561  157.2726 H   0  0  0  0  0  0  0  0  0  0  0  0
  148.0141  141.4530  156.6966 H   0  0  0  0  0  0  0  0  0  0  0  0
  148.9120  141.2653  158.1998 H   0  0  0  0  0  0  0  0  0  0  0  0
  150.8961  140.4044  156.9064 H   0  0  0  0  0  0  0  0  0  0  0  0
  150.0104  142.8869  155.6441 H   0  0  0  0  0  0  0  0  0  0  0  0
  150.7670  144.1215  157.5110 H   0  0  0  0  0  0  0  0  0  0  0  0
  149.5574  142.9953  158.0901 H   0  0  0  0  0  0  0  0  0  0  0  0
  151.8575  145.4199  159.3566 H   0  0  0  0  0  0  0  0  0  0  0  0
  150.5134  144.4512  160.1046 H   0  0  0  0  0  0  0  0  0  0  0  0
  153.3448  144.9165  161.2297 H   0  0  0  0  0  0  0  0  0  0  0  0
  151.8404  144.5159  162.1477 H   0  0  0  0  0  0  0  0  0  0  0  0
  151.8362  142.2340  161.3070 H   0  0  0  0  0  0  0  0  0  0  0  0
  153.5943  142.5054  160.9325 H   0  0  0  0  0  0  0  0  0  0  0  0
  150.8463  140.8671  154.3598 H   0  0  0  0  0  0  0  0  0  0  0  0
  151.0819  138.5628  155.2106 H   0  0  0  0  0  0  0  0  0  0  0  0
  149.9954  138.5720  153.8335 H   0  0  0  0  0  0  0  0  0  0  0  0
  149.3452  138.4381  155.4651 H   0  0  0  0  0  0  0  0  0  0  0  0
  148.9630  143.0568  154.3816 H   0  0  0  0  0  0  0  0  0  0  0  0
  146.5594  142.9722  153.0951 H   0  0  0  0  0  0  0  0  0  0  0  0
  146.0916  140.2543  152.8261 H   0  0  0  0  0  0  0  0  0  0  0  0
  1  2  1  0  0  0  0
  1 18  1  0  0  0  0
  1 19  1  0  0  0  0
  1 20  1  0  0  0  0
  2  3  1  0  0  0  0
  2 11  1  0  0  0  0
  2 21  1  0  0  0  0
  3  4  1  0  0  0  0
  3 22  1  0  0  0  0
  4  5  1  0  0  0  0
  4 23  1  0  0  0  0
  4 24  1  0  0  0  0
  5  6  2  0  0  0  0
  5  7  1  0  0  0  0
  7 10  1  0  0  0  0
  7  8  1  0  0  0  0
  8  9  1  0  0  0  0
  8 25  1  0  0  0  0
  8 26  1  0  0  0  0
  9 10  1  0  0  0  0
  9 27  1  0  0  0  0
  9 28  1  0  0  0  0
 10 29  1  0  0  0  0
 10 30  1  0  0  0  0
 11 12  1  0  0  0  0
 11 13  1  0  0  0  0
 11 31  1  0  0  0  0
 12 32  1  0  0  0  0
 12 33  1  0  0  0  0
 12 34  1  0  0  0  0
 13 17  1  0  0  0  0
 13 14  1  0  0  0  0
 14 15  2  0  0  0  0
 14 35  1  0  0  0  0
 15 16  1  0  0  0  0
 15 36  1  0  0  0  0
 16 17  2  0  0  0  0
 16 37  1  0  0  0  0
M  END
> <s_m_source_file>
AV-unprocessed.smi

> <i_m_source_file_index>
3149

> <i_lp_mmshare_version>
43012

> <i_f3d_flags>
0

> <s_epik_input>
bjFbY0hdW2NIXVtjSF1uMVtDQEBIXShbQ0gzXSlbQ0BIXShbQ0gzXSlbTkhdW0NIMl1DKD1PKU4yW0NIMl1bQ0gyXVtDSDJdMg==

> <s_epik_cmdline>
J2VwaWtfcHl0aG9uJywgJy1waCcsICc3LjAnLCAnLXRuJywgJzgnLCAnLW1hJywgJzIwMCcsICctbWV0YWxfYmluZGluZycsICctaW1hZScsICc8aW5maWxlLm1hZT4nLCAnLW9tYWUnLCAnPG91dGZpbGUubWFlPic=

> <r_lp_tautomer_probability>
1

> <r_epik_Ionization_Penalty>
0.918674

> <r_epik_Ionization_Penalty_Charging>
0

> <r_epik_Ionization_Penalty_Neutral>
0.918674

> <r_epik_State_Penalty>
0.958258

> <r_epik_Charging_Adjusted_Penalty>
0.958258

> <i_epik_Tot_Q>
0

> <i_epik_Tot_abs_Q>
0

> <r_epik_Metal_State_Penalty>
0.956881

> <b_epik_Metal_Only>
0

> <s_lp_Force_Field>
OPLS_2005

> <r_lp_Energy>
23.4504

> <b_lp_Chiralities_Consistent>
1

> <s_lp_Variant>
AV-unprocessed.smi:3149-7

> <Gold.Version>
5.8.1

> <Gold.Id.Protein>
6NUR|6NUR_protein|mol2

> <Gold.PLP.Fitness>
43.7667

> <Gold.PLP.PLP>
-37.3836

> <Gold.PLP.part.hbond>
-1.0000

> <Gold.PLP.part.metal>
0.0000

> <Gold.PLP.part.buried>
-2.5752

> <Gold.PLP.part.nonpolar>
-34.6115

> <Gold.PLP.part.repulsive>
0.3448

> <Gold.PLP.ligand.clash>
0.0000

> <Gold.PLP.ligand.torsion>
1.1904

> <Gold.PLP.Chemscore.Hbond>
0.6370

> <Gold.PLP.Chemscore.CHOScore>
1.9732

> <Gold.PLP.Chemscore.Metal>
0.0000

> <Gold.Chemscore.Hbonds>
donor molecule, donor type, donor heavy atom, donor atom, acceptor molecule, acceptor atom, score
      L1  H     3    22       P1  8028  0.49
      L1  C    14    35       P1  8028  1.00
      L1  C    16    37       P1 10175  1.00

> <Gold.PLP.Chemscore.Internal.Correction>
0.9335

> <Gold.Rescore>
     Score         DG    S(hbond)    S(metal)    S(lipo)     H(rot)  DE(clash)    DE(int)     intcor
     10.12     -12.84       0.55        0.00      86.22       1.79       0.29       2.43       ----

> <Gold.Chemscore.Fitness>
10.1176

> <Gold.Chemscore.DG>
-12.8369

> <Gold.Chemscore.ZeroCoef>
-5.4800

> <Gold.Chemscore.Hbond>
0.5523

> <Gold.Chemscore.Metal>
0.0000

> <Gold.Chemscore.Lipo>
86.2227

> <Gold.Chemscore.Internal_Hbond>
0.0000

> <Gold.Chemscore.DEClash>
0.2894

> <Gold.Chemscore.DEInternal>
2.4299

> <Gold.Chemscore.Rot>
1.7874

> <Gold.Chemscore.Internal.Correction>
   9.000000E+99

> <Gold.Chemscore.Hbonds>
donor molecule, donor type, donor heavy atom, donor atom, acceptor molecule, acceptor atom, score
      L1  H     3    22       P1  8028  0.50

> <Gold.Chemscore.Hbond.Weighted>
-1.8447

> <Gold.Chemscore.Metal.Weighted>
-0.0000

> <Gold.Chemscore.Lipo.Weighted>
-10.0881

> <Gold.Chemscore.Internal_Hbond.Weighted>
0.0000

> <Gold.Chemscore.DEClash.Weighted>
0.2894

> <Gold.Chemscore.DEInternal.Weighted>
2.4299

> <Gold.Chemscore.Rot.Weighted>
4.5758

> <Gold.Chemscore.Internal.Correction.Weighted>
   9.000000E+99

> <Gold.Protein.RotatedTorsions>
[ 6907 6896 6895 6894 ] final -150.74 input  -60.11 | X-H torsion
[ 7974 7965 7964 7962 ] final -137.34 input  175.53 | X-H torsion
[ 8008 7997 7996 7995 ] final  149.78 input   59.86 | X-H torsion
[ 10167 10162 10161 10158 ] final -121.59 input  -65.29 | X-H torsion
[ 10718 10713 10712 10709 ] final  143.54 input   66.30 | X-H torsion
[ 10763 10752 10751 10750 ] final  -78.35 input  -60.55 | X-H torsion
[ 11005 11000 10999 10996 ] final  135.82 input  -57.11 | X-H torsion

> <Gold.Protein.ActiveResidues>
 VAL166  LYS551  ARG553  GLY616  TRP617  ASP618  TYR619  PRO620  LYS621  CYS622 
 ASP623  PHE694  ASN695  SER759  ASP760  ASP761  ALA762  ILE779  LEU786  VAL792 
 PHE793  MET794  SER795  GLU796  ALA797  LYS798  CYS799  TRP800  GLU811  SER814 

> <Gold.Protein.RotatedAtoms>
  151.2029  133.4600  159.2596 H   0  0  0  0  0  0  0  0  0  0  0  0  # atno 6907 bound_to 6896
  151.1052  134.9995  159.8478 H   0  0  0  0  0  0  0  0  0  0  0  0  # atno 6908 bound_to 6896
  152.5446  134.1952  159.8743 H   0  0  0  0  0  0  0  0  0  0  0  0  # atno 6909 bound_to 6896
  144.8850  140.6562  143.5181 H   0  0  0  0  0  0  0  0  0  0  0  0  # atno 7974 bound_to 7965
  156.2741  140.2092  156.5913 H   0  0  0  0  0  0  0  0  0  0  0  0  # atno 8008 bound_to 7997
  154.6980  140.0523  157.0453 H   0  0  0  0  0  0  0  0  0  0  0  0  # atno 8009 bound_to 7997
  155.0774  140.3183  155.4615 H   0  0  0  0  0  0  0  0  0  0  0  0  # atno 8010 bound_to 7997
  140.0234  143.5321  152.2210 H   0  0  0  0  0  0  0  0  0  0  0  0  # atno 10167 bound_to 10162
  157.3678  131.0974  151.0856 H   0  0  0  0  0  0  0  0  0  0  0  0  # atno 10718 bound_to 10713
  154.5247  135.5733  153.6710 H   0  0  0  0  0  0  0  0  0  0  0  0  # atno 10763 bound_to 10752
  152.9925  135.6190  154.2708 H   0  0  0  0  0  0  0  0  0  0  0  0  # atno 10764 bound_to 10752
  154.2630  135.2855  155.2749 H   0  0  0  0  0  0  0  0  0  0  0  0  # atno 10765 bound_to 10752
  140.0005  134.9480  157.0061 H   0  0  0  0  0  0  0  0  0  0  0  0  # atno 11005 bound_to 11000
  145.3885  139.1621  143.4242 LP  0  0  0  0  0  0  0  0  0  0  0  0  # atno 17320 bound_to 7965
  146.3019  140.3972  142.8701 LP  0  0  0  0  0  0  0  0  0  0  0  0  # atno 17321 bound_to 7965
  139.6125  144.7612  151.2921 LP  0  0  0  0  0  0  0  0  0  0  0  0  # atno 17342 bound_to 10162
  140.7333  143.6799  150.8010 LP  0  0  0  0  0  0  0  0  0  0  0  0  # atno 17343 bound_to 10162
  157.1972  130.6378  149.5725 LP  0  0  0  0  0  0  0  0  0  0  0  0  # atno 17370 bound_to 10713
  155.9749  130.4703  150.6424 LP  0  0  0  0  0  0  0  0  0  0  0  0  # atno 17371 bound_to 10713
  140.4737  134.1361  155.7206 LP  0  0  0  0  0  0  0  0  0  0  0  0  # atno 17394 bound_to 11000
  141.1638  133.8742  157.1773 LP  0  0  0  0  0  0  0  0  0  0  0  0  # atno 17395 bound_to 11000

$$$$
