AV-unprocessed.smi:2226|AV-procd|sdf|9020|dock10
  -GOLD-   2272012223D 1   1.00000     0.00000
 Structure written by MMmdl.
 39 41  0  0  0  0  0  0  0  0  3 V2000
  153.2998  138.7026  154.4632 C   0  0  0  0  0  0  0  0  0  0  0  0
  151.9249  139.2116  154.6819 N   0  3  2  0  0  0  0  0  0  0  0  0
  151.7475  140.0161  155.9139 C   0  0  1  0  0  0  0  0  0  0  0  0
  150.4358  140.8269  155.8029 C   0  0  0  0  0  0  0  0  0  0  0  0
  149.1987  139.9740  155.4615 C   0  0  0  0  0  0  0  0  0  0  0  0
  149.4947  138.8942  154.4023 C   0  0  0  0  0  0  0  0  0  0  0  0
  150.8579  138.1872  154.5857 C   0  0  2  0  0  0  0  0  0  0  0  0
  150.9297  137.1813  155.7623 C   0  0  0  0  0  0  0  0  0  0  0  0
  151.0957  137.8014  157.1714 C   0  0  2  0  0  0  0  0  0  0  0  0
  149.8162  137.8776  157.8724 N   0  0  0  0  0  0  0  0  0  0  0  0
  149.4359  137.1474  158.9309 C   0  0  0  0  0  0  0  0  0  0  0  0
  150.1957  136.2956  159.3972 O   0  0  0  0  0  0  0  0  0  0  0  0
  148.2022  137.4593  159.3859 N   0  5  0  0  0  0  0  0  0  0  0  0
  147.7292  136.8649  160.4931 C   0  0  0  0  0  0  0  0  0  0  0  0
  147.9880  135.6191  160.8941 N   0  0  0  0  0  0  0  0  0  0  0  0
  147.2835  135.4479  162.0759 C   0  0  0  0  0  0  0  0  0  0  0  0
  146.6137  136.6118  162.3379 C   0  0  0  0  0  0  0  0  0  0  0  0
  146.8843  137.5121  161.3450 O   0  0  0  0  0  0  0  0  0  0  0  0
  151.8778  139.1424  157.1862 C   0  0  0  0  0  0  0  0  0  0  0  0
  153.6067  137.9960  155.2342 H   0  0  0  0  0  0  0  0  0  0  0  0
  154.0134  139.5269  154.4576 H   0  0  0  0  0  0  0  0  0  0  0  0
  153.3698  138.2004  153.4980 H   0  0  0  0  0  0  0  0  0  0  0  0
  152.5537  140.7503  155.9476 H   0  0  0  0  0  0  0  0  0  0  0  0
  150.2583  141.3922  156.7185 H   0  0  0  0  0  0  0  0  0  0  0  0
  150.5622  141.5702  155.0145 H   0  0  0  0  0  0  0  0  0  0  0  0
  148.7930  139.5227  156.3604 H   0  0  0  0  0  0  0  0  0  0  0  0
  148.3990  140.6229  155.1036 H   0  0  0  0  0  0  0  0  0  0  0  0
  148.6858  138.1631  154.3777 H   0  0  0  0  0  0  0  0  0  0  0  0
  149.4912  139.3735  153.4224 H   0  0  0  0  0  0  0  0  0  0  0  0
  151.0282  137.6189  153.6702 H   0  0  0  0  0  0  0  0  0  0  0  0
  150.0722  136.5075  155.7358 H   0  0  0  0  0  0  0  0  0  0  0  0
  151.7902  136.5346  155.5881 H   0  0  0  0  0  0  0  0  0  0  0  0
  151.6836  137.0838  157.7474 H   0  0  0  0  0  0  0  0  0  0  0  0
  149.1523  138.5556  157.5278 H   0  0  0  0  0  0  0  0  0  0  0  0
  147.3138  134.5215  162.6300 H   0  0  0  0  0  0  0  0  0  0  0  0
  145.9539  136.9400  163.1268 H   0  0  0  0  0  0  0  0  0  0  0  0
  152.9336  138.8989  157.3092 H   0  0  0  0  0  0  0  0  0  0  0  0
  151.6322  139.7335  158.0690 H   0  0  0  0  0  0  0  0  0  0  0  0
  151.7608  139.8488  153.9156 H   0  0  0  0  0  0  0  0  0  0  0  0
  1  2  1  0  0  0  0
  1 20  1  0  0  0  0
  1 21  1  0  0  0  0
  1 22  1  0  0  0  0
  2  7  1  0  0  0  0
  2  3  1  0  0  0  0
  2 39  1  0  0  0  0
  3 19  1  0  0  0  0
  3  4  1  0  0  0  0
  3 23  1  0  0  0  0
  4  5  1  0  0  0  0
  4 24  1  0  0  0  0
  4 25  1  0  0  0  0
  5  6  1  0  0  0  0
  5 26  1  0  0  0  0
  5 27  1  0  0  0  0
  6  7  1  0  0  0  0
  6 28  1  0  0  0  0
  6 29  1  0  0  0  0
  7  8  1  0  0  0  0
  7 30  1  0  0  0  0
  8  9  1  0  0  0  0
  8 31  1  0  0  0  0
  8 32  1  0  0  0  0
  9 10  1  0  0  0  0
  9 19  1  0  0  0  0
  9 33  1  0  0  0  0
 10 34  1  0  0  0  0
 10 11  1  0  0  0  0
 11 13  1  0  0  0  0
 11 12  2  0  0  0  0
 13 14  1  0  0  0  0
 14 18  1  0  0  0  0
 14 15  2  0  0  0  0
 15 16  1  0  0  0  0
 16 35  1  0  0  0  0
 16 17  2  0  0  0  0
 17 36  1  0  0  0  0
 17 18  1  0  0  0  0
 19 37  1  0  0  0  0
 19 38  1  0  0  0  0
M  CHG  1   2   1
M  CHG  1  13  -1
M  END
> <s_m_source_file>
AV-unprocessed.smi

> <i_m_source_file_index>
2226

> <i_lp_mmshare_version>
43012

> <i_f3d_flags>
0

> <s_epik_input>
W0NIMl0xW0NIMl1bQ0gyXVtDQEhdKE4oW0NIM10pW0NIXTEyKVtDSDJdW0NASF0oW0NIMl0yKVtOSF1DKD1PKVtOSF1jM25bY0hdW2NIXW8z

> <s_epik_cmdline>
J2VwaWtfcHl0aG9uJywgJy1waCcsICc3LjAnLCAnLXRuJywgJzgnLCAnLW1hJywgJzIwMCcsICctbWV0YWxfYmluZGluZycsICctaW1hZScsICc8aW5maWxlLm1hZT4nLCAnLW9tYWUnLCAnPG91dGZpbGUubWFlPic=

> <r_lp_tautomer_probability>
0.107061

> <r_epik_Ionization_Penalty>
10.5612

> <r_epik_Ionization_Penalty_Charging>
7.48913

> <r_epik_Ionization_Penalty_Neutral>
3.07202

> <r_epik_State_Penalty>
5.6431

> <r_epik_Charging_Adjusted_Penalty>
13.1322

> <i_epik_Tot_Q>
0

> <i_epik_Tot_abs_Q>
2

> <r_epik_Metal_State_Penalty>
1.58163

> <b_epik_Metal_Only>
1

> <s_lp_Force_Field>
OPLS_2005

> <r_lp_Energy>
26.6809

> <b_lp_Chiralities_Consistent>
1

> <s_lp_Variant>
AV-unprocessed.smi:2226-20

> <Gold.Version>
5.8.1

> <Gold.Id.Protein>
6NUR|6NUR_protein|mol2

> <Gold.PLP.Fitness>
35.0927

> <Gold.PLP.PLP>
-29.5838

> <Gold.PLP.part.hbond>
-3.6956

> <Gold.PLP.part.metal>
0.0000

> <Gold.PLP.part.buried>
-3.5818

> <Gold.PLP.part.nonpolar>
-23.6423

> <Gold.PLP.part.repulsive>
1.4048

> <Gold.PLP.ligand.clash>
0.0000

> <Gold.PLP.ligand.torsion>
0.2710

> <Gold.PLP.Chemscore.Hbond>
2.0000

> <Gold.PLP.Chemscore.CHOScore>
0.0000

> <Gold.PLP.Chemscore.Metal>
0.0000

> <Gold.Chemscore.Hbonds>
donor molecule, donor type, donor heavy atom, donor atom, acceptor molecule, acceptor atom, score
      P1  H  6896  6909       L1    12  1.00
      P1  H  6934  6947       L1    18  1.00

> <Gold.PLP.Chemscore.Internal.Correction>
0.0510

> <Gold.Rescore>
     Score         DG    S(hbond)    S(metal)    S(lipo)     H(rot)  DE(clash)    DE(int)     intcor
     14.37     -16.14       1.45        0.00      71.66       1.00       0.01       1.76       ----

> <Gold.Chemscore.Fitness>
14.3659

> <Gold.Chemscore.DG>
-16.1431

> <Gold.Chemscore.ZeroCoef>
-5.4800

> <Gold.Chemscore.Hbond>
1.4489

> <Gold.Chemscore.Metal>
0.0000

> <Gold.Chemscore.Lipo>
71.6556

> <Gold.Chemscore.Internal_Hbond>
0.0000

> <Gold.Chemscore.DEClash>
0.0147

> <Gold.Chemscore.DEInternal>
1.7625

> <Gold.Chemscore.Rot>
1.0000

> <Gold.Chemscore.Internal.Correction>
   9.000000E+99

> <Gold.Chemscore.Hbonds>
donor molecule, donor type, donor heavy atom, donor atom, acceptor molecule, acceptor atom, score
      P1  H  6896  6909       L1    12  0.98
      P1  H  6934  6947       L1    18  0.29

> <Gold.Chemscore.Hbond.Weighted>
-4.8394

> <Gold.Chemscore.Metal.Weighted>
-0.0000

> <Gold.Chemscore.Lipo.Weighted>
-8.3837

> <Gold.Chemscore.Internal_Hbond.Weighted>
0.0000

> <Gold.Chemscore.DEClash.Weighted>
0.0147

> <Gold.Chemscore.DEInternal.Weighted>
1.7625

> <Gold.Chemscore.Rot.Weighted>
2.5600

> <Gold.Chemscore.Internal.Correction.Weighted>
   9.000000E+99

> <Gold.Protein.RotatedTorsions>
[ 6907 6896 6895 6894 ] final   72.05 input  -60.11 | X-H torsion
[ 7974 7965 7964 7962 ] final  152.34 input  175.53 | X-H torsion
[ 8008 7997 7996 7995 ] final -105.22 input   59.86 | X-H torsion
[ 10167 10162 10161 10158 ] final   19.82 input  -65.29 | X-H torsion
[ 10718 10713 10712 10709 ] final   68.98 input   66.30 | X-H torsion
[ 10763 10752 10751 10750 ] final  -86.68 input  -60.55 | X-H torsion
[ 11005 11000 10999 10996 ] final  -21.35 input  -57.11 | X-H torsion

> <Gold.Protein.ActiveResidues>
 VAL166  LYS551  ARG553  GLY616  TRP617  ASP618  TYR619  PRO620  LYS621  CYS622 
 ASP623  PHE694  ASN695  SER759  ASP760  ASP761  ALA762  ILE779  LEU786  VAL792 
 PHE793  MET794  SER795  GLU796  ALA797  LYS798  CYS799  TRP800  GLU811  SER814 

> <Gold.Protein.RotatedAtoms>
  152.4845  134.4630  159.9610 H   0  0  0  0  0  0  0  0  0  0  0  0  # atno 6907 bound_to 6896
  151.4629  133.3582  159.2819 H   0  0  0  0  0  0  0  0  0  0  0  0  # atno 6908 bound_to 6896
  150.8944  134.8376  159.7377 H   0  0  0  0  0  0  0  0  0  0  0  0  # atno 6909 bound_to 6896
  144.8229  139.6656  143.6092 H   0  0  0  0  0  0  0  0  0  0  0  0  # atno 7974 bound_to 7965
  154.8967  140.0414  157.1870 H   0  0  0  0  0  0  0  0  0  0  0  0  # atno 8008 bound_to 7997
  154.8485  140.2925  155.5592 H   0  0  0  0  0  0  0  0  0  0  0  0  # atno 8009 bound_to 7997
  156.2995  140.2469  156.3440 H   0  0  0  0  0  0  0  0  0  0  0  0  # atno 8010 bound_to 7997
  140.5551  143.9440  150.6603 H   0  0  0  0  0  0  0  0  0  0  0  0  # atno 10167 bound_to 10162
  157.6320  130.9402  150.0451 H   0  0  0  0  0  0  0  0  0  0  0  0  # atno 10718 bound_to 10713
  154.6252  135.5440  153.7619 H   0  0  0  0  0  0  0  0  0  0  0  0  # atno 10763 bound_to 10752
  153.0257  135.6422  154.1382 H   0  0  0  0  0  0  0  0  0  0  0  0  # atno 10764 bound_to 10752
  154.1315  135.2914  155.3164 H   0  0  0  0  0  0  0  0  0  0  0  0  # atno 10765 bound_to 10752
  140.8553  133.7827  156.0012 H   0  0  0  0  0  0  0  0  0  0  0  0  # atno 11005 bound_to 11000
  146.2535  139.6250  142.9411 LP  0  0  0  0  0  0  0  0  0  0  0  0  # atno 17320 bound_to 7965
  145.5064  141.0436  143.2512 LP  0  0  0  0  0  0  0  0  0  0  0  0  # atno 17321 bound_to 7965
  140.2876  143.3346  152.1093 LP  0  0  0  0  0  0  0  0  0  0  0  0  # atno 17342 bound_to 10162
  139.5044  144.6775  151.6092 LP  0  0  0  0  0  0  0  0  0  0  0  0  # atno 17343 bound_to 10162
  156.1530  130.3642  149.9410 LP  0  0  0  0  0  0  0  0  0  0  0  0  # atno 17370 bound_to 10713
  156.7425  130.9085  151.3633 LP  0  0  0  0  0  0  0  0  0  0  0  0  # atno 17371 bound_to 10713
  140.8744  134.2687  157.5175 LP  0  0  0  0  0  0  0  0  0  0  0  0  # atno 17394 bound_to 11000
  139.8705  134.9583  156.4297 LP  0  0  0  0  0  0  0  0  0  0  0  0  # atno 17395 bound_to 11000

$$$$
