AV-unprocessed.smi:1254|AV-procd|sdf|5275|dock4
  -GOLD-   22720 4393D 1   1.00000     0.00000
 Structure written by MMmdl.
 45 46  0  0  0  0  0  0  0  0  3 V2000
  147.4749  135.0926  161.3758 C   0  0  0  0  0  0  0  0  0  0  0  0
  148.1163  135.9299  160.3228 C   0  0  0  0  0  0  0  0  0  0  0  0
  148.5237  135.6647  159.0461 C   0  0  0  0  0  0  0  0  0  0  0  0
  149.0533  136.9096  158.6090 C   0  0  0  0  0  0  0  0  0  0  0  0
  149.5722  137.1636  157.3978 N   0  5  0  0  0  0  0  0  0  0  0  0
  150.1415  138.3624  157.1376 C   0  0  0  0  0  0  0  0  0  0  0  0
  150.7464  139.0758  157.9416 O   0  0  0  0  0  0  0  0  0  0  0  0
  150.0092  138.7564  155.8633 N   0  0  0  0  0  0  0  0  0  0  0  0
  150.5456  139.9867  155.2917 C   0  0  0  0  0  0  0  0  0  0  0  0
  149.9598  141.2339  155.9765 C   0  0  2  0  0  0  0  0  0  0  0  0
  151.0032  141.9599  156.8464 C   0  0  0  0  0  0  0  0  0  0  0  0
  150.3872  143.1278  157.5240 N   0  3  2  0  0  0  0  0  0  0  0  0
  151.3417  143.9189  158.3425 C   0  0  0  0  0  0  0  0  0  0  0  0
  151.7278  143.2303  159.6700 C   0  0  0  0  0  0  0  0  0  0  0  0
  151.9965  144.2776  160.7609 C   0  0  0  0  0  0  0  0  0  0  0  0
  152.9437  142.3030  159.5060 C   0  0  0  0  0  0  0  0  0  0  0  0
  149.1960  142.7053  158.2985 C   0  0  0  0  0  0  0  0  0  0  0  0
  148.2128  141.9372  157.4000 C   0  0  0  0  0  0  0  0  0  0  0  0
  148.8786  140.8286  156.8102 O   0  0  0  0  0  0  0  0  0  0  0  0
  148.9604  137.8513  159.5331 N   0  0  0  0  0  0  0  0  0  0  0  0
  148.3656  137.2295  160.6375 O   0  0  0  0  0  0  0  0  0  0  0  0
  146.3950  135.0556  161.2323 H   0  0  0  0  0  0  0  0  0  0  0  0
  147.6711  135.4951  162.3698 H   0  0  0  0  0  0  0  0  0  0  0  0
  147.8562  134.0717  161.3442 H   0  0  0  0  0  0  0  0  0  0  0  0
  148.4569  134.7299  158.5105 H   0  0  0  0  0  0  0  0  0  0  0  0
  149.5044  138.1440  155.2392 H   0  0  0  0  0  0  0  0  0  0  0  0
  151.6303  139.9723  155.3998 H   0  0  0  0  0  0  0  0  0  0  0  0
  150.3413  140.0079  154.2199 H   0  0  0  0  0  0  0  0  0  0  0  0
  149.5916  141.9241  155.2151 H   0  0  0  0  0  0  0  0  0  0  0  0
  151.4147  141.2773  157.5916 H   0  0  0  0  0  0  0  0  0  0  0  0
  151.8305  142.2809  156.2149 H   0  0  0  0  0  0  0  0  0  0  0  0
  152.2539  144.0861  157.7673 H   0  0  0  0  0  0  0  0  0  0  0  0
  150.9171  144.9061  158.5315 H   0  0  0  0  0  0  0  0  0  0  0  0
  150.8901  142.6268  160.0181 H   0  0  0  0  0  0  0  0  0  0  0  0
  152.8332  144.9239  160.4937 H   0  0  0  0  0  0  0  0  0  0  0  0
  152.2349  143.8020  161.7128 H   0  0  0  0  0  0  0  0  0  0  0  0
  151.1242  144.9119  160.9218 H   0  0  0  0  0  0  0  0  0  0  0  0
  153.8187  142.8532  159.1583 H   0  0  0  0  0  0  0  0  0  0  0  0
  152.7451  141.5051  158.7900 H   0  0  0  0  0  0  0  0  0  0  0  0
  153.2052  141.8287  160.4525 H   0  0  0  0  0  0  0  0  0  0  0  0
  149.5076  142.0761  159.1338 H   0  0  0  0  0  0  0  0  0  0  0  0
  148.6981  143.5785  158.7217 H   0  0  0  0  0  0  0  0  0  0  0  0
  147.3722  141.5711  157.9896 H   0  0  0  0  0  0  0  0  0  0  0  0
  147.8003  142.5860  156.6256 H   0  0  0  0  0  0  0  0  0  0  0  0
  150.0486  143.7443  156.7989 H   0  0  0  0  0  0  0  0  0  0  0  0
  1  2  1  0  0  0  0
  1 22  1  0  0  0  0
  1 23  1  0  0  0  0
  1 24  1  0  0  0  0
  2 21  1  0  0  0  0
  2  3  2  0  0  0  0
  3  4  1  0  0  0  0
  3 25  1  0  0  0  0
  4  5  1  0  0  0  0
  4 20  2  0  0  0  0
  5  6  1  0  0  0  0
  6  7  2  0  0  0  0
  6  8  1  0  0  0  0
  8  9  1  0  0  0  0
  8 26  1  0  0  0  0
  9 10  1  0  0  0  0
  9 27  1  0  0  0  0
  9 28  1  0  0  0  0
 10 19  1  0  0  0  0
 10 11  1  0  0  0  0
 10 29  1  0  0  0  0
 11 12  1  0  0  0  0
 11 30  1  0  0  0  0
 11 31  1  0  0  0  0
 12 13  1  0  0  0  0
 12 17  1  0  0  0  0
 12 45  1  0  0  0  0
 13 14  1  0  0  0  0
 13 32  1  0  0  0  0
 13 33  1  0  0  0  0
 14 15  1  0  0  0  0
 14 16  1  0  0  0  0
 14 34  1  0  0  0  0
 15 35  1  0  0  0  0
 15 36  1  0  0  0  0
 15 37  1  0  0  0  0
 16 38  1  0  0  0  0
 16 39  1  0  0  0  0
 16 40  1  0  0  0  0
 17 18  1  0  0  0  0
 17 41  1  0  0  0  0
 17 42  1  0  0  0  0
 18 19  1  0  0  0  0
 18 43  1  0  0  0  0
 18 44  1  0  0  0  0
 20 21  1  0  0  0  0
M  CHG  1   5  -1
M  CHG  1  12   1
M  END
> <s_m_source_file>
AV-unprocessed.smi

> <i_m_source_file_index>
1254

> <i_lp_mmshare_version>
43012

> <i_f3d_flags>
0

> <s_epik_input>
W0NIM11jMVtjSF1jKG5vMSlbTkhdQyg9TylbTkhdW0NIMl1bQ0BASF0yW0NIMl1OKFtDSDJdW0NIMl1PMilbQ0gyXVtDSF0oW0NIM10pW0NIM10=

> <s_epik_cmdline>
J2VwaWtfcHl0aG9uJywgJy1waCcsICc3LjAnLCAnLXRuJywgJzgnLCAnLW1hJywgJzIwMCcsICctbWV0YWxfYmluZGluZycsICctaW1hZScsICc8aW5maWxlLm1hZT4nLCAnLW9tYWUnLCAnPG91dGZpbGUubWFlPic=

> <r_epik_Ionization_Penalty>
6.33139

> <r_epik_Ionization_Penalty_Charging>
6.33128

> <r_epik_Ionization_Penalty_Neutral>
0.000104968

> <r_epik_State_Penalty>
6.32522

> <r_epik_Charging_Adjusted_Penalty>
12.6565

> <i_epik_Tot_Q>
0

> <i_epik_Tot_abs_Q>
2

> <r_epik_Metal_State_Penalty>
2.26285

> <b_epik_Metal_Only>
1

> <s_lp_Force_Field>
OPLS_2005

> <r_lp_Energy>
5.65212

> <b_lp_Chiralities_Consistent>
1

> <s_lp_Variant>
AV-unprocessed.smi:1254-7

> <Gold.Version>
5.8.1

> <Gold.Id.Protein>
6NUR|6NUR_protein|mol2

> <Gold.PLP.Fitness>
41.5060

> <Gold.PLP.PLP>
-35.3557

> <Gold.PLP.part.hbond>
-4.9535

> <Gold.PLP.part.metal>
0.0000

> <Gold.PLP.part.buried>
-3.6256

> <Gold.PLP.part.nonpolar>
-27.3418

> <Gold.PLP.part.repulsive>
0.0814

> <Gold.PLP.ligand.clash>
0.0000

> <Gold.PLP.ligand.torsion>
1.3661

> <Gold.PLP.Chemscore.Hbond>
2.8830

> <Gold.PLP.Chemscore.CHOScore>
0.0000

> <Gold.PLP.Chemscore.Metal>
0.0000

> <Gold.Chemscore.Hbonds>
donor molecule, donor type, donor heavy atom, donor atom, acceptor molecule, acceptor atom, score
      L1  H    12    45       P1  8028  2.00
      P1  H  6931  6943       L1    21  0.71
      P1  H  6934  6947       L1    21  0.16

> <Gold.PLP.Chemscore.Internal.Correction>
0.2335

> <Gold.Rescore>
     Score         DG    S(hbond)    S(metal)    S(lipo)     H(rot)  DE(clash)    DE(int)     intcor
     11.66     -17.14       1.54        0.00      92.62       1.69       0.11       5.36       ----

> <Gold.Chemscore.Fitness>
11.6590

> <Gold.Chemscore.DG>
-17.1365

> <Gold.Chemscore.ZeroCoef>
-5.4800

> <Gold.Chemscore.Hbond>
1.5429

> <Gold.Chemscore.Metal>
0.0000

> <Gold.Chemscore.Lipo>
92.6173

> <Gold.Chemscore.Internal_Hbond>
0.0000

> <Gold.Chemscore.DEClash>
0.1127

> <Gold.Chemscore.DEInternal>
5.3648

> <Gold.Chemscore.Rot>
1.6926

> <Gold.Chemscore.Internal.Correction>
   9.000000E+99

> <Gold.Chemscore.Hbonds>
donor molecule, donor type, donor heavy atom, donor atom, acceptor molecule, acceptor atom, score
      L1  H    12    45       P1  8028  0.99
      P1  H  6931  6943       L1    21  0.14

> <Gold.Chemscore.Hbond.Weighted>
-5.1533

> <Gold.Chemscore.Metal.Weighted>
-0.0000

> <Gold.Chemscore.Lipo.Weighted>
-10.8362

> <Gold.Chemscore.Internal_Hbond.Weighted>
0.0000

> <Gold.Chemscore.DEClash.Weighted>
0.1127

> <Gold.Chemscore.DEInternal.Weighted>
5.3648

> <Gold.Chemscore.Rot.Weighted>
4.3330

> <Gold.Chemscore.Internal.Correction.Weighted>
   9.000000E+99

> <Gold.Protein.RotatedTorsions>
[ 6907 6896 6895 6894 ] final  151.51 input  -60.11 | X-H torsion
[ 7974 7965 7964 7962 ] final   11.18 input  175.53 | X-H torsion
[ 8008 7997 7996 7995 ] final   -3.52 input   59.86 | X-H torsion
[ 10167 10162 10161 10158 ] final  148.39 input  -65.29 | X-H torsion
[ 10718 10713 10712 10709 ] final  166.56 input   66.30 | X-H torsion
[ 10763 10752 10751 10750 ] final  117.70 input  -60.55 | X-H torsion
[ 11005 11000 10999 10996 ] final  123.97 input  -57.11 | X-H torsion

> <Gold.Protein.ActiveResidues>
 VAL166  LYS551  ARG553  GLY616  TRP617  ASP618  TYR619  PRO620  LYS621  CYS622 
 ASP623  PHE694  ASN695  SER759  ASP760  ASP761  ALA762  ILE779  LEU786  VAL792 
 PHE793  MET794  SER795  GLU796  ALA797  LYS798  CYS799  TRP800  GLU811  SER814 

> <Gold.Protein.RotatedAtoms>
  152.0997  133.4243  159.4580 H   0  0  0  0  0  0  0  0  0  0  0  0  # atno 6907 bound_to 6896
  150.6864  134.2775  159.4623 H   0  0  0  0  0  0  0  0  0  0  0  0  # atno 6908 bound_to 6896
  152.0634  134.9579  160.0625 H   0  0  0  0  0  0  0  0  0  0  0  0  # atno 6909 bound_to 6896
  146.2375  139.9523  142.8469 H   0  0  0  0  0  0  0  0  0  0  0  0  # atno 7974 bound_to 7965
  154.6241  140.2507  155.7514 H   0  0  0  0  0  0  0  0  0  0  0  0  # atno 8008 bound_to 7997
  156.2443  140.2920  156.0482 H   0  0  0  0  0  0  0  0  0  0  0  0  # atno 8009 bound_to 7997
  155.1850  140.0390  157.2880 H   0  0  0  0  0  0  0  0  0  0  0  0  # atno 8010 bound_to 7997
  139.4875  144.5683  151.7103 H   0  0  0  0  0  0  0  0  0  0  0  0  # atno 10167 bound_to 10162
  157.0641  131.0348  151.2636 H   0  0  0  0  0  0  0  0  0  0  0  0  # atno 10718 bound_to 10713
  153.5563  135.3529  155.2780 H   0  0  0  0  0  0  0  0  0  0  0  0  # atno 10763 bound_to 10752
  154.8700  135.4126  154.2880 H   0  0  0  0  0  0  0  0  0  0  0  0  # atno 10764 bound_to 10752
  153.3617  135.7060  153.6776 H   0  0  0  0  0  0  0  0  0  0  0  0  # atno 10765 bound_to 10752
  139.9337  134.9640  156.8339 H   0  0  0  0  0  0  0  0  0  0  0  0  # atno 11005 bound_to 11000
  145.1850  140.9785  143.4244 LP  0  0  0  0  0  0  0  0  0  0  0  0  # atno 17320 bound_to 7965
  144.9908  139.3691  143.6215 LP  0  0  0  0  0  0  0  0  0  0  0  0  # atno 17321 bound_to 7965
  140.5265  144.0797  150.6039 LP  0  0  0  0  0  0  0  0  0  0  0  0  # atno 17342 bound_to 10162
  140.3773  143.2822  152.0211 LP  0  0  0  0  0  0  0  0  0  0  0  0  # atno 17343 bound_to 10162
  157.4931  130.7834  149.7528 LP  0  0  0  0  0  0  0  0  0  0  0  0  # atno 17370 bound_to 10713
  155.9970  130.3903  150.2758 LP  0  0  0  0  0  0  0  0  0  0  0  0  # atno 17371 bound_to 10713
  140.6133  134.0062  155.7586 LP  0  0  0  0  0  0  0  0  0  0  0  0  # atno 17394 bound_to 11000
  141.0939  133.9873  157.3192 LP  0  0  0  0  0  0  0  0  0  0  0  0  # atno 17395 bound_to 11000

$$$$
