AV-unprocessed.smi:2120|AV-procd|sdf|8638|dock4
  -GOLD-   2272011383D 1   1.00000     0.00000
 Structure written by MMmdl.
 45 48  0  0  0  0  0  0  0  0  1 V2000
  155.3699  137.8340  158.9777 O   0  0  0  0  0  0  0  0  0  0  0  0
  155.3502  138.2588  160.1339 C   0  0  0  0  0  0  0  0  0  0  0  0
  154.5662  139.2856  160.5040 N   0  0  0  0  0  0  0  0  0  0  0  0
  153.6670  140.0181  159.6204 C   0  0  0  0  0  0  0  0  0  0  0  0
  153.0447  141.2365  160.3231 C   0  0  0  0  0  0  0  0  0  0  0  0
  151.9155  141.8478  159.5171 C   0  0  0  0  0  0  0  0  0  0  0  0
  151.3422  141.1475  158.4357 C   0  0  0  0  0  0  0  0  0  0  0  0
  150.2970  141.7534  157.7124 C   0  0  0  0  0  0  0  0  0  0  0  0
  149.8666  143.0367  158.1045 C   0  0  0  0  0  0  0  0  0  0  0  0
  150.4074  143.7164  159.1388 N   0  0  0  0  0  0  0  0  0  0  0  0
  151.4104  143.1289  159.8262 C   0  0  0  0  0  0  0  0  0  0  0  0
  156.2462  137.5956  161.2067 C   0  0  0  0  0  0  0  0  0  0  0  0
  157.3154  138.6178  161.6803 C   0  0  0  0  0  0  0  0  0  0  0  0
  158.1927  138.0015  162.7915 C   0  0  1  0  0  0  0  0  0  0  0  0
  157.3069  137.6169  163.9950 C   0  0  0  0  0  0  0  0  0  0  0  0
  156.2545  136.5836  163.5413 C   0  0  2  0  0  0  0  0  0  0  0  0
  156.9634  135.3233  163.0045 C   0  0  0  0  0  0  0  0  0  0  0  0
  157.8514  135.7123  161.8044 C   0  0  2  0  0  0  0  0  0  0  0  0
  158.9071  136.7446  162.2522 C   0  0  0  0  0  0  0  0  0  0  0  0
  156.9764  136.3208  160.6879 C   0  0  0  0  0  0  0  0  0  0  0  0
  155.3749  137.1968  162.4305 C   0  0  0  0  0  0  0  0  0  0  0  0
  154.6005  139.5824  161.4685 H   0  0  0  0  0  0  0  0  0  0  0  0
  154.2391  140.3442  158.7515 H   0  0  0  0  0  0  0  0  0  0  0  0
  152.8899  139.3487  159.2476 H   0  0  0  0  0  0  0  0  0  0  0  0
  152.6525  140.9534  161.3008 H   0  0  0  0  0  0  0  0  0  0  0  0
  153.8098  141.9924  160.5060 H   0  0  0  0  0  0  0  0  0  0  0  0
  151.6984  140.1647  158.1632 H   0  0  0  0  0  0  0  0  0  0  0  0
  149.8357  141.2471  156.8773 H   0  0  0  0  0  0  0  0  0  0  0  0
  149.0669  143.5302  157.5723 H   0  0  0  0  0  0  0  0  0  0  0  0
  151.8208  143.6997  160.6462 H   0  0  0  0  0  0  0  0  0  0  0  0
  157.9443  138.9242  160.8427 H   0  0  0  0  0  0  0  0  0  0  0  0
  156.8421  139.5276  162.0536 H   0  0  0  0  0  0  0  0  0  0  0  0
  158.9375  138.7313  163.1103 H   0  0  0  0  0  0  0  0  0  0  0  0
  157.9187  137.2058  164.7991 H   0  0  0  0  0  0  0  0  0  0  0  0
  156.8167  138.5021  164.4020 H   0  0  0  0  0  0  0  0  0  0  0  0
  155.6265  136.3113  164.3899 H   0  0  0  0  0  0  0  0  0  0  0  0
  157.5677  134.8665  163.7893 H   0  0  0  0  0  0  0  0  0  0  0  0
  156.2288  134.5748  162.7052 H   0  0  0  0  0  0  0  0  0  0  0  0
  158.3546  134.8223  161.4250 H   0  0  0  0  0  0  0  0  0  0  0  0
  159.5573  137.0076  161.4168 H   0  0  0  0  0  0  0  0  0  0  0  0
  159.5510  136.3166  163.0217 H   0  0  0  0  0  0  0  0  0  0  0  0
  156.2545  135.5768  160.3466 H   0  0  0  0  0  0  0  0  0  0  0  0
  157.6070  136.5584  159.8293 H   0  0  0  0  0  0  0  0  0  0  0  0
  154.8444  138.0631  162.8294 H   0  0  0  0  0  0  0  0  0  0  0  0
  154.6068  136.4817  162.1315 H   0  0  0  0  0  0  0  0  0  0  0  0
  1  2  2  0  0  0  0
  2  3  1  0  0  0  0
  2 12  1  0  0  0  0
  3  4  1  0  0  0  0
  3 22  1  0  0  0  0
  4  5  1  0  0  0  0
  4 23  1  0  0  0  0
  4 24  1  0  0  0  0
  5  6  1  0  0  0  0
  5 25  1  0  0  0  0
  5 26  1  0  0  0  0
  6 11  1  0  0  0  0
  6  7  2  0  0  0  0
  7  8  1  0  0  0  0
  7 27  1  0  0  0  0
  8  9  2  0  0  0  0
  8 28  1  0  0  0  0
  9 10  1  0  0  0  0
  9 29  1  0  0  0  0
 10 11  2  0  0  0  0
 11 30  1  0  0  0  0
 12 20  1  0  0  0  0
 12 21  1  0  0  0  0
 12 13  1  0  0  0  0
 13 14  1  0  0  0  0
 13 31  1  0  0  0  0
 13 32  1  0  0  0  0
 14 19  1  0  0  0  0
 14 15  1  0  0  0  0
 14 33  1  0  0  0  0
 15 16  1  0  0  0  0
 15 34  1  0  0  0  0
 15 35  1  0  0  0  0
 16 17  1  0  0  0  0
 16 21  1  0  0  0  0
 16 36  1  0  0  0  0
 17 18  1  0  0  0  0
 17 37  1  0  0  0  0
 17 38  1  0  0  0  0
 18 19  1  0  0  0  0
 18 20  1  0  0  0  0
 18 39  1  0  0  0  0
 19 40  1  0  0  0  0
 19 41  1  0  0  0  0
 20 42  1  0  0  0  0
 20 43  1  0  0  0  0
 21 44  1  0  0  0  0
 21 45  1  0  0  0  0
M  END
> <s_m_source_file>
AV-unprocessed.smi

> <i_m_source_file_index>
2120

> <i_lp_mmshare_version>
43012

> <i_f3d_flags>
0

> <s_epik_input>
W0NIMl0xW0NASF0oW0NIMl0yKVtDSDJdW0NASF0oW0NIMl0zKVtDSDJdW0NAQEhdMVtDSDJdQzIzQyg9TylbTkhdW0NIMl1bQ0gyXWM0W2NIXVtjSF1bY0hdbltjSF00

> <s_epik_cmdline>
J2VwaWtfcHl0aG9uJywgJy1waCcsICc3LjAnLCAnLXRuJywgJzgnLCAnLW1hJywgJzIwMCcsICctbWV0YWxfYmluZGluZycsICctaW1hZScsICc8aW5maWxlLm1hZT4nLCAnLW9tYWUnLCAnPG91dGZpbGUubWFlPic=

> <r_epik_Ionization_Penalty>
0.0137322

> <r_epik_Ionization_Penalty_Charging>
0

> <r_epik_Ionization_Penalty_Neutral>
0.0137322

> <r_epik_State_Penalty>
0.0107033

> <r_epik_Charging_Adjusted_Penalty>
0.0107033

> <i_epik_Tot_Q>
0

> <i_epik_Tot_abs_Q>
0

> <r_epik_Metal_State_Penalty>
0.0104605

> <b_epik_Metal_Only>
0

> <s_lp_Force_Field>
OPLS_2005

> <r_lp_Energy>
34.8386

> <b_lp_Chiralities_Consistent>
1

> <s_lp_Variant>
AV-unprocessed.smi:2120-1

> <Gold.Version>
5.8.1

> <Gold.Id.Protein>
6NUR|6NUR_protein|mol2

> <Gold.PLP.Fitness>
43.5315

> <Gold.PLP.PLP>
-41.2157

> <Gold.PLP.part.hbond>
0.0000

> <Gold.PLP.part.metal>
0.0000

> <Gold.PLP.part.buried>
-5.4702

> <Gold.PLP.part.nonpolar>
-34.9883

> <Gold.PLP.part.repulsive>
0.0533

> <Gold.PLP.ligand.clash>
0.0000

> <Gold.PLP.ligand.torsion>
0.3459

> <Gold.PLP.Chemscore.Hbond>
0.0000

> <Gold.PLP.Chemscore.CHOScore>
1.0000

> <Gold.PLP.Chemscore.Metal>
0.0000

> <Gold.Chemscore.Hbonds>
donor molecule, donor type, donor heavy atom, donor atom, acceptor molecule, acceptor atom, score
      L1  C     9    29       P1  8028  1.00

> <Gold.PLP.Chemscore.Internal.Correction>
0.0076

> <Gold.Rescore>
     Score         DG    S(hbond)    S(metal)    S(lipo)     H(rot)  DE(clash)    DE(int)     intcor
     17.40     -17.74       0.00        0.00     133.79       1.32       0.02       0.32       ----

> <Gold.Chemscore.Fitness>
17.3981

> <Gold.Chemscore.DG>
-17.7412

> <Gold.Chemscore.ZeroCoef>
-5.4800

> <Gold.Chemscore.Hbond>
0.0000

> <Gold.Chemscore.Metal>
0.0000

> <Gold.Chemscore.Lipo>
133.7876

> <Gold.Chemscore.Internal_Hbond>
0.0000

> <Gold.Chemscore.DEClash>
0.0237

> <Gold.Chemscore.DEInternal>
0.3194

> <Gold.Chemscore.Rot>
1.3250

> <Gold.Chemscore.Internal.Correction>
   9.000000E+99

> <Gold.Chemscore.Hbond.Weighted>
-0.0000

> <Gold.Chemscore.Metal.Weighted>
-0.0000

> <Gold.Chemscore.Lipo.Weighted>
-15.6532

> <Gold.Chemscore.Internal_Hbond.Weighted>
0.0000

> <Gold.Chemscore.DEClash.Weighted>
0.0237

> <Gold.Chemscore.DEInternal.Weighted>
0.3194

> <Gold.Chemscore.Rot.Weighted>
3.3920

> <Gold.Chemscore.Internal.Correction.Weighted>
   9.000000E+99

> <Gold.Protein.RotatedTorsions>
[ 6907 6896 6895 6894 ] final   54.13 input  -60.11 | X-H torsion
[ 7974 7965 7964 7962 ] final -101.15 input  175.53 | X-H torsion
[ 8008 7997 7996 7995 ] final   -4.40 input   59.86 | X-H torsion
[ 10167 10162 10161 10158 ] final  116.74 input  -65.29 | X-H torsion
[ 10718 10713 10712 10709 ] final  153.42 input   66.30 | X-H torsion
[ 10763 10752 10751 10750 ] final -162.02 input  -60.55 | X-H torsion
[ 11005 11000 10999 10996 ] final  165.76 input  -57.11 | X-H torsion

> <Gold.Protein.ActiveResidues>
 VAL166  LYS551  ARG553  GLY616  TRP617  ASP618  TYR619  PRO620  LYS621  CYS622 
 ASP623  PHE694  ASN695  SER759  ASP760  ASP761  ALA762  ILE779  LEU786  VAL792 
 PHE793  MET794  SER795  GLU796  ALA797  LYS798  CYS799  TRP800  GLU811  SER814 

> <Gold.Protein.RotatedAtoms>
  152.3407  134.7138  160.0264 H   0  0  0  0  0  0  0  0  0  0  0  0  # atno 6907 bound_to 6896
  151.7524  133.3323  159.3403 H   0  0  0  0  0  0  0  0  0  0  0  0  # atno 6908 bound_to 6896
  150.7478  134.6113  159.6132 H   0  0  0  0  0  0  0  0  0  0  0  0  # atno 6909 bound_to 6896
  145.2853  140.9338  143.2908 H   0  0  0  0  0  0  0  0  0  0  0  0  # atno 7974 bound_to 7965
  154.6147  140.2485  155.7624 H   0  0  0  0  0  0  0  0  0  0  0  0  # atno 8008 bound_to 7997
  156.2392  140.2939  156.0345 H   0  0  0  0  0  0  0  0  0  0  0  0  # atno 8009 bound_to 7997
  155.1994  140.0394  157.2905 H   0  0  0  0  0  0  0  0  0  0  0  0  # atno 8010 bound_to 7997
  139.6226  144.7103  151.2601 H   0  0  0  0  0  0  0  0  0  0  0  0  # atno 10167 bound_to 10162
  157.2449  131.0767  151.1768 H   0  0  0  0  0  0  0  0  0  0  0  0  # atno 10718 bound_to 10713
  154.7252  135.3034  154.8983 H   0  0  0  0  0  0  0  0  0  0  0  0  # atno 10763 bound_to 10752
  153.9843  135.6726  153.4755 H   0  0  0  0  0  0  0  0  0  0  0  0  # atno 10764 bound_to 10752
  153.0868  135.4980  154.8532 H   0  0  0  0  0  0  0  0  0  0  0  0  # atno 10765 bound_to 10752
  140.2595  134.7913  157.3576 H   0  0  0  0  0  0  0  0  0  0  0  0  # atno 11005 bound_to 11000
  144.9218  139.4403  143.6537 LP  0  0  0  0  0  0  0  0  0  0  0  0  # atno 17320 bound_to 7965
  146.3203  139.8082  142.8951 LP  0  0  0  0  0  0  0  0  0  0  0  0  # atno 17321 bound_to 7965
  140.7392  143.6626  150.8151 LP  0  0  0  0  0  0  0  0  0  0  0  0  # atno 17342 bound_to 10162
  140.0239  143.5513  152.2789 LP  0  0  0  0  0  0  0  0  0  0  0  0  # atno 17343 bound_to 10162
  157.3339  130.6999  149.6341 LP  0  0  0  0  0  0  0  0  0  0  0  0  # atno 17370 bound_to 10713
  155.9668  130.4299  150.4854 LP  0  0  0  0  0  0  0  0  0  0  0  0  # atno 17371 bound_to 10713
  140.1479  134.4888  155.7983 LP  0  0  0  0  0  0  0  0  0  0  0  0  # atno 17394 bound_to 11000
  141.2192  133.6850  156.7326 LP  0  0  0  0  0  0  0  0  0  0  0  0  # atno 17395 bound_to 11000

$$$$
