AV-unprocessed.smi:1879|AV-procd|sdf|7634|dock1
  -GOLD-   22720 9353D 1   1.00000     0.00000
 Structure written by MMmdl.
 47 49  0  0  0  0  0  0  0  0  2 V2000
  149.7991  134.7547  155.9607 O   0  0  0  0  0  0  0  0  0  0  0  0
  149.3531  135.1760  154.8935 C   0  0  0  0  0  0  0  0  0  0  0  0
  148.8011  134.4176  153.9316 N   0  0  0  0  0  0  0  0  0  0  0  0
  148.6119  133.0061  153.9184 C   0  0  0  0  0  0  0  0  0  0  0  0
  149.3815  132.1486  154.7467 C   0  0  0  0  0  0  0  0  0  0  0  0
  149.1829  130.7562  154.6946 C   0  0  0  0  0  0  0  0  0  0  0  0
  148.2142  130.2396  153.8179 C   0  0  0  0  0  0  0  0  0  0  0  0
  147.4841  131.0818  153.0583 N   0  3  0  0  0  0  0  0  0  0  0  0
  147.6176  132.4316  153.0739 C   0  0  0  0  0  0  0  0  0  0  0  0
  146.7689  133.1878  152.2333 N   0  0  0  0  0  0  0  0  0  0  0  0
  145.9865  132.5321  151.1917 C   0  0  0  0  0  0  0  0  0  0  0  0
  144.9527  133.5687  150.7609 C   0  0  0  0  0  0  0  0  0  0  0  0
  144.6477  134.2899  152.0700 C   0  0  0  0  0  0  0  0  0  0  0  0
  145.9877  134.2758  152.8133 C   0  0  0  0  0  0  0  0  0  0  0  0
  149.3796  136.4673  154.5352 N   0  0  0  0  0  0  0  0  0  0  0  0
  149.9215  137.5570  155.3413 C   0  0  2  0  0  0  0  0  0  0  0  0
  149.7874  138.8807  154.5664 C   0  0  0  0  0  0  0  0  0  0  0  0
  150.4001  140.0589  155.3435 C   0  0  0  0  0  0  0  0  0  0  0  0
  151.8641  139.7955  155.7419 C   0  0  2  0  0  0  0  0  0  0  0  0
  152.6872  139.8063  154.5922 O   0  0  0  0  0  0  0  0  0  0  0  0
  152.0140  138.4555  156.4860 C   0  0  0  0  0  0  0  0  0  0  0  0
  151.3948  137.2823  155.7059 C   0  0  0  0  0  0  0  0  0  0  0  0
  148.5735  134.8944  153.0716 H   0  0  0  0  0  0  0  0  0  0  0  0
  150.1208  132.5373  155.4302 H   0  0  0  0  0  0  0  0  0  0  0  0
  149.7673  130.0953  155.3181 H   0  0  0  0  0  0  0  0  0  0  0  0
  147.9953  129.1874  153.7078 H   0  0  0  0  0  0  0  0  0  0  0  0
  146.6154  132.2174  150.3584 H   0  0  0  0  0  0  0  0  0  0  0  0
  145.4775  131.6536  151.5908 H   0  0  0  0  0  0  0  0  0  0  0  0
  145.3949  134.2650  150.0466 H   0  0  0  0  0  0  0  0  0  0  0  0
  144.0699  133.1239  150.3010 H   0  0  0  0  0  0  0  0  0  0  0  0
  144.2556  135.2963  151.9207 H   0  0  0  0  0  0  0  0  0  0  0  0
  143.9081  133.7219  152.6356 H   0  0  0  0  0  0  0  0  0  0  0  0
  145.8432  134.1525  153.8876 H   0  0  0  0  0  0  0  0  0  0  0  0
  146.5161  135.2147  152.6455 H   0  0  0  0  0  0  0  0  0  0  0  0
  148.9963  136.7207  153.6363 H   0  0  0  0  0  0  0  0  0  0  0  0
  149.3397  137.6424  156.2614 H   0  0  0  0  0  0  0  0  0  0  0  0
  150.2780  138.7929  153.5958 H   0  0  0  0  0  0  0  0  0  0  0  0
  148.7366  139.0875  154.3603 H   0  0  0  0  0  0  0  0  0  0  0  0
  150.3268  140.9744  154.7552 H   0  0  0  0  0  0  0  0  0  0  0  0
  149.8120  140.2306  156.2459 H   0  0  0  0  0  0  0  0  0  0  0  0
  152.2089  140.6037  156.3878 H   0  0  0  0  0  0  0  0  0  0  0  0
  153.5891  139.7477  154.8679 H   0  0  0  0  0  0  0  0  0  0  0  0
  153.0653  138.2535  156.6948 H   0  0  0  0  0  0  0  0  0  0  0  0
  151.5215  138.5317  157.4563 H   0  0  0  0  0  0  0  0  0  0  0  0
  151.4724  136.3723  156.3018 H   0  0  0  0  0  0  0  0  0  0  0  0
  151.9731  137.1038  154.7982 H   0  0  0  0  0  0  0  0  0  0  0  0
  146.7810  130.6771  152.4399 H   0  0  0  0  0  0  0  0  0  0  0  0
  1  2  2  0  0  0  0
  2  3  1  0  0  0  0
  2 15  1  0  0  0  0
  3  4  1  0  0  0  0
  3 23  1  0  0  0  0
  4  9  1  0  0  0  0
  4  5  2  0  0  0  0
  5  6  1  0  0  0  0
  5 24  1  0  0  0  0
  6  7  2  0  0  0  0
  6 25  1  0  0  0  0
  7  8  1  0  0  0  0
  7 26  1  0  0  0  0
  8  9  2  0  0  0  0
  8 47  1  0  0  0  0
  9 10  1  0  0  0  0
 10 14  1  0  0  0  0
 10 11  1  0  0  0  0
 11 12  1  0  0  0  0
 11 27  1  0  0  0  0
 11 28  1  0  0  0  0
 12 13  1  0  0  0  0
 12 29  1  0  0  0  0
 12 30  1  0  0  0  0
 13 14  1  0  0  0  0
 13 31  1  0  0  0  0
 13 32  1  0  0  0  0
 14 33  1  0  0  0  0
 14 34  1  0  0  0  0
 15 16  1  0  0  0  0
 15 35  1  0  0  0  0
 16 22  1  0  0  0  0
 16 17  1  0  0  0  0
 16 36  1  0  0  0  0
 17 18  1  0  0  0  0
 17 37  1  0  0  0  0
 17 38  1  0  0  0  0
 18 19  1  0  0  0  0
 18 39  1  0  0  0  0
 18 40  1  0  0  0  0
 19 20  1  0  0  0  0
 19 21  1  0  0  0  0
 19 41  1  0  0  0  0
 20 42  1  0  0  0  0
 21 22  1  0  0  0  0
 21 43  1  0  0  0  0
 21 44  1  0  0  0  0
 22 45  1  0  0  0  0
 22 46  1  0  0  0  0
M  CHG  1   8   1
M  END
> <s_m_source_file>
AV-unprocessed.smi

> <i_m_source_file_index>
1879

> <i_lp_mmshare_version>
43012

> <i_f3d_flags>
0

> <s_epik_input>
W0NIMl0xW0NIMl1bQ0BIXShbT0hdKVtDSDJdW0NIMl1bQ0BIXTFbTkhdQyg9TylbTkhdYzJbY0hdW2NIXVtjSF1uYzJOM1tDSDJdW0NIMl1bQ0gyXVtDSDJdMw==

> <s_epik_cmdline>
J2VwaWtfcHl0aG9uJywgJy1waCcsICc3LjAnLCAnLXRuJywgJzgnLCAnLW1hJywgJzIwMCcsICctbWV0YWxfYmluZGluZycsICctaW1hZScsICc8aW5maWxlLm1hZT4nLCAnLW9tYWUnLCAnPG91dGZpbGUubWFlPic=

> <r_lp_tautomer_probability>
0.999994

> <r_epik_Ionization_Penalty>
1.08454

> <r_epik_Ionization_Penalty_Charging>
1.08452

> <r_epik_Ionization_Penalty_Neutral>
2.17987e-05

> <r_epik_State_Penalty>
1.14025

> <r_epik_Charging_Adjusted_Penalty>
2.22477

> <i_epik_Tot_Q>
1

> <i_epik_Tot_abs_Q>
1

> <r_epik_Metal_State_Penalty>
1.22973

> <b_epik_Metal_Only>
0

> <s_lp_Force_Field>
OPLS_2005

> <r_lp_Energy>
43.5089

> <b_lp_Chiralities_Consistent>
1

> <s_lp_Variant>
AV-unprocessed.smi:1879-4

> <Gold.Version>
5.8.1

> <Gold.Id.Protein>
6NUR|6NUR_protein|mol2

> <Gold.PLP.Fitness>
43.3187

> <Gold.PLP.PLP>
-36.3716

> <Gold.PLP.part.hbond>
-4.6435

> <Gold.PLP.part.metal>
0.0000

> <Gold.PLP.part.buried>
-3.1368

> <Gold.PLP.part.nonpolar>
-29.0158

> <Gold.PLP.part.repulsive>
0.2195

> <Gold.PLP.ligand.clash>
0.0000

> <Gold.PLP.ligand.torsion>
0.3053

> <Gold.PLP.Chemscore.Hbond>
2.3920

> <Gold.PLP.Chemscore.CHOScore>
0.0000

> <Gold.PLP.Chemscore.Metal>
0.0000

> <Gold.Chemscore.Hbonds>
donor molecule, donor type, donor heavy atom, donor atom, acceptor molecule, acceptor atom, score
      L1  H     3    23       P1  7948  0.98
      L1  H    15    35       P1  7948  0.85
      P1  H  7989  7998       L1    20  0.46

> <Gold.PLP.Chemscore.Internal.Correction>
0.3817

> <Gold.Rescore>
     Score         DG    S(hbond)    S(metal)    S(lipo)     H(rot)  DE(clash)    DE(int)     intcor
     15.06     -16.74       2.24        0.00      69.19       1.69       0.01       1.67       ----

> <Gold.Chemscore.Fitness>
15.0587

> <Gold.Chemscore.DG>
-16.7392

> <Gold.Chemscore.ZeroCoef>
-5.4800

> <Gold.Chemscore.Hbond>
2.2449

> <Gold.Chemscore.Metal>
0.0000

> <Gold.Chemscore.Lipo>
69.1870

> <Gold.Chemscore.Internal_Hbond>
0.0000

> <Gold.Chemscore.DEClash>
0.0060

> <Gold.Chemscore.DEInternal>
1.6745

> <Gold.Chemscore.Rot>
1.6929

> <Gold.Chemscore.Internal.Correction>
   9.000000E+99

> <Gold.Chemscore.Hbonds>
donor molecule, donor type, donor heavy atom, donor atom, acceptor molecule, acceptor atom, score
      L1  H     3    23       P1  7948  0.47
      L1  H    15    35       P1  7948  0.83
      P1  H  7989  7998       L1    20  0.12

> <Gold.Chemscore.Hbond.Weighted>
-7.4981

> <Gold.Chemscore.Metal.Weighted>
-0.0000

> <Gold.Chemscore.Lipo.Weighted>
-8.0949

> <Gold.Chemscore.Internal_Hbond.Weighted>
0.0000

> <Gold.Chemscore.DEClash.Weighted>
0.0060

> <Gold.Chemscore.DEInternal.Weighted>
1.6745

> <Gold.Chemscore.Rot.Weighted>
4.3338

> <Gold.Chemscore.Internal.Correction.Weighted>
   9.000000E+99

> <Gold.Protein.RotatedTorsions>
[ 6907 6896 6895 6894 ] final -140.74 input  -60.11 | X-H torsion
[ 7974 7965 7964 7962 ] final  167.83 input  175.53 | X-H torsion
[ 8008 7997 7996 7995 ] final  -15.94 input   59.86 | X-H torsion
[ 10167 10162 10161 10158 ] final   22.20 input  -65.29 | X-H torsion
[ 10718 10713 10712 10709 ] final  167.38 input   66.30 | X-H torsion
[ 10763 10752 10751 10750 ] final  135.80 input  -60.55 | X-H torsion
[ 11005 11000 10999 10996 ] final -145.21 input  -57.11 | X-H torsion

> <Gold.Protein.ActiveResidues>
 VAL166  LYS551  ARG553  GLY616  TRP617  ASP618  TYR619  PRO620  LYS621  CYS622 
 ASP623  PHE694  ASN695  SER759  ASP760  ASP761  ALA762  ILE779  LEU786  VAL792 
 PHE793  MET794  SER795  GLU796  ALA797  LYS798  CYS799  TRP800  GLU811  SER814 

> <Gold.Protein.RotatedAtoms>
  151.0646  133.5515  159.2631 H   0  0  0  0  0  0  0  0  0  0  0  0  # atno 6907 bound_to 6896
  151.2478  135.0611  159.9060 H   0  0  0  0  0  0  0  0  0  0  0  0  # atno 6908 bound_to 6896
  152.5403  134.0412  159.8122 H   0  0  0  0  0  0  0  0  0  0  0  0  # atno 6909 bound_to 6896
  144.7410  139.8818  143.6397 H   0  0  0  0  0  0  0  0  0  0  0  0  # atno 7974 bound_to 7965
  154.5091  140.2183  155.9192 H   0  0  0  0  0  0  0  0  0  0  0  0  # atno 8008 bound_to 7997
  156.1530  140.3157  155.8646 H   0  0  0  0  0  0  0  0  0  0  0  0  # atno 8009 bound_to 7997
  155.3901  140.0477  157.3031 H   0  0  0  0  0  0  0  0  0  0  0  0  # atno 8010 bound_to 7997
  140.5367  143.9748  150.6495 H   0  0  0  0  0  0  0  0  0  0  0  0  # atno 10167 bound_to 10162
  157.0523  131.0317  151.2676 H   0  0  0  0  0  0  0  0  0  0  0  0  # atno 10718 bound_to 10713
  153.8460  135.3085  155.3429 H   0  0  0  0  0  0  0  0  0  0  0  0  # atno 10763 bound_to 10752
  154.7912  135.4781  154.0060 H   0  0  0  0  0  0  0  0  0  0  0  0  # atno 10764 bound_to 10752
  153.1547  135.6850  153.8923 H   0  0  0  0  0  0  0  0  0  0  0  0  # atno 10765 bound_to 10752
  140.7946  134.2929  157.5001 H   0  0  0  0  0  0  0  0  0  0  0  0  # atno 11005 bound_to 11000
  146.1206  139.4223  143.0231 LP  0  0  0  0  0  0  0  0  0  0  0  0  # atno 17320 bound_to 7965
  145.7310  141.0042  143.1351 LP  0  0  0  0  0  0  0  0  0  0  0  0  # atno 17321 bound_to 7965
  140.3138  143.3181  152.0853 LP  0  0  0  0  0  0  0  0  0  0  0  0  # atno 17342 bound_to 10162
  139.4973  144.6619  151.6445 LP  0  0  0  0  0  0  0  0  0  0  0  0  # atno 17343 bound_to 10162
  157.5020  130.7886  149.7615 LP  0  0  0  0  0  0  0  0  0  0  0  0  # atno 17370 bound_to 10713
  156.0004  130.3883  150.2629 LP  0  0  0  0  0  0  0  0  0  0  0  0  # atno 17371 bound_to 10713
  139.8727  134.9394  156.3741 LP  0  0  0  0  0  0  0  0  0  0  0  0  # atno 17394 bound_to 11000
  140.9356  133.7549  156.0080 LP  0  0  0  0  0  0  0  0  0  0  0  0  # atno 17395 bound_to 11000

$$$$
