AV-unprocessed.smi:261|AV-procd|sdf|1991|dock6
  -GOLD-   2262021173D 1   1.00000     0.00000
 Structure written by MMmdl.
 51 54  0  0  0  0  0  0  0  0  1 V2000
  146.7830  128.5824  152.6162 C   0  0  0  0  0  0  0  0  0  0  0  0
  145.8064  129.3700  151.9554 O   0  0  0  0  0  0  0  0  0  0  0  0
  146.2138  130.7126  151.7341 C   0  0  1  0  0  0  0  0  0  0  0  0
  145.2298  131.5147  150.8841 C   0  0  0  0  0  0  0  0  0  0  0  0
  145.5006  132.9723  151.2883 C   0  0  1  0  0  0  0  0  0  0  0  0
  144.2590  133.8500  151.0346 C   0  0  0  0  0  0  0  0  0  0  0  0
  143.1772  133.2929  150.4804 N   0  0  0  0  0  0  0  0  0  0  0  0
  144.2809  135.0380  151.3483 O   0  0  0  0  0  0  0  0  0  0  0  0
  145.9186  132.8726  152.6937 N   0  0  0  0  0  0  0  0  0  0  0  0
  146.5527  133.8881  153.3422 C   0  0  0  0  0  0  0  0  0  0  0  0
  145.9025  135.0676  153.5299 N   0  0  0  0  0  0  0  0  0  0  0  0
  146.4961  136.0781  154.1709 C   0  0  0  0  0  0  0  0  0  0  0  0
  147.7173  136.1241  154.7045 N   0  0  0  0  0  0  0  0  0  0  0  0
  148.3758  134.9438  154.5282 C   0  0  0  0  0  0  0  0  0  0  0  0
  147.8751  133.7857  153.8669 C   0  0  0  0  0  0  0  0  0  0  0  0
  148.8329  132.7773  153.9039 N   0  0  0  0  0  0  0  0  0  0  0  0
  149.8414  133.3117  154.5366 C   0  0  0  0  0  0  0  0  0  0  0  0
  149.6501  134.6100  154.9494 N   0  0  0  0  0  0  0  0  0  0  0  0
  150.5881  135.4423  155.6826 C   0  0  0  0  0  0  0  0  0  0  0  0
  150.8408  136.7979  154.9934 C   0  0  2  0  0  0  0  0  0  0  0  0
  151.7024  136.6017  153.8880 O   0  0  0  0  0  0  0  0  0  0  0  0
  151.4773  137.8273  155.9456 C   0  0  1  0  0  0  0  0  0  0  0  0
  151.8067  139.1720  155.2965 C   0  0  0  0  0  0  0  0  0  0  0  0
  151.8550  140.0871  156.4987 C   0  0  0  0  0  0  0  0  0  0  0  0
  150.7263  139.5342  157.3649 C   0  0  0  0  0  0  0  0  0  0  0  0
  150.5712  138.1663  156.9926 O   0  0  0  0  0  0  0  0  0  0  0  0
  146.2367  131.4937  153.0476 C   0  0  0  0  0  0  0  0  0  0  0  0
  147.2079  130.7494  151.2841 H   0  0  0  0  0  0  0  0  0  0  0  0
  146.3324  133.3507  150.6916 H   0  0  0  0  0  0  0  0  0  0  0  0
  146.3934  127.5765  152.7728 H   0  0  0  0  0  0  0  0  0  0  0  0
  147.0327  129.0003  153.5921 H   0  0  0  0  0  0  0  0  0  0  0  0
  147.6965  128.4980  152.0270 H   0  0  0  0  0  0  0  0  0  0  0  0
  145.3665  131.3475  149.8153 H   0  0  0  0  0  0  0  0  0  0  0  0
  144.2085  131.2249  151.1396 H   0  0  0  0  0  0  0  0  0  0  0  0
  142.3572  133.8553  150.3047 H   0  0  0  0  0  0  0  0  0  0  0  0
  143.1862  132.3132  150.2369 H   0  0  0  0  0  0  0  0  0  0  0  0
  145.9068  136.9776  154.2721 H   0  0  0  0  0  0  0  0  0  0  0  0
  150.7566  132.7687  154.7232 H   0  0  0  0  0  0  0  0  0  0  0  0
  150.1849  135.5957  156.6842 H   0  0  0  0  0  0  0  0  0  0  0  0
  151.5232  134.8941  155.8053 H   0  0  0  0  0  0  0  0  0  0  0  0
  149.8963  137.1939  154.6179 H   0  0  0  0  0  0  0  0  0  0  0  0
  151.1805  136.3465  153.1427 H   0  0  0  0  0  0  0  0  0  0  0  0
  152.3790  137.4168  156.4036 H   0  0  0  0  0  0  0  0  0  0  0  0
  152.7409  139.1576  154.7346 H   0  0  0  0  0  0  0  0  0  0  0  0
  151.0060  139.4819  154.6232 H   0  0  0  0  0  0  0  0  0  0  0  0
  152.8109  139.9768  157.0125 H   0  0  0  0  0  0  0  0  0  0  0  0
  151.7222  141.1392  156.2451 H   0  0  0  0  0  0  0  0  0  0  0  0
  150.9413  139.6328  158.4292 H   0  0  0  0  0  0  0  0  0  0  0  0
  149.7915  140.0562  157.1589 H   0  0  0  0  0  0  0  0  0  0  0  0
  145.4677  131.1296  153.7302 H   0  0  0  0  0  0  0  0  0  0  0  0
  147.2049  131.3871  153.5390 H   0  0  0  0  0  0  0  0  0  0  0  0
  1  2  1  0  0  0  0
  1 30  1  0  0  0  0
  1 31  1  0  0  0  0
  1 32  1  0  0  0  0
  2  3  1  0  0  0  0
  3 28  1  0  0  0  0
  3 27  1  0  0  0  0
  3  4  1  0  0  0  0
  4  5  1  0  0  0  0
  4 33  1  0  0  0  0
  4 34  1  0  0  0  0
  5 29  1  0  0  0  0
  5  6  1  0  0  0  0
  5  9  1  0  0  0  0
  6  7  1  0  0  0  0
  6  8  2  0  0  0  0
  7 35  1  0  0  0  0
  7 36  1  0  0  0  0
  9 10  1  0  0  0  0
  9 27  1  0  0  0  0
 10 15  1  0  0  0  0
 10 11  2  0  0  0  0
 11 12  1  0  0  0  0
 12 13  2  0  0  0  0
 12 37  1  0  0  0  0
 13 14  1  0  0  0  0
 14 18  1  0  0  0  0
 14 15  2  0  0  0  0
 15 16  1  0  0  0  0
 16 17  2  0  0  0  0
 17 18  1  0  0  0  0
 17 38  1  0  0  0  0
 18 19  1  0  0  0  0
 19 20  1  0  0  0  0
 19 39  1  0  0  0  0
 19 40  1  0  0  0  0
 20 21  1  0  0  0  0
 20 22  1  0  0  0  0
 20 41  1  0  0  0  0
 21 42  1  0  0  0  0
 22 26  1  0  0  0  0
 22 23  1  0  0  0  0
 22 43  1  0  0  0  0
 23 24  1  0  0  0  0
 23 44  1  0  0  0  0
 23 45  1  0  0  0  0
 24 25  1  0  0  0  0
 24 46  1  0  0  0  0
 24 47  1  0  0  0  0
 25 26  1  0  0  0  0
 25 48  1  0  0  0  0
 25 49  1  0  0  0  0
 27 50  1  0  0  0  0
 27 51  1  0  0  0  0
M  END
> <s_m_source_file>
AV-unprocessed.smi

> <i_m_source_file_index>
261

> <i_lp_mmshare_version>
43012

> <i_f3d_flags>
0

> <s_epik_input>
W0NIM11PW0NASF0xW0NIMl1bQ0BASF0oQyg9TylbTkgyXSlOKFtDSDJdMSljKG5bY0hdbjIpYyhjMjMpbltjSF1uM1tDSDJdW0NASF0oW09IXSlbQ0BASF00W0NIMl1bQ0gyXVtDSDJdTzQ=

> <s_epik_cmdline>
J2VwaWtfcHl0aG9uJywgJy1waCcsICc3LjAnLCAnLXRuJywgJzgnLCAnLW1hJywgJzIwMCcsICctbWV0YWxfYmluZGluZycsICctaW1hZScsICc8aW5maWxlLm1hZT4nLCAnLW9tYWUnLCAnPG91dGZpbGUubWFlPic=

> <r_lp_tautomer_probability>
1

> <r_epik_Ionization_Penalty>
0.000713824

> <r_epik_Ionization_Penalty_Charging>
0

> <r_epik_Ionization_Penalty_Neutral>
0.000713824

> <r_epik_State_Penalty>
0.000402132

> <r_epik_Charging_Adjusted_Penalty>
0.000402132

> <i_epik_Tot_Q>
0

> <i_epik_Tot_abs_Q>
0

> <r_epik_Metal_State_Penalty>
-0

> <b_epik_Metal_Only>
0

> <s_lp_Force_Field>
OPLS_2005

> <r_lp_Energy>
46.441

> <b_lp_Chiralities_Consistent>
1

> <s_lp_Variant>
AV-unprocessed.smi:261-9

> <Gold.Version>
5.8.1

> <Gold.Id.Protein>
6NUR|6NUR_protein|mol2

> <Gold.PLP.Fitness>
44.4941

> <Gold.PLP.PLP>
-37.4897

> <Gold.PLP.part.hbond>
-3.0000

> <Gold.PLP.part.metal>
0.0000

> <Gold.PLP.part.buried>
-6.0489

> <Gold.PLP.part.nonpolar>
-29.0295

> <Gold.PLP.part.repulsive>
0.8913

> <Gold.PLP.ligand.clash>
0.1614

> <Gold.PLP.ligand.torsion>
1.0462

> <Gold.PLP.Chemscore.Hbond>
2.9440

> <Gold.PLP.Chemscore.CHOScore>
0.0000

> <Gold.PLP.Chemscore.Metal>
0.0000

> <Gold.Chemscore.Hbonds>
donor molecule, donor type, donor heavy atom, donor atom, acceptor molecule, acceptor atom, score
      L1  H     7    35       P1 10186  1.00
      L1  H    21    42       P1  7949  0.93
      P1  H 10752 10765       L1    21  1.00

> <Gold.PLP.Chemscore.Internal.Correction>
0.4262

> <Gold.Rescore>
     Score         DG    S(hbond)    S(metal)    S(lipo)     H(rot)  DE(clash)    DE(int)     intcor
     10.20     -14.28       2.46        0.00      74.54       3.18       0.64       3.43       ----

> <Gold.Chemscore.Fitness>
10.2026

> <Gold.Chemscore.DG>
-14.2789

> <Gold.Chemscore.ZeroCoef>
-5.4800

> <Gold.Chemscore.Hbond>
2.4629

> <Gold.Chemscore.Metal>
0.0000

> <Gold.Chemscore.Lipo>
74.5438

> <Gold.Chemscore.Internal_Hbond>
0.0000

> <Gold.Chemscore.DEClash>
0.6429

> <Gold.Chemscore.DEInternal>
3.4334

> <Gold.Chemscore.Rot>
3.1831

> <Gold.Chemscore.Internal.Correction>
   9.000000E+99

> <Gold.Chemscore.Hbonds>
donor molecule, donor type, donor heavy atom, donor atom, acceptor molecule, acceptor atom, score
      L1  H     7    35       P1 10186  0.97
      L1  H    21    42       P1  7949  0.45
      P1  H 10752 10765       L1    21  0.80

> <Gold.Chemscore.Hbond.Weighted>
-8.2259

> <Gold.Chemscore.Metal.Weighted>
-0.0000

> <Gold.Chemscore.Lipo.Weighted>
-8.7216

> <Gold.Chemscore.Internal_Hbond.Weighted>
0.0000

> <Gold.Chemscore.DEClash.Weighted>
0.6429

> <Gold.Chemscore.DEInternal.Weighted>
3.4334

> <Gold.Chemscore.Rot.Weighted>
8.1486

> <Gold.Chemscore.Internal.Correction.Weighted>
   9.000000E+99

> <Gold.Protein.RotatedTorsions>
[ 6907 6896 6895 6894 ] final  -56.27 input  -60.11 | X-H torsion
[ 7974 7965 7964 7962 ] final   26.22 input  175.53 | X-H torsion
[ 8008 7997 7996 7995 ] final   63.78 input   59.86 | X-H torsion
[ 10167 10162 10161 10158 ] final  129.29 input  -65.29 | X-H torsion
[ 10718 10713 10712 10709 ] final  -36.79 input   66.30 | X-H torsion
[ 10763 10752 10751 10750 ] final  156.22 input  -60.55 | X-H torsion
[ 11005 11000 10999 10996 ] final  154.15 input  -57.11 | X-H torsion

> <Gold.Protein.ActiveResidues>
 VAL166  LYS551  ARG553  GLY616  TRP617  ASP618  TYR619  PRO620  LYS621  CYS622 
 ASP623  PHE694  ASN695  SER759  ASP760  ASP761  ALA762  ILE779  LEU786  VAL792 
 PHE793  MET794  SER795  GLU796  ALA797  LYS798  CYS799  TRP800  GLU811  SER814 

> <Gold.Protein.RotatedAtoms>
  150.8182  134.7375  159.6748 H   0  0  0  0  0  0  0  0  0  0  0  0  # atno 6907 bound_to 6896
  152.4299  134.5794  159.9953 H   0  0  0  0  0  0  0  0  0  0  0  0  # atno 6908 bound_to 6896
  151.5985  133.3321  159.3078 H   0  0  0  0  0  0  0  0  0  0  0  0  # atno 6909 bound_to 6896
  146.1849  139.7358  142.8874 H   0  0  0  0  0  0  0  0  0  0  0  0  # atno 7974 bound_to 7965
  155.6357  140.3496  155.4697 H   0  0  0  0  0  0  0  0  0  0  0  0  # atno 8008 bound_to 7997
  155.9967  140.1205  157.0610 H   0  0  0  0  0  0  0  0  0  0  0  0  # atno 8009 bound_to 7997
  154.4236  140.1108  156.5626 H   0  0  0  0  0  0  0  0  0  0  0  0  # atno 8010 bound_to 7997
  139.5485  144.6793  151.4398 H   0  0  0  0  0  0  0  0  0  0  0  0  # atno 10167 bound_to 10162
  156.3227  130.4268  149.7945 H   0  0  0  0  0  0  0  0  0  0  0  0  # atno 10718 bound_to 10713
  154.1809  135.2799  155.3052 H   0  0  0  0  0  0  0  0  0  0  0  0  # atno 10763 bound_to 10752
  154.6003  135.5531  153.7371 H   0  0  0  0  0  0  0  0  0  0  0  0  # atno 10764 bound_to 10752
  153.0138  135.6390  154.1948 H   0  0  0  0  0  0  0  0  0  0  0  0  # atno 10765 bound_to 10752
  140.1463  134.8705  157.2396 H   0  0  0  0  0  0  0  0  0  0  0  0  # atno 11005 bound_to 11000
  145.3969  141.0380  143.3092 LP  0  0  0  0  0  0  0  0  0  0  0  0  # atno 17320 bound_to 7965
  144.8379  139.5520  143.6914 LP  0  0  0  0  0  0  0  0  0  0  0  0  # atno 17321 bound_to 7965
  140.6740  143.8230  150.7035 LP  0  0  0  0  0  0  0  0  0  0  0  0  # atno 17342 bound_to 10162
  140.1663  143.4232  152.2032 LP  0  0  0  0  0  0  0  0  0  0  0  0  # atno 17343 bound_to 10162
  156.5247  130.8231  151.3216 LP  0  0  0  0  0  0  0  0  0  0  0  0  # atno 17370 bound_to 10713
  157.7415  130.9871  150.2450 LP  0  0  0  0  0  0  0  0  0  0  0  0  # atno 17371 bound_to 10713
  140.2660  134.3516  155.7390 LP  0  0  0  0  0  0  0  0  0  0  0  0  # atno 17394 bound_to 11000
  141.2193  133.7396  156.9151 LP  0  0  0  0  0  0  0  0  0  0  0  0  # atno 17395 bound_to 11000

$$$$
