AV-unprocessed.smi:129|AV-procd|sdf|1157|dock9
  -GOLD-   2262018293D 1   1.00000     0.00000
 Structure written by MMmdl.
 58 61  0  0  0  0  0  0  0  0  1 V2000
  153.2317  143.8110  163.3108 C   0  0  0  0  0  0  0  0  0  0  0  0
  153.1369  142.9356  162.1966 O   0  0  0  0  0  0  0  0  0  0  0  0
  152.7562  143.4629  160.9784 C   0  0  0  0  0  0  0  0  0  0  0  0
  152.3493  144.8107  160.8035 C   0  0  0  0  0  0  0  0  0  0  0  0
  151.9778  145.2883  159.5333 C   0  0  0  0  0  0  0  0  0  0  0  0
  152.0148  144.4309  158.4208 C   0  0  0  0  0  0  0  0  0  0  0  0
  152.4162  143.0926  158.5791 C   0  0  0  0  0  0  0  0  0  0  0  0
  152.7730  142.5979  159.8573 C   0  0  0  0  0  0  0  0  0  0  0  0
  153.2020  141.2574  160.0672 N   0  0  0  0  0  0  0  0  0  0  0  0
  152.9520  140.1668  159.3174 C   0  0  0  0  0  0  0  0  0  0  0  0
  152.3327  140.1709  158.2534 O   0  0  0  0  0  0  0  0  0  0  0  0
  153.5378  138.8869  159.8439 C   0  0  0  0  0  0  0  0  0  0  0  0
  153.3771  137.6880  159.1155 C   0  0  0  0  0  0  0  0  0  0  0  0
  153.8931  136.4757  159.6111 C   0  0  0  0  0  0  0  0  0  0  0  0
  154.5791  136.4378  160.8417 C   0  0  0  0  0  0  0  0  0  0  0  0
  155.0440  135.1700  161.2853 N   0  0  0  0  0  0  0  0  0  0  0  0
  155.0465  133.9934  160.6330 C   0  0  0  0  0  0  0  0  0  0  0  0
  154.5818  133.8182  159.5058 O   0  0  0  0  0  0  0  0  0  0  0  0
  155.6614  132.8219  161.4159 C   0  0  0  0  0  0  0  0  0  0  0  0
  154.6584  131.8976  161.9889 N   0  0  0  0  0  0  0  0  0  0  0  0
  153.8369  131.1531  161.1064 C   0  0  0  0  0  0  0  0  0  0  0  0
  153.9428  131.2689  159.8846 O   0  0  0  0  0  0  0  0  0  0  0  0
  152.8804  130.2553  161.7433 C   0  0  0  0  0  0  0  0  0  0  0  0
  152.0486  129.5224  160.9838 F   0  0  0  0  0  0  0  0  0  0  0  0
  152.8143  130.1485  163.0864 C   0  0  0  0  0  0  0  0  0  0  0  0
  153.6370  130.8665  163.9362 N   0  0  0  0  0  0  0  0  0  0  0  0
  153.5568  130.7290  165.4423 C   0  0  2  0  0  0  0  0  0  0  0  0
  154.8944  130.2191  166.0126 C   0  0  0  0  0  0  0  0  0  0  0  0
  154.4705  129.0322  166.8551 C   0  0  0  0  0  0  0  0  0  0  0  0
  153.2175  128.5624  166.1320 C   0  0  0  0  0  0  0  0  0  0  0  0
  152.5816  129.7848  165.7832 O   0  0  0  0  0  0  0  0  0  0  0  0
  154.5793  131.7685  163.3961 C   0  0  0  0  0  0  0  0  0  0  0  0
  155.3189  132.4209  164.1362 O   0  0  0  0  0  0  0  0  0  0  0  0
  154.7234  137.6334  161.5856 C   0  0  0  0  0  0  0  0  0  0  0  0
  154.2074  138.8464  161.0887 C   0  0  0  0  0  0  0  0  0  0  0  0
  153.5432  143.2436  164.1875 H   0  0  0  0  0  0  0  0  0  0  0  0
  152.2692  144.2699  163.5404 H   0  0  0  0  0  0  0  0  0  0  0  0
  153.9749  144.5917  163.1432 H   0  0  0  0  0  0  0  0  0  0  0  0
  152.3145  145.5033  161.6305 H   0  0  0  0  0  0  0  0  0  0  0  0
  151.6711  146.3167  159.4116 H   0  0  0  0  0  0  0  0  0  0  0  0
  151.7410  144.8006  157.4436 H   0  0  0  0  0  0  0  0  0  0  0  0
  152.4567  142.4659  157.7016 H   0  0  0  0  0  0  0  0  0  0  0  0
  153.6712  141.0883  160.9452 H   0  0  0  0  0  0  0  0  0  0  0  0
  152.8553  137.6888  158.1692 H   0  0  0  0  0  0  0  0  0  0  0  0
  153.7581  135.5701  159.0378 H   0  0  0  0  0  0  0  0  0  0  0  0
  155.3709  135.1421  162.2402 H   0  0  0  0  0  0  0  0  0  0  0  0
  156.3472  132.2877  160.7563 H   0  0  0  0  0  0  0  0  0  0  0  0
  156.3090  133.2286  162.1942 H   0  0  0  0  0  0  0  0  0  0  0  0
  152.0815  129.4685  163.4925 H   0  0  0  0  0  0  0  0  0  0  0  0
  153.2574  131.7110  165.8129 H   0  0  0  0  0  0  0  0  0  0  0  0
  155.5528  129.8969  165.2041 H   0  0  0  0  0  0  0  0  0  0  0  0
  155.3954  130.9973  166.5889 H   0  0  0  0  0  0  0  0  0  0  0  0
  155.2382  128.2613  166.9243 H   0  0  0  0  0  0  0  0  0  0  0  0
  154.2184  129.3583  167.8649 H   0  0  0  0  0  0  0  0  0  0  0  0
  153.4756  128.0001  165.2337 H   0  0  0  0  0  0  0  0  0  0  0  0
  152.5768  127.9396  166.7564 H   0  0  0  0  0  0  0  0  0  0  0  0
  155.2074  137.6433  162.5498 H   0  0  0  0  0  0  0  0  0  0  0  0
  154.3212  139.7413  161.6835 H   0  0  0  0  0  0  0  0  0  0  0  0
  1  2  1  0  0  0  0
  1 36  1  0  0  0  0
  1 37  1  0  0  0  0
  1 38  1  0  0  0  0
  2  3  1  0  0  0  0
  3  8  1  0  0  0  0
  3  4  2  0  0  0  0
  4  5  1  0  0  0  0
  4 39  1  0  0  0  0
  5  6  2  0  0  0  0
  5 40  1  0  0  0  0
  6  7  1  0  0  0  0
  6 41  1  0  0  0  0
  7  8  2  0  0  0  0
  7 42  1  0  0  0  0
  8  9  1  0  0  0  0
  9 10  1  0  0  0  0
  9 43  1  0  0  0  0
 10 11  2  0  0  0  0
 10 12  1  0  0  0  0
 12 35  1  0  0  0  0
 12 13  2  0  0  0  0
 13 14  1  0  0  0  0
 13 44  1  0  0  0  0
 14 15  2  0  0  0  0
 14 45  1  0  0  0  0
 15 16  1  0  0  0  0
 15 34  1  0  0  0  0
 16 17  1  0  0  0  0
 16 46  1  0  0  0  0
 17 18  2  0  0  0  0
 17 19  1  0  0  0  0
 19 20  1  0  0  0  0
 19 47  1  0  0  0  0
 19 48  1  0  0  0  0
 20 32  1  0  0  0  0
 20 21  1  0  0  0  0
 21 22  2  0  0  0  0
 21 23  1  0  0  0  0
 23 24  1  0  0  0  0
 23 25  2  0  0  0  0
 25 26  1  0  0  0  0
 25 49  1  0  0  0  0
 26 27  1  0  0  0  0
 26 32  1  0  0  0  0
 27 31  1  0  0  0  0
 27 28  1  0  0  0  0
 27 50  1  0  0  0  0
 28 29  1  0  0  0  0
 28 51  1  0  0  0  0
 28 52  1  0  0  0  0
 29 30  1  0  0  0  0
 29 53  1  0  0  0  0
 29 54  1  0  0  0  0
 30 31  1  0  0  0  0
 30 55  1  0  0  0  0
 30 56  1  0  0  0  0
 32 33  2  0  0  0  0
 34 35  2  0  0  0  0
 34 57  1  0  0  0  0
 35 58  1  0  0  0  0
M  END
> <s_m_source_file>
AV-unprocessed.smi

> <i_m_source_file_index>
129

> <i_lp_mmshare_version>
43012

> <i_f3d_flags>
0

> <s_epik_input>
W0NIM11PYzFbY0hdW2NIXVtjSF1bY0hdYzFbTkhdQyg9TyljMltjSF1bY0hdYyhbY0hdW2NIXTIpW05IXUMoPU8pW0NIMl1uM2MoPU8pYyhGKVtjSF1uKGMzPU8pW0NAQEhdNFtDSDJdW0NIMl1bQ0gyXU80

> <s_epik_cmdline>
J2VwaWtfcHl0aG9uJywgJy1waCcsICc3LjAnLCAnLXRuJywgJzgnLCAnLW1hJywgJzIwMCcsICctbWV0YWxfYmluZGluZycsICctaW1hZScsICc8aW5maWxlLm1hZT4nLCAnLW9tYWUnLCAnPG91dGZpbGUubWFlPic=

> <r_lp_tautomer_probability>
1

> <r_epik_Ionization_Penalty>
2.57954e-06

> <r_epik_Ionization_Penalty_Charging>
3.88729e-08

> <r_epik_Ionization_Penalty_Neutral>
2.54066e-06

> <r_epik_State_Penalty>
-0

> <r_epik_Charging_Adjusted_Penalty>
3.88729e-08

> <i_epik_Tot_Q>
0

> <i_epik_Tot_abs_Q>
0

> <r_epik_Metal_State_Penalty>
-0

> <b_epik_Metal_Only>
0

> <s_epik_Chemistry_Notes>
This compound contains an acetal/aminal-like group ( X-CH(R)-Y where X, Y are N, S, or O) that may be acid/base labile, releasing an aldehyde.

> <s_lp_Force_Field>
OPLS_2005

> <r_lp_Energy>
50.6218

> <b_lp_Chiralities_Consistent>
1

> <s_lp_Variant>
AV-unprocessed.smi:129-1

> <Gold.Version>
5.8.1

> <Gold.Id.Protein>
6NUR|6NUR_protein|mol2

> <Gold.PLP.Fitness>
56.4939

> <Gold.PLP.PLP>
-54.2741

> <Gold.PLP.part.hbond>
-1.0000

> <Gold.PLP.part.metal>
0.0000

> <Gold.PLP.part.buried>
-6.5127

> <Gold.PLP.part.nonpolar>
-48.0070

> <Gold.PLP.part.repulsive>
0.3413

> <Gold.PLP.ligand.clash>
0.0965

> <Gold.PLP.ligand.torsion>
0.3844

> <Gold.PLP.Chemscore.Hbond>
1.0000

> <Gold.PLP.Chemscore.CHOScore>
0.0000

> <Gold.PLP.Chemscore.Metal>
0.0000

> <Gold.Chemscore.Hbonds>
donor molecule, donor type, donor heavy atom, donor atom, acceptor molecule, acceptor atom, score
      P1  H  6896  6908       L1    18  1.00

> <Gold.PLP.Chemscore.Internal.Correction>
0.0851

> <Gold.Rescore>
     Score         DG    S(hbond)    S(metal)    S(lipo)     H(rot)  DE(clash)    DE(int)     intcor
     13.79     -19.90       0.70        0.00     145.84       1.94       0.44       5.68       ----

> <Gold.Chemscore.Fitness>
13.7871

> <Gold.Chemscore.DG>
-19.9034

> <Gold.Chemscore.ZeroCoef>
-5.4800

> <Gold.Chemscore.Hbond>
0.6990

> <Gold.Chemscore.Metal>
0.0000

> <Gold.Chemscore.Lipo>
145.8365

> <Gold.Chemscore.Internal_Hbond>
0.0000

> <Gold.Chemscore.DEClash>
0.4390

> <Gold.Chemscore.DEInternal>
5.6774

> <Gold.Chemscore.Rot>
1.9430

> <Gold.Chemscore.Internal.Correction>
   9.000000E+99

> <Gold.Chemscore.Hbonds>
donor molecule, donor type, donor heavy atom, donor atom, acceptor molecule, acceptor atom, score
      P1  H  6896  6908       L1    18  0.28

> <Gold.Chemscore.Hbond.Weighted>
-2.3347

> <Gold.Chemscore.Metal.Weighted>
-0.0000

> <Gold.Chemscore.Lipo.Weighted>
-17.0629

> <Gold.Chemscore.Internal_Hbond.Weighted>
0.0000

> <Gold.Chemscore.DEClash.Weighted>
0.4390

> <Gold.Chemscore.DEInternal.Weighted>
5.6774

> <Gold.Chemscore.Rot.Weighted>
4.9741

> <Gold.Chemscore.Internal.Correction.Weighted>
   9.000000E+99

> <Gold.Protein.RotatedTorsions>
[ 6907 6896 6895 6894 ] final  -28.77 input  -60.11 | X-H torsion
[ 7974 7965 7964 7962 ] final -131.66 input  175.53 | X-H torsion
[ 8008 7997 7996 7995 ] final -148.87 input   59.86 | X-H torsion
[ 10167 10162 10161 10158 ] final    5.62 input  -65.29 | X-H torsion
[ 10718 10713 10712 10709 ] final   74.96 input   66.30 | X-H torsion
[ 10763 10752 10751 10750 ] final  -83.18 input  -60.55 | X-H torsion
[ 11005 11000 10999 10996 ] final  -46.49 input  -57.11 | X-H torsion

> <Gold.Protein.ActiveResidues>
 VAL166  LYS551  ARG553  GLY616  TRP617  ASP618  TYR619  PRO620  LYS621  CYS622 
 ASP623  PHE694  ASN695  SER759  ASP760  ASP761  ALA762  ILE779  LEU786  VAL792 
 PHE793  MET794  SER795  GLU796  ALA797  LYS798  CYS799  TRP800  GLU811  SER814 

> <Gold.Protein.RotatedAtoms>
  151.1284  135.0117  159.8570 H   0  0  0  0  0  0  0  0  0  0  0  0  # atno 6907 bound_to 6896
  152.5450  134.1639  159.8579 H   0  0  0  0  0  0  0  0  0  0  0  0  # atno 6908 bound_to 6896
  151.1704  133.4743  159.2627 H   0  0  0  0  0  0  0  0  0  0  0  0  # atno 6909 bound_to 6896
  144.9358  140.7182  143.4877 H   0  0  0  0  0  0  0  0  0  0  0  0  # atno 7974 bound_to 7965
  155.5986  140.0660  157.2739 H   0  0  0  0  0  0  0  0  0  0  0  0  # atno 8008 bound_to 7997
  154.4285  140.1822  156.1196 H   0  0  0  0  0  0  0  0  0  0  0  0  # atno 8009 bound_to 7997
  156.0177  140.3320  155.7010 H   0  0  0  0  0  0  0  0  0  0  0  0  # atno 8010 bound_to 7997
  140.6472  143.7632  150.7518 H   0  0  0  0  0  0  0  0  0  0  0  0  # atno 10167 bound_to 10162
  157.6614  130.9703  150.1285 H   0  0  0  0  0  0  0  0  0  0  0  0  # atno 10718 bound_to 10713
  154.5847  135.5565  153.7219 H   0  0  0  0  0  0  0  0  0  0  0  0  # atno 10763 bound_to 10752
  153.0094  135.6328  154.1934 H   0  0  0  0  0  0  0  0  0  0  0  0  # atno 10764 bound_to 10752
  154.1875  135.2884  155.3012 H   0  0  0  0  0  0  0  0  0  0  0  0  # atno 10765 bound_to 10752
  141.0582  133.6718  156.3162 H   0  0  0  0  0  0  0  0  0  0  0  0  # atno 11005 bound_to 11000
  145.3069  139.1831  143.4660 LP  0  0  0  0  0  0  0  0  0  0  0  0  # atno 17320 bound_to 7965
  146.3266  140.3068  142.8624 LP  0  0  0  0  0  0  0  0  0  0  0  0  # atno 17321 bound_to 7965
  140.1276  143.4555  152.2274 LP  0  0  0  0  0  0  0  0  0  0  0  0  # atno 17342 bound_to 10162
  139.5684  144.7448  151.3959 LP  0  0  0  0  0  0  0  0  0  0  0  0  # atno 17343 bound_to 10162
  156.2138  130.3668  149.8638 LP  0  0  0  0  0  0  0  0  0  0  0  0  # atno 17370 bound_to 10713
  156.6509  130.8743  151.3531 LP  0  0  0  0  0  0  0  0  0  0  0  0  # atno 17371 bound_to 10713
  140.5922  134.5639  157.5502 LP  0  0  0  0  0  0  0  0  0  0  0  0  # atno 17394 bound_to 11000
  139.9408  134.7790  156.0682 LP  0  0  0  0  0  0  0  0  0  0  0  0  # atno 17395 bound_to 11000

$$$$
