AV-unprocessed.smi:1075|AV-procd|sdf|4696|dock9
  -GOLD-   22720 3213D 1   1.00000     0.00000
 Structure written by MMmdl.
 50 51  0  0  0  0  0  0  0  0  1 V2000
  146.5899  142.3532  157.2078 C   0  0  0  0  0  0  0  0  0  0  0  0
  146.5952  142.3834  155.7060 C   0  0  0  0  0  0  0  0  0  0  0  0
  146.0354  143.4040  155.0795 N   0  0  0  0  0  0  0  0  0  0  0  0
  146.2108  143.1416  153.7700 N   0  0  0  0  0  0  0  0  0  0  0  0
  145.7074  144.0817  152.7870 C   0  0  0  0  0  0  0  0  0  0  0  0
  146.8869  141.9535  153.5670 C   0  0  0  0  0  0  0  0  0  0  0  0
  147.2102  141.4519  152.1943 C   0  0  0  0  0  0  0  0  0  0  0  0
  147.1490  141.4245  154.8064 C   0  0  0  0  0  0  0  0  0  0  0  0
  147.8673  140.1440  155.1837 C   0  0  1  0  0  0  0  0  0  0  0  0
  147.6407  139.0260  154.1483 C   0  0  0  0  0  0  0  0  0  0  0  0
  149.3525  140.4478  155.4369 C   0  0  0  0  0  0  0  0  0  0  0  0
  150.0676  140.8859  154.5352 O   0  0  0  0  0  0  0  0  0  0  0  0
  149.7884  140.2124  156.6883 N   0  0  0  0  0  0  0  0  0  0  0  0
  151.1130  140.4691  157.2659 C   0  0  1  0  0  0  0  0  0  0  0  0
  152.2023  139.7925  156.4006 C   0  0  0  0  0  0  0  0  0  0  0  0
  151.3404  142.0011  157.3872 C   0  0  0  0  0  0  0  0  0  0  0  0
  152.5402  142.3773  158.2740 C   0  0  0  0  0  0  0  0  0  0  0  0
  152.4320  141.7553  159.6758 C   0  0  2  0  0  0  0  0  0  0  0  0
  153.6282  142.1400  160.5579 C   0  0  0  0  0  0  0  0  0  0  0  0
  152.2823  140.2295  159.5629 C   0  0  0  0  0  0  0  0  0  0  0  0
  151.0812  139.8422  158.6828 C   0  0  0  0  0  0  0  0  0  0  0  0
  147.5913  142.1682  157.5974 H   0  0  0  0  0  0  0  0  0  0  0  0
  145.9368  141.5629  157.5782 H   0  0  0  0  0  0  0  0  0  0  0  0
  146.2424  143.2965  157.6310 H   0  0  0  0  0  0  0  0  0  0  0  0
  146.5438  144.5793  152.2957 H   0  0  0  0  0  0  0  0  0  0  0  0
  145.0766  144.8354  153.2609 H   0  0  0  0  0  0  0  0  0  0  0  0
  145.1180  143.5518  152.0386 H   0  0  0  0  0  0  0  0  0  0  0  0
  148.0911  140.8116  152.2036 H   0  0  0  0  0  0  0  0  0  0  0  0
  147.4163  142.2732  151.5079 H   0  0  0  0  0  0  0  0  0  0  0  0
  146.3784  140.8742  151.7909 H   0  0  0  0  0  0  0  0  0  0  0  0
  147.4763  139.7670  156.1293 H   0  0  0  0  0  0  0  0  0  0  0  0
  148.0166  139.2956  153.1615 H   0  0  0  0  0  0  0  0  0  0  0  0
  146.5780  138.8046  154.0458 H   0  0  0  0  0  0  0  0  0  0  0  0
  148.1367  138.1026  154.4491 H   0  0  0  0  0  0  0  0  0  0  0  0
  149.1030  139.8477  157.3341 H   0  0  0  0  0  0  0  0  0  0  0  0
  153.1926  139.8873  156.8441 H   0  0  0  0  0  0  0  0  0  0  0  0
  152.2637  140.2314  155.4049 H   0  0  0  0  0  0  0  0  0  0  0  0
  152.0036  138.7274  156.2777 H   0  0  0  0  0  0  0  0  0  0  0  0
  151.4744  142.4501  156.4028 H   0  0  0  0  0  0  0  0  0  0  0  0
  150.4468  142.4656  157.8083 H   0  0  0  0  0  0  0  0  0  0  0  0
  153.4672  142.0589  157.7960 H   0  0  0  0  0  0  0  0  0  0  0  0
  152.6001  143.4631  158.3558 H   0  0  0  0  0  0  0  0  0  0  0  0
  151.5322  142.1487  160.1514 H   0  0  0  0  0  0  0  0  0  0  0  0
  154.5657  141.7741  160.1377 H   0  0  0  0  0  0  0  0  0  0  0  0
  153.5270  141.7227  161.5600 H   0  0  0  0  0  0  0  0  0  0  0  0
  153.7089  143.2225  160.6590 H   0  0  0  0  0  0  0  0  0  0  0  0
  153.1971  139.7940  159.1599 H   0  0  0  0  0  0  0  0  0  0  0  0
  152.1546  139.7966  160.5557 H   0  0  0  0  0  0  0  0  0  0  0  0
  150.1734  140.1618  159.1980 H   0  0  0  0  0  0  0  0  0  0  0  0
  151.0152  138.7555  158.6128 H   0  0  0  0  0  0  0  0  0  0  0  0
  1  2  1  0  0  0  0
  1 22  1  0  0  0  0
  1 23  1  0  0  0  0
  1 24  1  0  0  0  0
  2  8  1  0  0  0  0
  2  3  2  0  0  0  0
  3  4  1  0  0  0  0
  4  5  1  0  0  0  0
  4  6  1  0  0  0  0
  5 25  1  0  0  0  0
  5 26  1  0  0  0  0
  5 27  1  0  0  0  0
  6  7  1  0  0  0  0
  6  8  2  0  0  0  0
  7 28  1  0  0  0  0
  7 29  1  0  0  0  0
  7 30  1  0  0  0  0
  8  9  1  0  0  0  0
  9 10  1  0  0  0  0
  9 11  1  0  0  0  0
  9 31  1  0  0  0  0
 10 32  1  0  0  0  0
 10 33  1  0  0  0  0
 10 34  1  0  0  0  0
 11 12  2  0  0  0  0
 11 13  1  0  0  0  0
 13 14  1  0  0  0  0
 13 35  1  0  0  0  0
 14 21  1  0  0  0  0
 14 15  1  0  0  0  0
 14 16  1  0  0  0  0
 15 36  1  0  0  0  0
 15 37  1  0  0  0  0
 15 38  1  0  0  0  0
 16 17  1  0  0  0  0
 16 39  1  0  0  0  0
 16 40  1  0  0  0  0
 17 18  1  0  0  0  0
 17 41  1  0  0  0  0
 17 42  1  0  0  0  0
 18 19  1  0  0  0  0
 18 20  1  0  0  0  0
 18 43  1  0  0  0  0
 19 44  1  0  0  0  0
 19 45  1  0  0  0  0
 19 46  1  0  0  0  0
 20 21  1  0  0  0  0
 20 47  1  0  0  0  0
 20 48  1  0  0  0  0
 21 49  1  0  0  0  0
 21 50  1  0  0  0  0
M  END
> <s_m_source_file>
AV-unprocessed.smi

> <i_m_source_file_index>
1075

> <i_lp_mmshare_version>
43012

> <i_f3d_flags>
0

> <s_epik_input>
W0NIM11jMW5uKFtDSDNdKWMoW0NIM10pYzFbQ0BIXShbQ0gzXSlDKD1PKVtOSF1bQ0BAXTIoW0NIM10pW0NIMl1bQ0gyXVtDQEBIXShbQ0gzXSlbQ0gyXVtDSDJdMg==

> <s_epik_cmdline>
J2VwaWtfcHl0aG9uJywgJy1waCcsICc3LjAnLCAnLXRuJywgJzgnLCAnLW1hJywgJzIwMCcsICctbWV0YWxfYmluZGluZycsICctaW1hZScsICc8aW5maWxlLm1hZT4nLCAnLW9tYWUnLCAnPG91dGZpbGUubWFlPic=

> <r_lp_tautomer_probability>
1

> <r_epik_Ionization_Penalty>
0.00502928

> <r_epik_Ionization_Penalty_Charging>
0

> <r_epik_Ionization_Penalty_Neutral>
0.00502928

> <r_epik_State_Penalty>
0.0036576

> <r_epik_Charging_Adjusted_Penalty>
0.0036576

> <i_epik_Tot_Q>
0

> <i_epik_Tot_abs_Q>
0

> <r_epik_Metal_State_Penalty>
-0

> <b_epik_Metal_Only>
0

> <s_lp_Force_Field>
OPLS_2005

> <r_lp_Energy>
7.42101

> <b_lp_Chiralities_Consistent>
1

> <s_lp_Variant>
AV-unprocessed.smi:1075-4

> <Gold.Version>
5.8.1

> <Gold.Id.Protein>
6NUR|6NUR_protein|mol2

> <Gold.PLP.Fitness>
32.5382

> <Gold.PLP.PLP>
-32.2825

> <Gold.PLP.part.hbond>
-1.0000

> <Gold.PLP.part.metal>
0.0000

> <Gold.PLP.part.buried>
-5.5032

> <Gold.PLP.part.nonpolar>
-25.8827

> <Gold.PLP.part.repulsive>
0.3288

> <Gold.PLP.ligand.clash>
0.0000

> <Gold.PLP.ligand.torsion>
0.8202

> <Gold.PLP.Chemscore.Hbond>
0.6027

> <Gold.PLP.Chemscore.CHOScore>
0.0000

> <Gold.PLP.Chemscore.Metal>
0.0000

> <Gold.Chemscore.Hbonds>
donor molecule, donor type, donor heavy atom, donor atom, acceptor molecule, acceptor atom, score
      P1  H  7989  7998       L1    12  0.69

> <Gold.PLP.Chemscore.Internal.Correction>
0.0881

> <Gold.Rescore>
     Score         DG    S(hbond)    S(metal)    S(lipo)     H(rot)  DE(clash)    DE(int)     intcor
     12.86     -16.39       0.55        0.00     104.41       1.23       2.78       0.75       ----

> <Gold.Chemscore.Fitness>
12.8616

> <Gold.Chemscore.DG>
-16.3938

> <Gold.Chemscore.ZeroCoef>
-5.4800

> <Gold.Chemscore.Hbond>
0.5544

> <Gold.Chemscore.Metal>
0.0000

> <Gold.Chemscore.Lipo>
104.4124

> <Gold.Chemscore.Internal_Hbond>
0.0000

> <Gold.Chemscore.DEClash>
2.7774

> <Gold.Chemscore.DEInternal>
0.7547

> <Gold.Chemscore.Rot>
1.2321

> <Gold.Chemscore.Internal.Correction>
   9.000000E+99

> <Gold.Chemscore.Hbonds>
donor molecule, donor type, donor heavy atom, donor atom, acceptor molecule, acceptor atom, score
      P1  H  7989  7998       L1    12  0.68

> <Gold.Chemscore.Hbond.Weighted>
-1.8516

> <Gold.Chemscore.Metal.Weighted>
-0.0000

> <Gold.Chemscore.Lipo.Weighted>
-12.2163

> <Gold.Chemscore.Internal_Hbond.Weighted>
0.0000

> <Gold.Chemscore.DEClash.Weighted>
2.7774

> <Gold.Chemscore.DEInternal.Weighted>
0.7547

> <Gold.Chemscore.Rot.Weighted>
3.1541

> <Gold.Chemscore.Internal.Correction.Weighted>
   9.000000E+99

> <Gold.Protein.RotatedTorsions>
[ 6907 6896 6895 6894 ] final  138.79 input  -60.11 | X-H torsion
[ 7974 7965 7964 7962 ] final  151.02 input  175.53 | X-H torsion
[ 8008 7997 7996 7995 ] final  -11.37 input   59.86 | X-H torsion
[ 10167 10162 10161 10158 ] final -173.07 input  -65.29 | X-H torsion
[ 10718 10713 10712 10709 ] final -174.82 input   66.30 | X-H torsion
[ 10763 10752 10751 10750 ] final   93.51 input  -60.55 | X-H torsion
[ 11005 11000 10999 10996 ] final  107.68 input  -57.11 | X-H torsion

> <Gold.Protein.ActiveResidues>
 VAL166  LYS551  ARG553  GLY616  TRP617  ASP618  TYR619  PRO620  LYS621  CYS622 
 ASP623  PHE694  ASN695  SER759  ASP760  ASP761  ALA762  ILE779  LEU786  VAL792 
 PHE793  MET794  SER795  GLU796  ALA797  LYS798  CYS799  TRP800  GLU811  SER814 

> <Gold.Protein.RotatedAtoms>
  152.2625  133.5310  159.5389 H   0  0  0  0  0  0  0  0  0  0  0  0  # atno 6907 bound_to 6896
  150.7130  134.0810  159.3907 H   0  0  0  0  0  0  0  0  0  0  0  0  # atno 6908 bound_to 6896
  151.8727  135.0483  160.0531 H   0  0  0  0  0  0  0  0  0  0  0  0  # atno 6909 bound_to 6896
  144.8322  139.6483  143.6053 H   0  0  0  0  0  0  0  0  0  0  0  0  # atno 7974 bound_to 7965
  154.5471  140.2304  155.8546 H   0  0  0  0  0  0  0  0  0  0  0  0  # atno 8008 bound_to 7997
  156.1912  140.3076  155.9298 H   0  0  0  0  0  0  0  0  0  0  0  0  # atno 8009 bound_to 7997
  155.3144  140.0437  157.3027 H   0  0  0  0  0  0  0  0  0  0  0  0  # atno 8010 bound_to 7997
  139.5708  144.1645  152.1381 H   0  0  0  0  0  0  0  0  0  0  0  0  # atno 10167 bound_to 10162
  156.7908  130.9517  151.3120 H   0  0  0  0  0  0  0  0  0  0  0  0  # atno 10718 bound_to 10713
  153.2311  135.4323  155.0596 H   0  0  0  0  0  0  0  0  0  0  0  0  # atno 10763 bound_to 10752
  154.8297  135.3380  154.6786 H   0  0  0  0  0  0  0  0  0  0  0  0  # atno 10764 bound_to 10752
  153.7213  135.7017  153.5068 H   0  0  0  0  0  0  0  0  0  0  0  0  # atno 10765 bound_to 10752
  139.8832  134.9408  156.5856 H   0  0  0  0  0  0  0  0  0  0  0  0  # atno 11005 bound_to 11000
  146.2624  139.6442  142.9352 LP  0  0  0  0  0  0  0  0  0  0  0  0  # atno 17320 bound_to 7965
  145.4870  141.0438  143.2614 LP  0  0  0  0  0  0  0  0  0  0  0  0  # atno 17321 bound_to 7965
  140.1178  144.5400  150.6883 LP  0  0  0  0  0  0  0  0  0  0  0  0  # atno 17342 bound_to 10162
  140.6993  143.2424  151.4911 LP  0  0  0  0  0  0  0  0  0  0  0  0  # atno 17343 bound_to 10162
  157.6602  130.8959  149.9813 LP  0  0  0  0  0  0  0  0  0  0  0  0  # atno 17370 bound_to 10713
  156.1160  130.3648  149.9967 LP  0  0  0  0  0  0  0  0  0  0  0  0  # atno 17371 bound_to 10713
  140.7994  133.8517  155.8714 LP  0  0  0  0  0  0  0  0  0  0  0  0  # atno 17394 bound_to 11000
  140.9606  134.1660  157.4657 LP  0  0  0  0  0  0  0  0  0  0  0  0  # atno 17395 bound_to 11000

$$$$
