AV-unprocessed.smi:2505|AV-procd|sdf|9856|dock7
  -GOLD-   2272013483D 1   1.00000     0.00000
 Structure written by MMmdl.
 48 52  0  0  0  0  0  0  0  0  1 V2000
  150.3008  136.7255  158.9672 O   0  0  0  0  0  0  0  0  0  0  0  0
  149.5471  137.6663  158.7313 C   0  0  0  0  0  0  0  0  0  0  0  0
  148.3243  137.8320  159.2705 N   0  0  0  0  0  0  0  0  0  0  0  0
  147.6297  137.0172  160.2039 C   0  0  0  0  0  0  0  0  0  0  0  0
  146.2394  136.8459  160.0381 C   0  0  0  0  0  0  0  0  0  0  0  0
  145.5025  136.0965  160.8848 N   0  0  0  0  0  0  0  0  0  0  0  0
  146.1543  135.5099  161.8922 C   0  0  0  0  0  0  0  0  0  0  0  0
  145.3275  134.7123  162.8524 C   0  0  0  0  0  0  0  0  0  0  0  0
  143.8630  134.4389  162.5760 C   0  0  0  0  0  0  0  0  0  0  0  0
  144.2503  135.3774  163.6849 C   0  0  0  0  0  0  0  0  0  0  0  0
  147.4591  135.6079  162.1604 N   0  0  0  0  0  0  0  0  0  0  0  0
  148.2046  136.3563  161.3182 C   0  0  0  0  0  0  0  0  0  0  0  0
  149.8954  138.6376  157.8696 N   0  0  0  0  0  0  0  0  0  0  0  0
  151.1468  138.7552  157.1181 C   0  0  1  0  0  0  0  0  0  0  0  0
  150.9066  139.1799  155.6600 C   0  0  2  0  0  0  0  0  0  0  0  0
  151.2411  138.2326  154.5396 C   0  0  0  0  0  0  0  0  0  0  0  0
  152.6439  138.6814  154.1217 C   0  0  0  0  0  0  0  0  0  0  0  0
  153.1562  139.3656  155.2628 O   0  0  0  0  0  0  0  0  0  0  0  0
  152.0875  140.1242  155.8240 C   0  0  2  0  0  0  0  0  0  0  0  0
  151.9292  140.0700  157.3585 C   0  0  0  0  0  0  0  0  0  0  0  0
  151.2172  141.2709  157.9878 C   0  0  0  0  0  0  0  0  0  0  0  0
  152.3023  142.2919  158.3355 C   0  0  0  0  0  0  0  0  0  0  0  0
  153.5900  141.4790  158.5039 C   0  0  0  0  0  0  0  0  0  0  0  0
  153.2114  140.0287  158.1865 C   0  0  0  0  0  0  0  0  0  0  0  0
  147.8197  138.6481  158.9560 H   0  0  0  0  0  0  0  0  0  0  0  0
  145.7116  137.3161  159.2212 H   0  0  0  0  0  0  0  0  0  0  0  0
  145.9135  133.9218  163.3174 H   0  0  0  0  0  0  0  0  0  0  0  0
  143.4250  134.8756  161.6805 H   0  0  0  0  0  0  0  0  0  0  0  0
  143.4743  133.4621  162.8559 H   0  0  0  0  0  0  0  0  0  0  0  0
  144.1219  135.0294  164.7077 H   0  0  0  0  0  0  0  0  0  0  0  0
  144.0688  136.4388  163.5275 H   0  0  0  0  0  0  0  0  0  0  0  0
  149.2522  136.4162  161.5650 H   0  0  0  0  0  0  0  0  0  0  0  0
  149.2167  139.3690  157.7141 H   0  0  0  0  0  0  0  0  0  0  0  0
  151.7910  137.8748  157.1765 H   0  0  0  0  0  0  0  0  0  0  0  0
  149.9729  139.7301  155.5297 H   0  0  0  0  0  0  0  0  0  0  0  0
  151.2529  137.2011  154.8924 H   0  0  0  0  0  0  0  0  0  0  0  0
  150.5357  138.2949  153.7105 H   0  0  0  0  0  0  0  0  0  0  0  0
  153.2843  137.8483  153.8315 H   0  0  0  0  0  0  0  0  0  0  0  0
  152.5893  139.3789  153.2845 H   0  0  0  0  0  0  0  0  0  0  0  0
  151.9492  141.1000  155.3558 H   0  0  0  0  0  0  0  0  0  0  0  0
  150.4579  141.7002  157.3332 H   0  0  0  0  0  0  0  0  0  0  0  0
  150.7119  140.9769  158.9085 H   0  0  0  0  0  0  0  0  0  0  0  0
  152.4207  143.0056  157.5194 H   0  0  0  0  0  0  0  0  0  0  0  0
  152.0507  142.8573  159.2335 H   0  0  0  0  0  0  0  0  0  0  0  0
  154.3477  141.8361  157.8053 H   0  0  0  0  0  0  0  0  0  0  0  0
  154.0017  141.5701  159.5097 H   0  0  0  0  0  0  0  0  0  0  0  0
  153.0337  139.4933  159.1195 H   0  0  0  0  0  0  0  0  0  0  0  0
  154.0248  139.5077  157.6811 H   0  0  0  0  0  0  0  0  0  0  0  0
  1  2  2  0  0  0  0
  2  3  1  0  0  0  0
  2 13  1  0  0  0  0
  3  4  1  0  0  0  0
  3 25  1  0  0  0  0
  4 12  1  0  0  0  0
  4  5  2  0  0  0  0
  5  6  1  0  0  0  0
  5 26  1  0  0  0  0
  6  7  2  0  0  0  0
  7  8  1  0  0  0  0
  7 11  1  0  0  0  0
  8 10  1  0  0  0  0
  8  9  1  0  0  0  0
  8 27  1  0  0  0  0
  9 10  1  0  0  0  0
  9 28  1  0  0  0  0
  9 29  1  0  0  0  0
 10 30  1  0  0  0  0
 10 31  1  0  0  0  0
 11 12  2  0  0  0  0
 12 32  1  0  0  0  0
 13 14  1  0  0  0  0
 13 33  1  0  0  0  0
 14 20  1  0  0  0  0
 14 15  1  0  0  0  0
 14 34  1  0  0  0  0
 15 19  1  0  0  0  0
 15 16  1  0  0  0  0
 15 35  1  0  0  0  0
 16 17  1  0  0  0  0
 16 36  1  0  0  0  0
 16 37  1  0  0  0  0
 17 18  1  0  0  0  0
 17 38  1  0  0  0  0
 17 39  1  0  0  0  0
 18 19  1  0  0  0  0
 19 20  1  0  0  0  0
 19 40  1  0  0  0  0
 20 24  1  0  0  0  0
 20 21  1  0  0  0  0
 21 22  1  0  0  0  0
 21 41  1  0  0  0  0
 21 42  1  0  0  0  0
 22 23  1  0  0  0  0
 22 43  1  0  0  0  0
 22 44  1  0  0  0  0
 23 24  1  0  0  0  0
 23 45  1  0  0  0  0
 23 46  1  0  0  0  0
 24 47  1  0  0  0  0
 24 48  1  0  0  0  0
M  END
> <s_m_source_file>
AV-unprocessed.smi

> <i_m_source_file_index>
2505

> <i_lp_mmshare_version>
43012

> <i_f3d_flags>
0

> <s_epik_input>
W0NIMl0xW0NIMl1bQ0hdMWMobltjSF0yKW5bY0hdYzJbTkhdQyg9TylbTkhdW0NAQEhdM1tDQEBIXShbQ0gyXVtDSDJdTzQpW0NASF00QzM1W0NIMl1bQ0gyXVtDSDJdW0NIMl01

> <s_epik_cmdline>
J2VwaWtfcHl0aG9uJywgJy1waCcsICc3LjAnLCAnLXRuJywgJzgnLCAnLW1hJywgJzIwMCcsICctbWV0YWxfYmluZGluZycsICctaW1hZScsICc8aW5maWxlLm1hZT4nLCAnLW9tYWUnLCAnPG91dGZpbGUubWFlPic=

> <r_lp_tautomer_probability>
1

> <r_epik_Ionization_Penalty>
2.6075e-05

> <r_epik_Ionization_Penalty_Charging>
0

> <r_epik_Ionization_Penalty_Neutral>
2.6075e-05

> <r_epik_State_Penalty>
-0

> <r_epik_Charging_Adjusted_Penalty>
0

> <i_epik_Tot_Q>
0

> <i_epik_Tot_abs_Q>
0

> <r_epik_Metal_State_Penalty>
-0

> <b_epik_Metal_Only>
0

> <s_lp_Force_Field>
OPLS_2005

> <r_lp_Energy>
62.9039

> <b_lp_Chiralities_Consistent>
1

> <s_lp_Variant>
AV-unprocessed.smi:2505-4

> <Gold.Version>
5.8.1

> <Gold.Id.Protein>
6NUR|6NUR_protein|mol2

> <Gold.PLP.Fitness>
43.2426

> <Gold.PLP.PLP>
-37.8902

> <Gold.PLP.part.hbond>
-1.7908

> <Gold.PLP.part.metal>
0.0000

> <Gold.PLP.part.buried>
-5.7378

> <Gold.PLP.part.nonpolar>
-30.2106

> <Gold.PLP.part.repulsive>
0.2474

> <Gold.PLP.ligand.clash>
0.0000

> <Gold.PLP.ligand.torsion>
0.4747

> <Gold.PLP.Chemscore.Hbond>
2.0000

> <Gold.PLP.Chemscore.CHOScore>
0.0000

> <Gold.PLP.Chemscore.Metal>
0.0000

> <Gold.Chemscore.Hbonds>
donor molecule, donor type, donor heavy atom, donor atom, acceptor molecule, acceptor atom, score
      P1  H  6896  6907       L1     1  0.99
      P1  H  7997  8008       L1    18  1.00

> <Gold.PLP.Chemscore.Internal.Correction>
0.3019

> <Gold.Rescore>
     Score         DG    S(hbond)    S(metal)    S(lipo)     H(rot)  DE(clash)    DE(int)     intcor
     20.64     -21.18       1.97        0.00     103.77       1.17       0.05       0.50       ----

> <Gold.Chemscore.Fitness>
20.6373

> <Gold.Chemscore.DG>
-21.1836

> <Gold.Chemscore.ZeroCoef>
-5.4800

> <Gold.Chemscore.Hbond>
1.9667

> <Gold.Chemscore.Metal>
0.0000

> <Gold.Chemscore.Lipo>
103.7729

> <Gold.Chemscore.Internal_Hbond>
0.0000

> <Gold.Chemscore.DEClash>
0.0498

> <Gold.Chemscore.DEInternal>
0.4965

> <Gold.Chemscore.Rot>
1.1744

> <Gold.Chemscore.Internal.Correction>
   9.000000E+99

> <Gold.Chemscore.Hbonds>
donor molecule, donor type, donor heavy atom, donor atom, acceptor molecule, acceptor atom, score
      P1  H  6896  6907       L1     1  0.92
      P1  H  7997  8008       L1    18  0.35

> <Gold.Chemscore.Hbond.Weighted>
-6.5686

> <Gold.Chemscore.Metal.Weighted>
-0.0000

> <Gold.Chemscore.Lipo.Weighted>
-12.1414

> <Gold.Chemscore.Internal_Hbond.Weighted>
0.0000

> <Gold.Chemscore.DEClash.Weighted>
0.0498

> <Gold.Chemscore.DEInternal.Weighted>
0.4965

> <Gold.Chemscore.Rot.Weighted>
3.0064

> <Gold.Chemscore.Internal.Correction.Weighted>
   9.000000E+99

> <Gold.Protein.RotatedTorsions>
[ 6907 6896 6895 6894 ] final  -42.80 input  -60.11 | X-H torsion
[ 7974 7965 7964 7962 ] final    0.42 input  175.53 | X-H torsion
[ 8008 7997 7996 7995 ] final  -10.13 input   59.86 | X-H torsion
[ 10167 10162 10161 10158 ] final  -20.40 input  -65.29 | X-H torsion
[ 10718 10713 10712 10709 ] final  100.42 input   66.30 | X-H torsion
[ 10763 10752 10751 10750 ] final   97.04 input  -60.55 | X-H torsion
[ 11005 11000 10999 10996 ] final   -7.37 input  -57.11 | X-H torsion

> <Gold.Protein.ActiveResidues>
 VAL166  LYS551  ARG553  GLY616  TRP617  ASP618  TYR619  PRO620  LYS621  CYS622 
 ASP623  PHE694  ASN695  SER759  ASP760  ASP761  ALA762  ILE779  LEU786  VAL792 
 PHE793  MET794  SER795  GLU796  ALA797  LYS798  CYS799  TRP800  GLU811  SER814 

> <Gold.Protein.RotatedAtoms>
  150.9511  134.8911  159.7672 H   0  0  0  0  0  0  0  0  0  0  0  0  # atno 6907 bound_to 6896
  152.5120  134.3805  159.9359 H   0  0  0  0  0  0  0  0  0  0  0  0  # atno 6908 bound_to 6896
  151.3821  133.3777  159.2746 H   0  0  0  0  0  0  0  0  0  0  0  0  # atno 6909 bound_to 6896
  146.2434  140.1140  142.8343 H   0  0  0  0  0  0  0  0  0  0  0  0  # atno 7974 bound_to 7965
  154.5583  140.2337  155.8375 H   0  0  0  0  0  0  0  0  0  0  0  0  # atno 8008 bound_to 7997
  156.2007  140.3053  155.9481 H   0  0  0  0  0  0  0  0  0  0  0  0  # atno 8009 bound_to 7997
  155.2937  140.0428  157.3015 H   0  0  0  0  0  0  0  0  0  0  0  0  # atno 8010 bound_to 7997
  140.7276  143.4726  151.0226 H   0  0  0  0  0  0  0  0  0  0  0  0  # atno 10167 bound_to 10162
  157.6854  131.0698  150.5097 H   0  0  0  0  0  0  0  0  0  0  0  0  # atno 10718 bound_to 10713
  153.2721  135.4197  155.0998 H   0  0  0  0  0  0  0  0  0  0  0  0  # atno 10763 bound_to 10752
  154.8460  135.3474  154.6229 H   0  0  0  0  0  0  0  0  0  0  0  0  # atno 10764 bound_to 10752
  153.6649  135.7046  153.5223 H   0  0  0  0  0  0  0  0  0  0  0  0  # atno 10765 bound_to 10752
  140.7120  133.8900  155.8758 H   0  0  0  0  0  0  0  0  0  0  0  0  # atno 11005 bound_to 11000
  145.0463  140.8983  143.5022 LP  0  0  0  0  0  0  0  0  0  0  0  0  # atno 17320 bound_to 7965
  145.1230  139.2681  143.5579 LP  0  0  0  0  0  0  0  0  0  0  0  0  # atno 17321 bound_to 7965
  139.8419  143.7552  152.3180 LP  0  0  0  0  0  0  0  0  0  0  0  0  # atno 17342 bound_to 10162
  139.7704  144.7478  151.0233 LP  0  0  0  0  0  0  0  0  0  0  0  0  # atno 17343 bound_to 10162
  156.5415  130.4209  149.6152 LP  0  0  0  0  0  0  0  0  0  0  0  0  # atno 17370 bound_to 10713
  156.2981  130.7161  151.2027 LP  0  0  0  0  0  0  0  0  0  0  0  0  # atno 17371 bound_to 10713
  141.0076  134.1065  157.4254 LP  0  0  0  0  0  0  0  0  0  0  0  0  # atno 17394 bound_to 11000
  139.8869  135.0085  156.6528 LP  0  0  0  0  0  0  0  0  0  0  0  0  # atno 17395 bound_to 11000

$$$$
