AV-unprocessed.smi:1101|AV-procd|sdf|4766|dock2
  -GOLD-   22720 3303D 1   1.00000     0.00000
 Structure written by MMmdl.
 41 42  0  0  0  0  0  0  0  0  1 V2000
  151.5683  145.1689  160.0689 C   0  0  0  0  0  0  0  0  0  0  0  0
  151.4253  144.8210  158.5822 C   0  0  0  0  0  0  0  0  0  0  0  0
  151.0206  143.3577  158.3444 C   0  0  1  0  0  0  0  0  0  0  0  0
  151.1156  142.9650  156.8553 C   0  0  0  0  0  0  0  0  0  0  0  0
  150.7499  141.5469  156.7263 N   0  0  0  0  0  0  0  0  0  0  0  0
  149.6165  141.0473  156.1735 C   0  0  0  0  0  0  0  0  0  0  0  0
  149.3780  139.8411  156.0979 O   0  0  0  0  0  0  0  0  0  0  0  0
  148.7760  141.9728  155.6806 N   0  0  0  0  0  0  0  0  0  0  0  0
  147.5011  141.6932  155.0303 C   0  0  0  0  0  0  0  0  0  0  0  0
  146.3302  142.3652  155.7658 C   0  0  0  0  0  0  0  0  0  0  0  0
  145.6258  143.3592  154.8861 C   0  0  0  0  0  0  0  0  0  0  0  0
  144.4848  144.1515  155.2004 C   0  0  0  0  0  0  0  0  0  0  0  0
  144.1104  144.9338  154.2011 N   0  0  0  0  0  0  0  0  0  0  0  0
  144.9953  144.6693  153.2178 N   0  0  0  0  0  0  0  0  0  0  0  0
  144.8829  145.3612  151.9517 C   0  0  0  0  0  0  0  0  0  0  0  0
  145.9202  143.7223  153.6020 C   0  0  0  0  0  0  0  0  0  0  0  0
  151.6855  140.7162  157.4883 C   0  0  0  0  0  0  0  0  0  0  0  0
  151.5999  141.1271  158.9685 C   0  0  0  0  0  0  0  0  0  0  0  0
  151.8956  142.5160  159.0959 O   0  0  0  0  0  0  0  0  0  0  0  0
  151.8366  146.2176  160.1977 H   0  0  0  0  0  0  0  0  0  0  0  0
  152.3445  144.5680  160.5435 H   0  0  0  0  0  0  0  0  0  0  0  0
  150.6349  144.9959  160.6052 H   0  0  0  0  0  0  0  0  0  0  0  0
  150.6758  145.4793  158.1414 H   0  0  0  0  0  0  0  0  0  0  0  0
  152.3620  145.0335  158.0657 H   0  0  0  0  0  0  0  0  0  0  0  0
  149.9960  143.2129  158.6924 H   0  0  0  0  0  0  0  0  0  0  0  0
  150.4996  143.6354  156.2563 H   0  0  0  0  0  0  0  0  0  0  0  0
  152.1358  143.1044  156.4940 H   0  0  0  0  0  0  0  0  0  0  0  0
  149.0409  142.9433  155.7651 H   0  0  0  0  0  0  0  0  0  0  0  0
  147.5577  142.0637  154.0063 H   0  0  0  0  0  0  0  0  0  0  0  0
  147.3446  140.6152  154.9623 H   0  0  0  0  0  0  0  0  0  0  0  0
  145.6293  141.6039  156.1100 H   0  0  0  0  0  0  0  0  0  0  0  0
  146.7038  142.8517  156.6676 H   0  0  0  0  0  0  0  0  0  0  0  0
  143.9214  144.1808  156.1215 H   0  0  0  0  0  0  0  0  0  0  0  0
  145.7280  145.1084  151.3108 H   0  0  0  0  0  0  0  0  0  0  0  0
  144.8751  146.4389  152.1177 H   0  0  0  0  0  0  0  0  0  0  0  0
  143.9588  145.0680  151.4526 H   0  0  0  0  0  0  0  0  0  0  0  0
  146.7046  143.3888  152.9384 H   0  0  0  0  0  0  0  0  0  0  0  0
  151.4869  139.6484  157.3860 H   0  0  0  0  0  0  0  0  0  0  0  0
  152.6978  140.8706  157.1123 H   0  0  0  0  0  0  0  0  0  0  0  0
  150.6090  140.9175  159.3746 H   0  0  0  0  0  0  0  0  0  0  0  0
  152.3160  140.5578  159.5611 H   0  0  0  0  0  0  0  0  0  0  0  0
  1  2  1  0  0  0  0
  1 20  1  0  0  0  0
  1 21  1  0  0  0  0
  1 22  1  0  0  0  0
  2  3  1  0  0  0  0
  2 23  1  0  0  0  0
  2 24  1  0  0  0  0
  3 19  1  0  0  0  0
  3  4  1  0  0  0  0
  3 25  1  0  0  0  0
  4  5  1  0  0  0  0
  4 26  1  0  0  0  0
  4 27  1  0  0  0  0
  5  6  1  0  0  0  0
  5 17  1  0  0  0  0
  6  7  2  0  0  0  0
  6  8  1  0  0  0  0
  8  9  1  0  0  0  0
  8 28  1  0  0  0  0
  9 10  1  0  0  0  0
  9 29  1  0  0  0  0
  9 30  1  0  0  0  0
 10 11  1  0  0  0  0
 10 31  1  0  0  0  0
 10 32  1  0  0  0  0
 11 16  2  0  0  0  0
 11 12  1  0  0  0  0
 12 13  2  0  0  0  0
 12 33  1  0  0  0  0
 13 14  1  0  0  0  0
 14 15  1  0  0  0  0
 14 16  1  0  0  0  0
 15 34  1  0  0  0  0
 15 35  1  0  0  0  0
 15 36  1  0  0  0  0
 16 37  1  0  0  0  0
 17 18  1  0  0  0  0
 17 38  1  0  0  0  0
 17 39  1  0  0  0  0
 18 19  1  0  0  0  0
 18 40  1  0  0  0  0
 18 41  1  0  0  0  0
M  END
> <s_m_source_file>
AV-unprocessed.smi

> <i_m_source_file_index>
1101

> <i_lp_mmshare_version>
43012

> <i_f3d_flags>
0

> <s_epik_input>
W0NIM11bQ0gyXVtDQEBIXTFbQ0gyXU4oW0NIMl1bQ0gyXU8xKUMoPU8pW05IXVtDSDJdW0NIMl1jMltjSF1ubihbQ0gzXSlbY0hdMg==

> <s_epik_cmdline>
J2VwaWtfcHl0aG9uJywgJy1waCcsICc3LjAnLCAnLXRuJywgJzgnLCAnLW1hJywgJzIwMCcsICctbWV0YWxfYmluZGluZycsICctaW1hZScsICc8aW5maWxlLm1hZT4nLCAnLW9tYWUnLCAnPG91dGZpbGUubWFlPic=

> <r_lp_tautomer_probability>
1

> <r_epik_Ionization_Penalty>
0.000536373

> <r_epik_Ionization_Penalty_Charging>
0

> <r_epik_Ionization_Penalty_Neutral>
0.000536373

> <r_epik_State_Penalty>
-0

> <r_epik_Charging_Adjusted_Penalty>
0

> <i_epik_Tot_Q>
0

> <i_epik_Tot_abs_Q>
0

> <r_epik_Metal_State_Penalty>
-0

> <b_epik_Metal_Only>
0

> <s_lp_Force_Field>
OPLS_2005

> <r_lp_Energy>
24.031

> <b_lp_Chiralities_Consistent>
1

> <s_lp_Variant>
AV-unprocessed.smi:1101-2

> <Gold.Version>
5.8.1

> <Gold.Id.Protein>
6NUR|6NUR_protein|mol2

> <Gold.PLP.Fitness>
40.9221

> <Gold.PLP.PLP>
-38.7570

> <Gold.PLP.part.hbond>
-1.0000

> <Gold.PLP.part.metal>
0.0000

> <Gold.PLP.part.buried>
-2.7543

> <Gold.PLP.part.nonpolar>
-35.8348

> <Gold.PLP.part.repulsive>
0.2049

> <Gold.PLP.ligand.clash>
0.0000

> <Gold.PLP.ligand.torsion>
0.4482

> <Gold.PLP.Chemscore.Hbond>
1.0000

> <Gold.PLP.Chemscore.CHOScore>
0.0000

> <Gold.PLP.Chemscore.Metal>
0.0000

> <Gold.Chemscore.Hbonds>
donor molecule, donor type, donor heavy atom, donor atom, acceptor molecule, acceptor atom, score
      L1  H     8    28       P1  8028  1.00

> <Gold.PLP.Chemscore.Internal.Correction>
0.0614

> <Gold.Rescore>
     Score         DG    S(hbond)    S(metal)    S(lipo)     H(rot)  DE(clash)    DE(int)     intcor
     14.30     -16.40       0.99        0.00      98.01       1.51       1.64       0.46       ----

> <Gold.Chemscore.Fitness>
14.3014

> <Gold.Chemscore.DG>
-16.4034

> <Gold.Chemscore.ZeroCoef>
-5.4800

> <Gold.Chemscore.Hbond>
0.9915

> <Gold.Chemscore.Metal>
0.0000

> <Gold.Chemscore.Lipo>
98.0147

> <Gold.Chemscore.Internal_Hbond>
0.0000

> <Gold.Chemscore.DEClash>
1.6392

> <Gold.Chemscore.DEInternal>
0.4627

> <Gold.Chemscore.Rot>
1.5062

> <Gold.Chemscore.Internal.Correction>
   9.000000E+99

> <Gold.Chemscore.Hbonds>
donor molecule, donor type, donor heavy atom, donor atom, acceptor molecule, acceptor atom, score
      L1  H     8    28       P1  8028  0.99

> <Gold.Chemscore.Hbond.Weighted>
-3.3115

> <Gold.Chemscore.Metal.Weighted>
-0.0000

> <Gold.Chemscore.Lipo.Weighted>
-11.4677

> <Gold.Chemscore.Internal_Hbond.Weighted>
0.0000

> <Gold.Chemscore.DEClash.Weighted>
1.6392

> <Gold.Chemscore.DEInternal.Weighted>
0.4627

> <Gold.Chemscore.Rot.Weighted>
3.8558

> <Gold.Chemscore.Internal.Correction.Weighted>
   9.000000E+99

> <Gold.Protein.RotatedTorsions>
[ 6907 6896 6895 6894 ] final    8.34 input  -60.11 | X-H torsion
[ 7974 7965 7964 7962 ] final -140.81 input  175.53 | X-H torsion
[ 8008 7997 7996 7995 ] final   30.40 input   59.86 | X-H torsion
[ 10167 10162 10161 10158 ] final  169.62 input  -65.29 | X-H torsion
[ 10718 10713 10712 10709 ] final   90.27 input   66.30 | X-H torsion
[ 10763 10752 10751 10750 ] final -146.27 input  -60.55 | X-H torsion
[ 11005 11000 10999 10996 ] final   39.99 input  -57.11 | X-H torsion

> <Gold.Protein.ActiveResidues>
 VAL166  LYS551  ARG553  GLY616  TRP617  ASP618  TYR619  PRO620  LYS621  CYS622 
 ASP623  PHE694  ASN695  SER759  ASP760  ASP761  ALA762  ILE779  LEU786  VAL792 
 PHE793  MET794  SER795  GLU796  ALA797  LYS798  CYS799  TRP800  GLU811  SER814 

> <Gold.Protein.RotatedAtoms>
  151.7045  135.0924  160.0256 H   0  0  0  0  0  0  0  0  0  0  0  0  # atno 6907 bound_to 6896
  152.3700  133.6402  159.6088 H   0  0  0  0  0  0  0  0  0  0  0  0  # atno 6908 bound_to 6896
  150.7666  133.9202  159.3437 H   0  0  0  0  0  0  0  0  0  0  0  0  # atno 6909 bound_to 6896
  144.8568  140.6155  143.5354 H   0  0  0  0  0  0  0  0  0  0  0  0  # atno 7974 bound_to 7965
  155.0898  140.3219  155.4577 H   0  0  0  0  0  0  0  0  0  0  0  0  # atno 8008 bound_to 7997
  156.2745  140.2080  156.5971 H   0  0  0  0  0  0  0  0  0  0  0  0  # atno 8009 bound_to 7997
  154.6912  140.0516  157.0353 H   0  0  0  0  0  0  0  0  0  0  0  0  # atno 8010 bound_to 7997
  139.4997  144.3686  151.9749 H   0  0  0  0  0  0  0  0  0  0  0  0  # atno 10167 bound_to 10162
  157.6958  131.0364  150.3552 H   0  0  0  0  0  0  0  0  0  0  0  0  # atno 10718 bound_to 10713
  154.8344  135.3391  154.6634 H   0  0  0  0  0  0  0  0  0  0  0  0  # atno 10763 bound_to 10752
  153.7251  135.6955  153.5007 H   0  0  0  0  0  0  0  0  0  0  0  0  # atno 10764 bound_to 10752
  153.2353  135.4402  155.0592 H   0  0  0  0  0  0  0  0  0  0  0  0  # atno 10765 bound_to 10752
  140.1974  134.3912  155.8114 H   0  0  0  0  0  0  0  0  0  0  0  0  # atno 11005 bound_to 11000
  145.4390  139.1538  143.3980 LP  0  0  0  0  0  0  0  0  0  0  0  0  # atno 17320 bound_to 7965
  146.2829  140.4511  142.8769 LP  0  0  0  0  0  0  0  0  0  0  0  0  # atno 17321 bound_to 7965
  140.3122  144.3525  150.6031 LP  0  0  0  0  0  0  0  0  0  0  0  0  # atno 17342 bound_to 10162
  140.5790  143.2174  151.7463 LP  0  0  0  0  0  0  0  0  0  0  0  0  # atno 17343 bound_to 10162
  156.3996  130.3913  149.6970 LP  0  0  0  0  0  0  0  0  0  0  0  0  # atno 17370 bound_to 10713
  156.4292  130.7806  151.2826 LP  0  0  0  0  0  0  0  0  0  0  0  0  # atno 17371 bound_to 10713
  141.2227  133.7076  156.8199 LP  0  0  0  0  0  0  0  0  0  0  0  0  # atno 17394 bound_to 11000
  140.2092  134.8840  157.3256 LP  0  0  0  0  0  0  0  0  0  0  0  0  # atno 17395 bound_to 11000

$$$$
