AV-unprocessed.smi:1788|AV-procd|sdf|7212|dock2
  -GOLD-   22720 8453D 1   1.00000     0.00000
 Structure written by MMmdl.
 55 57  0  0  0  0  0  0  0  0  2 V2000
  146.2483  129.1310  151.4095 C   0  0  0  0  0  0  0  0  0  0  0  0
  145.5430  130.1639  152.3057 C   0  0  2  0  0  0  0  0  0  0  0  0
  144.7357  131.1968  151.4983 C   0  0  0  0  0  0  0  0  0  0  0  0
  145.6612  132.2128  150.8158 C   0  0  0  0  0  0  0  0  0  0  0  0
  146.6036  132.8678  151.8365 C   0  0  0  0  0  0  0  0  0  0  0  0
  147.3933  131.8466  152.5716 N   0  3  1  0  0  0  0  0  0  0  0  0
  148.4131  132.4606  153.4620 C   0  0  0  0  0  0  0  0  0  0  0  0
  147.8474  133.5704  154.3698 C   0  0  0  0  0  0  0  0  0  0  0  0
  148.4620  134.8672  154.0946 N   0  0  0  0  0  0  0  0  0  0  0  0
  148.7712  135.7899  155.0167 C   0  0  0  0  0  0  0  0  0  0  0  0
  148.5379  135.6512  156.2162 O   0  0  0  0  0  0  0  0  0  0  0  0
  149.3903  136.8456  154.4625 N   0  0  0  0  0  0  0  0  0  0  0  0
  149.9125  137.9976  155.1101 C   0  0  0  0  0  0  0  0  0  0  0  0
  149.8222  138.0676  156.5136 C   0  0  0  0  0  0  0  0  0  0  0  0
  150.3479  139.1888  157.1828 C   0  0  0  0  0  0  0  0  0  0  0  0
  150.9663  140.2151  156.4305 C   0  0  0  0  0  0  0  0  0  0  0  0
  151.5075  141.3461  157.0808 N   0  0  0  0  0  0  0  0  0  0  0  0
  150.8507  142.6171  156.7836 C   0  0  0  0  0  0  0  0  0  0  0  0
  151.6942  143.7937  157.3050 C   0  0  0  0  0  0  0  0  0  0  0  0
  151.9603  143.6206  158.6927 O   0  0  0  0  0  0  0  0  0  0  0  0
  152.7027  142.4324  158.9437 C   0  0  0  0  0  0  0  0  0  0  0  0
  151.8918  141.2086  158.4849 C   0  0  0  0  0  0  0  0  0  0  0  0
  151.0577  140.1440  155.0797 N   0  0  0  0  0  0  0  0  0  0  0  0
  150.5531  139.0674  154.4412 C   0  0  0  0  0  0  0  0  0  0  0  0
  146.5165  130.8706  153.2743 C   0  0  0  0  0  0  0  0  0  0  0  0
  147.0222  129.5857  150.7911 H   0  0  0  0  0  0  0  0  0  0  0  0
  145.5378  128.6393  150.7443 H   0  0  0  0  0  0  0  0  0  0  0  0
  146.7208  128.3527  152.0094 H   0  0  0  0  0  0  0  0  0  0  0  0
  144.8313  129.6026  152.9128 H   0  0  0  0  0  0  0  0  0  0  0  0
  144.1059  130.7001  150.7595 H   0  0  0  0  0  0  0  0  0  0  0  0
  144.0583  131.7271  152.1691 H   0  0  0  0  0  0  0  0  0  0  0  0
  146.2452  131.7223  150.0362 H   0  0  0  0  0  0  0  0  0  0  0  0
  145.0664  132.9779  150.3162 H   0  0  0  0  0  0  0  0  0  0  0  0
  147.2759  133.5475  151.3112 H   0  0  0  0  0  0  0  0  0  0  0  0
  146.0334  133.4696  152.5463 H   0  0  0  0  0  0  0  0  0  0  0  0
  148.8300  131.6890  154.1111 H   0  0  0  0  0  0  0  0  0  0  0  0
  149.2469  132.8385  152.8687 H   0  0  0  0  0  0  0  0  0  0  0  0
  146.7752  133.6647  154.1962 H   0  0  0  0  0  0  0  0  0  0  0  0
  147.9515  133.2998  155.4216 H   0  0  0  0  0  0  0  0  0  0  0  0
  148.6819  135.0699  153.1299 H   0  0  0  0  0  0  0  0  0  0  0  0
  149.5767  136.7852  153.4721 H   0  0  0  0  0  0  0  0  0  0  0  0
  149.3484  137.2757  157.0753 H   0  0  0  0  0  0  0  0  0  0  0  0
  150.2599  139.2526  158.2570 H   0  0  0  0  0  0  0  0  0  0  0  0
  150.6861  142.7474  155.7150 H   0  0  0  0  0  0  0  0  0  0  0  0
  149.8687  142.6238  157.2586 H   0  0  0  0  0  0  0  0  0  0  0  0
  152.6314  143.8753  156.7517 H   0  0  0  0  0  0  0  0  0  0  0  0
  151.1578  144.7317  157.1616 H   0  0  0  0  0  0  0  0  0  0  0  0
  153.6658  142.4765  158.4319 H   0  0  0  0  0  0  0  0  0  0  0  0
  152.9130  142.3644  160.0112 H   0  0  0  0  0  0  0  0  0  0  0  0
  150.9941  141.1065  159.0964 H   0  0  0  0  0  0  0  0  0  0  0  0
  152.4888  140.3066  158.6264 H   0  0  0  0  0  0  0  0  0  0  0  0
  150.6942  139.0722  153.3718 H   0  0  0  0  0  0  0  0  0  0  0  0
  145.9482  131.3970  154.0431 H   0  0  0  0  0  0  0  0  0  0  0  0
  147.1179  130.1245  153.7933 H   0  0  0  0  0  0  0  0  0  0  0  0
  147.9035  131.3279  151.8709 H   0  0  0  0  0  0  0  0  0  0  0  0
  1  2  1  0  0  0  0
  1 26  1  0  0  0  0
  1 27  1  0  0  0  0
  1 28  1  0  0  0  0
  2 25  1  0  0  0  0
  2  3  1  0  0  0  0
  2 29  1  0  0  0  0
  3  4  1  0  0  0  0
  3 30  1  0  0  0  0
  3 31  1  0  0  0  0
  4  5  1  0  0  0  0
  4 32  1  0  0  0  0
  4 33  1  0  0  0  0
  5  6  1  0  0  0  0
  5 34  1  0  0  0  0
  5 35  1  0  0  0  0
  6  7  1  0  0  0  0
  6 25  1  0  0  0  0
  6 55  1  0  0  0  0
  7  8  1  0  0  0  0
  7 36  1  0  0  0  0
  7 37  1  0  0  0  0
  8  9  1  0  0  0  0
  8 38  1  0  0  0  0
  8 39  1  0  0  0  0
  9 10  1  0  0  0  0
  9 40  1  0  0  0  0
 10 11  2  0  0  0  0
 10 12  1  0  0  0  0
 12 13  1  0  0  0  0
 12 41  1  0  0  0  0
 13 24  1  0  0  0  0
 13 14  2  0  0  0  0
 14 15  1  0  0  0  0
 14 42  1  0  0  0  0
 15 16  2  0  0  0  0
 15 43  1  0  0  0  0
 16 17  1  0  0  0  0
 16 23  1  0  0  0  0
 17 22  1  0  0  0  0
 17 18  1  0  0  0  0
 18 19  1  0  0  0  0
 18 44  1  0  0  0  0
 18 45  1  0  0  0  0
 19 20  1  0  0  0  0
 19 46  1  0  0  0  0
 19 47  1  0  0  0  0
 20 21  1  0  0  0  0
 21 22  1  0  0  0  0
 21 48  1  0  0  0  0
 21 49  1  0  0  0  0
 22 50  1  0  0  0  0
 22 51  1  0  0  0  0
 23 24  2  0  0  0  0
 24 52  1  0  0  0  0
 25 53  1  0  0  0  0
 25 54  1  0  0  0  0
M  CHG  1   6   1
M  END
> <s_m_source_file>
AV-unprocessed.smi

> <i_m_source_file_index>
1788

> <i_lp_mmshare_version>
43012

> <i_f3d_flags>
0

> <s_epik_input>
W0NIM11bQ0BASF0xW0NIMl1bQ0gyXVtDSDJdTihbQ0gyXTEpW0NIMl1bQ0gyXVtOSF1DKD1PKVtOSF1jMltjSF1bY0hdYyhuW2NIXTIpTjNbQ0gyXVtDSDJdT1tDSDJdW0NIMl0z

> <s_epik_cmdline>
J2VwaWtfcHl0aG9uJywgJy1waCcsICc3LjAnLCAnLXRuJywgJzgnLCAnLW1hJywgJzIwMCcsICctbWV0YWxfYmluZGluZycsICctaW1hZScsICc8aW5maWxlLm1hZT4nLCAnLW9tYWUnLCAnPG91dGZpbGUubWFlPic=

> <r_lp_tautomer_probability>
1

> <r_epik_Ionization_Penalty>
0.00340126

> <r_epik_Ionization_Penalty_Charging>
0.00171832

> <r_epik_Ionization_Penalty_Neutral>
0.00168294

> <r_epik_State_Penalty>
-0

> <r_epik_Charging_Adjusted_Penalty>
0.00171832

> <i_epik_Tot_Q>
1

> <i_epik_Tot_abs_Q>
1

> <r_epik_Metal_State_Penalty>
-0

> <b_epik_Metal_Only>
0

> <s_lp_Force_Field>
OPLS_2005

> <r_lp_Energy>
41.5568

> <b_lp_Chiralities_Consistent>
1

> <s_lp_Variant>
AV-unprocessed.smi:1788-3

> <Gold.Version>
5.8.1

> <Gold.Id.Protein>
6NUR|6NUR_protein|mol2

> <Gold.PLP.Fitness>
54.7660

> <Gold.PLP.PLP>
-43.1069

> <Gold.PLP.part.hbond>
-4.0000

> <Gold.PLP.part.metal>
0.0000

> <Gold.PLP.part.buried>
-4.1134

> <Gold.PLP.part.nonpolar>
-34.1481

> <Gold.PLP.part.repulsive>
0.1360

> <Gold.PLP.ligand.clash>
0.0000

> <Gold.PLP.ligand.torsion>
0.9976

> <Gold.PLP.Chemscore.Hbond>
3.5600

> <Gold.PLP.Chemscore.CHOScore>
0.8541

> <Gold.PLP.Chemscore.Metal>
0.0000

> <Gold.Chemscore.Hbonds>
donor molecule, donor type, donor heavy atom, donor atom, acceptor molecule, acceptor atom, score
      L1  H     6    55       P1 10747  1.00
      L1  H     9    40       P1  7948  1.00
      L1  H    12    41       P1  7948  0.94
      P1  H  7989  7998       L1    23  0.60
      L1  C    24    52       P1  7957  0.75

> <Gold.PLP.Chemscore.Internal.Correction>
0.4120

> <Gold.Rescore>
     Score         DG    S(hbond)    S(metal)    S(lipo)     H(rot)  DE(clash)    DE(int)     intcor
     21.42     -23.88       2.81        0.00     112.01       1.60       0.06       2.40       ----

> <Gold.Chemscore.Fitness>
21.4151

> <Gold.Chemscore.DG>
-23.8811

> <Gold.Chemscore.ZeroCoef>
-5.4800

> <Gold.Chemscore.Hbond>
2.8103

> <Gold.Chemscore.Metal>
0.0000

> <Gold.Chemscore.Lipo>
112.0068

> <Gold.Chemscore.Internal_Hbond>
0.0000

> <Gold.Chemscore.DEClash>
0.0647

> <Gold.Chemscore.DEInternal>
2.4013

> <Gold.Chemscore.Rot>
1.5976

> <Gold.Chemscore.Internal.Correction>
   9.000000E+99

> <Gold.Chemscore.Hbonds>
donor molecule, donor type, donor heavy atom, donor atom, acceptor molecule, acceptor atom, score
      L1  H     6    55       P1 10747  0.98
      L1  H     9    40       P1  7948  0.58
      L1  H    12    41       P1  7948  0.68
      P1  H  7989  7998       L1    23  0.04

> <Gold.Chemscore.Hbond.Weighted>
-9.3862

> <Gold.Chemscore.Metal.Weighted>
-0.0000

> <Gold.Chemscore.Lipo.Weighted>
-13.1048

> <Gold.Chemscore.Internal_Hbond.Weighted>
0.0000

> <Gold.Chemscore.DEClash.Weighted>
0.0647

> <Gold.Chemscore.DEInternal.Weighted>
2.4013

> <Gold.Chemscore.Rot.Weighted>
4.0899

> <Gold.Chemscore.Internal.Correction.Weighted>
   9.000000E+99

> <Gold.Protein.RotatedTorsions>
[ 6907 6896 6895 6894 ] final  101.36 input  -60.11 | X-H torsion
[ 7974 7965 7964 7962 ] final  -98.72 input  175.53 | X-H torsion
[ 8008 7997 7996 7995 ] final  115.76 input   59.86 | X-H torsion
[ 10167 10162 10161 10158 ] final  -15.71 input  -65.29 | X-H torsion
[ 10718 10713 10712 10709 ] final   56.27 input   66.30 | X-H torsion
[ 10763 10752 10751 10750 ] final  -79.93 input  -60.55 | X-H torsion
[ 11005 11000 10999 10996 ] final  112.56 input  -57.11 | X-H torsion

> <Gold.Protein.ActiveResidues>
 VAL166  LYS551  ARG553  GLY616  TRP617  ASP618  TYR619  PRO620  LYS621  CYS622 
 ASP623  PHE694  ASN695  SER759  ASP760  ASP761  ALA762  ILE779  LEU786  VAL792 
 PHE793  MET794  SER795  GLU796  ALA797  LYS798  CYS799  TRP800  GLU811  SER814 

> <Gold.Protein.RotatedAtoms>
  152.5351  134.0138  159.7950 H   0  0  0  0  0  0  0  0  0  0  0  0  # atno 6907 bound_to 6896
  151.0336  133.5761  159.2665 H   0  0  0  0  0  0  0  0  0  0  0  0  # atno 6908 bound_to 6896
  151.2756  135.0705  159.9204 H   0  0  0  0  0  0  0  0  0  0  0  0  # atno 6909 bound_to 6896
  145.3169  140.9413  143.2738 H   0  0  0  0  0  0  0  0  0  0  0  0  # atno 7974 bound_to 7965
  156.2400  140.2932  156.0418 H   0  0  0  0  0  0  0  0  0  0  0  0  # atno 8008 bound_to 7997
  155.1978  140.0408  157.2929 H   0  0  0  0  0  0  0  0  0  0  0  0  # atno 8009 bound_to 7997
  154.6151  140.2461  155.7627 H   0  0  0  0  0  0  0  0  0  0  0  0  # atno 8010 bound_to 7997
  140.7223  143.5190  150.9657 H   0  0  0  0  0  0  0  0  0  0  0  0  # atno 10167 bound_to 10162
  157.5416  130.8701  149.8831 H   0  0  0  0  0  0  0  0  0  0  0  0  # atno 10718 bound_to 10713
  154.5448  135.5679  153.6870 H   0  0  0  0  0  0  0  0  0  0  0  0  # atno 10763 bound_to 10752
  152.9973  135.6236  154.2453 H   0  0  0  0  0  0  0  0  0  0  0  0  # atno 10764 bound_to 10752
  154.2386  135.2863  155.2842 H   0  0  0  0  0  0  0  0  0  0  0  0  # atno 10765 bound_to 10752
  139.8930  134.9532  156.6605 H   0  0  0  0  0  0  0  0  0  0  0  0  # atno 11005 bound_to 11000
  144.8970  139.4699  143.6650 LP  0  0  0  0  0  0  0  0  0  0  0  0  # atno 17320 bound_to 7965
  146.3097  139.7702  142.9029 LP  0  0  0  0  0  0  0  0  0  0  0  0  # atno 17321 bound_to 7965
  139.8906  143.6957  152.3145 LP  0  0  0  0  0  0  0  0  0  0  0  0  # atno 17342 bound_to 10162
  139.7272  144.7590  151.0860 LP  0  0  0  0  0  0  0  0  0  0  0  0  # atno 17343 bound_to 10162
  156.0502  130.3719  150.1220 LP  0  0  0  0  0  0  0  0  0  0  0  0  # atno 17370 bound_to 10713
  156.9399  130.9741  151.3518 LP  0  0  0  0  0  0  0  0  0  0  0  0  # atno 17371 bound_to 10713
  140.7451  133.8945  155.8306 LP  0  0  0  0  0  0  0  0  0  0  0  0  # atno 17394 bound_to 11000
  141.0046  134.1103  157.4283 LP  0  0  0  0  0  0  0  0  0  0  0  0  # atno 17395 bound_to 11000

$$$$
