AV-unprocessed.smi:2290|AV-procd|sdf|9210|dock3
  -GOLD-   2272012423D 1   1.00000     0.00000
 Structure written by MMmdl.
 38 39  0  0  0  0  0  0  0  0  1 V2000
  152.2042  144.4566  160.5541 C   0  0  0  0  0  0  0  0  0  0  0  0
  152.0265  143.4838  159.4018 C   0  0  0  0  0  0  0  0  0  0  0  0
  151.2355  143.9398  158.3432 N   0  0  0  0  0  0  0  0  0  0  0  0
  151.0296  143.1794  157.3181 C   0  0  0  0  0  0  0  0  0  0  0  0
  151.5832  141.8917  157.2318 N   0  0  0  0  0  0  0  0  0  0  0  0
  151.2791  141.1322  156.0080 C   0  0  0  0  0  0  0  0  0  0  0  0
  149.7721  141.1536  155.6662 C   0  0  2  0  0  0  0  0  0  0  0  0
  149.4480  142.3098  154.9202 O   0  0  0  0  0  0  0  0  0  0  0  0
  148.8744  141.1318  156.9143 C   0  0  0  0  0  0  0  0  0  0  0  0
  147.5153  141.3296  156.5427 O   0  0  0  0  0  0  0  0  0  0  0  0
  146.8482  142.3317  157.2980 C   0  0  0  0  0  0  0  0  0  0  0  0
  145.8717  143.0393  156.4093 C   0  0  0  0  0  0  0  0  0  0  0  0
  144.9436  143.9790  156.7798 C   0  0  0  0  0  0  0  0  0  0  0  0
  144.1532  144.4496  155.6901 C   0  0  0  0  0  0  0  0  0  0  0  0
  144.4818  143.8563  154.5006 C   0  0  0  0  0  0  0  0  0  0  0  0
  145.7704  142.7005  154.6968 S   0  0  0  0  0  0  0  0  0  0  0  0
  152.3707  141.3712  158.2171 C   0  0  0  0  0  0  0  0  0  0  0  0
  152.8611  140.2441  158.1251 O   0  0  0  0  0  0  0  0  0  0  0  0
  152.5929  142.2463  159.3795 C   0  0  0  0  0  0  0  0  0  0  0  0
  153.4635  141.6965  160.5026 C   0  0  0  0  0  0  0  0  0  0  0  0
  151.8245  144.0259  161.4811 H   0  0  0  0  0  0  0  0  0  0  0  0
  151.6662  145.3882  160.3738 H   0  0  0  0  0  0  0  0  0  0  0  0
  153.2584  144.7008  160.6882 H   0  0  0  0  0  0  0  0  0  0  0  0
  150.4238  143.4887  156.4645 H   0  0  0  0  0  0  0  0  0  0  0  0
  151.8408  141.5743  155.1831 H   0  0  0  0  0  0  0  0  0  0  0  0
  151.6452  140.1046  156.0590 H   0  0  0  0  0  0  0  0  0  0  0  0
  149.5092  140.2895  155.0549 H   0  0  0  0  0  0  0  0  0  0  0  0
  149.2412  143.0083  155.5219 H   0  0  0  0  0  0  0  0  0  0  0  0
  148.9926  140.1960  157.4632 H   0  0  0  0  0  0  0  0  0  0  0  0
  149.1900  141.9335  157.5834 H   0  0  0  0  0  0  0  0  0  0  0  0
  146.3096  141.8478  158.1127 H   0  0  0  0  0  0  0  0  0  0  0  0
  147.5568  143.0270  157.7509 H   0  0  0  0  0  0  0  0  0  0  0  0
  144.8074  144.3443  157.7869 H   0  0  0  0  0  0  0  0  0  0  0  0
  143.3812  145.1943  155.8157 H   0  0  0  0  0  0  0  0  0  0  0  0
  144.0455  144.0235  153.5267 H   0  0  0  0  0  0  0  0  0  0  0  0
  154.4593  141.4613  160.1251 H   0  0  0  0  0  0  0  0  0  0  0  0
  153.0274  140.7798  160.9012 H   0  0  0  0  0  0  0  0  0  0  0  0
  153.5834  142.3903  161.3331 H   0  0  0  0  0  0  0  0  0  0  0  0
  1  2  1  0  0  0  0
  1 21  1  0  0  0  0
  1 22  1  0  0  0  0
  1 23  1  0  0  0  0
  2 19  2  0  0  0  0
  2  3  1  0  0  0  0
  3  4  2  0  0  0  0
  4  5  1  0  0  0  0
  4 24  1  0  0  0  0
  5  6  1  0  0  0  0
  5 17  1  0  0  0  0
  6  7  1  0  0  0  0
  6 25  1  0  0  0  0
  6 26  1  0  0  0  0
  7  8  1  0  0  0  0
  7  9  1  0  0  0  0
  7 27  1  0  0  0  0
  8 28  1  0  0  0  0
  9 10  1  0  0  0  0
  9 29  1  0  0  0  0
  9 30  1  0  0  0  0
 10 11  1  0  0  0  0
 11 12  1  0  0  0  0
 11 31  1  0  0  0  0
 11 32  1  0  0  0  0
 12 16  1  0  0  0  0
 12 13  2  0  0  0  0
 13 14  1  0  0  0  0
 13 33  1  0  0  0  0
 14 15  2  0  0  0  0
 14 34  1  0  0  0  0
 15 16  1  0  0  0  0
 15 35  1  0  0  0  0
 17 18  2  0  0  0  0
 17 19  1  0  0  0  0
 19 20  1  0  0  0  0
 20 36  1  0  0  0  0
 20 37  1  0  0  0  0
 20 38  1  0  0  0  0
M  END
> <s_m_source_file>
AV-unprocessed.smi

> <i_m_source_file_index>
2290

> <i_lp_mmshare_version>
43012

> <i_f3d_flags>
0

> <s_epik_input>
W0NIM11jMW5bY0hdbihjKD1PKWMxW0NIM10pW0NIMl1bQ0BIXShbT0hdKVtDSDJdT1tDSDJdYzJbY0hdW2NIXVtjSF1zMg==

> <s_epik_cmdline>
J2VwaWtfcHl0aG9uJywgJy1waCcsICc3LjAnLCAnLXRuJywgJzgnLCAnLW1hJywgJzIwMCcsICctbWV0YWxfYmluZGluZycsICctaW1hZScsICc8aW5maWxlLm1hZT4nLCAnLW9tYWUnLCAnPG91dGZpbGUubWFlPic=

> <r_lp_tautomer_probability>
1

> <r_epik_Ionization_Penalty>
4.77825e-05

> <r_epik_Ionization_Penalty_Charging>
1.20754e-07

> <r_epik_Ionization_Penalty_Neutral>
4.76618e-05

> <r_epik_State_Penalty>
-0

> <r_epik_Charging_Adjusted_Penalty>
1.20754e-07

> <i_epik_Tot_Q>
0

> <i_epik_Tot_abs_Q>
0

> <r_epik_Metal_State_Penalty>
-0

> <b_epik_Metal_Only>
0

> <s_lp_Force_Field>
OPLS_2005

> <r_lp_Energy>
18.6865

> <b_lp_Chiralities_Consistent>
1

> <s_lp_Variant>
AV-unprocessed.smi:2290-1

> <Gold.Version>
5.8.1

> <Gold.Id.Protein>
6NUR|6NUR_protein|mol2

> <Gold.PLP.Fitness>
46.6787

> <Gold.PLP.PLP>
-37.7340

> <Gold.PLP.part.hbond>
-2.8754

> <Gold.PLP.part.metal>
0.0000

> <Gold.PLP.part.buried>
-4.4866

> <Gold.PLP.part.nonpolar>
-29.1802

> <Gold.PLP.part.repulsive>
0.2019

> <Gold.PLP.ligand.clash>
0.0000

> <Gold.PLP.ligand.torsion>
1.0669

> <Gold.PLP.Chemscore.Hbond>
1.7181

> <Gold.PLP.Chemscore.CHOScore>
1.9516

> <Gold.PLP.Chemscore.Metal>
0.0000

> <Gold.Chemscore.Hbonds>
donor molecule, donor type, donor heavy atom, donor atom, acceptor molecule, acceptor atom, score
      L1  H     8    28       P1  8028  0.88
      P1  H  7997  8009       L1    18  0.92
      L1  C     4    24       P1  8028  1.00
      L1  C    15    35       P1 10174  1.00

> <Gold.PLP.Chemscore.Internal.Correction>
0.0694

> <Gold.Rescore>
     Score         DG    S(hbond)    S(metal)    S(lipo)     H(rot)  DE(clash)    DE(int)     intcor
     11.74     -14.76       1.83        0.00      82.88       2.55       0.52       2.50       ----

> <Gold.Chemscore.Fitness>
11.7403

> <Gold.Chemscore.DG>
-14.7622

> <Gold.Chemscore.ZeroCoef>
-5.4800

> <Gold.Chemscore.Hbond>
1.8307

> <Gold.Chemscore.Metal>
0.0000

> <Gold.Chemscore.Lipo>
82.8836

> <Gold.Chemscore.Internal_Hbond>
0.0000

> <Gold.Chemscore.DEClash>
0.5210

> <Gold.Chemscore.DEInternal>
2.5009

> <Gold.Chemscore.Rot>
2.5507

> <Gold.Chemscore.Internal.Correction>
   9.000000E+99

> <Gold.Chemscore.Hbonds>
donor molecule, donor type, donor heavy atom, donor atom, acceptor molecule, acceptor atom, score
      L1  H     8    28       P1  8028  0.87
      P1  H  7997  8009       L1    18  0.79

> <Gold.Chemscore.Hbond.Weighted>
-6.1146

> <Gold.Chemscore.Metal.Weighted>
-0.0000

> <Gold.Chemscore.Lipo.Weighted>
-9.6974

> <Gold.Chemscore.Internal_Hbond.Weighted>
0.0000

> <Gold.Chemscore.DEClash.Weighted>
0.5210

> <Gold.Chemscore.DEInternal.Weighted>
2.5009

> <Gold.Chemscore.Rot.Weighted>
6.5298

> <Gold.Chemscore.Internal.Correction.Weighted>
   9.000000E+99

> <Gold.Protein.RotatedTorsions>
[ 6907 6896 6895 6894 ] final  -43.70 input  -60.11 | X-H torsion
[ 7974 7965 7964 7962 ] final   21.15 input  175.53 | X-H torsion
[ 8008 7997 7996 7995 ] final  158.15 input   59.86 | X-H torsion
[ 10167 10162 10161 10158 ] final   69.11 input  -65.29 | X-H torsion
[ 10718 10713 10712 10709 ] final   32.80 input   66.30 | X-H torsion
[ 10763 10752 10751 10750 ] final  113.14 input  -60.55 | X-H torsion
[ 11005 11000 10999 10996 ] final   96.29 input  -57.11 | X-H torsion

> <Gold.Protein.ActiveResidues>
 VAL166  LYS551  ARG553  GLY616  TRP617  ASP618  TYR619  PRO620  LYS621  CYS622 
 ASP623  PHE694  ASN695  SER759  ASP760  ASP761  ALA762  ILE779  LEU786  VAL792 
 PHE793  MET794  SER795  GLU796  ALA797  LYS798  CYS799  TRP800  GLU811  SER814 

> <Gold.Protein.RotatedAtoms>
  150.9410  134.8819  159.7611 H   0  0  0  0  0  0  0  0  0  0  0  0  # atno 6907 bound_to 6896
  152.5080  134.3942  159.9404 H   0  0  0  0  0  0  0  0  0  0  0  0  # atno 6908 bound_to 6896
  151.3963  133.3732  159.2762 H   0  0  0  0  0  0  0  0  0  0  0  0  # atno 6909 bound_to 6896
  146.2083  139.8068  142.8709 H   0  0  0  0  0  0  0  0  0  0  0  0  # atno 7974 bound_to 7965
  156.2320  140.1866  156.7217 H   0  0  0  0  0  0  0  0  0  0  0  0  # atno 8008 bound_to 7997
  154.6040  140.0632  156.9434 H   0  0  0  0  0  0  0  0  0  0  0  0  # atno 8009 bound_to 7997
  155.2127  140.3301  155.4329 H   0  0  0  0  0  0  0  0  0  0  0  0  # atno 8010 bound_to 7997
  140.0714  144.5150  150.7225 H   0  0  0  0  0  0  0  0  0  0  0  0  # atno 10167 bound_to 10162
  157.2898  130.7297  149.6604 H   0  0  0  0  0  0  0  0  0  0  0  0  # atno 10718 bound_to 10713
  153.4882  135.3664  155.2478 H   0  0  0  0  0  0  0  0  0  0  0  0  # atno 10763 bound_to 10752
  154.8753  135.3970  154.3620 H   0  0  0  0  0  0  0  0  0  0  0  0  # atno 10764 bound_to 10752
  153.4235  135.7081  153.6343 H   0  0  0  0  0  0  0  0  0  0  0  0  # atno 10765 bound_to 10752
  139.8782  134.8943  156.4137 H   0  0  0  0  0  0  0  0  0  0  0  0  # atno 11005 bound_to 11000
  145.3238  141.0250  143.3485 LP  0  0  0  0  0  0  0  0  0  0  0  0  # atno 17320 bound_to 7965
  144.8848  139.4855  143.6706 LP  0  0  0  0  0  0  0  0  0  0  0  0  # atno 17321 bound_to 7965
  140.7124  143.2516  151.4541 LP  0  0  0  0  0  0  0  0  0  0  0  0  # atno 17342 bound_to 10162
  139.5834  144.1659  152.1997 LP  0  0  0  0  0  0  0  0  0  0  0  0  # atno 17343 bound_to 10162
  155.9667  130.4312  150.4911 LP  0  0  0  0  0  0  0  0  0  0  0  0  # atno 17370 bound_to 10713
  157.2871  131.0619  151.2159 LP  0  0  0  0  0  0  0  0  0  0  0  0  # atno 17371 bound_to 10713
  140.9182  133.7663  155.9874 LP  0  0  0  0  0  0  0  0  0  0  0  0  # atno 17394 bound_to 11000
  140.8469  134.3000  157.5291 LP  0  0  0  0  0  0  0  0  0  0  0  0  # atno 17395 bound_to 11000

$$$$
