AV-unprocessed.smi:1120|AV-procd|sdf|4823|dock4
  -GOLD-   22720 3383D 1   1.00000     0.00000
 Structure written by MMmdl.
 47 48  0  0  0  0  0  0  0  0  2 V2000
  151.0042  141.8639  156.8390 C   0  0  0  0  0  0  0  0  0  0  0  0
  151.3376  140.6809  155.9199 C   0  0  2  0  0  0  0  0  0  0  0  0
  150.0830  140.1452  155.1930 C   0  0  0  0  0  0  0  0  0  0  0  0
  150.3820  138.9189  154.2915 C   0  0  0  0  0  0  0  0  0  0  0  0
  151.0841  137.7477  155.0224 C   0  0  2  0  0  0  0  0  0  0  0  0
  150.1486  137.0998  155.9327 N   0  5  0  0  0  0  0  0  0  0  0  0
  150.5866  135.7576  156.7323 S   0  0  0  0  0  0  0  0  0  0  0  0
  152.0488  135.5971  156.7778 O   0  0  0  0  0  0  0  0  0  0  0  0
  149.8575  135.5800  157.9996 O   0  0  0  0  0  0  0  0  0  0  0  0
  149.9812  134.4484  155.5722 C   0  0  0  0  0  0  0  0  0  0  0  0
  148.4623  134.5099  155.4010 C   0  0  0  0  0  0  0  0  0  0  0  0
  147.7252  134.3268  156.3698 O   0  0  0  0  0  0  0  0  0  0  0  0
  148.0070  134.7910  154.1701 N   0  0  0  0  0  0  0  0  0  0  0  0
  146.6020  134.9073  153.8004 C   0  0  0  0  0  0  0  0  0  0  0  0
  145.8828  133.5507  153.8825 C   0  0  0  0  0  0  0  0  0  0  0  0
  145.4955  133.0216  152.5147 C   0  0  0  0  0  0  0  0  0  0  0  0
  144.3256  133.4775  151.8705 C   0  0  0  0  0  0  0  0  0  0  0  0
  144.0084  132.9506  150.6035 C   0  0  0  0  0  0  0  0  0  0  0  0
  144.8673  131.9914  150.0335 C   0  0  0  0  0  0  0  0  0  0  0  0
  146.0100  131.6001  150.7590 C   0  0  0  0  0  0  0  0  0  0  0  0
  146.3240  132.0997  151.9735 N   0  0  0  0  0  0  0  0  0  0  0  0
  152.3124  138.2952  155.7943 C   0  0  0  0  0  0  0  0  0  0  0  0
  152.0042  139.5205  156.6932 C   0  0  0  0  0  0  0  0  0  0  0  0
  150.3008  141.5728  157.6197 H   0  0  0  0  0  0  0  0  0  0  0  0
  150.5564  142.6834  156.2764 H   0  0  0  0  0  0  0  0  0  0  0  0
  151.9013  142.2482  157.3247 H   0  0  0  0  0  0  0  0  0  0  0  0
  152.0418  141.0331  155.1646 H   0  0  0  0  0  0  0  0  0  0  0  0
  149.3150  139.8902  155.9265 H   0  0  0  0  0  0  0  0  0  0  0  0
  149.6524  140.9384  154.5811 H   0  0  0  0  0  0  0  0  0  0  0  0
  149.4603  138.5706  153.8234 H   0  0  0  0  0  0  0  0  0  0  0  0
  151.0223  139.2463  153.4715 H   0  0  0  0  0  0  0  0  0  0  0  0
  151.4354  137.0455  154.2654 H   0  0  0  0  0  0  0  0  0  0  0  0
  150.4903  134.5626  154.6151 H   0  0  0  0  0  0  0  0  0  0  0  0
  150.2636  133.4790  155.9825 H   0  0  0  0  0  0  0  0  0  0  0  0
  148.6845  134.9138  153.4315 H   0  0  0  0  0  0  0  0  0  0  0  0
  146.1354  135.6195  154.4811 H   0  0  0  0  0  0  0  0  0  0  0  0
  146.5109  135.3294  152.7983 H   0  0  0  0  0  0  0  0  0  0  0  0
  146.5180  132.8171  154.3809 H   0  0  0  0  0  0  0  0  0  0  0  0
  144.9836  133.6409  154.4937 H   0  0  0  0  0  0  0  0  0  0  0  0
  143.6845  134.2119  152.3359 H   0  0  0  0  0  0  0  0  0  0  0  0
  143.1223  133.2761  150.0788 H   0  0  0  0  0  0  0  0  0  0  0  0
  144.6555  131.5653  149.0640 H   0  0  0  0  0  0  0  0  0  0  0  0
  146.6907  130.8669  150.3523 H   0  0  0  0  0  0  0  0  0  0  0  0
  152.7720  137.5077  156.3914 H   0  0  0  0  0  0  0  0  0  0  0  0
  153.0706  138.5885  155.0675 H   0  0  0  0  0  0  0  0  0  0  0  0
  152.9331  139.8715  157.1437 H   0  0  0  0  0  0  0  0  0  0  0  0
  151.3669  139.2200  157.5278 H   0  0  0  0  0  0  0  0  0  0  0  0
  1  2  1  0  0  0  0
  1 24  1  0  0  0  0
  1 25  1  0  0  0  0
  1 26  1  0  0  0  0
  2 23  1  0  0  0  0
  2  3  1  0  0  0  0
  2 27  1  0  0  0  0
  3  4  1  0  0  0  0
  3 28  1  0  0  0  0
  3 29  1  0  0  0  0
  4  5  1  0  0  0  0
  4 30  1  0  0  0  0
  4 31  1  0  0  0  0
  5  6  1  0  0  0  0
  5 22  1  0  0  0  0
  5 32  1  0  0  0  0
  6  7  1  0  0  0  0
  7  8  2  0  0  0  0
  7  9  2  0  0  0  0
  7 10  1  0  0  0  0
 10 11  1  0  0  0  0
 10 33  1  0  0  0  0
 10 34  1  0  0  0  0
 11 12  2  0  0  0  0
 11 13  1  0  0  0  0
 13 14  1  0  0  0  0
 13 35  1  0  0  0  0
 14 15  1  0  0  0  0
 14 36  1  0  0  0  0
 14 37  1  0  0  0  0
 15 16  1  0  0  0  0
 15 38  1  0  0  0  0
 15 39  1  0  0  0  0
 16 21  1  0  0  0  0
 16 17  2  0  0  0  0
 17 18  1  0  0  0  0
 17 40  1  0  0  0  0
 18 19  2  0  0  0  0
 18 41  1  0  0  0  0
 19 20  1  0  0  0  0
 19 42  1  0  0  0  0
 20 21  2  0  0  0  0
 20 43  1  0  0  0  0
 22 23  1  0  0  0  0
 22 44  1  0  0  0  0
 22 45  1  0  0  0  0
 23 46  1  0  0  0  0
 23 47  1  0  0  0  0
M  CHG  1   6  -1
M  END
> <s_m_source_file>
AV-unprocessed.smi

> <i_m_source_file_index>
1120

> <i_lp_mmshare_version>
43012

> <i_f3d_flags>
0

> <s_epik_input>
W0NIM11bQ0BASF0xW0NIMl1bQ0gyXVtDQEhdKFtDSDJdW0NIMl0xKVtOSF1TKD1PKSg9TylbQ0gyXUMoPU8pW05IXVtDSDJdW0NIMl1jMltjSF1bY0hdW2NIXVtjSF1uMg==

> <s_epik_cmdline>
J2VwaWtfcHl0aG9uJywgJy1waCcsICc3LjAnLCAnLXRuJywgJzgnLCAnLW1hJywgJzIwMCcsICctbWV0YWxfYmluZGluZycsICctaW1hZScsICc8aW5maWxlLm1hZT4nLCAnLW9tYWUnLCAnPG91dGZpbGUubWFlPic=

> <r_epik_Ionization_Penalty>
5.68623

> <r_epik_Ionization_Penalty_Charging>
5.66033

> <r_epik_Ionization_Penalty_Neutral>
0.0259005

> <r_epik_State_Penalty>
5.67764

> <r_epik_Charging_Adjusted_Penalty>
11.338

> <i_epik_Tot_Q>
-1

> <i_epik_Tot_abs_Q>
1

> <r_epik_Metal_State_Penalty>
1.68319

> <b_epik_Metal_Only>
1

> <s_lp_Force_Field>
OPLS_2005

> <r_lp_Energy>
10.049

> <b_lp_Chiralities_Consistent>
1

> <s_lp_Variant>
AV-unprocessed.smi:1120-6

> <Gold.Version>
5.8.1

> <Gold.Id.Protein>
6NUR|6NUR_protein|mol2

> <Gold.PLP.Fitness>
48.1955

> <Gold.PLP.PLP>
-38.6356

> <Gold.PLP.part.hbond>
-3.0000

> <Gold.PLP.part.metal>
0.0000

> <Gold.PLP.part.buried>
-5.1182

> <Gold.PLP.part.nonpolar>
-31.1633

> <Gold.PLP.part.repulsive>
0.1731

> <Gold.PLP.ligand.clash>
0.0000

> <Gold.PLP.ligand.torsion>
1.2245

> <Gold.PLP.Chemscore.Hbond>
2.6570

> <Gold.PLP.Chemscore.CHOScore>
1.0000

> <Gold.PLP.Chemscore.Metal>
0.0000

> <Gold.Chemscore.Hbonds>
donor molecule, donor type, donor heavy atom, donor atom, acceptor molecule, acceptor atom, score
      L1  H    13    35       P1  7948  0.75
      P1  H  6896  6907       L1     9  0.96
      P1  H 10752 10765       L1     8  1.00
      L1  C    20    43       P1 10747  1.00

> <Gold.PLP.Chemscore.Internal.Correction>
1.0379

> <Gold.Rescore>
     Score         DG    S(hbond)    S(metal)    S(lipo)     H(rot)  DE(clash)    DE(int)     intcor
     18.06     -20.54       2.79        0.00      89.65       1.86       0.03       2.45       ----

> <Gold.Chemscore.Fitness>
18.0622

> <Gold.Chemscore.DG>
-20.5352

> <Gold.Chemscore.ZeroCoef>
-5.4800

> <Gold.Chemscore.Hbond>
2.7930

> <Gold.Chemscore.Metal>
0.0000

> <Gold.Chemscore.Lipo>
89.6467

> <Gold.Chemscore.Internal_Hbond>
0.0000

> <Gold.Chemscore.DEClash>
0.0270

> <Gold.Chemscore.DEInternal>
2.4460

> <Gold.Chemscore.Rot>
1.8602

> <Gold.Chemscore.Internal.Correction>
   9.000000E+99

> <Gold.Chemscore.Hbonds>
donor molecule, donor type, donor heavy atom, donor atom, acceptor molecule, acceptor atom, score
      L1  H    13    35       P1  7948  0.42
      P1  H  6896  6907       L1     9  0.86
      P1  H 10752 10765       L1     8  0.94

> <Gold.Chemscore.Hbond.Weighted>
-9.3287

> <Gold.Chemscore.Metal.Weighted>
-0.0000

> <Gold.Chemscore.Lipo.Weighted>
-10.4887

> <Gold.Chemscore.Internal_Hbond.Weighted>
0.0000

> <Gold.Chemscore.DEClash.Weighted>
0.0270

> <Gold.Chemscore.DEInternal.Weighted>
2.4460

> <Gold.Chemscore.Rot.Weighted>
4.7622

> <Gold.Chemscore.Internal.Correction.Weighted>
   9.000000E+99

> <Gold.Protein.RotatedTorsions>
[ 6907 6896 6895 6894 ] final  -75.75 input  -60.11 | X-H torsion
[ 7974 7965 7964 7962 ] final   46.23 input  175.53 | X-H torsion
[ 8008 7997 7996 7995 ] final  112.19 input   59.86 | X-H torsion
[ 10167 10162 10161 10158 ] final    4.32 input  -65.29 | X-H torsion
[ 10718 10713 10712 10709 ] final  176.86 input   66.30 | X-H torsion
[ 10763 10752 10751 10750 ] final -134.97 input  -60.55 | X-H torsion
[ 11005 11000 10999 10996 ] final -140.95 input  -57.11 | X-H torsion

> <Gold.Protein.ActiveResidues>
 VAL166  LYS551  ARG553  GLY616  TRP617  ASP618  TYR619  PRO620  LYS621  CYS622 
 ASP623  PHE694  ASN695  SER759  ASP760  ASP761  ALA762  ILE779  LEU786  VAL792 
 PHE793  MET794  SER795  GLU796  ALA797  LYS798  CYS799  TRP800  GLU811  SER814 

> <Gold.Protein.RotatedAtoms>
  150.7049  134.4675  159.5409 H   0  0  0  0  0  0  0  0  0  0  0  0  # atno 6907 bound_to 6896
  152.2337  134.8293  160.0479 H   0  0  0  0  0  0  0  0  0  0  0  0  # atno 6908 bound_to 6896
  151.9100  133.3524  159.3897 H   0  0  0  0  0  0  0  0  0  0  0  0  # atno 6909 bound_to 6896
  146.0409  139.4878  142.9779 H   0  0  0  0  0  0  0  0  0  0  0  0  # atno 7974 bound_to 7965
  156.2175  140.3004  155.9875 H   0  0  0  0  0  0  0  0  0  0  0  0  # atno 8008 bound_to 7997
  155.2567  140.0428  157.3010 H   0  0  0  0  0  0  0  0  0  0  0  0  # atno 8009 bound_to 7997
  154.5790  140.2370  155.8089 H   0  0  0  0  0  0  0  0  0  0  0  0  # atno 8010 bound_to 7997
  140.6541  143.7472  150.7623 H   0  0  0  0  0  0  0  0  0  0  0  0  # atno 10167 bound_to 10162
  156.9139  130.9918  151.3016 H   0  0  0  0  0  0  0  0  0  0  0  0  # atno 10718 bound_to 10713
  154.8711  135.3718  154.4822 H   0  0  0  0  0  0  0  0  0  0  0  0  # atno 10763 bound_to 10752
  153.5475  135.7025  153.5612 H   0  0  0  0  0  0  0  0  0  0  0  0  # atno 10764 bound_to 10752
  153.3746  135.4012  155.1777 H   0  0  0  0  0  0  0  0  0  0  0  0  # atno 10765 bound_to 10752
  140.8372  134.2445  157.4828 H   0  0  0  0  0  0  0  0  0  0  0  0  # atno 11005 bound_to 11000
  145.6886  141.0170  143.1567 LP  0  0  0  0  0  0  0  0  0  0  0  0  # atno 17320 bound_to 7965
  144.7074  139.8506  143.7425 LP  0  0  0  0  0  0  0  0  0  0  0  0  # atno 17321 bound_to 7965
  140.1129  143.4683  152.2359 LP  0  0  0  0  0  0  0  0  0  0  0  0  # atno 17342 bound_to 10162
  139.5760  144.7487  151.3764 LP  0  0  0  0  0  0  0  0  0  0  0  0  # atno 17343 bound_to 10162
  157.5950  130.8471  149.8716 LP  0  0  0  0  0  0  0  0  0  0  0  0  # atno 17370 bound_to 10713
  156.0523  130.3715  150.1173 LP  0  0  0  0  0  0  0  0  0  0  0  0  # atno 17371 bound_to 10713
  139.8704  134.9617  156.4404 LP  0  0  0  0  0  0  0  0  0  0  0  0  # atno 17394 bound_to 11000
  140.8934  133.7831  155.9598 LP  0  0  0  0  0  0  0  0  0  0  0  0  # atno 17395 bound_to 11000

$$$$
