AV-unprocessed.smi:1005|AV-procd|sdf|4381|dock5
  -GOLD-   22720 2303D 1   1.00000     0.00000
 Structure written by MMmdl.
 58 60  0  0  0  0  0  0  0  0  4 V2000
  151.8870  140.9099  159.3081 C   0  0  0  0  0  0  0  0  0  0  0  0
  151.0829  140.6514  158.0454 C   0  0  0  0  0  0  0  0  0  0  0  0
  150.6655  141.7585  157.2734 C   0  0  0  0  0  0  0  0  0  0  0  0
  149.9322  141.4902  156.1238 C   0  0  0  0  0  0  0  0  0  0  0  0
  149.3867  142.3490  155.1679 N   0  3  0  0  0  0  0  0  0  0  0  0
  148.7497  141.6190  154.2114 C   0  0  0  0  0  0  0  0  0  0  0  0
  148.8791  140.3050  154.5420 N   0  0  0  0  0  0  0  0  0  0  0  0
  148.3773  139.1106  153.8465 C   0  0  0  0  0  0  0  0  0  0  0  0
  146.8711  139.1918  153.5271 C   0  0  1  0  0  0  0  0  0  0  0  0
  146.6377  140.2301  152.5947 O   0  0  0  0  0  0  0  0  0  0  0  0
  146.3355  137.8708  152.9396 C   0  0  0  0  0  0  0  0  0  0  0  0
  144.8490  137.8025  152.9684 N   0  3  2  0  0  0  0  0  0  0  0  0
  144.2504  137.8642  154.3260 C   0  0  0  0  0  0  0  0  0  0  0  0
  144.3302  136.5026  155.0426 C   0  0  0  0  0  0  0  0  0  0  0  0
  143.7395  135.4943  154.2313 O   0  0  0  0  0  0  0  0  0  0  0  0
  144.4038  135.3381  152.9815 C   0  0  1  0  0  0  0  0  0  0  0  0
  143.7335  134.1740  152.2265 C   0  0  0  0  0  0  0  0  0  0  0  0
  144.4051  133.8491  150.9413 N   0  3  0  0  0  0  0  0  0  0  0  0
  143.8778  132.6277  150.2895 C   0  0  0  0  0  0  0  0  0  0  0  0
  145.8770  133.7916  151.0848 C   0  0  0  0  0  0  0  0  0  0  0  0
  144.2841  136.6649  152.2008 C   0  0  0  0  0  0  0  0  0  0  0  0
  149.6093  140.1765  155.7308 C   0  0  0  0  0  0  0  0  0  0  0  0
  150.0130  139.0742  156.4815 C   0  0  0  0  0  0  0  0  0  0  0  0
  150.7606  139.3261  157.6542 C   0  0  0  0  0  0  0  0  0  0  0  0
  151.2153  138.1430  158.4920 C   0  0  0  0  0  0  0  0  0  0  0  0
  152.0445  141.9769  159.4693 H   0  0  0  0  0  0  0  0  0  0  0  0
  152.8664  140.4354  159.2428 H   0  0  0  0  0  0  0  0  0  0  0  0
  151.3671  140.5149  160.1812 H   0  0  0  0  0  0  0  0  0  0  0  0
  150.9077  142.7702  157.5649 H   0  0  0  0  0  0  0  0  0  0  0  0
  148.2352  142.0132  153.3468 H   0  0  0  0  0  0  0  0  0  0  0  0
  148.9679  138.9411  152.9460 H   0  0  0  0  0  0  0  0  0  0  0  0
  148.5703  138.2589  154.5001 H   0  0  0  0  0  0  0  0  0  0  0  0
  146.3383  139.4400  154.4448 H   0  0  0  0  0  0  0  0  0  0  0  0
  145.7137  140.2618  152.3984 H   0  0  0  0  0  0  0  0  0  0  0  0
  146.6908  137.7837  151.9116 H   0  0  0  0  0  0  0  0  0  0  0  0
  146.7571  137.0195  153.4742 H   0  0  0  0  0  0  0  0  0  0  0  0
  144.7171  138.6422  154.9291 H   0  0  0  0  0  0  0  0  0  0  0  0
  143.2028  138.1492  154.2201 H   0  0  0  0  0  0  0  0  0  0  0  0
  145.3601  136.2360  155.2827 H   0  0  0  0  0  0  0  0  0  0  0  0
  143.7916  136.5492  155.9892 H   0  0  0  0  0  0  0  0  0  0  0  0
  145.4578  135.1151  153.1490 H   0  0  0  0  0  0  0  0  0  0  0  0
  143.7489  133.2947  152.8727 H   0  0  0  0  0  0  0  0  0  0  0  0
  142.6823  134.3962  152.0371 H   0  0  0  0  0  0  0  0  0  0  0  0
  144.0133  131.7536  150.9280 H   0  0  0  0  0  0  0  0  0  0  0  0
  144.3972  132.4418  149.3487 H   0  0  0  0  0  0  0  0  0  0  0  0
  142.8180  132.7211  150.0561 H   0  0  0  0  0  0  0  0  0  0  0  0
  146.1732  132.9919  151.7651 H   0  0  0  0  0  0  0  0  0  0  0  0
  146.2669  134.7332  151.4727 H   0  0  0  0  0  0  0  0  0  0  0  0
  146.3531  133.6129  150.1199 H   0  0  0  0  0  0  0  0  0  0  0  0
  143.2321  136.8791  152.0062 H   0  0  0  0  0  0  0  0  0  0  0  0
  144.7631  136.5892  151.2239 H   0  0  0  0  0  0  0  0  0  0  0  0
  149.7723  138.0641  156.1868 H   0  0  0  0  0  0  0  0  0  0  0  0
  150.8985  137.1970  158.0521 H   0  0  0  0  0  0  0  0  0  0  0  0
  150.7948  138.2010  159.4962 H   0  0  0  0  0  0  0  0  0  0  0  0
  152.3024  138.1245  158.5717 H   0  0  0  0  0  0  0  0  0  0  0  0
  144.2194  134.6201  150.3152 H   0  0  0  0  0  0  0  0  0  0  0  0
  144.5471  138.6361  152.4830 H   0  0  0  0  0  0  0  0  0  0  0  0
  149.4438  143.3596  155.1668 H   0  0  0  0  0  0  0  0  0  0  0  0
  1  2  1  0  0  0  0
  1 26  1  0  0  0  0
  1 27  1  0  0  0  0
  1 28  1  0  0  0  0
  2 24  1  0  0  0  0
  2  3  2  0  0  0  0
  3  4  1  0  0  0  0
  3 29  1  0  0  0  0
  4 22  2  0  0  0  0
  4  5  1  0  0  0  0
  5  6  2  0  0  0  0
  5 58  1  0  0  0  0
  6  7  1  0  0  0  0
  6 30  1  0  0  0  0
  7  8  1  0  0  0  0
  7 22  1  0  0  0  0
  8  9  1  0  0  0  0
  8 31  1  0  0  0  0
  8 32  1  0  0  0  0
  9 10  1  0  0  0  0
  9 11  1  0  0  0  0
  9 33  1  0  0  0  0
 10 34  1  0  0  0  0
 11 12  1  0  0  0  0
 11 35  1  0  0  0  0
 11 36  1  0  0  0  0
 12 21  1  0  0  0  0
 12 13  1  0  0  0  0
 12 57  1  0  0  0  0
 13 14  1  0  0  0  0
 13 37  1  0  0  0  0
 13 38  1  0  0  0  0
 14 15  1  0  0  0  0
 14 39  1  0  0  0  0
 14 40  1  0  0  0  0
 15 16  1  0  0  0  0
 16 17  1  0  0  0  0
 16 21  1  0  0  0  0
 16 41  1  0  0  0  0
 17 18  1  0  0  0  0
 17 42  1  0  0  0  0
 17 43  1  0  0  0  0
 18 19  1  0  0  0  0
 18 20  1  0  0  0  0
 18 56  1  0  0  0  0
 19 44  1  0  0  0  0
 19 45  1  0  0  0  0
 19 46  1  0  0  0  0
 20 47  1  0  0  0  0
 20 48  1  0  0  0  0
 20 49  1  0  0  0  0
 21 50  1  0  0  0  0
 21 51  1  0  0  0  0
 22 23  1  0  0  0  0
 23 24  2  0  0  0  0
 23 52  1  0  0  0  0
 24 25  1  0  0  0  0
 25 53  1  0  0  0  0
 25 54  1  0  0  0  0
 25 55  1  0  0  0  0
M  CHG  1   5   1
M  CHG  1  12   1
M  CHG  1  18   1
M  END
> <s_m_source_file>
AV-unprocessed.smi

> <i_m_source_file_index>
1005

> <i_lp_mmshare_version>
43012

> <i_f3d_flags>
0

> <s_epik_input>
W0NIM11jKFtjSF0xKWMoW0NIM10pW2NIXWMoYzEyKW4oW2NIXW4yKVtDSDJdW0NASF0oW09IXSlbQ0gyXU4zW0NIMl1bQ0gyXU9bQ0BIXShbQ0gyXTMpW0NIMl1OKFtDSDNdKVtDSDNd

> <s_epik_cmdline>
J2VwaWtfcHl0aG9uJywgJy1waCcsICc3LjAnLCAnLXRuJywgJzgnLCAnLW1hJywgJzIwMCcsICctbWV0YWxfYmluZGluZycsICctaW1hZScsICc8aW5maWxlLm1hZT4nLCAnLW9tYWUnLCAnPG91dGZpbGUubWFlPic=

> <r_epik_Ionization_Penalty>
2.30802

> <r_epik_Ionization_Penalty_Charging>
2.30798

> <r_epik_Ionization_Penalty_Neutral>
3.4851e-05

> <r_epik_State_Penalty>
2.52618

> <r_epik_Charging_Adjusted_Penalty>
4.83416

> <i_epik_Tot_Q>
3

> <i_epik_Tot_abs_Q>
3

> <r_epik_Metal_State_Penalty>
6.53149

> <b_epik_Metal_Only>
0

> <s_lp_Force_Field>
OPLS_2005

> <r_lp_Energy>
46.6076

> <b_lp_Chiralities_Consistent>
1

> <s_lp_Variant>
AV-unprocessed.smi:1005-20

> <Gold.Version>
5.8.1

> <Gold.Id.Protein>
6NUR|6NUR_protein|mol2

> <Gold.PLP.Fitness>
51.2075

> <Gold.PLP.PLP>
-36.6304

> <Gold.PLP.part.hbond>
-2.9160

> <Gold.PLP.part.metal>
0.0000

> <Gold.PLP.part.buried>
-3.7259

> <Gold.PLP.part.nonpolar>
-30.3482

> <Gold.PLP.part.repulsive>
0.2786

> <Gold.PLP.ligand.clash>
0.0000

> <Gold.PLP.ligand.torsion>
0.2952

> <Gold.PLP.Chemscore.Hbond>
5.0000

> <Gold.PLP.Chemscore.CHOScore>
0.0000

> <Gold.PLP.Chemscore.Metal>
0.0000

> <Gold.Chemscore.Hbonds>
donor molecule, donor type, donor heavy atom, donor atom, acceptor molecule, acceptor atom, score
      L1  H     5    58       P1  8028  1.98
      L1  H    10    34       P1 10175  0.99
      L1  H    12    57       P1 10175  2.00

> <Gold.PLP.Chemscore.Internal.Correction>
0.1675

> <Gold.Rescore>
     Score         DG    S(hbond)    S(metal)    S(lipo)     H(rot)  DE(clash)    DE(int)     intcor
     17.78     -18.49       2.86        0.00      85.46       2.56       0.57       0.14       ----

> <Gold.Chemscore.Fitness>
17.7802

> <Gold.Chemscore.DG>
-18.4893

> <Gold.Chemscore.ZeroCoef>
-5.4800

> <Gold.Chemscore.Hbond>
2.8610

> <Gold.Chemscore.Metal>
0.0000

> <Gold.Chemscore.Lipo>
85.4576

> <Gold.Chemscore.Internal_Hbond>
0.0000

> <Gold.Chemscore.DEClash>
0.5719

> <Gold.Chemscore.DEInternal>
0.1372

> <Gold.Chemscore.Rot>
2.5566

> <Gold.Chemscore.Internal.Correction>
   9.000000E+99

> <Gold.Chemscore.Hbonds>
donor molecule, donor type, donor heavy atom, donor atom, acceptor molecule, acceptor atom, score
      L1  H     5    58       P1  8028  0.89
      L1  H    10    34       P1 10175  0.60
      L1  H    12    57       P1 10175  0.92

> <Gold.Chemscore.Hbond.Weighted>
-9.5557

> <Gold.Chemscore.Metal.Weighted>
-0.0000

> <Gold.Chemscore.Lipo.Weighted>
-9.9985

> <Gold.Chemscore.Internal_Hbond.Weighted>
0.0000

> <Gold.Chemscore.DEClash.Weighted>
0.5719

> <Gold.Chemscore.DEInternal.Weighted>
0.1372

> <Gold.Chemscore.Rot.Weighted>
6.5450

> <Gold.Chemscore.Internal.Correction.Weighted>
   9.000000E+99

> <Gold.Protein.RotatedTorsions>
[ 6907 6896 6895 6894 ] final -111.73 input  -60.11 | X-H torsion
[ 7974 7965 7964 7962 ] final  -72.28 input  175.53 | X-H torsion
[ 8008 7997 7996 7995 ] final  141.87 input   59.86 | X-H torsion
[ 10167 10162 10161 10158 ] final -157.41 input  -65.29 | X-H torsion
[ 10718 10713 10712 10709 ] final  157.61 input   66.30 | X-H torsion
[ 10763 10752 10751 10750 ] final  -38.43 input  -60.55 | X-H torsion
[ 11005 11000 10999 10996 ] final  -12.48 input  -57.11 | X-H torsion

> <Gold.Protein.ActiveResidues>
 VAL166  LYS551  ARG553  GLY616  TRP617  ASP618  TYR619  PRO620  LYS621  CYS622 
 ASP623  PHE694  ASN695  SER759  ASP760  ASP761  ALA762  ILE779  LEU786  VAL792 
 PHE793  MET794  SER795  GLU796  ALA797  LYS798  CYS799  TRP800  GLU811  SER814 

> <Gold.Protein.RotatedAtoms>
  150.7710  133.9193  159.3392 H   0  0  0  0  0  0  0  0  0  0  0  0  # atno 6907 bound_to 6896
  151.7080  135.0916  160.0272 H   0  0  0  0  0  0  0  0  0  0  0  0  # atno 6908 bound_to 6896
  152.3727  133.6402  159.6135 H   0  0  0  0  0  0  0  0  0  0  0  0  # atno 6909 bound_to 6896
  145.6672  140.9233  143.0902 H   0  0  0  0  0  0  0  0  0  0  0  0  # atno 7974 bound_to 7965
  156.2959  140.2304  156.4635 H   0  0  0  0  0  0  0  0  0  0  0  0  # atno 8008 bound_to 7997
  154.7997  140.0449  157.1284 H   0  0  0  0  0  0  0  0  0  0  0  0  # atno 8009 bound_to 7997
  154.9548  140.3046  155.5062 H   0  0  0  0  0  0  0  0  0  0  0  0  # atno 8010 bound_to 7997
  139.6773  143.9642  152.2317 H   0  0  0  0  0  0  0  0  0  0  0  0  # atno 10167 bound_to 10162
  157.1891  131.0650  151.2089 H   0  0  0  0  0  0  0  0  0  0  0  0  # atno 10718 bound_to 10713
  153.9127  135.6790  153.4750 H   0  0  0  0  0  0  0  0  0  0  0  0  # atno 10763 bound_to 10752
  153.1070  135.4801  154.8965 H   0  0  0  0  0  0  0  0  0  0  0  0  # atno 10764 bound_to 10752
  154.7518  135.3187  154.8498 H   0  0  0  0  0  0  0  0  0  0  0  0  # atno 10765 bound_to 10752
  140.7662  133.8475  155.9167 H   0  0  0  0  0  0  0  0  0  0  0  0  # atno 11005 bound_to 11000
  144.7069  139.8526  143.7427 LP  0  0  0  0  0  0  0  0  0  0  0  0  # atno 17320 bound_to 7965
  146.1076  139.4077  143.0308 LP  0  0  0  0  0  0  0  0  0  0  0  0  # atno 17321 bound_to 7965
  139.9422  144.6674  150.8255 LP  0  0  0  0  0  0  0  0  0  0  0  0  # atno 17342 bound_to 10162
  140.7640  143.3237  151.2564 LP  0  0  0  0  0  0  0  0  0  0  0  0  # atno 17343 bound_to 10162
  157.3878  130.7265  149.6675 LP  0  0  0  0  0  0  0  0  0  0  0  0  # atno 17370 bound_to 10713
  155.9714  130.4155  150.4184 LP  0  0  0  0  0  0  0  0  0  0  0  0  # atno 17371 bound_to 10713
  140.9617  134.1647  157.4648 LP  0  0  0  0  0  0  0  0  0  0  0  0  # atno 17394 bound_to 11000
  139.8763  134.9947  156.5707 LP  0  0  0  0  0  0  0  0  0  0  0  0  # atno 17395 bound_to 11000

$$$$
