AV-unprocessed.smi:3219|AV-procd|sdf|12296|dock6
  -GOLD-   2272018133D 1   1.00000     0.00000
 Structure written by MMmdl.
 41 42  0  0  0  0  0  0  0  0  2 V2000
  146.8401  141.6610  154.5786 C   0  0  0  0  0  0  0  0  0  0  0  0
  147.9050  140.6181  154.4613 C   0  0  0  0  0  0  0  0  0  0  0  0
  147.9087  139.4073  153.8205 C   0  0  0  0  0  0  0  0  0  0  0  0
  146.8176  138.7504  153.0147 C   0  0  0  0  0  0  0  0  0  0  0  0
  146.3998  137.3976  153.6107 C   0  0  0  0  0  0  0  0  0  0  0  0
  146.4910  136.3184  152.6075 N   0  3  0  0  0  0  0  0  0  0  0  0
  145.5293  136.4362  151.4950 C   0  0  0  0  0  0  0  0  0  0  0  0
  145.3676  135.0972  150.7533 C   0  0  1  0  0  0  0  0  0  0  0  0
  146.7267  134.3892  150.5369 C   0  0  0  0  0  0  0  0  0  0  0  0
  146.5713  132.9520  150.0724 C   0  0  0  0  0  0  0  0  0  0  0  0
  145.4149  132.2720  150.1438 C   0  0  0  0  0  0  0  0  0  0  0  0
  144.1346  132.8627  150.7040 C   0  0  0  0  0  0  0  0  0  0  0  0
  144.3881  134.1629  151.4895 C   0  0  0  0  0  0  0  0  0  0  0  0
  149.2109  138.8935  154.0797 C   0  0  0  0  0  0  0  0  0  0  0  0
  149.9499  139.7114  154.8066 N   0  0  0  0  0  0  0  0  0  0  0  0
  149.1489  140.7700  155.0443 N   0  0  0  0  0  0  0  0  0  0  0  0
  149.6514  141.8796  155.8312 C   0  0  0  0  0  0  0  0  0  0  0  0
  145.9916  141.4372  153.9326 H   0  0  0  0  0  0  0  0  0  0  0  0
  147.2225  142.6420  154.2953 H   0  0  0  0  0  0  0  0  0  0  0  0
  146.4734  141.7236  155.6031 H   0  0  0  0  0  0  0  0  0  0  0  0
  145.9413  139.3978  152.9703 H   0  0  0  0  0  0  0  0  0  0  0  0
  147.1256  138.6111  151.9779 H   0  0  0  0  0  0  0  0  0  0  0  0
  147.0366  137.1570  154.4635 H   0  0  0  0  0  0  0  0  0  0  0  0
  145.3756  137.4541  153.9812 H   0  0  0  0  0  0  0  0  0  0  0  0
  147.4269  136.3046  152.2282 H   0  0  0  0  0  0  0  0  0  0  0  0
  144.5652  136.7745  151.8778 H   0  0  0  0  0  0  0  0  0  0  0  0
  145.8879  137.2039  150.8080 H   0  0  0  0  0  0  0  0  0  0  0  0
  144.9344  135.3059  149.7734 H   0  0  0  0  0  0  0  0  0  0  0  0
  147.3194  134.9311  149.7990 H   0  0  0  0  0  0  0  0  0  0  0  0
  147.3054  134.3779  151.4614 H   0  0  0  0  0  0  0  0  0  0  0  0
  147.4537  132.4689  149.6787 H   0  0  0  0  0  0  0  0  0  0  0  0
  145.3659  131.2548  149.7837 H   0  0  0  0  0  0  0  0  0  0  0  0
  143.4560  133.0500  149.8711 H   0  0  0  0  0  0  0  0  0  0  0  0
  143.6509  132.1280  151.3484 H   0  0  0  0  0  0  0  0  0  0  0  0
  144.7957  133.9174  152.4714 H   0  0  0  0  0  0  0  0  0  0  0  0
  143.4381  134.6673  151.6699 H   0  0  0  0  0  0  0  0  0  0  0  0
  149.6400  137.9565  153.7560 H   0  0  0  0  0  0  0  0  0  0  0  0
  148.9966  142.0494  156.6861 H   0  0  0  0  0  0  0  0  0  0  0  0
  149.6786  142.7807  155.2180 H   0  0  0  0  0  0  0  0  0  0  0  0
  150.6586  141.6701  156.1950 H   0  0  0  0  0  0  0  0  0  0  0  0
  146.3210  135.4404  153.0777 H   0  0  0  0  0  0  0  0  0  0  0  0
  1  2  1  0  0  0  0
  1 18  1  0  0  0  0
  1 19  1  0  0  0  0
  1 20  1  0  0  0  0
  2 16  1  0  0  0  0
  2  3  2  0  0  0  0
  3  4  1  0  0  0  0
  3 14  1  0  0  0  0
  4  5  1  0  0  0  0
  4 21  1  0  0  0  0
  4 22  1  0  0  0  0
  5  6  1  0  0  0  0
  5 23  1  0  0  0  0
  5 24  1  0  0  0  0
  6  7  1  0  0  0  0
  6 25  1  0  0  0  0
  6 41  1  0  0  0  0
  7  8  1  0  0  0  0
  7 26  1  0  0  0  0
  7 27  1  0  0  0  0
  8 13  1  0  0  0  0
  8  9  1  0  0  0  0
  8 28  1  0  0  0  0
  9 10  1  0  0  0  0
  9 29  1  0  0  0  0
  9 30  1  0  0  0  0
 10 11  2  0  0  0  0
 10 31  1  0  0  0  0
 11 12  1  0  0  0  0
 11 32  1  0  0  0  0
 12 13  1  0  0  0  0
 12 33  1  0  0  0  0
 12 34  1  0  0  0  0
 13 35  1  0  0  0  0
 13 36  1  0  0  0  0
 14 15  2  0  0  0  0
 14 37  1  0  0  0  0
 15 16  1  0  0  0  0
 16 17  1  0  0  0  0
 17 38  1  0  0  0  0
 17 39  1  0  0  0  0
 17 40  1  0  0  0  0
M  CHG  1   6   1
M  END
> <s_m_source_file>
AV-unprocessed.smi

> <i_m_source_file_index>
3219

> <i_lp_mmshare_version>
43012

> <i_f3d_flags>
0

> <s_epik_input>
W0NIM11uMW5bY0hdYyhjMVtDSDNdKVtDSDJdW0NIMl1bTkhdW0NIMl1bQ0BASF0yW0NIMl1bQ0hdPVtDSF1bQ0gyXVtDSDJdMg==

> <s_epik_cmdline>
J2VwaWtfcHl0aG9uJywgJy1waCcsICc3LjAnLCAnLXRuJywgJzgnLCAnLW1hJywgJzIwMCcsICctbWV0YWxfYmluZGluZycsICctaW1hZScsICc8aW5maWxlLm1hZT4nLCAnLW9tYWUnLCAnPG91dGZpbGUubWFlPic=

> <r_lp_tautomer_probability>
1

> <r_epik_Ionization_Penalty>
0.000661401

> <r_epik_Ionization_Penalty_Charging>
0.00057791

> <r_epik_Ionization_Penalty_Neutral>
8.34914e-05

> <r_epik_State_Penalty>
-0

> <r_epik_Charging_Adjusted_Penalty>
0.00057791

> <i_epik_Tot_Q>
1

> <i_epik_Tot_abs_Q>
1

> <r_epik_Metal_State_Penalty>
-0

> <b_epik_Metal_Only>
0

> <s_lp_Force_Field>
OPLS_2005

> <r_lp_Energy>
9.67125

> <b_lp_Chiralities_Consistent>
1

> <s_lp_Variant>
AV-unprocessed.smi:3219-2

> <Gold.Version>
5.8.1

> <Gold.Id.Protein>
6NUR|6NUR_protein|mol2

> <Gold.PLP.Fitness>
43.0004

> <Gold.PLP.PLP>
-35.3446

> <Gold.PLP.part.hbond>
-1.0000

> <Gold.PLP.part.metal>
0.0000

> <Gold.PLP.part.buried>
-4.4719

> <Gold.PLP.part.nonpolar>
-30.2591

> <Gold.PLP.part.repulsive>
0.1090

> <Gold.PLP.ligand.clash>
0.0000

> <Gold.PLP.ligand.torsion>
0.6367

> <Gold.PLP.Chemscore.Hbond>
2.0008

> <Gold.PLP.Chemscore.CHOScore>
0.9648

> <Gold.PLP.Chemscore.Metal>
0.0000

> <Gold.Chemscore.Hbonds>
donor molecule, donor type, donor heavy atom, donor atom, acceptor molecule, acceptor atom, score
      L1  H     6    25       P1  7948  2.00
      P1  H  7989  7998       L1    15  0.01
      L1  C    14    37       P1  7948  0.78

> <Gold.PLP.Chemscore.Internal.Correction>
0.0323

> <Gold.Rescore>
     Score         DG    S(hbond)    S(metal)    S(lipo)     H(rot)  DE(clash)    DE(int)     intcor
     14.91     -16.03       0.99        0.00      93.73       1.46       0.25       0.87       ----

> <Gold.Chemscore.Fitness>
14.9118

> <Gold.Chemscore.DG>
-16.0313

> <Gold.Chemscore.ZeroCoef>
-5.4800

> <Gold.Chemscore.Hbond>
0.9944

> <Gold.Chemscore.Metal>
0.0000

> <Gold.Chemscore.Lipo>
93.7328

> <Gold.Chemscore.Internal_Hbond>
0.0000

> <Gold.Chemscore.DEClash>
0.2470

> <Gold.Chemscore.DEInternal>
0.8725

> <Gold.Chemscore.Rot>
1.4597

> <Gold.Chemscore.Internal.Correction>
   9.000000E+99

> <Gold.Chemscore.Hbonds>
donor molecule, donor type, donor heavy atom, donor atom, acceptor molecule, acceptor atom, score
      L1  H     6    25       P1  7948  0.96
      P1  H  7989  7998       L1    15  0.01

> <Gold.Chemscore.Hbond.Weighted>
-3.3214

> <Gold.Chemscore.Metal.Weighted>
-0.0000

> <Gold.Chemscore.Lipo.Weighted>
-10.9667

> <Gold.Chemscore.Internal_Hbond.Weighted>
0.0000

> <Gold.Chemscore.DEClash.Weighted>
0.2470

> <Gold.Chemscore.DEInternal.Weighted>
0.8725

> <Gold.Chemscore.Rot.Weighted>
3.7368

> <Gold.Chemscore.Internal.Correction.Weighted>
   9.000000E+99

> <Gold.Protein.RotatedTorsions>
[ 6907 6896 6895 6894 ] final -123.40 input  -60.11 | X-H torsion
[ 7974 7965 7964 7962 ] final   82.57 input  175.53 | X-H torsion
[ 8008 7997 7996 7995 ] final  114.01 input   59.86 | X-H torsion
[ 10167 10162 10161 10158 ] final   85.31 input  -65.29 | X-H torsion
[ 10718 10713 10712 10709 ] final  130.89 input   66.30 | X-H torsion
[ 10763 10752 10751 10750 ] final  107.36 input  -60.55 | X-H torsion
[ 11005 11000 10999 10996 ] final -167.63 input  -57.11 | X-H torsion

> <Gold.Protein.ActiveResidues>
 VAL166  LYS551  ARG553  GLY616  TRP617  ASP618  TYR619  PRO620  LYS621  CYS622 
 ASP623  PHE694  ASN695  SER759  ASP760  ASP761  ALA762  ILE779  LEU786  VAL792 
 PHE793  MET794  SER795  GLU796  ALA797  LYS798  CYS799  TRP800  GLU811  SER814 

> <Gold.Protein.RotatedAtoms>
  150.8667  133.7565  159.2974 H   0  0  0  0  0  0  0  0  0  0  0  0  # atno 6907 bound_to 6896
  151.5190  135.1065  159.9883 H   0  0  0  0  0  0  0  0  0  0  0  0  # atno 6908 bound_to 6896
  152.4666  133.7891  159.6948 H   0  0  0  0  0  0  0  0  0  0  0  0  # atno 6909 bound_to 6896
  145.6233  139.2390  143.2126 H   0  0  0  0  0  0  0  0  0  0  0  0  # atno 7974 bound_to 7965
  156.2294  140.2968  156.0150 H   0  0  0  0  0  0  0  0  0  0  0  0  # atno 8008 bound_to 7997
  155.2267  140.0417  157.2973 H   0  0  0  0  0  0  0  0  0  0  0  0  # atno 8009 bound_to 7997
  154.5970  140.2417  155.7851 H   0  0  0  0  0  0  0  0  0  0  0  0  # atno 8010 bound_to 7997
  139.8990  144.6340  150.8657 H   0  0  0  0  0  0  0  0  0  0  0  0  # atno 10167 bound_to 10162
  157.5020  131.1094  150.9414 H   0  0  0  0  0  0  0  0  0  0  0  0  # atno 10718 bound_to 10713
  153.4057  135.3847  155.2017 H   0  0  0  0  0  0  0  0  0  0  0  0  # atno 10763 bound_to 10752
  154.8733  135.3782  154.4563 H   0  0  0  0  0  0  0  0  0  0  0  0  # atno 10764 bound_to 10752
  153.5066  135.7088  153.5865 H   0  0  0  0  0  0  0  0  0  0  0  0  # atno 10765 bound_to 10752
  140.5511  134.5428  157.5122 H   0  0  0  0  0  0  0  0  0  0  0  0  # atno 11005 bound_to 11000
  146.1414  140.7052  142.9365 LP  0  0  0  0  0  0  0  0  0  0  0  0  # atno 17320 bound_to 7965
  144.7222  140.4411  143.6999 LP  0  0  0  0  0  0  0  0  0  0  0  0  # atno 17321 bound_to 7965
  140.7711  143.3451  151.2128 LP  0  0  0  0  0  0  0  0  0  0  0  0  # atno 17342 bound_to 10162
  139.7042  143.9483  152.2919 LP  0  0  0  0  0  0  0  0  0  0  0  0  # atno 17343 bound_to 10162
  157.0082  130.5626  149.5318 LP  0  0  0  0  0  0  0  0  0  0  0  0  # atno 17370 bound_to 10713
  156.0235  130.5329  150.8341 LP  0  0  0  0  0  0  0  0  0  0  0  0  # atno 17371 bound_to 10713
  139.9455  134.7710  156.0573 LP  0  0  0  0  0  0  0  0  0  0  0  0  # atno 17394 bound_to 11000
  141.1171  133.6624  156.3121 LP  0  0  0  0  0  0  0  0  0  0  0  0  # atno 17395 bound_to 11000

$$$$
