AV-unprocessed.smi:279|AV-procd|sdf|2095|dock9
  -GOLD-   2262021373D 1   1.00000     0.00000
 Structure written by MMmdl.
 50 54  0  0  0  0  0  0  0  0  1 V2000
  146.6918  137.0946  160.4904 O   0  0  0  0  0  0  0  0  0  0  0  0
  147.4725  136.2860  161.4395 S   0  0  0  0  0  0  0  0  0  0  0  0
  148.5881  136.8780  162.1933 O   0  0  0  0  0  0  0  0  0  0  0  0
  146.3305  135.4641  162.6099 C   0  0  0  0  0  0  0  0  0  0  0  0
  146.0042  134.1124  161.9692 C   0  0  0  0  0  0  0  0  0  0  0  0
  147.2781  133.5706  161.2869 C   0  0  1  0  0  0  0  0  0  0  0  0
  146.9954  132.5717  160.1519 C   0  0  0  0  0  0  0  0  0  0  0  0
  147.4436  133.2072  158.9195 N   0  0  0  0  0  0  0  0  0  0  0  0
  146.9980  132.7578  157.7156 C   0  0  0  0  0  0  0  0  0  0  0  0
  146.1922  131.6625  157.6861 N   0  0  0  0  0  0  0  0  0  0  0  0
  145.7342  131.1839  156.5264 C   0  0  0  0  0  0  0  0  0  0  0  0
  145.9465  131.6443  155.2935 N   0  0  0  0  0  0  0  0  0  0  0  0
  146.7398  132.7529  155.3103 C   0  0  0  0  0  0  0  0  0  0  0  0
  147.3076  133.3693  156.4635 C   0  0  0  0  0  0  0  0  0  0  0  0
  148.0623  134.4717  156.0752 N   0  0  0  0  0  0  0  0  0  0  0  0
  147.9585  134.4956  154.7749 C   0  0  0  0  0  0  0  0  0  0  0  0
  147.1588  133.5156  154.2343 N   0  0  0  0  0  0  0  0  0  0  0  0
  146.9034  133.2854  152.8426 C   0  0  0  0  0  0  0  0  0  0  0  0
  145.8776  134.1203  152.0723 C   0  0  0  0  0  0  0  0  0  0  0  0
  145.5543  132.8923  151.1906 C   0  0  0  0  0  0  0  0  0  0  0  0
  144.0647  132.6768  150.8751 C   0  0  0  0  0  0  0  0  0  0  0  0
  143.6120  133.5824  149.8889 O   0  0  0  0  0  0  0  0  0  0  0  0
  146.3691  132.7854  149.8855 C   0  0  0  0  0  0  0  0  0  0  0  0
  146.3396  131.4721  149.3648 O   0  0  0  0  0  0  0  0  0  0  0  0
  146.1030  132.0675  152.3755 C   0  0  0  0  0  0  0  0  0  0  0  0
  147.6363  134.6308  159.1505 C   0  0  0  0  0  0  0  0  0  0  0  0
  148.0299  134.7320  160.6245 C   0  0  1  0  0  0  0  0  0  0  0  0
  147.9152  133.1164  162.0470 H   0  0  0  0  0  0  0  0  0  0  0  0
  149.1075  134.6176  160.7468 H   0  0  0  0  0  0  0  0  0  0  0  0
  146.8551  135.3264  163.5557 H   0  0  0  0  0  0  0  0  0  0  0  0
  145.4513  136.0852  162.7810 H   0  0  0  0  0  0  0  0  0  0  0  0
  145.6030  133.4064  162.6968 H   0  0  0  0  0  0  0  0  0  0  0  0
  145.2294  134.2688  161.2171 H   0  0  0  0  0  0  0  0  0  0  0  0
  147.5614  131.6534  160.3112 H   0  0  0  0  0  0  0  0  0  0  0  0
  145.9375  132.3109  160.0983 H   0  0  0  0  0  0  0  0  0  0  0  0
  145.1071  130.3074  156.5973 H   0  0  0  0  0  0  0  0  0  0  0  0
  148.4612  135.2386  154.1731 H   0  0  0  0  0  0  0  0  0  0  0  0
  147.8767  133.3200  152.3501 H   0  0  0  0  0  0  0  0  0  0  0  0
  145.0364  134.4283  152.6965 H   0  0  0  0  0  0  0  0  0  0  0  0
  146.2999  134.9743  151.5419 H   0  0  0  0  0  0  0  0  0  0  0  0
  143.8903  131.6670  150.5026 H   0  0  0  0  0  0  0  0  0  0  0  0
  143.4457  132.7840  151.7661 H   0  0  0  0  0  0  0  0  0  0  0  0
  142.6708  133.6454  149.9489 H   0  0  0  0  0  0  0  0  0  0  0  0
  145.9771  133.4543  149.1194 H   0  0  0  0  0  0  0  0  0  0  0  0
  147.4078  133.0796  150.0376 H   0  0  0  0  0  0  0  0  0  0  0  0
  147.1404  131.0345  149.6106 H   0  0  0  0  0  0  0  0  0  0  0  0
  146.7118  131.2078  152.0934 H   0  0  0  0  0  0  0  0  0  0  0  0
  145.3290  131.7791  153.0898 H   0  0  0  0  0  0  0  0  0  0  0  0
  148.4062  135.0499  158.5017 H   0  0  0  0  0  0  0  0  0  0  0  0
  146.6960  135.1450  158.9503 H   0  0  0  0  0  0  0  0  0  0  0  0
  1  2  2  0  0  0  0
  2 27  1  0  0  0  0
  2  3  2  0  0  0  0
  2  4  1  0  0  0  0
  4  5  1  0  0  0  0
  4 30  1  0  0  0  0
  4 31  1  0  0  0  0
  5  6  1  0  0  0  0
  5 32  1  0  0  0  0
  5 33  1  0  0  0  0
  6 28  1  0  0  0  0
  6 27  1  0  0  0  0
  6  7  1  0  0  0  0
  7  8  1  0  0  0  0
  7 34  1  0  0  0  0
  7 35  1  0  0  0  0
  8  9  1  0  0  0  0
  8 26  1  0  0  0  0
  9 14  1  0  0  0  0
  9 10  2  0  0  0  0
 10 11  1  0  0  0  0
 11 12  2  0  0  0  0
 11 36  1  0  0  0  0
 12 13  1  0  0  0  0
 13 17  1  0  0  0  0
 13 14  2  0  0  0  0
 14 15  1  0  0  0  0
 15 16  2  0  0  0  0
 16 17  1  0  0  0  0
 16 37  1  0  0  0  0
 17 18  1  0  0  0  0
 18 25  1  0  0  0  0
 18 19  1  0  0  0  0
 18 38  1  0  0  0  0
 19 20  1  0  0  0  0
 19 39  1  0  0  0  0
 19 40  1  0  0  0  0
 20 21  1  0  0  0  0
 20 23  1  0  0  0  0
 20 25  1  0  0  0  0
 21 22  1  0  0  0  0
 21 41  1  0  0  0  0
 21 42  1  0  0  0  0
 22 43  1  0  0  0  0
 23 24  1  0  0  0  0
 23 44  1  0  0  0  0
 23 45  1  0  0  0  0
 24 46  1  0  0  0  0
 25 47  1  0  0  0  0
 25 48  1  0  0  0  0
 26 27  1  0  0  0  0
 26 49  1  0  0  0  0
 26 50  1  0  0  0  0
 27 29  1  0  0  0  0
M  END
> <s_m_source_file>
AV-unprocessed.smi

> <i_m_source_file_index>
279

> <i_lp_mmshare_version>
43012

> <i_f3d_flags>
0

> <s_epik_input>
W0NIMl0xW0NIMl1TKD1PKSg9TylbQ0BASF0oW0NAQEhdMTIpW0NIMl1OKFtDSDJdMiljKG5bY0hdbjMpYyhjMzQpbltjSF1uNFtDSF0oW0NIMl01KVtDSDJdQzUoW0NIMl1bT0hdKVtDSDJdW09IXQ==

> <s_epik_cmdline>
J2VwaWtfcHl0aG9uJywgJy1waCcsICc3LjAnLCAnLXRuJywgJzgnLCAnLW1hJywgJzIwMCcsICctbWV0YWxfYmluZGluZycsICctaW1hZScsICc8aW5maWxlLm1hZT4nLCAnLW9tYWUnLCAnPG91dGZpbGUubWFlPic=

> <r_lp_tautomer_probability>
1

> <r_epik_Ionization_Penalty>
0.000990948

> <r_epik_Ionization_Penalty_Charging>
0

> <r_epik_Ionization_Penalty_Neutral>
0.000990948

> <r_epik_State_Penalty>
0.000515994

> <r_epik_Charging_Adjusted_Penalty>
0.000515994

> <i_epik_Tot_Q>
0

> <i_epik_Tot_abs_Q>
0

> <r_epik_Metal_State_Penalty>
-0

> <b_epik_Metal_Only>
0

> <s_lp_Force_Field>
OPLS_2005

> <r_lp_Energy>
54.435

> <b_lp_Chiralities_Consistent>
1

> <s_lp_Variant>
AV-unprocessed.smi:279-1

> <Gold.Version>
5.8.1

> <Gold.Id.Protein>
6NUR|6NUR_protein|mol2

> <Gold.PLP.Fitness>
47.4165

> <Gold.PLP.PLP>
-31.4002

> <Gold.PLP.part.hbond>
-3.7560

> <Gold.PLP.part.metal>
0.0000

> <Gold.PLP.part.buried>
-3.1758

> <Gold.PLP.part.nonpolar>
-24.0084

> <Gold.PLP.part.repulsive>
0.2411

> <Gold.PLP.ligand.clash>
0.0000

> <Gold.PLP.ligand.torsion>
0.6819

> <Gold.PLP.Chemscore.Hbond>
3.8613

> <Gold.PLP.Chemscore.CHOScore>
1.6645

> <Gold.PLP.Chemscore.Metal>
0.0000

> <Gold.Chemscore.Hbonds>
donor molecule, donor type, donor heavy atom, donor atom, acceptor molecule, acceptor atom, score
      L1  H    22    43       P1 10186  1.00
      L1  H    24    46       P1 10747  1.00
      P1  H  6931  6943       L1     3  0.81
      P1  H  6934  6947       L1     1  0.99
      L1  C    11    36       P1 10956  0.63
      L1  C    16    37       P1  7948  0.97

> <Gold.PLP.Chemscore.Internal.Correction>
0.8027

> <Gold.Rescore>
     Score         DG    S(hbond)    S(metal)    S(lipo)     H(rot)  DE(clash)    DE(int)     intcor
     16.45     -18.51       3.58        0.00      73.53       2.94       0.21       1.84       ----

> <Gold.Chemscore.Fitness>
16.4546

> <Gold.Chemscore.DG>
-18.5083

> <Gold.Chemscore.ZeroCoef>
-5.4800

> <Gold.Chemscore.Hbond>
3.5752

> <Gold.Chemscore.Metal>
0.0000

> <Gold.Chemscore.Lipo>
73.5322

> <Gold.Chemscore.Internal_Hbond>
0.0000

> <Gold.Chemscore.DEClash>
0.2128

> <Gold.Chemscore.DEInternal>
1.8409

> <Gold.Chemscore.Rot>
2.9360

> <Gold.Chemscore.Internal.Correction>
   9.000000E+99

> <Gold.Chemscore.Hbonds>
donor molecule, donor type, donor heavy atom, donor atom, acceptor molecule, acceptor atom, score
      L1  H    22    43       P1 10186  0.97
      L1  H    24    46       P1 10747  0.99
      P1  H  6931  6943       L1     3  0.79
      P1  H  6934  6947       L1     1  0.46

> <Gold.Chemscore.Hbond.Weighted>
-11.9411

> <Gold.Chemscore.Metal.Weighted>
-0.0000

> <Gold.Chemscore.Lipo.Weighted>
-8.6033

> <Gold.Chemscore.Internal_Hbond.Weighted>
0.0000

> <Gold.Chemscore.DEClash.Weighted>
0.2128

> <Gold.Chemscore.DEInternal.Weighted>
1.8409

> <Gold.Chemscore.Rot.Weighted>
7.5161

> <Gold.Chemscore.Internal.Correction.Weighted>
   9.000000E+99

> <Gold.Protein.RotatedTorsions>
[ 6907 6896 6895 6894 ] final -174.02 input  -60.11 | X-H torsion
[ 7974 7965 7964 7962 ] final   62.28 input  175.53 | X-H torsion
[ 8008 7997 7996 7995 ] final   43.05 input   59.86 | X-H torsion
[ 10167 10162 10161 10158 ] final   81.18 input  -65.29 | X-H torsion
[ 10718 10713 10712 10709 ] final -105.57 input   66.30 | X-H torsion
[ 10763 10752 10751 10750 ] final  138.33 input  -60.55 | X-H torsion
[ 11005 11000 10999 10996 ] final  -60.90 input  -57.11 | X-H torsion

> <Gold.Protein.ActiveResidues>
 VAL166  LYS551  ARG553  GLY616  TRP617  ASP618  TYR619  PRO620  LYS621  CYS622 
 ASP623  PHE694  ASN695  SER759  ASP760  ASP761  ALA762  ILE779  LEU786  VAL792 
 PHE793  MET794  SER795  GLU796  ALA797  LYS798  CYS799  TRP800  GLU811  SER814 

> <Gold.Protein.RotatedAtoms>
  151.5657  133.3397  159.2979 H   0  0  0  0  0  0  0  0  0  0  0  0  # atno 6907 bound_to 6896
  150.8397  134.7687  159.6933 H   0  0  0  0  0  0  0  0  0  0  0  0  # atno 6908 bound_to 6896
  152.4467  134.5487  159.9912 H   0  0  0  0  0  0  0  0  0  0  0  0  # atno 6909 bound_to 6896
  145.8752  139.3405  143.0739 H   0  0  0  0  0  0  0  0  0  0  0  0  # atno 7974 bound_to 7965
  155.2963  140.3382  155.4250 H   0  0  0  0  0  0  0  0  0  0  0  0  # atno 8008 bound_to 7997
  156.2022  140.1737  156.7914 H   0  0  0  0  0  0  0  0  0  0  0  0  # atno 8009 bound_to 7997
  154.5574  140.0694  156.8749 H   0  0  0  0  0  0  0  0  0  0  0  0  # atno 8010 bound_to 7997
  139.9419  144.6084  150.8243 H   0  0  0  0  0  0  0  0  0  0  0  0  # atno 10167 bound_to 10162
  156.0352  130.5570  150.7557 H   0  0  0  0  0  0  0  0  0  0  0  0  # atno 10718 bound_to 10713
  153.8878  135.3036  155.3447 H   0  0  0  0  0  0  0  0  0  0  0  0  # atno 10763 bound_to 10752
  154.7731  135.4875  153.9692 H   0  0  0  0  0  0  0  0  0  0  0  0  # atno 10764 bound_to 10752
  153.1315  135.6805  153.9269 H   0  0  0  0  0  0  0  0  0  0  0  0  # atno 10765 bound_to 10752
  141.1305  133.6626  156.5294 H   0  0  0  0  0  0  0  0  0  0  0  0  # atno 11005 bound_to 11000
  145.9090  140.9193  143.0464 LP  0  0  0  0  0  0  0  0  0  0  0  0  # atno 17320 bound_to 7965
  144.6726  140.1134  143.7454 LP  0  0  0  0  0  0  0  0  0  0  0  0  # atno 17321 bound_to 7965
  140.7608  143.3160  151.2732 LP  0  0  0  0  0  0  0  0  0  0  0  0  # atno 17342 bound_to 10162
  139.6697  144.0041  152.2745 LP  0  0  0  0  0  0  0  0  0  0  0  0  # atno 17343 bound_to 10162
  157.5090  131.0924  151.0221 LP  0  0  0  0  0  0  0  0  0  0  0  0  # atno 17370 bound_to 10713
  157.0582  130.5814  149.5381 LP  0  0  0  0  0  0  0  0  0  0  0  0  # atno 17371 bound_to 10713
  140.4228  134.7172  157.4899 LP  0  0  0  0  0  0  0  0  0  0  0  0  # atno 17394 bound_to 11000
  140.0348  134.6353  155.9058 LP  0  0  0  0  0  0  0  0  0  0  0  0  # atno 17395 bound_to 11000

$$$$
