AV-unprocessed.smi:252|AV-procd|sdf|1936|dock3
  -GOLD-   2262021 53D 1   1.00000     0.00000
 Structure written by MMmdl.
 56 59  0  0  0  0  0  0  0  0  1 V2000
  152.4866  143.6284  158.8237 C   0  0  0  0  0  0  0  0  0  0  0  0
  151.4689  143.7962  157.6845 C   0  0  0  0  0  0  0  0  0  0  0  0
  150.9463  142.4661  157.1320 C   0  0  0  0  0  0  0  0  0  0  0  0
  151.3279  141.3933  157.6008 O   0  0  0  0  0  0  0  0  0  0  0  0
  150.0642  142.5559  156.1251 N   0  0  0  0  0  0  0  0  0  0  0  0
  149.4429  141.4245  155.4443 C   0  0  2  0  0  0  0  0  0  0  0  0
  148.6052  141.9064  154.2434 C   0  0  0  0  0  0  0  0  0  0  0  0
  147.8658  140.7257  153.5967 C   0  0  0  0  0  0  0  0  0  0  0  0
  147.0232  139.9679  154.6347 C   0  0  0  0  0  0  0  0  0  0  0  0
  147.8469  139.5591  155.7737 N   0  0  0  0  0  0  0  0  0  0  0  0
  147.3415  138.6192  156.6125 C   0  0  0  0  0  0  0  0  0  0  0  0
  146.0445  138.2274  156.4915 N   0  0  0  0  0  0  0  0  0  0  0  0
  145.5340  137.3158  157.3245 C   0  0  0  0  0  0  0  0  0  0  0  0
  146.1328  136.6775  158.3313 N   0  0  0  0  0  0  0  0  0  0  0  0
  147.4375  137.0561  158.4510 C   0  0  0  0  0  0  0  0  0  0  0  0
  148.1150  138.0117  157.6418 C   0  0  0  0  0  0  0  0  0  0  0  0
  149.4363  138.1299  158.0576 N   0  0  0  0  0  0  0  0  0  0  0  0
  149.5305  137.3014  159.0613 C   0  0  0  0  0  0  0  0  0  0  0  0
  148.3789  136.6100  159.3624 N   0  0  0  0  0  0  0  0  0  0  0  0
  148.2014  135.6315  160.4249 C   0  0  0  0  0  0  0  0  0  0  0  0
  147.2550  136.1091  161.5578 C   0  0  1  0  0  0  0  0  0  0  0  0
  147.8396  137.2470  162.1692 O   0  0  0  0  0  0  0  0  0  0  0  0
  145.8661  136.5078  161.0645 C   0  0  0  0  0  0  0  0  0  0  0  0
  144.9768  136.2108  162.2621 C   0  0  0  0  0  0  0  0  0  0  0  0
  145.5253  135.0016  162.7543 O   0  0  0  0  0  0  0  0  0  0  0  0
  146.9464  135.0765  162.6795 C   0  0  1  0  0  0  0  0  0  0  0  0
  147.4787  133.6494  162.4753 C   0  0  0  0  0  0  0  0  0  0  0  0
  148.5642  140.6459  156.4402 C   0  0  0  0  0  0  0  0  0  0  0  0
  152.8627  144.5984  159.1496 H   0  0  0  0  0  0  0  0  0  0  0  0
  153.3433  143.0318  158.5078 H   0  0  0  0  0  0  0  0  0  0  0  0
  152.0380  143.1423  159.6910 H   0  0  0  0  0  0  0  0  0  0  0  0
  150.6206  144.3863  158.0325 H   0  0  0  0  0  0  0  0  0  0  0  0
  151.9304  144.3590  156.8717 H   0  0  0  0  0  0  0  0  0  0  0  0
  149.8061  143.4776  155.8039 H   0  0  0  0  0  0  0  0  0  0  0  0
  150.2220  140.7492  155.0844 H   0  0  0  0  0  0  0  0  0  0  0  0
  147.8803  142.6528  154.5712 H   0  0  0  0  0  0  0  0  0  0  0  0
  149.2427  142.3931  153.5045 H   0  0  0  0  0  0  0  0  0  0  0  0
  147.2295  141.0800  152.7854 H   0  0  0  0  0  0  0  0  0  0  0  0
  148.5901  140.0443  153.1484 H   0  0  0  0  0  0  0  0  0  0  0  0
  146.2091  140.6028  154.9876 H   0  0  0  0  0  0  0  0  0  0  0  0
  146.5715  139.0935  154.1646 H   0  0  0  0  0  0  0  0  0  0  0  0
  144.4964  137.0636  157.1623 H   0  0  0  0  0  0  0  0  0  0  0  0
  150.4509  137.1695  159.6111 H   0  0  0  0  0  0  0  0  0  0  0  0
  147.8180  134.7191  159.9671 H   0  0  0  0  0  0  0  0  0  0  0  0
  149.1843  135.3852  160.8284 H   0  0  0  0  0  0  0  0  0  0  0  0
  147.9109  137.0858  163.0975 H   0  0  0  0  0  0  0  0  0  0  0  0
  145.7971  137.5418  160.7234 H   0  0  0  0  0  0  0  0  0  0  0  0
  145.5630  135.8648  160.2373 H   0  0  0  0  0  0  0  0  0  0  0  0
  145.0598  136.9915  163.0199 H   0  0  0  0  0  0  0  0  0  0  0  0
  143.9267  136.0972  161.9922 H   0  0  0  0  0  0  0  0  0  0  0  0
  147.3076  135.4422  163.6426 H   0  0  0  0  0  0  0  0  0  0  0  0
  148.5674  133.6341  162.4224 H   0  0  0  0  0  0  0  0  0  0  0  0
  147.0845  133.2006  161.5633 H   0  0  0  0  0  0  0  0  0  0  0  0
  147.1848  133.0077  163.3062 H   0  0  0  0  0  0  0  0  0  0  0  0
  149.1861  140.2718  157.2530 H   0  0  0  0  0  0  0  0  0  0  0  0
  147.8303  141.3142  156.8936 H   0  0  0  0  0  0  0  0  0  0  0  0
  1  2  1  0  0  0  0
  1 29  1  0  0  0  0
  1 30  1  0  0  0  0
  1 31  1  0  0  0  0
  2  3  1  0  0  0  0
  2 32  1  0  0  0  0
  2 33  1  0  0  0  0
  3  4  2  0  0  0  0
  3  5  1  0  0  0  0
  5  6  1  0  0  0  0
  5 34  1  0  0  0  0
  6 28  1  0  0  0  0
  6  7  1  0  0  0  0
  6 35  1  0  0  0  0
  7  8  1  0  0  0  0
  7 36  1  0  0  0  0
  7 37  1  0  0  0  0
  8  9  1  0  0  0  0
  8 38  1  0  0  0  0
  8 39  1  0  0  0  0
  9 10  1  0  0  0  0
  9 40  1  0  0  0  0
  9 41  1  0  0  0  0
 10 11  1  0  0  0  0
 10 28  1  0  0  0  0
 11 16  1  0  0  0  0
 11 12  2  0  0  0  0
 12 13  1  0  0  0  0
 13 14  2  0  0  0  0
 13 42  1  0  0  0  0
 14 15  1  0  0  0  0
 15 19  1  0  0  0  0
 15 16  2  0  0  0  0
 16 17  1  0  0  0  0
 17 18  2  0  0  0  0
 18 19  1  0  0  0  0
 18 43  1  0  0  0  0
 19 20  1  0  0  0  0
 20 21  1  0  0  0  0
 20 44  1  0  0  0  0
 20 45  1  0  0  0  0
 21 26  1  0  0  0  0
 21 22  1  0  0  0  0
 21 23  1  0  0  0  0
 22 46  1  0  0  0  0
 23 24  1  0  0  0  0
 23 47  1  0  0  0  0
 23 48  1  0  0  0  0
 24 25  1  0  0  0  0
 24 49  1  0  0  0  0
 24 50  1  0  0  0  0
 25 26  1  0  0  0  0
 26 27  1  0  0  0  0
 26 51  1  0  0  0  0
 27 52  1  0  0  0  0
 27 53  1  0  0  0  0
 27 54  1  0  0  0  0
 28 55  1  0  0  0  0
 28 56  1  0  0  0  0
M  END
> <s_m_source_file>
AV-unprocessed.smi

> <i_m_source_file_index>
252

> <i_lp_mmshare_version>
43012

> <i_f3d_flags>
0

> <s_epik_input>
W0NIM11bQ0gyXUMoPU8pW05IXVtDQEBIXTFbQ0gyXVtDSDJdW0NIMl1OKFtDSDJdMSljKG5bY0hdbjIpYyhjMjMpbltjSF1uM1tDSDJdW0NAQF00KFtPSF0pW0NIMl1bQ0gyXU9bQ0BIXTRbQ0gzXQ==

> <s_epik_cmdline>
J2VwaWtfcHl0aG9uJywgJy1waCcsICc3LjAnLCAnLXRuJywgJzgnLCAnLW1hJywgJzIwMCcsICctbWV0YWxfYmluZGluZycsICctaW1hZScsICc8aW5maWxlLm1hZT4nLCAnLW9tYWUnLCAnPG91dGZpbGUubWFlPic=

> <r_lp_tautomer_probability>
1

> <r_epik_Ionization_Penalty>
0.00182575

> <r_epik_Ionization_Penalty_Charging>
0

> <r_epik_Ionization_Penalty_Neutral>
0.00182575

> <r_epik_State_Penalty>
0.00104524

> <r_epik_Charging_Adjusted_Penalty>
0.00104524

> <i_epik_Tot_Q>
0

> <i_epik_Tot_abs_Q>
0

> <r_epik_Metal_State_Penalty>
-0

> <b_epik_Metal_Only>
0

> <s_lp_Force_Field>
OPLS_2005

> <r_lp_Energy>
34.3477

> <b_lp_Chiralities_Consistent>
1

> <s_lp_Variant>
AV-unprocessed.smi:252-1

> <Gold.Version>
5.8.1

> <Gold.Id.Protein>
6NUR|6NUR_protein|mol2

> <Gold.PLP.Fitness>
48.3455

> <Gold.PLP.PLP>
-41.7080

> <Gold.PLP.part.hbond>
-2.9070

> <Gold.PLP.part.metal>
0.0000

> <Gold.PLP.part.buried>
-2.3097

> <Gold.PLP.part.nonpolar>
-36.9750

> <Gold.PLP.part.repulsive>
0.1380

> <Gold.PLP.ligand.clash>
0.0000

> <Gold.PLP.ligand.torsion>
0.2805

> <Gold.PLP.Chemscore.Hbond>
2.2317

> <Gold.PLP.Chemscore.CHOScore>
0.0000

> <Gold.PLP.Chemscore.Metal>
0.0000

> <Gold.Chemscore.Hbonds>
donor molecule, donor type, donor heavy atom, donor atom, acceptor molecule, acceptor atom, score
      L1  H     5    34       P1  8028  1.00
      P1  H  6931  6943       L1    22  0.99
      P1  H  6934  6947       L1    22  0.23

> <Gold.PLP.Chemscore.Internal.Correction>
0.5035

> <Gold.Rescore>
     Score         DG    S(hbond)    S(metal)    S(lipo)     H(rot)  DE(clash)    DE(int)     intcor
     13.74     -15.66       1.62        0.00      99.92       2.70       0.17       1.75       ----

> <Gold.Chemscore.Fitness>
13.7374

> <Gold.Chemscore.DG>
-15.6581

> <Gold.Chemscore.ZeroCoef>
-5.4800

> <Gold.Chemscore.Hbond>
1.6197

> <Gold.Chemscore.Metal>
0.0000

> <Gold.Chemscore.Lipo>
99.9223

> <Gold.Chemscore.Internal_Hbond>
0.0000

> <Gold.Chemscore.DEClash>
0.1744

> <Gold.Chemscore.DEInternal>
1.7463

> <Gold.Chemscore.Rot>
2.7041

> <Gold.Chemscore.Internal.Correction>
   9.000000E+99

> <Gold.Chemscore.Hbonds>
donor molecule, donor type, donor heavy atom, donor atom, acceptor molecule, acceptor atom, score
      L1  H     5    34       P1  8028  0.94
      P1  H  6931  6943       L1    22  0.27
      P1  H  6934  6947       L1    22  0.14

> <Gold.Chemscore.Hbond.Weighted>
-5.4097

> <Gold.Chemscore.Metal.Weighted>
-0.0000

> <Gold.Chemscore.Lipo.Weighted>
-11.6909

> <Gold.Chemscore.Internal_Hbond.Weighted>
0.0000

> <Gold.Chemscore.DEClash.Weighted>
0.1744

> <Gold.Chemscore.DEInternal.Weighted>
1.7463

> <Gold.Chemscore.Rot.Weighted>
6.9225

> <Gold.Chemscore.Internal.Correction.Weighted>
   9.000000E+99

> <Gold.Protein.RotatedTorsions>
[ 6907 6896 6895 6894 ] final  173.89 input  -60.11 | X-H torsion
[ 7974 7965 7964 7962 ] final   49.39 input  175.53 | X-H torsion
[ 8008 7997 7996 7995 ] final   -3.08 input   59.86 | X-H torsion
[ 10167 10162 10161 10158 ] final -142.00 input  -65.29 | X-H torsion
[ 10718 10713 10712 10709 ] final  146.27 input   66.30 | X-H torsion
[ 10763 10752 10751 10750 ] final   -2.48 input  -60.55 | X-H torsion
[ 11005 11000 10999 10996 ] final -143.78 input  -57.11 | X-H torsion

> <Gold.Protein.ActiveResidues>
 VAL166  LYS551  ARG553  GLY616  TRP617  ASP618  TYR619  PRO620  LYS621  CYS622 
 ASP623  PHE694  ASN695  SER759  ASP760  ASP761  ALA762  ILE779  LEU786  VAL792 
 PHE793  MET794  SER795  GLU796  ALA797  LYS798  CYS799  TRP800  GLU811  SER814 

> <Gold.Protein.RotatedAtoms>
  151.7611  133.3334  159.3417 H   0  0  0  0  0  0  0  0  0  0  0  0  # atno 6907 bound_to 6896
  150.7497  134.6105  159.6093 H   0  0  0  0  0  0  0  0  0  0  0  0  # atno 6908 bound_to 6896
  152.3405  134.7143  160.0316 H   0  0  0  0  0  0  0  0  0  0  0  0  # atno 6909 bound_to 6896
  146.0113  139.4546  142.9954 H   0  0  0  0  0  0  0  0  0  0  0  0  # atno 7974 bound_to 7965
  154.6288  140.2518  155.7459 H   0  0  0  0  0  0  0  0  0  0  0  0  # atno 8008 bound_to 7997
  156.2468  140.2911  156.0549 H   0  0  0  0  0  0  0  0  0  0  0  0  # atno 8009 bound_to 7997
  155.1779  140.0388  157.2866 H   0  0  0  0  0  0  0  0  0  0  0  0  # atno 8010 bound_to 7997
  139.8130  143.7676  152.2664 H   0  0  0  0  0  0  0  0  0  0  0  0  # atno 10167 bound_to 10162
  157.3352  131.0927  151.1129 H   0  0  0  0  0  0  0  0  0  0  0  0  # atno 10718 bound_to 10713
  153.3586  135.6989  153.6730 H   0  0  0  0  0  0  0  0  0  0  0  0  # atno 10763 bound_to 10752
  153.5428  135.3569  155.2726 H   0  0  0  0  0  0  0  0  0  0  0  0  # atno 10764 bound_to 10752
  154.8664  135.4208  154.2838 H   0  0  0  0  0  0  0  0  0  0  0  0  # atno 10765 bound_to 10752
  140.8090  134.2766  157.4948 H   0  0  0  0  0  0  0  0  0  0  0  0  # atno 11005 bound_to 11000
  145.7337  141.0033  143.1338 LP  0  0  0  0  0  0  0  0  0  0  0  0  # atno 17320 bound_to 7965
  144.6954  139.9016  143.7459 LP  0  0  0  0  0  0  0  0  0  0  0  0  # atno 17321 bound_to 7965
  139.7831  144.7437  151.0060 LP  0  0  0  0  0  0  0  0  0  0  0  0  # atno 17342 bound_to 10162
  140.7817  143.4521  151.0398 LP  0  0  0  0  0  0  0  0  0  0  0  0  # atno 17343 bound_to 10162
  157.2362  130.6548  149.5870 LP  0  0  0  0  0  0  0  0  0  0  0  0  # atno 17370 bound_to 10713
  155.9700  130.4583  150.5994 LP  0  0  0  0  0  0  0  0  0  0  0  0  # atno 17371 bound_to 10713
  139.8715  134.9473  156.3962 LP  0  0  0  0  0  0  0  0  0  0  0  0  # atno 17394 bound_to 11000
  140.9217  133.7640  155.9914 LP  0  0  0  0  0  0  0  0  0  0  0  0  # atno 17395 bound_to 11000

$$$$
