AV-unprocessed.smi:3090|AV-procd|sdf|11774|dock3
  -GOLD-   2272017153D 1   1.00000     0.00000
 Structure written by MMmdl.
 22 22  0  0  0  0  0  0  0  0  2 V2000
  152.8151  138.2484  154.3983 C   0  0  0  0  0  0  0  0  0  0  0  0
  151.4388  138.6928  154.4458 N   0  0  0  0  0  0  0  0  0  0  0  0
  150.2917  137.9682  154.2055 C   0  0  0  0  0  0  0  0  0  0  0  0
  149.2283  138.8125  154.3715 C   0  0  0  0  0  0  0  0  0  0  0  0
  147.7557  138.5345  154.2225 C   0  0  2  0  0  0  0  0  0  0  0  0
  147.5149  137.1724  153.9288 O   0  0  0  0  0  0  0  0  0  0  0  0
  147.1537  139.3898  153.0938 C   0  0  0  0  0  0  0  0  0  0  0  0
  147.2317  138.7092  151.7894 N   0  3  0  0  0  0  0  0  0  0  0  0
  149.8445  140.0497  154.7163 C   0  0  0  0  0  0  0  0  0  0  0  0
  151.1644  139.9751  154.7597 N   0  0  0  0  0  0  0  0  0  0  0  0
  152.8588  137.1928  154.1283 H   0  0  0  0  0  0  0  0  0  0  0  0
  153.2808  138.3834  155.3750 H   0  0  0  0  0  0  0  0  0  0  0  0
  153.3650  138.8268  153.6553 H   0  0  0  0  0  0  0  0  0  0  0  0
  150.3255  136.9220  153.9380 H   0  0  0  0  0  0  0  0  0  0  0  0
  147.2383  138.7609  155.1557 H   0  0  0  0  0  0  0  0  0  0  0  0
  148.1687  136.8778  153.3123 H   0  0  0  0  0  0  0  0  0  0  0  0
  146.1029  139.5957  153.3009 H   0  0  0  0  0  0  0  0  0  0  0  0
  147.6595  140.3540  153.0254 H   0  0  0  0  0  0  0  0  0  0  0  0
  146.3352  138.7594  151.3269 H   0  0  0  0  0  0  0  0  0  0  0  0
  147.4877  137.7422  151.9280 H   0  0  0  0  0  0  0  0  0  0  0  0
  149.3721  140.9965  154.9340 H   0  0  0  0  0  0  0  0  0  0  0  0
  147.9316  139.1638  151.2201 H   0  0  0  0  0  0  0  0  0  0  0  0
  1  2  1  0  0  0  0
  1 11  1  0  0  0  0
  1 12  1  0  0  0  0
  1 13  1  0  0  0  0
  2 10  1  0  0  0  0
  2  3  1  0  0  0  0
  3  4  2  0  0  0  0
  3 14  1  0  0  0  0
  4  5  1  0  0  0  0
  4  9  1  0  0  0  0
  5  6  1  0  0  0  0
  5  7  1  0  0  0  0
  5 15  1  0  0  0  0
  6 16  1  0  0  0  0
  7  8  1  0  0  0  0
  7 17  1  0  0  0  0
  7 18  1  0  0  0  0
  8 19  1  0  0  0  0
  8 20  1  0  0  0  0
  8 22  1  0  0  0  0
  9 10  2  0  0  0  0
  9 21  1  0  0  0  0
M  CHG  1   8   1
M  END
> <s_m_source_file>
AV-unprocessed.smi

> <i_m_source_file_index>
3090

> <i_lp_mmshare_version>
43012

> <i_f3d_flags>
0

> <s_epik_input>
W0NIM11uMVtjSF1jKFtjSF1uMSlbQ0BIXShbT0hdKVtDSDJdW05IMl0=

> <s_epik_cmdline>
J2VwaWtfcHl0aG9uJywgJy1waCcsICc3LjAnLCAnLXRuJywgJzgnLCAnLW1hJywgJzIwMCcsICctbWV0YWxfYmluZGluZycsICctaW1hZScsICc8aW5maWxlLm1hZT4nLCAnLW9tYWUnLCAnPG91dGZpbGUubWFlPic=

> <r_lp_tautomer_probability>
1

> <r_epik_Ionization_Penalty>
0.014056

> <r_epik_Ionization_Penalty_Charging>
0.0140431

> <r_epik_Ionization_Penalty_Neutral>
1.29738e-05

> <r_epik_State_Penalty>
0.0109628

> <r_epik_Charging_Adjusted_Penalty>
0.0250059

> <i_epik_Tot_Q>
1

> <i_epik_Tot_abs_Q>
1

> <r_epik_Metal_State_Penalty>
0.0109636

> <b_epik_Metal_Only>
0

> <s_lp_Force_Field>
OPLS_2005

> <r_lp_Energy>
1.35566

> <b_lp_Chiralities_Consistent>
1

> <s_lp_Variant>
AV-unprocessed.smi:3090-1

> <Gold.Version>
5.8.1

> <Gold.Id.Protein>
6NUR|6NUR_protein|mol2

> <Gold.PLP.Fitness>
38.0019

> <Gold.PLP.PLP>
-21.3632

> <Gold.PLP.part.hbond>
-3.8652

> <Gold.PLP.part.metal>
0.0000

> <Gold.PLP.part.buried>
-1.9829

> <Gold.PLP.part.nonpolar>
-15.5582

> <Gold.PLP.part.repulsive>
0.5601

> <Gold.PLP.ligand.clash>
0.0000

> <Gold.PLP.ligand.torsion>
0.3523

> <Gold.PLP.Chemscore.Hbond>
5.0000

> <Gold.PLP.Chemscore.CHOScore>
0.7803

> <Gold.PLP.Chemscore.Metal>
0.0000

> <Gold.Chemscore.Hbonds>
donor molecule, donor type, donor heavy atom, donor atom, acceptor molecule, acceptor atom, score
      L1  H     6    16       P1  7948  1.00
      L1  H     8    20       P1  7948  1.68
      L1  H     8    22       P1  7957  0.98
      P1  H  7989  7998       L1    10  1.00
      L1  C     3    14       P1  7948  0.62
      L1  C     3    14       P1  7949  0.15

> <Gold.PLP.Chemscore.Internal.Correction>
0.0024

> <Gold.Rescore>
     Score         DG    S(hbond)    S(metal)    S(lipo)     H(rot)  DE(clash)    DE(int)     intcor
     15.21     -15.52       3.10        0.00      40.06       1.96       0.01       0.29       ----

> <Gold.Chemscore.Fitness>
15.2135

> <Gold.Chemscore.DG>
-15.5156

> <Gold.Chemscore.ZeroCoef>
-5.4800

> <Gold.Chemscore.Hbond>
3.0999

> <Gold.Chemscore.Metal>
0.0000

> <Gold.Chemscore.Lipo>
40.0611

> <Gold.Chemscore.Internal_Hbond>
0.0000

> <Gold.Chemscore.DEClash>
0.0086

> <Gold.Chemscore.DEInternal>
0.2936

> <Gold.Chemscore.Rot>
1.9551

> <Gold.Chemscore.Internal.Correction>
   9.000000E+99

> <Gold.Chemscore.Hbonds>
donor molecule, donor type, donor heavy atom, donor atom, acceptor molecule, acceptor atom, score
      L1  H     6    16       P1  7948  1.00
      L1  H     8    20       P1  7948  0.79
      L1  H     8    22       P1  7957  0.61
      P1  H  7989  7998       L1    10  0.24

> <Gold.Chemscore.Hbond.Weighted>
-10.3536

> <Gold.Chemscore.Metal.Weighted>
-0.0000

> <Gold.Chemscore.Lipo.Weighted>
-4.6872

> <Gold.Chemscore.Internal_Hbond.Weighted>
0.0000

> <Gold.Chemscore.DEClash.Weighted>
0.0086

> <Gold.Chemscore.DEInternal.Weighted>
0.2936

> <Gold.Chemscore.Rot.Weighted>
5.0051

> <Gold.Chemscore.Internal.Correction.Weighted>
   9.000000E+99

> <Gold.Protein.RotatedTorsions>
[ 6907 6896 6895 6894 ] final -107.96 input  -60.11 | X-H torsion
[ 7974 7965 7964 7962 ] final -119.36 input  175.53 | X-H torsion
[ 8008 7997 7996 7995 ] final   46.78 input   59.86 | X-H torsion
[ 10167 10162 10161 10158 ] final   94.03 input  -65.29 | X-H torsion
[ 10718 10713 10712 10709 ] final  145.21 input   66.30 | X-H torsion
[ 10763 10752 10751 10750 ] final  139.81 input  -60.55 | X-H torsion
[ 11005 11000 10999 10996 ] final -103.25 input  -57.11 | X-H torsion

> <Gold.Protein.ActiveResidues>
 VAL166  LYS551  ARG553  GLY616  TRP617  ASP618  TYR619  PRO620  LYS621  CYS622 
 ASP623  PHE694  ASN695  SER759  ASP760  ASP761  ALA762  ILE779  LEU786  VAL792 
 PHE793  MET794  SER795  GLU796  ALA797  LYS798  CYS799  TRP800  GLU811  SER814 

> <Gold.Protein.RotatedAtoms>
  150.7474  133.9749  159.3557 H   0  0  0  0  0  0  0  0  0  0  0  0  # atno 6907 bound_to 6896
  151.7685  135.0790  160.0366 H   0  0  0  0  0  0  0  0  0  0  0  0  # atno 6908 bound_to 6896
  152.3355  133.5969  159.5875 H   0  0  0  0  0  0  0  0  0  0  0  0  # atno 6909 bound_to 6896
  145.0634  140.8307  143.4138 H   0  0  0  0  0  0  0  0  0  0  0  0  # atno 7974 bound_to 7965
  155.3581  140.3417  155.4240 H   0  0  0  0  0  0  0  0  0  0  0  0  # atno 8008 bound_to 7997
  156.1728  140.1637  156.8451 H   0  0  0  0  0  0  0  0  0  0  0  0  # atno 8009 bound_to 7997
  154.5251  140.0758  156.8225 H   0  0  0  0  0  0  0  0  0  0  0  0  # atno 8010 bound_to 7997
  139.8122  144.6768  150.9625 H   0  0  0  0  0  0  0  0  0  0  0  0  # atno 10167 bound_to 10162
  157.3480  131.0946  151.1025 H   0  0  0  0  0  0  0  0  0  0  0  0  # atno 10718 bound_to 10713
  153.9123  135.3010  155.3448 H   0  0  0  0  0  0  0  0  0  0  0  0  # atno 10763 bound_to 10752
  154.7617  135.4931  153.9479 H   0  0  0  0  0  0  0  0  0  0  0  0  # atno 10764 bound_to 10752
  153.1186  135.6777  153.9477 H   0  0  0  0  0  0  0  0  0  0  0  0  # atno 10765 bound_to 10752
  141.1154  133.8625  157.1462 H   0  0  0  0  0  0  0  0  0  0  0  0  # atno 11005 bound_to 11000
  145.1380  139.2590  143.5505 LP  0  0  0  0  0  0  0  0  0  0  0  0  # atno 17320 bound_to 7965
  146.3525  140.1050  142.8606 LP  0  0  0  0  0  0  0  0  0  0  0  0  # atno 17321 bound_to 7965
  140.7817  143.4173  151.0896 LP  0  0  0  0  0  0  0  0  0  0  0  0  # atno 17342 bound_to 10162
  139.7839  143.8315  152.3142 LP  0  0  0  0  0  0  0  0  0  0  0  0  # atno 17343 bound_to 10162
  157.2211  130.6482  149.5811 LP  0  0  0  0  0  0  0  0  0  0  0  0  # atno 17370 bound_to 10713
  155.9717  130.4629  150.6161 LP  0  0  0  0  0  0  0  0  0  0  0  0  # atno 17371 bound_to 10713
  140.0073  135.0003  157.0319 LP  0  0  0  0  0  0  0  0  0  0  0  0  # atno 17394 bound_to 11000
  140.4660  134.1435  155.7197 LP  0  0  0  0  0  0  0  0  0  0  0  0  # atno 17395 bound_to 11000

$$$$
