AV-unprocessed.smi:1094|AV-procd|sdf|4746|dock2
  -GOLD-   22720 3283D 1   1.00000     0.00000
 Structure written by MMmdl.
 45 46  0  0  0  0  0  0  0  0  1 V2000
  146.1715  129.9411  152.6363 C   0  0  0  0  0  0  0  0  0  0  0  0
  145.8542  130.4421  151.2200 C   0  0  0  0  0  0  0  0  0  0  0  0
  145.4519  131.8554  151.2271 N   0  0  0  0  0  0  0  0  0  0  0  0
  146.3232  132.7629  151.8613 C   0  0  0  0  0  0  0  0  0  0  0  0
  146.0621  134.0868  151.9362 C   0  0  0  0  0  0  0  0  0  0  0  0
  146.8806  135.0488  152.5478 N   0  0  0  0  0  0  0  0  0  0  0  0
  146.6877  135.7384  153.6879 C   0  0  0  0  0  0  0  0  0  0  0  0
  145.7024  135.6633  154.4217 O   0  0  0  0  0  0  0  0  0  0  0  0
  147.7337  136.5379  153.9429 N   0  0  0  0  0  0  0  0  0  0  0  0
  147.8697  137.4241  155.0989 C   0  0  0  0  0  0  0  0  0  0  0  0
  149.0643  138.4173  155.0044 C   0  0  0  0  0  0  0  0  0  0  0  0
  148.7666  139.3345  153.7857 C   0  0  0  0  0  0  0  0  0  0  0  0
  148.6057  138.7732  152.5827 N   0  0  0  0  0  0  0  0  0  0  0  0
  148.7006  140.5549  153.9244 O   0  0  0  0  0  0  0  0  0  0  0  0
  149.2516  139.2232  156.3230 C   0  0  0  0  0  0  0  0  0  0  0  0
  150.5324  140.0826  156.3136 C   0  0  0  0  0  0  0  0  0  0  0  0
  151.6676  139.2555  156.0859 O   0  0  0  0  0  0  0  0  0  0  0  0
  151.6252  138.5814  154.8334 C   0  0  0  0  0  0  0  0  0  0  0  0
  150.3980  137.6498  154.7826 C   0  0  0  0  0  0  0  0  0  0  0  0
  144.8329  134.5450  151.3246 C   0  0  0  0  0  0  0  0  0  0  0  0
  143.9882  133.6846  150.7243 C   0  0  0  0  0  0  0  0  0  0  0  0
  144.2735  132.2496  150.6588 C   0  0  0  0  0  0  0  0  0  0  0  0
  143.4997  131.4534  150.1266 O   0  0  0  0  0  0  0  0  0  0  0  0
  146.4792  128.8954  152.6167 H   0  0  0  0  0  0  0  0  0  0  0  0
  145.3012  130.0178  153.2888 H   0  0  0  0  0  0  0  0  0  0  0  0
  146.9804  130.5169  153.0866 H   0  0  0  0  0  0  0  0  0  0  0  0
  146.7279  130.3030  150.5813 H   0  0  0  0  0  0  0  0  0  0  0  0
  145.0784  129.8184  150.7722 H   0  0  0  0  0  0  0  0  0  0  0  0
  147.2003  132.2896  152.2726 H   0  0  0  0  0  0  0  0  0  0  0  0
  147.7410  135.2400  152.0558 H   0  0  0  0  0  0  0  0  0  0  0  0
  148.5005  136.5351  153.2865 H   0  0  0  0  0  0  0  0  0  0  0  0
  146.9331  137.9787  155.1752 H   0  0  0  0  0  0  0  0  0  0  0  0
  147.9364  136.8378  156.0179 H   0  0  0  0  0  0  0  0  0  0  0  0
  148.4112  139.3515  151.7783 H   0  0  0  0  0  0  0  0  0  0  0  0
  148.6792  137.7711  152.4836 H   0  0  0  0  0  0  0  0  0  0  0  0
  148.3798  139.8419  156.5389 H   0  0  0  0  0  0  0  0  0  0  0  0
  149.3328  138.5386  157.1668 H   0  0  0  0  0  0  0  0  0  0  0  0
  150.4879  140.8715  155.5622 H   0  0  0  0  0  0  0  0  0  0  0  0
  150.6526  140.5778  157.2773 H   0  0  0  0  0  0  0  0  0  0  0  0
  151.6172  139.3047  154.0168 H   0  0  0  0  0  0  0  0  0  0  0  0
  152.5387  137.9970  154.7235 H   0  0  0  0  0  0  0  0  0  0  0  0
  150.5273  136.8919  155.5556 H   0  0  0  0  0  0  0  0  0  0  0  0
  150.3856  137.1030  153.8388 H   0  0  0  0  0  0  0  0  0  0  0  0
  144.5825  135.5958  151.3487 H   0  0  0  0  0  0  0  0  0  0  0  0
  143.0785  134.0603  150.2789 H   0  0  0  0  0  0  0  0  0  0  0  0
  1  2  1  0  0  0  0
  1 24  1  0  0  0  0
  1 25  1  0  0  0  0
  1 26  1  0  0  0  0
  2  3  1  0  0  0  0
  2 27  1  0  0  0  0
  2 28  1  0  0  0  0
  3 22  1  0  0  0  0
  3  4  1  0  0  0  0
  4  5  2  0  0  0  0
  4 29  1  0  0  0  0
  5  6  1  0  0  0  0
  5 20  1  0  0  0  0
  6  7  1  0  0  0  0
  6 30  1  0  0  0  0
  7  8  2  0  0  0  0
  7  9  1  0  0  0  0
  9 10  1  0  0  0  0
  9 31  1  0  0  0  0
 10 11  1  0  0  0  0
 10 32  1  0  0  0  0
 10 33  1  0  0  0  0
 11 19  1  0  0  0  0
 11 12  1  0  0  0  0
 11 15  1  0  0  0  0
 12 13  1  0  0  0  0
 12 14  2  0  0  0  0
 13 34  1  0  0  0  0
 13 35  1  0  0  0  0
 15 16  1  0  0  0  0
 15 36  1  0  0  0  0
 15 37  1  0  0  0  0
 16 17  1  0  0  0  0
 16 38  1  0  0  0  0
 16 39  1  0  0  0  0
 17 18  1  0  0  0  0
 18 19  1  0  0  0  0
 18 40  1  0  0  0  0
 18 41  1  0  0  0  0
 19 42  1  0  0  0  0
 19 43  1  0  0  0  0
 20 21  2  0  0  0  0
 20 44  1  0  0  0  0
 21 22  1  0  0  0  0
 21 45  1  0  0  0  0
 22 23  2  0  0  0  0
M  END
> <s_m_source_file>
AV-unprocessed.smi

> <i_m_source_file_index>
1094

> <i_lp_mmshare_version>
43012

> <i_f3d_flags>
0

> <s_epik_input>
W0NIM11bQ0gyXW4xW2NIXWMoW2NIXVtjSF1jMT1PKVtOSF1DKD1PKVtOSF1bQ0gyXUMyKEMoPU8pW05IMl0pW0NIMl1bQ0gyXU9bQ0gyXVtDSDJdMg==

> <s_epik_cmdline>
J2VwaWtfcHl0aG9uJywgJy1waCcsICc3LjAnLCAnLXRuJywgJzgnLCAnLW1hJywgJzIwMCcsICctbWV0YWxfYmluZGluZycsICctaW1hZScsICc8aW5maWxlLm1hZT4nLCAnLW9tYWUnLCAnPG91dGZpbGUubWFlPic=

> <r_lp_tautomer_probability>
1

> <r_epik_Ionization_Penalty>
2.3227e-05

> <r_epik_Ionization_Penalty_Charging>
4.44262e-06

> <r_epik_Ionization_Penalty_Neutral>
1.87844e-05

> <r_epik_State_Penalty>
-0

> <r_epik_Charging_Adjusted_Penalty>
4.44262e-06

> <i_epik_Tot_Q>
0

> <i_epik_Tot_abs_Q>
0

> <r_epik_Metal_State_Penalty>
-0

> <b_epik_Metal_Only>
0

> <s_lp_Force_Field>
OPLS_2005

> <r_lp_Energy>
26.2071

> <b_lp_Chiralities_Consistent>
1

> <s_lp_Variant>
AV-unprocessed.smi:1094-1

> <Gold.Version>
5.8.1

> <Gold.Id.Protein>
6NUR|6NUR_protein|mol2

> <Gold.PLP.Fitness>
44.1953

> <Gold.PLP.PLP>
-31.8446

> <Gold.PLP.part.hbond>
-4.2215

> <Gold.PLP.part.metal>
0.0000

> <Gold.PLP.part.buried>
-4.2413

> <Gold.PLP.part.nonpolar>
-24.6397

> <Gold.PLP.part.repulsive>
1.4223

> <Gold.PLP.ligand.clash>
0.0000

> <Gold.PLP.ligand.torsion>
0.7855

> <Gold.PLP.Chemscore.Hbond>
4.2400

> <Gold.PLP.Chemscore.CHOScore>
0.3819

> <Gold.PLP.Chemscore.Metal>
0.0000

> <Gold.Chemscore.Hbonds>
donor molecule, donor type, donor heavy atom, donor atom, acceptor molecule, acceptor atom, score
      L1  H     6    30       P1  7948  0.98
      L1  H     9    31       P1  7948  0.92
      L1  H    13    34       P1  7957  0.29
      L1  H    13    35       P1  7948  1.00
      P1  H 10785 10796       L1    23  0.93

> <Gold.PLP.Chemscore.Internal.Correction>
0.0561

> <Gold.Rescore>
     Score         DG    S(hbond)    S(metal)    S(lipo)     H(rot)  DE(clash)    DE(int)     intcor
     19.27     -22.30       4.46        0.00      62.75       2.11       0.18       2.86       ----

> <Gold.Chemscore.Fitness>
19.2688

> <Gold.Chemscore.DG>
-22.3017

> <Gold.Chemscore.ZeroCoef>
-5.4800

> <Gold.Chemscore.Hbond>
4.4585

> <Gold.Chemscore.Metal>
0.0000

> <Gold.Chemscore.Lipo>
62.7533

> <Gold.Chemscore.Internal_Hbond>
0.0000

> <Gold.Chemscore.DEClash>
0.1765

> <Gold.Chemscore.DEInternal>
2.8564

> <Gold.Chemscore.Rot>
2.1140

> <Gold.Chemscore.Internal.Correction>
   9.000000E+99

> <Gold.Chemscore.Hbonds>
donor molecule, donor type, donor heavy atom, donor atom, acceptor molecule, acceptor atom, score
      L1  H     6    30       P1  7948  0.84
      L1  H     9    31       P1  7948  0.83
      L1  H    13    34       P1  7957  0.29
      L1  H    13    35       P1  7948  0.99
      P1  H 10785 10796       L1    23  0.89

> <Gold.Chemscore.Hbond.Weighted>
-14.8914

> <Gold.Chemscore.Metal.Weighted>
-0.0000

> <Gold.Chemscore.Lipo.Weighted>
-7.3421

> <Gold.Chemscore.Internal_Hbond.Weighted>
0.0000

> <Gold.Chemscore.DEClash.Weighted>
0.1765

> <Gold.Chemscore.DEInternal.Weighted>
2.8564

> <Gold.Chemscore.Rot.Weighted>
5.4119

> <Gold.Chemscore.Internal.Correction.Weighted>
   9.000000E+99

> <Gold.Protein.RotatedTorsions>
[ 6907 6896 6895 6894 ] final  170.86 input  -60.11 | X-H torsion
[ 7974 7965 7964 7962 ] final   -9.64 input  175.53 | X-H torsion
[ 8008 7997 7996 7995 ] final   69.28 input   59.86 | X-H torsion
[ 10167 10162 10161 10158 ] final  -76.60 input  -65.29 | X-H torsion
[ 10718 10713 10712 10709 ] final   54.81 input   66.30 | X-H torsion
[ 10763 10752 10751 10750 ] final   79.29 input  -60.55 | X-H torsion
[ 11005 11000 10999 10996 ] final    5.48 input  -57.11 | X-H torsion

> <Gold.Protein.ActiveResidues>
 VAL166  LYS551  ARG553  GLY616  TRP617  ASP618  TYR619  PRO620  LYS621  CYS622 
 ASP623  PHE694  ASN695  SER759  ASP760  ASP761  ALA762  ILE779  LEU786  VAL792 
 PHE793  MET794  SER795  GLU796  ALA797  LYS798  CYS799  TRP800  GLU811  SER814 

> <Gold.Protein.RotatedAtoms>
  151.8094  133.3380  159.3550 H   0  0  0  0  0  0  0  0  0  0  0  0  # atno 6907 bound_to 6896
  150.7331  134.5679  159.5884 H   0  0  0  0  0  0  0  0  0  0  0  0  # atno 6908 bound_to 6896
  152.3086  134.7526  160.0393 H   0  0  0  0  0  0  0  0  0  0  0  0  # atno 6909 bound_to 6896
  146.2245  140.2646  142.8353 H   0  0  0  0  0  0  0  0  0  0  0  0  # atno 7974 bound_to 7965
  155.7213  140.3493  155.5017 H   0  0  0  0  0  0  0  0  0  0  0  0  # atno 8008 bound_to 7997
  155.9267  140.1077  157.1186 H   0  0  0  0  0  0  0  0  0  0  0  0  # atno 8009 bound_to 7997
  154.4078  140.1239  156.4736 H   0  0  0  0  0  0  0  0  0  0  0  0  # atno 8010 bound_to 7997
  140.4843  143.2395  151.8008 H   0  0  0  0  0  0  0  0  0  0  0  0  # atno 10167 bound_to 10162
  157.5289  130.8617  149.8660 H   0  0  0  0  0  0  0  0  0  0  0  0  # atno 10718 bound_to 10713
  153.0941  135.4845  154.8745 H   0  0  0  0  0  0  0  0  0  0  0  0  # atno 10763 bound_to 10752
  154.7303  135.3059  154.8904 H   0  0  0  0  0  0  0  0  0  0  0  0  # atno 10764 bound_to 10752
  153.9542  135.6820  153.4797 H   0  0  0  0  0  0  0  0  0  0  0  0  # atno 10765 bound_to 10752
  140.5703  134.0109  155.8006 H   0  0  0  0  0  0  0  0  0  0  0  0  # atno 11005 bound_to 11000
  144.9314  140.7979  143.5687 LP  0  0  0  0  0  0  0  0  0  0  0  0  # atno 17320 bound_to 7965
  145.2590  139.2000  143.4902 LP  0  0  0  0  0  0  0  0  0  0  0  0  # atno 17321 bound_to 7965
  139.4839  144.4732  151.9399 LP  0  0  0  0  0  0  0  0  0  0  0  0  # atno 17342 bound_to 10162
  140.3818  144.2727  150.5908 LP  0  0  0  0  0  0  0  0  0  0  0  0  # atno 17343 bound_to 10162
  156.0408  130.3739  150.1441 LP  0  0  0  0  0  0  0  0  0  0  0  0  # atno 17370 bound_to 10713
  156.9626  130.9810  151.3476 LP  0  0  0  0  0  0  0  0  0  0  0  0  # atno 17371 bound_to 10713
  141.1060  133.9692  157.2995 LP  0  0  0  0  0  0  0  0  0  0  0  0  # atno 17394 bound_to 11000
  139.9365  135.0196  156.8572 LP  0  0  0  0  0  0  0  0  0  0  0  0  # atno 17395 bound_to 11000

$$$$
