AV-unprocessed.smi:3047|AV-procd|sdf|11623|dock5
  -GOLD-   2272017 13D 1   1.00000     0.00000
 Structure written by MMmdl.
 37 38  0  0  0  0  0  0  0  0  1 V2000
  148.9057  134.6685  155.9353 C   0  0  0  0  0  0  0  0  0  0  0  0
  150.1544  135.8832  156.5230 S   0  0  0  0  0  0  0  0  0  0  0  0
  150.1635  135.8574  157.9938 O   0  0  0  0  0  0  0  0  0  0  0  0
  151.4077  135.6884  155.7781 O   0  0  0  0  0  0  0  0  0  0  0  0
  149.4763  137.3974  156.0323 N   0  0  0  0  0  0  0  0  0  0  0  0
  148.0359  137.4723  155.7503 C   0  0  0  0  0  0  0  0  0  0  0  0
  147.8625  138.6538  154.7989 C   0  0  0  0  0  0  0  0  0  0  0  0
  149.1813  138.6804  154.0382 C   0  0  0  0  0  0  0  0  0  0  0  0
  150.2233  138.2309  155.0770 C   0  0  1  0  0  0  0  0  0  0  0  0
  150.9454  139.4011  155.7597 C   0  0  0  0  0  0  0  0  0  0  0  0
  151.6299  140.1865  155.1027 O   0  0  0  0  0  0  0  0  0  0  0  0
  150.7684  139.5151  157.0849 N   0  0  0  0  0  0  0  0  0  0  0  0
  151.3334  140.5701  157.9171 C   0  0  0  0  0  0  0  0  0  0  0  0
  150.7805  141.9538  157.5372 C   0  0  0  0  0  0  0  0  0  0  0  0
  151.2691  142.9825  158.4324 N   0  0  0  0  0  0  0  0  0  0  0  0
  150.9074  144.3232  158.4409 C   0  0  0  0  0  0  0  0  0  0  0  0
  151.6187  144.9152  159.4600 C   0  0  0  0  0  0  0  0  0  0  0  0
  152.4196  143.9633  160.0875 N   0  0  0  0  0  0  0  0  0  0  0  0
  152.1590  142.8438  159.4248 C   0  0  0  0  0  0  0  0  0  0  0  0
  149.2171  133.6639  156.2200 H   0  0  0  0  0  0  0  0  0  0  0  0
  148.8186  134.7247  154.8506 H   0  0  0  0  0  0  0  0  0  0  0  0
  147.9405  134.8907  156.3901 H   0  0  0  0  0  0  0  0  0  0  0  0
  147.7116  136.5511  155.2648 H   0  0  0  0  0  0  0  0  0  0  0  0
  147.4654  137.5931  156.6713 H   0  0  0  0  0  0  0  0  0  0  0  0
  146.9980  138.5457  154.1435 H   0  0  0  0  0  0  0  0  0  0  0  0
  147.7403  139.5761  155.3684 H   0  0  0  0  0  0  0  0  0  0  0  0
  149.1490  137.9607  153.2191 H   0  0  0  0  0  0  0  0  0  0  0  0
  149.3874  139.6587  153.6013 H   0  0  0  0  0  0  0  0  0  0  0  0
  150.9697  137.6179  154.5684 H   0  0  0  0  0  0  0  0  0  0  0  0
  150.1794  138.8356  157.5448 H   0  0  0  0  0  0  0  0  0  0  0  0
  151.1408  140.3545  158.9697 H   0  0  0  0  0  0  0  0  0  0  0  0
  152.4164  140.5549  157.7915 H   0  0  0  0  0  0  0  0  0  0  0  0
  151.0652  142.2127  156.5164 H   0  0  0  0  0  0  0  0  0  0  0  0
  149.6903  141.9596  157.5747 H   0  0  0  0  0  0  0  0  0  0  0  0
  150.1932  144.7328  157.7417 H   0  0  0  0  0  0  0  0  0  0  0  0
  151.6158  145.9444  159.7878 H   0  0  0  0  0  0  0  0  0  0  0  0
  152.6265  141.9007  159.6680 H   0  0  0  0  0  0  0  0  0  0  0  0
  1  2  1  0  0  0  0
  1 20  1  0  0  0  0
  1 21  1  0  0  0  0
  1 22  1  0  0  0  0
  2  3  2  0  0  0  0
  2  4  2  0  0  0  0
  2  5  1  0  0  0  0
  5  9  1  0  0  0  0
  5  6  1  0  0  0  0
  6  7  1  0  0  0  0
  6 23  1  0  0  0  0
  6 24  1  0  0  0  0
  7  8  1  0  0  0  0
  7 25  1  0  0  0  0
  7 26  1  0  0  0  0
  8  9  1  0  0  0  0
  8 27  1  0  0  0  0
  8 28  1  0  0  0  0
  9 10  1  0  0  0  0
  9 29  1  0  0  0  0
 10 11  2  0  0  0  0
 10 12  1  0  0  0  0
 12 13  1  0  0  0  0
 12 30  1  0  0  0  0
 13 14  1  0  0  0  0
 13 31  1  0  0  0  0
 13 32  1  0  0  0  0
 14 15  1  0  0  0  0
 14 33  1  0  0  0  0
 14 34  1  0  0  0  0
 15 19  1  0  0  0  0
 15 16  1  0  0  0  0
 16 17  2  0  0  0  0
 16 35  1  0  0  0  0
 17 18  1  0  0  0  0
 17 36  1  0  0  0  0
 18 19  2  0  0  0  0
 19 37  1  0  0  0  0
M  END
> <s_m_source_file>
AV-unprocessed.smi

> <i_m_source_file_index>
3047

> <i_lp_mmshare_version>
43012

> <i_f3d_flags>
0

> <s_epik_input>
W0NIM11TKD1PKSg9TylOMVtDSDJdW0NIMl1bQ0gyXVtDQEhdMUMoPU8pW05IXVtDSDJdW0NIMl1uMltjSF1bY0hdbltjSF0y

> <s_epik_cmdline>
J2VwaWtfcHl0aG9uJywgJy1waCcsICc3LjAnLCAnLXRuJywgJzgnLCAnLW1hJywgJzIwMCcsICctbWV0YWxfYmluZGluZycsICctaW1hZScsICc8aW5maWxlLm1hZT4nLCAnLW9tYWUnLCAnPG91dGZpbGUubWFlPic=

> <r_lp_tautomer_probability>
1

> <r_epik_Ionization_Penalty>
0.575721

> <r_epik_Ionization_Penalty_Charging>
0.575721

> <r_epik_Ionization_Penalty_Neutral>
1.33078e-07

> <r_epik_State_Penalty>
0.588056

> <r_epik_Charging_Adjusted_Penalty>
1.16378

> <i_epik_Tot_Q>
0

> <i_epik_Tot_abs_Q>
0

> <r_epik_Metal_State_Penalty>
0.294357

> <b_epik_Metal_Only>
0

> <s_lp_Force_Field>
OPLS_2005

> <r_lp_Energy>
8.50144

> <b_lp_Chiralities_Consistent>
1

> <s_lp_Variant>
AV-unprocessed.smi:3047-3

> <Gold.Version>
5.8.1

> <Gold.Id.Protein>
6NUR|6NUR_protein|mol2

> <Gold.PLP.Fitness>
45.9300

> <Gold.PLP.PLP>
-33.4797

> <Gold.PLP.part.hbond>
-4.0000

> <Gold.PLP.part.metal>
0.0000

> <Gold.PLP.part.buried>
-3.1850

> <Gold.PLP.part.nonpolar>
-27.4854

> <Gold.PLP.part.repulsive>
0.1306

> <Gold.PLP.ligand.clash>
0.0000

> <Gold.PLP.ligand.torsion>
0.5006

> <Gold.PLP.Chemscore.Hbond>
3.2905

> <Gold.PLP.Chemscore.CHOScore>
1.0000

> <Gold.PLP.Chemscore.Metal>
0.0000

> <Gold.Chemscore.Hbonds>
donor molecule, donor type, donor heavy atom, donor atom, acceptor molecule, acceptor atom, score
      P1  H  6896  6907       L1     3  0.80
      P1  H  7989  7998       L1    11  0.96
      P1  H 10752 10763       L1     4  1.00
      L1  C    16    35       P1  8028  0.78
      L1  C    16    35       P1  8029  0.24

> <Gold.PLP.Chemscore.Internal.Correction>
0.5800

> <Gold.Rescore>
     Score         DG    S(hbond)    S(metal)    S(lipo)     H(rot)  DE(clash)    DE(int)     intcor
     16.03     -16.58       3.03        0.00      60.49       2.39       0.05       0.49       ----

> <Gold.Chemscore.Fitness>
16.0340

> <Gold.Chemscore.DG>
-16.5784

> <Gold.Chemscore.ZeroCoef>
-5.4800

> <Gold.Chemscore.Hbond>
3.0324

> <Gold.Chemscore.Metal>
0.0000

> <Gold.Chemscore.Lipo>
60.4911

> <Gold.Chemscore.Internal_Hbond>
0.0000

> <Gold.Chemscore.DEClash>
0.0519

> <Gold.Chemscore.DEInternal>
0.4924

> <Gold.Chemscore.Rot>
2.3857

> <Gold.Chemscore.Internal.Correction>
   9.000000E+99

> <Gold.Chemscore.Hbonds>
donor molecule, donor type, donor heavy atom, donor atom, acceptor molecule, acceptor atom, score
      P1  H  6896  6907       L1     3  0.75
      P1  H  7989  7998       L1    11  0.92
      P1  H 10752 10763       L1     4  1.00

> <Gold.Chemscore.Hbond.Weighted>
-10.1284

> <Gold.Chemscore.Metal.Weighted>
-0.0000

> <Gold.Chemscore.Lipo.Weighted>
-7.0775

> <Gold.Chemscore.Internal_Hbond.Weighted>
0.0000

> <Gold.Chemscore.DEClash.Weighted>
0.0519

> <Gold.Chemscore.DEInternal.Weighted>
0.4924

> <Gold.Chemscore.Rot.Weighted>
6.1074

> <Gold.Chemscore.Internal.Correction.Weighted>
   9.000000E+99

> <Gold.Protein.RotatedTorsions>
[ 6907 6896 6895 6894 ] final  -62.82 input  -60.11 | X-H torsion
[ 7974 7965 7964 7962 ] final  -10.68 input  175.53 | X-H torsion
[ 8008 7997 7996 7995 ] final -141.33 input   59.86 | X-H torsion
[ 10167 10162 10161 10158 ] final  147.97 input  -65.29 | X-H torsion
[ 10718 10713 10712 10709 ] final  147.82 input   66.30 | X-H torsion
[ 10763 10752 10751 10750 ] final   79.54 input  -60.55 | X-H torsion
[ 11005 11000 10999 10996 ] final -104.13 input  -57.11 | X-H torsion

> <Gold.Protein.ActiveResidues>
 VAL166  LYS551  ARG553  GLY616  TRP617  ASP618  TYR619  PRO620  LYS621  CYS622 
 ASP623  PHE694  ASN695  SER759  ASP760  ASP761  ALA762  ILE779  LEU786  VAL792 
 PHE793  MET794  SER795  GLU796  ALA797  LYS798  CYS799  TRP800  GLU811  SER814 

> <Gold.Protein.RotatedAtoms>
  150.7690  134.6518  159.6292 H   0  0  0  0  0  0  0  0  0  0  0  0  # atno 6907 bound_to 6896
  152.3734  134.6697  160.0177 H   0  0  0  0  0  0  0  0  0  0  0  0  # atno 6908 bound_to 6896
  151.7049  133.3275  159.3312 H   0  0  0  0  0  0  0  0  0  0  0  0  # atno 6909 bound_to 6896
  146.2212  140.2800  142.8362 H   0  0  0  0  0  0  0  0  0  0  0  0  # atno 7974 bound_to 7965
  155.4761  140.0556  157.2973 H   0  0  0  0  0  0  0  0  0  0  0  0  # atno 8008 bound_to 7997
  154.4679  140.2027  156.0023 H   0  0  0  0  0  0  0  0  0  0  0  0  # atno 8009 bound_to 7997
  156.1006  140.3219  155.7941 H   0  0  0  0  0  0  0  0  0  0  0  0  # atno 8010 bound_to 7997
  139.4882  144.5715  151.7045 H   0  0  0  0  0  0  0  0  0  0  0  0  # atno 10167 bound_to 10162
  157.3163  131.0896  151.1276 H   0  0  0  0  0  0  0  0  0  0  0  0  # atno 10718 bound_to 10713
  153.0961  135.4836  154.8781 H   0  0  0  0  0  0  0  0  0  0  0  0  # atno 10763 bound_to 10752
  154.7326  135.3063  154.8868 H   0  0  0  0  0  0  0  0  0  0  0  0  # atno 10764 bound_to 10752
  153.9499  135.6824  153.4797 H   0  0  0  0  0  0  0  0  0  0  0  0  # atno 10765 bound_to 10752
  141.1114  133.8697  157.1572 H   0  0  0  0  0  0  0  0  0  0  0  0  # atno 11005 bound_to 11000
  144.9204  140.7861  143.5752 LP  0  0  0  0  0  0  0  0  0  0  0  0  # atno 17320 bound_to 7965
  145.2736  139.1945  143.4828 LP  0  0  0  0  0  0  0  0  0  0  0  0  # atno 17321 bound_to 7965
  140.5303  144.0740  150.6051 LP  0  0  0  0  0  0  0  0  0  0  0  0  # atno 17342 bound_to 10162
  140.3728  143.2845  152.0259 LP  0  0  0  0  0  0  0  0  0  0  0  0  # atno 17343 bound_to 10162
  157.2579  130.6645  149.5961 LP  0  0  0  0  0  0  0  0  0  0  0  0  # atno 17370 bound_to 10713
  155.9682  130.4518  150.5749 LP  0  0  0  0  0  0  0  0  0  0  0  0  # atno 17371 bound_to 10713
  140.0011  135.0027  157.0191 LP  0  0  0  0  0  0  0  0  0  0  0  0  # atno 17394 bound_to 11000
  140.4763  134.1335  155.7210 LP  0  0  0  0  0  0  0  0  0  0  0  0  # atno 17395 bound_to 11000

$$$$
