AV-unprocessed.smi:113|AV-procd|sdf|1094|dock7
  -GOLD-   2262018203D 1   1.00000     0.00000
 Structure written by MMmdl.
 52 55  0  0  0  0  0  0  0  0  1 V2000
  154.2466  140.8516  162.7681 C   0  0  0  0  0  0  0  0  0  0  0  0
  153.4633  141.5127  161.6529 C   0  0  0  0  0  0  0  0  0  0  0  0
  153.3159  140.8818  160.4048 C   0  0  0  0  0  0  0  0  0  0  0  0
  152.5824  141.5353  159.3879 C   0  0  0  0  0  0  0  0  0  0  0  0
  152.3919  140.8922  158.0093 C   0  0  0  0  0  0  0  0  0  0  0  0
  151.1598  140.1459  157.7985 N   0  0  0  0  0  0  0  0  0  0  0  0
  151.0717  138.8444  158.3515 C   0  0  0  0  0  0  0  0  0  0  0  0
  151.9915  138.3620  159.0158 O   0  0  0  0  0  0  0  0  0  0  0  0
  149.8313  138.1234  158.0533 C   0  0  0  0  0  0  0  0  0  0  0  0
  149.6693  136.7162  158.6060 C   0  0  0  0  0  0  0  0  0  0  0  0
  148.8767  138.7129  157.2942 C   0  0  0  0  0  0  0  0  0  0  0  0
  148.9894  139.9896  156.7710 N   0  0  0  0  0  0  0  0  0  0  0  0
  147.9014  140.5711  155.9029 C   0  0  1  0  0  0  0  0  0  0  0  0
  148.4013  140.7886  154.4812 C   0  0  0  0  0  0  0  0  0  0  0  0
  147.1103  140.6932  153.6918 C   0  0  2  0  0  0  0  0  0  0  0  0
  146.5212  141.9726  153.5598 O   0  0  0  0  0  0  0  0  0  0  0  0
  146.2129  139.7764  154.5482 C   0  0  1  0  0  0  0  0  0  0  0  0
  146.0663  138.3556  153.9806 C   0  0  0  0  0  0  0  0  0  0  0  0
  145.4627  138.3946  152.7050 O   0  0  0  0  0  0  0  0  0  0  0  0
  146.8498  139.6639  155.8206 O   0  0  0  0  0  0  0  0  0  0  0  0
  150.1602  140.7403  156.9962 C   0  0  0  0  0  0  0  0  0  0  0  0
  150.3068  141.8563  156.4919 O   0  0  0  0  0  0  0  0  0  0  0  0
  152.0285  142.8103  159.6824 C   0  0  0  0  0  0  0  0  0  0  0  0
  151.2838  143.5333  158.7193 C   0  0  0  0  0  0  0  0  0  0  0  0
  150.7446  144.7942  159.0302 C   0  0  0  0  0  0  0  0  0  0  0  0
  150.9429  145.3453  160.3066 C   0  0  0  0  0  0  0  0  0  0  0  0
  151.6814  144.6338  161.2691 C   0  0  0  0  0  0  0  0  0  0  0  0
  152.2331  143.3675  160.9793 C   0  0  0  0  0  0  0  0  0  0  0  0
  152.9379  142.7209  161.9337 N   0  0  0  0  0  0  0  0  0  0  0  0
  154.3947  139.7897  162.5691 H   0  0  0  0  0  0  0  0  0  0  0  0
  153.7207  140.9463  163.7187 H   0  0  0  0  0  0  0  0  0  0  0  0
  155.2258  141.3203  162.8692 H   0  0  0  0  0  0  0  0  0  0  0  0
  153.7656  139.9135  160.2455 H   0  0  0  0  0  0  0  0  0  0  0  0
  152.4493  141.6515  157.2279 H   0  0  0  0  0  0  0  0  0  0  0  0
  153.2216  140.2176  157.7914 H   0  0  0  0  0  0  0  0  0  0  0  0
  148.7128  136.2762  158.3224 H   0  0  0  0  0  0  0  0  0  0  0  0
  149.7213  136.7267  159.6954 H   0  0  0  0  0  0  0  0  0  0  0  0
  150.4599  136.0653  158.2310 H   0  0  0  0  0  0  0  0  0  0  0  0
  147.9818  138.1470  157.0781 H   0  0  0  0  0  0  0  0  0  0  0  0
  147.5355  141.4807  156.3826 H   0  0  0  0  0  0  0  0  0  0  0  0
  148.9333  141.7356  154.3811 H   0  0  0  0  0  0  0  0  0  0  0  0
  149.0699  139.9721  154.2038 H   0  0  0  0  0  0  0  0  0  0  0  0
  147.2856  140.2959  152.6914 H   0  0  0  0  0  0  0  0  0  0  0  0
  146.0045  141.9882  152.7687 H   0  0  0  0  0  0  0  0  0  0  0  0
  145.2242  140.2152  154.6954 H   0  0  0  0  0  0  0  0  0  0  0  0
  147.0347  137.8582  153.9160 H   0  0  0  0  0  0  0  0  0  0  0  0
  145.4368  137.7530  154.6360 H   0  0  0  0  0  0  0  0  0  0  0  0
  144.6479  138.8687  152.7712 H   0  0  0  0  0  0  0  0  0  0  0  0
  151.1127  143.1390  157.7294 H   0  0  0  0  0  0  0  0  0  0  0  0
  150.1788  145.3381  158.2880 H   0  0  0  0  0  0  0  0  0  0  0  0
  150.5296  146.3134  160.5487 H   0  0  0  0  0  0  0  0  0  0  0  0
  151.8279  145.0684  162.2472 H   0  0  0  0  0  0  0  0  0  0  0  0
  1  2  1  0  0  0  0
  1 30  1  0  0  0  0
  1 31  1  0  0  0  0
  1 32  1  0  0  0  0
  2 29  1  0  0  0  0
  2  3  2  0  0  0  0
  3  4  1  0  0  0  0
  3 33  1  0  0  0  0
  4  5  1  0  0  0  0
  4 23  2  0  0  0  0
  5  6  1  0  0  0  0
  5 34  1  0  0  0  0
  5 35  1  0  0  0  0
  6 21  1  0  0  0  0
  6  7  1  0  0  0  0
  7  8  2  0  0  0  0
  7  9  1  0  0  0  0
  9 10  1  0  0  0  0
  9 11  2  0  0  0  0
 10 36  1  0  0  0  0
 10 37  1  0  0  0  0
 10 38  1  0  0  0  0
 11 12  1  0  0  0  0
 11 39  1  0  0  0  0
 12 13  1  0  0  0  0
 12 21  1  0  0  0  0
 13 20  1  0  0  0  0
 13 14  1  0  0  0  0
 13 40  1  0  0  0  0
 14 15  1  0  0  0  0
 14 41  1  0  0  0  0
 14 42  1  0  0  0  0
 15 16  1  0  0  0  0
 15 17  1  0  0  0  0
 15 43  1  0  0  0  0
 16 44  1  0  0  0  0
 17 18  1  0  0  0  0
 17 20  1  0  0  0  0
 17 45  1  0  0  0  0
 18 19  1  0  0  0  0
 18 46  1  0  0  0  0
 18 47  1  0  0  0  0
 19 48  1  0  0  0  0
 21 22  2  0  0  0  0
 23 28  1  0  0  0  0
 23 24  1  0  0  0  0
 24 25  2  0  0  0  0
 24 49  1  0  0  0  0
 25 26  1  0  0  0  0
 25 50  1  0  0  0  0
 26 27  2  0  0  0  0
 26 51  1  0  0  0  0
 27 28  1  0  0  0  0
 27 52  1  0  0  0  0
 28 29  2  0  0  0  0
M  END
> <s_m_source_file>
AV-unprocessed.smi

> <i_m_source_file_index>
113

> <i_lp_mmshare_version>
43012

> <i_f3d_flags>
0

> <s_epik_input>
W2NIXTFbY0hdW2NIXVtjSF1jKGMxMiluYyhbQ0gzXSlbY0hdYzJbQ0gyXW4zYyg9TyljKFtDSDNdKVtjSF1uKGMzPU8pW0NAQEhdNFtDSDJdW0NAQEhdKFtPSF0pW0NASF0oTzQpW0NIMl1bT0hd

> <s_epik_cmdline>
J2VwaWtfcHl0aG9uJywgJy1waCcsICc3LjAnLCAnLXRuJywgJzgnLCAnLW1hJywgJzIwMCcsICctbWV0YWxfYmluZGluZycsICctaW1hZScsICc8aW5maWxlLm1hZT4nLCAnLW9tYWUnLCAnPG91dGZpbGUubWFlPic=

> <r_lp_tautomer_probability>
1

> <r_epik_Ionization_Penalty>
0.214728

> <r_epik_Ionization_Penalty_Charging>
3.04883e-08

> <r_epik_Ionization_Penalty_Neutral>
0.214728

> <r_epik_State_Penalty>
0.204913

> <r_epik_Charging_Adjusted_Penalty>
0.204913

> <i_epik_Tot_Q>
0

> <i_epik_Tot_abs_Q>
0

> <r_epik_Metal_State_Penalty>
0.000244761

> <b_epik_Metal_Only>
0

> <s_epik_Chemistry_Notes>
This compound contains an acetal/aminal-like group ( X-CH(R)-Y where X, Y are N, S, or O) that may be acid/base labile, releasing an aldehyde.

> <s_lp_Force_Field>
OPLS_2005

> <r_lp_Energy>
39.8803

> <b_lp_Chiralities_Consistent>
1

> <s_lp_Variant>
AV-unprocessed.smi:113-4

> <Gold.Version>
5.8.1

> <Gold.Id.Protein>
6NUR|6NUR_protein|mol2

> <Gold.PLP.Fitness>
49.9537

> <Gold.PLP.PLP>
-48.0705

> <Gold.PLP.part.hbond>
-1.0000

> <Gold.PLP.part.metal>
0.0000

> <Gold.PLP.part.buried>
-5.0304

> <Gold.PLP.part.nonpolar>
-41.4565

> <Gold.PLP.part.repulsive>
0.1703

> <Gold.PLP.ligand.clash>
0.0000

> <Gold.PLP.ligand.torsion>
0.5768

> <Gold.PLP.Chemscore.Hbond>
1.0000

> <Gold.PLP.Chemscore.CHOScore>
0.0000

> <Gold.PLP.Chemscore.Metal>
0.0000

> <Gold.Chemscore.Hbonds>
donor molecule, donor type, donor heavy atom, donor atom, acceptor molecule, acceptor atom, score
      L1  H    19    48       P1 10175  0.98

> <Gold.PLP.Chemscore.Internal.Correction>
0.0368

> <Gold.Rescore>
     Score         DG    S(hbond)    S(metal)    S(lipo)     H(rot)  DE(clash)    DE(int)     intcor
     14.67     -17.63       1.00        0.00     139.76       2.95       1.49       1.47       ----

> <Gold.Chemscore.Fitness>
14.6672

> <Gold.Chemscore.DG>
-17.6251

> <Gold.Chemscore.ZeroCoef>
-5.4800

> <Gold.Chemscore.Hbond>
0.9992

> <Gold.Chemscore.Metal>
0.0000

> <Gold.Chemscore.Lipo>
139.7594

> <Gold.Chemscore.Internal_Hbond>
0.0000

> <Gold.Chemscore.DEClash>
1.4865

> <Gold.Chemscore.DEInternal>
1.4714

> <Gold.Chemscore.Rot>
2.9469

> <Gold.Chemscore.Internal.Correction>
   9.000000E+99

> <Gold.Chemscore.Hbonds>
donor molecule, donor type, donor heavy atom, donor atom, acceptor molecule, acceptor atom, score
      L1  H    19    48       P1 10175  0.93

> <Gold.Chemscore.Hbond.Weighted>
-3.3372

> <Gold.Chemscore.Metal.Weighted>
-0.0000

> <Gold.Chemscore.Lipo.Weighted>
-16.3519

> <Gold.Chemscore.Internal_Hbond.Weighted>
0.0000

> <Gold.Chemscore.DEClash.Weighted>
1.4865

> <Gold.Chemscore.DEInternal.Weighted>
1.4714

> <Gold.Chemscore.Rot.Weighted>
7.5439

> <Gold.Chemscore.Internal.Correction.Weighted>
   9.000000E+99

> <Gold.Protein.RotatedTorsions>
[ 6907 6896 6895 6894 ] final  -53.34 input  -60.11 | X-H torsion
[ 7974 7965 7964 7962 ] final  -91.50 input  175.53 | X-H torsion
[ 8008 7997 7996 7995 ] final  -94.82 input   59.86 | X-H torsion
[ 10167 10162 10161 10158 ] final -168.06 input  -65.29 | X-H torsion
[ 10718 10713 10712 10709 ] final  -75.39 input   66.30 | X-H torsion
[ 10763 10752 10751 10750 ] final  166.75 input  -60.55 | X-H torsion
[ 11005 11000 10999 10996 ] final  -95.39 input  -57.11 | X-H torsion

> <Gold.Protein.ActiveResidues>
 VAL166  LYS551  ARG553  GLY616  TRP617  ASP618  TYR619  PRO620  LYS621  CYS622 
 ASP623  PHE694  ASN695  SER759  ASP760  ASP761  ALA762  ILE779  LEU786  VAL792 
 PHE793  MET794  SER795  GLU796  ALA797  LYS798  CYS799  TRP800  GLU811  SER814 

> <Gold.Protein.RotatedAtoms>
  150.8435  134.7736  159.6951 H   0  0  0  0  0  0  0  0  0  0  0  0  # atno 6907 bound_to 6896
  152.4517  134.5375  159.9839 H   0  0  0  0  0  0  0  0  0  0  0  0  # atno 6908 bound_to 6896
  151.5510  133.3379  159.2989 H   0  0  0  0  0  0  0  0  0  0  0  0  # atno 6909 bound_to 6896
  145.4122  140.9546  143.2227 H   0  0  0  0  0  0  0  0  0  0  0  0  # atno 7974 bound_to 7965
  154.7533  140.0486  157.0912 H   0  0  0  0  0  0  0  0  0  0  0  0  # atno 8008 bound_to 7997
  155.0029  140.3127  155.4840 H   0  0  0  0  0  0  0  0  0  0  0  0  # atno 8009 bound_to 7997
  156.2889  140.2198  156.5140 H   0  0  0  0  0  0  0  0  0  0  0  0  # atno 8010 bound_to 7997
  139.6009  144.1013  152.1741 H   0  0  0  0  0  0  0  0  0  0  0  0  # atno 10167 bound_to 10162
  156.0209  130.4439  150.3036 H   0  0  0  0  0  0  0  0  0  0  0  0  # atno 10718 bound_to 10713
  154.3436  135.2753  155.2409 H   0  0  0  0  0  0  0  0  0  0  0  0  # atno 10763 bound_to 10752
  154.4669  135.5893  153.6298 H   0  0  0  0  0  0  0  0  0  0  0  0  # atno 10764 bound_to 10752
  152.9855  135.6078  154.3640 H   0  0  0  0  0  0  0  0  0  0  0  0  # atno 10765 bound_to 10752
  141.1443  133.8023  157.0428 H   0  0  0  0  0  0  0  0  0  0  0  0  # atno 11005 bound_to 11000
  144.8301  139.5643  143.6947 LP  0  0  0  0  0  0  0  0  0  0  0  0  # atno 17320 bound_to 7965
  146.2699  139.6609  142.9303 LP  0  0  0  0  0  0  0  0  0  0  0  0  # atno 17321 bound_to 7965
  140.0609  144.5857  150.7264 LP  0  0  0  0  0  0  0  0  0  0  0  0  # atno 17342 bound_to 10162
  140.7249  143.2625  151.4155 LP  0  0  0  0  0  0  0  0  0  0  0  0  # atno 17343 bound_to 10162
  157.1138  131.0228  151.3037 LP  0  0  0  0  0  0  0  0  0  0  0  0  # atno 17370 bound_to 10713
  157.4683  130.7693  149.7299 LP  0  0  0  0  0  0  0  0  0  0  0  0  # atno 17371 bound_to 10713
  140.0681  134.9717  157.1421 LP  0  0  0  0  0  0  0  0  0  0  0  0  # atno 17394 bound_to 11000
  140.3750  134.2349  155.7175 LP  0  0  0  0  0  0  0  0  0  0  0  0  # atno 17395 bound_to 11000

$$$$
