AV-unprocessed.smi:2640|AV-procd|sdf|10268|dock1
  -GOLD-   2272014283D 1   1.00000     0.00000
 Structure written by MMmdl.
 42 43  0  0  0  0  0  0  0  0  2 V2000
  144.4421  136.9619  152.3351 O   0  0  0  0  0  0  0  0  0  0  0  0
  145.6398  137.0296  152.0572 C   0  0  0  0  0  0  0  0  0  0  0  0
  146.3703  138.3721  152.0958 C   0  0  0  0  0  0  0  0  0  0  0  0
  147.4000  138.4056  153.1540 N   0  3  0  0  0  0  0  0  0  0  0  0
  148.2171  139.6337  153.1643 C   0  0  0  0  0  0  0  0  0  0  0  0
  148.8630  139.8513  154.5406 C   0  0  0  0  0  0  0  0  0  0  0  0
  150.1622  139.2140  154.6356 N   0  0  0  0  0  0  0  0  0  0  0  0
  150.4914  137.8952  154.4033 C   0  0  0  0  0  0  0  0  0  0  0  0
  151.8352  137.7698  154.6103 C   0  0  0  0  0  0  0  0  0  0  0  0
  152.2470  139.0845  154.9657 C   0  0  0  0  0  0  0  0  0  0  0  0
  151.2430  139.9468  154.9792 N   0  0  0  0  0  0  0  0  0  0  0  0
  146.3787  135.9608  151.7177 N   0  0  0  0  0  0  0  0  0  0  0  0
  145.8793  134.5889  151.5942 C   0  0  2  0  0  0  0  0  0  0  0  0
  144.8164  134.5766  150.4719 C   0  0  0  0  0  0  0  0  0  0  0  0
  144.5893  133.1885  149.8479 C   0  0  0  0  0  0  0  0  0  0  0  0
  143.9993  132.1367  150.7997 C   0  0  0  0  0  0  0  0  0  0  0  0
  144.9036  131.8114  152.0008 C   0  0  0  0  0  0  0  0  0  0  0  0
  144.8392  132.8402  153.0306 N   0  0  0  0  0  0  0  0  0  0  0  0
  145.2296  134.1187  152.9174 C   0  0  0  0  0  0  0  0  0  0  0  0
  145.0698  134.9036  153.8526 O   0  0  0  0  0  0  0  0  0  0  0  0
  146.8363  138.5448  151.1248 H   0  0  0  0  0  0  0  0  0  0  0  0
  145.6530  139.1768  152.2646 H   0  0  0  0  0  0  0  0  0  0  0  0
  146.9385  138.3143  154.0478 H   0  0  0  0  0  0  0  0  0  0  0  0
  148.9857  139.5550  152.3941 H   0  0  0  0  0  0  0  0  0  0  0  0
  147.5881  140.4872  152.9078 H   0  0  0  0  0  0  0  0  0  0  0  0
  148.9847  140.9173  154.7382 H   0  0  0  0  0  0  0  0  0  0  0  0
  148.2249  139.4532  155.3310 H   0  0  0  0  0  0  0  0  0  0  0  0
  149.7520  137.1633  154.1133 H   0  0  0  0  0  0  0  0  0  0  0  0
  152.4339  136.8756  154.5194 H   0  0  0  0  0  0  0  0  0  0  0  0
  153.2386  139.4352  155.2115 H   0  0  0  0  0  0  0  0  0  0  0  0
  147.3551  136.1052  151.5046 H   0  0  0  0  0  0  0  0  0  0  0  0
  146.7107  133.9324  151.3306 H   0  0  0  0  0  0  0  0  0  0  0  0
  143.8703  134.9912  150.8245 H   0  0  0  0  0  0  0  0  0  0  0  0
  145.1415  135.2374  149.6665 H   0  0  0  0  0  0  0  0  0  0  0  0
  143.9174  133.2976  148.9960 H   0  0  0  0  0  0  0  0  0  0  0  0
  145.5293  132.8183  149.4374 H   0  0  0  0  0  0  0  0  0  0  0  0
  143.0133  132.4507  151.1447 H   0  0  0  0  0  0  0  0  0  0  0  0
  143.8385  131.2200  150.2315 H   0  0  0  0  0  0  0  0  0  0  0  0
  144.5697  130.8797  152.4582 H   0  0  0  0  0  0  0  0  0  0  0  0
  145.9350  131.6457  151.6871 H   0  0  0  0  0  0  0  0  0  0  0  0
  144.4283  132.5632  153.9105 H   0  0  0  0  0  0  0  0  0  0  0  0
  148.0102  137.6108  153.0265 H   0  0  0  0  0  0  0  0  0  0  0  0
  1  2  2  0  0  0  0
  2  3  1  0  0  0  0
  2 12  1  0  0  0  0
  3  4  1  0  0  0  0
  3 21  1  0  0  0  0
  3 22  1  0  0  0  0
  4  5  1  0  0  0  0
  4 23  1  0  0  0  0
  4 42  1  0  0  0  0
  5  6  1  0  0  0  0
  5 24  1  0  0  0  0
  5 25  1  0  0  0  0
  6  7  1  0  0  0  0
  6 26  1  0  0  0  0
  6 27  1  0  0  0  0
  7 11  1  0  0  0  0
  7  8  1  0  0  0  0
  8  9  2  0  0  0  0
  8 28  1  0  0  0  0
  9 10  1  0  0  0  0
  9 29  1  0  0  0  0
 10 11  2  0  0  0  0
 10 30  1  0  0  0  0
 12 13  1  0  0  0  0
 12 31  1  0  0  0  0
 13 19  1  0  0  0  0
 13 14  1  0  0  0  0
 13 32  1  0  0  0  0
 14 15  1  0  0  0  0
 14 33  1  0  0  0  0
 14 34  1  0  0  0  0
 15 16  1  0  0  0  0
 15 35  1  0  0  0  0
 15 36  1  0  0  0  0
 16 17  1  0  0  0  0
 16 37  1  0  0  0  0
 16 38  1  0  0  0  0
 17 18  1  0  0  0  0
 17 39  1  0  0  0  0
 17 40  1  0  0  0  0
 18 19  1  0  0  0  0
 18 41  1  0  0  0  0
 19 20  2  0  0  0  0
M  CHG  1   4   1
M  END
> <s_m_source_file>
AV-unprocessed.smi

> <i_m_source_file_index>
2640

> <i_lp_mmshare_version>
43012

> <i_f3d_flags>
0

> <s_epik_input>
Tz1DMVtOSF1bQ0gyXVtDSDJdW0NIMl1bQ0gyXVtDQEhdMVtOSF1DKD1PKVtDSDJdW05IXVtDSDJdW0NIMl1uMltjSF1bY0hdW2NIXW4y

> <s_epik_cmdline>
J2VwaWtfcHl0aG9uJywgJy1waCcsICc3LjAnLCAnLXRuJywgJzgnLCAnLW1hJywgJzIwMCcsICctbWV0YWxfYmluZGluZycsICctaW1hZScsICc8aW5maWxlLm1hZT4nLCAnLW9tYWUnLCAnPG91dGZpbGUubWFlPic=

> <r_lp_tautomer_probability>
1

> <r_epik_Ionization_Penalty>
0.245908

> <r_epik_Ionization_Penalty_Charging>
0.245903

> <r_epik_Ionization_Penalty_Neutral>
5.38378e-06

> <r_epik_State_Penalty>
0.237496

> <r_epik_Charging_Adjusted_Penalty>
0.483398

> <i_epik_Tot_Q>
1

> <i_epik_Tot_abs_Q>
1

> <r_epik_Metal_State_Penalty>
0.237698

> <b_epik_Metal_Only>
0

> <s_lp_Force_Field>
OPLS_2005

> <r_lp_Energy>
8.65948

> <b_lp_Chiralities_Consistent>
1

> <s_lp_Variant>
AV-unprocessed.smi:2640-1

> <Gold.Version>
5.8.1

> <Gold.Id.Protein>
6NUR|6NUR_protein|mol2

> <Gold.PLP.Fitness>
51.5289

> <Gold.PLP.PLP>
-35.1910

> <Gold.PLP.part.hbond>
-4.0000

> <Gold.PLP.part.metal>
0.0000

> <Gold.PLP.part.buried>
0.4989

> <Gold.PLP.part.nonpolar>
-34.3689

> <Gold.PLP.part.repulsive>
0.7539

> <Gold.PLP.ligand.clash>
0.0000

> <Gold.PLP.ligand.torsion>
0.3589

> <Gold.PLP.Chemscore.Hbond>
4.6477

> <Gold.PLP.Chemscore.CHOScore>
1.0000

> <Gold.PLP.Chemscore.Metal>
0.0000

> <Gold.Chemscore.Hbonds>
donor molecule, donor type, donor heavy atom, donor atom, acceptor molecule, acceptor atom, score
      L1  H     4    42       P1  7948  2.00
      L1  H    12    31       P1  7948  1.00
      L1  H    18    41       P1 10957  0.69
      P1  H  7989  7998       L1    11  0.95
      L1  C     8    28       P1  7948  0.99

> <Gold.PLP.Chemscore.Internal.Correction>
0.1127

> <Gold.Rescore>
     Score         DG    S(hbond)    S(metal)    S(lipo)     H(rot)  DE(clash)    DE(int)     intcor
     13.84     -20.60       3.45        0.00      84.16       2.45       2.00       4.75       ----

> <Gold.Chemscore.Fitness>
13.8420

> <Gold.Chemscore.DG>
-20.5956

> <Gold.Chemscore.ZeroCoef>
-5.4800

> <Gold.Chemscore.Hbond>
3.4526

> <Gold.Chemscore.Metal>
0.0000

> <Gold.Chemscore.Lipo>
84.1571

> <Gold.Chemscore.Internal_Hbond>
0.0000

> <Gold.Chemscore.DEClash>
2.0009

> <Gold.Chemscore.DEInternal>
4.7528

> <Gold.Chemscore.Rot>
2.4462

> <Gold.Chemscore.Internal.Correction>
   9.000000E+99

> <Gold.Chemscore.Hbonds>
donor molecule, donor type, donor heavy atom, donor atom, acceptor molecule, acceptor atom, score
      L1  H     4    42       P1  7948  0.90
      L1  H    12    31       P1  7948  0.98
      L1  H    18    41       P1 10957  0.37
      P1  H  7989  7998       L1    11  0.11

> <Gold.Chemscore.Hbond.Weighted>
-11.5315

> <Gold.Chemscore.Metal.Weighted>
-0.0000

> <Gold.Chemscore.Lipo.Weighted>
-9.8464

> <Gold.Chemscore.Internal_Hbond.Weighted>
0.0000

> <Gold.Chemscore.DEClash.Weighted>
2.0009

> <Gold.Chemscore.DEInternal.Weighted>
4.7528

> <Gold.Chemscore.Rot.Weighted>
6.2623

> <Gold.Chemscore.Internal.Correction.Weighted>
   9.000000E+99

> <Gold.Protein.RotatedTorsions>
[ 6907 6896 6895 6894 ] final  144.66 input  -60.11 | X-H torsion
[ 7974 7965 7964 7962 ] final -110.77 input  175.53 | X-H torsion
[ 8008 7997 7996 7995 ] final   44.12 input   59.86 | X-H torsion
[ 10167 10162 10161 10158 ] final  -74.66 input  -65.29 | X-H torsion
[ 10718 10713 10712 10709 ] final  141.04 input   66.30 | X-H torsion
[ 10763 10752 10751 10750 ] final  175.75 input  -60.55 | X-H torsion
[ 11005 11000 10999 10996 ] final   79.25 input  -57.11 | X-H torsion

> <Gold.Protein.ActiveResidues>
 VAL166  LYS551  ARG553  GLY616  TRP617  ASP618  TYR619  PRO620  LYS621  CYS622 
 ASP623  PHE694  ASN695  SER759  ASP760  ASP761  ALA762  ILE779  LEU786  VAL792 
 PHE793  MET794  SER795  GLU796  ALA797  LYS798  CYS799  TRP800  GLU811  SER814 

> <Gold.Protein.RotatedAtoms>
  152.1908  133.4772  159.5006 H   0  0  0  0  0  0  0  0  0  0  0  0  # atno 6907 bound_to 6896
  150.6951  134.1714  159.4223 H   0  0  0  0  0  0  0  0  0  0  0  0  # atno 6908 bound_to 6896
  151.9629  135.0114  160.0599 H   0  0  0  0  0  0  0  0  0  0  0  0  # atno 6909 bound_to 6896
  145.1641  140.8893  143.3573 H   0  0  0  0  0  0  0  0  0  0  0  0  # atno 7974 bound_to 7965
  155.3141  140.3393  155.4243 H   0  0  0  0  0  0  0  0  0  0  0  0  # atno 8008 bound_to 7997
  156.1941  140.1708  156.8071 H   0  0  0  0  0  0  0  0  0  0  0  0  # atno 8009 bound_to 7997
  154.5477  140.0712  156.8600 H   0  0  0  0  0  0  0  0  0  0  0  0  # atno 8010 bound_to 7997
  140.5008  143.2361  151.7755 H   0  0  0  0  0  0  0  0  0  0  0  0  # atno 10167 bound_to 10162
  157.3965  131.1011  151.0595 H   0  0  0  0  0  0  0  0  0  0  0  0  # atno 10718 bound_to 10713
  154.4718  135.2771  155.1637 H   0  0  0  0  0  0  0  0  0  0  0  0  # atno 10763 bound_to 10752
  154.3383  135.6175  153.5588 H   0  0  0  0  0  0  0  0  0  0  0  0  # atno 10764 bound_to 10752
  152.9865  135.5782  154.5100 H   0  0  0  0  0  0  0  0  0  0  0  0  # atno 10765 bound_to 10752
  139.9180  134.7828  156.1755 H   0  0  0  0  0  0  0  0  0  0  0  0  # atno 11005 bound_to 11000
  145.0300  139.3349  143.6029 LP  0  0  0  0  0  0  0  0  0  0  0  0  # atno 17320 bound_to 7965
  146.3478  139.9634  142.8714 LP  0  0  0  0  0  0  0  0  0  0  0  0  # atno 17321 bound_to 7965
  139.4871  144.4525  151.9638 LP  0  0  0  0  0  0  0  0  0  0  0  0  # atno 17342 bound_to 10162
  140.3614  144.2969  150.5933 LP  0  0  0  0  0  0  0  0  0  0  0  0  # atno 17343 bound_to 10162
  157.1610  130.6225  149.5610 LP  0  0  0  0  0  0  0  0  0  0  0  0  # atno 17370 bound_to 10713
  155.9812  130.4817  150.6813 LP  0  0  0  0  0  0  0  0  0  0  0  0  # atno 17371 bound_to 10713
  141.0674  133.6812  156.2072 LP  0  0  0  0  0  0  0  0  0  0  0  0  # atno 17394 bound_to 11000
  140.6562  134.5015  157.5581 LP  0  0  0  0  0  0  0  0  0  0  0  0  # atno 17395 bound_to 11000

$$$$
