AV-unprocessed.smi:3097|AV-procd|sdf|11798|dock6
  -GOLD-   2272017173D 1   1.00000     0.00000
 Structure written by MMmdl.
 35 35  0  0  0  0  0  0  0  0  2 V2000
  149.0916  136.0519  158.4400 C   0  0  0  0  0  0  0  0  0  0  0  0
  148.3726  137.0674  157.5427 C   0  0  0  0  0  0  0  0  0  0  0  0
  149.2770  137.6550  156.4491 C   0  0  0  0  0  0  0  0  0  0  0  0
  148.6999  138.8720  155.8589 N   0  0  0  0  0  0  0  0  0  0  0  0
  149.1347  140.1335  156.0497 C   0  0  0  0  0  0  0  0  0  0  0  0
  148.4887  141.1614  155.4650 N   0  3  0  0  0  0  0  0  0  0  0  0
  147.3074  141.0481  154.6011 C   0  0  0  0  0  0  0  0  0  0  0  0
  150.2114  140.3694  156.8245 N   0  0  0  0  0  0  0  0  0  0  0  0
  150.7813  141.6900  157.1214 C   0  0  0  0  0  0  0  0  0  0  0  0
  150.1972  142.2674  158.4172 C   0  0  0  0  0  0  0  0  0  0  0  0
  150.8910  143.4734  158.8244 N   0  0  0  0  0  0  0  0  0  0  0  0
  151.1983  144.5852  158.0683 C   0  0  0  0  0  0  0  0  0  0  0  0
  151.8556  145.4615  158.8835 C   0  0  0  0  0  0  0  0  0  0  0  0
  151.9051  144.7867  160.1355 C   0  0  0  0  0  0  0  0  0  0  0  0
  151.3259  143.5973  160.0972 N   0  0  0  0  0  0  0  0  0  0  0  0
  148.4212  135.6761  159.2132 H   0  0  0  0  0  0  0  0  0  0  0  0
  149.9509  136.5038  158.9364 H   0  0  0  0  0  0  0  0  0  0  0  0
  149.4470  135.1956  157.8662 H   0  0  0  0  0  0  0  0  0  0  0  0
  147.4999  136.5962  157.0893 H   0  0  0  0  0  0  0  0  0  0  0  0
  147.9890  137.8801  158.1604 H   0  0  0  0  0  0  0  0  0  0  0  0
  150.2599  137.8901  156.8582 H   0  0  0  0  0  0  0  0  0  0  0  0
  149.4371  136.9202  155.6596 H   0  0  0  0  0  0  0  0  0  0  0  0
  147.8718  138.7401  155.2958 H   0  0  0  0  0  0  0  0  0  0  0  0
  146.9825  142.0365  154.2766 H   0  0  0  0  0  0  0  0  0  0  0  0
  146.4861  140.5737  155.1383 H   0  0  0  0  0  0  0  0  0  0  0  0
  147.5375  140.4530  153.7172 H   0  0  0  0  0  0  0  0  0  0  0  0
  150.6660  139.5783  157.2575 H   0  0  0  0  0  0  0  0  0  0  0  0
  151.8645  141.5981  157.2077 H   0  0  0  0  0  0  0  0  0  0  0  0
  150.5780  142.3567  156.2826 H   0  0  0  0  0  0  0  0  0  0  0  0
  149.1387  142.5008  158.2909 H   0  0  0  0  0  0  0  0  0  0  0  0
  150.2672  141.5369  159.2244 H   0  0  0  0  0  0  0  0  0  0  0  0
  150.9266  144.6607  157.0254 H   0  0  0  0  0  0  0  0  0  0  0  0
  152.2432  146.4358  158.6250 H   0  0  0  0  0  0  0  0  0  0  0  0
  152.3405  145.1239  161.0647 H   0  0  0  0  0  0  0  0  0  0  0  0
  148.8354  142.0960  155.6286 H   0  0  0  0  0  0  0  0  0  0  0  0
  1  2  1  0  0  0  0
  1 16  1  0  0  0  0
  1 17  1  0  0  0  0
  1 18  1  0  0  0  0
  2  3  1  0  0  0  0
  2 19  1  0  0  0  0
  2 20  1  0  0  0  0
  3  4  1  0  0  0  0
  3 21  1  0  0  0  0
  3 22  1  0  0  0  0
  4  5  1  0  0  0  0
  4 23  1  0  0  0  0
  5  6  2  0  0  0  0
  5  8  1  0  0  0  0
  6  7  1  0  0  0  0
  6 35  1  0  0  0  0
  7 24  1  0  0  0  0
  7 25  1  0  0  0  0
  7 26  1  0  0  0  0
  8  9  1  0  0  0  0
  8 27  1  0  0  0  0
  9 10  1  0  0  0  0
  9 28  1  0  0  0  0
  9 29  1  0  0  0  0
 10 11  1  0  0  0  0
 10 30  1  0  0  0  0
 10 31  1  0  0  0  0
 11 15  1  0  0  0  0
 11 12  1  0  0  0  0
 12 13  2  0  0  0  0
 12 32  1  0  0  0  0
 13 14  1  0  0  0  0
 13 33  1  0  0  0  0
 14 15  2  0  0  0  0
 14 34  1  0  0  0  0
M  CHG  1   6   1
M  END
> <s_m_source_file>
AV-unprocessed.smi

> <i_m_source_file_index>
3097

> <i_lp_mmshare_version>
43012

> <i_f3d_flags>
0

> <s_epik_input>
W0NIM11bQ0gyXVtDSDJdW05IXS9DKD1OXFtDSDNdKVtOSF1bQ0gyXVtDSDJdbjFbY0hdW2NIXVtjSF1uMQ==

> <s_epik_cmdline>
J2VwaWtfcHl0aG9uJywgJy1waCcsICc3LjAnLCAnLXRuJywgJzgnLCAnLW1hJywgJzIwMCcsICctbWV0YWxfYmluZGluZycsICctaW1hZScsICc8aW5maWxlLm1hZT4nLCAnLW9tYWUnLCAnPG91dGZpbGUubWFlPic=

> <r_lp_tautomer_probability>
1

> <r_epik_Ionization_Penalty>
4.40305e-05

> <r_epik_Ionization_Penalty_Charging>
1.64417e-07

> <r_epik_Ionization_Penalty_Neutral>
4.38661e-05

> <r_epik_State_Penalty>
-0

> <r_epik_Charging_Adjusted_Penalty>
1.64417e-07

> <i_epik_Tot_Q>
1

> <i_epik_Tot_abs_Q>
1

> <r_epik_Metal_State_Penalty>
-0

> <b_epik_Metal_Only>
0

> <s_epik_Chemistry_Notes>
This compound has an imine and may undergo hydrolysis.

> <s_lp_Force_Field>
OPLS_2005

> <r_lp_Energy>
7.72145

> <b_lp_Chiralities_Consistent>
1

> <s_lp_Variant>
AV-unprocessed.smi:3097-1

> <Gold.Version>
5.8.1

> <Gold.Id.Protein>
6NUR|6NUR_protein|mol2

> <Gold.PLP.Fitness>
41.3712

> <Gold.PLP.PLP>
-33.2272

> <Gold.PLP.part.hbond>
-1.9361

> <Gold.PLP.part.metal>
0.0000

> <Gold.PLP.part.buried>
-5.9578

> <Gold.PLP.part.nonpolar>
-25.9096

> <Gold.PLP.part.repulsive>
0.9207

> <Gold.PLP.ligand.clash>
0.0000

> <Gold.PLP.ligand.torsion>
0.4378

> <Gold.PLP.Chemscore.Hbond>
2.0000

> <Gold.PLP.Chemscore.CHOScore>
0.9996

> <Gold.PLP.Chemscore.Metal>
0.0000

> <Gold.Chemscore.Hbonds>
donor molecule, donor type, donor heavy atom, donor atom, acceptor molecule, acceptor atom, score
      L1  C    12    32       P1  8028  1.00

> <Gold.PLP.Chemscore.Internal.Correction>
0.0208

> <Gold.Rescore>
     Score         DG    S(hbond)    S(metal)    S(lipo)     H(rot)  DE(clash)    DE(int)     intcor
     12.06     -12.37       1.00        0.00      71.08       1.86       0.00       0.31       ----

> <Gold.Chemscore.Fitness>
12.0583

> <Gold.Chemscore.DG>
-12.3688

> <Gold.Chemscore.ZeroCoef>
-5.4800

> <Gold.Chemscore.Hbond>
0.9954

> <Gold.Chemscore.Metal>
0.0000

> <Gold.Chemscore.Lipo>
71.0754

> <Gold.Chemscore.Internal_Hbond>
0.0000

> <Gold.Chemscore.DEClash>
0.0047

> <Gold.Chemscore.DEInternal>
0.3058

> <Gold.Chemscore.Rot>
1.8561

> <Gold.Chemscore.Internal.Correction>
   9.000000E+99

> <Gold.Chemscore.Hbond.Weighted>
-3.3247

> <Gold.Chemscore.Metal.Weighted>
-0.0000

> <Gold.Chemscore.Lipo.Weighted>
-8.3158

> <Gold.Chemscore.Internal_Hbond.Weighted>
0.0000

> <Gold.Chemscore.DEClash.Weighted>
0.0047

> <Gold.Chemscore.DEInternal.Weighted>
0.3058

> <Gold.Chemscore.Rot.Weighted>
4.7517

> <Gold.Chemscore.Internal.Correction.Weighted>
   9.000000E+99

> <Gold.Protein.RotatedTorsions>
[ 6907 6896 6895 6894 ] final    3.48 input  -60.11 | X-H torsion
[ 7974 7965 7964 7962 ] final   41.43 input  175.53 | X-H torsion
[ 8008 7997 7996 7995 ] final  148.35 input   59.86 | X-H torsion
[ 10167 10162 10161 10158 ] final   46.99 input  -65.29 | X-H torsion
[ 10718 10713 10712 10709 ] final -137.71 input   66.30 | X-H torsion
[ 10763 10752 10751 10750 ] final  147.43 input  -60.55 | X-H torsion
[ 11005 11000 10999 10996 ] final   34.02 input  -57.11 | X-H torsion

> <Gold.Protein.ActiveResidues>
 VAL166  LYS551  ARG553  GLY616  TRP617  ASP618  TYR619  PRO620  LYS621  CYS622 
 ASP623  PHE694  ASN695  SER759  ASP760  ASP761  ALA762  ILE779  LEU786  VAL792 
 PHE793  MET794  SER795  GLU796  ALA797  LYS798  CYS799  TRP800  GLU811  SER814 

> <Gold.Protein.RotatedAtoms>
  151.6257  135.1028  160.0110 H   0  0  0  0  0  0  0  0  0  0  0  0  # atno 6907 bound_to 6896
  152.4133  133.6994  159.6426 H   0  0  0  0  0  0  0  0  0  0  0  0  # atno 6908 bound_to 6896
  150.8023  133.8502  159.3244 H   0  0  0  0  0  0  0  0  0  0  0  0  # atno 6909 bound_to 6896
  146.0824  139.5416  142.9529 H   0  0  0  0  0  0  0  0  0  0  0  0  # atno 7974 bound_to 7965
  156.2794  140.2131  156.5684 H   0  0  0  0  0  0  0  0  0  0  0  0  # atno 8008 bound_to 7997
  154.7155  140.0508  157.0614 H   0  0  0  0  0  0  0  0  0  0  0  0  # atno 8009 bound_to 7997
  155.0548  140.3160  155.4683 H   0  0  0  0  0  0  0  0  0  0  0  0  # atno 8010 bound_to 7997
  140.3082  144.2852  150.6205 H   0  0  0  0  0  0  0  0  0  0  0  0  # atno 10167 bound_to 10162
  156.2911  130.7375  151.1401 H   0  0  0  0  0  0  0  0  0  0  0  0  # atno 10718 bound_to 10713
  154.0382  135.2892  155.3359 H   0  0  0  0  0  0  0  0  0  0  0  0  # atno 10763 bound_to 10752
  154.6945  135.5213  153.8442 H   0  0  0  0  0  0  0  0  0  0  0  0  # atno 10764 bound_to 10752
  153.0611  135.6614  154.0589 H   0  0  0  0  0  0  0  0  0  0  0  0  # atno 10765 bound_to 10752
  140.2572  134.3235  155.7870 H   0  0  0  0  0  0  0  0  0  0  0  0  # atno 11005 bound_to 11000
  145.6194  141.0325  143.1923 LP  0  0  0  0  0  0  0  0  0  0  0  0  # atno 17320 bound_to 7965
  144.7302  139.7749  143.7350 LP  0  0  0  0  0  0  0  0  0  0  0  0  # atno 17321 bound_to 7965
  140.5591  143.2194  151.7796 LP  0  0  0  0  0  0  0  0  0  0  0  0  # atno 17342 bound_to 10162
  139.4899  144.4373  151.9804 LP  0  0  0  0  0  0  0  0  0  0  0  0  # atno 17343 bound_to 10162
  157.7342  131.0583  150.5534 LP  0  0  0  0  0  0  0  0  0  0  0  0  # atno 17370 bound_to 10713
  156.5650  130.4265  149.6045 LP  0  0  0  0  0  0  0  0  0  0  0  0  # atno 17371 bound_to 10713
  141.2195  133.7388  156.9129 LP  0  0  0  0  0  0  0  0  0  0  0  0  # atno 17394 bound_to 11000
  140.1500  134.9236  157.2580 LP  0  0  0  0  0  0  0  0  0  0  0  0  # atno 17395 bound_to 11000

$$$$
