AV-unprocessed.smi:2106|AV-procd|sdf|8594|dock6
  -GOLD-   2272011323D 1   1.00000     0.00000
 Structure written by MMmdl.
 47 48  0  0  0  0  0  0  0  0  1 V2000
  151.2960  145.0837  159.1840 C   0  0  0  0  0  0  0  0  0  0  0  0
  152.0966  144.1092  159.9963 C   0  0  0  0  0  0  0  0  0  0  0  0
  152.0463  143.8805  161.3997 C   0  0  0  0  0  0  0  0  0  0  0  0
  152.9728  142.8993  161.6150 C   0  0  0  0  0  0  0  0  0  0  0  0
  153.3879  142.2279  162.8828 C   0  0  0  0  0  0  0  0  0  0  0  0
  153.5245  142.5907  160.3838 N   0  0  0  0  0  0  0  0  0  0  0  0
  154.5537  141.6138  160.0561 C   0  0  0  0  0  0  0  0  0  0  0  0
  154.0502  140.1682  160.1504 C   0  0  0  0  0  0  0  0  0  0  0  0
  154.6864  139.3135  160.7692 O   0  0  0  0  0  0  0  0  0  0  0  0
  152.8939  139.9082  159.5215 N   0  0  0  0  0  0  0  0  0  0  0  0
  152.2363  138.6078  159.4820 C   0  0  0  0  0  0  0  0  0  0  0  0
  150.9231  138.6693  158.6794 C   0  0  0  0  0  0  0  0  0  0  0  0
  151.0836  138.9313  157.2503 N   0  0  0  0  0  0  0  0  0  0  0  0
  149.9904  139.7279  156.7009 C   0  0  0  0  0  0  0  0  0  0  0  0
  150.1737  139.9993  155.1965 C   0  0  2  0  0  0  0  0  0  0  0  0
  148.9809  140.7525  154.5980 C   0  0  0  0  0  0  0  0  0  0  0  0
  150.3092  138.7616  154.5005 O   0  0  0  0  0  0  0  0  0  0  0  0
  151.3403  137.9006  154.9859 C   0  0  1  0  0  0  0  0  0  0  0  0
  152.7388  138.4013  154.5861 C   0  0  0  0  0  0  0  0  0  0  0  0
  151.1787  137.6814  156.5033 C   0  0  0  0  0  0  0  0  0  0  0  0
  152.9818  143.3326  159.3938 N   0  0  0  0  0  0  0  0  0  0  0  0
  150.5391  145.5773  159.7936 H   0  0  0  0  0  0  0  0  0  0  0  0
  150.7845  144.5837  158.3609 H   0  0  0  0  0  0  0  0  0  0  0  0
  151.9358  145.8573  158.7593 H   0  0  0  0  0  0  0  0  0  0  0  0
  151.4234  144.3646  162.1370 H   0  0  0  0  0  0  0  0  0  0  0  0
  152.7956  142.5858  163.7250 H   0  0  0  0  0  0  0  0  0  0  0  0
  154.4368  142.4279  163.1022 H   0  0  0  0  0  0  0  0  0  0  0  0
  153.2542  141.1483  162.8149 H   0  0  0  0  0  0  0  0  0  0  0  0
  154.9172  141.8193  159.0484 H   0  0  0  0  0  0  0  0  0  0  0  0
  155.4016  141.7399  160.7312 H   0  0  0  0  0  0  0  0  0  0  0  0
  152.4372  140.6654  159.0339 H   0  0  0  0  0  0  0  0  0  0  0  0
  152.9248  137.8698  159.0694 H   0  0  0  0  0  0  0  0  0  0  0  0
  152.0288  138.3028  160.5080 H   0  0  0  0  0  0  0  0  0  0  0  0
  150.4166  137.7111  158.8042 H   0  0  0  0  0  0  0  0  0  0  0  0
  150.2582  139.4163  159.1155 H   0  0  0  0  0  0  0  0  0  0  0  0
  149.0413  139.2156  156.8670 H   0  0  0  0  0  0  0  0  0  0  0  0
  149.9231  140.6846  157.2175 H   0  0  0  0  0  0  0  0  0  0  0  0
  151.0699  140.6008  155.0424 H   0  0  0  0  0  0  0  0  0  0  0  0
  148.8411  141.7171  155.0861 H   0  0  0  0  0  0  0  0  0  0  0  0
  148.0576  140.1835  154.7100 H   0  0  0  0  0  0  0  0  0  0  0  0
  149.1309  140.9373  153.5341 H   0  0  0  0  0  0  0  0  0  0  0  0
  151.1943  136.9393  154.4923 H   0  0  0  0  0  0  0  0  0  0  0  0
  153.5039  137.6768  154.8662 H   0  0  0  0  0  0  0  0  0  0  0  0
  152.9911  139.3442  155.0706 H   0  0  0  0  0  0  0  0  0  0  0  0
  152.8044  138.5511  153.5083 H   0  0  0  0  0  0  0  0  0  0  0  0
  152.0136  137.0860  156.8752 H   0  0  0  0  0  0  0  0  0  0  0  0
  150.2795  137.0884  156.6771 H   0  0  0  0  0  0  0  0  0  0  0  0
  1  2  1  0  0  0  0
  1 22  1  0  0  0  0
  1 23  1  0  0  0  0
  1 24  1  0  0  0  0
  2 21  2  0  0  0  0
  2  3  1  0  0  0  0
  3  4  2  0  0  0  0
  3 25  1  0  0  0  0
  4  5  1  0  0  0  0
  4  6  1  0  0  0  0
  5 26  1  0  0  0  0
  5 27  1  0  0  0  0
  5 28  1  0  0  0  0
  6  7  1  0  0  0  0
  6 21  1  0  0  0  0
  7  8  1  0  0  0  0
  7 29  1  0  0  0  0
  7 30  1  0  0  0  0
  8  9  2  0  0  0  0
  8 10  1  0  0  0  0
 10 11  1  0  0  0  0
 10 31  1  0  0  0  0
 11 12  1  0  0  0  0
 11 32  1  0  0  0  0
 11 33  1  0  0  0  0
 12 13  1  0  0  0  0
 12 34  1  0  0  0  0
 12 35  1  0  0  0  0
 13 20  1  0  0  0  0
 13 14  1  0  0  0  0
 14 15  1  0  0  0  0
 14 36  1  0  0  0  0
 14 37  1  0  0  0  0
 15 16  1  0  0  0  0
 15 17  1  0  0  0  0
 15 38  1  0  0  0  0
 16 39  1  0  0  0  0
 16 40  1  0  0  0  0
 16 41  1  0  0  0  0
 17 18  1  0  0  0  0
 18 19  1  0  0  0  0
 18 20  1  0  0  0  0
 18 42  1  0  0  0  0
 19 43  1  0  0  0  0
 19 44  1  0  0  0  0
 19 45  1  0  0  0  0
 20 46  1  0  0  0  0
 20 47  1  0  0  0  0
M  END
> <s_m_source_file>
AV-unprocessed.smi

> <i_m_source_file_index>
2106

> <i_lp_mmshare_version>
43012

> <i_f3d_flags>
0

> <s_epik_input>
W0NIM11jMVtjSF1jKFtDSDNdKW4objEpW0NIMl1DKD1PKVtOSF1bQ0gyXVtDSDJdTjJbQ0gyXVtDQEBIXShbQ0gzXSlPW0NAQEhdKFtDSDNdKVtDSDJdMg==

> <s_epik_cmdline>
J2VwaWtfcHl0aG9uJywgJy1waCcsICc3LjAnLCAnLXRuJywgJzgnLCAnLW1hJywgJzIwMCcsICctbWV0YWxfYmluZGluZycsICctaW1hZScsICc8aW5maWxlLm1hZT4nLCAnLW9tYWUnLCAnPG91dGZpbGUubWFlPic=

> <r_lp_tautomer_probability>
1

> <r_epik_Ionization_Penalty>
0.197284

> <r_epik_Ionization_Penalty_Charging>
0

> <r_epik_Ionization_Penalty_Neutral>
0.197284

> <r_epik_State_Penalty>
0.186684

> <r_epik_Charging_Adjusted_Penalty>
0.186684

> <i_epik_Tot_Q>
0

> <i_epik_Tot_abs_Q>
0

> <r_epik_Metal_State_Penalty>
0.186634

> <b_epik_Metal_Only>
0

> <s_lp_Force_Field>
OPLS_2005

> <r_lp_Energy>
21.9362

> <b_lp_Chiralities_Consistent>
1

> <s_lp_Variant>
AV-unprocessed.smi:2106-2

> <Gold.Version>
5.8.1

> <Gold.Id.Protein>
6NUR|6NUR_protein|mol2

> <Gold.PLP.Fitness>
44.6162

> <Gold.PLP.PLP>
-45.9193

> <Gold.PLP.part.hbond>
0.0000

> <Gold.PLP.part.metal>
0.0000

> <Gold.PLP.part.buried>
-6.8672

> <Gold.PLP.part.nonpolar>
-38.6318

> <Gold.PLP.part.repulsive>
0.3210

> <Gold.PLP.ligand.clash>
0.0000

> <Gold.PLP.ligand.torsion>
0.6854

> <Gold.PLP.Chemscore.Hbond>
0.0000

> <Gold.PLP.Chemscore.CHOScore>
0.0000

> <Gold.PLP.Chemscore.Metal>
0.0000

> <Gold.PLP.Chemscore.Internal.Correction>
0.0678

> <Gold.Rescore>
     Score         DG    S(hbond)    S(metal)    S(lipo)     H(rot)  DE(clash)    DE(int)     intcor
     14.54     -14.97       0.00        0.00     117.60       1.67       0.16       0.27       ----

> <Gold.Chemscore.Fitness>
14.5369

> <Gold.Chemscore.DG>
-14.9750

> <Gold.Chemscore.ZeroCoef>
-5.4800

> <Gold.Chemscore.Hbond>
0.0000

> <Gold.Chemscore.Metal>
0.0000

> <Gold.Chemscore.Lipo>
117.5987

> <Gold.Chemscore.Internal_Hbond>
0.0000

> <Gold.Chemscore.DEClash>
0.1632

> <Gold.Chemscore.DEInternal>
0.2748

> <Gold.Chemscore.Rot>
1.6657

> <Gold.Chemscore.Internal.Correction>
   9.000000E+99

> <Gold.Chemscore.Hbond.Weighted>
-0.0000

> <Gold.Chemscore.Metal.Weighted>
-0.0000

> <Gold.Chemscore.Lipo.Weighted>
-13.7591

> <Gold.Chemscore.Internal_Hbond.Weighted>
0.0000

> <Gold.Chemscore.DEClash.Weighted>
0.1632

> <Gold.Chemscore.DEInternal.Weighted>
0.2748

> <Gold.Chemscore.Rot.Weighted>
4.2641

> <Gold.Chemscore.Internal.Correction.Weighted>
   9.000000E+99

> <Gold.Protein.RotatedTorsions>
[ 6907 6896 6895 6894 ] final  -89.34 input  -60.11 | X-H torsion
[ 7974 7965 7964 7962 ] final -144.85 input  175.53 | X-H torsion
[ 8008 7997 7996 7995 ] final -110.98 input   59.86 | X-H torsion
[ 10167 10162 10161 10158 ] final   53.56 input  -65.29 | X-H torsion
[ 10718 10713 10712 10709 ] final -111.21 input   66.30 | X-H torsion
[ 10763 10752 10751 10750 ] final   85.18 input  -60.55 | X-H torsion
[ 11005 11000 10999 10996 ] final  -36.59 input  -57.11 | X-H torsion

> <Gold.Protein.ActiveResidues>
 VAL166  LYS551  ARG553  GLY616  TRP617  ASP618  TYR619  PRO620  LYS621  CYS622 
 ASP623  PHE694  ASN695  SER759  ASP760  ASP761  ALA762  ILE779  LEU786  VAL792 
 PHE793  MET794  SER795  GLU796  ALA797  LYS798  CYS799  TRP800  GLU811  SER814 

> <Gold.Protein.RotatedAtoms>
  150.6873  134.2601  159.4545 H   0  0  0  0  0  0  0  0  0  0  0  0  # atno 6907 bound_to 6896
  152.0532  134.9638  160.0584 H   0  0  0  0  0  0  0  0  0  0  0  0  # atno 6908 bound_to 6896
  152.1094  133.4258  159.4661 H   0  0  0  0  0  0  0  0  0  0  0  0  # atno 6909 bound_to 6896
  144.8269  140.5658  143.5541 H   0  0  0  0  0  0  0  0  0  0  0  0  # atno 7974 bound_to 7965
  154.9827  140.0396  157.2285 H   0  0  0  0  0  0  0  0  0  0  0  0  # atno 8008 bound_to 7997
  154.7699  140.2800  155.6123 H   0  0  0  0  0  0  0  0  0  0  0  0  # atno 8009 bound_to 7997
  156.2919  140.2612  156.2499 H   0  0  0  0  0  0  0  0  0  0  0  0  # atno 8010 bound_to 7997
  140.2395  144.3599  150.6385 H   0  0  0  0  0  0  0  0  0  0  0  0  # atno 10167 bound_to 10162
  156.0634  130.5856  150.8343 H   0  0  0  0  0  0  0  0  0  0  0  0  # atno 10718 bound_to 10713
  153.1451  135.4627  154.9553 H   0  0  0  0  0  0  0  0  0  0  0  0  # atno 10763 bound_to 10752
  154.7779  135.3179  154.8055 H   0  0  0  0  0  0  0  0  0  0  0  0  # atno 10764 bound_to 10752
  153.8571  135.6916  153.4840 H   0  0  0  0  0  0  0  0  0  0  0  0  # atno 10765 bound_to 10752
  140.9886  133.7017  156.1810 H   0  0  0  0  0  0  0  0  0  0  0  0  # atno 11005 bound_to 11000
  145.4981  139.1485  143.3672 LP  0  0  0  0  0  0  0  0  0  0  0  0  # atno 17320 bound_to 7965
  146.2573  140.5121  142.8868 LP  0  0  0  0  0  0  0  0  0  0  0  0  # atno 17321 bound_to 7965
  140.6124  143.2170  151.6859 LP  0  0  0  0  0  0  0  0  0  0  0  0  # atno 17342 bound_to 10162
  139.5082  144.3619  152.0554 LP  0  0  0  0  0  0  0  0  0  0  0  0  # atno 17343 bound_to 10162
  157.5659  131.0946  150.9490 LP  0  0  0  0  0  0  0  0  0  0  0  0  # atno 17370 bound_to 10713
  156.9717  130.5493  149.5291 LP  0  0  0  0  0  0  0  0  0  0  0  0  # atno 17371 bound_to 10713
  140.7075  134.4497  157.5583 LP  0  0  0  0  0  0  0  0  0  0  0  0  # atno 17394 bound_to 11000
  139.8982  134.8619  156.2012 LP  0  0  0  0  0  0  0  0  0  0  0  0  # atno 17395 bound_to 11000

$$$$
