AV-unprocessed.smi:109|AV-procd|sdf|1033|dock2
  -GOLD-   2262018 43D 1   1.00000     0.00000
 Structure written by MMmdl.
 58 61  0  0  0  0  0  0  0  0  1 V2000
  145.5712  141.8579  154.2210 O   0  0  0  0  0  0  0  0  0  0  0  0
  146.7709  141.3588  154.7710 C   0  0  0  0  0  0  0  0  0  0  0  0
  147.6397  140.7423  153.6613 C   0  0  0  0  0  0  0  0  0  0  0  0
  148.0734  139.2807  153.9339 C   0  0  2  0  0  0  0  0  0  0  0  0
  146.9511  138.5400  154.5150 N   0  0  0  0  0  0  0  0  0  0  0  0
  146.8081  137.2044  154.3616 C   0  0  0  0  0  0  0  0  0  0  0  0
  147.3709  136.3246  155.2297 N   0  0  0  0  0  0  0  0  0  0  0  0
  147.2140  135.0108  155.0467 C   0  0  0  0  0  0  0  0  0  0  0  0
  146.5460  134.3783  154.0802 N   0  0  0  0  0  0  0  0  0  0  0  0
  145.9781  135.2557  153.2031 C   0  0  0  0  0  0  0  0  0  0  0  0
  146.0620  136.6743  153.2778 C   0  0  0  0  0  0  0  0  0  0  0  0
  145.3626  137.2440  152.2225 N   0  0  0  0  0  0  0  0  0  0  0  0
  144.8917  136.2178  151.5665 C   0  0  0  0  0  0  0  0  0  0  0  0
  145.2122  134.9831  152.0859 N   0  0  0  0  0  0  0  0  0  0  0  0
  144.8092  133.6435  151.5448 C   0  0  1  0  0  0  0  0  0  0  0  0
  144.1516  133.8151  150.3231 O   0  0  0  0  0  0  0  0  0  0  0  0
  144.8510  133.1436  149.2751 C   0  0  2  0  0  0  0  0  0  0  0  0
  143.8491  132.6525  148.2200 C   0  0  0  0  0  0  0  0  0  0  0  0
  143.1962  133.7554  147.6287 O   0  0  0  0  0  0  0  0  0  0  0  0
  145.5714  132.0151  150.0147 C   0  0  1  0  0  0  0  0  0  0  0  0
  146.6572  131.4737  149.2860 O   0  0  0  0  0  0  0  0  0  0  0  0
  145.9999  132.6940  151.3081 C   0  0  1  0  0  0  0  0  0  0  0  0
  147.2475  133.3606  151.1931 O   0  0  0  0  0  0  0  0  0  0  0  0
  149.3123  139.1591  154.8678 C   0  0  0  0  0  0  0  0  0  0  0  0
  149.9706  140.5250  155.1892 C   0  0  0  0  0  0  0  0  0  0  0  0
  151.2263  140.3850  156.0657 C   0  0  0  0  0  0  0  0  0  0  0  0
  152.2555  139.4458  155.4264 C   0  0  0  0  0  0  0  0  0  0  0  0
  151.6274  138.0774  155.1392 C   0  0  0  0  0  0  0  0  0  0  0  0
  150.3792  138.2154  154.2541 C   0  0  0  0  0  0  0  0  0  0  0  0
  144.0981  133.2539  152.2743 H   0  0  0  0  0  0  0  0  0  0  0  0
  145.5891  133.8141  148.8321 H   0  0  0  0  0  0  0  0  0  0  0  0
  144.8639  131.2171  150.2460 H   0  0  0  0  0  0  0  0  0  0  0  0
  146.0692  131.9826  152.1315 H   0  0  0  0  0  0  0  0  0  0  0  0
  145.2491  141.2350  153.5874 H   0  0  0  0  0  0  0  0  0  0  0  0
  147.2871  142.1780  155.2712 H   0  0  0  0  0  0  0  0  0  0  0  0
  146.5289  140.6123  155.5279 H   0  0  0  0  0  0  0  0  0  0  0  0
  147.0532  140.7905  152.7456 H   0  0  0  0  0  0  0  0  0  0  0  0
  148.5215  141.3626  153.4950 H   0  0  0  0  0  0  0  0  0  0  0  0
  148.3674  138.8437  152.9799 H   0  0  0  0  0  0  0  0  0  0  0  0
  146.2761  139.1012  155.0146 H   0  0  0  0  0  0  0  0  0  0  0  0
  147.6920  134.3760  155.7782 H   0  0  0  0  0  0  0  0  0  0  0  0
  144.2893  136.3347  150.6775 H   0  0  0  0  0  0  0  0  0  0  0  0
  144.3691  132.1159  147.4260 H   0  0  0  0  0  0  0  0  0  0  0  0
  143.1210  131.9661  148.6532 H   0  0  0  0  0  0  0  0  0  0  0  0
  142.4688  134.0028  148.1794 H   0  0  0  0  0  0  0  0  0  0  0  0
  147.3238  131.2013  149.8981 H   0  0  0  0  0  0  0  0  0  0  0  0
  147.9089  132.7183  150.9820 H   0  0  0  0  0  0  0  0  0  0  0  0
  148.9822  138.7226  155.8120 H   0  0  0  0  0  0  0  0  0  0  0  0
  150.2293  141.0364  154.2611 H   0  0  0  0  0  0  0  0  0  0  0  0
  149.2774  141.1751  155.7202 H   0  0  0  0  0  0  0  0  0  0  0  0
  151.6730  141.3656  156.2320 H   0  0  0  0  0  0  0  0  0  0  0  0
  150.9450  140.0042  157.0484 H   0  0  0  0  0  0  0  0  0  0  0  0
  152.6272  139.8829  154.4987 H   0  0  0  0  0  0  0  0  0  0  0  0
  153.1173  139.3312  156.0841 H   0  0  0  0  0  0  0  0  0  0  0  0
  152.3570  137.4293  154.6527 H   0  0  0  0  0  0  0  0  0  0  0  0
  151.3591  137.5915  156.0781 H   0  0  0  0  0  0  0  0  0  0  0  0
  149.9670  137.2197  154.0905 H   0  0  0  0  0  0  0  0  0  0  0  0
  150.6730  138.5871  153.2714 H   0  0  0  0  0  0  0  0  0  0  0  0
  1  2  1  0  0  0  0
  1 34  1  0  0  0  0
  2  3  1  0  0  0  0
  2 35  1  0  0  0  0
  2 36  1  0  0  0  0
  3  4  1  0  0  0  0
  3 37  1  0  0  0  0
  3 38  1  0  0  0  0
  4  5  1  0  0  0  0
  4 24  1  0  0  0  0
  4 39  1  0  0  0  0
  5  6  1  0  0  0  0
  5 40  1  0  0  0  0
  6 11  1  0  0  0  0
  6  7  2  0  0  0  0
  7  8  1  0  0  0  0
  8  9  2  0  0  0  0
  8 41  1  0  0  0  0
  9 10  1  0  0  0  0
 10 14  1  0  0  0  0
 10 11  2  0  0  0  0
 11 12  1  0  0  0  0
 12 13  2  0  0  0  0
 13 14  1  0  0  0  0
 13 42  1  0  0  0  0
 14 15  1  0  0  0  0
 15 30  1  0  0  0  0
 15 22  1  0  0  0  0
 15 16  1  0  0  0  0
 16 17  1  0  0  0  0
 17 31  1  0  0  0  0
 17 18  1  0  0  0  0
 17 20  1  0  0  0  0
 18 19  1  0  0  0  0
 18 43  1  0  0  0  0
 18 44  1  0  0  0  0
 19 45  1  0  0  0  0
 20 32  1  0  0  0  0
 20 21  1  0  0  0  0
 20 22  1  0  0  0  0
 21 46  1  0  0  0  0
 22 33  1  0  0  0  0
 22 23  1  0  0  0  0
 23 47  1  0  0  0  0
 24 29  1  0  0  0  0
 24 25  1  0  0  0  0
 24 48  1  0  0  0  0
 25 26  1  0  0  0  0
 25 49  1  0  0  0  0
 25 50  1  0  0  0  0
 26 27  1  0  0  0  0
 26 51  1  0  0  0  0
 26 52  1  0  0  0  0
 27 28  1  0  0  0  0
 27 53  1  0  0  0  0
 27 54  1  0  0  0  0
 28 29  1  0  0  0  0
 28 55  1  0  0  0  0
 28 56  1  0  0  0  0
 29 57  1  0  0  0  0
 29 58  1  0  0  0  0
M  END
> <s_m_source_file>
AV-unprocessed.smi

> <i_m_source_file_index>
109

> <i_lp_mmshare_version>
43012

> <i_f3d_flags>
0

> <s_epik_input>
W0NIMl0xW0NIMl1bQ0gyXVtDSDJdW0NIMl1bQ0hdMVtDQEhdKFtDSDJdW0NIMl1bT0hdKVtOSF1jKG5bY0hdbjIpYyhjMjMpbltjSF1uM1tDQEBIXTRPW0NASF0oW0NIMl1bT0hdKVtDQEBIXShbT0hdKVtDQEhdNFtPSF0=

> <s_epik_cmdline>
J2VwaWtfcHl0aG9uJywgJy1waCcsICc3LjAnLCAnLXRuJywgJzgnLCAnLW1hJywgJzIwMCcsICctbWV0YWxfYmluZGluZycsICctaW1hZScsICc8aW5maWxlLm1hZT4nLCAnLW9tYWUnLCAnPG91dGZpbGUubWFlPic=

> <r_lp_tautomer_probability>
1

> <r_epik_Ionization_Penalty>
0.000793976

> <r_epik_Ionization_Penalty_Charging>
0

> <r_epik_Ionization_Penalty_Neutral>
0.000793976

> <r_epik_State_Penalty>
-0

> <r_epik_Charging_Adjusted_Penalty>
0

> <i_epik_Tot_Q>
0

> <i_epik_Tot_abs_Q>
0

> <r_epik_Metal_State_Penalty>
-0

> <b_epik_Metal_Only>
0

> <s_epik_Chemistry_Notes>
This compound contains an acetal/aminal-like group ( X-CH(R)-Y where X, Y are N, S, or O) that may be acid/base labile, releasing an aldehyde.

> <s_lp_Force_Field>
OPLS_2005

> <r_lp_Energy>
57.1061

> <b_lp_Chiralities_Consistent>
1

> <s_lp_Variant>
AV-unprocessed.smi:109-3

> <Gold.Version>
5.8.1

> <Gold.Id.Protein>
6NUR|6NUR_protein|mol2

> <Gold.PLP.Fitness>
52.2115

> <Gold.PLP.PLP>
-45.4428

> <Gold.PLP.part.hbond>
-5.7248

> <Gold.PLP.part.metal>
0.0000

> <Gold.PLP.part.buried>
-1.9776

> <Gold.PLP.part.nonpolar>
-39.2535

> <Gold.PLP.part.repulsive>
0.5528

> <Gold.PLP.ligand.clash>
0.0000

> <Gold.PLP.ligand.torsion>
3.1301

> <Gold.PLP.Chemscore.Hbond>
3.4625

> <Gold.PLP.Chemscore.CHOScore>
0.7829

> <Gold.PLP.Chemscore.Metal>
0.0000

> <Gold.Chemscore.Hbonds>
donor molecule, donor type, donor heavy atom, donor atom, acceptor molecule, acceptor atom, score
      L1  H     1    34       P1 10175  0.94
      L1  H    19    45       P1 10186  1.00
      L1  H    21    46       P1 10747  0.99
      L1  H    23    47       P1 10747  0.46
      L1  C    13    42       P1 10171  0.80

> <Gold.PLP.Chemscore.Internal.Correction>
0.2927

> <Gold.Rescore>
     Score         DG    S(hbond)    S(metal)    S(lipo)     H(rot)  DE(clash)    DE(int)     intcor
     11.09     -15.35       3.53        0.00     103.24       5.47       0.53       3.73       ----

> <Gold.Chemscore.Fitness>
11.0862

> <Gold.Chemscore.DG>
-15.3517

> <Gold.Chemscore.ZeroCoef>
-5.4800

> <Gold.Chemscore.Hbond>
3.5289

> <Gold.Chemscore.Metal>
0.0000

> <Gold.Chemscore.Lipo>
103.2357

> <Gold.Chemscore.Internal_Hbond>
0.0000

> <Gold.Chemscore.DEClash>
0.5314

> <Gold.Chemscore.DEInternal>
3.7342

> <Gold.Chemscore.Rot>
5.4662

> <Gold.Chemscore.Internal.Correction>
   9.000000E+99

> <Gold.Chemscore.Hbonds>
donor molecule, donor type, donor heavy atom, donor atom, acceptor molecule, acceptor atom, score
      L1  H     1    34       P1 10175  0.33
      L1  H    19    45       P1 10186  0.94
      L1  H    21    46       P1 10747  0.93
      L1  H    23    47       P1 10747  0.46

> <Gold.Chemscore.Hbond.Weighted>
-11.7866

> <Gold.Chemscore.Metal.Weighted>
-0.0000

> <Gold.Chemscore.Lipo.Weighted>
-12.0786

> <Gold.Chemscore.Internal_Hbond.Weighted>
0.0000

> <Gold.Chemscore.DEClash.Weighted>
0.5314

> <Gold.Chemscore.DEInternal.Weighted>
3.7342

> <Gold.Chemscore.Rot.Weighted>
13.9935

> <Gold.Chemscore.Internal.Correction.Weighted>
   9.000000E+99

> <Gold.Protein.RotatedTorsions>
[ 6907 6896 6895 6894 ] final -168.91 input  -60.11 | X-H torsion
[ 7974 7965 7964 7962 ] final  -71.26 input  175.53 | X-H torsion
[ 8008 7997 7996 7995 ] final  -19.69 input   59.86 | X-H torsion
[ 10167 10162 10161 10158 ] final -106.82 input  -65.29 | X-H torsion
[ 10718 10713 10712 10709 ] final  117.21 input   66.30 | X-H torsion
[ 10763 10752 10751 10750 ] final -100.95 input  -60.55 | X-H torsion
[ 11005 11000 10999 10996 ] final  -63.46 input  -57.11 | X-H torsion

> <Gold.Protein.ActiveResidues>
 VAL166  LYS551  ARG553  GLY616  TRP617  ASP618  TYR619  PRO620  LYS621  CYS622 
 ASP623  PHE694  ASN695  SER759  ASP760  ASP761  ALA762  ILE779  LEU786  VAL792 
 PHE793  MET794  SER795  GLU796  ALA797  LYS798  CYS799  TRP800  GLU811  SER814 

> <Gold.Protein.RotatedAtoms>
  151.4831  133.3542  159.2841 H   0  0  0  0  0  0  0  0  0  0  0  0  # atno 6907 bound_to 6896
  150.8884  134.8286  159.7286 H   0  0  0  0  0  0  0  0  0  0  0  0  # atno 6908 bound_to 6896
  152.4807  134.4738  159.9696 H   0  0  0  0  0  0  0  0  0  0  0  0  # atno 6909 bound_to 6896
  145.6804  140.9190  143.0835 H   0  0  0  0  0  0  0  0  0  0  0  0  # atno 7974 bound_to 7965
  154.4820  140.2082  155.9742 H   0  0  0  0  0  0  0  0  0  0  0  0  # atno 8008 bound_to 7997
  156.1179  140.3218  155.8135 H   0  0  0  0  0  0  0  0  0  0  0  0  # atno 8009 bound_to 7997
  155.4520  140.0517  157.2991 H   0  0  0  0  0  0  0  0  0  0  0  0  # atno 8010 bound_to 7997
  140.1837  143.3947  152.1261 H   0  0  0  0  0  0  0  0  0  0  0  0  # atno 10167 bound_to 10162
  157.6111  131.1034  150.7583 H   0  0  0  0  0  0  0  0  0  0  0  0  # atno 10718 bound_to 10713
  154.7620  135.4916  153.9481 H   0  0  0  0  0  0  0  0  0  0  0  0  # atno 10763 bound_to 10752
  153.1262  135.6743  153.9261 H   0  0  0  0  0  0  0  0  0  0  0  0  # atno 10764 bound_to 10752
  153.8978  135.3113  155.3427 H   0  0  0  0  0  0  0  0  0  0  0  0  # atno 10765 bound_to 10752
  141.1394  133.6652  156.5684 H   0  0  0  0  0  0  0  0  0  0  0  0  # atno 11005 bound_to 11000
  144.7028  139.8689  143.7439 LP  0  0  0  0  0  0  0  0  0  0  0  0  # atno 17320 bound_to 7965
  146.0969  139.3962  143.0371 LP  0  0  0  0  0  0  0  0  0  0  0  0  # atno 17321 bound_to 7965
  139.5285  144.7131  151.5141 LP  0  0  0  0  0  0  0  0  0  0  0  0  # atno 17342 bound_to 10162
  140.6503  143.8711  150.6778 LP  0  0  0  0  0  0  0  0  0  0  0  0  # atno 17343 bound_to 10162
  156.7960  130.4905  149.5377 LP  0  0  0  0  0  0  0  0  0  0  0  0  # atno 17370 bound_to 10713
  156.1214  130.6112  151.0199 LP  0  0  0  0  0  0  0  0  0  0  0  0  # atno 17371 bound_to 10713
  140.3933  134.7421  157.4735 LP  0  0  0  0  0  0  0  0  0  0  0  0  # atno 17394 bound_to 11000
  140.0550  134.6076  155.8816 LP  0  0  0  0  0  0  0  0  0  0  0  0  # atno 17395 bound_to 11000

$$$$
