AV-unprocessed.smi:3245|AV-procd|sdf|12402|dock5
  -GOLD-   2272018283D 1   1.00000     0.00000
 Structure written by MMmdl.
 36 37  0  0  0  0  0  0  0  0  2 V2000
  154.9622  140.3452  161.3257 C   0  0  0  0  0  0  0  0  0  0  0  0
  154.0326  141.2281  160.4822 C   0  0  2  0  0  0  0  0  0  0  0  0
  153.0706  142.0269  161.3887 C   0  0  0  0  0  0  0  0  0  0  0  0
  152.4880  143.1782  160.7227 N   0  0  0  0  0  0  0  0  0  0  0  0
  152.9112  143.8087  159.5719 C   0  0  0  0  0  0  0  0  0  0  0  0
  152.0367  144.8273  159.3225 C   0  0  0  0  0  0  0  0  0  0  0  0
  151.1033  144.7429  160.3930 C   0  0  0  0  0  0  0  0  0  0  0  0
  151.3757  143.7542  161.2294 N   0  0  0  0  0  0  0  0  0  0  0  0
  153.2858  140.3814  159.5241 N   0  3  0  0  0  0  0  0  0  0  0  0
  152.0520  140.9891  158.9848 C   0  0  0  0  0  0  0  0  0  0  0  0
  151.4026  140.0732  157.9374 C   0  0  0  0  0  0  0  0  0  0  0  0
  150.5335  140.8325  157.0353 N   0  0  0  0  0  0  0  0  0  0  0  0
  150.5735  140.7403  155.6996 C   0  0  0  0  0  0  0  0  0  0  0  0
  151.3188  140.0342  155.0211 O   0  0  0  0  0  0  0  0  0  0  0  0
  149.5154  141.6562  155.1244 C   0  0  0  0  0  0  0  0  0  0  0  0
  148.9655  142.1812  156.3560 N   0  0  0  0  0  0  0  0  0  0  0  0
  149.5715  141.6810  157.4405 C   0  0  0  0  0  0  0  0  0  0  0  0
  149.2829  141.9545  158.6045 O   0  0  0  0  0  0  0  0  0  0  0  0
  155.5557  140.9469  162.0149 H   0  0  0  0  0  0  0  0  0  0  0  0
  155.6570  139.7894  160.6953 H   0  0  0  0  0  0  0  0  0  0  0  0
  154.3976  139.6232  161.9169 H   0  0  0  0  0  0  0  0  0  0  0  0
  154.6635  141.9256  159.9283 H   0  0  0  0  0  0  0  0  0  0  0  0
  152.2674  141.3850  161.7554 H   0  0  0  0  0  0  0  0  0  0  0  0
  153.6026  142.3872  162.2701 H   0  0  0  0  0  0  0  0  0  0  0  0
  153.7860  143.4810  159.0299 H   0  0  0  0  0  0  0  0  0  0  0  0
  152.0605  145.5279  158.5010 H   0  0  0  0  0  0  0  0  0  0  0  0
  150.2410  145.3645  160.5839 H   0  0  0  0  0  0  0  0  0  0  0  0
  153.8900  140.1724  158.7424 H   0  0  0  0  0  0  0  0  0  0  0  0
  151.3450  141.1759  159.7927 H   0  0  0  0  0  0  0  0  0  0  0  0
  152.2952  141.9582  158.5473 H   0  0  0  0  0  0  0  0  0  0  0  0
  152.1734  139.5508  157.3679 H   0  0  0  0  0  0  0  0  0  0  0  0
  150.8219  139.2936  158.4337 H   0  0  0  0  0  0  0  0  0  0  0  0
  149.9533  142.4437  154.5104 H   0  0  0  0  0  0  0  0  0  0  0  0
  148.7689  141.1026  154.5542 H   0  0  0  0  0  0  0  0  0  0  0  0
  148.2051  142.8452  156.3799 H   0  0  0  0  0  0  0  0  0  0  0  0
  153.0499  139.5157  159.9885 H   0  0  0  0  0  0  0  0  0  0  0  0
  1  2  1  0  0  0  0
  1 19  1  0  0  0  0
  1 20  1  0  0  0  0
  1 21  1  0  0  0  0
  2  3  1  0  0  0  0
  2  9  1  0  0  0  0
  2 22  1  0  0  0  0
  3  4  1  0  0  0  0
  3 23  1  0  0  0  0
  3 24  1  0  0  0  0
  4  8  1  0  0  0  0
  4  5  1  0  0  0  0
  5  6  2  0  0  0  0
  5 25  1  0  0  0  0
  6  7  1  0  0  0  0
  6 26  1  0  0  0  0
  7  8  2  0  0  0  0
  7 27  1  0  0  0  0
  9 10  1  0  0  0  0
  9 28  1  0  0  0  0
  9 36  1  0  0  0  0
 10 11  1  0  0  0  0
 10 29  1  0  0  0  0
 10 30  1  0  0  0  0
 11 12  1  0  0  0  0
 11 31  1  0  0  0  0
 11 32  1  0  0  0  0
 12 17  1  0  0  0  0
 12 13  1  0  0  0  0
 13 14  2  0  0  0  0
 13 15  1  0  0  0  0
 15 16  1  0  0  0  0
 15 33  1  0  0  0  0
 15 34  1  0  0  0  0
 16 17  1  0  0  0  0
 16 35  1  0  0  0  0
 17 18  2  0  0  0  0
M  CHG  1   9   1
M  END
> <s_m_source_file>
AV-unprocessed.smi

> <i_m_source_file_index>
3245

> <i_lp_mmshare_version>
43012

> <i_f3d_flags>
0

> <s_epik_input>
bjFbY0hdW2NIXVtjSF1uMVtDSDJdW0NAQEhdKFtDSDNdKVtOSF1bQ0gyXVtDSDJdTjJDKD1PKVtDSDJdW05IXUMyPU8=

> <s_epik_cmdline>
J2VwaWtfcHl0aG9uJywgJy1waCcsICc3LjAnLCAnLXRuJywgJzgnLCAnLW1hJywgJzIwMCcsICctbWV0YWxfYmluZGluZycsICctaW1hZScsICc8aW5maWxlLm1hZT4nLCAnLW9tYWUnLCAnPG91dGZpbGUubWFlPic=

> <r_lp_tautomer_probability>
1

> <r_epik_Ionization_Penalty>
0.0160742

> <r_epik_Ionization_Penalty_Charging>
0.0159586

> <r_epik_Ionization_Penalty_Neutral>
0.000115543

> <r_epik_State_Penalty>
0.0125702

> <r_epik_Charging_Adjusted_Penalty>
0.0285288

> <i_epik_Tot_Q>
1

> <i_epik_Tot_abs_Q>
1

> <r_epik_Metal_State_Penalty>
0.0881892

> <b_epik_Metal_Only>
0

> <s_lp_Force_Field>
OPLS_2005

> <r_lp_Energy>
19.7378

> <b_lp_Chiralities_Consistent>
1

> <s_lp_Variant>
AV-unprocessed.smi:3245-1

> <Gold.Version>
5.8.1

> <Gold.Id.Protein>
6NUR|6NUR_protein|mol2

> <Gold.PLP.Fitness>
45.7429

> <Gold.PLP.PLP>
-43.2035

> <Gold.PLP.part.hbond>
-2.0512

> <Gold.PLP.part.metal>
0.0000

> <Gold.PLP.part.buried>
-5.7899

> <Gold.PLP.part.nonpolar>
-34.8770

> <Gold.PLP.part.repulsive>
0.4490

> <Gold.PLP.ligand.clash>
0.0000

> <Gold.PLP.ligand.torsion>
0.8249

> <Gold.PLP.Chemscore.Hbond>
1.3680

> <Gold.PLP.Chemscore.CHOScore>
0.0000

> <Gold.PLP.Chemscore.Metal>
0.0000

> <Gold.Chemscore.Hbonds>
donor molecule, donor type, donor heavy atom, donor atom, acceptor molecule, acceptor atom, score
      L1  H    16    35       P1  8028  0.17
      P1  H  7989  7998       L1    14  1.00

> <Gold.PLP.Chemscore.Internal.Correction>
0.0852

> <Gold.Rescore>
     Score         DG    S(hbond)    S(metal)    S(lipo)     H(rot)  DE(clash)    DE(int)     intcor
      9.92     -12.07       1.30        0.00      79.11       2.74       0.06       2.09       ----

> <Gold.Chemscore.Fitness>
9.9203

> <Gold.Chemscore.DG>
-12.0737

> <Gold.Chemscore.ZeroCoef>
-5.4800

> <Gold.Chemscore.Hbond>
1.3008

> <Gold.Chemscore.Metal>
0.0000

> <Gold.Chemscore.Lipo>
79.1076

> <Gold.Chemscore.Internal_Hbond>
0.0000

> <Gold.Chemscore.DEClash>
0.0631

> <Gold.Chemscore.DEInternal>
2.0903

> <Gold.Chemscore.Rot>
2.7369

> <Gold.Chemscore.Internal.Correction>
   9.000000E+99

> <Gold.Chemscore.Hbonds>
donor molecule, donor type, donor heavy atom, donor atom, acceptor molecule, acceptor atom, score
      L1  H    16    35       P1  8028  0.13
      P1  H  7989  7998       L1    14  0.65

> <Gold.Chemscore.Hbond.Weighted>
-4.3446

> <Gold.Chemscore.Metal.Weighted>
-0.0000

> <Gold.Chemscore.Lipo.Weighted>
-9.2556

> <Gold.Chemscore.Internal_Hbond.Weighted>
0.0000

> <Gold.Chemscore.DEClash.Weighted>
0.0631

> <Gold.Chemscore.DEInternal.Weighted>
2.0903

> <Gold.Chemscore.Rot.Weighted>
7.0065

> <Gold.Chemscore.Internal.Correction.Weighted>
   9.000000E+99

> <Gold.Protein.RotatedTorsions>
[ 6907 6896 6895 6894 ] final  113.06 input  -60.11 | X-H torsion
[ 7974 7965 7964 7962 ] final  -86.87 input  175.53 | X-H torsion
[ 8008 7997 7996 7995 ] final   87.96 input   59.86 | X-H torsion
[ 10167 10162 10161 10158 ] final -101.75 input  -65.29 | X-H torsion
[ 10718 10713 10712 10709 ] final -103.45 input   66.30 | X-H torsion
[ 10763 10752 10751 10750 ] final  119.09 input  -60.55 | X-H torsion
[ 11005 11000 10999 10996 ] final   24.20 input  -57.11 | X-H torsion

> <Gold.Protein.ActiveResidues>
 VAL166  LYS551  ARG553  GLY616  TRP617  ASP618  TYR619  PRO620  LYS621  CYS622 
 ASP623  PHE694  ASN695  SER759  ASP760  ASP761  ALA762  ILE779  LEU786  VAL792 
 PHE793  MET794  SER795  GLU796  ALA797  LYS798  CYS799  TRP800  GLU811  SER814 

> <Gold.Protein.RotatedAtoms>
  152.4882  133.8428  159.7161 H   0  0  0  0  0  0  0  0  0  0  0  0  # atno 6907 bound_to 6896
  150.8987  133.7138  159.2891 H   0  0  0  0  0  0  0  0  0  0  0  0  # atno 6908 bound_to 6896
  151.4587  135.1040  159.9771 H   0  0  0  0  0  0  0  0  0  0  0  0  # atno 6909 bound_to 6896
  145.4741  140.9559  143.1900 H   0  0  0  0  0  0  0  0  0  0  0  0  # atno 7974 bound_to 7965
  155.9819  140.3376  155.6671 H   0  0  0  0  0  0  0  0  0  0  0  0  # atno 8008 bound_to 7997
  155.6537  140.0708  157.2596 H   0  0  0  0  0  0  0  0  0  0  0  0  # atno 8009 bound_to 7997
  154.4194  140.1721  156.1689 H   0  0  0  0  0  0  0  0  0  0  0  0  # atno 8010 bound_to 7997
  140.2380  143.3559  152.0827 H   0  0  0  0  0  0  0  0  0  0  0  0  # atno 10167 bound_to 10162
  156.0266  130.5468  150.7255 H   0  0  0  0  0  0  0  0  0  0  0  0  # atno 10718 bound_to 10713
  153.5776  135.3490  155.2862 H   0  0  0  0  0  0  0  0  0  0  0  0  # atno 10763 bound_to 10752
  154.8673  135.4174  154.2656 H   0  0  0  0  0  0  0  0  0  0  0  0  # atno 10764 bound_to 10752
  153.3435  135.7051  153.6917 H   0  0  0  0  0  0  0  0  0  0  0  0  # atno 10765 bound_to 10752
  140.3612  134.2123  155.7672 H   0  0  0  0  0  0  0  0  0  0  0  0  # atno 11005 bound_to 11000
  144.7927  139.6295  143.7106 LP  0  0  0  0  0  0  0  0  0  0  0  0  # atno 17320 bound_to 7965
  146.2379  139.5943  142.9511 LP  0  0  0  0  0  0  0  0  0  0  0  0  # atno 17321 bound_to 7965
  139.5087  144.6854  151.5900 LP  0  0  0  0  0  0  0  0  0  0  0  0  # atno 17342 bound_to 10162
  140.6135  143.9392  150.6471 LP  0  0  0  0  0  0  0  0  0  0  0  0  # atno 17343 bound_to 10162
  157.4860  131.0906  151.0481 LP  0  0  0  0  0  0  0  0  0  0  0  0  # atno 17370 bound_to 10713
  157.0901  130.5939  149.5438 LP  0  0  0  0  0  0  0  0  0  0  0  0  # atno 17371 bound_to 10713
  141.1983  133.8038  157.0587 LP  0  0  0  0  0  0  0  0  0  0  0  0  # atno 17394 bound_to 11000
  140.0625  134.9747  157.1329 LP  0  0  0  0  0  0  0  0  0  0  0  0  # atno 17395 bound_to 11000

$$$$
