AV-unprocessed.smi:372|AV-procd|sdf|2445|dock4
  -GOLD-   2262022383D 1   1.00000     0.00000
 Structure written by MMmdl.
 22 23  0  0  0  0  0  0  0  0  2 V2000
  154.6549  139.0997  161.9156 C   0  0  0  0  0  0  0  0  0  0  0  0
  154.9782  140.2663  160.9601 C   0  0  1  0  0  0  0  0  0  0  0  0
  153.9979  141.4409  161.1428 C   0  0  0  0  0  0  0  0  0  0  0  0
  153.2964  142.0108  160.0505 C   0  0  0  0  0  0  0  0  0  0  0  0
  152.4174  143.0844  160.2895 C   0  0  0  0  0  0  0  0  0  0  0  0
  152.2653  143.5601  161.6047 C   0  0  0  0  0  0  0  0  0  0  0  0
  153.0053  142.9374  162.6271 C   0  0  0  0  0  0  0  0  0  0  0  0
  153.8512  141.9096  162.4072 N   0  0  0  0  0  0  0  0  0  0  0  0
  156.3650  140.6511  161.1437 N   0  0  0  0  0  0  0  0  0  0  0  0
  157.0712  140.5079  160.0246 C   0  0  0  0  0  0  0  0  0  0  0  0
  158.2611  140.8094  159.9688 O   0  0  0  0  0  0  0  0  0  0  0  0
  156.2937  140.0062  159.0471 N   0  5  0  0  0  0  0  0  0  0  0  0
  155.0352  139.7997  159.4937 C   0  0  0  0  0  0  0  0  0  0  0  0
  154.0667  139.3117  158.9111 O   0  0  0  0  0  0  0  0  0  0  0  0
  153.6435  138.7227  161.7605 H   0  0  0  0  0  0  0  0  0  0  0  0
  154.7321  139.4146  162.9567 H   0  0  0  0  0  0  0  0  0  0  0  0
  155.3392  138.2620  161.7734 H   0  0  0  0  0  0  0  0  0  0  0  0
  153.4145  141.6432  159.0424 H   0  0  0  0  0  0  0  0  0  0  0  0
  151.8688  143.5356  159.4759 H   0  0  0  0  0  0  0  0  0  0  0  0
  151.5989  144.3808  161.8246 H   0  0  0  0  0  0  0  0  0  0  0  0
  152.9169  143.2748  163.6492 H   0  0  0  0  0  0  0  0  0  0  0  0
  156.7288  141.0140  162.0121 H   0  0  0  0  0  0  0  0  0  0  0  0
  1  2  1  0  0  0  0
  1 15  1  0  0  0  0
  1 16  1  0  0  0  0
  1 17  1  0  0  0  0
  2 13  1  0  0  0  0
  2  3  1  0  0  0  0
  2  9  1  0  0  0  0
  3  8  1  0  0  0  0
  3  4  2  0  0  0  0
  4  5  1  0  0  0  0
  4 18  1  0  0  0  0
  5  6  2  0  0  0  0
  5 19  1  0  0  0  0
  6  7  1  0  0  0  0
  6 20  1  0  0  0  0
  7  8  2  0  0  0  0
  7 21  1  0  0  0  0
  9 10  1  0  0  0  0
  9 22  1  0  0  0  0
 10 11  2  0  0  0  0
 10 12  1  0  0  0  0
 12 13  1  0  0  0  0
 13 14  2  0  0  0  0
M  CHG  1  12  -1
M  END
> <s_m_source_file>
AV-unprocessed.smi

> <i_m_source_file_index>
372

> <i_lp_mmshare_version>
43012

> <i_f3d_flags>
0

> <s_epik_input>
Tz1DMVtOSF1DKD1PKVtOSF1bQ0BAXTEoW0NIM10pYzJbY0hdW2NIXVtjSF1bY0hdbjI=

> <s_epik_cmdline>
J2VwaWtfcHl0aG9uJywgJy1waCcsICc3LjAnLCAnLXRuJywgJzgnLCAnLW1hJywgJzIwMCcsICctbWV0YWxfYmluZGluZycsICctaW1hZScsICc8aW5maWxlLm1hZT4nLCAnLW9tYWUnLCAnPG91dGZpbGUubWFlPic=

> <r_epik_Ionization_Penalty>
1.82492

> <r_epik_Ionization_Penalty_Charging>
1.82122

> <r_epik_Ionization_Penalty_Neutral>
0.00370144

> <r_epik_State_Penalty>
1.71448

> <r_epik_Charging_Adjusted_Penalty>
3.5357

> <i_epik_Tot_Q>
-1

> <i_epik_Tot_abs_Q>
1

> <r_epik_Metal_State_Penalty>
0.405927

> <b_epik_Metal_Only>
0

> <s_lp_Force_Field>
OPLS_2005

> <r_lp_Energy>
9.53623

> <b_lp_Chiralities_Consistent>
1

> <s_lp_Variant>
AV-unprocessed.smi:372-3

> <Gold.Version>
5.8.1

> <Gold.Id.Protein>
6NUR|6NUR_protein|mol2

> <Gold.PLP.Fitness>
36.8878

> <Gold.PLP.PLP>
-31.1266

> <Gold.PLP.part.hbond>
-3.2324

> <Gold.PLP.part.metal>
0.0000

> <Gold.PLP.part.buried>
-2.6918

> <Gold.PLP.part.nonpolar>
-24.4192

> <Gold.PLP.part.repulsive>
0.1423

> <Gold.PLP.ligand.clash>
0.0000

> <Gold.PLP.ligand.torsion>
0.1601

> <Gold.PLP.Chemscore.Hbond>
2.0000

> <Gold.PLP.Chemscore.CHOScore>
0.0000

> <Gold.PLP.Chemscore.Metal>
0.0000

> <Gold.Chemscore.Hbonds>
donor molecule, donor type, donor heavy atom, donor atom, acceptor molecule, acceptor atom, score
      P1  H  7997  8010       L1    12  1.60

> <Gold.PLP.Chemscore.Internal.Correction>
0.0815

> <Gold.Rescore>
     Score         DG    S(hbond)    S(metal)    S(lipo)     H(rot)  DE(clash)    DE(int)     intcor
     12.89     -14.22       0.87        0.00      71.57       1.00       0.74       0.59       ----

> <Gold.Chemscore.Fitness>
12.8863

> <Gold.Chemscore.DG>
-14.2166

> <Gold.Chemscore.ZeroCoef>
-5.4800

> <Gold.Chemscore.Hbond>
0.8749

> <Gold.Chemscore.Metal>
0.0000

> <Gold.Chemscore.Lipo>
71.5748

> <Gold.Chemscore.Internal_Hbond>
0.0000

> <Gold.Chemscore.DEClash>
0.7410

> <Gold.Chemscore.DEInternal>
0.5893

> <Gold.Chemscore.Rot>
1.0000

> <Gold.Chemscore.Internal.Correction>
   9.000000E+99

> <Gold.Chemscore.Hbonds>
donor molecule, donor type, donor heavy atom, donor atom, acceptor molecule, acceptor atom, score
      P1  H  7997  8010       L1    12  0.11

> <Gold.Chemscore.Hbond.Weighted>
-2.9223

> <Gold.Chemscore.Metal.Weighted>
-0.0000

> <Gold.Chemscore.Lipo.Weighted>
-8.3743

> <Gold.Chemscore.Internal_Hbond.Weighted>
0.0000

> <Gold.Chemscore.DEClash.Weighted>
0.7410

> <Gold.Chemscore.DEInternal.Weighted>
0.5893

> <Gold.Chemscore.Rot.Weighted>
2.5600

> <Gold.Chemscore.Internal.Correction.Weighted>
   9.000000E+99

> <Gold.Protein.RotatedTorsions>
[ 6907 6896 6895 6894 ] final -110.48 input  -60.11 | X-H torsion
[ 7974 7965 7964 7962 ] final  -82.29 input  175.53 | X-H torsion
[ 8008 7997 7996 7995 ] final  -43.82 input   59.86 | X-H torsion
[ 10167 10162 10161 10158 ] final -123.70 input  -65.29 | X-H torsion
[ 10718 10713 10712 10709 ] final -126.51 input   66.30 | X-H torsion
[ 10763 10752 10751 10750 ] final  166.08 input  -60.55 | X-H torsion
[ 11005 11000 10999 10996 ] final    9.62 input  -57.11 | X-H torsion

> <Gold.Protein.ActiveResidues>
 VAL166  LYS551  ARG553  GLY616  TRP617  ASP618  TYR619  PRO620  LYS621  CYS622 
 ASP623  PHE694  ASN695  SER759  ASP760  ASP761  ALA762  ILE779  LEU786  VAL792 
 PHE793  MET794  SER795  GLU796  ALA797  LYS798  CYS799  TRP800  GLU811  SER814 

> <Gold.Protein.RotatedAtoms>
  150.7627  133.9376  159.3445 H   0  0  0  0  0  0  0  0  0  0  0  0  # atno 6907 bound_to 6896
  151.7281  135.0878  160.0305 H   0  0  0  0  0  0  0  0  0  0  0  0  # atno 6908 bound_to 6896
  152.3607  133.6256  159.6049 H   0  0  0  0  0  0  0  0  0  0  0  0  # atno 6909 bound_to 6896
  145.5353  140.9516  143.1581 H   0  0  0  0  0  0  0  0  0  0  0  0  # atno 7974 bound_to 7965
  154.3997  140.1438  156.3582 H   0  0  0  0  0  0  0  0  0  0  0  0  # atno 8008 bound_to 7997
  155.8206  140.3469  155.5491 H   0  0  0  0  0  0  0  0  0  0  0  0  # atno 8009 bound_to 7997
  155.8292  140.0909  157.1793 H   0  0  0  0  0  0  0  0  0  0  0  0  # atno 8010 bound_to 7997
  140.0007  143.5543  152.2304 H   0  0  0  0  0  0  0  0  0  0  0  0  # atno 10167 bound_to 10162
  156.1771  130.6707  151.0257 H   0  0  0  0  0  0  0  0  0  0  0  0  # atno 10718 bound_to 10713
  154.3337  135.2754  155.2458 H   0  0  0  0  0  0  0  0  0  0  0  0  # atno 10763 bound_to 10752
  154.4759  135.5871  153.6358 H   0  0  0  0  0  0  0  0  0  0  0  0  # atno 10764 bound_to 10752
  152.9864  135.6099  154.3532 H   0  0  0  0  0  0  0  0  0  0  0  0  # atno 10765 bound_to 10752
  140.5237  134.0534  155.7852 H   0  0  0  0  0  0  0  0  0  0  0  0  # atno 11005 bound_to 11000
  144.7605  139.6969  143.7236 LP  0  0  0  0  0  0  0  0  0  0  0  0  # atno 17320 bound_to 7965
  146.2017  139.5316  142.9739 LP  0  0  0  0  0  0  0  0  0  0  0  0  # atno 17321 bound_to 7965
  139.6273  144.7639  151.2610 LP  0  0  0  0  0  0  0  0  0  0  0  0  # atno 17342 bound_to 10162
  140.7420  143.6540  150.8223 LP  0  0  0  0  0  0  0  0  0  0  0  0  # atno 17343 bound_to 10162
  157.6843  131.0829  150.7285 LP  0  0  0  0  0  0  0  0  0  0  0  0  # atno 17370 bound_to 10713
  156.7342  130.4719  149.5492 LP  0  0  0  0  0  0  0  0  0  0  0  0  # atno 17371 bound_to 10713
  141.1320  133.9286  157.2515 LP  0  0  0  0  0  0  0  0  0  0  0  0  # atno 17394 bound_to 11000
  139.9592  135.0158  156.9213 LP  0  0  0  0  0  0  0  0  0  0  0  0  # atno 17395 bound_to 11000

$$$$
