AV-unprocessed.smi:2100|AV-procd|sdf|8578|dock3
  -GOLD-   2272011303D 1   1.00000     0.00000
 Structure written by MMmdl.
 40 41  0  0  0  0  0  0  0  0  2 V2000
  150.1286  134.8290  155.6399 C   0  0  0  0  0  0  0  0  0  0  0  0
  151.1040  135.2829  156.7408 C   0  0  1  0  0  0  0  0  0  0  0  0
  152.0234  136.4343  156.2965 C   0  0  0  0  0  0  0  0  0  0  0  0
  151.2972  137.7182  156.2553 N   0  0  0  0  0  0  0  0  0  0  0  0
  152.0558  139.0501  155.4403 S   0  0  0  0  0  0  0  0  0  0  0  0
  153.2360  138.5079  154.7475 O   0  0  0  0  0  0  0  0  0  0  0  0
  151.0012  139.6705  154.6215 O   0  0  0  0  0  0  0  0  0  0  0  0
  152.4458  139.8918  156.7676 N   0  5  0  0  0  0  0  0  0  0  0  0
  151.6774  141.0725  157.1216 C   0  0  0  0  0  0  0  0  0  0  0  0
  151.5662  141.1896  158.6595 C   0  0  0  0  0  0  0  0  0  0  0  0
  151.6272  142.6147  159.2068 C   0  0  0  0  0  0  0  0  0  0  0  0
  151.8249  143.7116  158.3366 C   0  0  0  0  0  0  0  0  0  0  0  0
  151.8759  145.0076  158.8830 C   0  0  0  0  0  0  0  0  0  0  0  0
  151.7172  145.1639  160.2731 C   0  0  0  0  0  0  0  0  0  0  0  0
  151.5141  144.0112  161.0576 C   0  0  0  0  0  0  0  0  0  0  0  0
  151.4647  142.7632  160.5444 N   0  0  0  0  0  0  0  0  0  0  0  0
  150.5793  138.0032  157.5057 C   0  0  0  0  0  0  0  0  0  0  0  0
  149.6770  136.8201  157.9004 C   0  0  2  0  0  0  0  0  0  0  0  0
  149.0292  137.0306  159.2732 C   0  0  0  0  0  0  0  0  0  0  0  0
  150.4366  135.6176  157.9554 O   0  0  0  0  0  0  0  0  0  0  0  0
  150.6736  134.4462  154.7767 H   0  0  0  0  0  0  0  0  0  0  0  0
  149.4993  135.6445  155.2842 H   0  0  0  0  0  0  0  0  0  0  0  0
  149.4772  134.0326  155.9997 H   0  0  0  0  0  0  0  0  0  0  0  0
  151.7367  134.4254  156.9720 H   0  0  0  0  0  0  0  0  0  0  0  0
  152.8552  136.5318  156.9949 H   0  0  0  0  0  0  0  0  0  0  0  0
  152.4616  136.2042  155.3256 H   0  0  0  0  0  0  0  0  0  0  0  0
  152.1475  141.9757  156.7320 H   0  0  0  0  0  0  0  0  0  0  0  0
  150.6740  141.0528  156.6948 H   0  0  0  0  0  0  0  0  0  0  0  0
  150.6430  140.7186  159.0005 H   0  0  0  0  0  0  0  0  0  0  0  0
  152.3733  140.6152  159.1161 H   0  0  0  0  0  0  0  0  0  0  0  0
  151.9517  143.5583  157.2748 H   0  0  0  0  0  0  0  0  0  0  0  0
  152.0351  145.8659  158.2472 H   0  0  0  0  0  0  0  0  0  0  0  0
  151.7510  146.1431  160.7271 H   0  0  0  0  0  0  0  0  0  0  0  0
  151.3871  144.0938  162.1267 H   0  0  0  0  0  0  0  0  0  0  0  0
  151.3084  138.2114  158.2898 H   0  0  0  0  0  0  0  0  0  0  0  0
  149.9693  138.8987  157.3881 H   0  0  0  0  0  0  0  0  0  0  0  0
  148.8773  136.7142  157.1673 H   0  0  0  0  0  0  0  0  0  0  0  0
  148.4147  137.9311  159.2827 H   0  0  0  0  0  0  0  0  0  0  0  0
  149.7835  137.1311  160.0541 H   0  0  0  0  0  0  0  0  0  0  0  0
  148.3884  136.1884  159.5348 H   0  0  0  0  0  0  0  0  0  0  0  0
  1  2  1  0  0  0  0
  1 21  1  0  0  0  0
  1 22  1  0  0  0  0
  1 23  1  0  0  0  0
  2 20  1  0  0  0  0
  2  3  1  0  0  0  0
  2 24  1  0  0  0  0
  3  4  1  0  0  0  0
  3 25  1  0  0  0  0
  3 26  1  0  0  0  0
  4  5  1  0  0  0  0
  4 17  1  0  0  0  0
  5  6  2  0  0  0  0
  5  7  2  0  0  0  0
  5  8  1  0  0  0  0
  8  9  1  0  0  0  0
  9 10  1  0  0  0  0
  9 27  1  0  0  0  0
  9 28  1  0  0  0  0
 10 11  1  0  0  0  0
 10 29  1  0  0  0  0
 10 30  1  0  0  0  0
 11 16  1  0  0  0  0
 11 12  2  0  0  0  0
 12 13  1  0  0  0  0
 12 31  1  0  0  0  0
 13 14  2  0  0  0  0
 13 32  1  0  0  0  0
 14 15  1  0  0  0  0
 14 33  1  0  0  0  0
 15 16  2  0  0  0  0
 15 34  1  0  0  0  0
 17 18  1  0  0  0  0
 17 35  1  0  0  0  0
 17 36  1  0  0  0  0
 18 19  1  0  0  0  0
 18 20  1  0  0  0  0
 18 37  1  0  0  0  0
 19 38  1  0  0  0  0
 19 39  1  0  0  0  0
 19 40  1  0  0  0  0
M  CHG  1   8  -1
M  END
> <s_m_source_file>
AV-unprocessed.smi

> <i_m_source_file_index>
2100

> <i_lp_mmshare_version>
43012

> <i_f3d_flags>
0

> <s_epik_input>
W0NIM11bQ0BASF0xW0NIMl1OKFtDSDJdW0NASF0oTzEpW0NIM10pUyg9TykoPU8pW05IXVtDSDJdW0NIMl1jMltjSF1bY0hdW2NIXVtjSF1uMg==

> <s_epik_cmdline>
J2VwaWtfcHl0aG9uJywgJy1waCcsICc3LjAnLCAnLXRuJywgJzgnLCAnLW1hJywgJzIwMCcsICctbWV0YWxfYmluZGluZycsICctaW1hZScsICc8aW5maWxlLm1hZT4nLCAnLW9tYWUnLCAnPG91dGZpbGUubWFlPic=

> <r_epik_Ionization_Penalty>
1.27779

> <r_epik_Ionization_Penalty_Charging>
1.20871

> <r_epik_Ionization_Penalty_Neutral>
0.0690773

> <r_epik_State_Penalty>
1.64557

> <r_epik_Charging_Adjusted_Penalty>
2.85428

> <i_epik_Tot_Q>
-1

> <i_epik_Tot_abs_Q>
1

> <r_epik_Metal_State_Penalty>
0.643506

> <b_epik_Metal_Only>
0

> <s_lp_Force_Field>
OPLS_2005

> <r_lp_Energy>
10.0642

> <b_lp_Chiralities_Consistent>
1

> <s_lp_Variant>
AV-unprocessed.smi:2100-6

> <Gold.Version>
5.8.1

> <Gold.Id.Protein>
6NUR|6NUR_protein|mol2

> <Gold.PLP.Fitness>
46.8960

> <Gold.PLP.PLP>
-37.4479

> <Gold.PLP.part.hbond>
-4.2356

> <Gold.PLP.part.metal>
0.0000

> <Gold.PLP.part.buried>
-6.2024

> <Gold.PLP.part.nonpolar>
-27.7415

> <Gold.PLP.part.repulsive>
0.1630

> <Gold.PLP.ligand.clash>
0.0000

> <Gold.PLP.ligand.torsion>
1.6780

> <Gold.PLP.Chemscore.Hbond>
3.7520

> <Gold.PLP.Chemscore.CHOScore>
0.0000

> <Gold.PLP.Chemscore.Metal>
0.0000

> <Gold.Chemscore.Hbonds>
donor molecule, donor type, donor heavy atom, donor atom, acceptor molecule, acceptor atom, score
      P1  H  6896  6909       L1    20  0.58
      P1  H  6933  6945       L1    16  0.01
      P1  H  7989  7998       L1     7  1.00
      P1  H  7997  8009       L1     8  1.80

> <Gold.PLP.Chemscore.Internal.Correction>
1.5480

> <Gold.Rescore>
     Score         DG    S(hbond)    S(metal)    S(lipo)     H(rot)  DE(clash)    DE(int)     intcor
     17.48     -19.30       1.98        0.00      93.92       1.47       0.13       1.69       ----

> <Gold.Chemscore.Fitness>
17.4791

> <Gold.Chemscore.DG>
-19.2968

> <Gold.Chemscore.ZeroCoef>
-5.4800

> <Gold.Chemscore.Hbond>
1.9758

> <Gold.Chemscore.Metal>
0.0000

> <Gold.Chemscore.Lipo>
93.9219

> <Gold.Chemscore.Internal_Hbond>
0.0000

> <Gold.Chemscore.DEClash>
0.1276

> <Gold.Chemscore.DEInternal>
1.6900

> <Gold.Chemscore.Rot>
1.4731

> <Gold.Chemscore.Internal.Correction>
   9.000000E+99

> <Gold.Chemscore.Hbonds>
donor molecule, donor type, donor heavy atom, donor atom, acceptor molecule, acceptor atom, score
      P1  H  6896  6909       L1    20  0.54
      P1  H  7989  7998       L1     7  0.82
      P1  H  7997  8009       L1     8  0.17

> <Gold.Chemscore.Hbond.Weighted>
-6.5991

> <Gold.Chemscore.Metal.Weighted>
-0.0000

> <Gold.Chemscore.Lipo.Weighted>
-10.9889

> <Gold.Chemscore.Internal_Hbond.Weighted>
0.0000

> <Gold.Chemscore.DEClash.Weighted>
0.1276

> <Gold.Chemscore.DEInternal.Weighted>
1.6900

> <Gold.Chemscore.Rot.Weighted>
3.7712

> <Gold.Chemscore.Internal.Correction.Weighted>
   9.000000E+99

> <Gold.Protein.RotatedTorsions>
[ 6907 6896 6895 6894 ] final   38.41 input  -60.11 | X-H torsion
[ 7974 7965 7964 7962 ] final  -69.22 input  175.53 | X-H torsion
[ 8008 7997 7996 7995 ] final -165.83 input   59.86 | X-H torsion
[ 10167 10162 10161 10158 ] final  -19.73 input  -65.29 | X-H torsion
[ 10718 10713 10712 10709 ] final -113.16 input   66.30 | X-H torsion
[ 10763 10752 10751 10750 ] final   17.06 input  -60.55 | X-H torsion
[ 11005 11000 10999 10996 ] final  176.67 input  -57.11 | X-H torsion

> <Gold.Protein.ActiveResidues>
 VAL166  LYS551  ARG553  GLY616  TRP617  ASP618  TYR619  PRO620  LYS621  CYS622 
 ASP623  PHE694  ASN695  SER759  ASP760  ASP761  ALA762  ILE779  LEU786  VAL792 
 PHE793  MET794  SER795  GLU796  ALA797  LYS798  CYS799  TRP800  GLU811  SER814 

> <Gold.Protein.RotatedAtoms>
  152.1560  134.8950  160.0544 H   0  0  0  0  0  0  0  0  0  0  0  0  # atno 6907 bound_to 6896
  151.9964  133.3804  159.4172 H   0  0  0  0  0  0  0  0  0  0  0  0  # atno 6908 bound_to 6896
  150.6881  134.3804  159.5075 H   0  0  0  0  0  0  0  0  0  0  0  0  # atno 6909 bound_to 6896
  145.7066  140.9095  143.0703 H   0  0  0  0  0  0  0  0  0  0  0  0  # atno 7974 bound_to 7965
  155.8554  140.0969  157.1648 H   0  0  0  0  0  0  0  0  0  0  0  0  # atno 8008 bound_to 7997
  154.3987  140.1375  156.3957 H   0  0  0  0  0  0  0  0  0  0  0  0  # atno 8009 bound_to 7997
  155.7916  140.3455  155.5355 H   0  0  0  0  0  0  0  0  0  0  0  0  # atno 8010 bound_to 7997
  140.7271  143.4790  151.0143 H   0  0  0  0  0  0  0  0  0  0  0  0  # atno 10167 bound_to 10162
  156.0749  130.5958  150.8604 H   0  0  0  0  0  0  0  0  0  0  0  0  # atno 10718 bound_to 10713
  153.1373  135.6753  153.9082 H   0  0  0  0  0  0  0  0  0  0  0  0  # atno 10763 bound_to 10752
  153.8550  135.3088  155.3436 H   0  0  0  0  0  0  0  0  0  0  0  0  # atno 10764 bound_to 10752
  154.7758  135.4915  153.9825 H   0  0  0  0  0  0  0  0  0  0  0  0  # atno 10765 bound_to 10752
  140.3757  134.6990  157.4420 H   0  0  0  0  0  0  0  0  0  0  0  0  # atno 11005 bound_to 11000
  144.6953  139.9018  143.7459 LP  0  0  0  0  0  0  0  0  0  0  0  0  # atno 17320 bound_to 7965
  146.0750  139.3738  143.0499 LP  0  0  0  0  0  0  0  0  0  0  0  0  # atno 17321 bound_to 7965
  139.8488  143.7466  152.3178 LP  0  0  0  0  0  0  0  0  0  0  0  0  # atno 17342 bound_to 10162
  139.7641  144.7497  151.0320 LP  0  0  0  0  0  0  0  0  0  0  0  0  # atno 17343 bound_to 10162
  157.5840  131.0946  150.9226 LP  0  0  0  0  0  0  0  0  0  0  0  0  # atno 17370 bound_to 10713
  156.9416  130.5387  149.5280 LP  0  0  0  0  0  0  0  0  0  0  0  0  # atno 17371 bound_to 10713
  140.0517  134.6121  155.8854 LP  0  0  0  0  0  0  0  0  0  0  0  0  # atno 17394 bound_to 11000
  141.1940  133.6581  156.5574 LP  0  0  0  0  0  0  0  0  0  0  0  0  # atno 17395 bound_to 11000

$$$$
