AV-unprocessed.smi:1868|AV-procd|sdf|7590|dock6
  -GOLD-   22720 9303D 1   1.00000     0.00000
 Structure written by MMmdl.
 48 50  0  0  0  0  0  0  0  0  3 V2000
  149.6980  141.1049  155.8353 C   0  0  0  0  0  0  0  0  0  0  0  0
  150.4343  141.6987  156.9889 C   0  0  0  0  0  0  0  0  0  0  0  0
  150.5845  143.0292  157.2431 N   0  3  0  0  0  0  0  0  0  0  0  0
  151.3290  143.2062  158.4103 C   0  0  0  0  0  0  0  0  0  0  0  0
  151.7355  144.3644  159.0659 C   0  0  0  0  0  0  0  0  0  0  0  0
  152.4899  144.1925  160.2449 C   0  0  0  0  0  0  0  0  0  0  0  0
  152.8122  142.9081  160.7300 C   0  0  0  0  0  0  0  0  0  0  0  0
  152.3947  141.7408  160.0567 C   0  0  0  0  0  0  0  0  0  0  0  0
  151.6497  141.9202  158.8915 C   0  0  0  0  0  0  0  0  0  0  0  0
  151.0807  141.0219  157.9817 N   0  0  0  0  0  0  0  0  0  0  0  0
  151.2387  139.5758  158.2034 C   0  0  0  0  0  0  0  0  0  0  0  0
  152.7086  139.1513  158.3999 C   0  0  2  0  0  0  0  0  0  0  0  0
  153.3724  139.1974  157.1510 O   0  0  0  0  0  0  0  0  0  0  0  0
  152.8071  137.7228  158.9750 C   0  0  0  0  0  0  0  0  0  0  0  0
  153.9244  137.5508  159.9403 N   0  3  2  0  0  0  0  0  0  0  0  0
  154.0973  136.1305  160.3416 C   0  0  0  0  0  0  0  0  0  0  0  0
  155.3371  135.9447  161.2349 C   0  0  0  0  0  0  0  0  0  0  0  0
  155.3047  136.8563  162.4747 C   0  0  2  0  0  0  0  0  0  0  0  0
  154.2984  136.3817  163.5381 C   0  0  0  0  0  0  0  0  0  0  0  0
  155.0611  138.3102  162.0320 C   0  0  0  0  0  0  0  0  0  0  0  0
  153.8239  138.4440  161.1259 C   0  0  0  0  0  0  0  0  0  0  0  0
  149.2882  141.8885  155.1975 H   0  0  0  0  0  0  0  0  0  0  0  0
  148.8764  140.4838  156.1925 H   0  0  0  0  0  0  0  0  0  0  0  0
  150.3682  140.4878  155.2371 H   0  0  0  0  0  0  0  0  0  0  0  0
  151.4890  145.3493  158.6969 H   0  0  0  0  0  0  0  0  0  0  0  0
  152.8272  145.0633  160.7885 H   0  0  0  0  0  0  0  0  0  0  0  0
  153.3913  142.8172  161.6377 H   0  0  0  0  0  0  0  0  0  0  0  0
  152.6459  140.7622  160.4372 H   0  0  0  0  0  0  0  0  0  0  0  0
  150.6324  139.2934  159.0649 H   0  0  0  0  0  0  0  0  0  0  0  0
  150.8067  139.0598  157.3449 H   0  0  0  0  0  0  0  0  0  0  0  0
  153.1879  139.8682  159.0647 H   0  0  0  0  0  0  0  0  0  0  0  0
  153.1159  138.4472  156.6372 H   0  0  0  0  0  0  0  0  0  0  0  0
  151.8720  137.4441  159.4633 H   0  0  0  0  0  0  0  0  0  0  0  0
  152.9308  137.0280  158.1427 H   0  0  0  0  0  0  0  0  0  0  0  0
  153.1997  135.7825  160.8543 H   0  0  0  0  0  0  0  0  0  0  0  0
  154.2095  135.5097  159.4519 H   0  0  0  0  0  0  0  0  0  0  0  0
  155.4285  134.9004  161.5358 H   0  0  0  0  0  0  0  0  0  0  0  0
  156.2304  136.1684  160.6497 H   0  0  0  0  0  0  0  0  0  0  0  0
  156.2896  136.8137  162.9420 H   0  0  0  0  0  0  0  0  0  0  0  0
  153.2747  136.3761  163.1648 H   0  0  0  0  0  0  0  0  0  0  0  0
  154.3251  137.0287  164.4156 H   0  0  0  0  0  0  0  0  0  0  0  0
  154.5312  135.3704  163.8728 H   0  0  0  0  0  0  0  0  0  0  0  0
  154.9595  138.9582  162.9033 H   0  0  0  0  0  0  0  0  0  0  0  0
  155.9365  138.6704  161.4897 H   0  0  0  0  0  0  0  0  0  0  0  0
  153.7372  139.4835  160.8133 H   0  0  0  0  0  0  0  0  0  0  0  0
  152.9160  138.2123  161.6844 H   0  0  0  0  0  0  0  0  0  0  0  0
  154.7695  137.8041  159.4490 H   0  0  0  0  0  0  0  0  0  0  0  0
  150.2022  143.7622  156.6593 H   0  0  0  0  0  0  0  0  0  0  0  0
  1  2  1  0  0  0  0
  1 22  1  0  0  0  0
  1 23  1  0  0  0  0
  1 24  1  0  0  0  0
  2 10  1  0  0  0  0
  2  3  2  0  0  0  0
  3  4  1  0  0  0  0
  3 48  1  0  0  0  0
  4  9  2  0  0  0  0
  4  5  1  0  0  0  0
  5  6  2  0  0  0  0
  5 25  1  0  0  0  0
  6  7  1  0  0  0  0
  6 26  1  0  0  0  0
  7  8  2  0  0  0  0
  7 27  1  0  0  0  0
  8  9  1  0  0  0  0
  8 28  1  0  0  0  0
  9 10  1  0  0  0  0
 10 11  1  0  0  0  0
 11 12  1  0  0  0  0
 11 29  1  0  0  0  0
 11 30  1  0  0  0  0
 12 13  1  0  0  0  0
 12 14  1  0  0  0  0
 12 31  1  0  0  0  0
 13 32  1  0  0  0  0
 14 15  1  0  0  0  0
 14 33  1  0  0  0  0
 14 34  1  0  0  0  0
 15 21  1  0  0  0  0
 15 16  1  0  0  0  0
 15 47  1  0  0  0  0
 16 17  1  0  0  0  0
 16 35  1  0  0  0  0
 16 36  1  0  0  0  0
 17 18  1  0  0  0  0
 17 37  1  0  0  0  0
 17 38  1  0  0  0  0
 18 19  1  0  0  0  0
 18 20  1  0  0  0  0
 18 39  1  0  0  0  0
 19 40  1  0  0  0  0
 19 41  1  0  0  0  0
 19 42  1  0  0  0  0
 20 21  1  0  0  0  0
 20 43  1  0  0  0  0
 20 44  1  0  0  0  0
 21 45  1  0  0  0  0
 21 46  1  0  0  0  0
M  CHG  1   3   1
M  CHG  1  15   1
M  END
> <s_m_source_file>
AV-unprocessed.smi

> <i_m_source_file_index>
1868

> <i_lp_mmshare_version>
43012

> <i_f3d_flags>
0

> <s_epik_input>
W2NIXTFbY0hdW2NIXVtjSF1jKGMxMiluKGMobjIpW0NIM10pW0NIMl1bQ0BIXShbT0hdKVtDSDJdTjNbQ0gyXVtDSDJdW0NIXShbQ0gzXSlbQ0gyXVtDSDJdMw==

> <s_epik_cmdline>
J2VwaWtfcHl0aG9uJywgJy1waCcsICc3LjAnLCAnLXRuJywgJzgnLCAnLW1hJywgJzIwMCcsICctbWV0YWxfYmluZGluZycsICctaW1hZScsICc8aW5maWxlLm1hZT4nLCAnLW9tYWUnLCAnPG91dGZpbGUubWFlPic=

> <r_epik_Ionization_Penalty>
1.10901

> <r_epik_Ionization_Penalty_Charging>
1.10901

> <r_epik_Ionization_Penalty_Neutral>
6.90208e-07

> <r_epik_State_Penalty>
1.18788

> <r_epik_Charging_Adjusted_Penalty>
2.29689

> <i_epik_Tot_Q>
2

> <i_epik_Tot_abs_Q>
2

> <r_epik_Metal_State_Penalty>
5.19353

> <b_epik_Metal_Only>
0

> <s_lp_Force_Field>
OPLS_2005

> <r_lp_Energy>
32.3741

> <b_lp_Chiralities_Consistent>
1

> <s_lp_Variant>
AV-unprocessed.smi:1868-7

> <Gold.Version>
5.8.1

> <Gold.Id.Protein>
6NUR|6NUR_protein|mol2

> <Gold.PLP.Fitness>
49.6891

> <Gold.PLP.PLP>
-42.1180

> <Gold.PLP.part.hbond>
-1.9281

> <Gold.PLP.part.metal>
0.0000

> <Gold.PLP.part.buried>
-6.0553

> <Gold.PLP.part.nonpolar>
-35.2001

> <Gold.PLP.part.repulsive>
0.0788

> <Gold.PLP.ligand.clash>
0.0000

> <Gold.PLP.ligand.torsion>
0.6604

> <Gold.PLP.Chemscore.Hbond>
2.9520

> <Gold.PLP.Chemscore.CHOScore>
0.0000

> <Gold.PLP.Chemscore.Metal>
0.0000

> <Gold.Chemscore.Hbonds>
donor molecule, donor type, donor heavy atom, donor atom, acceptor molecule, acceptor atom, score
      L1  H     3    48       P1  8028  2.00
      P1  H  7997  8009       L1    13  0.71

> <Gold.PLP.Chemscore.Internal.Correction>
0.0359

> <Gold.Rescore>
     Score         DG    S(hbond)    S(metal)    S(lipo)     H(rot)  DE(clash)    DE(int)     intcor
     20.72     -21.43       1.96        0.00     123.97       1.99       0.01       0.70       ----

> <Gold.Chemscore.Fitness>
20.7197

> <Gold.Chemscore.DG>
-21.4333

> <Gold.Chemscore.ZeroCoef>
-5.4800

> <Gold.Chemscore.Hbond>
1.9563

> <Gold.Chemscore.Metal>
0.0000

> <Gold.Chemscore.Lipo>
123.9697

> <Gold.Chemscore.Internal_Hbond>
0.0000

> <Gold.Chemscore.DEClash>
0.0149

> <Gold.Chemscore.DEInternal>
0.6988

> <Gold.Chemscore.Rot>
1.9863

> <Gold.Chemscore.Internal.Correction>
   9.000000E+99

> <Gold.Chemscore.Hbonds>
donor molecule, donor type, donor heavy atom, donor atom, acceptor molecule, acceptor atom, score
      L1  H     3    48       P1  8028  0.99
      P1  H  7997  8009       L1    13  0.69

> <Gold.Chemscore.Hbond.Weighted>
-6.5339

> <Gold.Chemscore.Metal.Weighted>
-0.0000

> <Gold.Chemscore.Lipo.Weighted>
-14.5045

> <Gold.Chemscore.Internal_Hbond.Weighted>
0.0000

> <Gold.Chemscore.DEClash.Weighted>
0.0149

> <Gold.Chemscore.DEInternal.Weighted>
0.6988

> <Gold.Chemscore.Rot.Weighted>
5.0850

> <Gold.Chemscore.Internal.Correction.Weighted>
   9.000000E+99

> <Gold.Protein.RotatedTorsions>
[ 6907 6896 6895 6894 ] final  -40.55 input  -60.11 | X-H torsion
[ 7974 7965 7964 7962 ] final  -54.02 input  175.53 | X-H torsion
[ 8008 7997 7996 7995 ] final  177.32 input   59.86 | X-H torsion
[ 10167 10162 10161 10158 ] final -145.62 input  -65.29 | X-H torsion
[ 10718 10713 10712 10709 ] final   96.33 input   66.30 | X-H torsion
[ 10763 10752 10751 10750 ] final  135.48 input  -60.55 | X-H torsion
[ 11005 11000 10999 10996 ] final  -61.64 input  -57.11 | X-H torsion

> <Gold.Protein.ActiveResidues>
 VAL166  LYS551  ARG553  GLY616  TRP617  ASP618  TYR619  PRO620  LYS621  CYS622 
 ASP623  PHE694  ASN695  SER759  ASP760  ASP761  ALA762  ILE779  LEU786  VAL792 
 PHE793  MET794  SER795  GLU796  ALA797  LYS798  CYS799  TRP800  GLU811  SER814 

> <Gold.Protein.RotatedAtoms>
  150.9771  134.9134  159.7822 H   0  0  0  0  0  0  0  0  0  0  0  0  # atno 6907 bound_to 6896
  152.5210  134.3461  159.9244 H   0  0  0  0  0  0  0  0  0  0  0  0  # atno 6908 bound_to 6896
  151.3468  133.3900  159.2711 H   0  0  0  0  0  0  0  0  0  0  0  0  # atno 6909 bound_to 6896
  145.8903  140.8076  142.9795 H   0  0  0  0  0  0  0  0  0  0  0  0  # atno 7974 bound_to 7965
  156.0669  140.1361  156.9875 H   0  0  0  0  0  0  0  0  0  0  0  0  # atno 8008 bound_to 7997
  154.4511  140.0980  156.6672 H   0  0  0  0  0  0  0  0  0  0  0  0  # atno 8009 bound_to 7997
  155.5289  140.3458  155.4424 H   0  0  0  0  0  0  0  0  0  0  0  0  # atno 8010 bound_to 7997
  139.7789  143.8129  152.2636 H   0  0  0  0  0  0  0  0  0  0  0  0  # atno 10167 bound_to 10162
  157.6928  131.0574  150.4474 H   0  0  0  0  0  0  0  0  0  0  0  0  # atno 10718 bound_to 10713
  153.8408  135.3091  155.3426 H   0  0  0  0  0  0  0  0  0  0  0  0  # atno 10763 bound_to 10752
  154.7933  135.4770  154.0107 H   0  0  0  0  0  0  0  0  0  0  0  0  # atno 10764 bound_to 10752
  153.1577  135.6855  153.8880 H   0  0  0  0  0  0  0  0  0  0  0  0  # atno 10765 bound_to 10752
  141.1331  133.6632  156.5406 H   0  0  0  0  0  0  0  0  0  0  0  0  # atno 11005 bound_to 11000
  144.6730  140.1519  143.7429 LP  0  0  0  0  0  0  0  0  0  0  0  0  # atno 17320 bound_to 7965
  145.8917  139.2379  143.1546 LP  0  0  0  0  0  0  0  0  0  0  0  0  # atno 17321 bound_to 7965
  139.8186  144.7305  150.9602 LP  0  0  0  0  0  0  0  0  0  0  0  0  # atno 17342 bound_to 10162
  140.7817  143.4181  151.0885 LP  0  0  0  0  0  0  0  0  0  0  0  0  # atno 17343 bound_to 10162
  156.4828  130.4077  149.6451 LP  0  0  0  0  0  0  0  0  0  0  0  0  # atno 17370 bound_to 10713
  156.3491  130.7422  151.2379 LP  0  0  0  0  0  0  0  0  0  0  0  0  # atno 17371 bound_to 10713
  140.4143  134.7244  157.4853 LP  0  0  0  0  0  0  0  0  0  0  0  0  # atno 17394 bound_to 11000
  140.0405  134.6274  155.8987 LP  0  0  0  0  0  0  0  0  0  0  0  0  # atno 17395 bound_to 11000

$$$$
