AV-unprocessed.smi:618|AV-procd|sdf|3085|dock2
  -GOLD-   22720 0 03D 1   1.00000     0.00000
 Structure written by MMmdl.
 40 42  0  0  0  0  0  0  0  0  1 V2000
  150.6194  134.8124  155.7875 O   0  0  0  0  0  0  0  0  0  0  0  0
  150.1219  135.1772  154.7227 C   0  0  0  0  0  0  0  0  0  0  0  0
  149.4282  134.3651  153.9128 N   0  0  0  0  0  0  0  0  0  0  0  0
  149.1473  132.9569  154.1728 C   0  0  0  0  0  0  0  0  0  0  0  0
  147.7356  132.5653  153.7049 C   0  0  1  0  0  0  0  0  0  0  0  0
  147.3119  133.3514  152.4424 C   0  0  0  0  0  0  0  0  0  0  0  0
  146.0258  132.8740  151.9719 N   0  0  0  0  0  0  0  0  0  0  0  0
  145.5186  133.4555  150.7509 C   0  0  0  0  0  0  0  0  0  0  0  0
  144.4073  132.4891  150.3037 C   0  0  0  0  0  0  0  0  0  0  0  0
  144.7254  131.1685  151.0400 C   0  0  0  0  0  0  0  0  0  0  0  0
  146.0759  131.4641  151.6942 C   0  0  2  0  0  0  0  0  0  0  0  0
  146.4457  130.6749  152.9579 C   0  0  0  0  0  0  0  0  0  0  0  0
  147.7073  131.1597  153.4239 O   0  0  0  0  0  0  0  0  0  0  0  0
  150.1775  136.4243  154.2246 N   0  0  0  0  0  0  0  0  0  0  0  0
  150.8138  137.5711  154.7723 C   0  0  0  0  0  0  0  0  0  0  0  0
  151.7551  137.5347  155.8297 C   0  0  0  0  0  0  0  0  0  0  0  0
  152.3285  138.7429  156.2708 C   0  0  0  0  0  0  0  0  0  0  0  0
  151.9465  139.9404  155.6358 C   0  0  0  0  0  0  0  0  0  0  0  0
  151.0608  139.9887  154.6185 N   0  0  0  0  0  0  0  0  0  0  0  0
  150.5154  138.8264  154.2009 C   0  0  0  0  0  0  0  0  0  0  0  0
  149.0516  134.7524  153.0601 H   0  0  0  0  0  0  0  0  0  0  0  0
  149.8876  132.3711  153.6273 H   0  0  0  0  0  0  0  0  0  0  0  0
  149.2842  132.7169  155.2286 H   0  0  0  0  0  0  0  0  0  0  0  0
  147.0242  132.7729  154.5064 H   0  0  0  0  0  0  0  0  0  0  0  0
  147.2539  134.4176  152.6639 H   0  0  0  0  0  0  0  0  0  0  0  0
  148.0632  133.2297  151.6603 H   0  0  0  0  0  0  0  0  0  0  0  0
  145.1552  134.4711  150.9092 H   0  0  0  0  0  0  0  0  0  0  0  0
  146.3052  133.4903  149.9951 H   0  0  0  0  0  0  0  0  0  0  0  0
  143.4247  132.8598  150.5976 H   0  0  0  0  0  0  0  0  0  0  0  0
  144.4088  132.3647  149.2205 H   0  0  0  0  0  0  0  0  0  0  0  0
  143.9651  130.9674  151.7961 H   0  0  0  0  0  0  0  0  0  0  0  0
  144.7720  130.3115  150.3677 H   0  0  0  0  0  0  0  0  0  0  0  0
  146.8508  131.2801  150.9465 H   0  0  0  0  0  0  0  0  0  0  0  0
  145.6896  130.7946  153.7353 H   0  0  0  0  0  0  0  0  0  0  0  0
  146.5264  129.6101  152.7393 H   0  0  0  0  0  0  0  0  0  0  0  0
  149.6525  136.5856  153.3775 H   0  0  0  0  0  0  0  0  0  0  0  0
  152.0586  136.6122  156.2994 H   0  0  0  0  0  0  0  0  0  0  0  0
  153.0492  138.7505  157.0753 H   0  0  0  0  0  0  0  0  0  0  0  0
  152.3685  140.8840  155.9491 H   0  0  0  0  0  0  0  0  0  0  0  0
  149.8127  138.9030  153.3837 H   0  0  0  0  0  0  0  0  0  0  0  0
  1  2  2  0  0  0  0
  2  3  1  0  0  0  0
  2 14  1  0  0  0  0
  3  4  1  0  0  0  0
  3 21  1  0  0  0  0
  4  5  1  0  0  0  0
  4 22  1  0  0  0  0
  4 23  1  0  0  0  0
  5 13  1  0  0  0  0
  5  6  1  0  0  0  0
  5 24  1  0  0  0  0
  6  7  1  0  0  0  0
  6 25  1  0  0  0  0
  6 26  1  0  0  0  0
  7 11  1  0  0  0  0
  7  8  1  0  0  0  0
  8  9  1  0  0  0  0
  8 27  1  0  0  0  0
  8 28  1  0  0  0  0
  9 10  1  0  0  0  0
  9 29  1  0  0  0  0
  9 30  1  0  0  0  0
 10 11  1  0  0  0  0
 10 31  1  0  0  0  0
 10 32  1  0  0  0  0
 11 12  1  0  0  0  0
 11 33  1  0  0  0  0
 12 13  1  0  0  0  0
 12 34  1  0  0  0  0
 12 35  1  0  0  0  0
 14 15  1  0  0  0  0
 14 36  1  0  0  0  0
 15 20  1  0  0  0  0
 15 16  2  0  0  0  0
 16 17  1  0  0  0  0
 16 37  1  0  0  0  0
 17 18  2  0  0  0  0
 17 38  1  0  0  0  0
 18 19  1  0  0  0  0
 18 39  1  0  0  0  0
 19 20  2  0  0  0  0
 20 40  1  0  0  0  0
M  END
> <s_m_source_file>
AV-unprocessed.smi

> <i_m_source_file_index>
618

> <i_lp_mmshare_version>
43012

> <i_f3d_flags>
0

> <s_epik_input>
W2NIXTFuW2NIXVtjSF1bY0hdYzFbTkhdQyg9TylbTkhdW0NIMl1bQ0BIXShbQ0gyXTIpT1tDSDJdW0NAQEhdKE4yMylbQ0gyXVtDSDJdW0NIMl0z

> <s_epik_cmdline>
J2VwaWtfcHl0aG9uJywgJy1waCcsICc3LjAnLCAnLXRuJywgJzgnLCAnLW1hJywgJzIwMCcsICctbWV0YWxfYmluZGluZycsICctaW1hZScsICc8aW5maWxlLm1hZT4nLCAnLW9tYWUnLCAnPG91dGZpbGUubWFlPic=

> <r_epik_Ionization_Penalty>
1.07277

> <r_epik_Ionization_Penalty_Charging>
0

> <r_epik_Ionization_Penalty_Neutral>
1.07277

> <r_epik_State_Penalty>
1.13623

> <r_epik_Charging_Adjusted_Penalty>
1.13623

> <i_epik_Tot_Q>
0

> <i_epik_Tot_abs_Q>
0

> <r_epik_Metal_State_Penalty>
1.13277

> <b_epik_Metal_Only>
0

> <s_lp_Force_Field>
OPLS_2005

> <r_lp_Energy>
50.6397

> <b_lp_Chiralities_Consistent>
1

> <s_lp_Variant>
AV-unprocessed.smi:618-12

> <Gold.Version>
5.8.1

> <Gold.Id.Protein>
6NUR|6NUR_protein|mol2

> <Gold.PLP.Fitness>
46.1998

> <Gold.PLP.PLP>
-36.4250

> <Gold.PLP.part.hbond>
-4.0000

> <Gold.PLP.part.metal>
0.0000

> <Gold.PLP.part.buried>
-3.0420

> <Gold.PLP.part.nonpolar>
-29.2727

> <Gold.PLP.part.repulsive>
0.4268

> <Gold.PLP.ligand.clash>
0.0000

> <Gold.PLP.ligand.torsion>
0.4915

> <Gold.PLP.Chemscore.Hbond>
2.5856

> <Gold.PLP.Chemscore.CHOScore>
1.0000

> <Gold.PLP.Chemscore.Metal>
0.0000

> <Gold.Chemscore.Hbonds>
donor molecule, donor type, donor heavy atom, donor atom, acceptor molecule, acceptor atom, score
      L1  H     3    21       P1  7948  0.58
      L1  H    14    36       P1  7948  1.00
      P1  H  7989  7998       L1    19  1.00
      L1  C    20    40       P1  7957  1.00

> <Gold.PLP.Chemscore.Internal.Correction>
0.0010

> <Gold.Rescore>
     Score         DG    S(hbond)    S(metal)    S(lipo)     H(rot)  DE(clash)    DE(int)     intcor
     15.75     -17.40       1.42        0.00      88.62       1.25       0.00       1.65       ----

> <Gold.Chemscore.Fitness>
15.7480

> <Gold.Chemscore.DG>
-17.3964

> <Gold.Chemscore.ZeroCoef>
-5.4800

> <Gold.Chemscore.Hbond>
1.4185

> <Gold.Chemscore.Metal>
0.0000

> <Gold.Chemscore.Lipo>
88.6213

> <Gold.Chemscore.Internal_Hbond>
0.0000

> <Gold.Chemscore.DEClash>
0.0000

> <Gold.Chemscore.DEInternal>
1.6484

> <Gold.Chemscore.Rot>
1.2461

> <Gold.Chemscore.Internal.Correction>
   9.000000E+99

> <Gold.Chemscore.Hbonds>
donor molecule, donor type, donor heavy atom, donor atom, acceptor molecule, acceptor atom, score
      L1  H     3    21       P1  7948  0.04
      L1  H    14    36       P1  7948  0.49
      P1  H  7989  7998       L1    19  0.59

> <Gold.Chemscore.Hbond.Weighted>
-4.7378

> <Gold.Chemscore.Metal.Weighted>
-0.0000

> <Gold.Chemscore.Lipo.Weighted>
-10.3687

> <Gold.Chemscore.Internal_Hbond.Weighted>
0.0000

> <Gold.Chemscore.DEClash.Weighted>
0.0000

> <Gold.Chemscore.DEInternal.Weighted>
1.6484

> <Gold.Chemscore.Rot.Weighted>
3.1901

> <Gold.Chemscore.Internal.Correction.Weighted>
   9.000000E+99

> <Gold.Protein.RotatedTorsions>
[ 6907 6896 6895 6894 ] final  -70.07 input  -60.11 | X-H torsion
[ 7974 7965 7964 7962 ] final -110.94 input  175.53 | X-H torsion
[ 8008 7997 7996 7995 ] final  116.07 input   59.86 | X-H torsion
[ 10167 10162 10161 10158 ] final  -46.65 input  -65.29 | X-H torsion
[ 10718 10713 10712 10709 ] final   71.49 input   66.30 | X-H torsion
[ 10763 10752 10751 10750 ] final   46.92 input  -60.55 | X-H torsion
[ 11005 11000 10999 10996 ] final   77.26 input  -57.11 | X-H torsion

> <Gold.Protein.ActiveResidues>
 VAL166  LYS551  ARG553  GLY616  TRP617  ASP618  TYR619  PRO620  LYS621  CYS622 
 ASP623  PHE694  ASN695  SER759  ASP760  ASP761  ALA762  ILE779  LEU786  VAL792 
 PHE793  MET794  SER795  GLU796  ALA797  LYS798  CYS799  TRP800  GLU811  SER814 

> <Gold.Protein.RotatedAtoms>
  150.7275  134.5507  159.5792 H   0  0  0  0  0  0  0  0  0  0  0  0  # atno 6907 bound_to 6896
  152.2995  134.7625  160.0370 H   0  0  0  0  0  0  0  0  0  0  0  0  # atno 6908 bound_to 6896
  151.8211  133.3359  159.3621 H   0  0  0  0  0  0  0  0  0  0  0  0  # atno 6909 bound_to 6896
  145.1621  140.8884  143.3584 H   0  0  0  0  0  0  0  0  0  0  0  0  # atno 7974 bound_to 7965
  156.2418  140.2925  156.0467 H   0  0  0  0  0  0  0  0  0  0  0  0  # atno 8008 bound_to 7997
  155.1927  140.0407  157.2920 H   0  0  0  0  0  0  0  0  0  0  0  0  # atno 8009 bound_to 7997
  154.6184  140.2469  155.7588 H   0  0  0  0  0  0  0  0  0  0  0  0  # atno 8010 bound_to 7997
  140.6808  143.2821  151.3813 H   0  0  0  0  0  0  0  0  0  0  0  0  # atno 10167 bound_to 10162
  157.6454  130.9531  150.0796 H   0  0  0  0  0  0  0  0  0  0  0  0  # atno 10718 bound_to 10713
  152.9805  135.5992  154.3679 H   0  0  0  0  0  0  0  0  0  0  0  0  # atno 10763 bound_to 10752
  154.3355  135.2768  155.2452 H   0  0  0  0  0  0  0  0  0  0  0  0  # atno 10764 bound_to 10752
  154.4556  135.5979  153.6276 H   0  0  0  0  0  0  0  0  0  0  0  0  # atno 10765 bound_to 10752
  139.9262  134.7668  156.1499 H   0  0  0  0  0  0  0  0  0  0  0  0  # atno 11005 bound_to 11000
  145.0320  139.3333  143.6020 LP  0  0  0  0  0  0  0  0  0  0  0  0  # atno 17320 bound_to 7965
  146.3481  139.9661  142.8711 LP  0  0  0  0  0  0  0  0  0  0  0  0  # atno 17321 bound_to 7965
  139.6130  144.1059  152.2318 LP  0  0  0  0  0  0  0  0  0  0  0  0  # atno 17342 bound_to 10162
  140.0479  144.5956  150.7359 LP  0  0  0  0  0  0  0  0  0  0  0  0  # atno 17343 bound_to 10162
  156.1776  130.3649  149.9078 LP  0  0  0  0  0  0  0  0  0  0  0  0  # atno 17370 bound_to 10713
  156.7038  130.8943  151.3602 LP  0  0  0  0  0  0  0  0  0  0  0  0  # atno 17371 bound_to 10713
  141.0821  133.6749  156.2359 LP  0  0  0  0  0  0  0  0  0  0  0  0  # atno 17394 bound_to 11000
  140.6329  134.5245  157.5561 LP  0  0  0  0  0  0  0  0  0  0  0  0  # atno 17395 bound_to 11000

$$$$
