AV-unprocessed.smi:3234|AV-procd|sdf|12352|dock3
  -GOLD-   2272018213D 1   1.00000     0.00000
 Structure written by MMmdl.
 38 40  0  0  0  0  0  0  0  0  3 V2000
  145.3587  138.6158  152.9173 O   0  0  0  0  0  0  0  0  0  0  0  0
  146.4260  138.0124  152.8178 C   0  0  0  0  0  0  0  0  0  0  0  0
  147.6265  138.4663  153.2204 N   0  0  0  0  0  0  0  0  0  0  0  0
  147.9719  139.7000  153.8420 C   0  0  0  0  0  0  0  0  0  0  0  0
  146.9697  140.6953  153.8879 C   0  0  0  0  0  0  0  0  0  0  0  0
  147.2470  141.9406  154.4877 C   0  0  0  0  0  0  0  0  0  0  0  0
  148.4677  142.1759  155.0130 N   0  3  0  0  0  0  0  0  0  0  0  0
  149.4591  141.2599  154.9922 C   0  0  0  0  0  0  0  0  0  0  0  0
  149.2405  139.9963  154.4058 C   0  0  0  0  0  0  0  0  0  0  0  0
  146.5265  136.7895  152.2774 N   0  0  0  0  0  0  0  0  0  0  0  0
  145.4026  136.0223  151.7502 C   0  0  2  0  0  0  0  0  0  0  0  0
  144.1694  136.0040  152.6482 C   0  0  0  0  0  0  0  0  0  0  0  0
  143.4104  134.7699  152.1475 C   0  0  0  0  0  0  0  0  0  0  0  0
  144.4248  133.8401  151.5902 N   0  3  1  0  0  0  0  0  0  0  0  0
  144.0715  133.3127  150.2541 C   0  0  0  0  0  0  0  0  0  0  0  0
  143.8193  131.8238  150.2397 C   0  0  0  0  0  0  0  0  0  0  0  0
  145.1102  132.3799  149.6783 C   0  0  0  0  0  0  0  0  0  0  0  0
  145.7307  134.5351  151.6256 C   0  0  0  0  0  0  0  0  0  0  0  0
  148.4040  137.8448  153.0519 H   0  0  0  0  0  0  0  0  0  0  0  0
  145.9916  140.5102  153.4675 H   0  0  0  0  0  0  0  0  0  0  0  0
  146.5343  142.7490  154.5617 H   0  0  0  0  0  0  0  0  0  0  0  0
  150.3935  141.5628  155.4418 H   0  0  0  0  0  0  0  0  0  0  0  0
  150.0565  139.2918  154.4045 H   0  0  0  0  0  0  0  0  0  0  0  0
  147.4393  136.3607  152.2273 H   0  0  0  0  0  0  0  0  0  0  0  0
  145.1271  136.4043  150.7648 H   0  0  0  0  0  0  0  0  0  0  0  0
  144.4606  135.8649  153.6907 H   0  0  0  0  0  0  0  0  0  0  0  0
  143.5784  136.9182  152.5812 H   0  0  0  0  0  0  0  0  0  0  0  0
  142.8369  134.2921  152.9422 H   0  0  0  0  0  0  0  0  0  0  0  0
  142.7058  135.0694  151.3697 H   0  0  0  0  0  0  0  0  0  0  0  0
  143.5037  133.9770  149.6045 H   0  0  0  0  0  0  0  0  0  0  0  0
  143.8727  131.2826  151.1827 H   0  0  0  0  0  0  0  0  0  0  0  0
  143.0886  131.4457  149.5277 H   0  0  0  0  0  0  0  0  0  0  0  0
  145.2292  132.3676  148.5967 H   0  0  0  0  0  0  0  0  0  0  0  0
  146.0218  132.2085  150.2481 H   0  0  0  0  0  0  0  0  0  0  0  0
  146.3517  134.3166  150.7552 H   0  0  0  0  0  0  0  0  0  0  0  0
  146.2695  134.1885  152.5088 H   0  0  0  0  0  0  0  0  0  0  0  0
  144.4942  133.0481  152.2132 H   0  0  0  0  0  0  0  0  0  0  0  0
  148.6492  143.0836  155.4426 H   0  0  0  0  0  0  0  0  0  0  0  0
  1  2  2  0  0  0  0
  2  3  1  0  0  0  0
  2 10  1  0  0  0  0
  3  4  1  0  0  0  0
  3 19  1  0  0  0  0
  4  9  1  0  0  0  0
  4  5  2  0  0  0  0
  5  6  1  0  0  0  0
  5 20  1  0  0  0  0
  6  7  2  0  0  0  0
  6 21  1  0  0  0  0
  7  8  1  0  0  0  0
  7 38  1  0  0  0  0
  8  9  2  0  0  0  0
  8 22  1  0  0  0  0
  9 23  1  0  0  0  0
 10 11  1  0  0  0  0
 10 24  1  0  0  0  0
 11 18  1  0  0  0  0
 11 12  1  0  0  0  0
 11 25  1  0  0  0  0
 12 13  1  0  0  0  0
 12 26  1  0  0  0  0
 12 27  1  0  0  0  0
 13 14  1  0  0  0  0
 13 28  1  0  0  0  0
 13 29  1  0  0  0  0
 14 15  1  0  0  0  0
 14 18  1  0  0  0  0
 14 37  1  0  0  0  0
 15 17  1  0  0  0  0
 15 16  1  0  0  0  0
 15 30  1  0  0  0  0
 16 17  1  0  0  0  0
 16 31  1  0  0  0  0
 16 32  1  0  0  0  0
 17 33  1  0  0  0  0
 17 34  1  0  0  0  0
 18 35  1  0  0  0  0
 18 36  1  0  0  0  0
M  CHG  1   7   1
M  CHG  1  14   1
M  END
> <s_m_source_file>
AV-unprocessed.smi

> <i_m_source_file_index>
3234

> <i_lp_mmshare_version>
43012

> <i_f3d_flags>
0

> <s_epik_input>
W2NIXTFbY0hdbltjSF1bY0hdYzFbTkhdQyg9TylbTkhdW0NAQEhdMltDSDJdW0NIMl1OKFtDSDJdMilbQ0hdM1tDSDJdW0NIMl0z

> <s_epik_cmdline>
J2VwaWtfcHl0aG9uJywgJy1waCcsICc3LjAnLCAnLXRuJywgJzgnLCAnLW1hJywgJzIwMCcsICctbWV0YWxfYmluZGluZycsICctaW1hZScsICc8aW5maWxlLm1hZT4nLCAnLW9tYWUnLCAnPG91dGZpbGUubWFlPic=

> <r_epik_Ionization_Penalty>
1.14489

> <r_epik_Ionization_Penalty_Charging>
1.14487

> <r_epik_Ionization_Penalty_Neutral>
1.95212e-05

> <r_epik_State_Penalty>
1.205

> <r_epik_Charging_Adjusted_Penalty>
2.34987

> <i_epik_Tot_Q>
2

> <i_epik_Tot_abs_Q>
2

> <r_epik_Metal_State_Penalty>
1.28709

> <b_epik_Metal_Only>
0

> <s_lp_Force_Field>
OPLS_2005

> <r_lp_Energy>
49.761

> <b_lp_Chiralities_Consistent>
1

> <s_lp_Variant>
AV-unprocessed.smi:3234-5

> <Gold.Version>
5.8.1

> <Gold.Id.Protein>
6NUR|6NUR_protein|mol2

> <Gold.PLP.Fitness>
42.9948

> <Gold.PLP.PLP>
-32.3896

> <Gold.PLP.part.hbond>
-3.4661

> <Gold.PLP.part.metal>
0.0000

> <Gold.PLP.part.buried>
-3.0961

> <Gold.PLP.part.nonpolar>
-31.2711

> <Gold.PLP.part.repulsive>
4.6013

> <Gold.PLP.ligand.clash>
0.0000

> <Gold.PLP.ligand.torsion>
0.9822

> <Gold.PLP.Chemscore.Hbond>
3.7684

> <Gold.PLP.Chemscore.CHOScore>
0.0000

> <Gold.PLP.Chemscore.Metal>
0.0000

> <Gold.Chemscore.Hbonds>
donor molecule, donor type, donor heavy atom, donor atom, acceptor molecule, acceptor atom, score
      L1  H     3    19       P1  7948  0.77
      L1  H     7    38       P1  8028  2.00
      L1  H    10    24       P1  7948  1.00

> <Gold.PLP.Chemscore.Internal.Correction>
1.2645

> <Gold.Rescore>
     Score         DG    S(hbond)    S(metal)    S(lipo)     H(rot)  DE(clash)    DE(int)     intcor
     15.91     -21.45       2.79        0.00      83.57       1.22       1.73       3.81       ----

> <Gold.Chemscore.Fitness>
15.9128

> <Gold.Chemscore.DG>
-21.4486

> <Gold.Chemscore.ZeroCoef>
-5.4800

> <Gold.Chemscore.Hbond>
2.7924

> <Gold.Chemscore.Metal>
0.0000

> <Gold.Chemscore.Lipo>
83.5677

> <Gold.Chemscore.Internal_Hbond>
0.0000

> <Gold.Chemscore.DEClash>
1.7271

> <Gold.Chemscore.DEInternal>
3.8087

> <Gold.Chemscore.Rot>
1.2248

> <Gold.Chemscore.Internal.Correction>
   9.000000E+99

> <Gold.Chemscore.Hbonds>
donor molecule, donor type, donor heavy atom, donor atom, acceptor molecule, acceptor atom, score
      L1  H     3    19       P1  7948  0.72
      L1  H     7    38       P1  8028  0.99
      L1  H    10    24       P1  7948  0.94

> <Gold.Chemscore.Hbond.Weighted>
-9.3266

> <Gold.Chemscore.Metal.Weighted>
-0.0000

> <Gold.Chemscore.Lipo.Weighted>
-9.7774

> <Gold.Chemscore.Internal_Hbond.Weighted>
0.0000

> <Gold.Chemscore.DEClash.Weighted>
1.7271

> <Gold.Chemscore.DEInternal.Weighted>
3.8087

> <Gold.Chemscore.Rot.Weighted>
3.1355

> <Gold.Chemscore.Internal.Correction.Weighted>
   9.000000E+99

> <Gold.Protein.RotatedTorsions>
[ 6907 6896 6895 6894 ] final -125.38 input  -60.11 | X-H torsion
[ 7974 7965 7964 7962 ] final   60.87 input  175.53 | X-H torsion
[ 8008 7997 7996 7995 ] final  106.81 input   59.86 | X-H torsion
[ 10167 10162 10161 10158 ] final  105.07 input  -65.29 | X-H torsion
[ 10718 10713 10712 10709 ] final  -33.26 input   66.30 | X-H torsion
[ 10763 10752 10751 10750 ] final  -86.24 input  -60.55 | X-H torsion
[ 11005 11000 10999 10996 ] final  -35.09 input  -57.11 | X-H torsion

> <Gold.Protein.ActiveResidues>
 VAL166  LYS551  ARG553  GLY616  TRP617  ASP618  TYR619  PRO620  LYS621  CYS622 
 ASP623  PHE694  ASN695  SER759  ASP760  ASP761  ALA762  ILE779  LEU786  VAL792 
 PHE793  MET794  SER795  GLU796  ALA797  LYS798  CYS799  TRP800  GLU811  SER814 

> <Gold.Protein.RotatedAtoms>
  150.8862  133.7305  159.2917 H   0  0  0  0  0  0  0  0  0  0  0  0  # atno 6907 bound_to 6896
  151.4870  135.1054  159.9803 H   0  0  0  0  0  0  0  0  0  0  0  0  # atno 6908 bound_to 6896
  152.4791  133.8164  159.7086 H   0  0  0  0  0  0  0  0  0  0  0  0  # atno 6909 bound_to 6896
  145.8912  139.3512  143.0648 H   0  0  0  0  0  0  0  0  0  0  0  0  # atno 7974 bound_to 7965
  156.1773  140.3106  155.9083 H   0  0  0  0  0  0  0  0  0  0  0  0  # atno 8008 bound_to 7997
  155.3459  140.0468  157.3062 H   0  0  0  0  0  0  0  0  0  0  0  0  # atno 8009 bound_to 7997
  154.5304  140.2228  155.8824 H   0  0  0  0  0  0  0  0  0  0  0  0  # atno 8010 bound_to 7997
  139.7124  144.7075  151.1005 H   0  0  0  0  0  0  0  0  0  0  0  0  # atno 10167 bound_to 10162
  156.3648  130.4329  149.7594 H   0  0  0  0  0  0  0  0  0  0  0  0  # atno 10718 bound_to 10713
  154.6203  135.5456  153.7567 H   0  0  0  0  0  0  0  0  0  0  0  0  # atno 10763 bound_to 10752
  153.0235  135.6411  154.1451 H   0  0  0  0  0  0  0  0  0  0  0  0  # atno 10764 bound_to 10752
  154.1385  135.2910  155.3147 H   0  0  0  0  0  0  0  0  0  0  0  0  # atno 10765 bound_to 10752
  140.9768  133.7078  156.1617 H   0  0  0  0  0  0  0  0  0  0  0  0  # atno 11005 bound_to 11000
  145.8906  140.9306  143.0554 LP  0  0  0  0  0  0  0  0  0  0  0  0  # atno 17320 bound_to 7965
  144.6730  140.0901  143.7465 LP  0  0  0  0  0  0  0  0  0  0  0  0  # atno 17321 bound_to 7965
  140.7736  143.5275  150.9462 LP  0  0  0  0  0  0  0  0  0  0  0  0  # atno 17342 bound_to 10162
  139.8960  143.6894  152.3138 LP  0  0  0  0  0  0  0  0  0  0  0  0  # atno 17343 bound_to 10162
  156.4744  130.8011  151.3028 LP  0  0  0  0  0  0  0  0  0  0  0  0  # atno 17370 bound_to 10713
  157.7477  131.0026  150.3005 LP  0  0  0  0  0  0  0  0  0  0  0  0  # atno 17371 bound_to 10713
  140.7246  134.4321  157.5572 LP  0  0  0  0  0  0  0  0  0  0  0  0  # atno 17394 bound_to 11000
  139.8934  134.8732  156.2225 LP  0  0  0  0  0  0  0  0  0  0  0  0  # atno 17395 bound_to 11000

$$$$
