AV-unprocessed.smi:398|AV-procd|sdf|2489|dock8
  -GOLD-   2262022433D 1   1.00000     0.00000
 Structure written by MMmdl.
 34 36  0  0  0  0  0  0  0  0  1 V2000
  151.0408  140.4847  155.3533 N   0  0  0  0  0  0  0  0  0  0  0  0
  151.4115  140.8385  156.3910 C   0  0  0  0  0  0  0  0  0  0  0  0
  151.8914  141.2868  157.6561 C   0  0  0  0  0  0  0  0  0  0  0  0
  151.6207  142.5235  158.1222 C   0  0  0  0  0  0  0  0  0  0  0  0
  152.0691  142.9686  159.3468 N   0  0  0  0  0  0  0  0  0  0  0  0
  151.9067  144.3358  159.7539 C   0  0  0  0  0  0  0  0  0  0  0  0
  150.5272  144.8718  160.0842 C   0  0  0  0  0  0  0  0  0  0  0  0
  151.2216  145.3075  158.8175 C   0  0  0  0  0  0  0  0  0  0  0  0
  152.9109  142.1526  160.1339 C   0  0  0  0  0  0  0  0  0  0  0  0
  153.4021  142.5701  161.1856 O   0  0  0  0  0  0  0  0  0  0  0  0
  153.1850  140.8426  159.6715 N   0  0  0  0  0  0  0  0  0  0  0  0
  154.0517  139.9663  160.4900 C   0  0  0  0  0  0  0  0  0  0  0  0
  155.3954  139.6336  159.8224 C   0  0  0  0  0  0  0  0  0  0  0  0
  155.4392  139.0138  158.7584 O   0  0  0  0  0  0  0  0  0  0  0  0
  156.4883  140.0643  160.4689 N   0  0  0  0  0  0  0  0  0  0  0  0
  157.8357  139.8701  160.0402 C   0  0  0  0  0  0  0  0  0  0  0  0
  158.9336  140.5001  160.8696 C   0  0  0  0  0  0  0  0  0  0  0  0
  158.5905  141.0761  159.5237 C   0  0  0  0  0  0  0  0  0  0  0  0
  152.7001  140.3501  158.4328 C   0  0  0  0  0  0  0  0  0  0  0  0
  152.9692  139.2086  158.0546 O   0  0  0  0  0  0  0  0  0  0  0  0
  151.0247  143.1910  157.5163 H   0  0  0  0  0  0  0  0  0  0  0  0
  152.7264  144.7448  160.3419 H   0  0  0  0  0  0  0  0  0  0  0  0
  149.6752  144.2029  159.9776 H   0  0  0  0  0  0  0  0  0  0  0  0
  150.4515  145.5963  160.8926 H   0  0  0  0  0  0  0  0  0  0  0  0
  151.6069  146.3244  158.7809 H   0  0  0  0  0  0  0  0  0  0  0  0
  150.8282  144.9248  157.8777 H   0  0  0  0  0  0  0  0  0  0  0  0
  154.2553  140.4132  161.4644 H   0  0  0  0  0  0  0  0  0  0  0  0
  153.5391  139.0331  160.7303 H   0  0  0  0  0  0  0  0  0  0  0  0
  156.3561  140.5671  161.3345 H   0  0  0  0  0  0  0  0  0  0  0  0
  158.0788  138.9179  159.5704 H   0  0  0  0  0  0  0  0  0  0  0  0
  158.6442  141.0732  161.7486 H   0  0  0  0  0  0  0  0  0  0  0  0
  159.8710  139.9545  160.9585 H   0  0  0  0  0  0  0  0  0  0  0  0
  159.2989  140.9147  158.7136 H   0  0  0  0  0  0  0  0  0  0  0  0
  158.0721  142.0330  159.5050 H   0  0  0  0  0  0  0  0  0  0  0  0
  1  2  3  0  0  0  0
  2  3  1  0  0  0  0
  3 19  1  0  0  0  0
  3  4  2  0  0  0  0
  4  5  1  0  0  0  0
  4 21  1  0  0  0  0
  5  6  1  0  0  0  0
  5  9  1  0  0  0  0
  6  8  1  0  0  0  0
  6  7  1  0  0  0  0
  6 22  1  0  0  0  0
  7  8  1  0  0  0  0
  7 23  1  0  0  0  0
  7 24  1  0  0  0  0
  8 25  1  0  0  0  0
  8 26  1  0  0  0  0
  9 10  2  0  0  0  0
  9 11  1  0  0  0  0
 11 12  1  0  0  0  0
 11 19  1  0  0  0  0
 12 13  1  0  0  0  0
 12 27  1  0  0  0  0
 12 28  1  0  0  0  0
 13 14  2  0  0  0  0
 13 15  1  0  0  0  0
 15 16  1  0  0  0  0
 15 29  1  0  0  0  0
 16 18  1  0  0  0  0
 16 17  1  0  0  0  0
 16 30  1  0  0  0  0
 17 18  1  0  0  0  0
 17 31  1  0  0  0  0
 17 32  1  0  0  0  0
 18 33  1  0  0  0  0
 18 34  1  0  0  0  0
 19 20  2  0  0  0  0
M  END
> <s_m_source_file>
AV-unprocessed.smi

> <i_m_source_file_index>
398

> <i_lp_mmshare_version>
43012

> <i_f3d_flags>
0

> <s_epik_input>
TiNDYzFbY0hdbihbQ0hdMltDSDJdW0NIMl0yKWMoPU8pbihjMT1PKVtDSDJdQyg9TylbTkhdW0NIXTNbQ0gyXVtDSDJdMw==

> <s_epik_cmdline>
J2VwaWtfcHl0aG9uJywgJy1waCcsICc3LjAnLCAnLXRuJywgJzgnLCAnLW1hJywgJzIwMCcsICctbWV0YWxfYmluZGluZycsICctaW1hZScsICc8aW5maWxlLm1hZT4nLCAnLW9tYWUnLCAnPG91dGZpbGUubWFlPic=

> <r_lp_tautomer_probability>
1

> <r_epik_Ionization_Penalty>
2.07526e-08

> <r_epik_Ionization_Penalty_Charging>
8.22213e-11

> <r_epik_Ionization_Penalty_Neutral>
2.06703e-08

> <r_epik_State_Penalty>
-0

> <r_epik_Charging_Adjusted_Penalty>
8.22213e-11

> <i_epik_Tot_Q>
0

> <i_epik_Tot_abs_Q>
0

> <r_epik_Metal_State_Penalty>
-0

> <b_epik_Metal_Only>
0

> <s_lp_Force_Field>
OPLS_2005

> <r_lp_Energy>
41.1586

> <b_lp_Chiralities_Consistent>
1

> <s_lp_Variant>
AV-unprocessed.smi:398-1

> <Gold.Version>
5.8.1

> <Gold.Id.Protein>
6NUR|6NUR_protein|mol2

> <Gold.PLP.Fitness>
46.4217

> <Gold.PLP.PLP>
-40.6949

> <Gold.PLP.part.hbond>
-2.7630

> <Gold.PLP.part.metal>
0.0000

> <Gold.PLP.part.buried>
-5.7149

> <Gold.PLP.part.nonpolar>
-31.4883

> <Gold.PLP.part.repulsive>
0.0958

> <Gold.PLP.ligand.clash>
0.0000

> <Gold.PLP.ligand.torsion>
0.2070

> <Gold.PLP.Chemscore.Hbond>
1.9600

> <Gold.PLP.Chemscore.CHOScore>
0.0000

> <Gold.PLP.Chemscore.Metal>
0.0000

> <Gold.Chemscore.Hbonds>
donor molecule, donor type, donor heavy atom, donor atom, acceptor molecule, acceptor atom, score
      P1  H  7989  7998       L1     1  0.96
      P1  H  7997  8010       L1    14  1.00

> <Gold.PLP.Chemscore.Internal.Correction>
0.2607

> <Gold.Rescore>
     Score         DG    S(hbond)    S(metal)    S(lipo)     H(rot)  DE(clash)    DE(int)     intcor
     13.73     -15.72       1.89        0.00      74.33       1.87       0.11       1.88       ----

> <Gold.Chemscore.Fitness>
13.7316

> <Gold.Chemscore.DG>
-15.7224

> <Gold.Chemscore.ZeroCoef>
-5.4800

> <Gold.Chemscore.Hbond>
1.8927

> <Gold.Chemscore.Metal>
0.0000

> <Gold.Chemscore.Lipo>
74.3259

> <Gold.Chemscore.Internal_Hbond>
0.0000

> <Gold.Chemscore.DEClash>
0.1097

> <Gold.Chemscore.DEInternal>
1.8811

> <Gold.Chemscore.Rot>
1.8654

> <Gold.Chemscore.Internal.Correction>
   9.000000E+99

> <Gold.Chemscore.Hbonds>
donor molecule, donor type, donor heavy atom, donor atom, acceptor molecule, acceptor atom, score
      P1  H  7989  7998       L1     1  0.90
      P1  H  7997  8010       L1    14  0.88

> <Gold.Chemscore.Hbond.Weighted>
-6.3217

> <Gold.Chemscore.Metal.Weighted>
-0.0000

> <Gold.Chemscore.Lipo.Weighted>
-8.6961

> <Gold.Chemscore.Internal_Hbond.Weighted>
0.0000

> <Gold.Chemscore.DEClash.Weighted>
0.1097

> <Gold.Chemscore.DEInternal.Weighted>
1.8811

> <Gold.Chemscore.Rot.Weighted>
4.7755

> <Gold.Chemscore.Internal.Correction.Weighted>
   9.000000E+99

> <Gold.Protein.RotatedTorsions>
[ 6907 6896 6895 6894 ] final   61.92 input  -60.11 | X-H torsion
[ 7974 7965 7964 7962 ] final -129.72 input  175.53 | X-H torsion
[ 8008 7997 7996 7995 ] final  -10.38 input   59.86 | X-H torsion
[ 10167 10162 10161 10158 ] final   61.40 input  -65.29 | X-H torsion
[ 10718 10713 10712 10709 ] final  -78.57 input   66.30 | X-H torsion
[ 10763 10752 10751 10750 ] final  171.59 input  -60.55 | X-H torsion
[ 11005 11000 10999 10996 ] final  121.02 input  -57.11 | X-H torsion

> <Gold.Protein.ActiveResidues>
 VAL166  LYS551  ARG553  GLY616  TRP617  ASP618  TYR619  PRO620  LYS621  CYS622 
 ASP623  PHE694  ASN695  SER759  ASP760  ASP761  ALA762  ILE779  LEU786  VAL792 
 PHE793  MET794  SER795  GLU796  ALA797  LYS798  CYS799  TRP800  GLU811  SER814 

> <Gold.Protein.RotatedAtoms>
  152.4129  134.6093  160.0021 H   0  0  0  0  0  0  0  0  0  0  0  0  # atno 6907 bound_to 6896
  151.6265  133.3329  159.3107 H   0  0  0  0  0  0  0  0  0  0  0  0  # atno 6908 bound_to 6896
  150.8019  134.7158  159.6674 H   0  0  0  0  0  0  0  0  0  0  0  0  # atno 6909 bound_to 6896
  144.9544  140.7380  143.4768 H   0  0  0  0  0  0  0  0  0  0  0  0  # atno 7974 bound_to 7965
  154.5559  140.2330  155.8410 H   0  0  0  0  0  0  0  0  0  0  0  0  # atno 8008 bound_to 7997
  156.1988  140.3058  155.9443 H   0  0  0  0  0  0  0  0  0  0  0  0  # atno 8009 bound_to 7997
  155.2980  140.0430  157.3018 H   0  0  0  0  0  0  0  0  0  0  0  0  # atno 8010 bound_to 7997
  140.1552  144.4424  150.6738 H   0  0  0  0  0  0  0  0  0  0  0  0  # atno 10167 bound_to 10162
  156.0114  130.4522  150.3517 H   0  0  0  0  0  0  0  0  0  0  0  0  # atno 10718 bound_to 10713
  154.4140  135.2756  155.2018 H   0  0  0  0  0  0  0  0  0  0  0  0  # atno 10763 bound_to 10752
  154.3992  135.6048  153.5891 H   0  0  0  0  0  0  0  0  0  0  0  0  # atno 10764 bound_to 10752
  152.9831  135.5922  154.4426 H   0  0  0  0  0  0  0  0  0  0  0  0  # atno 10765 bound_to 10752
  139.9209  134.9637  156.7895 H   0  0  0  0  0  0  0  0  0  0  0  0  # atno 11005 bound_to 11000
  145.2794  139.1924  143.4799 LP  0  0  0  0  0  0  0  0  0  0  0  0  # atno 17320 bound_to 7965
  146.3332  140.2754  142.8608 LP  0  0  0  0  0  0  0  0  0  0  0  0  # atno 17321 bound_to 7965
  140.6677  143.2274  151.5701 LP  0  0  0  0  0  0  0  0  0  0  0  0  # atno 17342 bound_to 10162
  139.5407  144.2656  152.1344 LP  0  0  0  0  0  0  0  0  0  0  0  0  # atno 17343 bound_to 10162
  157.1609  131.0344  151.2841 LP  0  0  0  0  0  0  0  0  0  0  0  0  # atno 17370 bound_to 10713
  157.4312  130.7492  149.6992 LP  0  0  0  0  0  0  0  0  0  0  0  0  # atno 17371 bound_to 10713
  140.6478  133.9759  155.7740 LP  0  0  0  0  0  0  0  0  0  0  0  0  # atno 17394 bound_to 11000
  141.0728  134.0180  157.3501 LP  0  0  0  0  0  0  0  0  0  0  0  0  # atno 17395 bound_to 11000

$$$$
