AV-unprocessed.smi:2253|AV-procd|sdf|9117|dock2
  -GOLD-   2272012323D 1   1.00000     0.00000
 Structure written by MMmdl.
 52 54  0  0  0  0  0  0  0  0  3 V2000
  146.6494  129.8157  152.2887 C   0  0  0  0  0  0  0  0  0  0  0  0
  146.0196  131.0856  151.8664 N   0  3  2  0  0  0  0  0  0  0  0  0
  145.9000  132.0557  152.9786 C   0  0  0  0  0  0  0  0  0  0  0  0
  145.3596  133.4078  152.4821 C   0  0  0  0  0  0  0  0  0  0  0  0
  143.9956  133.2741  151.7567 C   0  0  1  0  0  0  0  0  0  0  0  0
  143.5028  134.5766  151.1893 N   0  3  2  0  0  0  0  0  0  0  0  0
  144.3338  135.1739  150.1040 C   0  0  0  0  0  0  0  0  0  0  0  0
  145.6580  135.7437  150.6465 C   0  0  0  0  0  0  0  0  0  0  0  0
  145.3894  136.8117  151.7207 C   0  0  2  0  0  0  0  0  0  0  0  0
  146.6516  137.2806  152.2861 N   0  0  0  0  0  0  0  0  0  0  0  0
  146.8002  138.3977  153.0138 C   0  0  0  0  0  0  0  0  0  0  0  0
  145.8616  139.1361  153.3096 O   0  0  0  0  0  0  0  0  0  0  0  0
  148.0861  138.5816  153.3611 N   0  0  0  0  0  0  0  0  0  0  0  0
  148.6888  139.6376  154.1023 C   0  0  0  0  0  0  0  0  0  0  0  0
  148.1595  140.9460  154.2284 C   0  0  0  0  0  0  0  0  0  0  0  0
  148.8715  141.8923  154.9930 C   0  0  0  0  0  0  0  0  0  0  0  0
  150.0375  141.6217  155.6163 N   0  0  0  0  0  0  0  0  0  0  0  0
  150.5400  140.3755  155.4937 C   0  0  0  0  0  0  0  0  0  0  0  0
  149.9091  139.3558  154.7532 C   0  0  0  0  0  0  0  0  0  0  0  0
  150.4711  138.1254  154.6705 F   0  0  0  0  0  0  0  0  0  0  0  0
  144.4643  136.2436  152.8154 C   0  0  0  0  0  0  0  0  0  0  0  0
  143.1905  135.6258  152.2039 C   0  0  0  0  0  0  0  0  0  0  0  0
  144.1519  132.1984  150.6522 C   0  0  0  0  0  0  0  0  0  0  0  0
  144.7178  130.8744  151.1931 C   0  0  0  0  0  0  0  0  0  0  0  0
  146.0391  129.3033  153.0336 H   0  0  0  0  0  0  0  0  0  0  0  0
  147.6341  129.9988  152.7203 H   0  0  0  0  0  0  0  0  0  0  0  0
  146.7804  129.1486  151.4362 H   0  0  0  0  0  0  0  0  0  0  0  0
  145.2443  131.6493  153.7505 H   0  0  0  0  0  0  0  0  0  0  0  0
  146.8776  132.2030  153.4395 H   0  0  0  0  0  0  0  0  0  0  0  0
  145.2735  134.0535  153.3554 H   0  0  0  0  0  0  0  0  0  0  0  0
  146.0909  133.8698  151.8173 H   0  0  0  0  0  0  0  0  0  0  0  0
  143.2712  132.9144  152.4875 H   0  0  0  0  0  0  0  0  0  0  0  0
  144.5079  134.4783  149.2853 H   0  0  0  0  0  0  0  0  0  0  0  0
  143.7624  135.9855  149.6510 H   0  0  0  0  0  0  0  0  0  0  0  0
  146.2717  134.9396  151.0548 H   0  0  0  0  0  0  0  0  0  0  0  0
  146.2313  136.1802  149.8276 H   0  0  0  0  0  0  0  0  0  0  0  0
  144.8865  137.6527  151.2387 H   0  0  0  0  0  0  0  0  0  0  0  0
  147.4749  136.7297  152.0896 H   0  0  0  0  0  0  0  0  0  0  0  0
  148.7300  137.8710  153.0459 H   0  0  0  0  0  0  0  0  0  0  0  0
  147.2367  141.2518  153.7631 H   0  0  0  0  0  0  0  0  0  0  0  0
  148.4924  142.8974  155.1058 H   0  0  0  0  0  0  0  0  0  0  0  0
  151.4746  140.1853  156.0004 H   0  0  0  0  0  0  0  0  0  0  0  0
  144.9955  135.4991  153.4089 H   0  0  0  0  0  0  0  0  0  0  0  0
  144.1820  137.0348  153.5107 H   0  0  0  0  0  0  0  0  0  0  0  0
  142.6223  136.4142  151.7079 H   0  0  0  0  0  0  0  0  0  0  0  0
  142.5306  135.2600  152.9870 H   0  0  0  0  0  0  0  0  0  0  0  0
  143.1964  131.9694  150.1841 H   0  0  0  0  0  0  0  0  0  0  0  0
  144.8023  132.5741  149.8608 H   0  0  0  0  0  0  0  0  0  0  0  0
  144.8442  130.1706  150.3692 H   0  0  0  0  0  0  0  0  0  0  0  0
  144.0125  130.4209  151.8916 H   0  0  0  0  0  0  0  0  0  0  0  0
  142.6213  134.3502  150.7506 H   0  0  0  0  0  0  0  0  0  0  0  0
  146.6398  131.4971  151.1831 H   0  0  0  0  0  0  0  0  0  0  0  0
  1  2  1  0  0  0  0
  1 25  1  0  0  0  0
  1 26  1  0  0  0  0
  1 27  1  0  0  0  0
  2 24  1  0  0  0  0
  2  3  1  0  0  0  0
  2 52  1  0  0  0  0
  3  4  1  0  0  0  0
  3 28  1  0  0  0  0
  3 29  1  0  0  0  0
  4  5  1  0  0  0  0
  4 30  1  0  0  0  0
  4 31  1  0  0  0  0
  5  6  1  0  0  0  0
  5 23  1  0  0  0  0
  5 32  1  0  0  0  0
  6 22  1  0  0  0  0
  6  7  1  0  0  0  0
  6 51  1  0  0  0  0
  7  8  1  0  0  0  0
  7 33  1  0  0  0  0
  7 34  1  0  0  0  0
  8  9  1  0  0  0  0
  8 35  1  0  0  0  0
  8 36  1  0  0  0  0
  9 10  1  0  0  0  0
  9 21  1  0  0  0  0
  9 37  1  0  0  0  0
 10 11  1  0  0  0  0
 10 38  1  0  0  0  0
 11 12  2  0  0  0  0
 11 13  1  0  0  0  0
 13 14  1  0  0  0  0
 13 39  1  0  0  0  0
 14 19  1  0  0  0  0
 14 15  2  0  0  0  0
 15 16  1  0  0  0  0
 15 40  1  0  0  0  0
 16 17  2  0  0  0  0
 16 41  1  0  0  0  0
 17 18  1  0  0  0  0
 18 19  2  0  0  0  0
 18 42  1  0  0  0  0
 19 20  1  0  0  0  0
 21 22  1  0  0  0  0
 21 43  1  0  0  0  0
 21 44  1  0  0  0  0
 22 45  1  0  0  0  0
 22 46  1  0  0  0  0
 23 24  1  0  0  0  0
 23 47  1  0  0  0  0
 23 48  1  0  0  0  0
 24 49  1  0  0  0  0
 24 50  1  0  0  0  0
M  CHG  1   2   1
M  CHG  1   6   1
M  END
> <s_m_source_file>
AV-unprocessed.smi

> <i_m_source_file_index>
2253

> <i_lp_mmshare_version>
43012

> <i_f3d_flags>
0

> <s_epik_input>
W0NIM11OMVtDSDJdW0NIMl1bQ0hdKFtDSDJdW0NIMl0xKU4yW0NIMl1bQ0gyXVtDSF0oW0NIMl1bQ0gyXTIpW05IXUMoPU8pW05IXWMzW2NIXVtjSF1uW2NIXWMzRg==

> <s_epik_cmdline>
J2VwaWtfcHl0aG9uJywgJy1waCcsICc3LjAnLCAnLXRuJywgJzgnLCAnLW1hJywgJzIwMCcsICctbWV0YWxfYmluZGluZycsICctaW1hZScsICc8aW5maWxlLm1hZT4nLCAnLW9tYWUnLCAnPG91dGZpbGUubWFlPic=

> <r_epik_Ionization_Penalty>
0.183544

> <r_epik_Ionization_Penalty_Charging>
0.180787

> <r_epik_Ionization_Penalty_Neutral>
0.00275649

> <r_epik_State_Penalty>
0.153592

> <r_epik_Charging_Adjusted_Penalty>
0.334379

> <i_epik_Tot_Q>
2

> <i_epik_Tot_abs_Q>
2

> <r_epik_Metal_State_Penalty>
0.153693

> <b_epik_Metal_Only>
0

> <s_lp_Force_Field>
OPLS_2005

> <r_lp_Energy>
48.1083

> <b_lp_Chiralities_Consistent>
1

> <s_lp_Variant>
AV-unprocessed.smi:2253-3

> <Gold.Version>
5.8.1

> <Gold.Id.Protein>
6NUR|6NUR_protein|mol2

> <Gold.PLP.Fitness>
53.3540

> <Gold.PLP.PLP>
-40.7537

> <Gold.PLP.part.hbond>
-4.2794

> <Gold.PLP.part.metal>
0.0000

> <Gold.PLP.part.buried>
0.8704

> <Gold.PLP.part.nonpolar>
-39.0407

> <Gold.PLP.part.repulsive>
1.7978

> <Gold.PLP.ligand.clash>
0.7292

> <Gold.PLP.ligand.torsion>
0.3244

> <Gold.PLP.Chemscore.Hbond>
3.6435

> <Gold.PLP.Chemscore.CHOScore>
1.0000

> <Gold.PLP.Chemscore.Metal>
0.0000

> <Gold.Chemscore.Hbonds>
donor molecule, donor type, donor heavy atom, donor atom, acceptor molecule, acceptor atom, score
      L1  H     6    51       P1 10186  2.00
      L1  H    10    38       P1  7948  1.00
      L1  H    13    39       P1  7948  0.91
      L1  C    16    41       P1  8028  0.74

> <Gold.PLP.Chemscore.Internal.Correction>
0.0479

> <Gold.Rescore>
     Score         DG    S(hbond)    S(metal)    S(lipo)     H(rot)  DE(clash)    DE(int)     intcor
     20.78     -23.44       2.88        0.00      98.87       1.26       0.21       2.45       ----

> <Gold.Chemscore.Fitness>
20.7751

> <Gold.Chemscore.DG>
-23.4397

> <Gold.Chemscore.ZeroCoef>
-5.4800

> <Gold.Chemscore.Hbond>
2.8762

> <Gold.Chemscore.Metal>
0.0000

> <Gold.Chemscore.Lipo>
98.8744

> <Gold.Chemscore.Internal_Hbond>
0.0000

> <Gold.Chemscore.DEClash>
0.2143

> <Gold.Chemscore.DEInternal>
2.4503

> <Gold.Chemscore.Rot>
1.2559

> <Gold.Chemscore.Internal.Correction>
   9.000000E+99

> <Gold.Chemscore.Hbonds>
donor molecule, donor type, donor heavy atom, donor atom, acceptor molecule, acceptor atom, score
      L1  H     6    51       P1 10186  0.33
      L1  H    10    38       P1  7948  0.96
      L1  H    13    39       P1  7948  0.85

> <Gold.Chemscore.Hbond.Weighted>
-9.6065

> <Gold.Chemscore.Metal.Weighted>
-0.0000

> <Gold.Chemscore.Lipo.Weighted>
-11.5683

> <Gold.Chemscore.Internal_Hbond.Weighted>
0.0000

> <Gold.Chemscore.DEClash.Weighted>
0.2143

> <Gold.Chemscore.DEInternal.Weighted>
2.4503

> <Gold.Chemscore.Rot.Weighted>
3.2151

> <Gold.Chemscore.Internal.Correction.Weighted>
   9.000000E+99

> <Gold.Protein.RotatedTorsions>
[ 6907 6896 6895 6894 ] final -134.85 input  -60.11 | X-H torsion
[ 7974 7965 7964 7962 ] final  -17.23 input  175.53 | X-H torsion
[ 8008 7997 7996 7995 ] final -174.33 input   59.86 | X-H torsion
[ 10167 10162 10161 10158 ] final  174.72 input  -65.29 | X-H torsion
[ 10718 10713 10712 10709 ] final -166.38 input   66.30 | X-H torsion
[ 10763 10752 10751 10750 ] final -116.98 input  -60.55 | X-H torsion
[ 11005 11000 10999 10996 ] final   62.44 input  -57.11 | X-H torsion

> <Gold.Protein.ActiveResidues>
 VAL166  LYS551  ARG553  GLY616  TRP617  ASP618  TYR619  PRO620  LYS621  CYS622 
 ASP623  PHE694  ASN695  SER759  ASP760  ASP761  ALA762  ILE779  LEU786  VAL792 
 PHE793  MET794  SER795  GLU796  ALA797  LYS798  CYS799  TRP800  GLU811  SER814 

> <Gold.Protein.RotatedAtoms>
  150.9907  133.6152  159.2708 H   0  0  0  0  0  0  0  0  0  0  0  0  # atno 6907 bound_to 6896
  151.3374  135.0854  159.9369 H   0  0  0  0  0  0  0  0  0  0  0  0  # atno 6908 bound_to 6896
  152.5245  133.9525  159.7733 H   0  0  0  0  0  0  0  0  0  0  0  0  # atno 6909 bound_to 6896
  146.1951  140.3749  142.8444 H   0  0  0  0  0  0  0  0  0  0  0  0  # atno 7974 bound_to 7965
  155.9687  140.1158  157.0832 H   0  0  0  0  0  0  0  0  0  0  0  0  # atno 8008 bound_to 7997
  154.4150  140.1167  156.5344 H   0  0  0  0  0  0  0  0  0  0  0  0  # atno 8009 bound_to 7997
  155.6625  140.3473  155.4790 H   0  0  0  0  0  0  0  0  0  0  0  0  # atno 8010 bound_to 7997
  139.5151  144.3115  152.0287 H   0  0  0  0  0  0  0  0  0  0  0  0  # atno 10167 bound_to 10162
  156.6671  130.9069  151.3038 H   0  0  0  0  0  0  0  0  0  0  0  0  # atno 10718 bound_to 10713
  154.8539  135.4326  154.1906 H   0  0  0  0  0  0  0  0  0  0  0  0  # atno 10763 bound_to 10752
  153.2976  135.6966  153.7240 H   0  0  0  0  0  0  0  0  0  0  0  0  # atno 10764 bound_to 10752
  153.6383  135.3472  155.3038 H   0  0  0  0  0  0  0  0  0  0  0  0  # atno 10765 bound_to 10752
  140.0092  134.6322  155.9807 H   0  0  0  0  0  0  0  0  0  0  0  0  # atno 11005 bound_to 11000
  144.8563  140.7076  143.6136 LP  0  0  0  0  0  0  0  0  0  0  0  0  # atno 17320 bound_to 7965
  145.3670  139.1668  143.4352 LP  0  0  0  0  0  0  0  0  0  0  0  0  # atno 17321 bound_to 7965
  140.2559  144.4119  150.6204 LP  0  0  0  0  0  0  0  0  0  0  0  0  # atno 17342 bound_to 10162
  140.6192  143.2175  151.6730 LP  0  0  0  0  0  0  0  0  0  0  0  0  # atno 17343 bound_to 10162
  157.7090  130.9418  150.1025 LP  0  0  0  0  0  0  0  0  0  0  0  0  # atno 17370 bound_to 10713
  156.1967  130.3658  149.8840 LP  0  0  0  0  0  0  0  0  0  0  0  0  # atno 17371 bound_to 10713
  141.1699  133.6537  156.4613 LP  0  0  0  0  0  0  0  0  0  0  0  0  # atno 17394 bound_to 11000
  140.4585  134.6863  157.5074 LP  0  0  0  0  0  0  0  0  0  0  0  0  # atno 17395 bound_to 11000

$$$$
