AV-unprocessed.smi:35|AV-procd|sdf|247|dock10
  -GOLD-   2262016 03D 1   1.00000     0.00000
 Structure written by MMmdl.
 29 30  0  0  0  0  0  0  0  0  1 V2000
  152.4801  139.5096  158.6322 O   0  0  0  0  0  0  0  0  0  0  0  0
  151.7740  139.7223  157.6489 C   0  0  0  0  0  0  0  0  0  0  0  0
  151.5984  138.7324  156.6785 N   0  0  0  0  0  0  0  0  0  0  0  0
  150.8188  138.8555  155.5271 C   0  0  0  0  0  0  0  0  0  0  0  0
  150.7487  137.9206  154.7302 O   0  0  0  0  0  0  0  0  0  0  0  0
  150.1334  140.0765  155.3321 N   0  0  0  0  0  0  0  0  0  0  0  0
  149.2931  140.2317  154.0756 C   0  0  2  0  0  0  0  0  0  0  0  0
  148.7182  141.5053  154.0521 O   0  0  0  0  0  0  0  0  0  0  0  0
  147.3887  141.4401  154.5586 C   0  0  1  0  0  0  0  0  0  0  0  0
  146.5861  142.6998  154.1905 C   0  0  0  0  0  0  0  0  0  0  0  0
  145.2054  142.4546  154.3532 O   0  0  0  0  0  0  0  0  0  0  0  0
  146.8887  140.1275  153.9487 C   0  0  1  0  0  0  0  0  0  0  0  0
  146.4834  140.3274  152.6037 O   0  0  0  0  0  0  0  0  0  0  0  0
  148.1178  139.2263  154.0679 C   0  0  1  0  0  0  0  0  0  0  0  0
  148.1955  138.2716  153.0250 O   0  0  0  0  0  0  0  0  0  0  0  0
  150.3020  141.1003  156.2594 C   0  0  0  0  0  0  0  0  0  0  0  0
  151.0660  140.9660  157.3692 C   0  0  0  0  0  0  0  0  0  0  0  0
  151.1711  142.5403  158.5675 Br  0  0  0  0  0  0  0  0  0  0  0  0
  152.0799  137.8564  156.8204 H   0  0  0  0  0  0  0  0  0  0  0  0
  149.9922  140.1293  153.2431 H   0  0  0  0  0  0  0  0  0  0  0  0
  147.4162  141.3206  155.6435 H   0  0  0  0  0  0  0  0  0  0  0  0
  146.8908  143.5576  154.7907 H   0  0  0  0  0  0  0  0  0  0  0  0
  146.7510  142.9579  153.1439 H   0  0  0  0  0  0  0  0  0  0  0  0
  144.9517  141.7638  153.7602 H   0  0  0  0  0  0  0  0  0  0  0  0
  146.0400  139.7231  154.5017 H   0  0  0  0  0  0  0  0  0  0  0  0
  145.6848  140.8335  152.6070 H   0  0  0  0  0  0  0  0  0  0  0  0
  148.0809  138.7041  155.0253 H   0  0  0  0  0  0  0  0  0  0  0  0
  148.6166  138.6768  152.2817 H   0  0  0  0  0  0  0  0  0  0  0  0
  149.8192  142.0547  156.1143 H   0  0  0  0  0  0  0  0  0  0  0  0
  1  2  2  0  0  0  0
  2 17  1  0  0  0  0
  2  3  1  0  0  0  0
  3 19  1  0  0  0  0
  3  4  1  0  0  0  0
  4  5  2  0  0  0  0
  4  6  1  0  0  0  0
  6  7  1  0  0  0  0
  6 16  1  0  0  0  0
  7 14  1  0  0  0  0
  7  8  1  0  0  0  0
  7 20  1  0  0  0  0
  8  9  1  0  0  0  0
  9 10  1  0  0  0  0
  9 12  1  0  0  0  0
  9 21  1  0  0  0  0
 10 11  1  0  0  0  0
 10 22  1  0  0  0  0
 10 23  1  0  0  0  0
 11 24  1  0  0  0  0
 12 13  1  0  0  0  0
 12 14  1  0  0  0  0
 12 25  1  0  0  0  0
 13 26  1  0  0  0  0
 14 15  1  0  0  0  0
 14 27  1  0  0  0  0
 15 28  1  0  0  0  0
 16 17  2  0  0  0  0
 16 29  1  0  0  0  0
 17 18  1  0  0  0  0
M  END
> <s_m_source_file>
AV-unprocessed.smi

> <i_m_source_file_index>
35

> <i_lp_mmshare_version>
43012

> <i_f3d_flags>
0

> <s_epik_input>
Tz1jMVtuSF1jKD1PKW4oW2NIXWMxQnIpW0NAQEhdMk9bQ0BASF0oW0NIMl1bT0hdKVtDQEBIXShbT0hdKVtDQEhdMltPSF0=

> <s_epik_cmdline>
J2VwaWtfcHl0aG9uJywgJy1waCcsICc3LjAnLCAnLXRuJywgJzgnLCAnLW1hJywgJzIwMCcsICctbWV0YWxfYmluZGluZycsICctaW1hZScsICc8aW5maWxlLm1hZT4nLCAnLW9tYWUnLCAnPG91dGZpbGUubWFlPic=

> <r_lp_tautomer_probability>
0.999537

> <r_epik_Ionization_Penalty>
0.10812

> <r_epik_Ionization_Penalty_Charging>
0.108119

> <r_epik_Ionization_Penalty_Neutral>
4.93006e-07

> <r_epik_State_Penalty>
0.0979238

> <r_epik_Charging_Adjusted_Penalty>
0.206043

> <i_epik_Tot_Q>
0

> <i_epik_Tot_abs_Q>
0

> <r_epik_Metal_State_Penalty>
3.07911

> <b_epik_Metal_Only>
0

> <s_epik_Chemistry_Notes>
This compound contains an acetal/aminal-like group ( X-CH(R)-Y where X, Y are N, S, or O) that may be acid/base labile, releasing an aldehyde.

> <s_lp_Force_Field>
OPLS_2005

> <r_lp_Energy>
33.4515

> <b_lp_Chiralities_Consistent>
1

> <s_lp_Variant>
AV-unprocessed.smi:35-1

> <Gold.Version>
5.8.1

> <Gold.Id.Protein>
6NUR|6NUR_protein|mol2

> <Gold.PLP.Fitness>
44.5154

> <Gold.PLP.PLP>
-30.9699

> <Gold.PLP.part.hbond>
-6.1915

> <Gold.PLP.part.metal>
0.0000

> <Gold.PLP.part.buried>
0.7361

> <Gold.PLP.part.nonpolar>
-24.2585

> <Gold.PLP.part.repulsive>
0.4515

> <Gold.PLP.ligand.clash>
0.0000

> <Gold.PLP.ligand.torsion>
0.1194

> <Gold.PLP.Chemscore.Hbond>
3.5870

> <Gold.PLP.Chemscore.CHOScore>
1.0000

> <Gold.PLP.Chemscore.Metal>
0.0000

> <Gold.Chemscore.Hbonds>
donor molecule, donor type, donor heavy atom, donor atom, acceptor molecule, acceptor atom, score
      L1  H    11    24       P1 10175  0.36
      L1  H    13    26       P1 10175  0.73
      L1  H    15    28       P1  7957  1.00
      P1  H  8011  8017       L1     8  0.34
      L1  C    16    29       P1  8028  0.17

> <Gold.PLP.Chemscore.Internal.Correction>
0.0234

> <Gold.Rescore>
     Score         DG    S(hbond)    S(metal)    S(lipo)     H(rot)  DE(clash)    DE(int)     intcor
      8.95      -9.99       2.70        0.00      41.70       3.67       0.17       0.87       ----

> <Gold.Chemscore.Fitness>
8.9457

> <Gold.Chemscore.DG>
-9.9887

> <Gold.Chemscore.ZeroCoef>
-5.4800

> <Gold.Chemscore.Hbond>
2.7023

> <Gold.Chemscore.Metal>
0.0000

> <Gold.Chemscore.Lipo>
41.6959

> <Gold.Chemscore.Internal_Hbond>
0.0000

> <Gold.Chemscore.DEClash>
0.1745

> <Gold.Chemscore.DEInternal>
0.8684

> <Gold.Chemscore.Rot>
3.6701

> <Gold.Chemscore.Internal.Correction>
   9.000000E+99

> <Gold.Chemscore.Hbonds>
donor molecule, donor type, donor heavy atom, donor atom, acceptor molecule, acceptor atom, score
      L1  H    11    24       P1 10175  0.03
      L1  H    13    26       P1 10175  0.15
      L1  H    15    28       P1  7957  0.87
      P1  H  8011  8017       L1     8  0.10

> <Gold.Chemscore.Hbond.Weighted>
-9.0257

> <Gold.Chemscore.Metal.Weighted>
-0.0000

> <Gold.Chemscore.Lipo.Weighted>
-4.8784

> <Gold.Chemscore.Internal_Hbond.Weighted>
0.0000

> <Gold.Chemscore.DEClash.Weighted>
0.1745

> <Gold.Chemscore.DEInternal.Weighted>
0.8684

> <Gold.Chemscore.Rot.Weighted>
9.3955

> <Gold.Chemscore.Internal.Correction.Weighted>
   9.000000E+99

> <Gold.Protein.RotatedTorsions>
[ 6907 6896 6895 6894 ] final  -45.56 input  -60.11 | X-H torsion
[ 7974 7965 7964 7962 ] final  143.28 input  175.53 | X-H torsion
[ 8008 7997 7996 7995 ] final  151.08 input   59.86 | X-H torsion
[ 10167 10162 10161 10158 ] final  152.51 input  -65.29 | X-H torsion
[ 10718 10713 10712 10709 ] final -130.79 input   66.30 | X-H torsion
[ 10763 10752 10751 10750 ] final  104.08 input  -60.55 | X-H torsion
[ 11005 11000 10999 10996 ] final  -32.74 input  -57.11 | X-H torsion

> <Gold.Protein.ActiveResidues>
 VAL166  LYS551  ARG553  GLY616  TRP617  ASP618  TYR619  PRO620  LYS621  CYS622 
 ASP623  PHE694  ASN695  SER759  ASP760  ASP761  ALA762  ILE779  LEU786  VAL792 
 PHE793  MET794  SER795  GLU796  ALA797  LYS798  CYS799  TRP800  GLU811  SER814 

> <Gold.Protein.RotatedAtoms>
  150.9206  134.8624  159.7486 H   0  0  0  0  0  0  0  0  0  0  0  0  # atno 6907 bound_to 6896
  152.4990  134.4224  159.9495 H   0  0  0  0  0  0  0  0  0  0  0  0  # atno 6908 bound_to 6896
  151.4258  133.3645  159.2797 H   0  0  0  0  0  0  0  0  0  0  0  0  # atno 6909 bound_to 6896
  144.8934  139.5525  143.5787 H   0  0  0  0  0  0  0  0  0  0  0  0  # atno 7974 bound_to 7965
  156.2689  140.2057  156.6119 H   0  0  0  0  0  0  0  0  0  0  0  0  # atno 8008 bound_to 7997
  154.6825  140.0538  157.0304 H   0  0  0  0  0  0  0  0  0  0  0  0  # atno 8009 bound_to 7997
  155.0980  140.3203  155.4558 H   0  0  0  0  0  0  0  0  0  0  0  0  # atno 8010 bound_to 7997
  139.4832  144.5352  151.7657 H   0  0  0  0  0  0  0  0  0  0  0  0  # atno 10167 bound_to 10162
  156.2180  130.6960  151.0724 H   0  0  0  0  0  0  0  0  0  0  0  0  # atno 10718 bound_to 10713
  153.3612  135.3955  155.1719 H   0  0  0  0  0  0  0  0  0  0  0  0  # atno 10763 bound_to 10752
  154.8679  135.3680  154.5097 H   0  0  0  0  0  0  0  0  0  0  0  0  # atno 10764 bound_to 10752
  153.5557  135.7082  153.5631 H   0  0  0  0  0  0  0  0  0  0  0  0  # atno 10765 bound_to 10752
  140.9577  133.7183  156.1319 H   0  0  0  0  0  0  0  0  0  0  0  0  # atno 11005 bound_to 11000
  146.3067  139.7605  142.9051 LP  0  0  0  0  0  0  0  0  0  0  0  0  # atno 17320 bound_to 7965
  145.3743  141.0348  143.3213 LP  0  0  0  0  0  0  0  0  0  0  0  0  # atno 17321 bound_to 7965
  140.4884  144.1347  150.5945 LP  0  0  0  0  0  0  0  0  0  0  0  0  # atno 17342 bound_to 10162
  140.4199  143.2616  151.9728 LP  0  0  0  0  0  0  0  0  0  0  0  0  # atno 17343 bound_to 10162
  157.7073  131.0750  150.6624 LP  0  0  0  0  0  0  0  0  0  0  0  0  # atno 17370 bound_to 10713
  156.6686  130.4533  149.5664 LP  0  0  0  0  0  0  0  0  0  0  0  0  # atno 17371 bound_to 10713
  140.7512  134.4042  157.5541 LP  0  0  0  0  0  0  0  0  0  0  0  0  # atno 17394 bound_to 11000
  139.8867  134.8901  156.2567 LP  0  0  0  0  0  0  0  0  0  0  0  0  # atno 17395 bound_to 11000

$$$$
