AV-unprocessed.smi:2253|AV-procd|sdf|9120|dock6
  -GOLD-   2272012323D 1   1.00000     0.00000
 Structure written by MMmdl.
 51 53  0  0  0  0  0  0  0  0  2 V2000
  148.2860  145.0225  160.4962 C   0  0  0  0  0  0  0  0  0  0  0  0
  149.3503  144.7994  159.4943 N   0  3  2  0  0  0  0  0  0  0  0  0
  149.2760  143.4487  158.8845 C   0  0  0  0  0  0  0  0  0  0  0  0
  150.3487  143.2705  157.7948 C   0  0  0  0  0  0  0  0  0  0  0  0
  151.7783  143.5052  158.3472 C   0  0  2  0  0  0  0  0  0  0  0  0
  152.2286  142.4679  159.3043 N   0  0  0  0  0  0  0  0  0  0  0  0
  153.4753  142.8649  159.9806 C   0  0  0  0  0  0  0  0  0  0  0  0
  153.9015  141.8372  161.0428 C   0  0  0  0  0  0  0  0  0  0  0  0
  154.1195  140.4557  160.4154 C   0  0  0  0  0  0  0  0  0  0  0  0
  154.4082  139.4535  161.4372 N   0  0  0  0  0  0  0  0  0  0  0  0
  154.3171  138.1270  161.2639 C   0  0  0  0  0  0  0  0  0  0  0  0
  153.9799  137.6077  160.2006 O   0  0  0  0  0  0  0  0  0  0  0  0
  154.6359  137.4702  162.3931 N   0  0  0  0  0  0  0  0  0  0  0  0
  154.6477  136.0723  162.6619 C   0  0  0  0  0  0  0  0  0  0  0  0
  154.9952  135.0693  161.7232 C   0  0  0  0  0  0  0  0  0  0  0  0
  154.9642  133.7208  162.1325 C   0  0  0  0  0  0  0  0  0  0  0  0
  154.6232  133.3276  163.3776 N   0  0  0  0  0  0  0  0  0  0  0  0
  154.2983  134.2849  164.2713 C   0  0  0  0  0  0  0  0  0  0  0  0
  154.2965  135.6606  163.9655 C   0  0  0  0  0  0  0  0  0  0  0  0
  153.9595  136.5693  164.9128 F   0  0  0  0  0  0  0  0  0  0  0  0
  152.8512  140.0763  159.6471 C   0  0  0  0  0  0  0  0  0  0  0  0
  152.4620  141.1738  158.6410 C   0  0  0  0  0  0  0  0  0  0  0  0
  151.7795  144.9363  158.9438 C   0  0  0  0  0  0  0  0  0  0  0  0
  150.7004  145.1050  160.0286 C   0  0  0  0  0  0  0  0  0  0  0  0
  148.3948  144.3408  161.3408 H   0  0  0  0  0  0  0  0  0  0  0  0
  147.3016  144.8649  160.0544 H   0  0  0  0  0  0  0  0  0  0  0  0
  148.3209  146.0445  160.8746 H   0  0  0  0  0  0  0  0  0  0  0  0
  149.3938  142.6879  159.6576 H   0  0  0  0  0  0  0  0  0  0  0  0
  148.2871  143.3049  158.4474 H   0  0  0  0  0  0  0  0  0  0  0  0
  150.2350  142.3136  157.2898 H   0  0  0  0  0  0  0  0  0  0  0  0
  150.1597  144.0038  157.0094 H   0  0  0  0  0  0  0  0  0  0  0  0
  152.4715  143.4871  157.5046 H   0  0  0  0  0  0  0  0  0  0  0  0
  154.2710  143.0036  159.2468 H   0  0  0  0  0  0  0  0  0  0  0  0
  153.3569  143.8089  160.5054 H   0  0  0  0  0  0  0  0  0  0  0  0
  154.8157  142.1761  161.5314 H   0  0  0  0  0  0  0  0  0  0  0  0
  153.1384  141.7809  161.8207 H   0  0  0  0  0  0  0  0  0  0  0  0
  154.9510  140.5055  159.7096 H   0  0  0  0  0  0  0  0  0  0  0  0
  154.6916  139.7969  162.3431 H   0  0  0  0  0  0  0  0  0  0  0  0
  154.8752  138.0520  163.1827 H   0  0  0  0  0  0  0  0  0  0  0  0
  155.2870  135.2931  160.7099 H   0  0  0  0  0  0  0  0  0  0  0  0
  155.2236  132.9355  161.4381 H   0  0  0  0  0  0  0  0  0  0  0  0
  154.0314  133.9449  165.2610 H   0  0  0  0  0  0  0  0  0  0  0  0
  153.0033  139.1335  159.1201 H   0  0  0  0  0  0  0  0  0  0  0  0
  152.0252  139.9127  160.3414 H   0  0  0  0  0  0  0  0  0  0  0  0
  151.5617  140.8197  158.1455 H   0  0  0  0  0  0  0  0  0  0  0  0
  153.2323  141.2787  157.8752 H   0  0  0  0  0  0  0  0  0  0  0  0
  152.7529  145.2476  159.3159 H   0  0  0  0  0  0  0  0  0  0  0  0
  151.5681  145.6437  158.1405 H   0  0  0  0  0  0  0  0  0  0  0  0
  150.7171  146.1302  160.4001 H   0  0  0  0  0  0  0  0  0  0  0  0
  150.9164  144.4572  160.8798 H   0  0  0  0  0  0  0  0  0  0  0  0
  149.1838  145.4586  158.7473 H   0  0  0  0  0  0  0  0  0  0  0  0
  1  2  1  0  0  0  0
  1 25  1  0  0  0  0
  1 26  1  0  0  0  0
  1 27  1  0  0  0  0
  2 24  1  0  0  0  0
  2  3  1  0  0  0  0
  2 51  1  0  0  0  0
  3  4  1  0  0  0  0
  3 28  1  0  0  0  0
  3 29  1  0  0  0  0
  4  5  1  0  0  0  0
  4 30  1  0  0  0  0
  4 31  1  0  0  0  0
  5  6  1  0  0  0  0
  5 23  1  0  0  0  0
  5 32  1  0  0  0  0
  6 22  1  0  0  0  0
  6  7  1  0  0  0  0
  7  8  1  0  0  0  0
  7 33  1  0  0  0  0
  7 34  1  0  0  0  0
  8  9  1  0  0  0  0
  8 35  1  0  0  0  0
  8 36  1  0  0  0  0
  9 10  1  0  0  0  0
  9 21  1  0  0  0  0
  9 37  1  0  0  0  0
 10 11  1  0  0  0  0
 10 38  1  0  0  0  0
 11 12  2  0  0  0  0
 11 13  1  0  0  0  0
 13 14  1  0  0  0  0
 13 39  1  0  0  0  0
 14 19  1  0  0  0  0
 14 15  2  0  0  0  0
 15 16  1  0  0  0  0
 15 40  1  0  0  0  0
 16 17  2  0  0  0  0
 16 41  1  0  0  0  0
 17 18  1  0  0  0  0
 18 19  2  0  0  0  0
 18 42  1  0  0  0  0
 19 20  1  0  0  0  0
 21 22  1  0  0  0  0
 21 43  1  0  0  0  0
 21 44  1  0  0  0  0
 22 45  1  0  0  0  0
 22 46  1  0  0  0  0
 23 24  1  0  0  0  0
 23 47  1  0  0  0  0
 23 48  1  0  0  0  0
 24 49  1  0  0  0  0
 24 50  1  0  0  0  0
M  CHG  1   2   1
M  END
> <s_m_source_file>
AV-unprocessed.smi

> <i_m_source_file_index>
2253

> <i_lp_mmshare_version>
43012

> <i_f3d_flags>
0

> <s_epik_input>
W0NIM11OMVtDSDJdW0NIMl1bQ0hdKFtDSDJdW0NIMl0xKU4yW0NIMl1bQ0gyXVtDSF0oW0NIMl1bQ0gyXTIpW05IXUMoPU8pW05IXWMzW2NIXVtjSF1uW2NIXWMzRg==

> <s_epik_cmdline>
J2VwaWtfcHl0aG9uJywgJy1waCcsICc3LjAnLCAnLXRuJywgJzgnLCAnLW1hJywgJzIwMCcsICctbWV0YWxfYmluZGluZycsICctaW1hZScsICc8aW5maWxlLm1hZT4nLCAnLW9tYWUnLCAnPG91dGZpbGUubWFlPic=

> <r_epik_Ionization_Penalty>
1.01315

> <r_epik_Ionization_Penalty_Charging>
0.000974969

> <r_epik_Ionization_Penalty_Neutral>
1.01217

> <r_epik_State_Penalty>
1.10286

> <r_epik_Charging_Adjusted_Penalty>
1.10383

> <i_epik_Tot_Q>
1

> <i_epik_Tot_abs_Q>
1

> <r_epik_Metal_State_Penalty>
1.10232

> <b_epik_Metal_Only>
0

> <s_lp_Force_Field>
OPLS_2005

> <r_lp_Energy>
40.3277

> <b_lp_Chiralities_Consistent>
1

> <s_lp_Variant>
AV-unprocessed.smi:2253-6

> <Gold.Version>
5.8.1

> <Gold.Id.Protein>
6NUR|6NUR_protein|mol2

> <Gold.PLP.Fitness>
50.1216

> <Gold.PLP.PLP>
-45.9230

> <Gold.PLP.part.hbond>
-1.0000

> <Gold.PLP.part.metal>
0.0000

> <Gold.PLP.part.buried>
-3.3177

> <Gold.PLP.part.nonpolar>
-42.2881

> <Gold.PLP.part.repulsive>
0.2027

> <Gold.PLP.ligand.clash>
0.0000

> <Gold.PLP.ligand.torsion>
0.5896

> <Gold.PLP.Chemscore.Hbond>
1.7920

> <Gold.PLP.Chemscore.CHOScore>
0.0000

> <Gold.PLP.Chemscore.Metal>
0.0000

> <Gold.Chemscore.Hbonds>
donor molecule, donor type, donor heavy atom, donor atom, acceptor molecule, acceptor atom, score
      L1  H     2    51       P1  8029  1.76

> <Gold.PLP.Chemscore.Internal.Correction>
0.0018

> <Gold.Rescore>
     Score         DG    S(hbond)    S(metal)    S(lipo)     H(rot)  DE(clash)    DE(int)     intcor
     17.91     -19.72       0.80        0.00     126.26       1.24       0.10       1.72       ----

> <Gold.Chemscore.Fitness>
17.9067

> <Gold.Chemscore.DG>
-19.7239

> <Gold.Chemscore.ZeroCoef>
-5.4800

> <Gold.Chemscore.Hbond>
0.7952

> <Gold.Chemscore.Metal>
0.0000

> <Gold.Chemscore.Lipo>
126.2619

> <Gold.Chemscore.Internal_Hbond>
0.0000

> <Gold.Chemscore.DEClash>
0.1011

> <Gold.Chemscore.DEInternal>
1.7160

> <Gold.Chemscore.Rot>
1.2440

> <Gold.Chemscore.Internal.Correction>
   9.000000E+99

> <Gold.Chemscore.Hbonds>
donor molecule, donor type, donor heavy atom, donor atom, acceptor molecule, acceptor atom, score
      L1  H     2    51       P1  8029  0.82

> <Gold.Chemscore.Hbond.Weighted>
-2.6559

> <Gold.Chemscore.Metal.Weighted>
-0.0000

> <Gold.Chemscore.Lipo.Weighted>
-14.7726

> <Gold.Chemscore.Internal_Hbond.Weighted>
0.0000

> <Gold.Chemscore.DEClash.Weighted>
0.1011

> <Gold.Chemscore.DEInternal.Weighted>
1.7160

> <Gold.Chemscore.Rot.Weighted>
3.1847

> <Gold.Chemscore.Internal.Correction.Weighted>
   9.000000E+99

> <Gold.Protein.RotatedTorsions>
[ 6907 6896 6895 6894 ] final  -81.70 input  -60.11 | X-H torsion
[ 7974 7965 7964 7962 ] final  -39.09 input  175.53 | X-H torsion
[ 8008 7997 7996 7995 ] final  -60.21 input   59.86 | X-H torsion
[ 10167 10162 10161 10158 ] final   26.59 input  -65.29 | X-H torsion
[ 10718 10713 10712 10709 ] final   85.04 input   66.30 | X-H torsion
[ 10763 10752 10751 10750 ] final  -38.83 input  -60.55 | X-H torsion
[ 11005 11000 10999 10996 ] final -109.74 input  -57.11 | X-H torsion

> <Gold.Protein.ActiveResidues>
 VAL166  LYS551  ARG553  GLY616  TRP617  ASP618  TYR619  PRO620  LYS621  CYS622 
 ASP623  PHE694  ASN695  SER759  ASP760  ASP761  ALA762  ILE779  LEU786  VAL792 
 PHE793  MET794  SER795  GLU796  ALA797  LYS798  CYS799  TRP800  GLU811  SER814 

> <Gold.Protein.RotatedAtoms>
  150.6908  134.3777  159.5020 H   0  0  0  0  0  0  0  0  0  0  0  0  # atno 6907 bound_to 6896
  152.1584  134.8929  160.0552 H   0  0  0  0  0  0  0  0  0  0  0  0  # atno 6908 bound_to 6896
  152.0000  133.3787  159.4215 H   0  0  0  0  0  0  0  0  0  0  0  0  # atno 6909 bound_to 6896
  146.0428  140.6586  142.9079 H   0  0  0  0  0  0  0  0  0  0  0  0  # atno 7974 bound_to 7965
  154.4388  140.1044  156.6237 H   0  0  0  0  0  0  0  0  0  0  0  0  # atno 8008 bound_to 7997
  155.5679  140.3488  155.4489 H   0  0  0  0  0  0  0  0  0  0  0  0  # atno 8009 bound_to 7997
  156.0411  140.1282  157.0144 H   0  0  0  0  0  0  0  0  0  0  0  0  # atno 8010 bound_to 7997
  140.5010  144.0315  150.6333 H   0  0  0  0  0  0  0  0  0  0  0  0  # atno 10167 bound_to 10162
  157.6908  131.0158  150.2762 H   0  0  0  0  0  0  0  0  0  0  0  0  # atno 10718 bound_to 10713
  153.9193  135.6784  153.4748 H   0  0  0  0  0  0  0  0  0  0  0  0  # atno 10763 bound_to 10752
  153.1037  135.4816  154.8910 H   0  0  0  0  0  0  0  0  0  0  0  0  # atno 10764 bound_to 10752
  154.7486  135.3179  154.8555 H   0  0  0  0  0  0  0  0  0  0  0  0  # atno 10765 bound_to 10752
  141.0831  133.9186  157.2245 H   0  0  0  0  0  0  0  0  0  0  0  0  # atno 11005 bound_to 11000
  144.7083  140.3938  143.7101 LP  0  0  0  0  0  0  0  0  0  0  0  0  # atno 17320 bound_to 7965
  145.6856  139.1628  143.2676 LP  0  0  0  0  0  0  0  0  0  0  0  0  # atno 17321 bound_to 7965
  140.3611  143.2907  152.0382 LP  0  0  0  0  0  0  0  0  0  0  0  0  # atno 17342 bound_to 10162
  139.4872  144.6302  151.7085 LP  0  0  0  0  0  0  0  0  0  0  0  0  # atno 17343 bound_to 10162
  156.3317  130.3801  149.7485 LP  0  0  0  0  0  0  0  0  0  0  0  0  # atno 17370 bound_to 10713
  156.5023  130.8134  151.3137 LP  0  0  0  0  0  0  0  0  0  0  0  0  # atno 17371 bound_to 10713
  139.9646  135.0145  156.9353 LP  0  0  0  0  0  0  0  0  0  0  0  0  # atno 17394 bound_to 11000
  140.5424  134.0707  155.7345 LP  0  0  0  0  0  0  0  0  0  0  0  0  # atno 17395 bound_to 11000

$$$$
