AV-unprocessed.smi:1824|AV-procd|sdf|7397|dock7
  -GOLD-   22720 9 63D 1   1.00000     0.00000
 Structure written by MMmdl.
 44 46  0  0  0  0  0  0  0  0  1 V2000
  153.2074  136.9731  157.4821 C   0  0  0  0  0  0  0  0  0  0  0  0
  151.9966  137.6102  156.7922 C   0  0  1  0  0  0  0  0  0  0  0  0
  152.1595  139.1317  156.6246 C   0  0  0  0  0  0  0  0  0  0  0  0
  151.0456  139.7225  155.8938 N   0  0  0  0  0  0  0  0  0  0  0  0
  151.1968  141.1736  155.7864 C   0  0  0  0  0  0  0  0  0  0  0  0
  150.7731  141.9722  157.0378 C   0  0  2  0  0  0  0  0  0  0  0  0
  149.3667  142.1329  157.0323 O   0  0  0  0  0  0  0  0  0  0  0  0
  151.4267  143.3677  157.0798 C   0  0  0  0  0  0  0  0  0  0  0  0
  151.4412  143.9353  158.4165 N   0  0  0  0  0  0  0  0  0  0  0  0
  150.8107  145.0495  158.8358 C   0  0  0  0  0  0  0  0  0  0  0  0
  150.9614  145.3910  160.1124 N   0  0  0  0  0  0  0  0  0  0  0  0
  151.7864  144.3809  160.5765 C   0  0  0  0  0  0  0  0  0  0  0  0
  152.3244  144.1544  161.8635 C   0  0  0  0  0  0  0  0  0  0  0  0
  153.1548  143.0400  162.1053 C   0  0  0  0  0  0  0  0  0  0  0  0
  153.6626  142.8381  163.3445 F   0  0  0  0  0  0  0  0  0  0  0  0
  153.4588  142.1364  161.0652 C   0  0  0  0  0  0  0  0  0  0  0  0
  154.2568  141.0689  161.3059 F   0  0  0  0  0  0  0  0  0  0  0  0
  152.9338  142.3411  159.7749 C   0  0  0  0  0  0  0  0  0  0  0  0
  152.1063  143.4543  159.5388 C   0  0  0  0  0  0  0  0  0  0  0  0
  150.9341  139.0713  154.5905 C   0  0  0  0  0  0  0  0  0  0  0  0
  150.8011  137.5391  154.6991 C   0  0  2  0  0  0  0  0  0  0  0  0
  149.4154  137.0829  155.1866 C   0  0  0  0  0  0  0  0  0  0  0  0
  151.8505  137.0055  155.5085 O   0  0  0  0  0  0  0  0  0  0  0  0
  153.3585  137.3926  158.4769 H   0  0  0  0  0  0  0  0  0  0  0  0
  154.1198  137.1362  156.9079 H   0  0  0  0  0  0  0  0  0  0  0  0
  153.0710  135.8970  157.5925 H   0  0  0  0  0  0  0  0  0  0  0  0
  151.1111  137.4025  157.3937 H   0  0  0  0  0  0  0  0  0  0  0  0
  152.2409  139.5926  157.6097 H   0  0  0  0  0  0  0  0  0  0  0  0
  153.0950  139.3435  156.1041 H   0  0  0  0  0  0  0  0  0  0  0  0
  152.2543  141.3781  155.6135 H   0  0  0  0  0  0  0  0  0  0  0  0
  150.6834  141.5486  154.8995 H   0  0  0  0  0  0  0  0  0  0  0  0
  151.0585  141.4259  157.9380 H   0  0  0  0  0  0  0  0  0  0  0  0
  149.1452  142.8242  156.4276 H   0  0  0  0  0  0  0  0  0  0  0  0
  152.4575  143.3118  156.7276 H   0  0  0  0  0  0  0  0  0  0  0  0
  150.9056  144.0551  156.4114 H   0  0  0  0  0  0  0  0  0  0  0  0
  150.2042  145.6425  158.1664 H   0  0  0  0  0  0  0  0  0  0  0  0
  152.0979  144.8392  162.6671 H   0  0  0  0  0  0  0  0  0  0  0  0
  153.1630  141.6502  158.9772 H   0  0  0  0  0  0  0  0  0  0  0  0
  150.0774  139.4612  154.0417 H   0  0  0  0  0  0  0  0  0  0  0  0
  151.8158  139.3074  153.9926 H   0  0  0  0  0  0  0  0  0  0  0  0
  150.9407  137.1198  153.7024 H   0  0  0  0  0  0  0  0  0  0  0  0
  148.6363  137.4060  154.4959 H   0  0  0  0  0  0  0  0  0  0  0  0
  149.1702  137.4915  156.1666 H   0  0  0  0  0  0  0  0  0  0  0  0
  149.3657  135.9961  155.2553 H   0  0  0  0  0  0  0  0  0  0  0  0
  1  2  1  0  0  0  0
  1 24  1  0  0  0  0
  1 25  1  0  0  0  0
  1 26  1  0  0  0  0
  2 23  1  0  0  0  0
  2  3  1  0  0  0  0
  2 27  1  0  0  0  0
  3  4  1  0  0  0  0
  3 28  1  0  0  0  0
  3 29  1  0  0  0  0
  4  5  1  0  0  0  0
  4 20  1  0  0  0  0
  5  6  1  0  0  0  0
  5 30  1  0  0  0  0
  5 31  1  0  0  0  0
  6  7  1  0  0  0  0
  6  8  1  0  0  0  0
  6 32  1  0  0  0  0
  7 33  1  0  0  0  0
  8  9  1  0  0  0  0
  8 34  1  0  0  0  0
  8 35  1  0  0  0  0
  9 19  1  0  0  0  0
  9 10  1  0  0  0  0
 10 11  2  0  0  0  0
 10 36  1  0  0  0  0
 11 12  1  0  0  0  0
 12 19  2  0  0  0  0
 12 13  1  0  0  0  0
 13 14  2  0  0  0  0
 13 37  1  0  0  0  0
 14 15  1  0  0  0  0
 14 16  1  0  0  0  0
 16 17  1  0  0  0  0
 16 18  2  0  0  0  0
 18 19  1  0  0  0  0
 18 38  1  0  0  0  0
 20 21  1  0  0  0  0
 20 39  1  0  0  0  0
 20 40  1  0  0  0  0
 21 22  1  0  0  0  0
 21 23  1  0  0  0  0
 21 41  1  0  0  0  0
 22 42  1  0  0  0  0
 22 43  1  0  0  0  0
 22 44  1  0  0  0  0
M  END
> <s_m_source_file>
AV-unprocessed.smi

> <i_m_source_file_index>
1824

> <i_lp_mmshare_version>
43012

> <i_f3d_flags>
0

> <s_epik_input>
W0NIM11bQ0BASF0xW0NIMl1OKFtDSDJdW0NASF0oTzEpW0NIM10pW0NIMl1bQ0BIXShbT0hdKVtDSDJdbihbY0hdbjIpYyhjMjMpW2NIXWMoRiljKEYpW2NIXTM=

> <s_epik_cmdline>
J2VwaWtfcHl0aG9uJywgJy1waCcsICc3LjAnLCAnLXRuJywgJzgnLCAnLW1hJywgJzIwMCcsICctbWV0YWxfYmluZGluZycsICctaW1hZScsICc8aW5maWxlLm1hZT4nLCAnLW9tYWUnLCAnPG91dGZpbGUubWFlPic=

> <r_epik_Ionization_Penalty>
0.273778

> <r_epik_Ionization_Penalty_Charging>
0

> <r_epik_Ionization_Penalty_Neutral>
0.273778

> <r_epik_State_Penalty>
0.246794

> <r_epik_Charging_Adjusted_Penalty>
0.246794

> <i_epik_Tot_Q>
0

> <i_epik_Tot_abs_Q>
0

> <r_epik_Metal_State_Penalty>
0.238234

> <b_epik_Metal_Only>
0

> <s_lp_Force_Field>
OPLS_2005

> <r_lp_Energy>
30.6075

> <b_lp_Chiralities_Consistent>
1

> <s_lp_Variant>
AV-unprocessed.smi:1824-5

> <Gold.Version>
5.8.1

> <Gold.Id.Protein>
6NUR|6NUR_protein|mol2

> <Gold.PLP.Fitness>
61.3265

> <Gold.PLP.PLP>
-53.6759

> <Gold.PLP.part.hbond>
-2.0000

> <Gold.PLP.part.metal>
0.0000

> <Gold.PLP.part.buried>
-5.6621

> <Gold.PLP.part.nonpolar>
-45.5782

> <Gold.PLP.part.repulsive>
0.2610

> <Gold.PLP.ligand.clash>
0.0000

> <Gold.PLP.ligand.torsion>
0.6326

> <Gold.PLP.Chemscore.Hbond>
1.9675

> <Gold.PLP.Chemscore.CHOScore>
0.9944

> <Gold.PLP.Chemscore.Metal>
0.0000

> <Gold.Chemscore.Hbonds>
donor molecule, donor type, donor heavy atom, donor atom, acceptor molecule, acceptor atom, score
      L1  H     7    33       P1  8028  0.93
      P1  H 10752 10763       L1    23  0.94
      L1  C    10    36       P1  8029  1.00

> <Gold.PLP.Chemscore.Internal.Correction>
0.0303

> <Gold.Rescore>
     Score         DG    S(hbond)    S(metal)    S(lipo)     H(rot)  DE(clash)    DE(int)     intcor
     19.80     -21.20       1.88        0.00     130.13       2.26       0.68       0.72       ----

> <Gold.Chemscore.Fitness>
19.8012

> <Gold.Chemscore.DG>
-21.1998

> <Gold.Chemscore.ZeroCoef>
-5.4800

> <Gold.Chemscore.Hbond>
1.8819

> <Gold.Chemscore.Metal>
0.0000

> <Gold.Chemscore.Lipo>
130.1258

> <Gold.Chemscore.Internal_Hbond>
0.0000

> <Gold.Chemscore.DEClash>
0.6823

> <Gold.Chemscore.DEInternal>
0.7163

> <Gold.Chemscore.Rot>
2.2619

> <Gold.Chemscore.Internal.Correction>
   9.000000E+99

> <Gold.Chemscore.Hbonds>
donor molecule, donor type, donor heavy atom, donor atom, acceptor molecule, acceptor atom, score
      L1  H     7    33       P1  8028  0.88
      P1  H 10752 10763       L1    23  0.71

> <Gold.Chemscore.Hbond.Weighted>
-6.2855

> <Gold.Chemscore.Metal.Weighted>
-0.0000

> <Gold.Chemscore.Lipo.Weighted>
-15.2247

> <Gold.Chemscore.Internal_Hbond.Weighted>
0.0000

> <Gold.Chemscore.DEClash.Weighted>
0.6823

> <Gold.Chemscore.DEInternal.Weighted>
0.7163

> <Gold.Chemscore.Rot.Weighted>
5.7904

> <Gold.Chemscore.Internal.Correction.Weighted>
   9.000000E+99

> <Gold.Protein.RotatedTorsions>
[ 6907 6896 6895 6894 ] final  118.42 input  -60.11 | X-H torsion
[ 7974 7965 7964 7962 ] final  172.99 input  175.53 | X-H torsion
[ 8008 7997 7996 7995 ] final -167.05 input   59.86 | X-H torsion
[ 10167 10162 10161 10158 ] final  123.82 input  -65.29 | X-H torsion
[ 10718 10713 10712 10709 ] final    9.49 input   66.30 | X-H torsion
[ 10763 10752 10751 10750 ] final   54.50 input  -60.55 | X-H torsion
[ 11005 11000 10999 10996 ] final  -38.54 input  -57.11 | X-H torsion

> <Gold.Protein.ActiveResidues>
 VAL166  LYS551  ARG553  GLY616  TRP617  ASP618  TYR619  PRO620  LYS621  CYS622 
 ASP623  PHE694  ASN695  SER759  ASP760  ASP761  ALA762  ILE779  LEU786  VAL792 
 PHE793  MET794  SER795  GLU796  ALA797  LYS798  CYS799  TRP800  GLU811  SER814 

> <Gold.Protein.RotatedAtoms>
  152.4544  133.7693  159.6789 H   0  0  0  0  0  0  0  0  0  0  0  0  # atno 6907 bound_to 6896
  150.8466  133.7842  159.3047 H   0  0  0  0  0  0  0  0  0  0  0  0  # atno 6908 bound_to 6896
  151.5451  135.1071  159.9988 H   0  0  0  0  0  0  0  0  0  0  0  0  # atno 6909 bound_to 6896
  144.7254  139.9581  143.6434 H   0  0  0  0  0  0  0  0  0  0  0  0  # atno 7974 bound_to 7965
  155.8724  140.0995  157.1541 H   0  0  0  0  0  0  0  0  0  0  0  0  # atno 8008 bound_to 7997
  154.3998  140.1344  156.4157 H   0  0  0  0  0  0  0  0  0  0  0  0  # atno 8009 bound_to 7997
  155.7736  140.3460  155.5262 H   0  0  0  0  0  0  0  0  0  0  0  0  # atno 8010 bound_to 7997
  139.5777  144.6971  151.3610 H   0  0  0  0  0  0  0  0  0  0  0  0  # atno 10167 bound_to 10162
  156.9671  130.5955  149.5666 H   0  0  0  0  0  0  0  0  0  0  0  0  # atno 10718 bound_to 10713
  152.9805  135.5743  154.4914 H   0  0  0  0  0  0  0  0  0  0  0  0  # atno 10763 bound_to 10752
  154.4448  135.2777  155.1824 H   0  0  0  0  0  0  0  0  0  0  0  0  # atno 10764 bound_to 10752
  154.3477  135.6216  153.5681 H   0  0  0  0  0  0  0  0  0  0  0  0  # atno 10765 bound_to 10752
  141.0035  133.6943  156.2067 H   0  0  0  0  0  0  0  0  0  0  0  0  # atno 11005 bound_to 11000
  146.0658  139.3649  143.0553 LP  0  0  0  0  0  0  0  0  0  0  0  0  # atno 17320 bound_to 7965
  145.8032  140.9761  143.0987 LP  0  0  0  0  0  0  0  0  0  0  0  0  # atno 17321 bound_to 7965
  140.7058  143.7517  150.7480 LP  0  0  0  0  0  0  0  0  0  0  0  0  # atno 17342 bound_to 10162
  140.1041  143.4760  152.2408 LP  0  0  0  0  0  0  0  0  0  0  0  0  # atno 17343 bound_to 10162
  156.0298  130.5390  150.8503 LP  0  0  0  0  0  0  0  0  0  0  0  0  # atno 17370 bound_to 10713
  157.5618  131.0946  150.9548 LP  0  0  0  0  0  0  0  0  0  0  0  0  # atno 17371 bound_to 10713
  140.6850  134.4726  157.5589 LP  0  0  0  0  0  0  0  0  0  0  0  0  # atno 17394 bound_to 11000
  139.9051  134.8467  156.1738 LP  0  0  0  0  0  0  0  0  0  0  0  0  # atno 17395 bound_to 11000

$$$$
