AV-unprocessed.smi:1410|AV-procd|sdf|5732|dock1
  -GOLD-   22720 5363D 1   1.00000     0.00000
 Structure written by MMmdl.
 40 41  0  0  0  0  0  0  0  0  2 V2000
  144.4231  137.8199  153.2841 N   0  0  0  0  0  0  0  0  0  0  0  0
  145.5903  137.4126  152.7792 C   0  0  0  0  0  0  0  0  0  0  0  0
  145.9241  136.2296  152.7679 O   0  0  0  0  0  0  0  0  0  0  0  0
  146.5154  138.4878  152.1963 C   0  0  0  0  0  0  0  0  0  0  0  0
  147.0978  139.4074  153.2005 N   0  0  0  0  0  0  0  0  0  0  0  0
  147.3202  140.7180  152.5811 C   0  0  0  0  0  0  0  0  0  0  0  0
  147.7984  141.7383  153.6284 C   0  0  0  0  0  0  0  0  0  0  0  0
  149.0922  141.2680  154.3070 C   0  0  0  0  0  0  0  0  0  0  0  0
  149.4618  142.1974  155.3704 N   0  0  0  0  0  0  0  0  0  0  0  0
  150.3043  141.9233  156.3766 C   0  0  0  0  0  0  0  0  0  0  0  0
  150.8602  140.8345  156.5193 O   0  0  0  0  0  0  0  0  0  0  0  0
  150.4366  142.9771  157.2011 N   0  0  0  0  0  0  0  0  0  0  0  0
  151.2432  143.0968  158.3657 C   0  0  0  0  0  0  0  0  0  0  0  0
  151.2926  144.3588  158.9988 C   0  0  0  0  0  0  0  0  0  0  0  0
  152.0917  144.5308  160.1475 C   0  0  0  0  0  0  0  0  0  0  0  0
  152.8101  143.4935  160.6282 N   0  3  0  0  0  0  0  0  0  0  0  0
  152.8064  142.2732  160.0503 C   0  0  0  0  0  0  0  0  0  0  0  0
  152.0265  142.0410  158.8989 C   0  0  0  0  0  0  0  0  0  0  0  0
  148.8756  139.8512  154.8635 C   0  0  0  0  0  0  0  0  0  0  0  0
  148.3514  138.8973  153.7756 C   0  0  0  0  0  0  0  0  0  0  0  0
  143.7843  137.1428  153.6753 H   0  0  0  0  0  0  0  0  0  0  0  0
  144.1814  138.8001  153.2715 H   0  0  0  0  0  0  0  0  0  0  0  0
  147.3156  138.0156  151.6225 H   0  0  0  0  0  0  0  0  0  0  0  0
  145.9224  139.0618  151.4827 H   0  0  0  0  0  0  0  0  0  0  0  0
  148.0480  140.6379  151.7713 H   0  0  0  0  0  0  0  0  0  0  0  0
  146.3915  141.0800  152.1376 H   0  0  0  0  0  0  0  0  0  0  0  0
  147.9567  142.7069  153.1527 H   0  0  0  0  0  0  0  0  0  0  0  0
  147.0154  141.8841  154.3747 H   0  0  0  0  0  0  0  0  0  0  0  0
  149.8848  141.2419  153.5566 H   0  0  0  0  0  0  0  0  0  0  0  0
  149.0437  143.1156  155.3335 H   0  0  0  0  0  0  0  0  0  0  0  0
  149.8494  143.7726  156.9973 H   0  0  0  0  0  0  0  0  0  0  0  0
  150.7194  145.1898  158.6133 H   0  0  0  0  0  0  0  0  0  0  0  0
  152.1784  145.4607  160.6904 H   0  0  0  0  0  0  0  0  0  0  0  0
  153.4282  141.5243  160.5189 H   0  0  0  0  0  0  0  0  0  0  0  0
  152.0555  141.0632  158.4431 H   0  0  0  0  0  0  0  0  0  0  0  0
  149.8082  139.4606  155.2723 H   0  0  0  0  0  0  0  0  0  0  0  0
  148.1647  139.8799  155.6910 H   0  0  0  0  0  0  0  0  0  0  0  0
  148.2023  137.9185  154.2315 H   0  0  0  0  0  0  0  0  0  0  0  0
  149.1002  138.7690  152.9919 H   0  0  0  0  0  0  0  0  0  0  0  0
  153.3830  143.6390  161.4600 H   0  0  0  0  0  0  0  0  0  0  0  0
  1  2  1  0  0  0  0
  1 21  1  0  0  0  0
  1 22  1  0  0  0  0
  2  3  2  0  0  0  0
  2  4  1  0  0  0  0
  4  5  1  0  0  0  0
  4 23  1  0  0  0  0
  4 24  1  0  0  0  0
  5 20  1  0  0  0  0
  5  6  1  0  0  0  0
  6  7  1  0  0  0  0
  6 25  1  0  0  0  0
  6 26  1  0  0  0  0
  7  8  1  0  0  0  0
  7 27  1  0  0  0  0
  7 28  1  0  0  0  0
  8  9  1  0  0  0  0
  8 19  1  0  0  0  0
  8 29  1  0  0  0  0
  9 10  1  0  0  0  0
  9 30  1  0  0  0  0
 10 11  2  0  0  0  0
 10 12  1  0  0  0  0
 12 13  1  0  0  0  0
 12 31  1  0  0  0  0
 13 18  1  0  0  0  0
 13 14  2  0  0  0  0
 14 15  1  0  0  0  0
 14 32  1  0  0  0  0
 15 16  2  0  0  0  0
 15 33  1  0  0  0  0
 16 17  1  0  0  0  0
 16 40  1  0  0  0  0
 17 18  2  0  0  0  0
 17 34  1  0  0  0  0
 18 35  1  0  0  0  0
 19 20  1  0  0  0  0
 19 36  1  0  0  0  0
 19 37  1  0  0  0  0
 20 38  1  0  0  0  0
 20 39  1  0  0  0  0
M  CHG  1  16   1
M  END
> <s_m_source_file>
AV-unprocessed.smi

> <i_m_source_file_index>
1410

> <i_lp_mmshare_version>
43012

> <i_f3d_flags>
0

> <s_epik_input>
W05IMl1DKD1PKVtDSDJdTjFbQ0gyXVtDSDJdW0NIXShbQ0gyXVtDSDJdMSlbTkhdQyg9TylbTkhdYzJbY0hdW2NIXW5bY0hdW2NIXTI=

> <s_epik_cmdline>
J2VwaWtfcHl0aG9uJywgJy1waCcsICc3LjAnLCAnLXRuJywgJzgnLCAnLW1hJywgJzIwMCcsICctbWV0YWxfYmluZGluZycsICctaW1hZScsICc8aW5maWxlLm1hZT4nLCAnLW9tYWUnLCAnPG91dGZpbGUubWFlPic=

> <r_epik_Ionization_Penalty>
1.15133

> <r_epik_Ionization_Penalty_Charging>
0.995513

> <r_epik_Ionization_Penalty_Neutral>
0.155816

> <r_epik_State_Penalty>
1.22158

> <r_epik_Charging_Adjusted_Penalty>
2.2171

> <i_epik_Tot_Q>
1

> <i_epik_Tot_abs_Q>
1

> <r_epik_Metal_State_Penalty>
1.3359

> <b_epik_Metal_Only>
0

> <s_lp_Force_Field>
OPLS_2005

> <r_lp_Energy>
21.9587

> <b_lp_Chiralities_Consistent>
1

> <s_lp_Variant>
AV-unprocessed.smi:1410-4

> <Gold.Version>
5.8.1

> <Gold.Id.Protein>
6NUR|6NUR_protein|mol2

> <Gold.PLP.Fitness>
43.7773

> <Gold.PLP.PLP>
-36.4192

> <Gold.PLP.part.hbond>
-3.0000

> <Gold.PLP.part.metal>
0.0000

> <Gold.PLP.part.buried>
-3.7573

> <Gold.PLP.part.nonpolar>
-30.1212

> <Gold.PLP.part.repulsive>
0.5926

> <Gold.PLP.ligand.clash>
0.0000

> <Gold.PLP.ligand.torsion>
0.6953

> <Gold.PLP.Chemscore.Hbond>
2.9120

> <Gold.PLP.Chemscore.CHOScore>
0.0000

> <Gold.PLP.Chemscore.Metal>
0.0000

> <Gold.Chemscore.Hbonds>
donor molecule, donor type, donor heavy atom, donor atom, acceptor molecule, acceptor atom, score
      L1  H     1    22       P1 10175  1.00
      L1  H     9    30       P1  8028  1.00
      L1  H    12    31       P1  8028  0.94

> <Gold.PLP.Chemscore.Internal.Correction>
0.0125

> <Gold.Rescore>
     Score         DG    S(hbond)    S(metal)    S(lipo)     H(rot)  DE(clash)    DE(int)     intcor
     16.53     -21.99       2.90        0.00     101.24       1.96       2.36       3.11       ----

> <Gold.Chemscore.Fitness>
16.5255

> <Gold.Chemscore.DG>
-21.9896

> <Gold.Chemscore.ZeroCoef>
-5.4800

> <Gold.Chemscore.Hbond>
2.9025

> <Gold.Chemscore.Metal>
0.0000

> <Gold.Chemscore.Lipo>
101.2447

> <Gold.Chemscore.Internal_Hbond>
0.0000

> <Gold.Chemscore.DEClash>
2.3569

> <Gold.Chemscore.DEInternal>
3.1072

> <Gold.Chemscore.Rot>
1.9650

> <Gold.Chemscore.Internal.Correction>
   9.000000E+99

> <Gold.Chemscore.Hbonds>
donor molecule, donor type, donor heavy atom, donor atom, acceptor molecule, acceptor atom, score
      L1  H     1    22       P1 10175  0.98
      L1  H     9    30       P1  8028  0.99
      L1  H    12    31       P1  8028  0.87

> <Gold.Chemscore.Hbond.Weighted>
-9.6942

> <Gold.Chemscore.Metal.Weighted>
-0.0000

> <Gold.Chemscore.Lipo.Weighted>
-11.8456

> <Gold.Chemscore.Internal_Hbond.Weighted>
0.0000

> <Gold.Chemscore.DEClash.Weighted>
2.3569

> <Gold.Chemscore.DEInternal.Weighted>
3.1072

> <Gold.Chemscore.Rot.Weighted>
5.0303

> <Gold.Chemscore.Internal.Correction.Weighted>
   9.000000E+99

> <Gold.Protein.RotatedTorsions>
[ 6907 6896 6895 6894 ] final  135.22 input  -60.11 | X-H torsion
[ 7974 7965 7964 7962 ] final  166.16 input  175.53 | X-H torsion
[ 8008 7997 7996 7995 ] final   15.01 input   59.86 | X-H torsion
[ 10167 10162 10161 10158 ] final -141.98 input  -65.29 | X-H torsion
[ 10718 10713 10712 10709 ] final -164.90 input   66.30 | X-H torsion
[ 10763 10752 10751 10750 ] final -145.74 input  -60.55 | X-H torsion
[ 11005 11000 10999 10996 ] final   80.20 input  -57.11 | X-H torsion

> <Gold.Protein.ActiveResidues>
 VAL166  LYS551  ARG553  GLY616  TRP617  ASP618  TYR619  PRO620  LYS621  CYS622 
 ASP623  PHE694  ASN695  SER759  ASP760  ASP761  ALA762  ILE779  LEU786  VAL792 
 PHE793  MET794  SER795  GLU796  ALA797  LYS798  CYS799  TRP800  GLU811  SER814 

> <Gold.Protein.RotatedAtoms>
  152.3028  133.5672  159.5629 H   0  0  0  0  0  0  0  0  0  0  0  0  # atno 6907 bound_to 6896
  150.7285  134.0267  159.3728 H   0  0  0  0  0  0  0  0  0  0  0  0  # atno 6908 bound_to 6896
  151.8165  135.0665  160.0470 H   0  0  0  0  0  0  0  0  0  0  0  0  # atno 6909 bound_to 6896
  144.7473  139.8574  143.6378 H   0  0  0  0  0  0  0  0  0  0  0  0  # atno 7974 bound_to 7965
  154.8565  140.2938  155.5565 H   0  0  0  0  0  0  0  0  0  0  0  0  # atno 8008 bound_to 7997
  156.3018  140.2486  156.3465 H   0  0  0  0  0  0  0  0  0  0  0  0  # atno 8009 bound_to 7997
  154.8964  140.0393  157.1857 H   0  0  0  0  0  0  0  0  0  0  0  0  # atno 8010 bound_to 7997
  139.8132  143.7674  152.2664 H   0  0  0  0  0  0  0  0  0  0  0  0  # atno 10167 bound_to 10162
  156.6457  130.8987  151.3004 H   0  0  0  0  0  0  0  0  0  0  0  0  # atno 10718 bound_to 10713
  154.8369  135.3405  154.6552 H   0  0  0  0  0  0  0  0  0  0  0  0  # atno 10763 bound_to 10752
  153.7166  135.6960  153.5028 H   0  0  0  0  0  0  0  0  0  0  0  0  # atno 10764 bound_to 10752
  153.2412  135.4384  155.0653 H   0  0  0  0  0  0  0  0  0  0  0  0  # atno 10765 bound_to 10752
  139.9143  134.7902  156.1878 H   0  0  0  0  0  0  0  0  0  0  0  0  # atno 11005 bound_to 11000
  146.1372  139.4421  143.0131 LP  0  0  0  0  0  0  0  0  0  0  0  0  # atno 17320 bound_to 7965
  145.7073  141.0117  143.1472 LP  0  0  0  0  0  0  0  0  0  0  0  0  # atno 17321 bound_to 7965
  139.7829  144.7438  151.0062 LP  0  0  0  0  0  0  0  0  0  0  0  0  # atno 17342 bound_to 10162
  140.7817  143.4523  151.0396 LP  0  0  0  0  0  0  0  0  0  0  0  0  # atno 17343 bound_to 10162
  157.7157  130.9494  150.1247 LP  0  0  0  0  0  0  0  0  0  0  0  0  # atno 17370 bound_to 10713
  156.2124  130.3667  149.8654 LP  0  0  0  0  0  0  0  0  0  0  0  0  # atno 17371 bound_to 10713
  141.0602  133.6845  156.1938 LP  0  0  0  0  0  0  0  0  0  0  0  0  # atno 17394 bound_to 11000
  140.6672  134.4905  157.5586 LP  0  0  0  0  0  0  0  0  0  0  0  0  # atno 17395 bound_to 11000

$$$$
