AV-unprocessed.smi:1218|AV-procd|sdf|5108|dock2
  -GOLD-   22720 4163D 1   1.00000     0.00000
 Structure written by MMmdl.
 45 46  0  0  0  0  0  0  0  0  2 V2000
  146.5795  135.4781  155.2468 C   0  0  0  0  0  0  0  0  0  0  0  0
  147.8935  136.0410  154.6796 C   0  0  0  0  0  0  0  0  0  0  0  0
  149.0655  135.7120  155.6162 C   0  0  0  0  0  0  0  0  0  0  0  0
  147.8100  137.5627  154.4310 C   0  0  0  0  0  0  0  0  0  0  0  0
  148.9724  138.0963  153.6689 N   0  3  1  0  0  0  0  0  0  0  0  0
  148.6723  139.3463  152.9291 C   0  0  0  0  0  0  0  0  0  0  0  0
  148.6657  140.5625  153.8727 C   0  0  0  0  0  0  0  0  0  0  0  0
  149.9176  140.6472  154.5425 O   0  0  0  0  0  0  0  0  0  0  0  0
  150.1790  139.5079  155.3571 C   0  0  2  0  0  0  0  0  0  0  0  0
  151.5160  139.7282  156.0870 C   0  0  0  0  0  0  0  0  0  0  0  0
  151.3706  140.6031  157.2455 N   0  0  0  0  0  0  0  0  0  0  0  0
  152.0912  140.5124  158.3738 C   0  0  0  0  0  0  0  0  0  0  0  0
  152.9542  139.6515  158.5519 O   0  0  0  0  0  0  0  0  0  0  0  0
  151.7884  141.5584  159.4527 C   0  0  0  0  0  0  0  0  0  0  0  0
  151.6821  142.9020  158.9082 N   0  0  0  0  0  0  0  0  0  0  0  0
  152.0218  144.0991  159.5044 C   0  0  0  0  0  0  0  0  0  0  0  0
  151.7426  145.0927  158.6103 C   0  0  0  0  0  0  0  0  0  0  0  0
  151.2270  144.3963  157.4815 C   0  0  0  0  0  0  0  0  0  0  0  0
  151.1906  143.0860  157.6631 N   0  0  0  0  0  0  0  0  0  0  0  0
  150.2215  138.2521  154.4584 C   0  0  0  0  0  0  0  0  0  0  0  0
  146.3244  135.9463  156.1980 H   0  0  0  0  0  0  0  0  0  0  0  0
  146.6553  134.4036  155.4167 H   0  0  0  0  0  0  0  0  0  0  0  0
  145.7463  135.6385  154.5621 H   0  0  0  0  0  0  0  0  0  0  0  0
  148.0965  135.5324  153.7379 H   0  0  0  0  0  0  0  0  0  0  0  0
  148.9384  136.1808  156.5926 H   0  0  0  0  0  0  0  0  0  0  0  0
  150.0116  136.0602  155.2005 H   0  0  0  0  0  0  0  0  0  0  0  0
  149.1543  134.6365  155.7726 H   0  0  0  0  0  0  0  0  0  0  0  0
  146.8927  137.7633  153.8756 H   0  0  0  0  0  0  0  0  0  0  0  0
  147.7065  138.0955  155.3760 H   0  0  0  0  0  0  0  0  0  0  0  0
  149.4405  139.4865  152.1673 H   0  0  0  0  0  0  0  0  0  0  0  0
  147.7256  139.2623  152.3946 H   0  0  0  0  0  0  0  0  0  0  0  0
  148.5122  141.4781  153.3014 H   0  0  0  0  0  0  0  0  0  0  0  0
  147.8515  140.5011  154.5964 H   0  0  0  0  0  0  0  0  0  0  0  0
  149.3856  139.4047  156.0980 H   0  0  0  0  0  0  0  0  0  0  0  0
  151.9347  138.7725  156.4070 H   0  0  0  0  0  0  0  0  0  0  0  0
  152.2453  140.1726  155.4089 H   0  0  0  0  0  0  0  0  0  0  0  0
  150.6818  141.3387  157.1787 H   0  0  0  0  0  0  0  0  0  0  0  0
  150.8570  141.2950  159.9566 H   0  0  0  0  0  0  0  0  0  0  0  0
  152.5747  141.5575  160.2091 H   0  0  0  0  0  0  0  0  0  0  0  0
  152.4298  144.1427  160.5035 H   0  0  0  0  0  0  0  0  0  0  0  0
  151.8843  146.1551  158.7422 H   0  0  0  0  0  0  0  0  0  0  0  0
  150.8797  144.8008  156.5423 H   0  0  0  0  0  0  0  0  0  0  0  0
  150.4247  137.3625  155.0529 H   0  0  0  0  0  0  0  0  0  0  0  0
  151.0518  138.3404  153.7563 H   0  0  0  0  0  0  0  0  0  0  0  0
  149.1620  137.3988  152.9632 H   0  0  0  0  0  0  0  0  0  0  0  0
  1  2  1  0  0  0  0
  1 21  1  0  0  0  0
  1 22  1  0  0  0  0
  1 23  1  0  0  0  0
  2  3  1  0  0  0  0
  2  4  1  0  0  0  0
  2 24  1  0  0  0  0
  3 25  1  0  0  0  0
  3 26  1  0  0  0  0
  3 27  1  0  0  0  0
  4  5  1  0  0  0  0
  4 28  1  0  0  0  0
  4 29  1  0  0  0  0
  5 20  1  0  0  0  0
  5  6  1  0  0  0  0
  5 45  1  0  0  0  0
  6  7  1  0  0  0  0
  6 30  1  0  0  0  0
  6 31  1  0  0  0  0
  7  8  1  0  0  0  0
  7 32  1  0  0  0  0
  7 33  1  0  0  0  0
  8  9  1  0  0  0  0
  9 10  1  0  0  0  0
  9 20  1  0  0  0  0
  9 34  1  0  0  0  0
 10 11  1  0  0  0  0
 10 35  1  0  0  0  0
 10 36  1  0  0  0  0
 11 12  1  0  0  0  0
 11 37  1  0  0  0  0
 12 13  2  0  0  0  0
 12 14  1  0  0  0  0
 14 15  1  0  0  0  0
 14 38  1  0  0  0  0
 14 39  1  0  0  0  0
 15 19  1  0  0  0  0
 15 16  1  0  0  0  0
 16 17  2  0  0  0  0
 16 40  1  0  0  0  0
 17 18  1  0  0  0  0
 17 41  1  0  0  0  0
 18 19  2  0  0  0  0
 18 42  1  0  0  0  0
 20 43  1  0  0  0  0
 20 44  1  0  0  0  0
M  CHG  1   5   1
M  END
> <s_m_source_file>
AV-unprocessed.smi

> <i_m_source_file_index>
1218

> <i_lp_mmshare_version>
43012

> <i_f3d_flags>
0

> <s_epik_input>
W0NIM11bQ0hdKFtDSDNdKVtDSDJdTjFbQ0gyXVtDSDJdT1tDQEhdKFtDSDJdMSlbQ0gyXVtOSF1DKD1PKVtDSDJdbjJbY0hdW2NIXVtjSF1uMg==

> <s_epik_cmdline>
J2VwaWtfcHl0aG9uJywgJy1waCcsICc3LjAnLCAnLXRuJywgJzgnLCAnLW1hJywgJzIwMCcsICctbWV0YWxfYmluZGluZycsICctaW1hZScsICc8aW5maWxlLm1hZT4nLCAnLW9tYWUnLCAnPG91dGZpbGUubWFlPic=

> <r_lp_tautomer_probability>
1

> <r_epik_Ionization_Penalty>
0.0995066

> <r_epik_Ionization_Penalty_Charging>
0.0994921

> <r_epik_Ionization_Penalty_Neutral>
1.44634e-05

> <r_epik_State_Penalty>
0.0895432

> <r_epik_Charging_Adjusted_Penalty>
0.189035

> <i_epik_Tot_Q>
1

> <i_epik_Tot_abs_Q>
1

> <r_epik_Metal_State_Penalty>
0.0895432

> <b_epik_Metal_Only>
0

> <s_lp_Force_Field>
OPLS_2005

> <r_lp_Energy>
21.49

> <b_lp_Chiralities_Consistent>
1

> <s_lp_Variant>
AV-unprocessed.smi:1218-3

> <Gold.Version>
5.8.1

> <Gold.Id.Protein>
6NUR|6NUR_protein|mol2

> <Gold.PLP.Fitness>
47.7350

> <Gold.PLP.PLP>
-35.2091

> <Gold.PLP.part.hbond>
-3.0000

> <Gold.PLP.part.metal>
0.0000

> <Gold.PLP.part.buried>
-0.3939

> <Gold.PLP.part.nonpolar>
-33.1966

> <Gold.PLP.part.repulsive>
0.2695

> <Gold.PLP.ligand.clash>
0.0000

> <Gold.PLP.ligand.torsion>
1.1423

> <Gold.PLP.Chemscore.Hbond>
3.8960

> <Gold.PLP.Chemscore.CHOScore>
1.0000

> <Gold.PLP.Chemscore.Metal>
0.0000

> <Gold.Chemscore.Hbonds>
donor molecule, donor type, donor heavy atom, donor atom, acceptor molecule, acceptor atom, score
      L1  H     5    45       P1  7948  2.00
      P1  H  7989  7998       L1     8  0.78
      P1  H  7997  8009       L1    13  0.41
      L1  C    18    42       P1  8028  1.00

> <Gold.PLP.Chemscore.Internal.Correction>
0.1225

> <Gold.Rescore>
     Score         DG    S(hbond)    S(metal)    S(lipo)     H(rot)  DE(clash)    DE(int)     intcor
     14.33     -18.89       2.34        0.00      90.66       1.96       1.56       3.01       ----

> <Gold.Chemscore.Fitness>
14.3256

> <Gold.Chemscore.DG>
-18.8911

> <Gold.Chemscore.ZeroCoef>
-5.4800

> <Gold.Chemscore.Hbond>
2.3437

> <Gold.Chemscore.Metal>
0.0000

> <Gold.Chemscore.Lipo>
90.6564

> <Gold.Chemscore.Internal_Hbond>
0.0000

> <Gold.Chemscore.DEClash>
1.5601

> <Gold.Chemscore.DEInternal>
3.0054

> <Gold.Chemscore.Rot>
1.9624

> <Gold.Chemscore.Internal.Correction>
   9.000000E+99

> <Gold.Chemscore.Hbonds>
donor molecule, donor type, donor heavy atom, donor atom, acceptor molecule, acceptor atom, score
      L1  H     5    45       P1  7948  0.97
      P1  H  7989  7998       L1     8  0.32
      P1  H  7997  8009       L1    13  0.26

> <Gold.Chemscore.Hbond.Weighted>
-7.8280

> <Gold.Chemscore.Metal.Weighted>
-0.0000

> <Gold.Chemscore.Lipo.Weighted>
-10.6068

> <Gold.Chemscore.Internal_Hbond.Weighted>
0.0000

> <Gold.Chemscore.DEClash.Weighted>
1.5601

> <Gold.Chemscore.DEInternal.Weighted>
3.0054

> <Gold.Chemscore.Rot.Weighted>
5.0237

> <Gold.Chemscore.Internal.Correction.Weighted>
   9.000000E+99

> <Gold.Protein.RotatedTorsions>
[ 6907 6896 6895 6894 ] final -138.11 input  -60.11 | X-H torsion
[ 7974 7965 7964 7962 ] final   79.34 input  175.53 | X-H torsion
[ 8008 7997 7996 7995 ] final  149.40 input   59.86 | X-H torsion
[ 10167 10162 10161 10158 ] final  -20.94 input  -65.29 | X-H torsion
[ 10718 10713 10712 10709 ] final   22.04 input   66.30 | X-H torsion
[ 10763 10752 10751 10750 ] final  173.70 input  -60.55 | X-H torsion
[ 11005 11000 10999 10996 ] final -108.22 input  -57.11 | X-H torsion

> <Gold.Protein.ActiveResidues>
 VAL166  LYS551  ARG553  GLY616  TRP617  ASP618  TYR619  PRO620  LYS621  CYS622 
 ASP623  PHE694  ASN695  SER759  ASP760  ASP761  ALA762  ILE779  LEU786  VAL792 
 PHE793  MET794  SER795  GLU796  ALA797  LYS798  CYS799  TRP800  GLU811  SER814 

> <Gold.Protein.RotatedAtoms>
  151.0309  133.5791  159.2660 H   0  0  0  0  0  0  0  0  0  0  0  0  # atno 6907 bound_to 6896
  151.2873  135.0731  159.9201 H   0  0  0  0  0  0  0  0  0  0  0  0  # atno 6908 bound_to 6896
  152.5344  134.0013  159.7950 H   0  0  0  0  0  0  0  0  0  0  0  0  # atno 6909 bound_to 6896
  145.6655  139.2482  143.1898 H   0  0  0  0  0  0  0  0  0  0  0  0  # atno 7974 bound_to 7965
  156.2756  140.2103  156.5852 H   0  0  0  0  0  0  0  0  0  0  0  0  # atno 8008 bound_to 7997
  154.7026  140.0519  157.0496 H   0  0  0  0  0  0  0  0  0  0  0  0  # atno 8009 bound_to 7997
  155.0714  140.3177  155.4632 H   0  0  0  0  0  0  0  0  0  0  0  0  # atno 8010 bound_to 7997
  140.7279  143.4674  151.0294 H   0  0  0  0  0  0  0  0  0  0  0  0  # atno 10167 bound_to 10162
  157.1468  130.6657  149.5998 H   0  0  0  0  0  0  0  0  0  0  0  0  # atno 10718 bound_to 10713
  154.4437  135.2763  155.1829 H   0  0  0  0  0  0  0  0  0  0  0  0  # atno 10763 bound_to 10752
  154.3685  135.6114  153.5731 H   0  0  0  0  0  0  0  0  0  0  0  0  # atno 10764 bound_to 10752
  152.9842  135.5851  154.4769 H   0  0  0  0  0  0  0  0  0  0  0  0  # atno 10765 bound_to 10752
  141.0913  133.9049  157.2068 H   0  0  0  0  0  0  0  0  0  0  0  0  # atno 11005 bound_to 11000
  146.1089  140.7452  142.9513 LP  0  0  0  0  0  0  0  0  0  0  0  0  # atno 17320 bound_to 7965
  144.7074  140.3907  143.7107 LP  0  0  0  0  0  0  0  0  0  0  0  0  # atno 17321 bound_to 7965
  139.8364  143.7622  152.3180 LP  0  0  0  0  0  0  0  0  0  0  0  0  # atno 17342 bound_to 10162
  139.7756  144.7462  151.0162 LP  0  0  0  0  0  0  0  0  0  0  0  0  # atno 17343 bound_to 10162
  155.9778  130.4758  150.6616 LP  0  0  0  0  0  0  0  0  0  0  0  0  # atno 17370 bound_to 10713
  157.4257  131.0842  151.1088 LP  0  0  0  0  0  0  0  0  0  0  0  0  # atno 17371 bound_to 10713
  139.9740  135.0119  156.9584 LP  0  0  0  0  0  0  0  0  0  0  0  0  # atno 17394 bound_to 11000
  140.5245  134.0875  155.7300 LP  0  0  0  0  0  0  0  0  0  0  0  0  # atno 17395 bound_to 11000

$$$$
