AV-unprocessed.smi:3154|AV-procd|sdf|12024|dock7
  -GOLD-   2272017443D 1   1.00000     0.00000
 Structure written by MMmdl.
 34 35  0  0  0  0  0  0  0  0  1 V2000
  151.8985  139.6989  158.4810 C   0  0  0  0  0  0  0  0  0  0  0  0
  151.4054  141.1303  158.7560 C   0  0  1  0  0  0  0  0  0  0  0  0
  152.5579  142.1637  158.7894 C   0  0  0  0  0  0  0  0  0  0  0  0
  152.0893  143.5320  158.9197 N   0  0  0  0  0  0  0  0  0  0  0  0
  152.3339  144.4294  159.9379 C   0  0  0  0  0  0  0  0  0  0  0  0
  151.6927  145.5918  159.6181 C   0  0  0  0  0  0  0  0  0  0  0  0
  151.0813  145.3065  158.3653 C   0  0  0  0  0  0  0  0  0  0  0  0
  151.3244  144.0747  157.9476 N   0  0  0  0  0  0  0  0  0  0  0  0
  150.4375  141.4597  157.7141 N   0  0  0  0  0  0  0  0  0  0  0  0
  151.0560  141.6198  156.3917 C   0  0  0  0  0  0  0  0  0  0  0  0
  150.1118  141.1604  155.2834 C   0  0  0  0  0  0  0  0  0  0  0  0
  150.2887  140.0727  154.7352 O   0  0  0  0  0  0  0  0  0  0  0  0
  149.1136  141.9993  154.9684 N   0  0  0  0  0  0  0  0  0  0  0  0
  148.1193  141.7686  153.9713 C   0  0  0  0  0  0  0  0  0  0  0  0
  146.6793  142.0582  154.3349 C   0  0  0  0  0  0  0  0  0  0  0  0
  147.1442  140.6342  154.2019 C   0  0  0  0  0  0  0  0  0  0  0  0
  152.5608  139.3455  159.2716 H   0  0  0  0  0  0  0  0  0  0  0  0
  152.4455  139.6407  157.5392 H   0  0  0  0  0  0  0  0  0  0  0  0
  151.0650  138.9977  158.4265 H   0  0  0  0  0  0  0  0  0  0  0  0
  150.8965  141.1200  159.7213 H   0  0  0  0  0  0  0  0  0  0  0  0
  153.2270  141.9520  159.6247 H   0  0  0  0  0  0  0  0  0  0  0  0
  153.1636  142.1103  157.8850 H   0  0  0  0  0  0  0  0  0  0  0  0
  152.9345  144.1683  160.7967 H   0  0  0  0  0  0  0  0  0  0  0  0
  151.6659  146.5073  160.1905 H   0  0  0  0  0  0  0  0  0  0  0  0
  150.4736  145.9538  157.7503 H   0  0  0  0  0  0  0  0  0  0  0  0
  149.9574  142.3056  157.9854 H   0  0  0  0  0  0  0  0  0  0  0  0
  151.3234  142.6650  156.2273 H   0  0  0  0  0  0  0  0  0  0  0  0
  151.9742  141.0369  156.3249 H   0  0  0  0  0  0  0  0  0  0  0  0
  149.0538  142.8701  155.4761 H   0  0  0  0  0  0  0  0  0  0  0  0
  148.3970  141.9563  152.9351 H   0  0  0  0  0  0  0  0  0  0  0  0
  146.4707  142.4267  155.3376 H   0  0  0  0  0  0  0  0  0  0  0  0
  146.0343  142.4512  153.5517 H   0  0  0  0  0  0  0  0  0  0  0  0
  146.8094  140.0758  153.3300 H   0  0  0  0  0  0  0  0  0  0  0  0
  147.2464  140.0521  155.1159 H   0  0  0  0  0  0  0  0  0  0  0  0
  1  2  1  0  0  0  0
  1 17  1  0  0  0  0
  1 18  1  0  0  0  0
  1 19  1  0  0  0  0
  2  3  1  0  0  0  0
  2  9  1  0  0  0  0
  2 20  1  0  0  0  0
  3  4  1  0  0  0  0
  3 21  1  0  0  0  0
  3 22  1  0  0  0  0
  4  8  1  0  0  0  0
  4  5  1  0  0  0  0
  5  6  2  0  0  0  0
  5 23  1  0  0  0  0
  6  7  1  0  0  0  0
  6 24  1  0  0  0  0
  7  8  2  0  0  0  0
  7 25  1  0  0  0  0
  9 10  1  0  0  0  0
  9 26  1  0  0  0  0
 10 11  1  0  0  0  0
 10 27  1  0  0  0  0
 10 28  1  0  0  0  0
 11 12  2  0  0  0  0
 11 13  1  0  0  0  0
 13 14  1  0  0  0  0
 13 29  1  0  0  0  0
 14 16  1  0  0  0  0
 14 15  1  0  0  0  0
 14 30  1  0  0  0  0
 15 16  1  0  0  0  0
 15 31  1  0  0  0  0
 15 32  1  0  0  0  0
 16 33  1  0  0  0  0
 16 34  1  0  0  0  0
M  END
> <s_m_source_file>
AV-unprocessed.smi

> <i_m_source_file_index>
3154

> <i_lp_mmshare_version>
43012

> <i_f3d_flags>
0

> <s_epik_input>
bjFbY0hdW2NIXVtjSF1uMVtDSDJdW0NAQEhdKFtDSDNdKVtOSF1bQ0gyXUMoPU8pW05IXVtDSF0yW0NIMl1bQ0gyXTI=

> <s_epik_cmdline>
J2VwaWtfcHl0aG9uJywgJy1waCcsICc3LjAnLCAnLXRuJywgJzgnLCAnLW1hJywgJzIwMCcsICctbWV0YWxfYmluZGluZycsICctaW1hZScsICc8aW5maWxlLm1hZT4nLCAnLW9tYWUnLCAnPG91dGZpbGUubWFlPic=

> <r_lp_tautomer_probability>
1

> <r_epik_Ionization_Penalty>
1.00229

> <r_epik_Ionization_Penalty_Charging>
0

> <r_epik_Ionization_Penalty_Neutral>
1.00229

> <r_epik_State_Penalty>
1.0509

> <r_epik_Charging_Adjusted_Penalty>
1.0509

> <i_epik_Tot_Q>
0

> <i_epik_Tot_abs_Q>
0

> <r_epik_Metal_State_Penalty>
1.05084

> <b_epik_Metal_Only>
0

> <s_lp_Force_Field>
OPLS_2005

> <r_lp_Energy>
18.1237

> <b_lp_Chiralities_Consistent>
1

> <s_lp_Variant>
AV-unprocessed.smi:3154-4

> <Gold.Version>
5.8.1

> <Gold.Id.Protein>
6NUR|6NUR_protein|mol2

> <Gold.PLP.Fitness>
46.1615

> <Gold.PLP.PLP>
-38.6018

> <Gold.PLP.part.hbond>
-2.0000

> <Gold.PLP.part.metal>
0.0000

> <Gold.PLP.part.buried>
-4.7255

> <Gold.PLP.part.nonpolar>
-30.4962

> <Gold.PLP.part.repulsive>
0.4286

> <Gold.PLP.ligand.clash>
0.0000

> <Gold.PLP.ligand.torsion>
0.5944

> <Gold.PLP.Chemscore.Hbond>
1.8960

> <Gold.PLP.Chemscore.CHOScore>
1.0000

> <Gold.PLP.Chemscore.Metal>
0.0000

> <Gold.Chemscore.Hbonds>
donor molecule, donor type, donor heavy atom, donor atom, acceptor molecule, acceptor atom, score
      L1  H    13    29       P1  8028  1.00
      P1  H  7989  7998       L1    12  0.55
      L1  C     7    25       P1  8028  0.01
      L1  C     7    25       P1  8029  0.54

> <Gold.PLP.Chemscore.Internal.Correction>
0.0606

> <Gold.Rescore>
     Score         DG    S(hbond)    S(metal)    S(lipo)     H(rot)  DE(clash)    DE(int)     intcor
     13.68     -14.37       1.37        0.00      83.21       2.12       0.16       0.52       ----

> <Gold.Chemscore.Fitness>
13.6823

> <Gold.Chemscore.DG>
-14.3664

> <Gold.Chemscore.ZeroCoef>
-5.4800

> <Gold.Chemscore.Hbond>
1.3728

> <Gold.Chemscore.Metal>
0.0000

> <Gold.Chemscore.Lipo>
83.2058

> <Gold.Chemscore.Internal_Hbond>
0.0000

> <Gold.Chemscore.DEClash>
0.1628

> <Gold.Chemscore.DEInternal>
0.5213

> <Gold.Chemscore.Rot>
2.1225

> <Gold.Chemscore.Internal.Correction>
   9.000000E+99

> <Gold.Chemscore.Hbonds>
donor molecule, donor type, donor heavy atom, donor atom, acceptor molecule, acceptor atom, score
      L1  H    13    29       P1  8028  0.98
      P1  H  7989  7998       L1    12  0.03

> <Gold.Chemscore.Hbond.Weighted>
-4.5850

> <Gold.Chemscore.Metal.Weighted>
-0.0000

> <Gold.Chemscore.Lipo.Weighted>
-9.7351

> <Gold.Chemscore.Internal_Hbond.Weighted>
0.0000

> <Gold.Chemscore.DEClash.Weighted>
0.1628

> <Gold.Chemscore.DEInternal.Weighted>
0.5213

> <Gold.Chemscore.Rot.Weighted>
5.4337

> <Gold.Chemscore.Internal.Correction.Weighted>
   9.000000E+99

> <Gold.Protein.RotatedTorsions>
[ 6907 6896 6895 6894 ] final -115.29 input  -60.11 | X-H torsion
[ 7974 7965 7964 7962 ] final -147.41 input  175.53 | X-H torsion
[ 8008 7997 7996 7995 ] final -126.20 input   59.86 | X-H torsion
[ 10167 10162 10161 10158 ] final -140.66 input  -65.29 | X-H torsion
[ 10718 10713 10712 10709 ] final   98.12 input   66.30 | X-H torsion
[ 10763 10752 10751 10750 ] final  -85.46 input  -60.55 | X-H torsion
[ 11005 11000 10999 10996 ] final  -50.72 input  -57.11 | X-H torsion

> <Gold.Protein.ActiveResidues>
 VAL166  LYS551  ARG553  GLY616  TRP617  ASP618  TYR619  PRO620  LYS621  CYS622 
 ASP623  PHE694  ASN695  SER759  ASP760  ASP761  ALA762  ILE779  LEU786  VAL792 
 PHE793  MET794  SER795  GLU796  ALA797  LYS798  CYS799  TRP800  GLU811  SER814 

> <Gold.Protein.RotatedAtoms>
  150.7967  133.8679  159.3249 H   0  0  0  0  0  0  0  0  0  0  0  0  # atno 6907 bound_to 6896
  151.6502  135.1000  160.0168 H   0  0  0  0  0  0  0  0  0  0  0  0  # atno 6908 bound_to 6896
  152.4049  133.6835  159.6383 H   0  0  0  0  0  0  0  0  0  0  0  0  # atno 6909 bound_to 6896
  144.8095  140.5331  143.5652 H   0  0  0  0  0  0  0  0  0  0  0  0  # atno 7974 bound_to 7965
  155.2258  140.0423  157.2955 H   0  0  0  0  0  0  0  0  0  0  0  0  # atno 8008 bound_to 7997
  154.5920  140.2429  155.7878 H   0  0  0  0  0  0  0  0  0  0  0  0  # atno 8009 bound_to 7997
  156.2265  140.2952  156.0090 H   0  0  0  0  0  0  0  0  0  0  0  0  # atno 8010 bound_to 7997
  139.8260  143.7511  152.2666 H   0  0  0  0  0  0  0  0  0  0  0  0  # atno 10167 bound_to 10162
  157.6901  131.0630  150.4748 H   0  0  0  0  0  0  0  0  0  0  0  0  # atno 10718 bound_to 10713
  154.6113  135.5484  153.7476 H   0  0  0  0  0  0  0  0  0  0  0  0  # atno 10763 bound_to 10752
  153.0196  135.6390  154.1574 H   0  0  0  0  0  0  0  0  0  0  0  0  # atno 10764 bound_to 10752
  154.1512  135.2902  155.3115 H   0  0  0  0  0  0  0  0  0  0  0  0  # atno 10765 bound_to 10752
  141.0831  133.6648  156.3772 H   0  0  0  0  0  0  0  0  0  0  0  0  # atno 11005 bound_to 11000
  145.5357  139.1475  143.3475 LP  0  0  0  0  0  0  0  0  0  0  0  0  # atno 17320 bound_to 7965
  146.2392  140.5497  142.8941 LP  0  0  0  0  0  0  0  0  0  0  0  0  # atno 17321 bound_to 7965
  139.7703  144.7478  151.0234 LP  0  0  0  0  0  0  0  0  0  0  0  0  # atno 17342 bound_to 10162
  140.7810  143.4652  151.0222 LP  0  0  0  0  0  0  0  0  0  0  0  0  # atno 17343 bound_to 10162
  156.5084  130.4133  149.6314 LP  0  0  0  0  0  0  0  0  0  0  0  0  # atno 17370 bound_to 10713
  156.3263  130.7308  151.2229 LP  0  0  0  0  0  0  0  0  0  0  0  0  # atno 17371 bound_to 10713
  140.5423  134.6108  157.5383 LP  0  0  0  0  0  0  0  0  0  0  0  0  # atno 17394 bound_to 11000
  139.9647  134.7393  156.0163 LP  0  0  0  0  0  0  0  0  0  0  0  0  # atno 17395 bound_to 11000

$$$$
