AV-unprocessed.smi:1697|AV-procd|sdf|6803|dock7
  -GOLD-   22720 7573D 1   1.00000     0.00000
 Structure written by MMmdl.
 54 56  0  0  0  0  0  0  0  0  2 V2000
  150.7172  141.7880  156.3601 C   0  0  0  0  0  0  0  0  0  0  0  0
  150.9258  140.3961  155.7593 C   0  0  0  0  0  0  0  0  0  0  0  0
  150.3084  140.3557  154.4814 O   0  0  0  0  0  0  0  0  0  0  0  0
  149.0095  139.7785  154.4681 C   0  0  2  0  0  0  0  0  0  0  0  0
  149.0662  138.2645  154.7456 C   0  0  0  0  0  0  0  0  0  0  0  0
  147.6855  137.6130  154.5585 C   0  0  0  0  0  0  0  0  0  0  0  0
  147.1489  137.8749  153.1964 N   0  3  1  0  0  0  0  0  0  0  0  0
  145.8824  137.1523  152.9110 C   0  0  0  0  0  0  0  0  0  0  0  0
  145.9409  136.3705  151.5841 C   0  0  2  0  0  0  0  0  0  0  0  0
  146.3472  137.2517  150.5540 O   0  0  0  0  0  0  0  0  0  0  0  0
  144.5774  135.7537  151.2170 C   0  0  0  0  0  0  0  0  0  0  0  0
  144.6637  134.3224  150.9911 N   0  0  0  0  0  0  0  0  0  0  0  0
  143.9929  133.5981  150.0744 C   0  0  0  0  0  0  0  0  0  0  0  0
  144.2340  132.2909  150.0366 N   0  0  0  0  0  0  0  0  0  0  0  0
  145.1674  132.1497  151.0491 C   0  0  0  0  0  0  0  0  0  0  0  0
  145.8371  131.0019  151.5261 C   0  0  0  0  0  0  0  0  0  0  0  0
  146.7654  131.0932  152.5875 C   0  0  0  0  0  0  0  0  0  0  0  0
  147.4651  129.8337  153.0671 C   0  0  0  0  0  0  0  0  0  0  0  0
  147.0344  132.3482  153.1907 C   0  0  0  0  0  0  0  0  0  0  0  0
  148.0248  132.4695  154.3351 C   0  0  0  0  0  0  0  0  0  0  0  0
  146.3758  133.5054  152.7251 C   0  0  0  0  0  0  0  0  0  0  0  0
  145.4556  133.4014  151.6673 C   0  0  0  0  0  0  0  0  0  0  0  0
  147.0466  139.3314  152.9240 C   0  0  0  0  0  0  0  0  0  0  0  0
  148.4146  140.0167  153.0725 C   0  0  0  0  0  0  0  0  0  0  0  0
  151.1746  141.8588  157.3472 H   0  0  0  0  0  0  0  0  0  0  0  0
  149.6559  142.0136  156.4659 H   0  0  0  0  0  0  0  0  0  0  0  0
  151.1628  142.5577  155.7291 H   0  0  0  0  0  0  0  0  0  0  0  0
  151.9927  140.1869  155.6826 H   0  0  0  0  0  0  0  0  0  0  0  0
  150.4868  139.6423  156.4145 H   0  0  0  0  0  0  0  0  0  0  0  0
  148.3726  140.2708  155.2056 H   0  0  0  0  0  0  0  0  0  0  0  0
  149.7849  137.7939  154.0731 H   0  0  0  0  0  0  0  0  0  0  0  0
  149.4188  138.0724  155.7586 H   0  0  0  0  0  0  0  0  0  0  0  0
  147.7748  136.5415  154.7332 H   0  0  0  0  0  0  0  0  0  0  0  0
  146.9881  137.9957  155.3055 H   0  0  0  0  0  0  0  0  0  0  0  0
  145.6546  136.4836  153.7425 H   0  0  0  0  0  0  0  0  0  0  0  0
  145.0533  137.8598  152.8572 H   0  0  0  0  0  0  0  0  0  0  0  0
  146.6755  135.5686  151.6511 H   0  0  0  0  0  0  0  0  0  0  0  0
  145.6486  137.8664  150.3864 H   0  0  0  0  0  0  0  0  0  0  0  0
  143.8576  135.9264  152.0182 H   0  0  0  0  0  0  0  0  0  0  0  0
  144.1678  136.2263  150.3228 H   0  0  0  0  0  0  0  0  0  0  0  0
  143.2918  134.0567  149.3925 H   0  0  0  0  0  0  0  0  0  0  0  0
  145.6305  130.0460  151.0675 H   0  0  0  0  0  0  0  0  0  0  0  0
  147.2320  129.6426  154.1148 H   0  0  0  0  0  0  0  0  0  0  0  0
  148.5458  129.9344  152.9644 H   0  0  0  0  0  0  0  0  0  0  0  0
  147.1548  128.9615  152.4907 H   0  0  0  0  0  0  0  0  0  0  0  0
  148.0905  133.4957  154.6974 H   0  0  0  0  0  0  0  0  0  0  0  0
  149.0202  132.1633  154.0123 H   0  0  0  0  0  0  0  0  0  0  0  0
  147.7224  131.8388  155.1715 H   0  0  0  0  0  0  0  0  0  0  0  0
  146.5720  134.4675  153.1746 H   0  0  0  0  0  0  0  0  0  0  0  0
  146.6779  139.4920  151.9101 H   0  0  0  0  0  0  0  0  0  0  0  0
  146.3207  139.7824  153.6026 H   0  0  0  0  0  0  0  0  0  0  0  0
  148.3158  141.0870  152.8883 H   0  0  0  0  0  0  0  0  0  0  0  0
  149.0964  139.6343  152.3112 H   0  0  0  0  0  0  0  0  0  0  0  0
  147.8271  137.5159  152.5389 H   0  0  0  0  0  0  0  0  0  0  0  0
  1  2  1  0  0  0  0
  1 25  1  0  0  0  0
  1 26  1  0  0  0  0
  1 27  1  0  0  0  0
  2  3  1  0  0  0  0
  2 28  1  0  0  0  0
  2 29  1  0  0  0  0
  3  4  1  0  0  0  0
  4 24  1  0  0  0  0
  4  5  1  0  0  0  0
  4 30  1  0  0  0  0
  5  6  1  0  0  0  0
  5 31  1  0  0  0  0
  5 32  1  0  0  0  0
  6  7  1  0  0  0  0
  6 33  1  0  0  0  0
  6 34  1  0  0  0  0
  7  8  1  0  0  0  0
  7 23  1  0  0  0  0
  7 54  1  0  0  0  0
  8  9  1  0  0  0  0
  8 35  1  0  0  0  0
  8 36  1  0  0  0  0
  9 10  1  0  0  0  0
  9 11  1  0  0  0  0
  9 37  1  0  0  0  0
 10 38  1  0  0  0  0
 11 12  1  0  0  0  0
 11 39  1  0  0  0  0
 11 40  1  0  0  0  0
 12 22  1  0  0  0  0
 12 13  1  0  0  0  0
 13 14  2  0  0  0  0
 13 41  1  0  0  0  0
 14 15  1  0  0  0  0
 15 22  2  0  0  0  0
 15 16  1  0  0  0  0
 16 17  2  0  0  0  0
 16 42  1  0  0  0  0
 17 18  1  0  0  0  0
 17 19  1  0  0  0  0
 18 43  1  0  0  0  0
 18 44  1  0  0  0  0
 18 45  1  0  0  0  0
 19 20  1  0  0  0  0
 19 21  2  0  0  0  0
 20 46  1  0  0  0  0
 20 47  1  0  0  0  0
 20 48  1  0  0  0  0
 21 22  1  0  0  0  0
 21 49  1  0  0  0  0
 23 24  1  0  0  0  0
 23 50  1  0  0  0  0
 23 51  1  0  0  0  0
 24 52  1  0  0  0  0
 24 53  1  0  0  0  0
M  CHG  1   7   1
M  END
> <s_m_source_file>
AV-unprocessed.smi

> <i_m_source_file_index>
1697

> <i_lp_mmshare_version>
43012

> <i_f3d_flags>
0

> <s_epik_input>
W0NIM11bQ0gyXU9bQ0hdMVtDSDJdW0NIMl1OKFtDSDJdW0NIMl0xKVtDSDJdW0NASF0oW09IXSlbQ0gyXW4oW2NIXW4yKWMoYzIzKVtjSF1jKFtDSDNdKWMoW2NIXTMpW0NIM10=

> <s_epik_cmdline>
J2VwaWtfcHl0aG9uJywgJy1waCcsICc3LjAnLCAnLXRuJywgJzgnLCAnLW1hJywgJzIwMCcsICctbWV0YWxfYmluZGluZycsICctaW1hZScsICc8aW5maWxlLm1hZT4nLCAnLW9tYWUnLCAnPG91dGZpbGUubWFlPic=

> <r_epik_Ionization_Penalty>
0.112476

> <r_epik_Ionization_Penalty_Charging>
0.0244612

> <r_epik_Ionization_Penalty_Neutral>
0.0880147

> <r_epik_State_Penalty>
0.0961447

> <r_epik_Charging_Adjusted_Penalty>
0.120606

> <i_epik_Tot_Q>
1

> <i_epik_Tot_abs_Q>
1

> <r_epik_Metal_State_Penalty>
0.0206204

> <b_epik_Metal_Only>
0

> <s_lp_Force_Field>
OPLS_2005

> <r_lp_Energy>
22.6968

> <b_lp_Chiralities_Consistent>
1

> <s_lp_Variant>
AV-unprocessed.smi:1697-1

> <Gold.Version>
5.8.1

> <Gold.Id.Protein>
6NUR|6NUR_protein|mol2

> <Gold.PLP.Fitness>
52.8406

> <Gold.PLP.PLP>
-39.0329

> <Gold.PLP.part.hbond>
-4.9034

> <Gold.PLP.part.metal>
0.0000

> <Gold.PLP.part.buried>
3.3275

> <Gold.PLP.part.nonpolar>
-37.6478

> <Gold.PLP.part.repulsive>
0.3033

> <Gold.PLP.ligand.clash>
0.0000

> <Gold.PLP.ligand.torsion>
2.0505

> <Gold.PLP.Chemscore.Hbond>
4.9120

> <Gold.PLP.Chemscore.CHOScore>
1.0000

> <Gold.PLP.Chemscore.Metal>
0.0000

> <Gold.Chemscore.Hbonds>
donor molecule, donor type, donor heavy atom, donor atom, acceptor molecule, acceptor atom, score
      L1  H     7    54       P1  7948  2.00
      L1  H    10    38       P1 10171  1.00
      P1  H  7954  7966       L1    10  0.91
      P1  H  7989  7998       L1     3  1.00
      L1  C    13    41       P1 10186  1.00

> <Gold.PLP.Chemscore.Internal.Correction>
0.1726

> <Gold.Rescore>
     Score         DG    S(hbond)    S(metal)    S(lipo)     H(rot)  DE(clash)    DE(int)     intcor
     19.93     -24.10       3.63        0.00     105.23       2.27       2.32       1.85       ----

> <Gold.Chemscore.Fitness>
19.9348

> <Gold.Chemscore.DG>
-24.1044

> <Gold.Chemscore.ZeroCoef>
-5.4800

> <Gold.Chemscore.Hbond>
3.6306

> <Gold.Chemscore.Metal>
0.0000

> <Gold.Chemscore.Lipo>
105.2301

> <Gold.Chemscore.Internal_Hbond>
0.0000

> <Gold.Chemscore.DEClash>
2.3181

> <Gold.Chemscore.DEInternal>
1.8515

> <Gold.Chemscore.Rot>
2.2710

> <Gold.Chemscore.Internal.Correction>
   9.000000E+99

> <Gold.Chemscore.Hbonds>
donor molecule, donor type, donor heavy atom, donor atom, acceptor molecule, acceptor atom, score
      L1  H     7    54       P1  7948  0.98
      L1  H    10    38       P1 10171  0.96
      P1  H  7954  7966       L1    10  0.75
      P1  H  7989  7998       L1     3  0.24

> <Gold.Chemscore.Hbond.Weighted>
-12.1262

> <Gold.Chemscore.Metal.Weighted>
-0.0000

> <Gold.Chemscore.Lipo.Weighted>
-12.3119

> <Gold.Chemscore.Internal_Hbond.Weighted>
0.0000

> <Gold.Chemscore.DEClash.Weighted>
2.3181

> <Gold.Chemscore.DEInternal.Weighted>
1.8515

> <Gold.Chemscore.Rot.Weighted>
5.8137

> <Gold.Chemscore.Internal.Correction.Weighted>
   9.000000E+99

> <Gold.Protein.RotatedTorsions>
[ 6907 6896 6895 6894 ] final   61.67 input  -60.11 | X-H torsion
[ 7974 7965 7964 7962 ] final  175.16 input  175.53 | X-H torsion
[ 8008 7997 7996 7995 ] final  -38.54 input   59.86 | X-H torsion
[ 10167 10162 10161 10158 ] final   31.71 input  -65.29 | X-H torsion
[ 10718 10713 10712 10709 ] final  -12.16 input   66.30 | X-H torsion
[ 10763 10752 10751 10750 ] final   39.64 input  -60.55 | X-H torsion
[ 11005 11000 10999 10996 ] final  -37.48 input  -57.11 | X-H torsion

> <Gold.Protein.ActiveResidues>
 VAL166  LYS551  ARG553  GLY616  TRP617  ASP618  TYR619  PRO620  LYS621  CYS622 
 ASP623  PHE694  ASN695  SER759  ASP760  ASP761  ALA762  ILE779  LEU786  VAL792 
 PHE793  MET794  SER795  GLU796  ALA797  LYS798  CYS799  TRP800  GLU811  SER814 

> <Gold.Protein.RotatedAtoms>
  152.4108  134.6127  160.0029 H   0  0  0  0  0  0  0  0  0  0  0  0  # atno 6907 bound_to 6896
  151.6305  133.3327  159.3116 H   0  0  0  0  0  0  0  0  0  0  0  0  # atno 6908 bound_to 6896
  150.7999  134.7126  159.6657 H   0  0  0  0  0  0  0  0  0  0  0  0  # atno 6909 bound_to 6896
  144.7207  139.9905  143.6440 H   0  0  0  0  0  0  0  0  0  0  0  0  # atno 7974 bound_to 7965
  154.4035  140.1575  156.2716 H   0  0  0  0  0  0  0  0  0  0  0  0  # atno 8008 bound_to 7997
  155.8948  140.3436  155.5960 H   0  0  0  0  0  0  0  0  0  0  0  0  # atno 8009 bound_to 7997
  155.7516  140.0805  157.2189 H   0  0  0  0  0  0  0  0  0  0  0  0  # atno 8010 bound_to 7997
  140.4564  144.0972  150.6203 H   0  0  0  0  0  0  0  0  0  0  0  0  # atno 10167 bound_to 10162
  156.6486  130.4948  149.6070 H   0  0  0  0  0  0  0  0  0  0  0  0  # atno 10718 bound_to 10713
  152.9961  135.6214  154.2498 H   0  0  0  0  0  0  0  0  0  0  0  0  # atno 10763 bound_to 10752
  154.2236  135.2795  155.2917 H   0  0  0  0  0  0  0  0  0  0  0  0  # atno 10764 bound_to 10752
  154.5508  135.5734  153.6978 H   0  0  0  0  0  0  0  0  0  0  0  0  # atno 10765 bound_to 10752
  140.9955  133.6982  156.1927 H   0  0  0  0  0  0  0  0  0  0  0  0  # atno 11005 bound_to 11000
  146.0416  139.3426  143.0694 LP  0  0  0  0  0  0  0  0  0  0  0  0  # atno 17320 bound_to 7965
  145.8328  140.9622  143.0840 LP  0  0  0  0  0  0  0  0  0  0  0  0  # atno 17321 bound_to 7965
  140.4146  143.2640  151.9791 LP  0  0  0  0  0  0  0  0  0  0  0  0  # atno 17342 bound_to 10162
  139.4801  144.5885  151.7812 LP  0  0  0  0  0  0  0  0  0  0  0  0  # atno 17343 bound_to 10162
  156.2102  130.6674  151.1261 LP  0  0  0  0  0  0  0  0  0  0  0  0  # atno 17370 bound_to 10713
  157.7148  131.0715  150.6368 LP  0  0  0  0  0  0  0  0  0  0  0  0  # atno 17371 bound_to 10713
  140.6972  134.4602  157.5587 LP  0  0  0  0  0  0  0  0  0  0  0  0  # atno 17394 bound_to 11000
  139.9013  134.8550  156.1886 LP  0  0  0  0  0  0  0  0  0  0  0  0  # atno 17395 bound_to 11000

$$$$
