AV-unprocessed.smi:2336|AV-procd|sdf|9330|dock10
  -GOLD-   2272012553D 1   1.00000     0.00000
 Structure written by MMmdl.
 50 51  0  0  0  0  0  0  0  0  2 V2000
  145.2265  140.7889  155.3828 C   0  0  0  0  0  0  0  0  0  0  0  0
  146.7320  140.9307  155.0807 C   0  0  0  0  0  0  0  0  0  0  0  0
  146.9344  142.1278  154.1317 C   0  0  0  0  0  0  0  0  0  0  0  0
  147.3475  139.6091  154.5322 C   0  0  1  0  0  0  0  0  0  0  0  0
  146.8018  139.2376  153.1220 C   0  0  0  0  0  0  0  0  0  0  0  0
  147.0149  137.8366  152.7674 N   0  0  0  0  0  0  0  0  0  0  0  0
  146.0667  136.9724  152.3768 C   0  0  0  0  0  0  0  0  0  0  0  0
  144.8748  137.2650  152.2886 O   0  0  0  0  0  0  0  0  0  0  0  0
  146.5944  135.7671  152.1043 N   0  0  0  0  0  0  0  0  0  0  0  0
  145.9487  134.6020  151.6059 C   0  0  0  0  0  0  0  0  0  0  0  0
  144.6905  134.6052  150.9560 C   0  0  0  0  0  0  0  0  0  0  0  0
  144.1691  133.3811  150.4903 C   0  0  0  0  0  0  0  0  0  0  0  0
  144.8097  132.2005  150.6229 N   0  0  0  0  0  0  0  0  0  0  0  0
  146.0148  132.2033  151.2307 C   0  0  0  0  0  0  0  0  0  0  0  0
  146.6259  133.3706  151.7311 C   0  0  0  0  0  0  0  0  0  0  0  0
  147.8423  133.3055  152.3247 F   0  0  0  0  0  0  0  0  0  0  0  0
  148.8418  139.6713  154.6118 N   0  3  0  0  0  0  0  0  0  0  0  0
  149.5664  138.3920  154.4010 C   0  0  0  0  0  0  0  0  0  0  0  0
  151.0793  138.6543  154.2561 C   0  0  0  0  0  0  0  0  0  0  0  0
  151.6276  139.3722  155.4086 N   0  0  0  0  0  0  0  0  0  0  0  0
  151.6892  138.5567  156.6171 C   0  0  0  0  0  0  0  0  0  0  0  0
  150.9074  140.6325  155.6005 C   0  0  0  0  0  0  0  0  0  0  0  0
  149.3904  140.4142  155.7747 C   0  0  0  0  0  0  0  0  0  0  0  0
  144.6692  140.4943  154.4930 H   0  0  0  0  0  0  0  0  0  0  0  0
  144.8069  141.7311  155.7371 H   0  0  0  0  0  0  0  0  0  0  0  0
  145.0316  140.0497  156.1598 H   0  0  0  0  0  0  0  0  0  0  0  0
  147.2289  141.1826  156.0181 H   0  0  0  0  0  0  0  0  0  0  0  0
  146.5488  141.9147  153.1342 H   0  0  0  0  0  0  0  0  0  0  0  0
  147.9839  142.4040  154.0376 H   0  0  0  0  0  0  0  0  0  0  0  0
  146.4164  143.0132  154.5018 H   0  0  0  0  0  0  0  0  0  0  0  0
  147.0267  138.8224  155.2170 H   0  0  0  0  0  0  0  0  0  0  0  0
  145.7227  139.3774  153.0880 H   0  0  0  0  0  0  0  0  0  0  0  0
  147.2102  139.9132  152.3689 H   0  0  0  0  0  0  0  0  0  0  0  0
  147.9638  137.4964  152.8266 H   0  0  0  0  0  0  0  0  0  0  0  0
  147.5755  135.6533  152.3142 H   0  0  0  0  0  0  0  0  0  0  0  0
  144.1249  135.5097  150.7951 H   0  0  0  0  0  0  0  0  0  0  0  0
  143.2124  133.3511  149.9902 H   0  0  0  0  0  0  0  0  0  0  0  0
  146.5086  131.2467  151.3184 H   0  0  0  0  0  0  0  0  0  0  0  0
  149.3838  137.6976  155.2177 H   0  0  0  0  0  0  0  0  0  0  0  0
  149.2026  137.9071  153.4956 H   0  0  0  0  0  0  0  0  0  0  0  0
  151.6167  137.7148  154.1204 H   0  0  0  0  0  0  0  0  0  0  0  0
  151.2624  139.2472  153.3590 H   0  0  0  0  0  0  0  0  0  0  0  0
  152.1620  139.1162  157.4249 H   0  0  0  0  0  0  0  0  0  0  0  0
  152.2895  137.6639  156.4391 H   0  0  0  0  0  0  0  0  0  0  0  0
  150.7060  138.2370  156.9607 H   0  0  0  0  0  0  0  0  0  0  0  0
  151.3173  141.1615  156.4617 H   0  0  0  0  0  0  0  0  0  0  0  0
  151.0868  141.2703  154.7339 H   0  0  0  0  0  0  0  0  0  0  0  0
  148.9022  141.3862  155.8494 H   0  0  0  0  0  0  0  0  0  0  0  0
  149.1917  139.8953  156.7099 H   0  0  0  0  0  0  0  0  0  0  0  0
  149.0991  140.2447  153.8211 H   0  0  0  0  0  0  0  0  0  0  0  0
  1  2  1  0  0  0  0
  1 24  1  0  0  0  0
  1 25  1  0  0  0  0
  1 26  1  0  0  0  0
  2  3  1  0  0  0  0
  2  4  1  0  0  0  0
  2 27  1  0  0  0  0
  3 28  1  0  0  0  0
  3 29  1  0  0  0  0
  3 30  1  0  0  0  0
  4  5  1  0  0  0  0
  4 17  1  0  0  0  0
  4 31  1  0  0  0  0
  5  6  1  0  0  0  0
  5 32  1  0  0  0  0
  5 33  1  0  0  0  0
  6  7  1  0  0  0  0
  6 34  1  0  0  0  0
  7  8  2  0  0  0  0
  7  9  1  0  0  0  0
  9 10  1  0  0  0  0
  9 35  1  0  0  0  0
 10 15  1  0  0  0  0
 10 11  2  0  0  0  0
 11 12  1  0  0  0  0
 11 36  1  0  0  0  0
 12 13  2  0  0  0  0
 12 37  1  0  0  0  0
 13 14  1  0  0  0  0
 14 15  2  0  0  0  0
 14 38  1  0  0  0  0
 15 16  1  0  0  0  0
 17 23  1  0  0  0  0
 17 18  1  0  0  0  0
 17 50  1  0  0  0  0
 18 19  1  0  0  0  0
 18 39  1  0  0  0  0
 18 40  1  0  0  0  0
 19 20  1  0  0  0  0
 19 41  1  0  0  0  0
 19 42  1  0  0  0  0
 20 21  1  0  0  0  0
 20 22  1  0  0  0  0
 21 43  1  0  0  0  0
 21 44  1  0  0  0  0
 21 45  1  0  0  0  0
 22 23  1  0  0  0  0
 22 46  1  0  0  0  0
 22 47  1  0  0  0  0
 23 48  1  0  0  0  0
 23 49  1  0  0  0  0
M  CHG  1  17   1
M  END
> <s_m_source_file>
AV-unprocessed.smi

> <i_m_source_file_index>
2336

> <i_lp_mmshare_version>
43012

> <i_f3d_flags>
0

> <s_epik_input>
W0NIMl0xW0NIMl1OKFtDSDNdKVtDSDJdW0NIMl1OMVtDQEhdKFtDSF0oW0NIM10pW0NIM10pW0NIMl1bTkhdQyg9TylbTkhdYzJbY0hdW2NIXW5bY0hdYzJG

> <s_epik_cmdline>
J2VwaWtfcHl0aG9uJywgJy1waCcsICc3LjAnLCAnLXRuJywgJzgnLCAnLW1hJywgJzIwMCcsICctbWV0YWxfYmluZGluZycsICctaW1hZScsICc8aW5maWxlLm1hZT4nLCAnLW9tYWUnLCAnPG91dGZpbGUubWFlPic=

> <r_epik_Ionization_Penalty>
0.204575

> <r_epik_Ionization_Penalty_Charging>
0.20006

> <r_epik_Ionization_Penalty_Neutral>
0.00451444

> <r_epik_State_Penalty>
1.43207

> <r_epik_Charging_Adjusted_Penalty>
1.63213

> <i_epik_Tot_Q>
1

> <i_epik_Tot_abs_Q>
1

> <r_epik_Metal_State_Penalty>
1.43277

> <b_epik_Metal_Only>
0

> <s_lp_Force_Field>
OPLS_2005

> <r_lp_Energy>
38.4551

> <b_lp_Chiralities_Consistent>
1

> <s_lp_Variant>
AV-unprocessed.smi:2336-4

> <Gold.Version>
5.8.1

> <Gold.Id.Protein>
6NUR|6NUR_protein|mol2

> <Gold.PLP.Fitness>
42.6953

> <Gold.PLP.PLP>
-34.8368

> <Gold.PLP.part.hbond>
-1.5526

> <Gold.PLP.part.metal>
0.0000

> <Gold.PLP.part.buried>
-4.8385

> <Gold.PLP.part.nonpolar>
-28.9073

> <Gold.PLP.part.repulsive>
1.4294

> <Gold.PLP.ligand.clash>
0.0000

> <Gold.PLP.ligand.torsion>
0.5852

> <Gold.PLP.Chemscore.Hbond>
1.4720

> <Gold.PLP.Chemscore.CHOScore>
1.4354

> <Gold.PLP.Chemscore.Metal>
0.0000

> <Gold.Chemscore.Hbonds>
donor molecule, donor type, donor heavy atom, donor atom, acceptor molecule, acceptor atom, score
      L1  H     6    34       P1  7948  0.67
      L1  H     9    35       P1  7948  0.78
      L1  C    12    37       P1 10186  1.00
      L1  C    14    38       P1 10747  0.46

> <Gold.PLP.Chemscore.Internal.Correction>
0.3066

> <Gold.Rescore>
     Score         DG    S(hbond)    S(metal)    S(lipo)     H(rot)  DE(clash)    DE(int)     intcor
     15.11     -16.75       1.86        0.00      79.94       1.67       0.11       1.52       ----

> <Gold.Chemscore.Fitness>
15.1145

> <Gold.Chemscore.DG>
-16.7457

> <Gold.Chemscore.ZeroCoef>
-5.4800

> <Gold.Chemscore.Hbond>
1.8556

> <Gold.Chemscore.Metal>
0.0000

> <Gold.Chemscore.Lipo>
79.9405

> <Gold.Chemscore.Internal_Hbond>
0.0000

> <Gold.Chemscore.DEClash>
0.1095

> <Gold.Chemscore.DEInternal>
1.5217

> <Gold.Chemscore.Rot>
1.6739

> <Gold.Chemscore.Internal.Correction>
   9.000000E+99

> <Gold.Chemscore.Hbonds>
donor molecule, donor type, donor heavy atom, donor atom, acceptor molecule, acceptor atom, score
      L1  H     6    34       P1  7948  0.68
      L1  H     9    35       P1  7948  0.73

> <Gold.Chemscore.Hbond.Weighted>
-6.1978

> <Gold.Chemscore.Metal.Weighted>
-0.0000

> <Gold.Chemscore.Lipo.Weighted>
-9.3530

> <Gold.Chemscore.Internal_Hbond.Weighted>
0.0000

> <Gold.Chemscore.DEClash.Weighted>
0.1095

> <Gold.Chemscore.DEInternal.Weighted>
1.5217

> <Gold.Chemscore.Rot.Weighted>
4.2851

> <Gold.Chemscore.Internal.Correction.Weighted>
   9.000000E+99

> <Gold.Protein.RotatedTorsions>
[ 6907 6896 6895 6894 ] final  -47.26 input  -60.11 | X-H torsion
[ 7974 7965 7964 7962 ] final  101.13 input  175.53 | X-H torsion
[ 8008 7997 7996 7995 ] final   -3.62 input   59.86 | X-H torsion
[ 10167 10162 10161 10158 ] final  123.18 input  -65.29 | X-H torsion
[ 10718 10713 10712 10709 ] final -104.75 input   66.30 | X-H torsion
[ 10763 10752 10751 10750 ] final -120.34 input  -60.55 | X-H torsion
[ 11005 11000 10999 10996 ] final -108.21 input  -57.11 | X-H torsion

> <Gold.Protein.ActiveResidues>
 VAL166  LYS551  ARG553  GLY616  TRP617  ASP618  TYR619  PRO620  LYS621  CYS622 
 ASP623  PHE694  ASN695  SER759  ASP760  ASP761  ALA762  ILE779  LEU786  VAL792 
 PHE793  MET794  SER795  GLU796  ALA797  LYS798  CYS799  TRP800  GLU811  SER814 

> <Gold.Protein.RotatedAtoms>
  150.9027  134.8440  159.7370 H   0  0  0  0  0  0  0  0  0  0  0  0  # atno 6907 bound_to 6896
  152.4901  134.4479  159.9574 H   0  0  0  0  0  0  0  0  0  0  0  0  # atno 6908 bound_to 6896
  151.4529  133.3573  159.2833 H   0  0  0  0  0  0  0  0  0  0  0  0  # atno 6909 bound_to 6896
  145.3764  139.2388  143.3427 H   0  0  0  0  0  0  0  0  0  0  0  0  # atno 7974 bound_to 7965
  154.6230  140.2504  155.7526 H   0  0  0  0  0  0  0  0  0  0  0  0  # atno 8008 bound_to 7997
  156.2437  140.2923  156.0466 H   0  0  0  0  0  0  0  0  0  0  0  0  # atno 8009 bound_to 7997
  155.1867  140.0390  157.2883 H   0  0  0  0  0  0  0  0  0  0  0  0  # atno 8010 bound_to 7997
  139.5814  144.6988  151.3518 H   0  0  0  0  0  0  0  0  0  0  0  0  # atno 10167 bound_to 10162
  156.0317  130.5530  150.7441 H   0  0  0  0  0  0  0  0  0  0  0  0  # atno 10718 bound_to 10713
  154.8641  135.4206  154.2443 H   0  0  0  0  0  0  0  0  0  0  0  0  # atno 10763 bound_to 10752
  153.3402  135.6993  153.6879 H   0  0  0  0  0  0  0  0  0  0  0  0  # atno 10764 bound_to 10752
  153.5861  135.3563  155.2866 H   0  0  0  0  0  0  0  0  0  0  0  0  # atno 10765 bound_to 10752
  141.0914  133.9048  157.2067 H   0  0  0  0  0  0  0  0  0  0  0  0  # atno 11005 bound_to 11000
  146.2862  140.4424  142.8757 LP  0  0  0  0  0  0  0  0  0  0  0  0  # atno 17320 bound_to 7965
  144.8539  140.7042  143.6150 LP  0  0  0  0  0  0  0  0  0  0  0  0  # atno 17321 bound_to 7965
  140.7092  143.7434  150.7536 LP  0  0  0  0  0  0  0  0  0  0  0  0  # atno 17342 bound_to 10162
  140.0968  143.4825  152.2448 LP  0  0  0  0  0  0  0  0  0  0  0  0  # atno 17343 bound_to 10162
  157.5002  131.0918  151.0323 LP  0  0  0  0  0  0  0  0  0  0  0  0  # atno 17370 bound_to 10713
  157.0706  130.5862  149.5402 LP  0  0  0  0  0  0  0  0  0  0  0  0  # atno 17371 bound_to 10713
  139.9740  135.0119  156.9585 LP  0  0  0  0  0  0  0  0  0  0  0  0  # atno 17394 bound_to 11000
  140.5243  134.0876  155.7300 LP  0  0  0  0  0  0  0  0  0  0  0  0  # atno 17395 bound_to 11000

$$$$
