AV-unprocessed.smi:2186|AV-procd|sdf|8877|dock7
  -GOLD-   2272012 73D 1   1.00000     0.00000
 Structure written by MMmdl.
 44 45  0  0  0  0  0  0  0  0  2 V2000
  152.0573  143.8366  161.2153 C   0  0  0  0  0  0  0  0  0  0  0  0
  152.5241  143.9640  159.7582 C   0  0  0  0  0  0  0  0  0  0  0  0
  152.0636  145.2681  159.0893 C   0  0  0  0  0  0  0  0  0  0  0  0
  152.1622  142.7632  158.9429 C   0  0  0  0  0  0  0  0  0  0  0  0
  151.3098  142.7984  157.9152 N   0  0  0  0  0  0  0  0  0  0  0  0
  151.1696  141.5588  157.2799 C   0  0  0  0  0  0  0  0  0  0  0  0
  150.2843  141.4210  156.0706 C   0  0  0  0  0  0  0  0  0  0  0  0
  150.5221  140.0780  155.3721 C   0  0  0  0  0  0  0  0  0  0  0  0
  151.6329  139.8089  154.9154 O   0  0  0  0  0  0  0  0  0  0  0  0
  149.4804  139.2320  155.3202 N   0  0  0  0  0  0  0  0  0  0  0  0
  149.5499  137.8527  154.8567 C   0  0  0  0  0  0  0  0  0  0  0  0
  148.1952  137.1450  155.0557 C   0  0  0  0  0  0  0  0  0  0  0  0
  148.1686  135.7796  154.4757 N   0  3  0  0  0  0  0  0  0  0  0  0
  149.1722  134.8866  155.1033 C   0  0  0  0  0  0  0  0  0  0  0  0
  149.1478  133.4978  154.4435 C   0  0  0  0  0  0  0  0  0  0  0  0
  147.8408  132.9474  154.5459 O   0  0  0  0  0  0  0  0  0  0  0  0
  146.8756  133.7443  153.8713 C   0  0  0  0  0  0  0  0  0  0  0  0
  146.8260  135.1470  154.5019 C   0  0  0  0  0  0  0  0  0  0  0  0
  151.9135  140.5670  157.8702 C   0  0  0  0  0  0  0  0  0  0  0  0
  152.8331  141.1611  159.2259 S   0  0  0  0  0  0  0  0  0  0  0  0
  152.4661  142.9390  161.6807 H   0  0  0  0  0  0  0  0  0  0  0  0
  150.9703  143.7799  161.2806 H   0  0  0  0  0  0  0  0  0  0  0  0
  152.3811  144.6926  161.8078 H   0  0  0  0  0  0  0  0  0  0  0  0
  153.6138  143.9999  159.7861 H   0  0  0  0  0  0  0  0  0  0  0  0
  152.4812  145.3632  158.0864 H   0  0  0  0  0  0  0  0  0  0  0  0
  152.3814  146.1381  159.6643 H   0  0  0  0  0  0  0  0  0  0  0  0
  150.9771  145.3070  159.0020 H   0  0  0  0  0  0  0  0  0  0  0  0
  149.2321  141.4889  156.3491 H   0  0  0  0  0  0  0  0  0  0  0  0
  150.4722  142.2349  155.3692 H   0  0  0  0  0  0  0  0  0  0  0  0
  148.6012  139.5406  155.7099 H   0  0  0  0  0  0  0  0  0  0  0  0
  149.8251  137.8791  153.8031 H   0  0  0  0  0  0  0  0  0  0  0  0
  150.3466  137.3172  155.3759 H   0  0  0  0  0  0  0  0  0  0  0  0
  147.9990  137.0711  156.1266 H   0  0  0  0  0  0  0  0  0  0  0  0
  147.3828  137.7414  154.6367 H   0  0  0  0  0  0  0  0  0  0  0  0
  150.1684  135.3198  155.0054 H   0  0  0  0  0  0  0  0  0  0  0  0
  148.9650  134.7959  156.1708 H   0  0  0  0  0  0  0  0  0  0  0  0
  149.4518  133.5565  153.3970 H   0  0  0  0  0  0  0  0  0  0  0  0
  149.8518  132.8318  154.9427 H   0  0  0  0  0  0  0  0  0  0  0  0
  147.1127  133.8021  152.8077 H   0  0  0  0  0  0  0  0  0  0  0  0
  145.9016  133.2618  153.9541 H   0  0  0  0  0  0  0  0  0  0  0  0
  146.4742  135.0780  155.5324 H   0  0  0  0  0  0  0  0  0  0  0  0
  146.1054  135.7558  153.9574 H   0  0  0  0  0  0  0  0  0  0  0  0
  151.9835  139.5275  157.5855 H   0  0  0  0  0  0  0  0  0  0  0  0
  148.4370  135.8709  153.5062 H   0  0  0  0  0  0  0  0  0  0  0  0
  1  2  1  0  0  0  0
  1 21  1  0  0  0  0
  1 22  1  0  0  0  0
  1 23  1  0  0  0  0
  2  3  1  0  0  0  0
  2  4  1  0  0  0  0
  2 24  1  0  0  0  0
  3 25  1  0  0  0  0
  3 26  1  0  0  0  0
  3 27  1  0  0  0  0
  4 20  1  0  0  0  0
  4  5  2  0  0  0  0
  5  6  1  0  0  0  0
  6  7  1  0  0  0  0
  6 19  2  0  0  0  0
  7  8  1  0  0  0  0
  7 28  1  0  0  0  0
  7 29  1  0  0  0  0
  8  9  2  0  0  0  0
  8 10  1  0  0  0  0
 10 11  1  0  0  0  0
 10 30  1  0  0  0  0
 11 12  1  0  0  0  0
 11 31  1  0  0  0  0
 11 32  1  0  0  0  0
 12 13  1  0  0  0  0
 12 33  1  0  0  0  0
 12 34  1  0  0  0  0
 13 18  1  0  0  0  0
 13 14  1  0  0  0  0
 13 44  1  0  0  0  0
 14 15  1  0  0  0  0
 14 35  1  0  0  0  0
 14 36  1  0  0  0  0
 15 16  1  0  0  0  0
 15 37  1  0  0  0  0
 15 38  1  0  0  0  0
 16 17  1  0  0  0  0
 17 18  1  0  0  0  0
 17 39  1  0  0  0  0
 17 40  1  0  0  0  0
 18 41  1  0  0  0  0
 18 42  1  0  0  0  0
 19 20  1  0  0  0  0
 19 43  1  0  0  0  0
M  CHG  1  13   1
M  END
> <s_m_source_file>
AV-unprocessed.smi

> <i_m_source_file_index>
2186

> <i_lp_mmshare_version>
43012

> <i_f3d_flags>
0

> <s_epik_input>
W0NIM11bQ0hdKFtDSDNdKWMxbmMoW2NIXXMxKVtDSDJdQyg9TylbTkhdW0NIMl1bQ0gyXU4yW0NIMl1bQ0gyXU9bQ0gyXVtDSDJdMg==

> <s_epik_cmdline>
J2VwaWtfcHl0aG9uJywgJy1waCcsICc3LjAnLCAnLXRuJywgJzgnLCAnLW1hJywgJzIwMCcsICctbWV0YWxfYmluZGluZycsICctaW1hZScsICc8aW5maWxlLm1hZT4nLCAnLW9tYWUnLCAnPG91dGZpbGUubWFlPic=

> <r_epik_Ionization_Penalty>
0.678862

> <r_epik_Ionization_Penalty_Charging>
0.678842

> <r_epik_Ionization_Penalty_Neutral>
2.00527e-05

> <r_epik_State_Penalty>
0.699693

> <r_epik_Charging_Adjusted_Penalty>
1.37854

> <i_epik_Tot_Q>
1

> <i_epik_Tot_abs_Q>
1

> <r_epik_Metal_State_Penalty>
0.699708

> <b_epik_Metal_Only>
0

> <s_lp_Force_Field>
OPLS_2005

> <r_lp_Energy>
6.68048

> <b_lp_Chiralities_Consistent>
1

> <s_lp_Variant>
AV-unprocessed.smi:2186-2

> <Gold.Version>
5.8.1

> <Gold.Id.Protein>
6NUR|6NUR_protein|mol2

> <Gold.PLP.Fitness>
47.5122

> <Gold.PLP.PLP>
-39.0928

> <Gold.PLP.part.hbond>
-2.0000

> <Gold.PLP.part.metal>
0.0000

> <Gold.PLP.part.buried>
-5.5718

> <Gold.PLP.part.nonpolar>
-32.5898

> <Gold.PLP.part.repulsive>
0.2285

> <Gold.PLP.ligand.clash>
0.0000

> <Gold.PLP.ligand.torsion>
0.3518

> <Gold.PLP.Chemscore.Hbond>
3.0000

> <Gold.PLP.Chemscore.CHOScore>
0.0000

> <Gold.PLP.Chemscore.Metal>
0.0000

> <Gold.Chemscore.Hbonds>
donor molecule, donor type, donor heavy atom, donor atom, acceptor molecule, acceptor atom, score
      L1  H    13    44       P1  7948  2.00
      P1  H  7989  7998       L1     9  1.00

> <Gold.PLP.Chemscore.Internal.Correction>
0.1231

> <Gold.Rescore>
     Score         DG    S(hbond)    S(metal)    S(lipo)     H(rot)  DE(clash)    DE(int)     intcor
     18.77     -19.26       1.94        0.00     102.25       1.82       0.02       0.47       ----

> <Gold.Chemscore.Fitness>
18.7658

> <Gold.Chemscore.DG>
-19.2590

> <Gold.Chemscore.ZeroCoef>
-5.4800

> <Gold.Chemscore.Hbond>
1.9399

> <Gold.Chemscore.Metal>
0.0000

> <Gold.Chemscore.Lipo>
102.2511

> <Gold.Chemscore.Internal_Hbond>
0.0000

> <Gold.Chemscore.DEClash>
0.0234

> <Gold.Chemscore.DEInternal>
0.4698

> <Gold.Chemscore.Rot>
1.8217

> <Gold.Chemscore.Internal.Correction>
   9.000000E+99

> <Gold.Chemscore.Hbonds>
donor molecule, donor type, donor heavy atom, donor atom, acceptor molecule, acceptor atom, score
      L1  H    13    44       P1  7948  1.00
      P1  H  7989  7998       L1     9  0.25

> <Gold.Chemscore.Hbond.Weighted>
-6.4791

> <Gold.Chemscore.Metal.Weighted>
-0.0000

> <Gold.Chemscore.Lipo.Weighted>
-11.9634

> <Gold.Chemscore.Internal_Hbond.Weighted>
0.0000

> <Gold.Chemscore.DEClash.Weighted>
0.0234

> <Gold.Chemscore.DEInternal.Weighted>
0.4698

> <Gold.Chemscore.Rot.Weighted>
4.6635

> <Gold.Chemscore.Internal.Correction.Weighted>
   9.000000E+99

> <Gold.Protein.RotatedTorsions>
[ 6907 6896 6895 6894 ] final   71.64 input  -60.11 | X-H torsion
[ 7974 7965 7964 7962 ] final  -13.19 input  175.53 | X-H torsion
[ 8008 7997 7996 7995 ] final  -22.82 input   59.86 | X-H torsion
[ 10167 10162 10161 10158 ] final    0.59 input  -65.29 | X-H torsion
[ 10718 10713 10712 10709 ] final -140.89 input   66.30 | X-H torsion
[ 10763 10752 10751 10750 ] final  -78.44 input  -60.55 | X-H torsion
[ 11005 11000 10999 10996 ] final -114.30 input  -57.11 | X-H torsion

> <Gold.Protein.ActiveResidues>
 VAL166  LYS551  ARG553  GLY616  TRP617  ASP618  TYR619  PRO620  LYS621  CYS622 
 ASP623  PHE694  ASN695  SER759  ASP760  ASP761  ALA762  ILE779  LEU786  VAL792 
 PHE793  MET794  SER795  GLU796  ALA797  LYS798  CYS799  TRP800  GLU811  SER814 

> <Gold.Protein.RotatedAtoms>
  152.4822  134.4690  159.9629 H   0  0  0  0  0  0  0  0  0  0  0  0  # atno 6907 bound_to 6896
  151.4694  133.3567  159.2829 H   0  0  0  0  0  0  0  0  0  0  0  0  # atno 6908 bound_to 6896
  150.8903  134.8331  159.7349 H   0  0  0  0  0  0  0  0  0  0  0  0  # atno 6909 bound_to 6896
  146.2123  140.3168  142.8387 H   0  0  0  0  0  0  0  0  0  0  0  0  # atno 7974 bound_to 7965
  154.4621  140.1997  156.0216 H   0  0  0  0  0  0  0  0  0  0  0  0  # atno 8008 bound_to 7997
  156.0860  140.3265  155.7725 H   0  0  0  0  0  0  0  0  0  0  0  0  # atno 8009 bound_to 7997
  155.5035  140.0556  157.2926 H   0  0  0  0  0  0  0  0  0  0  0  0  # atno 8010 bound_to 7997
  140.6722  143.7017  150.7946 H   0  0  0  0  0  0  0  0  0  0  0  0  # atno 10167 bound_to 10162
  156.3275  130.7568  151.1679 H   0  0  0  0  0  0  0  0  0  0  0  0  # atno 10718 bound_to 10713
  154.5258  135.5730  153.6718 H   0  0  0  0  0  0  0  0  0  0  0  0  # atno 10763 bound_to 10752
  152.9928  135.6193  154.2694 H   0  0  0  0  0  0  0  0  0  0  0  0  # atno 10764 bound_to 10752
  154.2617  135.2856  155.2755 H   0  0  0  0  0  0  0  0  0  0  0  0  # atno 10765 bound_to 10752
  141.0560  133.9611  157.2753 H   0  0  0  0  0  0  0  0  0  0  0  0  # atno 11005 bound_to 11000
  144.8949  140.7570  143.5903 LP  0  0  0  0  0  0  0  0  0  0  0  0  # atno 17320 bound_to 7965
  145.3091  139.1824  143.4648 LP  0  0  0  0  0  0  0  0  0  0  0  0  # atno 17321 bound_to 7965
  140.0704  143.5066  152.2582 LP  0  0  0  0  0  0  0  0  0  0  0  0  # atno 17342 bound_to 10162
  139.5996  144.7578  151.3204 LP  0  0  0  0  0  0  0  0  0  0  0  0  # atno 17343 bound_to 10162
  157.7424  131.0490  150.5026 LP  0  0  0  0  0  0  0  0  0  0  0  0  # atno 17370 bound_to 10713
  156.5187  130.4156  149.6262 LP  0  0  0  0  0  0  0  0  0  0  0  0  # atno 17371 bound_to 10713
  139.9391  135.0193  156.8650 LP  0  0  0  0  0  0  0  0  0  0  0  0  # atno 17394 bound_to 11000
  140.5963  134.0214  155.7519 LP  0  0  0  0  0  0  0  0  0  0  0  0  # atno 17395 bound_to 11000

$$$$
