AV-unprocessed.smi:1885|AV-procd|sdf|7653|dock8
  -GOLD-   22720 9383D 1   1.00000     0.00000
 Structure written by MMmdl.
 44 46  0  0  0  0  0  0  0  0  2 V2000
  144.0391  132.4961  150.0844 C   0  0  0  0  0  0  0  0  0  0  0  0
  144.1080  132.8316  151.4628 O   0  0  0  0  0  0  0  0  0  0  0  0
  144.6062  134.0707  151.8048 C   0  0  0  0  0  0  0  0  0  0  0  0
  145.0422  135.0405  150.8673 C   0  0  0  0  0  0  0  0  0  0  0  0
  145.5378  136.2840  151.3054 C   0  0  0  0  0  0  0  0  0  0  0  0
  145.6128  136.5781  152.6816 C   0  0  0  0  0  0  0  0  0  0  0  0
  146.1269  137.9313  153.1379 C   0  0  0  0  0  0  0  0  0  0  0  0
  147.0350  137.8290  154.2239 O   0  0  0  0  0  0  0  0  0  0  0  0
  148.1947  138.6257  154.0468 C   0  0  0  0  0  0  0  0  0  0  0  0
  149.3429  138.0408  154.8896 C   0  0  1  0  0  0  0  0  0  0  0  0
  149.6952  136.7816  154.3555 O   0  0  0  0  0  0  0  0  0  0  0  0
  150.6206  138.9041  154.8927 C   0  0  0  0  0  0  0  0  0  0  0  0
  150.3778  140.2886  155.3237 N   0  0  0  0  0  0  0  0  0  0  0  0
  149.6320  141.2583  154.7273 C   0  0  0  0  0  0  0  0  0  0  0  0
  149.7046  142.3721  155.5070 N   0  3  0  0  0  0  0  0  0  0  0  0
  150.5081  142.1117  156.6190 C   0  0  0  0  0  0  0  0  0  0  0  0
  150.8778  142.9255  157.6850 C   0  0  0  0  0  0  0  0  0  0  0  0
  151.7182  142.3514  158.6612 C   0  0  0  0  0  0  0  0  0  0  0  0
  152.1100  143.1003  159.7191 F   0  0  0  0  0  0  0  0  0  0  0  0
  152.1590  141.0154  158.5552 C   0  0  0  0  0  0  0  0  0  0  0  0
  152.9683  140.5037  159.5126 F   0  0  0  0  0  0  0  0  0  0  0  0
  151.7762  140.1994  157.4703 C   0  0  0  0  0  0  0  0  0  0  0  0
  150.9441  140.7739  156.5096 C   0  0  0  0  0  0  0  0  0  0  0  0
  145.1722  135.6203  153.6179 C   0  0  0  0  0  0  0  0  0  0  0  0
  144.6771  134.3772  153.1793 C   0  0  0  0  0  0  0  0  0  0  0  0
  143.6300  131.4914  149.9788 H   0  0  0  0  0  0  0  0  0  0  0  0
  145.0277  132.4991  149.6229 H   0  0  0  0  0  0  0  0  0  0  0  0
  143.3838  133.1773  149.5402 H   0  0  0  0  0  0  0  0  0  0  0  0
  145.0047  134.8554  149.8046 H   0  0  0  0  0  0  0  0  0  0  0  0
  145.8611  137.0135  150.5773 H   0  0  0  0  0  0  0  0  0  0  0  0
  146.6170  138.4286  152.2992 H   0  0  0  0  0  0  0  0  0  0  0  0
  145.2700  138.5425  153.4246 H   0  0  0  0  0  0  0  0  0  0  0  0
  148.4751  138.6954  152.9943 H   0  0  0  0  0  0  0  0  0  0  0  0
  147.9546  139.6340  154.3837 H   0  0  0  0  0  0  0  0  0  0  0  0
  149.0089  137.8999  155.9185 H   0  0  0  0  0  0  0  0  0  0  0  0
  149.1324  136.5961  153.6194 H   0  0  0  0  0  0  0  0  0  0  0  0
  151.3476  138.4842  155.5894 H   0  0  0  0  0  0  0  0  0  0  0  0
  151.1025  138.9016  153.9152 H   0  0  0  0  0  0  0  0  0  0  0  0
  149.0817  141.1612  153.8022 H   0  0  0  0  0  0  0  0  0  0  0  0
  150.5443  143.9493  157.7691 H   0  0  0  0  0  0  0  0  0  0  0  0
  152.1267  139.1806  157.4015 H   0  0  0  0  0  0  0  0  0  0  0  0
  145.2107  135.8323  154.6762 H   0  0  0  0  0  0  0  0  0  0  0  0
  144.3455  133.6509  153.9069 H   0  0  0  0  0  0  0  0  0  0  0  0
  149.2383  143.2445  155.2928 H   0  0  0  0  0  0  0  0  0  0  0  0
  1  2  1  0  0  0  0
  1 26  1  0  0  0  0
  1 27  1  0  0  0  0
  1 28  1  0  0  0  0
  2  3  1  0  0  0  0
  3 25  1  0  0  0  0
  3  4  2  0  0  0  0
  4  5  1  0  0  0  0
  4 29  1  0  0  0  0
  5  6  2  0  0  0  0
  5 30  1  0  0  0  0
  6  7  1  0  0  0  0
  6 24  1  0  0  0  0
  7  8  1  0  0  0  0
  7 31  1  0  0  0  0
  7 32  1  0  0  0  0
  8  9  1  0  0  0  0
  9 10  1  0  0  0  0
  9 33  1  0  0  0  0
  9 34  1  0  0  0  0
 10 11  1  0  0  0  0
 10 12  1  0  0  0  0
 10 35  1  0  0  0  0
 11 36  1  0  0  0  0
 12 13  1  0  0  0  0
 12 37  1  0  0  0  0
 12 38  1  0  0  0  0
 13 23  1  0  0  0  0
 13 14  1  0  0  0  0
 14 15  2  0  0  0  0
 14 39  1  0  0  0  0
 15 16  1  0  0  0  0
 15 44  1  0  0  0  0
 16 23  2  0  0  0  0
 16 17  1  0  0  0  0
 17 18  2  0  0  0  0
 17 40  1  0  0  0  0
 18 19  1  0  0  0  0
 18 20  1  0  0  0  0
 20 21  1  0  0  0  0
 20 22  2  0  0  0  0
 22 23  1  0  0  0  0
 22 41  1  0  0  0  0
 24 25  2  0  0  0  0
 24 42  1  0  0  0  0
 25 43  1  0  0  0  0
M  CHG  1  15   1
M  END
> <s_m_source_file>
AV-unprocessed.smi

> <i_m_source_file_index>
1885

> <i_lp_mmshare_version>
43012

> <i_f3d_flags>
0

> <s_epik_input>
W0NIM11PYzFbY0hdW2NIXWMoW2NIXVtjSF0xKVtDSDJdT1tDSDJdW0NASF0oW09IXSlbQ0gyXW4oW2NIXW4yKWMoYzIzKVtjSF1jKEYpYyhGKVtjSF0z

> <s_epik_cmdline>
J2VwaWtfcHl0aG9uJywgJy1waCcsICc3LjAnLCAnLXRuJywgJzgnLCAnLW1hJywgJzIwMCcsICctbWV0YWxfYmluZGluZycsICctaW1hZScsICc8aW5maWxlLm1hZT4nLCAnLW9tYWUnLCAnPG91dGZpbGUubWFlPic=

> <r_lp_tautomer_probability>
1

> <r_epik_Ionization_Penalty>
2.14697

> <r_epik_Ionization_Penalty_Charging>
2.14697

> <r_epik_Ionization_Penalty_Neutral>
9.74819e-07

> <r_epik_State_Penalty>
2.28651

> <r_epik_Charging_Adjusted_Penalty>
4.43348

> <i_epik_Tot_Q>
1

> <i_epik_Tot_abs_Q>
1

> <r_epik_Metal_State_Penalty>
6.36664

> <b_epik_Metal_Only>
0

> <s_lp_Force_Field>
OPLS_2005

> <r_lp_Energy>
25.0693

> <b_lp_Chiralities_Consistent>
1

> <s_lp_Variant>
AV-unprocessed.smi:1885-4

> <Gold.Version>
5.8.1

> <Gold.Id.Protein>
6NUR|6NUR_protein|mol2

> <Gold.PLP.Fitness>
52.7747

> <Gold.PLP.PLP>
-44.9810

> <Gold.PLP.part.hbond>
-2.9273

> <Gold.PLP.part.metal>
0.0000

> <Gold.PLP.part.buried>
-3.9183

> <Gold.PLP.part.nonpolar>
-39.3949

> <Gold.PLP.part.repulsive>
0.4132

> <Gold.PLP.ligand.clash>
0.0000

> <Gold.PLP.ligand.torsion>
0.7017

> <Gold.PLP.Chemscore.Hbond>
3.0000

> <Gold.PLP.Chemscore.CHOScore>
0.0000

> <Gold.PLP.Chemscore.Metal>
0.0000

> <Gold.Chemscore.Hbonds>
donor molecule, donor type, donor heavy atom, donor atom, acceptor molecule, acceptor atom, score
      L1  H    11    36       P1  7948  0.94
      L1  H    15    44       P1  8028  2.00
      L1  C    14    39       P1  7957  0.04

> <Gold.PLP.Chemscore.Internal.Correction>
0.1971

> <Gold.Rescore>
     Score         DG    S(hbond)    S(metal)    S(lipo)     H(rot)  DE(clash)    DE(int)     intcor
     14.98     -15.95       1.88        0.00     102.17       3.03       0.19       0.78       ----

> <Gold.Chemscore.Fitness>
14.9844

> <Gold.Chemscore.DG>
-15.9476

> <Gold.Chemscore.ZeroCoef>
-5.4800

> <Gold.Chemscore.Hbond>
1.8757

> <Gold.Chemscore.Metal>
0.0000

> <Gold.Chemscore.Lipo>
102.1691

> <Gold.Chemscore.Internal_Hbond>
0.0000

> <Gold.Chemscore.DEClash>
0.1851

> <Gold.Chemscore.DEInternal>
0.7781

> <Gold.Chemscore.Rot>
3.0278

> <Gold.Chemscore.Internal.Correction>
   9.000000E+99

> <Gold.Chemscore.Hbonds>
donor molecule, donor type, donor heavy atom, donor atom, acceptor molecule, acceptor atom, score
      L1  H    11    36       P1  7948  0.91
      L1  H    15    44       P1  8028  0.91

> <Gold.Chemscore.Hbond.Weighted>
-6.2650

> <Gold.Chemscore.Metal.Weighted>
-0.0000

> <Gold.Chemscore.Lipo.Weighted>
-11.9538

> <Gold.Chemscore.Internal_Hbond.Weighted>
0.0000

> <Gold.Chemscore.DEClash.Weighted>
0.1851

> <Gold.Chemscore.DEInternal.Weighted>
0.7781

> <Gold.Chemscore.Rot.Weighted>
7.7512

> <Gold.Chemscore.Internal.Correction.Weighted>
   9.000000E+99

> <Gold.Protein.RotatedTorsions>
[ 6907 6896 6895 6894 ] final   -3.48 input  -60.11 | X-H torsion
[ 7974 7965 7964 7962 ] final   69.51 input  175.53 | X-H torsion
[ 8008 7997 7996 7995 ] final    9.26 input   59.86 | X-H torsion
[ 10167 10162 10161 10158 ] final -108.04 input  -65.29 | X-H torsion
[ 10718 10713 10712 10709 ] final   76.45 input   66.30 | X-H torsion
[ 10763 10752 10751 10750 ] final  174.91 input  -60.55 | X-H torsion
[ 11005 11000 10999 10996 ] final -179.63 input  -57.11 | X-H torsion

> <Gold.Protein.ActiveResidues>
 VAL166  LYS551  ARG553  GLY616  TRP617  ASP618  TYR619  PRO620  LYS621  CYS622 
 ASP623  PHE694  ASN695  SER759  ASP760  ASP761  ALA762  ILE779  LEU786  VAL792 
 PHE793  MET794  SER795  GLU796  ALA797  LYS798  CYS799  TRP800  GLU811  SER814 

> <Gold.Protein.RotatedAtoms>
  151.5130  135.1065  159.9858 H   0  0  0  0  0  0  0  0  0  0  0  0  # atno 6907 bound_to 6896
  152.4653  133.7906  159.6910 H   0  0  0  0  0  0  0  0  0  0  0  0  # atno 6908 bound_to 6896
  150.8634  133.7546  159.3010 H   0  0  0  0  0  0  0  0  0  0  0  0  # atno 6909 bound_to 6896
  145.7895  139.2927  143.1219 H   0  0  0  0  0  0  0  0  0  0  0  0  # atno 7974 bound_to 7965
  154.7777  140.2813  155.6088 H   0  0  0  0  0  0  0  0  0  0  0  0  # atno 8008 bound_to 7997
  156.2944  140.2629  156.2523 H   0  0  0  0  0  0  0  0  0  0  0  0  # atno 8009 bound_to 7997
  154.9822  140.0374  157.2272 H   0  0  0  0  0  0  0  0  0  0  0  0  # atno 8010 bound_to 7997
  140.1705  143.4047  152.1358 H   0  0  0  0  0  0  0  0  0  0  0  0  # atno 10167 bound_to 10162
  157.6674  130.9775  150.1499 H   0  0  0  0  0  0  0  0  0  0  0  0  # atno 10718 bound_to 10713
  154.4603  135.2767  155.1717 H   0  0  0  0  0  0  0  0  0  0  0  0  # atno 10763 bound_to 10752
  154.3508  135.6150  153.5645 H   0  0  0  0  0  0  0  0  0  0  0  0  # atno 10764 bound_to 10752
  152.9854  135.5811  154.4964 H   0  0  0  0  0  0  0  0  0  0  0  0  # atno 10765 bound_to 10752
  140.4165  134.6644  157.4642 H   0  0  0  0  0  0  0  0  0  0  0  0  # atno 11005 bound_to 11000
  145.9991  140.8536  143.0027 LP  0  0  0  0  0  0  0  0  0  0  0  0  # atno 17320 bound_to 7965
  144.6784  140.2327  143.7353 LP  0  0  0  0  0  0  0  0  0  0  0  0  # atno 17321 bound_to 7965
  139.5340  144.7190  151.4957 LP  0  0  0  0  0  0  0  0  0  0  0  0  # atno 17342 bound_to 10162
  140.6585  143.8548  150.6861 LP  0  0  0  0  0  0  0  0  0  0  0  0  # atno 17343 bound_to 10162
  156.2301  130.3681  149.8455 LP  0  0  0  0  0  0  0  0  0  0  0  0  # atno 17370 bound_to 10713
  156.6284  130.8655  151.3490 LP  0  0  0  0  0  0  0  0  0  0  0  0  # atno 17371 bound_to 10713
  140.0230  134.6518  155.9212 LP  0  0  0  0  0  0  0  0  0  0  0  0  # atno 17394 bound_to 11000
  141.1801  133.6545  156.4984 LP  0  0  0  0  0  0  0  0  0  0  0  0  # atno 17395 bound_to 11000

$$$$
