AV-unprocessed.smi:3045|AV-procd|sdf|11609|dock3
  -GOLD-   2272016593D 1   1.00000     0.00000
 Structure written by MMmdl.
 35 36  0  0  0  0  0  0  0  0  1 V2000
  145.6716  143.2652  154.5801 C   0  0  0  0  0  0  0  0  0  0  0  0
  146.4651  142.0448  154.5303 N   0  0  0  0  0  0  0  0  0  0  0  0
  147.7207  141.9957  153.8016 C   0  0  0  0  0  0  0  0  0  0  0  0
  148.3276  140.6100  154.1136 C   0  0  1  0  0  0  0  0  0  0  0  0
  149.5855  140.7087  154.9907 C   0  0  0  0  0  0  0  0  0  0  0  0
  150.6438  140.2008  154.6179 O   0  0  0  0  0  0  0  0  0  0  0  0
  149.4535  141.3599  156.1565 N   0  0  0  0  0  0  0  0  0  0  0  0
  150.5198  141.5513  157.1318 C   0  0  0  0  0  0  0  0  0  0  0  0
  151.2834  142.8623  156.8837 C   0  0  0  0  0  0  0  0  0  0  0  0
  151.5307  143.6295  158.1671 C   0  0  0  0  0  0  0  0  0  0  0  0
  152.3006  143.0689  159.2070 C   0  0  0  0  0  0  0  0  0  0  0  0
  152.5057  143.8208  160.3798 C   0  0  0  0  0  0  0  0  0  0  0  0
  151.9310  145.1050  160.4621 C   0  0  0  0  0  0  0  0  0  0  0  0
  151.1934  145.6523  159.4720 N   0  0  0  0  0  0  0  0  0  0  0  0
  151.0010  144.9244  158.3511 C   0  0  0  0  0  0  0  0  0  0  0  0
  147.2025  139.8272  154.8214 C   0  0  0  0  0  0  0  0  0  0  0  0
  146.1297  140.8728  155.0760 C   0  0  0  0  0  0  0  0  0  0  0  0
  145.1035  140.6362  155.7116 O   0  0  0  0  0  0  0  0  0  0  0  0
  144.7352  143.1329  154.0373 H   0  0  0  0  0  0  0  0  0  0  0  0
  146.2082  144.1017  154.1318 H   0  0  0  0  0  0  0  0  0  0  0  0
  145.4374  143.5292  155.6118 H   0  0  0  0  0  0  0  0  0  0  0  0
  147.5224  142.1004  152.7342 H   0  0  0  0  0  0  0  0  0  0  0  0
  148.3674  142.8233  154.0991 H   0  0  0  0  0  0  0  0  0  0  0  0
  148.5858  140.1106  153.1780 H   0  0  0  0  0  0  0  0  0  0  0  0
  148.5498  141.7477  156.3857 H   0  0  0  0  0  0  0  0  0  0  0  0
  150.1091  141.5316  158.1429 H   0  0  0  0  0  0  0  0  0  0  0  0
  151.2019  140.7040  157.0571 H   0  0  0  0  0  0  0  0  0  0  0  0
  152.2401  142.6533  156.4033 H   0  0  0  0  0  0  0  0  0  0  0  0
  150.7280  143.5017  156.1963 H   0  0  0  0  0  0  0  0  0  0  0  0
  152.7279  142.0818  159.1082 H   0  0  0  0  0  0  0  0  0  0  0  0
  153.0894  143.4232  161.1967 H   0  0  0  0  0  0  0  0  0  0  0  0
  152.0683  145.7091  161.3467 H   0  0  0  0  0  0  0  0  0  0  0  0
  150.4081  145.3909  157.5778 H   0  0  0  0  0  0  0  0  0  0  0  0
  146.8017  139.0451  154.1762 H   0  0  0  0  0  0  0  0  0  0  0  0
  147.5120  139.3632  155.7594 H   0  0  0  0  0  0  0  0  0  0  0  0
  1  2  1  0  0  0  0
  1 19  1  0  0  0  0
  1 20  1  0  0  0  0
  1 21  1  0  0  0  0
  2 17  1  0  0  0  0
  2  3  1  0  0  0  0
  3  4  1  0  0  0  0
  3 22  1  0  0  0  0
  3 23  1  0  0  0  0
  4  5  1  0  0  0  0
  4 16  1  0  0  0  0
  4 24  1  0  0  0  0
  5  6  2  0  0  0  0
  5  7  1  0  0  0  0
  7  8  1  0  0  0  0
  7 25  1  0  0  0  0
  8  9  1  0  0  0  0
  8 26  1  0  0  0  0
  8 27  1  0  0  0  0
  9 10  1  0  0  0  0
  9 28  1  0  0  0  0
  9 29  1  0  0  0  0
 10 15  1  0  0  0  0
 10 11  2  0  0  0  0
 11 12  1  0  0  0  0
 11 30  1  0  0  0  0
 12 13  2  0  0  0  0
 12 31  1  0  0  0  0
 13 14  1  0  0  0  0
 13 32  1  0  0  0  0
 14 15  2  0  0  0  0
 15 33  1  0  0  0  0
 16 17  1  0  0  0  0
 16 34  1  0  0  0  0
 16 35  1  0  0  0  0
 17 18  2  0  0  0  0
M  END
> <s_m_source_file>
AV-unprocessed.smi

> <i_m_source_file_index>
3045

> <i_lp_mmshare_version>
43012

> <i_f3d_flags>
0

> <s_epik_input>
W0NIM11OMVtDSDJdW0NASF0oW0NIMl1DMT1PKUMoPU8pW05IXVtDSDJdW0NIMl1jMltjSF1bY0hdW2NIXW5bY0hdMg==

> <s_epik_cmdline>
J2VwaWtfcHl0aG9uJywgJy1waCcsICc3LjAnLCAnLXRuJywgJzgnLCAnLW1hJywgJzIwMCcsICctbWV0YWxfYmluZGluZycsICctaW1hZScsICc8aW5maWxlLm1hZT4nLCAnLW9tYWUnLCAnPG91dGZpbGUubWFlPic=

> <r_epik_Ionization_Penalty>
0.0130932

> <r_epik_Ionization_Penalty_Charging>
0

> <r_epik_Ionization_Penalty_Neutral>
0.0130932

> <r_epik_State_Penalty>
0.0101714

> <r_epik_Charging_Adjusted_Penalty>
0.0101714

> <i_epik_Tot_Q>
0

> <i_epik_Tot_abs_Q>
0

> <r_epik_Metal_State_Penalty>
0.00995082

> <b_epik_Metal_Only>
0

> <s_lp_Force_Field>
OPLS_2005

> <r_lp_Energy>
9.14953

> <b_lp_Chiralities_Consistent>
1

> <s_lp_Variant>
AV-unprocessed.smi:3045-1

> <Gold.Version>
5.8.1

> <Gold.Id.Protein>
6NUR|6NUR_protein|mol2

> <Gold.PLP.Fitness>
43.4362

> <Gold.PLP.PLP>
-39.2862

> <Gold.PLP.part.hbond>
-2.2550

> <Gold.PLP.part.metal>
0.0000

> <Gold.PLP.part.buried>
-5.5981

> <Gold.PLP.part.nonpolar>
-31.8854

> <Gold.PLP.part.repulsive>
0.4244

> <Gold.PLP.ligand.clash>
0.0000

> <Gold.PLP.ligand.torsion>
0.5320

> <Gold.PLP.Chemscore.Hbond>
1.0000

> <Gold.PLP.Chemscore.CHOScore>
0.7339

> <Gold.PLP.Chemscore.Metal>
0.0000

> <Gold.Chemscore.Hbonds>
donor molecule, donor type, donor heavy atom, donor atom, acceptor molecule, acceptor atom, score
      P1  H  7989  7998       L1     6  1.00
      L1  C    15    33       P1  8028  0.46
      L1  C    15    33       P1  8029  0.27

> <Gold.PLP.Chemscore.Internal.Correction>
0.0124

> <Gold.Rescore>
     Score         DG    S(hbond)    S(metal)    S(lipo)     H(rot)  DE(clash)    DE(int)     intcor
     15.46     -15.97       0.99        0.00      96.96       1.62       0.03       0.48       ----

> <Gold.Chemscore.Fitness>
15.4604

> <Gold.Chemscore.DG>
-15.9723

> <Gold.Chemscore.ZeroCoef>
-5.4800

> <Gold.Chemscore.Hbond>
0.9872

> <Gold.Chemscore.Metal>
0.0000

> <Gold.Chemscore.Lipo>
96.9632

> <Gold.Chemscore.Internal_Hbond>
0.0000

> <Gold.Chemscore.DEClash>
0.0295

> <Gold.Chemscore.DEInternal>
0.4824

> <Gold.Chemscore.Rot>
1.6210

> <Gold.Chemscore.Internal.Correction>
   9.000000E+99

> <Gold.Chemscore.Hbonds>
donor molecule, donor type, donor heavy atom, donor atom, acceptor molecule, acceptor atom, score
      P1  H  7989  7998       L1     6  0.99

> <Gold.Chemscore.Hbond.Weighted>
-3.2974

> <Gold.Chemscore.Metal.Weighted>
-0.0000

> <Gold.Chemscore.Lipo.Weighted>
-11.3447

> <Gold.Chemscore.Internal_Hbond.Weighted>
0.0000

> <Gold.Chemscore.DEClash.Weighted>
0.0295

> <Gold.Chemscore.DEInternal.Weighted>
0.4824

> <Gold.Chemscore.Rot.Weighted>
4.1498

> <Gold.Chemscore.Internal.Correction.Weighted>
   9.000000E+99

> <Gold.Protein.RotatedTorsions>
[ 6907 6896 6895 6894 ] final   40.31 input  -60.11 | X-H torsion
[ 7974 7965 7964 7962 ] final   51.70 input  175.53 | X-H torsion
[ 8008 7997 7996 7995 ] final  -16.08 input   59.86 | X-H torsion
[ 10167 10162 10161 10158 ] final  -34.89 input  -65.29 | X-H torsion
[ 10718 10713 10712 10709 ] final   61.67 input   66.30 | X-H torsion
[ 10763 10752 10751 10750 ] final  132.20 input  -60.55 | X-H torsion
[ 11005 11000 10999 10996 ] final   60.87 input  -57.11 | X-H torsion

> <Gold.Protein.ActiveResidues>
 VAL166  LYS551  ARG553  GLY616  TRP617  ASP618  TYR619  PRO620  LYS621  CYS622 
 ASP623  PHE694  ASN695  SER759  ASP760  ASP761  ALA762  ILE779  LEU786  VAL792 
 PHE793  MET794  SER795  GLU796  ALA797  LYS798  CYS799  TRP800  GLU811  SER814 

> <Gold.Protein.RotatedAtoms>
  152.1809  134.8755  160.0526 H   0  0  0  0  0  0  0  0  0  0  0  0  # atno 6907 bound_to 6896
  151.9679  133.3711  159.4068 H   0  0  0  0  0  0  0  0  0  0  0  0  # atno 6908 bound_to 6896
  150.6917  134.4094  159.5199 H   0  0  0  0  0  0  0  0  0  0  0  0  # atno 6909 bound_to 6896
  145.9887  139.4317  143.0087 H   0  0  0  0  0  0  0  0  0  0  0  0  # atno 7974 bound_to 7965
  154.5080  140.2179  155.9212 H   0  0  0  0  0  0  0  0  0  0  0  0  # atno 8008 bound_to 7997
  156.1518  140.3160  155.8626 H   0  0  0  0  0  0  0  0  0  0  0  0  # atno 8009 bound_to 7997
  155.3924  140.0479  157.3031 H   0  0  0  0  0  0  0  0  0  0  0  0  # atno 8010 bound_to 7997
  140.7176  143.3516  151.2145 H   0  0  0  0  0  0  0  0  0  0  0  0  # atno 10167 bound_to 10162
  157.5845  130.9008  149.9491 H   0  0  0  0  0  0  0  0  0  0  0  0  # atno 10718 bound_to 10713
  153.7868  135.3160  155.3373 H   0  0  0  0  0  0  0  0  0  0  0  0  # atno 10763 bound_to 10752
  154.8141  135.4648  154.0597 H   0  0  0  0  0  0  0  0  0  0  0  0  # atno 10764 bound_to 10752
  153.1903  135.6907  153.8447 H   0  0  0  0  0  0  0  0  0  0  0  0  # atno 10765 bound_to 10752
  140.0201  134.6166  155.9652 H   0  0  0  0  0  0  0  0  0  0  0  0  # atno 11005 bound_to 11000
  145.7662  140.9915  143.1174 LP  0  0  0  0  0  0  0  0  0  0  0  0  # atno 17320 bound_to 7965
  144.6882  139.9391  143.7474 LP  0  0  0  0  0  0  0  0  0  0  0  0  # atno 17321 bound_to 7965
  139.7048  143.9474  152.2921 LP  0  0  0  0  0  0  0  0  0  0  0  0  # atno 17342 bound_to 10162
  139.9179  144.6817  150.8493 LP  0  0  0  0  0  0  0  0  0  0  0  0  # atno 17343 bound_to 10162
  156.0893  130.3665  150.0426 LP  0  0  0  0  0  0  0  0  0  0  0  0  # atno 17370 bound_to 10713
  156.8559  130.9475  151.3622 LP  0  0  0  0  0  0  0  0  0  0  0  0  # atno 17371 bound_to 10713
  141.1768  133.6541  156.4861 LP  0  0  0  0  0  0  0  0  0  0  0  0  # atno 17394 bound_to 11000
  140.4402  134.7022  157.4988 LP  0  0  0  0  0  0  0  0  0  0  0  0  # atno 17395 bound_to 11000

$$$$
