AV-unprocessed.smi:99|AV-procd|sdf|876|dock9
  -GOLD-   2262017343D 1   1.00000     0.00000
 Structure written by MMmdl.
 53 56  0  0  0  0  0  0  0  0  1 V2000
  148.1264  137.5973  160.2823 O   0  0  0  0  0  0  0  0  0  0  0  0
  148.1880  136.3704  160.1782 C   0  0  0  0  0  0  0  0  0  0  0  0
  148.9948  135.7367  159.3043 O   0  0  0  0  0  0  0  0  0  0  0  0
  149.5237  136.4396  158.1923 C   0  0  0  0  0  0  0  0  0  0  0  0
  150.4875  137.5294  158.6872 C   0  0  1  0  0  0  0  0  0  0  0  0
  151.6652  136.9163  159.1978 O   0  0  0  0  0  0  0  0  0  0  0  0
  152.6034  136.7604  158.1800 C   0  0  2  0  0  0  0  0  0  0  0  0
  153.9662  137.0369  158.7843 N   0  0  0  0  0  0  0  0  0  0  0  0
  154.1267  137.1895  160.1569 C   0  0  0  0  0  0  0  0  0  0  0  0
  155.3311  137.3508  160.7537 C   0  0  0  0  0  0  0  0  0  0  0  0
  156.5551  137.3443  159.9614 C   0  0  0  0  0  0  0  0  0  0  0  0
  157.6903  137.4975  160.4071 O   0  0  0  0  0  0  0  0  0  0  0  0
  156.3568  137.1328  158.5945 N   0  0  0  0  0  0  0  0  0  0  0  0
  155.1208  136.9511  157.9711 C   0  0  0  0  0  0  0  0  0  0  0  0
  155.0791  136.7334  156.7606 O   0  0  0  0  0  0  0  0  0  0  0  0
  152.2357  137.7156  157.0266 C   0  0  1  0  0  0  0  0  0  0  0  0
  151.9141  137.0225  155.8369 O   0  0  0  0  0  0  0  0  0  0  0  0
  150.9876  138.4256  157.5493 C   0  0  2  0  0  0  0  0  0  0  0  0
  151.3042  139.7073  158.0783 O   0  0  0  0  0  0  0  0  0  0  0  0
  151.3108  140.8036  157.2905 C   0  0  0  0  0  0  0  0  0  0  0  0
  151.0629  140.7797  156.0836 O   0  0  0  0  0  0  0  0  0  0  0  0
  151.6608  142.0463  158.0360 C   0  0  0  0  0  0  0  0  0  0  0  0
  152.2243  141.9440  159.3293 C   0  0  0  0  0  0  0  0  0  0  0  0
  152.5616  143.1012  160.0579 C   0  0  0  0  0  0  0  0  0  0  0  0
  152.3386  144.3748  159.5028 C   0  0  0  0  0  0  0  0  0  0  0  0
  151.7771  144.4900  158.2178 C   0  0  0  0  0  0  0  0  0  0  0  0
  151.4394  143.3340  157.4873 C   0  0  0  0  0  0  0  0  0  0  0  0
  147.3772  135.4326  161.0073 C   0  0  0  0  0  0  0  0  0  0  0  0
  147.4740  134.0408  160.7734 C   0  0  0  0  0  0  0  0  0  0  0  0
  146.7206  133.1303  161.5397 C   0  0  0  0  0  0  0  0  0  0  0  0
  145.8608  133.6006  162.5493 C   0  0  0  0  0  0  0  0  0  0  0  0
  145.7560  134.9825  162.7923 C   0  0  0  0  0  0  0  0  0  0  0  0
  146.5089  135.8945  162.0270 C   0  0  0  0  0  0  0  0  0  0  0  0
  157.1789  137.0949  158.0095 H   0  0  0  0  0  0  0  0  0  0  0  0
  150.0274  135.7532  157.5104 H   0  0  0  0  0  0  0  0  0  0  0  0
  148.6991  136.8982  157.6448 H   0  0  0  0  0  0  0  0  0  0  0  0
  149.9966  138.1187  159.4632 H   0  0  0  0  0  0  0  0  0  0  0  0
  152.5968  135.7229  157.8424 H   0  0  0  0  0  0  0  0  0  0  0  0
  153.2627  137.1728  160.8012 H   0  0  0  0  0  0  0  0  0  0  0  0
  155.3896  137.4761  161.8255 H   0  0  0  0  0  0  0  0  0  0  0  0
  153.0479  138.4024  156.7893 H   0  0  0  0  0  0  0  0  0  0  0  0
  151.6775  137.6530  155.1740 H   0  0  0  0  0  0  0  0  0  0  0  0
  150.2195  138.5344  156.7812 H   0  0  0  0  0  0  0  0  0  0  0  0
  152.4049  140.9768  159.7763 H   0  0  0  0  0  0  0  0  0  0  0  0
  152.9924  143.0109  161.0442 H   0  0  0  0  0  0  0  0  0  0  0  0
  152.5977  145.2620  160.0617 H   0  0  0  0  0  0  0  0  0  0  0  0
  151.6043  145.4671  157.7909 H   0  0  0  0  0  0  0  0  0  0  0  0
  151.0084  143.4591  156.5044 H   0  0  0  0  0  0  0  0  0  0  0  0
  148.1269  133.6562  160.0032 H   0  0  0  0  0  0  0  0  0  0  0  0
  146.8026  132.0699  161.3519 H   0  0  0  0  0  0  0  0  0  0  0  0
  145.2823  132.9020  163.1359 H   0  0  0  0  0  0  0  0  0  0  0  0
  145.0964  135.3446  163.5672 H   0  0  0  0  0  0  0  0  0  0  0  0
  146.4045  136.9486  162.2395 H   0  0  0  0  0  0  0  0  0  0  0  0
  1  2  2  0  0  0  0
  2  3  1  0  0  0  0
  2 28  1  0  0  0  0
  3  4  1  0  0  0  0
  4  5  1  0  0  0  0
  4 35  1  0  0  0  0
  4 36  1  0  0  0  0
  5 18  1  0  0  0  0
  5  6  1  0  0  0  0
  5 37  1  0  0  0  0
  6  7  1  0  0  0  0
  7  8  1  0  0  0  0
  7 16  1  0  0  0  0
  7 38  1  0  0  0  0
  8 14  1  0  0  0  0
  8  9  1  0  0  0  0
  9 10  2  0  0  0  0
  9 39  1  0  0  0  0
 10 11  1  0  0  0  0
 10 40  1  0  0  0  0
 11 12  2  0  0  0  0
 11 13  1  0  0  0  0
 13 34  1  0  0  0  0
 13 14  1  0  0  0  0
 14 15  2  0  0  0  0
 16 17  1  0  0  0  0
 16 18  1  0  0  0  0
 16 41  1  0  0  0  0
 17 42  1  0  0  0  0
 18 19  1  0  0  0  0
 18 43  1  0  0  0  0
 19 20  1  0  0  0  0
 20 21  2  0  0  0  0
 20 22  1  0  0  0  0
 22 27  1  0  0  0  0
 22 23  2  0  0  0  0
 23 24  1  0  0  0  0
 23 44  1  0  0  0  0
 24 25  2  0  0  0  0
 24 45  1  0  0  0  0
 25 26  1  0  0  0  0
 25 46  1  0  0  0  0
 26 27  2  0  0  0  0
 26 47  1  0  0  0  0
 27 48  1  0  0  0  0
 28 33  1  0  0  0  0
 28 29  2  0  0  0  0
 29 30  1  0  0  0  0
 29 49  1  0  0  0  0
 30 31  2  0  0  0  0
 30 50  1  0  0  0  0
 31 32  1  0  0  0  0
 31 51  1  0  0  0  0
 32 33  2  0  0  0  0
 32 52  1  0  0  0  0
 33 53  1  0  0  0  0
M  END
> <s_m_source_file>
AV-unprocessed.smi

> <i_m_source_file_index>
99

> <i_lp_mmshare_version>
43012

> <i_f3d_flags>
0

> <s_epik_input>
W2NIXTFbY0hdW2NIXVtjSF1bY0hdYzFDKD1PKU9bQ0gyXVtDQEBIXTJPW0NAQEhdKG4zW2NIXVtjSF1jKD1PKVtuSF1jMz1PKVtDQEBIXShbT0hdKVtDQEhdMk9DKD1PKWM0W2NIXVtjSF1bY0hdW2NIXVtjSF00

> <s_epik_cmdline>
J2VwaWtfcHl0aG9uJywgJy1waCcsICc3LjAnLCAnLXRuJywgJzgnLCAnLW1hJywgJzIwMCcsICctbWV0YWxfYmluZGluZycsICctaW1hZScsICc8aW5maWxlLm1hZT4nLCAnLW9tYWUnLCAnPG91dGZpbGUubWFlPic=

> <r_lp_tautomer_probability>
1

> <r_epik_Ionization_Penalty>
0.00454555

> <r_epik_Ionization_Penalty_Charging>
0.0045191

> <r_epik_Ionization_Penalty_Neutral>
2.64449e-05

> <r_epik_State_Penalty>
-0

> <r_epik_Charging_Adjusted_Penalty>
0.0045191

> <i_epik_Tot_Q>
0

> <i_epik_Tot_abs_Q>
0

> <r_epik_Metal_State_Penalty>
1.27877

> <b_epik_Metal_Only>
0

> <s_epik_Chemistry_Notes>
This compound has an ester and may undergo hydrolysis at high or low pH. This compound contains an acetal/aminal-like group ( X-CH(R)-Y where X, Y are N, S, or O) that may be acid/base labile, releasing an aldehyde.

> <s_lp_Force_Field>
OPLS_2005

> <r_lp_Energy>
32.4523

> <b_lp_Chiralities_Consistent>
1

> <s_lp_Variant>
AV-unprocessed.smi:99-12

> <Gold.Version>
5.8.1

> <Gold.Id.Protein>
6NUR|6NUR_protein|mol2

> <Gold.PLP.Fitness>
61.5567

> <Gold.PLP.PLP>
-51.6806

> <Gold.PLP.part.hbond>
-6.0000

> <Gold.PLP.part.metal>
0.0000

> <Gold.PLP.part.buried>
-7.0528

> <Gold.PLP.part.nonpolar>
-39.9990

> <Gold.PLP.part.repulsive>
0.1550

> <Gold.PLP.ligand.clash>
0.0000

> <Gold.PLP.ligand.torsion>
0.7790

> <Gold.PLP.Chemscore.Hbond>
3.6953

> <Gold.PLP.Chemscore.CHOScore>
0.0000

> <Gold.PLP.Chemscore.Metal>
0.0000

> <Gold.Chemscore.Hbonds>
donor molecule, donor type, donor heavy atom, donor atom, acceptor molecule, acceptor atom, score
      P1  H  6896  6907       L1     6  1.00
      P1  H  6931  6943       L1     1  0.50
      P1  H  6934  6947       L1     1  0.58
      P1  H 10752 10763       L1    15  0.39
      P1  H 10752 10765       L1    17  0.80

> <Gold.PLP.Chemscore.Internal.Correction>
0.3484

> <Gold.Rescore>
     Score         DG    S(hbond)    S(metal)    S(lipo)     H(rot)  DE(clash)    DE(int)     intcor
     19.18     -22.36       2.84        0.00     133.16       3.19       0.31       2.88       ----

> <Gold.Chemscore.Fitness>
19.1775

> <Gold.Chemscore.DG>
-22.3633

> <Gold.Chemscore.ZeroCoef>
-5.4800

> <Gold.Chemscore.Hbond>
2.8355

> <Gold.Chemscore.Metal>
0.0000

> <Gold.Chemscore.Lipo>
133.1620

> <Gold.Chemscore.Internal_Hbond>
0.0000

> <Gold.Chemscore.DEClash>
0.3092

> <Gold.Chemscore.DEInternal>
2.8766

> <Gold.Chemscore.Rot>
3.1903

> <Gold.Chemscore.Internal.Correction>
   9.000000E+99

> <Gold.Chemscore.Hbonds>
donor molecule, donor type, donor heavy atom, donor atom, acceptor molecule, acceptor atom, score
      P1  H  6896  6907       L1     6  0.42
      P1  H  6931  6943       L1     1  0.42
      P1  H  6934  6947       L1     1  0.58
      P1  H 10752 10763       L1    15  0.39
      P1  H 10752 10765       L1    17  0.26

> <Gold.Chemscore.Hbond.Weighted>
-9.4705

> <Gold.Chemscore.Metal.Weighted>
-0.0000

> <Gold.Chemscore.Lipo.Weighted>
-15.5800

> <Gold.Chemscore.Internal_Hbond.Weighted>
0.0000

> <Gold.Chemscore.DEClash.Weighted>
0.3092

> <Gold.Chemscore.DEInternal.Weighted>
2.8766

> <Gold.Chemscore.Rot.Weighted>
8.1671

> <Gold.Chemscore.Internal.Correction.Weighted>
   9.000000E+99

> <Gold.Protein.RotatedTorsions>
[ 6907 6896 6895 6894 ] final   -4.12 input  -60.11 | X-H torsion
[ 7974 7965 7964 7962 ] final -157.24 input  175.53 | X-H torsion
[ 8008 7997 7996 7995 ] final  167.24 input   59.86 | X-H torsion
[ 10167 10162 10161 10158 ] final  -26.43 input  -65.29 | X-H torsion
[ 10718 10713 10712 10709 ] final  103.79 input   66.30 | X-H torsion
[ 10763 10752 10751 10750 ] final -173.37 input  -60.55 | X-H torsion
[ 11005 11000 10999 10996 ] final  103.00 input  -57.11 | X-H torsion

> <Gold.Protein.ActiveResidues>
 VAL166  LYS551  ARG553  GLY616  TRP617  ASP618  TYR619  PRO620  LYS621  CYS622 
 ASP623  PHE694  ASN695  SER759  ASP760  ASP761  ALA762  ILE779  LEU786  VAL792 
 PHE793  MET794  SER795  GLU796  ALA797  LYS798  CYS799  TRP800  GLU811  SER814 

> <Gold.Protein.RotatedAtoms>
  151.5028  135.1062  159.9833 H   0  0  0  0  0  0  0  0  0  0  0  0  # atno 6907 bound_to 6896
  152.4694  133.7992  159.6954 H   0  0  0  0  0  0  0  0  0  0  0  0  # atno 6908 bound_to 6896
  150.8695  133.7462  159.2991 H   0  0  0  0  0  0  0  0  0  0  0  0  # atno 6909 bound_to 6896
  144.7557  140.3996  143.6014 H   0  0  0  0  0  0  0  0  0  0  0  0  # atno 7974 bound_to 7965
  156.1650  140.1622  156.8546 H   0  0  0  0  0  0  0  0  0  0  0  0  # atno 8008 bound_to 7997
  154.5199  140.0781  156.8186 H   0  0  0  0  0  0  0  0  0  0  0  0  # atno 8009 bound_to 7997
  155.3629  140.3396  155.4243 H   0  0  0  0  0  0  0  0  0  0  0  0  # atno 8010 bound_to 7997
  140.7283  143.4179  151.0999 H   0  0  0  0  0  0  0  0  0  0  0  0  # atno 10167 bound_to 10162
  157.6761  131.0788  150.5608 H   0  0  0  0  0  0  0  0  0  0  0  0  # atno 10718 bound_to 10713
  154.6086  135.2862  155.0457 H   0  0  0  0  0  0  0  0  0  0  0  0  # atno 10763 bound_to 10752
  154.1695  135.6475  153.5009 H   0  0  0  0  0  0  0  0  0  0  0  0  # atno 10764 bound_to 10752
  153.0186  135.5397  154.6832 H   0  0  0  0  0  0  0  0  0  0  0  0  # atno 10765 bound_to 10752
  139.8781  134.9246  156.5143 H   0  0  0  0  0  0  0  0  0  0  0  0  # atno 11005 bound_to 11000
  145.6789  139.1614  143.2712 LP  0  0  0  0  0  0  0  0  0  0  0  0  # atno 17320 bound_to 7965
  146.1563  140.6852  142.9298 LP  0  0  0  0  0  0  0  0  0  0  0  0  # atno 17321 bound_to 7965
  139.7820  143.8341  152.3139 LP  0  0  0  0  0  0  0  0  0  0  0  0  # atno 17342 bound_to 10162
  139.8295  144.7260  150.9468 LP  0  0  0  0  0  0  0  0  0  0  0  0  # atno 17343 bound_to 10162
  156.5911  130.4329  149.5936 LP  0  0  0  0  0  0  0  0  0  0  0  0  # atno 17370 bound_to 10713
  156.2582  130.6947  151.1707 LP  0  0  0  0  0  0  0  0  0  0  0  0  # atno 17371 bound_to 10713
  140.8497  133.8141  155.9156 LP  0  0  0  0  0  0  0  0  0  0  0  0  # atno 17394 bound_to 11000
  140.9156  134.2205  157.4958 LP  0  0  0  0  0  0  0  0  0  0  0  0  # atno 17395 bound_to 11000

$$$$
