AV-unprocessed.smi:2001|AV-procd|sdf|8103|dock2
  -GOLD-   2272010323D 1   1.00000     0.00000
 Structure written by MMmdl.
 50 51  0  0  0  0  0  0  0  0  1 V2000
  152.8384  131.0545  155.7297 C   0  0  0  0  0  0  0  0  0  0  0  0
  151.6152  131.4107  155.1094 O   0  0  0  0  0  0  0  0  0  0  0  0
  151.2426  132.7522  155.3755 C   0  0  0  0  0  0  0  0  0  0  0  0
  150.2157  133.2016  154.3248 C   0  0  0  0  0  0  0  0  0  0  0  0
  149.7108  134.5493  154.6065 N   0  0  0  0  0  0  0  0  0  0  0  0
  150.7035  135.4910  154.8225 N   0  0  0  0  0  0  0  0  0  0  0  0
  150.3890  136.7177  155.0882 C   0  0  0  0  0  0  0  0  0  0  0  0
  151.4247  137.7625  155.3204 C   0  0  0  0  0  0  0  0  0  0  0  0
  152.6013  137.5958  154.9944 O   0  0  0  0  0  0  0  0  0  0  0  0
  150.9855  138.8894  155.9091 N   0  0  0  0  0  0  0  0  0  0  0  0
  151.8182  140.0365  156.2468 C   0  0  0  0  0  0  0  0  0  0  0  0
  152.2361  140.0060  157.7284 C   0  0  0  0  0  0  0  0  0  0  0  0
  152.3500  141.3190  158.3603 N   0  0  0  0  0  0  0  0  0  0  0  0
  152.6052  141.1909  159.7894 C   0  0  0  0  0  0  0  0  0  0  0  0
  152.7738  142.5619  160.4685 C   0  0  2  0  0  0  0  0  0  0  0  0
  152.9652  142.4351  161.9835 C   0  0  0  0  0  0  0  0  0  0  0  0
  151.6099  143.3517  160.2327 O   0  0  0  0  0  0  0  0  0  0  0  0
  151.2498  143.5108  158.8595 C   0  0  1  0  0  0  0  0  0  0  0  0
  152.1843  144.4942  158.1348 C   0  0  0  0  0  0  0  0  0  0  0  0
  151.1541  142.1369  158.1655 C   0  0  0  0  0  0  0  0  0  0  0  0
  148.9973  137.1285  155.1682 C   0  0  0  0  0  0  0  0  0  0  0  0
  148.0404  136.1988  154.9549 C   0  0  0  0  0  0  0  0  0  0  0  0
  148.3686  134.8052  154.6519 C   0  0  0  0  0  0  0  0  0  0  0  0
  147.5153  133.9397  154.4583 O   0  0  0  0  0  0  0  0  0  0  0  0
  153.0822  130.0191  155.4918 H   0  0  0  0  0  0  0  0  0  0  0  0
  152.7706  131.1427  156.8148 H   0  0  0  0  0  0  0  0  0  0  0  0
  153.6575  131.6829  155.3774 H   0  0  0  0  0  0  0  0  0  0  0  0
  150.8187  132.8270  156.3780 H   0  0  0  0  0  0  0  0  0  0  0  0
  152.1225  133.3965  155.3403 H   0  0  0  0  0  0  0  0  0  0  0  0
  150.6759  133.1762  153.3353 H   0  0  0  0  0  0  0  0  0  0  0  0
  149.3904  132.4888  154.2792 H   0  0  0  0  0  0  0  0  0  0  0  0
  150.0052  138.9504  156.1446 H   0  0  0  0  0  0  0  0  0  0  0  0
  152.7042  140.0112  155.6119 H   0  0  0  0  0  0  0  0  0  0  0  0
  151.2843  140.9543  155.9989 H   0  0  0  0  0  0  0  0  0  0  0  0
  151.5418  139.3851  158.2970 H   0  0  0  0  0  0  0  0  0  0  0  0
  153.2027  139.5033  157.7864 H   0  0  0  0  0  0  0  0  0  0  0  0
  151.7871  140.6456  160.2633 H   0  0  0  0  0  0  0  0  0  0  0  0
  153.5076  140.5996  159.9508 H   0  0  0  0  0  0  0  0  0  0  0  0
  153.6458  143.0687  160.0541 H   0  0  0  0  0  0  0  0  0  0  0  0
  153.8515  141.8454  162.2184 H   0  0  0  0  0  0  0  0  0  0  0  0
  152.1069  141.9517  162.4509 H   0  0  0  0  0  0  0  0  0  0  0  0
  153.0871  143.4157  162.4442 H   0  0  0  0  0  0  0  0  0  0  0  0
  150.2551  143.9572  158.8547 H   0  0  0  0  0  0  0  0  0  0  0  0
  151.8284  144.6928  157.1236 H   0  0  0  0  0  0  0  0  0  0  0  0
  153.2006  144.1095  158.0518 H   0  0  0  0  0  0  0  0  0  0  0  0
  152.2294  145.4474  158.6617 H   0  0  0  0  0  0  0  0  0  0  0  0
  150.9630  142.2925  157.1045 H   0  0  0  0  0  0  0  0  0  0  0  0
  150.2860  141.6052  158.5584 H   0  0  0  0  0  0  0  0  0  0  0  0
  148.7258  138.1504  155.3898 H   0  0  0  0  0  0  0  0  0  0  0  0
  147.0018  136.4903  155.0093 H   0  0  0  0  0  0  0  0  0  0  0  0
  1  2  1  0  0  0  0
  1 25  1  0  0  0  0
  1 26  1  0  0  0  0
  1 27  1  0  0  0  0
  2  3  1  0  0  0  0
  3  4  1  0  0  0  0
  3 28  1  0  0  0  0
  3 29  1  0  0  0  0
  4  5  1  0  0  0  0
  4 30  1  0  0  0  0
  4 31  1  0  0  0  0
  5 23  1  0  0  0  0
  5  6  1  0  0  0  0
  6  7  2  0  0  0  0
  7  8  1  0  0  0  0
  7 21  1  0  0  0  0
  8  9  2  0  0  0  0
  8 10  1  0  0  0  0
 10 11  1  0  0  0  0
 10 32  1  0  0  0  0
 11 12  1  0  0  0  0
 11 33  1  0  0  0  0
 11 34  1  0  0  0  0
 12 13  1  0  0  0  0
 12 35  1  0  0  0  0
 12 36  1  0  0  0  0
 13 20  1  0  0  0  0
 13 14  1  0  0  0  0
 14 15  1  0  0  0  0
 14 37  1  0  0  0  0
 14 38  1  0  0  0  0
 15 16  1  0  0  0  0
 15 17  1  0  0  0  0
 15 39  1  0  0  0  0
 16 40  1  0  0  0  0
 16 41  1  0  0  0  0
 16 42  1  0  0  0  0
 17 18  1  0  0  0  0
 18 19  1  0  0  0  0
 18 20  1  0  0  0  0
 18 43  1  0  0  0  0
 19 44  1  0  0  0  0
 19 45  1  0  0  0  0
 19 46  1  0  0  0  0
 20 47  1  0  0  0  0
 20 48  1  0  0  0  0
 21 22  2  0  0  0  0
 21 49  1  0  0  0  0
 22 23  1  0  0  0  0
 22 50  1  0  0  0  0
 23 24  2  0  0  0  0
M  END
> <s_m_source_file>
AV-unprocessed.smi

> <i_m_source_file_index>
2001

> <i_lp_mmshare_version>
43012

> <i_f3d_flags>
0

> <s_epik_input>
W0NIM11PW0NIMl1bQ0gyXW4xbmMoW2NIXVtjSF1jMT1PKUMoPU8pW05IXVtDSDJdW0NIMl1OMltDSDJdW0NAQEhdKFtDSDNdKU9bQ0BASF0oW0NIM10pW0NIMl0y

> <s_epik_cmdline>
J2VwaWtfcHl0aG9uJywgJy1waCcsICc3LjAnLCAnLXRuJywgJzgnLCAnLW1hJywgJzIwMCcsICctbWV0YWxfYmluZGluZycsICctaW1hZScsICc8aW5maWxlLm1hZT4nLCAnLW9tYWUnLCAnPG91dGZpbGUubWFlPic=

> <r_lp_tautomer_probability>
1

> <r_epik_Ionization_Penalty>
0.206669

> <r_epik_Ionization_Penalty_Charging>
5.55992e-09

> <r_epik_Ionization_Penalty_Neutral>
0.206669

> <r_epik_State_Penalty>
0.196651

> <r_epik_Charging_Adjusted_Penalty>
0.196651

> <i_epik_Tot_Q>
0

> <i_epik_Tot_abs_Q>
0

> <r_epik_Metal_State_Penalty>
0.198372

> <b_epik_Metal_Only>
0

> <s_lp_Force_Field>
OPLS_2005

> <r_lp_Energy>
40.7423

> <b_lp_Chiralities_Consistent>
1

> <s_lp_Variant>
AV-unprocessed.smi:2001-2

> <Gold.Version>
5.8.1

> <Gold.Id.Protein>
6NUR|6NUR_protein|mol2

> <Gold.PLP.Fitness>
41.8430

> <Gold.PLP.PLP>
-41.0983

> <Gold.PLP.part.hbond>
-1.0000

> <Gold.PLP.part.metal>
0.0000

> <Gold.PLP.part.buried>
-5.2377

> <Gold.PLP.part.nonpolar>
-34.3465

> <Gold.PLP.part.repulsive>
0.3727

> <Gold.PLP.ligand.clash>
0.0000

> <Gold.PLP.ligand.torsion>
0.6946

> <Gold.PLP.Chemscore.Hbond>
0.6240

> <Gold.PLP.Chemscore.CHOScore>
0.0000

> <Gold.PLP.Chemscore.Metal>
0.0000

> <Gold.Chemscore.Hbonds>
donor molecule, donor type, donor heavy atom, donor atom, acceptor molecule, acceptor atom, score
      P1  H 10752 10764       L1     6  0.50

> <Gold.PLP.Chemscore.Internal.Correction>
0.2619

> <Gold.Rescore>
     Score         DG    S(hbond)    S(metal)    S(lipo)     H(rot)  DE(clash)    DE(int)     intcor
     14.00     -14.72       0.71        0.00     102.44       2.00       0.02       0.70       ----

> <Gold.Chemscore.Fitness>
13.9991

> <Gold.Chemscore.DG>
-14.7160

> <Gold.Chemscore.ZeroCoef>
-5.4800

> <Gold.Chemscore.Hbond>
0.7114

> <Gold.Chemscore.Metal>
0.0000

> <Gold.Chemscore.Lipo>
102.4364

> <Gold.Chemscore.Internal_Hbond>
0.0000

> <Gold.Chemscore.DEClash>
0.0155

> <Gold.Chemscore.DEInternal>
0.7014

> <Gold.Chemscore.Rot>
2.0020

> <Gold.Chemscore.Internal.Correction>
   9.000000E+99

> <Gold.Chemscore.Hbonds>
donor molecule, donor type, donor heavy atom, donor atom, acceptor molecule, acceptor atom, score
      P1  H 10752 10764       L1     9  0.37

> <Gold.Chemscore.Hbond.Weighted>
-2.3761

> <Gold.Chemscore.Metal.Weighted>
-0.0000

> <Gold.Chemscore.Lipo.Weighted>
-11.9851

> <Gold.Chemscore.Internal_Hbond.Weighted>
0.0000

> <Gold.Chemscore.DEClash.Weighted>
0.0155

> <Gold.Chemscore.DEInternal.Weighted>
0.7014

> <Gold.Chemscore.Rot.Weighted>
5.1252

> <Gold.Chemscore.Internal.Correction.Weighted>
   9.000000E+99

> <Gold.Protein.RotatedTorsions>
[ 6907 6896 6895 6894 ] final -159.89 input  -60.11 | X-H torsion
[ 7974 7965 7964 7962 ] final  -40.94 input  175.53 | X-H torsion
[ 8008 7997 7996 7995 ] final  -59.14 input   59.86 | X-H torsion
[ 10167 10162 10161 10158 ] final -155.12 input  -65.29 | X-H torsion
[ 10718 10713 10712 10709 ] final -113.33 input   66.30 | X-H torsion
[ 10763 10752 10751 10750 ] final  -62.55 input  -60.55 | X-H torsion
[ 11005 11000 10999 10996 ] final   39.66 input  -57.11 | X-H torsion

> <Gold.Protein.ActiveResidues>
 VAL166  LYS551  ARG553  GLY616  TRP617  ASP618  TYR619  PRO620  LYS621  CYS622 
 ASP623  PHE694  ASN695  SER759  ASP760  ASP761  ALA762  ILE779  LEU786  VAL792 
 PHE793  MET794  SER795  GLU796  ALA797  LYS798  CYS799  TRP800  GLU811  SER814 

> <Gold.Protein.RotatedAtoms>
  151.3405  133.3964  159.2670 H   0  0  0  0  0  0  0  0  0  0  0  0  # atno 6907 bound_to 6896
  150.9881  134.9223  159.7894 H   0  0  0  0  0  0  0  0  0  0  0  0  # atno 6908 bound_to 6896
  152.5239  134.3370  159.9256 H   0  0  0  0  0  0  0  0  0  0  0  0  # atno 6909 bound_to 6896
  146.0257  140.6794  142.9157 H   0  0  0  0  0  0  0  0  0  0  0  0  # atno 7974 bound_to 7965
  154.4339  140.1068  156.6068 H   0  0  0  0  0  0  0  0  0  0  0  0  # atno 8008 bound_to 7997
  155.5852  140.3491  155.4532 H   0  0  0  0  0  0  0  0  0  0  0  0  # atno 8009 bound_to 7997
  156.0288  140.1256  157.0269 H   0  0  0  0  0  0  0  0  0  0  0  0  # atno 8010 bound_to 7997
  139.6957  143.9346  152.2406 H   0  0  0  0  0  0  0  0  0  0  0  0  # atno 10167 bound_to 10162
  156.0760  130.5967  150.8628 H   0  0  0  0  0  0  0  0  0  0  0  0  # atno 10718 bound_to 10713
  154.3016  135.6233  153.5427 H   0  0  0  0  0  0  0  0  0  0  0  0  # atno 10763 bound_to 10752
  152.9840  135.5679  154.5278 H   0  0  0  0  0  0  0  0  0  0  0  0  # atno 10764 bound_to 10752
  154.4909  135.2867  155.1473 H   0  0  0  0  0  0  0  0  0  0  0  0  # atno 10765 bound_to 10752
  140.2006  134.3875  155.8098 H   0  0  0  0  0  0  0  0  0  0  0  0  # atno 11005 bound_to 11000
  144.7008  140.3646  143.7157 LP  0  0  0  0  0  0  0  0  0  0  0  0  # atno 17320 bound_to 7965
  145.7121  139.1687  143.2532 LP  0  0  0  0  0  0  0  0  0  0  0  0  # atno 17321 bound_to 7965
  139.9175  144.6820  150.8497 LP  0  0  0  0  0  0  0  0  0  0  0  0  # atno 17342 bound_to 10162
  140.7695  143.3399  151.2230 LP  0  0  0  0  0  0  0  0  0  0  0  0  # atno 17343 bound_to 10162
  157.5856  131.0945  150.9202 LP  0  0  0  0  0  0  0  0  0  0  0  0  # atno 17370 bound_to 10713
  156.9389  130.5377  149.5280 LP  0  0  0  0  0  0  0  0  0  0  0  0  # atno 17371 bound_to 10713
  141.2227  133.7092  156.8251 LP  0  0  0  0  0  0  0  0  0  0  0  0  # atno 17394 bound_to 11000
  140.2059  134.8863  157.3220 LP  0  0  0  0  0  0  0  0  0  0  0  0  # atno 17395 bound_to 11000

$$$$
