AV-unprocessed.smi:1406|AV-procd|sdf|5723|dock10
  -GOLD-   22720 5353D 1   1.00000     0.00000
 Structure written by MMmdl.
 41 43  0  0  0  0  0  0  0  0  2 V2000
  149.1661  138.0020  154.8306 C   0  0  0  0  0  0  0  0  0  0  0  0
  149.8352  139.3569  154.5226 C   0  0  2  0  0  0  0  0  0  0  0  0
  150.6923  139.8839  155.6856 C   0  0  0  0  0  0  0  0  0  0  0  0
  151.9008  140.0747  155.5467 O   0  0  0  0  0  0  0  0  0  0  0  0
  150.0468  140.1140  156.8396 N   0  0  0  0  0  0  0  0  0  0  0  0
  150.6796  140.5604  158.0749 C   0  0  1  0  0  0  0  0  0  0  0  0
  151.7516  139.6170  158.6119 C   0  0  0  0  0  0  0  0  0  0  0  0
  152.5472  140.5355  159.5415 C   0  0  0  0  0  0  0  0  0  0  0  0
  152.5158  141.8757  158.9121 N   0  3  2  0  0  0  0  0  0  0  0  0
  152.4827  143.0111  159.8660 C   0  0  0  0  0  0  0  0  0  0  0  0
  152.4577  144.3530  159.1102 C   0  0  0  0  0  0  0  0  0  0  0  0
  151.3611  144.4176  158.0255 C   0  0  0  0  0  0  0  0  0  0  0  0
  150.5343  143.1245  157.9487 C   0  0  0  0  0  0  0  0  0  0  0  0
  151.4432  141.8773  157.8776 C   0  0  2  0  0  0  0  0  0  0  0  0
  148.8637  140.3645  154.1132 N   0  0  0  0  0  0  0  0  0  0  0  0
  147.8449  140.2764  153.2551 C   0  0  0  0  0  0  0  0  0  0  0  0
  147.1908  141.4153  153.0768 N   0  0  0  0  0  0  0  0  0  0  0  0
  147.9100  142.2245  153.9100 C   0  0  0  0  0  0  0  0  0  0  0  0
  148.9296  141.6484  154.5462 N   0  0  0  0  0  0  0  0  0  0  0  0
  149.9096  137.2418  155.0729 H   0  0  0  0  0  0  0  0  0  0  0  0
  148.6029  137.6429  153.9689 H   0  0  0  0  0  0  0  0  0  0  0  0
  148.4747  138.0682  155.6718 H   0  0  0  0  0  0  0  0  0  0  0  0
  150.5083  139.1992  153.6784 H   0  0  0  0  0  0  0  0  0  0  0  0
  149.0535  139.9359  156.8707 H   0  0  0  0  0  0  0  0  0  0  0  0
  149.9183  140.6974  158.8463 H   0  0  0  0  0  0  0  0  0  0  0  0
  151.3377  138.7494  159.1271 H   0  0  0  0  0  0  0  0  0  0  0  0
  152.3885  139.2602  157.8008 H   0  0  0  0  0  0  0  0  0  0  0  0
  152.0573  140.5708  160.5162 H   0  0  0  0  0  0  0  0  0  0  0  0
  153.5699  140.1907  159.6954 H   0  0  0  0  0  0  0  0  0  0  0  0
  151.6066  142.9268  160.5112 H   0  0  0  0  0  0  0  0  0  0  0  0
  153.3570  142.9643  160.5162 H   0  0  0  0  0  0  0  0  0  0  0  0
  152.3260  145.1694  159.8209 H   0  0  0  0  0  0  0  0  0  0  0  0
  153.4292  144.5183  158.6427 H   0  0  0  0  0  0  0  0  0  0  0  0
  150.7009  145.2661  158.2085 H   0  0  0  0  0  0  0  0  0  0  0  0
  151.8273  144.6023  157.0569 H   0  0  0  0  0  0  0  0  0  0  0  0
  149.8849  143.0652  158.8233 H   0  0  0  0  0  0  0  0  0  0  0  0
  149.8703  143.1547  157.0840 H   0  0  0  0  0  0  0  0  0  0  0  0
  151.9554  141.8618  156.9140 H   0  0  0  0  0  0  0  0  0  0  0  0
  147.5811  139.3624  152.7438 H   0  0  0  0  0  0  0  0  0  0  0  0
  147.6807  143.2713  154.0452 H   0  0  0  0  0  0  0  0  0  0  0  0
  153.3801  141.9679  158.3978 H   0  0  0  0  0  0  0  0  0  0  0  0
  1  2  1  0  0  0  0
  1 20  1  0  0  0  0
  1 21  1  0  0  0  0
  1 22  1  0  0  0  0
  2  3  1  0  0  0  0
  2 15  1  0  0  0  0
  2 23  1  0  0  0  0
  3  4  2  0  0  0  0
  3  5  1  0  0  0  0
  5  6  1  0  0  0  0
  5 24  1  0  0  0  0
  6 14  1  0  0  0  0
  6  7  1  0  0  0  0
  6 25  1  0  0  0  0
  7  8  1  0  0  0  0
  7 26  1  0  0  0  0
  7 27  1  0  0  0  0
  8  9  1  0  0  0  0
  8 28  1  0  0  0  0
  8 29  1  0  0  0  0
  9 14  1  0  0  0  0
  9 10  1  0  0  0  0
  9 41  1  0  0  0  0
 10 11  1  0  0  0  0
 10 30  1  0  0  0  0
 10 31  1  0  0  0  0
 11 12  1  0  0  0  0
 11 32  1  0  0  0  0
 11 33  1  0  0  0  0
 12 13  1  0  0  0  0
 12 34  1  0  0  0  0
 12 35  1  0  0  0  0
 13 14  1  0  0  0  0
 13 36  1  0  0  0  0
 13 37  1  0  0  0  0
 14 38  1  0  0  0  0
 15 19  1  0  0  0  0
 15 16  1  0  0  0  0
 16 17  2  0  0  0  0
 16 39  1  0  0  0  0
 17 18  1  0  0  0  0
 18 19  2  0  0  0  0
 18 40  1  0  0  0  0
M  CHG  1   9   1
M  END
> <s_m_source_file>
AV-unprocessed.smi

> <i_m_source_file_index>
1406

> <i_lp_mmshare_version>
43012

> <i_f3d_flags>
0

> <s_epik_input>
bjFbY0hdbltjSF1uMVtDQEhdKFtDSDNdKUMoPU8pW05IXVtDQEhdKFtDSDJdW0NIMl0yKVtDQEBIXShOMjMpW0NIMl1bQ0gyXVtDSDJdW0NIMl0z

> <s_epik_cmdline>
J2VwaWtfcHl0aG9uJywgJy1waCcsICc3LjAnLCAnLXRuJywgJzgnLCAnLW1hJywgJzIwMCcsICctbWV0YWxfYmluZGluZycsICctaW1hZScsICc8aW5maWxlLm1hZT4nLCAnLW9tYWUnLCAnPG91dGZpbGUubWFlPic=

> <r_lp_tautomer_probability>
1

> <r_epik_Ionization_Penalty>
0.00197066

> <r_epik_Ionization_Penalty_Charging>
0.00196223

> <r_epik_Ionization_Penalty_Neutral>
8.43107e-06

> <r_epik_State_Penalty>
0.00133866

> <r_epik_Charging_Adjusted_Penalty>
0.00330089

> <i_epik_Tot_Q>
1

> <i_epik_Tot_abs_Q>
1

> <r_epik_Metal_State_Penalty>
-0

> <b_epik_Metal_Only>
0

> <s_lp_Force_Field>
OPLS_2005

> <r_lp_Energy>
45.2549

> <b_lp_Chiralities_Consistent>
1

> <s_lp_Variant>
AV-unprocessed.smi:1406-15

> <Gold.Version>
5.8.1

> <Gold.Id.Protein>
6NUR|6NUR_protein|mol2

> <Gold.PLP.Fitness>
41.0539

> <Gold.PLP.PLP>
-36.6855

> <Gold.PLP.part.hbond>
-1.0000

> <Gold.PLP.part.metal>
0.0000

> <Gold.PLP.part.buried>
-4.5475

> <Gold.PLP.part.nonpolar>
-32.7407

> <Gold.PLP.part.repulsive>
0.4346

> <Gold.PLP.ligand.clash>
0.0000

> <Gold.PLP.ligand.torsion>
0.3472

> <Gold.PLP.Chemscore.Hbond>
0.7823

> <Gold.PLP.Chemscore.CHOScore>
0.8694

> <Gold.PLP.Chemscore.Metal>
0.0000

> <Gold.Chemscore.Hbonds>
donor molecule, donor type, donor heavy atom, donor atom, acceptor molecule, acceptor atom, score
      P1  H  7989  7998       L1     4  0.31
      L1  C    16    39       P1  7957  0.06
      L1  C    18    40       P1  8028  0.89

> <Gold.PLP.Chemscore.Internal.Correction>
0.1077

> <Gold.Rescore>
     Score         DG    S(hbond)    S(metal)    S(lipo)     H(rot)  DE(clash)    DE(int)     intcor
     10.56     -12.67       0.85        0.00      78.46       1.89       0.36       1.75       ----

> <Gold.Chemscore.Fitness>
10.5567

> <Gold.Chemscore.DG>
-12.6666

> <Gold.Chemscore.ZeroCoef>
-5.4800

> <Gold.Chemscore.Hbond>
0.8491

> <Gold.Chemscore.Metal>
0.0000

> <Gold.Chemscore.Lipo>
78.4626

> <Gold.Chemscore.Internal_Hbond>
0.0000

> <Gold.Chemscore.DEClash>
0.3558

> <Gold.Chemscore.DEInternal>
1.7541

> <Gold.Chemscore.Rot>
1.8865

> <Gold.Chemscore.Internal.Correction>
   9.000000E+99

> <Gold.Chemscore.Hbonds>
donor molecule, donor type, donor heavy atom, donor atom, acceptor molecule, acceptor atom, score
      P1  H  7989  7998       L1     4  0.03

> <Gold.Chemscore.Hbond.Weighted>
-2.8360

> <Gold.Chemscore.Metal.Weighted>
-0.0000

> <Gold.Chemscore.Lipo.Weighted>
-9.1801

> <Gold.Chemscore.Internal_Hbond.Weighted>
0.0000

> <Gold.Chemscore.DEClash.Weighted>
0.3558

> <Gold.Chemscore.DEInternal.Weighted>
1.7541

> <Gold.Chemscore.Rot.Weighted>
4.8295

> <Gold.Chemscore.Internal.Correction.Weighted>
   9.000000E+99

> <Gold.Protein.RotatedTorsions>
[ 6907 6896 6895 6894 ] final   20.37 input  -60.11 | X-H torsion
[ 7974 7965 7964 7962 ] final  127.94 input  175.53 | X-H torsion
[ 8008 7997 7996 7995 ] final   38.83 input   59.86 | X-H torsion
[ 10167 10162 10161 10158 ] final  -66.53 input  -65.29 | X-H torsion
[ 10718 10713 10712 10709 ] final   -0.07 input   66.30 | X-H torsion
[ 10763 10752 10751 10750 ] final   20.32 input  -60.55 | X-H torsion
[ 11005 11000 10999 10996 ] final  148.24 input  -57.11 | X-H torsion

> <Gold.Protein.ActiveResidues>
 VAL166  LYS551  ARG553  GLY616  TRP617  ASP618  TYR619  PRO620  LYS621  CYS622 
 ASP623  PHE694  ASN695  SER759  ASP760  ASP761  ALA762  ILE779  LEU786  VAL792 
 PHE793  MET794  SER795  GLU796  ALA797  LYS798  CYS799  TRP800  GLU811  SER814 

> <Gold.Protein.RotatedAtoms>
  151.8954  135.0400  160.0501 H   0  0  0  0  0  0  0  0  0  0  0  0  # atno 6907 bound_to 6896
  152.2402  133.5125  159.5274 H   0  0  0  0  0  0  0  0  0  0  0  0  # atno 6908 bound_to 6896
  150.7051  134.1015  159.4010 H   0  0  0  0  0  0  0  0  0  0  0  0  # atno 6909 bound_to 6896
  145.0450  139.3931  143.5083 H   0  0  0  0  0  0  0  0  0  0  0  0  # atno 7974 bound_to 7965
  155.2266  140.3335  155.4308 H   0  0  0  0  0  0  0  0  0  0  0  0  # atno 8008 bound_to 7997
  156.2312  140.1851  156.7284 H   0  0  0  0  0  0  0  0  0  0  0  0  # atno 8009 bound_to 7997
  154.5981  140.0627  156.9316 H   0  0  0  0  0  0  0  0  0  0  0  0  # atno 8010 bound_to 7997
  140.5650  143.2314  151.6652 H   0  0  0  0  0  0  0  0  0  0  0  0  # atno 10167 bound_to 10162
  156.8258  130.5472  149.5692 H   0  0  0  0  0  0  0  0  0  0  0  0  # atno 10718 bound_to 10713
  153.1087  135.6691  153.9539 H   0  0  0  0  0  0  0  0  0  0  0  0  # atno 10763 bound_to 10752
  153.9089  135.3027  155.3450 H   0  0  0  0  0  0  0  0  0  0  0  0  # atno 10764 bound_to 10752
  154.7507  135.5036  153.9361 H   0  0  0  0  0  0  0  0  0  0  0  0  # atno 10765 bound_to 10752
  140.0943  134.9022  157.1698 H   0  0  0  0  0  0  0  0  0  0  0  0  # atno 11005 bound_to 11000
  146.3513  140.0070  142.8670 LP  0  0  0  0  0  0  0  0  0  0  0  0  # atno 17320 bound_to 7965
  145.1600  140.9668  143.4383 LP  0  0  0  0  0  0  0  0  0  0  0  0  # atno 17321 bound_to 7965
  139.5088  144.3597  152.0574 LP  0  0  0  0  0  0  0  0  0  0  0  0  # atno 17342 bound_to 10162
  140.2728  144.3946  150.6145 LP  0  0  0  0  0  0  0  0  0  0  0  0  # atno 17343 bound_to 10162
  156.0962  130.5934  150.9818 LP  0  0  0  0  0  0  0  0  0  0  0  0  # atno 17370 bound_to 10713
  157.6433  131.0907  150.8207 LP  0  0  0  0  0  0  0  0  0  0  0  0  # atno 17371 bound_to 10713
  140.3309  134.2811  155.7228 LP  0  0  0  0  0  0  0  0  0  0  0  0  # atno 17394 bound_to 11000
  141.2087  133.7770  157.0042 LP  0  0  0  0  0  0  0  0  0  0  0  0  # atno 17395 bound_to 11000

$$$$
