AV-unprocessed.smi:594|AV-procd|sdf|3017|dock8
  -GOLD-   2262023523D 1   1.00000     0.00000
 Structure written by MMmdl.
 40 41  0  0  0  0  0  0  0  0  3 V2000
  154.3151  140.4169  160.1079 C   0  0  0  0  0  0  0  0  0  0  0  0
  153.2161  141.3784  160.5962 C   0  0  1  0  0  0  0  0  0  0  0  0
  153.6411  142.0571  161.9145 C   0  0  0  0  0  0  0  0  0  0  0  0
  152.5622  143.0155  162.4410 C   0  0  0  0  0  0  0  0  0  0  0  0
  152.2062  144.0731  161.3879 C   0  0  0  0  0  0  0  0  0  0  0  0
  151.7618  143.4117  160.0753 C   0  0  0  0  0  0  0  0  0  0  0  0
  152.8314  142.4422  159.5347 C   0  0  2  0  0  0  0  0  0  0  0  0
  152.3192  141.8056  158.3221 N   0  0  0  0  0  0  0  0  0  0  0  0
  151.2873  140.9499  158.2565 C   0  0  0  0  0  0  0  0  0  0  0  0
  150.6565  140.5682  159.2432 O   0  0  0  0  0  0  0  0  0  0  0  0
  150.9215  140.4449  156.8544 C   0  0  0  0  0  0  0  0  0  0  0  0
  149.6142  140.9407  156.3919 N   0  0  0  0  0  0  0  0  0  0  0  0
  148.7513  141.4830  157.3650 C   0  0  0  0  0  0  0  0  0  0  0  0
  147.5348  141.9702  157.0513 C   0  0  0  0  0  0  0  0  0  0  0  0
  146.6633  142.5267  158.0626 N   0  3  0  0  0  0  0  0  0  0  0  0
  146.9875  142.4218  159.2413 O   0  0  0  0  0  0  0  0  0  0  0  0
  145.6285  143.0875  157.7142 O   0  5  0  0  0  0  0  0  0  0  0  0
  147.1271  141.9217  155.6605 C   0  0  0  0  0  0  0  0  0  0  0  0
  147.9488  141.4070  154.7246 C   0  0  0  0  0  0  0  0  0  0  0  0
  149.2733  140.8790  155.0680 C   0  0  0  0  0  0  0  0  0  0  0  0
  150.0298  140.4099  154.2172 O   0  0  0  0  0  0  0  0  0  0  0  0
  155.2161  140.9599  159.8209 H   0  0  0  0  0  0  0  0  0  0  0  0
  153.9887  139.8347  159.2461 H   0  0  0  0  0  0  0  0  0  0  0  0
  154.5897  139.7067  160.8883 H   0  0  0  0  0  0  0  0  0  0  0  0
  152.3302  140.7776  160.8085 H   0  0  0  0  0  0  0  0  0  0  0  0
  153.8533  141.3009  162.6714 H   0  0  0  0  0  0  0  0  0  0  0  0
  154.5707  142.6071  161.7610 H   0  0  0  0  0  0  0  0  0  0  0  0
  151.6690  142.4505  162.7109 H   0  0  0  0  0  0  0  0  0  0  0  0
  152.9090  143.5013  163.3535 H   0  0  0  0  0  0  0  0  0  0  0  0
  151.4153  144.7222  161.7648 H   0  0  0  0  0  0  0  0  0  0  0  0
  153.0703  144.7122  161.2025 H   0  0  0  0  0  0  0  0  0  0  0  0
  150.8263  142.8756  160.2419 H   0  0  0  0  0  0  0  0  0  0  0  0
  151.5478  144.1822  159.3334 H   0  0  0  0  0  0  0  0  0  0  0  0
  153.7208  143.0308  159.3011 H   0  0  0  0  0  0  0  0  0  0  0  0
  152.7765  142.0543  157.4569 H   0  0  0  0  0  0  0  0  0  0  0  0
  151.6997  140.7316  156.1442 H   0  0  0  0  0  0  0  0  0  0  0  0
  150.9391  139.3544  156.8717 H   0  0  0  0  0  0  0  0  0  0  0  0
  149.1498  141.4806  158.3693 H   0  0  0  0  0  0  0  0  0  0  0  0
  146.1605  142.2979  155.3592 H   0  0  0  0  0  0  0  0  0  0  0  0
  147.6255  141.3817  153.6942 H   0  0  0  0  0  0  0  0  0  0  0  0
  1  2  1  0  0  0  0
  1 22  1  0  0  0  0
  1 23  1  0  0  0  0
  1 24  1  0  0  0  0
  2  7  1  0  0  0  0
  2  3  1  0  0  0  0
  2 25  1  0  0  0  0
  3  4  1  0  0  0  0
  3 26  1  0  0  0  0
  3 27  1  0  0  0  0
  4  5  1  0  0  0  0
  4 28  1  0  0  0  0
  4 29  1  0  0  0  0
  5  6  1  0  0  0  0
  5 30  1  0  0  0  0
  5 31  1  0  0  0  0
  6  7  1  0  0  0  0
  6 32  1  0  0  0  0
  6 33  1  0  0  0  0
  7  8  1  0  0  0  0
  7 34  1  0  0  0  0
  8  9  1  0  0  0  0
  8 35  1  0  0  0  0
  9 10  2  0  0  0  0
  9 11  1  0  0  0  0
 11 12  1  0  0  0  0
 11 36  1  0  0  0  0
 11 37  1  0  0  0  0
 12 20  1  0  0  0  0
 12 13  1  0  0  0  0
 13 14  2  0  0  0  0
 13 38  1  0  0  0  0
 14 15  1  0  0  0  0
 14 18  1  0  0  0  0
 15 16  2  0  0  0  0
 15 17  1  0  0  0  0
 18 19  2  0  0  0  0
 18 39  1  0  0  0  0
 19 20  1  0  0  0  0
 19 40  1  0  0  0  0
 20 21  2  0  0  0  0
M  CHG  1  15   1
M  CHG  1  17  -1
M  END
> <s_m_source_file>
AV-unprocessed.smi

> <i_m_source_file_index>
594

> <i_lp_mmshare_version>
43012

> <i_f3d_flags>
0

> <s_epik_input>
W0NIM11bQ0BASF0xW0NIMl1bQ0gyXVtDSDJdW0NIMl1bQ0BIXTFbTkhdQyg9TylbQ0gyXW4yW2NIXWMoW04rXSg9TylbTy1dKVtjSF1bY0hdYzI9Tw==

> <s_epik_cmdline>
J2VwaWtfcHl0aG9uJywgJy1waCcsICc3LjAnLCAnLXRuJywgJzgnLCAnLW1hJywgJzIwMCcsICctbWV0YWxfYmluZGluZycsICctaW1hZScsICc8aW5maWxlLm1hZT4nLCAnLW9tYWUnLCAnPG91dGZpbGUubWFlPic=

> <r_lp_tautomer_probability>
1

> <r_epik_Ionization_Penalty>
1.91305e-08

> <r_epik_Ionization_Penalty_Charging>
8.35811e-11

> <r_epik_Ionization_Penalty_Neutral>
1.90469e-08

> <r_epik_State_Penalty>
-0

> <r_epik_Charging_Adjusted_Penalty>
8.35811e-11

> <i_epik_Tot_Q>
0

> <i_epik_Tot_abs_Q>
2

> <r_epik_Metal_State_Penalty>
-0

> <b_epik_Metal_Only>
0

> <s_lp_Force_Field>
OPLS_2005

> <r_lp_Energy>
21.4369

> <b_lp_Chiralities_Consistent>
1

> <s_lp_Variant>
AV-unprocessed.smi:594-4

> <Gold.Version>
5.8.1

> <Gold.Id.Protein>
6NUR|6NUR_protein|mol2

> <Gold.PLP.Fitness>
44.7996

> <Gold.PLP.PLP>
-41.1348

> <Gold.PLP.part.hbond>
-2.7972

> <Gold.PLP.part.metal>
0.0000

> <Gold.PLP.part.buried>
-2.4258

> <Gold.PLP.part.nonpolar>
-36.3418

> <Gold.PLP.part.repulsive>
0.6841

> <Gold.PLP.ligand.clash>
0.3464

> <Gold.PLP.ligand.torsion>
0.3267

> <Gold.PLP.Chemscore.Hbond>
1.5520

> <Gold.PLP.Chemscore.CHOScore>
0.0000

> <Gold.PLP.Chemscore.Metal>
0.0000

> <Gold.Chemscore.Hbonds>
donor molecule, donor type, donor heavy atom, donor atom, acceptor molecule, acceptor atom, score
      P1  H  6934  6946       L1    16  0.59
      P1  H  7989  7998       L1    21  0.85

> <Gold.PLP.Chemscore.Internal.Correction>
0.0085

> <Gold.Rescore>
     Score         DG    S(hbond)    S(metal)    S(lipo)     H(rot)  DE(clash)    DE(int)     intcor
     16.50     -19.54       2.01        0.00      96.62       1.55       0.22       2.83       ----

> <Gold.Chemscore.Fitness>
16.4988

> <Gold.Chemscore.DG>
-19.5427

> <Gold.Chemscore.ZeroCoef>
-5.4800

> <Gold.Chemscore.Hbond>
2.0141

> <Gold.Chemscore.Metal>
0.0000

> <Gold.Chemscore.Lipo>
96.6208

> <Gold.Chemscore.Internal_Hbond>
0.0000

> <Gold.Chemscore.DEClash>
0.2185

> <Gold.Chemscore.DEInternal>
2.8254

> <Gold.Chemscore.Rot>
1.5505

> <Gold.Chemscore.Internal.Correction>
   9.000000E+99

> <Gold.Chemscore.Hbonds>
donor molecule, donor type, donor heavy atom, donor atom, acceptor molecule, acceptor atom, score
      P1  H  6934  6946       L1    16  0.58
      P1  H  7989  7998       L1    21  0.83

> <Gold.Chemscore.Hbond.Weighted>
-6.7272

> <Gold.Chemscore.Metal.Weighted>
-0.0000

> <Gold.Chemscore.Lipo.Weighted>
-11.3046

> <Gold.Chemscore.Internal_Hbond.Weighted>
0.0000

> <Gold.Chemscore.DEClash.Weighted>
0.2185

> <Gold.Chemscore.DEInternal.Weighted>
2.8254

> <Gold.Chemscore.Rot.Weighted>
3.9692

> <Gold.Chemscore.Internal.Correction.Weighted>
   9.000000E+99

> <Gold.Protein.RotatedTorsions>
[ 6907 6896 6895 6894 ] final  -50.04 input  -60.11 | X-H torsion
[ 7974 7965 7964 7962 ] final   73.12 input  175.53 | X-H torsion
[ 8008 7997 7996 7995 ] final  147.99 input   59.86 | X-H torsion
[ 10167 10162 10161 10158 ] final   66.08 input  -65.29 | X-H torsion
[ 10718 10713 10712 10709 ] final  -43.40 input   66.30 | X-H torsion
[ 10763 10752 10751 10750 ] final  156.12 input  -60.55 | X-H torsion
[ 11005 11000 10999 10996 ] final  139.94 input  -57.11 | X-H torsion

> <Gold.Protein.ActiveResidues>
 VAL166  LYS551  ARG553  GLY616  TRP617  ASP618  TYR619  PRO620  LYS621  CYS622 
 ASP623  PHE694  ASN695  SER759  ASP760  ASP761  ALA762  ILE779  LEU786  VAL792 
 PHE793  MET794  SER795  GLU796  ALA797  LYS798  CYS799  TRP800  GLU811  SER814 

> <Gold.Protein.RotatedAtoms>
  150.8746  134.8126  159.7179 H   0  0  0  0  0  0  0  0  0  0  0  0  # atno 6907 bound_to 6896
  152.4737  134.4893  159.9700 H   0  0  0  0  0  0  0  0  0  0  0  0  # atno 6908 bound_to 6896
  151.4976  133.3472  159.2899 H   0  0  0  0  0  0  0  0  0  0  0  0  # atno 6909 bound_to 6896
  145.7448  139.2736  143.1465 H   0  0  0  0  0  0  0  0  0  0  0  0  # atno 7974 bound_to 7965
  156.2806  140.2140  156.5627 H   0  0  0  0  0  0  0  0  0  0  0  0  # atno 8008 bound_to 7997
  154.7200  140.0504  157.0653 H   0  0  0  0  0  0  0  0  0  0  0  0  # atno 8009 bound_to 7997
  155.0492  140.3154  155.4701 H   0  0  0  0  0  0  0  0  0  0  0  0  # atno 8010 bound_to 7997
  140.1044  144.4875  150.7017 H   0  0  0  0  0  0  0  0  0  0  0  0  # atno 10167 bound_to 10162
  156.2494  130.4186  149.8668 H   0  0  0  0  0  0  0  0  0  0  0  0  # atno 10718 bound_to 10713
  154.1792  135.2800  155.3057 H   0  0  0  0  0  0  0  0  0  0  0  0  # atno 10763 bound_to 10752
  154.6016  135.5528  153.7383 H   0  0  0  0  0  0  0  0  0  0  0  0  # atno 10764 bound_to 10752
  153.0143  135.6393  154.1931 H   0  0  0  0  0  0  0  0  0  0  0  0  # atno 10765 bound_to 10752
  140.0291  134.9360  157.0627 H   0  0  0  0  0  0  0  0  0  0  0  0  # atno 11005 bound_to 11000
  146.0413  140.8162  142.9827 LP  0  0  0  0  0  0  0  0  0  0  0  0  # atno 17320 bound_to 7965
  144.6862  140.2914  143.7277 LP  0  0  0  0  0  0  0  0  0  0  0  0  # atno 17321 bound_to 7965
  140.6960  143.2404  151.4998 LP  0  0  0  0  0  0  0  0  0  0  0  0  # atno 17342 bound_to 10162
  139.5654  144.2056  152.1756 LP  0  0  0  0  0  0  0  0  0  0  0  0  # atno 17343 bound_to 10162
  156.6222  130.8631  151.3478 LP  0  0  0  0  0  0  0  0  0  0  0  0  # atno 17370 bound_to 10713
  157.7208  130.9556  150.1432 LP  0  0  0  0  0  0  0  0  0  0  0  0  # atno 17371 bound_to 10713
  140.4256  134.1834  155.7166 LP  0  0  0  0  0  0  0  0  0  0  0  0  # atno 17394 bound_to 11000
  141.1820  133.8393  157.1223 LP  0  0  0  0  0  0  0  0  0  0  0  0  # atno 17395 bound_to 11000

$$$$
