AV-unprocessed.smi:1997|AV-procd|sdf|8089|dock3
  -GOLD-   2272010303D 1   1.00000     0.00000
 Structure written by MMmdl.
 36 38  0  0  0  0  0  0  0  0  2 V2000
  155.2285  138.1469  159.0296 O   0  0  0  0  0  0  0  0  0  0  0  0
  154.2712  138.7647  159.5018 C   0  0  0  0  0  0  0  0  0  0  0  0
  153.5921  139.7693  158.9026 N   0  5  0  0  0  0  0  0  0  0  0  0
  153.3599  140.9125  159.5685 C   0  0  0  0  0  0  0  0  0  0  0  0
  153.7076  141.0804  160.8522 N   0  0  0  0  0  0  0  0  0  0  0  0
  153.3790  142.3345  161.3458 N   0  0  0  0  0  0  0  0  0  0  0  0
  152.7914  143.1005  160.4238 C   0  0  0  0  0  0  0  0  0  0  0  0
  152.3395  144.4934  160.7102 C   0  0  0  0  0  0  0  0  0  0  0  0
  150.8877  144.8834  160.5533 C   0  0  0  0  0  0  0  0  0  0  0  0
  151.9184  145.4311  159.5998 C   0  0  0  0  0  0  0  0  0  0  0  0
  152.6024  142.3354  158.8540 S   0  0  0  0  0  0  0  0  0  0  0  0
  153.8160  138.4597  160.7268 N   0  0  0  0  0  0  0  0  0  0  0  0
  154.3526  137.4272  161.6179 C   0  0  1  0  0  0  0  0  0  0  0  0
  153.5424  137.4786  162.9335 C   0  0  0  0  0  0  0  0  0  0  0  0
  154.2814  136.8775  164.1421 C   0  0  0  0  0  0  0  0  0  0  0  0
  154.5652  135.3707  164.0469 C   0  0  0  0  0  0  0  0  0  0  0  0
  155.4859  134.9872  162.8759 C   0  0  0  0  0  0  0  0  0  0  0  0
  154.7759  134.9741  161.6039 N   0  0  0  0  0  0  0  0  0  0  0  0
  154.2087  136.0222  160.9873 C   0  0  0  0  0  0  0  0  0  0  0  0
  153.5805  135.8602  159.9413 O   0  0  0  0  0  0  0  0  0  0  0  0
  152.8937  144.9128  161.5475 H   0  0  0  0  0  0  0  0  0  0  0  0
  150.2011  144.1300  160.1722 H   0  0  0  0  0  0  0  0  0  0  0  0
  150.4697  145.5666  161.2898 H   0  0  0  0  0  0  0  0  0  0  0  0
  152.1891  146.4800  159.7002 H   0  0  0  0  0  0  0  0  0  0  0  0
  151.9038  145.0495  158.5810 H   0  0  0  0  0  0  0  0  0  0  0  0
  153.0244  138.9851  161.0673 H   0  0  0  0  0  0  0  0  0  0  0  0
  155.4036  137.6431  161.8174 H   0  0  0  0  0  0  0  0  0  0  0  0
  153.3291  138.5205  163.1777 H   0  0  0  0  0  0  0  0  0  0  0  0
  152.5675  137.0033  162.8114 H   0  0  0  0  0  0  0  0  0  0  0  0
  155.2189  137.4138  164.2946 H   0  0  0  0  0  0  0  0  0  0  0  0
  153.6870  137.0608  165.0376 H   0  0  0  0  0  0  0  0  0  0  0  0
  155.0415  135.0575  164.9764 H   0  0  0  0  0  0  0  0  0  0  0  0
  153.6292  134.8136  163.9884 H   0  0  0  0  0  0  0  0  0  0  0  0
  156.3555  135.6439  162.8234 H   0  0  0  0  0  0  0  0  0  0  0  0
  155.8715  133.9804  163.0380 H   0  0  0  0  0  0  0  0  0  0  0  0
  154.6749  134.0738  161.1586 H   0  0  0  0  0  0  0  0  0  0  0  0
  1  2  2  0  0  0  0
  2  3  1  0  0  0  0
  2 12  1  0  0  0  0
  3  4  1  0  0  0  0
  4 11  1  0  0  0  0
  4  5  2  0  0  0  0
  5  6  1  0  0  0  0
  6  7  2  0  0  0  0
  7  8  1  0  0  0  0
  7 11  1  0  0  0  0
  8 10  1  0  0  0  0
  8  9  1  0  0  0  0
  8 21  1  0  0  0  0
  9 10  1  0  0  0  0
  9 22  1  0  0  0  0
  9 23  1  0  0  0  0
 10 24  1  0  0  0  0
 10 25  1  0  0  0  0
 12 13  1  0  0  0  0
 12 26  1  0  0  0  0
 13 19  1  0  0  0  0
 13 14  1  0  0  0  0
 13 27  1  0  0  0  0
 14 15  1  0  0  0  0
 14 28  1  0  0  0  0
 14 29  1  0  0  0  0
 15 16  1  0  0  0  0
 15 30  1  0  0  0  0
 15 31  1  0  0  0  0
 16 17  1  0  0  0  0
 16 32  1  0  0  0  0
 16 33  1  0  0  0  0
 17 18  1  0  0  0  0
 17 34  1  0  0  0  0
 17 35  1  0  0  0  0
 18 19  1  0  0  0  0
 18 36  1  0  0  0  0
 19 20  2  0  0  0  0
M  CHG  1   3  -1
M  END
> <s_m_source_file>
AV-unprocessed.smi

> <i_m_source_file_index>
1997

> <i_lp_mmshare_version>
43012

> <i_f3d_flags>
0

> <s_epik_input>
W0NIMl0xW0NIMl1bQ0hdMWMoczIpbm5jMltOSF1DKD1PKVtOSF1bQ0BASF0zW0NIMl1bQ0gyXVtDSDJdW0NIMl1bTkhdQzM9Tw==

> <s_epik_cmdline>
J2VwaWtfcHl0aG9uJywgJy1waCcsICc3LjAnLCAnLXRuJywgJzgnLCAnLW1hJywgJzIwMCcsICctbWV0YWxfYmluZGluZycsICctaW1hZScsICc8aW5maWxlLm1hZT4nLCAnLW9tYWUnLCAnPG91dGZpbGUubWFlPic=

> <r_lp_tautomer_probability>
1

> <r_epik_Ionization_Penalty>
4.47229

> <r_epik_Ionization_Penalty_Charging>
4.32584

> <r_epik_Ionization_Penalty_Neutral>
0.146443

> <r_epik_State_Penalty>
4.32544

> <r_epik_Charging_Adjusted_Penalty>
8.65129

> <i_epik_Tot_Q>
-1

> <i_epik_Tot_abs_Q>
1

> <r_epik_Metal_State_Penalty>
0.738743

> <b_epik_Metal_Only>
1

> <s_lp_Force_Field>
OPLS_2005

> <r_lp_Energy>
7.41149

> <b_lp_Chiralities_Consistent>
1

> <s_lp_Variant>
AV-unprocessed.smi:1997-4

> <Gold.Version>
5.8.1

> <Gold.Id.Protein>
6NUR|6NUR_protein|mol2

> <Gold.PLP.Fitness>
47.6626

> <Gold.PLP.PLP>
-39.6593

> <Gold.PLP.part.hbond>
-2.0000

> <Gold.PLP.part.metal>
0.0000

> <Gold.PLP.part.buried>
-6.8248

> <Gold.PLP.part.nonpolar>
-30.6968

> <Gold.PLP.part.repulsive>
0.1012

> <Gold.PLP.ligand.clash>
0.0000

> <Gold.PLP.ligand.torsion>
0.5637

> <Gold.PLP.Chemscore.Hbond>
3.0000

> <Gold.PLP.Chemscore.CHOScore>
0.0000

> <Gold.PLP.Chemscore.Metal>
0.0000

> <Gold.Chemscore.Hbonds>
donor molecule, donor type, donor heavy atom, donor atom, acceptor molecule, acceptor atom, score
      P1  H  6896  6908       L1    20  1.00
      P1  H  7997  8008       L1     3  1.22

> <Gold.PLP.Chemscore.Internal.Correction>
0.1307

> <Gold.Rescore>
     Score         DG    S(hbond)    S(metal)    S(lipo)     H(rot)  DE(clash)    DE(int)     intcor
     16.74     -17.32       1.30        0.00      92.05       1.27       0.00       0.57       ----

> <Gold.Chemscore.Fitness>
16.7411

> <Gold.Chemscore.DG>
-17.3192

> <Gold.Chemscore.ZeroCoef>
-5.4800

> <Gold.Chemscore.Hbond>
1.2965

> <Gold.Chemscore.Metal>
0.0000

> <Gold.Chemscore.Lipo>
92.0502

> <Gold.Chemscore.Internal_Hbond>
0.0000

> <Gold.Chemscore.DEClash>
0.0048

> <Gold.Chemscore.DEInternal>
0.5733

> <Gold.Chemscore.Rot>
1.2738

> <Gold.Chemscore.Internal.Correction>
   9.000000E+99

> <Gold.Chemscore.Hbonds>
donor molecule, donor type, donor heavy atom, donor atom, acceptor molecule, acceptor atom, score
      P1  H  6896  6908       L1    20  0.92
      P1  H  7997  8008       L1     3  0.07

> <Gold.Chemscore.Hbond.Weighted>
-4.3303

> <Gold.Chemscore.Metal.Weighted>
-0.0000

> <Gold.Chemscore.Lipo.Weighted>
-10.7699

> <Gold.Chemscore.Internal_Hbond.Weighted>
0.0000

> <Gold.Chemscore.DEClash.Weighted>
0.0048

> <Gold.Chemscore.DEInternal.Weighted>
0.5733

> <Gold.Chemscore.Rot.Weighted>
3.2610

> <Gold.Chemscore.Internal.Correction.Weighted>
   9.000000E+99

> <Gold.Protein.RotatedTorsions>
[ 6907 6896 6895 6894 ] final  -77.46 input  -60.11 | X-H torsion
[ 7974 7965 7964 7962 ] final   86.03 input  175.53 | X-H torsion
[ 8008 7997 7996 7995 ] final -110.99 input   59.86 | X-H torsion
[ 10167 10162 10161 10158 ] final -105.09 input  -65.29 | X-H torsion
[ 10718 10713 10712 10709 ] final   90.11 input   66.30 | X-H torsion
[ 10763 10752 10751 10750 ] final  -17.32 input  -60.55 | X-H torsion
[ 11005 11000 10999 10996 ] final  110.02 input  -57.11 | X-H torsion

> <Gold.Protein.ActiveResidues>
 VAL166  LYS551  ARG553  GLY616  TRP617  ASP618  TYR619  PRO620  LYS621  CYS622 
 ASP623  PHE694  ASN695  SER759  ASP760  ASP761  ALA762  ILE779  LEU786  VAL792 
 PHE793  MET794  SER795  GLU796  ALA797  LYS798  CYS799  TRP800  GLU811  SER814 

> <Gold.Protein.RotatedAtoms>
  150.6998  134.4418  159.5295 H   0  0  0  0  0  0  0  0  0  0  0  0  # atno 6907 bound_to 6896
  152.2127  134.8484  160.0504 H   0  0  0  0  0  0  0  0  0  0  0  0  # atno 6908 bound_to 6896
  151.9363  133.3590  159.3986 H   0  0  0  0  0  0  0  0  0  0  0  0  # atno 6909 bound_to 6896
  145.5777  139.2321  143.2370 H   0  0  0  0  0  0  0  0  0  0  0  0  # atno 7974 bound_to 7965
  154.9830  140.0396  157.2286 H   0  0  0  0  0  0  0  0  0  0  0  0  # atno 8008 bound_to 7997
  154.7697  140.2799  155.6125 H   0  0  0  0  0  0  0  0  0  0  0  0  # atno 8009 bound_to 7997
  156.2919  140.2612  156.2496 H   0  0  0  0  0  0  0  0  0  0  0  0  # atno 8010 bound_to 7997
  140.2022  143.3810  152.1120 H   0  0  0  0  0  0  0  0  0  0  0  0  # atno 10167 bound_to 10162
  157.6958  131.0358  150.3527 H   0  0  0  0  0  0  0  0  0  0  0  0  # atno 10718 bound_to 10713
  153.5721  135.7007  153.5500 H   0  0  0  0  0  0  0  0  0  0  0  0  # atno 10763 bound_to 10752
  153.3335  135.4040  155.1515 H   0  0  0  0  0  0  0  0  0  0  0  0  # atno 10764 bound_to 10752
  154.8631  135.3725  154.5244 H   0  0  0  0  0  0  0  0  0  0  0  0  # atno 10765 bound_to 10752
  139.8873  134.9473  156.6215 H   0  0  0  0  0  0  0  0  0  0  0  0  # atno 11005 bound_to 11000
  146.1738  140.6604  142.9220 LP  0  0  0  0  0  0  0  0  0  0  0  0  # atno 17320 bound_to 7965
  144.7408  140.4937  143.6870 LP  0  0  0  0  0  0  0  0  0  0  0  0  # atno 17321 bound_to 7965
  139.5212  144.7043  151.5400 LP  0  0  0  0  0  0  0  0  0  0  0  0  # atno 17342 bound_to 10162
  140.6382  143.8941  150.6667 LP  0  0  0  0  0  0  0  0  0  0  0  0  # atno 17343 bound_to 10162
  156.3973  130.3909  149.6985 LP  0  0  0  0  0  0  0  0  0  0  0  0  # atno 17370 bound_to 10713
  156.4314  130.7817  151.2837 LP  0  0  0  0  0  0  0  0  0  0  0  0  # atno 17371 bound_to 10713
  140.7736  133.8718  155.8511 LP  0  0  0  0  0  0  0  0  0  0  0  0  # atno 17394 bound_to 11000
  140.9821  134.1392  157.4485 LP  0  0  0  0  0  0  0  0  0  0  0  0  # atno 17395 bound_to 11000

$$$$
