AV-unprocessed.smi:1587|AV-procd|sdf|6387|dock3
  -GOLD-   22720 7 23D 1   1.00000     0.00000
 Structure written by MMmdl.
 36 37  0  0  0  0  0  0  0  0  1 V2000
  150.5488  140.6246  156.3362 O   0  0  0  0  0  0  0  0  0  0  0  0
  150.0140  141.7317  156.2694 C   0  0  0  0  0  0  0  0  0  0  0  0
  149.0526  142.0345  155.3849 N   0  0  0  0  0  0  0  0  0  0  0  0
  148.5057  141.1134  154.3960 C   0  0  0  0  0  0  0  0  0  0  0  0
  147.3569  141.7603  153.5995 C   0  0  0  0  0  0  0  0  0  0  0  0
  146.5013  142.6584  154.3726 N   0  0  0  0  0  0  0  0  0  0  0  0
  145.6171  143.4587  153.5279 C   0  0  0  0  0  0  0  0  0  0  0  0
  144.7010  144.3743  154.3591 C   0  0  0  0  0  0  0  0  0  0  0  0
  143.9526  143.5931  155.2847 O   0  0  0  0  0  0  0  0  0  0  0  0
  144.7829  142.8362  156.1592 C   0  0  0  0  0  0  0  0  0  0  0  0
  145.6928  141.9124  155.3314 C   0  0  0  0  0  0  0  0  0  0  0  0
  150.3022  142.7843  157.0553 N   0  0  0  0  0  0  0  0  0  0  0  0
  151.2662  142.8657  158.0956 C   0  0  0  0  0  0  0  0  0  0  0  0
  151.3382  144.1171  158.7485 C   0  0  0  0  0  0  0  0  0  0  0  0
  152.2643  144.3013  159.7936 C   0  0  0  0  0  0  0  0  0  0  0  0
  153.0962  143.2280  160.1594 C   0  0  0  0  0  0  0  0  0  0  0  0
  152.9611  142.0160  159.4578 C   0  0  0  0  0  0  0  0  0  0  0  0
  152.0743  141.8372  158.4558 N   0  0  0  0  0  0  0  0  0  0  0  0
  148.6687  142.9680  155.3977 H   0  0  0  0  0  0  0  0  0  0  0  0
  149.2954  140.7758  153.7226 H   0  0  0  0  0  0  0  0  0  0  0  0
  148.1563  140.2331  154.9342 H   0  0  0  0  0  0  0  0  0  0  0  0
  147.7630  142.2907  152.7367 H   0  0  0  0  0  0  0  0  0  0  0  0
  146.7388  140.9587  153.1924 H   0  0  0  0  0  0  0  0  0  0  0  0
  146.2001  144.0784  152.8476 H   0  0  0  0  0  0  0  0  0  0  0  0
  145.0039  142.8031  152.9076 H   0  0  0  0  0  0  0  0  0  0  0  0
  145.2874  145.1221  154.8951 H   0  0  0  0  0  0  0  0  0  0  0  0
  144.0122  144.9133  153.7085 H   0  0  0  0  0  0  0  0  0  0  0  0
  145.3769  143.5076  156.7814 H   0  0  0  0  0  0  0  0  0  0  0  0
  144.1544  142.2499  156.8294 H   0  0  0  0  0  0  0  0  0  0  0  0
  145.0787  141.1791  154.8063 H   0  0  0  0  0  0  0  0  0  0  0  0
  146.3408  141.3503  156.0049 H   0  0  0  0  0  0  0  0  0  0  0  0
  149.7714  143.6263  156.8894 H   0  0  0  0  0  0  0  0  0  0  0  0
  150.6913  144.9314  158.4555 H   0  0  0  0  0  0  0  0  0  0  0  0
  152.3347  145.2497  160.3053 H   0  0  0  0  0  0  0  0  0  0  0  0
  153.8185  143.3303  160.9558 H   0  0  0  0  0  0  0  0  0  0  0  0
  153.5814  141.1676  159.7067 H   0  0  0  0  0  0  0  0  0  0  0  0
  1  2  2  0  0  0  0
  2  3  1  0  0  0  0
  2 12  1  0  0  0  0
  3  4  1  0  0  0  0
  3 19  1  0  0  0  0
  4  5  1  0  0  0  0
  4 20  1  0  0  0  0
  4 21  1  0  0  0  0
  5  6  1  0  0  0  0
  5 22  1  0  0  0  0
  5 23  1  0  0  0  0
  6 11  1  0  0  0  0
  6  7  1  0  0  0  0
  7  8  1  0  0  0  0
  7 24  1  0  0  0  0
  7 25  1  0  0  0  0
  8  9  1  0  0  0  0
  8 26  1  0  0  0  0
  8 27  1  0  0  0  0
  9 10  1  0  0  0  0
 10 11  1  0  0  0  0
 10 28  1  0  0  0  0
 10 29  1  0  0  0  0
 11 30  1  0  0  0  0
 11 31  1  0  0  0  0
 12 13  1  0  0  0  0
 12 32  1  0  0  0  0
 13 18  1  0  0  0  0
 13 14  2  0  0  0  0
 14 15  1  0  0  0  0
 14 33  1  0  0  0  0
 15 16  2  0  0  0  0
 15 34  1  0  0  0  0
 16 17  1  0  0  0  0
 16 35  1  0  0  0  0
 17 18  2  0  0  0  0
 17 36  1  0  0  0  0
M  END
> <s_m_source_file>
AV-unprocessed.smi

> <i_m_source_file_index>
1587

> <i_lp_mmshare_version>
43012

> <i_f3d_flags>
0

> <s_epik_input>
bjFbY0hdW2NIXVtjSF1bY0hdYzFbTkhdQyg9TylbTkhdW0NIMl1bQ0gyXU4yW0NIMl1bQ0gyXU9bQ0gyXVtDSDJdMg==

> <s_epik_cmdline>
J2VwaWtfcHl0aG9uJywgJy1waCcsICc3LjAnLCAnLXRuJywgJzgnLCAnLW1hJywgJzIwMCcsICctbWV0YWxfYmluZGluZycsICctaW1hZScsICc8aW5maWxlLm1hZT4nLCAnLW9tYWUnLCAnPG91dGZpbGUubWFlPic=

> <r_epik_Ionization_Penalty>
0.266037

> <r_epik_Ionization_Penalty_Charging>
0

> <r_epik_Ionization_Penalty_Neutral>
0.266037

> <r_epik_State_Penalty>
0.257924

> <r_epik_Charging_Adjusted_Penalty>
0.257924

> <i_epik_Tot_Q>
0

> <i_epik_Tot_abs_Q>
0

> <r_epik_Metal_State_Penalty>
0.257923

> <b_epik_Metal_Only>
0

> <s_lp_Force_Field>
OPLS_2005

> <r_lp_Energy>
22.0776

> <b_lp_Chiralities_Consistent>
1

> <s_lp_Variant>
AV-unprocessed.smi:1587-1

> <Gold.Version>
5.8.1

> <Gold.Id.Protein>
6NUR|6NUR_protein|mol2

> <Gold.PLP.Fitness>
43.1088

> <Gold.PLP.PLP>
-37.4939

> <Gold.PLP.part.hbond>
-2.0000

> <Gold.PLP.part.metal>
0.0000

> <Gold.PLP.part.buried>
-7.9912

> <Gold.PLP.part.nonpolar>
-28.5995

> <Gold.PLP.part.repulsive>
0.5097

> <Gold.PLP.ligand.clash>
0.0000

> <Gold.PLP.ligand.torsion>
0.1954

> <Gold.PLP.Chemscore.Hbond>
1.9920

> <Gold.PLP.Chemscore.CHOScore>
0.0000

> <Gold.PLP.Chemscore.Metal>
0.0000

> <Gold.Chemscore.Hbonds>
donor molecule, donor type, donor heavy atom, donor atom, acceptor molecule, acceptor atom, score
      L1  H     3    19       P1  8028  1.00
      L1  H    12    32       P1  8028  0.98

> <Gold.PLP.Chemscore.Internal.Correction>
0.0297

> <Gold.Rescore>
     Score         DG    S(hbond)    S(metal)    S(lipo)     H(rot)  DE(clash)    DE(int)     intcor
     15.88     -17.54       1.92        0.00      82.16       1.55       0.11       1.54       ----

> <Gold.Chemscore.Fitness>
15.8849

> <Gold.Chemscore.DG>
-17.5408

> <Gold.Chemscore.ZeroCoef>
-5.4800

> <Gold.Chemscore.Hbond>
1.9197

> <Gold.Chemscore.Metal>
0.0000

> <Gold.Chemscore.Lipo>
82.1606

> <Gold.Chemscore.Internal_Hbond>
0.0000

> <Gold.Chemscore.DEClash>
0.1129

> <Gold.Chemscore.DEInternal>
1.5430

> <Gold.Chemscore.Rot>
1.5484

> <Gold.Chemscore.Internal.Correction>
   9.000000E+99

> <Gold.Chemscore.Hbonds>
donor molecule, donor type, donor heavy atom, donor atom, acceptor molecule, acceptor atom, score
      L1  H     3    19       P1  8028  0.95
      L1  H    12    32       P1  8028  0.92

> <Gold.Chemscore.Hbond.Weighted>
-6.4119

> <Gold.Chemscore.Metal.Weighted>
-0.0000

> <Gold.Chemscore.Lipo.Weighted>
-9.6128

> <Gold.Chemscore.Internal_Hbond.Weighted>
0.0000

> <Gold.Chemscore.DEClash.Weighted>
0.1129

> <Gold.Chemscore.DEInternal.Weighted>
1.5430

> <Gold.Chemscore.Rot.Weighted>
3.9639

> <Gold.Chemscore.Internal.Correction.Weighted>
   9.000000E+99

> <Gold.Protein.RotatedTorsions>
[ 6907 6896 6895 6894 ] final  109.62 input  -60.11 | X-H torsion
[ 7974 7965 7964 7962 ] final  100.57 input  175.53 | X-H torsion
[ 8008 7997 7996 7995 ] final  -96.47 input   59.86 | X-H torsion
[ 10167 10162 10161 10158 ] final -158.46 input  -65.29 | X-H torsion
[ 10718 10713 10712 10709 ] final  171.86 input   66.30 | X-H torsion
[ 10763 10752 10751 10750 ] final  141.73 input  -60.55 | X-H torsion
[ 11005 11000 10999 10996 ] final  -70.42 input  -57.11 | X-H torsion

> <Gold.Protein.ActiveResidues>
 VAL166  LYS551  ARG553  GLY616  TRP617  ASP618  TYR619  PRO620  LYS621  CYS622 
 ASP623  PHE694  ASN695  SER759  ASP760  ASP761  ALA762  ILE779  LEU786  VAL792 
 PHE793  MET794  SER795  GLU796  ALA797  LYS798  CYS799  TRP800  GLU811  SER814 

> <Gold.Protein.RotatedAtoms>
  152.5059  133.8918  159.7397 H   0  0  0  0  0  0  0  0  0  0  0  0  # atno 6907 bound_to 6896
  150.9355  133.6708  159.2808 H   0  0  0  0  0  0  0  0  0  0  0  0  # atno 6908 bound_to 6896
  151.4038  135.0980  159.9616 H   0  0  0  0  0  0  0  0  0  0  0  0  # atno 6909 bound_to 6896
  145.3839  139.2375  143.3389 H   0  0  0  0  0  0  0  0  0  0  0  0  # atno 7974 bound_to 7965
  154.7749  140.0471  157.1081 H   0  0  0  0  0  0  0  0  0  0  0  0  # atno 8008 bound_to 7997
  154.9775  140.3097  155.4941 H   0  0  0  0  0  0  0  0  0  0  0  0  # atno 8009 bound_to 7997
  156.2927  140.2242  156.4872 H   0  0  0  0  0  0  0  0  0  0  0  0  # atno 8010 bound_to 7997
  139.6691  143.9777  152.2272 H   0  0  0  0  0  0  0  0  0  0  0  0  # atno 10167 bound_to 10162
  156.9874  131.0137  151.2866 H   0  0  0  0  0  0  0  0  0  0  0  0  # atno 10718 bound_to 10713
  153.9441  135.2977  155.3441 H   0  0  0  0  0  0  0  0  0  0  0  0  # atno 10763 bound_to 10752
  154.7461  135.5002  153.9210 H   0  0  0  0  0  0  0  0  0  0  0  0  # atno 10764 bound_to 10752
  153.1027  135.6738  153.9750 H   0  0  0  0  0  0  0  0  0  0  0  0  # atno 10765 bound_to 10752
  141.1573  133.6789  156.6750 H   0  0  0  0  0  0  0  0  0  0  0  0  # atno 11005 bound_to 11000
  146.2829  140.4510  142.8769 LP  0  0  0  0  0  0  0  0  0  0  0  0  # atno 17320 bound_to 7965
  144.8488  140.6970  143.6181 LP  0  0  0  0  0  0  0  0  0  0  0  0  # atno 17321 bound_to 7965
  139.9537  144.6604  150.8147 LP  0  0  0  0  0  0  0  0  0  0  0  0  # atno 17342 bound_to 10162
  140.7611  143.3166  151.2719 LP  0  0  0  0  0  0  0  0  0  0  0  0  # atno 17343 bound_to 10162
  157.5483  130.8165  149.8113 LP  0  0  0  0  0  0  0  0  0  0  0  0  # atno 17370 bound_to 10713
  156.0220  130.3792  150.1933 LP  0  0  0  0  0  0  0  0  0  0  0  0  # atno 17371 bound_to 10713
  140.3146  134.8058  157.4204 LP  0  0  0  0  0  0  0  0  0  0  0  0  # atno 17394 bound_to 11000
  140.1149  134.5296  155.8234 LP  0  0  0  0  0  0  0  0  0  0  0  0  # atno 17395 bound_to 11000

$$$$
