AV-unprocessed.smi:2310|AV-procd|sdf|9258|dock4
  -GOLD-   2272012483D 1   1.00000     0.00000
 Structure written by MMmdl.
 46 47  0  0  0  0  0  0  0  0  2 V2000
  141.2030  138.2786  153.2974 C   0  0  0  0  0  0  0  0  0  0  0  0
  141.8068  138.2463  154.7091 C   0  0  0  0  0  0  0  0  0  0  0  0
  143.1527  137.5024  154.7913 C   0  0  1  0  0  0  0  0  0  0  0  0
  143.2154  136.3452  153.7823 C   0  0  0  0  0  0  0  0  0  0  0  0
  142.0851  135.4099  153.8997 C   0  0  0  0  0  0  0  0  0  0  0  0
  141.1959  134.6758  153.9935 N   0  0  0  0  0  0  0  0  0  0  0  0
  144.2567  138.4307  154.5448 N   0  0  0  0  0  0  0  0  0  0  0  0
  145.2853  138.6637  155.3728 C   0  0  0  0  0  0  0  0  0  0  0  0
  145.4229  138.1117  156.4641 O   0  0  0  0  0  0  0  0  0  0  0  0
  146.1209  139.5835  154.8609 N   0  0  0  0  0  0  0  0  0  0  0  0
  147.2906  140.1345  155.4540 C   0  0  0  0  0  0  0  0  0  0  0  0
  148.1292  139.4034  156.3311 C   0  0  0  0  0  0  0  0  0  0  0  0
  149.2766  140.0158  156.8735 C   0  0  0  0  0  0  0  0  0  0  0  0
  149.5865  141.3528  156.5329 C   0  0  0  0  0  0  0  0  0  0  0  0
  150.7141  142.0291  157.0375 N   0  0  0  0  0  0  0  0  0  0  0  0
  151.2742  141.6967  158.3373 C   0  0  0  0  0  0  0  0  0  0  0  0
  152.3219  142.7780  158.5985 C   0  0  0  0  0  0  0  0  0  0  0  0
  151.7377  144.0027  157.8952 C   0  0  0  0  0  0  0  0  0  0  0  0
  150.9884  143.4185  156.6921 C   0  0  0  0  0  0  0  0  0  0  0  0
  148.7703  142.0036  155.6706 N   0  3  0  0  0  0  0  0  0  0  0  0
  147.6601  141.4598  155.1237 C   0  0  0  0  0  0  0  0  0  0  0  0
  146.8520  142.3265  154.1752 C   0  0  0  0  0  0  0  0  0  0  0  0
  140.2807  138.8596  153.2849 H   0  0  0  0  0  0  0  0  0  0  0  0
  140.9648  137.2771  152.9384 H   0  0  0  0  0  0  0  0  0  0  0  0
  141.8920  138.7346  152.5858 H   0  0  0  0  0  0  0  0  0  0  0  0
  141.9463  139.2727  155.0501 H   0  0  0  0  0  0  0  0  0  0  0  0
  141.0919  137.7941  155.3976 H   0  0  0  0  0  0  0  0  0  0  0  0
  143.2309  137.0721  155.7915 H   0  0  0  0  0  0  0  0  0  0  0  0
  143.2080  136.7320  152.7630 H   0  0  0  0  0  0  0  0  0  0  0  0
  144.1385  135.7774  153.9026 H   0  0  0  0  0  0  0  0  0  0  0  0
  144.2296  138.9384  153.6725 H   0  0  0  0  0  0  0  0  0  0  0  0
  145.8351  140.0068  153.9901 H   0  0  0  0  0  0  0  0  0  0  0  0
  147.9208  138.3766  156.5896 H   0  0  0  0  0  0  0  0  0  0  0  0
  149.9059  139.4471  157.5418 H   0  0  0  0  0  0  0  0  0  0  0  0
  150.4878  141.7339  159.0927 H   0  0  0  0  0  0  0  0  0  0  0  0
  151.7167  140.7001  158.3440 H   0  0  0  0  0  0  0  0  0  0  0  0
  152.5073  142.9416  159.6605 H   0  0  0  0  0  0  0  0  0  0  0  0
  153.2673  142.5004  158.1299 H   0  0  0  0  0  0  0  0  0  0  0  0
  151.0306  144.4998  158.5607 H   0  0  0  0  0  0  0  0  0  0  0  0
  152.4962  144.7322  157.6092 H   0  0  0  0  0  0  0  0  0  0  0  0
  151.6144  143.4403  155.7996 H   0  0  0  0  0  0  0  0  0  0  0  0
  150.0808  143.9870  156.4864 H   0  0  0  0  0  0  0  0  0  0  0  0
  145.8406  142.4655  154.5580 H   0  0  0  0  0  0  0  0  0  0  0  0
  146.7873  141.8577  153.1930 H   0  0  0  0  0  0  0  0  0  0  0  0
  147.3049  143.3106  154.0500 H   0  0  0  0  0  0  0  0  0  0  0  0
  149.0060  142.9635  155.4189 H   0  0  0  0  0  0  0  0  0  0  0  0
  1  2  1  0  0  0  0
  1 23  1  0  0  0  0
  1 24  1  0  0  0  0
  1 25  1  0  0  0  0
  2  3  1  0  0  0  0
  2 26  1  0  0  0  0
  2 27  1  0  0  0  0
  3  4  1  0  0  0  0
  3  7  1  0  0  0  0
  3 28  1  0  0  0  0
  4  5  1  0  0  0  0
  4 29  1  0  0  0  0
  4 30  1  0  0  0  0
  5  6  3  0  0  0  0
  7  8  1  0  0  0  0
  7 31  1  0  0  0  0
  8  9  2  0  0  0  0
  8 10  1  0  0  0  0
 10 11  1  0  0  0  0
 10 32  1  0  0  0  0
 11 21  1  0  0  0  0
 11 12  2  0  0  0  0
 12 13  1  0  0  0  0
 12 33  1  0  0  0  0
 13 14  2  0  0  0  0
 13 34  1  0  0  0  0
 14 15  1  0  0  0  0
 14 20  1  0  0  0  0
 15 19  1  0  0  0  0
 15 16  1  0  0  0  0
 16 17  1  0  0  0  0
 16 35  1  0  0  0  0
 16 36  1  0  0  0  0
 17 18  1  0  0  0  0
 17 37  1  0  0  0  0
 17 38  1  0  0  0  0
 18 19  1  0  0  0  0
 18 39  1  0  0  0  0
 18 40  1  0  0  0  0
 19 41  1  0  0  0  0
 19 42  1  0  0  0  0
 20 21  2  0  0  0  0
 20 46  1  0  0  0  0
 21 22  1  0  0  0  0
 22 43  1  0  0  0  0
 22 44  1  0  0  0  0
 22 45  1  0  0  0  0
M  CHG  1  20   1
M  END
> <s_m_source_file>
AV-unprocessed.smi

> <i_m_source_file_index>
2310

> <i_lp_mmshare_version>
43012

> <i_f3d_flags>
0

> <s_epik_input>
TiNDW0NIMl1bQ0BASF0oW0NIMl1bQ0gzXSlbTkhdQyg9TylbTkhdYzFbY0hdW2NIXWMobmMxW0NIM10pTjJbQ0gyXVtDSDJdW0NIMl1bQ0gyXTI=

> <s_epik_cmdline>
J2VwaWtfcHl0aG9uJywgJy1waCcsICc3LjAnLCAnLXRuJywgJzgnLCAnLW1hJywgJzIwMCcsICctbWV0YWxfYmluZGluZycsICctaW1hZScsICc8aW5maWxlLm1hZT4nLCAnLW9tYWUnLCAnPG91dGZpbGUubWFlPic=

> <r_lp_tautomer_probability>
0.999994

> <r_epik_Ionization_Penalty>
0.577302

> <r_epik_Ionization_Penalty_Charging>
0.577278

> <r_epik_Ionization_Penalty_Neutral>
2.39253e-05

> <r_epik_State_Penalty>
0.589738

> <r_epik_Charging_Adjusted_Penalty>
1.16702

> <i_epik_Tot_Q>
1

> <i_epik_Tot_abs_Q>
1

> <r_epik_Metal_State_Penalty>
0.784556

> <b_epik_Metal_Only>
0

> <s_lp_Force_Field>
OPLS_2005

> <r_lp_Energy>
35.6243

> <b_lp_Chiralities_Consistent>
1

> <s_lp_Variant>
AV-unprocessed.smi:2310-4

> <Gold.Version>
5.8.1

> <Gold.Id.Protein>
6NUR|6NUR_protein|mol2

> <Gold.PLP.Fitness>
42.9808

> <Gold.PLP.PLP>
-32.2512

> <Gold.PLP.part.hbond>
-3.2353

> <Gold.PLP.part.metal>
0.0000

> <Gold.PLP.part.buried>
-2.3975

> <Gold.PLP.part.nonpolar>
-26.9435

> <Gold.PLP.part.repulsive>
0.3023

> <Gold.PLP.ligand.clash>
0.0000

> <Gold.PLP.ligand.torsion>
0.7582

> <Gold.PLP.Chemscore.Hbond>
4.0000

> <Gold.PLP.Chemscore.CHOScore>
0.0000

> <Gold.PLP.Chemscore.Metal>
0.0000

> <Gold.Chemscore.Hbonds>
donor molecule, donor type, donor heavy atom, donor atom, acceptor molecule, acceptor atom, score
      L1  H     7    31       P1 10175  1.00
      L1  H    20    46       P1  8028  2.00
      P1  H 11000 11005       L1     6  1.00

> <Gold.PLP.Chemscore.Internal.Correction>
0.2459

> <Gold.Rescore>
     Score         DG    S(hbond)    S(metal)    S(lipo)     H(rot)  DE(clash)    DE(int)     intcor
     16.97     -20.14       2.90        0.00      74.55       1.47       1.51       1.66       ----

> <Gold.Chemscore.Fitness>
16.9650

> <Gold.Chemscore.DG>
-20.1356

> <Gold.Chemscore.ZeroCoef>
-5.4800

> <Gold.Chemscore.Hbond>
2.9024

> <Gold.Chemscore.Metal>
0.0000

> <Gold.Chemscore.Lipo>
74.5481

> <Gold.Chemscore.Internal_Hbond>
0.0000

> <Gold.Chemscore.DEClash>
1.5128

> <Gold.Chemscore.DEInternal>
1.6577

> <Gold.Chemscore.Rot>
1.4690

> <Gold.Chemscore.Internal.Correction>
   9.000000E+99

> <Gold.Chemscore.Hbonds>
donor molecule, donor type, donor heavy atom, donor atom, acceptor molecule, acceptor atom, score
      L1  H     7    31       P1 10175  0.93
      L1  H    20    46       P1  8028  0.96
      P1  H 11000 11005       L1     6  0.96

> <Gold.Chemscore.Hbond.Weighted>
-9.6940

> <Gold.Chemscore.Metal.Weighted>
-0.0000

> <Gold.Chemscore.Lipo.Weighted>
-8.7221

> <Gold.Chemscore.Internal_Hbond.Weighted>
0.0000

> <Gold.Chemscore.DEClash.Weighted>
1.5128

> <Gold.Chemscore.DEInternal.Weighted>
1.6577

> <Gold.Chemscore.Rot.Weighted>
3.7606

> <Gold.Chemscore.Internal.Correction.Weighted>
   9.000000E+99

> <Gold.Protein.RotatedTorsions>
[ 6907 6896 6895 6894 ] final  -62.06 input  -60.11 | X-H torsion
[ 7974 7965 7964 7962 ] final -117.76 input  175.53 | X-H torsion
[ 8008 7997 7996 7995 ] final -143.60 input   59.86 | X-H torsion
[ 10167 10162 10161 10158 ] final   18.65 input  -65.29 | X-H torsion
[ 10718 10713 10712 10709 ] final -135.65 input   66.30 | X-H torsion
[ 10763 10752 10751 10750 ] final  123.17 input  -60.55 | X-H torsion
[ 11005 11000 10999 10996 ] final   27.05 input  -57.11 | X-H torsion

> <Gold.Protein.ActiveResidues>
 VAL166  LYS551  ARG553  GLY616  TRP617  ASP618  TYR619  PRO620  LYS621  CYS622 
 ASP623  PHE694  ASN695  SER759  ASP760  ASP761  ALA762  ILE779  LEU786  VAL792 
 PHE793  MET794  SER795  GLU796  ALA797  LYS798  CYS799  TRP800  GLU811  SER814 

> <Gold.Protein.RotatedAtoms>
  150.7742  134.6622  159.6345 H   0  0  0  0  0  0  0  0  0  0  0  0  # atno 6907 bound_to 6896
  152.3805  134.6594  160.0153 H   0  0  0  0  0  0  0  0  0  0  0  0  # atno 6908 bound_to 6896
  151.6925  133.3274  159.3282 H   0  0  0  0  0  0  0  0  0  0  0  0  # atno 6909 bound_to 6896
  145.0815  140.8429  143.4036 H   0  0  0  0  0  0  0  0  0  0  0  0  # atno 7974 bound_to 7965
  155.5132  140.0585  157.2920 H   0  0  0  0  0  0  0  0  0  0  0  0  # atno 8008 bound_to 7997
  154.4544  140.1965  156.0370 H   0  0  0  0  0  0  0  0  0  0  0  0  # atno 8009 bound_to 7997
  156.0770  140.3252  155.7650 H   0  0  0  0  0  0  0  0  0  0  0  0  # atno 8010 bound_to 7997
  140.5637  143.9289  150.6661 H   0  0  0  0  0  0  0  0  0  0  0  0  # atno 10167 bound_to 10162
  156.2684  130.7251  151.1210 H   0  0  0  0  0  0  0  0  0  0  0  0  # atno 10718 bound_to 10713
  153.6413  135.3379  155.3072 H   0  0  0  0  0  0  0  0  0  0  0  0  # atno 10763 bound_to 10752
  154.8559  135.4319  154.2001 H   0  0  0  0  0  0  0  0  0  0  0  0  # atno 10764 bound_to 10752
  153.2921  135.7018  153.7357 H   0  0  0  0  0  0  0  0  0  0  0  0  # atno 10765 bound_to 10752
  140.3305  134.2443  155.7703 H   0  0  0  0  0  0  0  0  0  0  0  0  # atno 11005 bound_to 11000
  145.1172  139.2717  143.5607 LP  0  0  0  0  0  0  0  0  0  0  0  0  # atno 17320 bound_to 7965
  146.3531  140.0786  142.8619 LP  0  0  0  0  0  0  0  0  0  0  0  0  # atno 17321 bound_to 7965
  140.2747  143.3431  152.1206 LP  0  0  0  0  0  0  0  0  0  0  0  0  # atno 17342 bound_to 10162
  139.5083  144.6847  151.5919 LP  0  0  0  0  0  0  0  0  0  0  0  0  # atno 17343 bound_to 10162
  157.7275  131.0638  150.5860 LP  0  0  0  0  0  0  0  0  0  0  0  0  # atno 17370 bound_to 10713
  156.5954  130.4340  149.5919 LP  0  0  0  0  0  0  0  0  0  0  0  0  # atno 17371 bound_to 10713
  141.2064  133.7833  157.0176 LP  0  0  0  0  0  0  0  0  0  0  0  0  # atno 17394 bound_to 11000
  140.0865  134.9618  157.1708 LP  0  0  0  0  0  0  0  0  0  0  0  0  # atno 17395 bound_to 11000

$$$$
