AV-unprocessed.smi:2536|AV-procd|sdf|9978|dock10
  -GOLD-   2272014 23D 1   1.00000     0.00000
 Structure written by MMmdl.
 32 33  0  0  0  0  0  0  0  0  1 V2000
  151.7050  145.7123  160.0809 C   0  0  0  0  0  0  0  0  0  0  0  0
  151.7818  144.4050  159.3154 C   0  0  0  0  0  0  0  0  0  0  0  0
  151.2438  144.2953  158.0151 C   0  0  0  0  0  0  0  0  0  0  0  0
  151.3029  143.1443  157.3113 N   0  0  0  0  0  0  0  0  0  0  0  0
  151.8966  142.1036  157.8988 C   0  0  0  0  0  0  0  0  0  0  0  0
  151.9423  140.9441  157.1453 N   0  0  0  0  0  0  0  0  0  0  0  0
  151.3094  140.7636  155.8446 C   0  0  2  0  0  0  0  0  0  0  0  0
  149.8179  141.1393  155.8809 C   0  0  0  0  0  0  0  0  0  0  0  0
  149.1749  140.8434  154.5220 C   0  0  0  0  0  0  0  0  0  0  0  0
  149.4483  139.3895  154.1061 C   0  0  0  0  0  0  0  0  0  0  0  0
  150.8511  139.1462  154.0876 O   0  0  0  0  0  0  0  0  0  0  0  0
  151.4637  139.3089  155.3629 C   0  0  0  0  0  0  0  0  0  0  0  0
  152.4364  142.0902  159.1228 N   0  0  0  0  0  0  0  0  0  0  0  0
  152.3846  143.2350  159.8391 C   0  0  0  0  0  0  0  0  0  0  0  0
  153.0158  143.1684  161.2181 C   0  0  0  0  0  0  0  0  0  0  0  0
  151.2185  146.4872  159.4879 H   0  0  0  0  0  0  0  0  0  0  0  0
  152.7050  146.0625  160.3375 H   0  0  0  0  0  0  0  0  0  0  0  0
  151.1331  145.5832  161.0001 H   0  0  0  0  0  0  0  0  0  0  0  0
  150.7647  145.1344  157.5327 H   0  0  0  0  0  0  0  0  0  0  0  0
  152.3816  140.1409  157.5707 H   0  0  0  0  0  0  0  0  0  0  0  0
  151.8172  141.4072  155.1249 H   0  0  0  0  0  0  0  0  0  0  0  0
  149.3081  140.5663  156.6570 H   0  0  0  0  0  0  0  0  0  0  0  0
  149.6865  142.1921  156.1320 H   0  0  0  0  0  0  0  0  0  0  0  0
  148.1015  141.0289  154.5643 H   0  0  0  0  0  0  0  0  0  0  0  0
  149.5810  141.5204  153.7695 H   0  0  0  0  0  0  0  0  0  0  0  0
  148.9562  138.6917  154.7854 H   0  0  0  0  0  0  0  0  0  0  0  0
  149.0452  139.2023  153.1107 H   0  0  0  0  0  0  0  0  0  0  0  0
  152.5198  139.0528  155.2729 H   0  0  0  0  0  0  0  0  0  0  0  0
  151.0266  138.6085  156.0769 H   0  0  0  0  0  0  0  0  0  0  0  0
  152.8820  144.0856  161.7893 H   0  0  0  0  0  0  0  0  0  0  0  0
  154.0861  142.9810  161.1288 H   0  0  0  0  0  0  0  0  0  0  0  0
  152.5757  142.3527  161.7924 H   0  0  0  0  0  0  0  0  0  0  0  0
  1  2  1  0  0  0  0
  1 16  1  0  0  0  0
  1 17  1  0  0  0  0
  1 18  1  0  0  0  0
  2 14  1  0  0  0  0
  2  3  2  0  0  0  0
  3  4  1  0  0  0  0
  3 19  1  0  0  0  0
  4  5  2  0  0  0  0
  5  6  1  0  0  0  0
  5 13  1  0  0  0  0
  6  7  1  0  0  0  0
  6 20  1  0  0  0  0
  7 12  1  0  0  0  0
  7  8  1  0  0  0  0
  7 21  1  0  0  0  0
  8  9  1  0  0  0  0
  8 22  1  0  0  0  0
  8 23  1  0  0  0  0
  9 10  1  0  0  0  0
  9 24  1  0  0  0  0
  9 25  1  0  0  0  0
 10 11  1  0  0  0  0
 10 26  1  0  0  0  0
 10 27  1  0  0  0  0
 11 12  1  0  0  0  0
 12 28  1  0  0  0  0
 12 29  1  0  0  0  0
 13 14  2  0  0  0  0
 14 15  1  0  0  0  0
 15 30  1  0  0  0  0
 15 31  1  0  0  0  0
 15 32  1  0  0  0  0
M  END
> <s_m_source_file>
AV-unprocessed.smi

> <i_m_source_file_index>
2536

> <i_lp_mmshare_version>
43012

> <i_f3d_flags>
0

> <s_epik_input>
W0NIM11jMVtjSF1uYyhuYzFbQ0gzXSlbTkhdW0NAQEhdMltDSDJdW0NIMl1bQ0gyXU9bQ0gyXTI=

> <s_epik_cmdline>
J2VwaWtfcHl0aG9uJywgJy1waCcsICc3LjAnLCAnLXRuJywgJzgnLCAnLW1hJywgJzIwMCcsICctbWV0YWxfYmluZGluZycsICctaW1hZScsICc8aW5maWxlLm1hZT4nLCAnLW9tYWUnLCAnPG91dGZpbGUubWFlPic=

> <r_lp_tautomer_probability>
1

> <r_epik_Ionization_Penalty>
0.00982357

> <r_epik_Ionization_Penalty_Charging>
0

> <r_epik_Ionization_Penalty_Neutral>
0.00982357

> <r_epik_State_Penalty>
0.0064698

> <r_epik_Charging_Adjusted_Penalty>
0.0064698

> <i_epik_Tot_Q>
0

> <i_epik_Tot_abs_Q>
0

> <r_epik_Metal_State_Penalty>
-0

> <b_epik_Metal_Only>
0

> <s_lp_Force_Field>
OPLS_2005

> <r_lp_Energy>
1.83983

> <b_lp_Chiralities_Consistent>
1

> <s_lp_Variant>
AV-unprocessed.smi:2536-1

> <Gold.Version>
5.8.1

> <Gold.Id.Protein>
6NUR|6NUR_protein|mol2

> <Gold.PLP.Fitness>
39.0830

> <Gold.PLP.PLP>
-35.7558

> <Gold.PLP.part.hbond>
-1.0000

> <Gold.PLP.part.metal>
0.0000

> <Gold.PLP.part.buried>
-1.5636

> <Gold.PLP.part.nonpolar>
-32.6791

> <Gold.PLP.part.repulsive>
0.4128

> <Gold.PLP.ligand.clash>
0.0000

> <Gold.PLP.ligand.torsion>
0.0459

> <Gold.PLP.Chemscore.Hbond>
0.7000

> <Gold.PLP.Chemscore.CHOScore>
0.4386

> <Gold.PLP.Chemscore.Metal>
0.0000

> <Gold.Chemscore.Hbonds>
donor molecule, donor type, donor heavy atom, donor atom, acceptor molecule, acceptor atom, score
      P1  H  7989  7998       L1    11  0.55
      L1  C     3    19       P1  8028  0.56

> <Gold.PLP.Chemscore.Internal.Correction>
0.0031

> <Gold.Rescore>
     Score         DG    S(hbond)    S(metal)    S(lipo)     H(rot)  DE(clash)    DE(int)     intcor
     12.54     -13.85       0.00        0.00      93.42       1.00       0.02       1.29       ----

> <Gold.Chemscore.Fitness>
12.5407

> <Gold.Chemscore.DG>
-13.8502

> <Gold.Chemscore.ZeroCoef>
-5.4800

> <Gold.Chemscore.Hbond>
0.0000

> <Gold.Chemscore.Metal>
0.0000

> <Gold.Chemscore.Lipo>
93.4199

> <Gold.Chemscore.Internal_Hbond>
0.0000

> <Gold.Chemscore.DEClash>
0.0209

> <Gold.Chemscore.DEInternal>
1.2886

> <Gold.Chemscore.Rot>
1.0000

> <Gold.Chemscore.Internal.Correction>
   9.000000E+99

> <Gold.Chemscore.Hbonds>
donor molecule, donor type, donor heavy atom, donor atom, acceptor molecule, acceptor atom, score
      P1  H  7989  7998       L1    11  0.01

> <Gold.Chemscore.Hbond.Weighted>
-0.0001

> <Gold.Chemscore.Metal.Weighted>
-0.0000

> <Gold.Chemscore.Lipo.Weighted>
-10.9301

> <Gold.Chemscore.Internal_Hbond.Weighted>
0.0000

> <Gold.Chemscore.DEClash.Weighted>
0.0209

> <Gold.Chemscore.DEInternal.Weighted>
1.2886

> <Gold.Chemscore.Rot.Weighted>
2.5600

> <Gold.Chemscore.Internal.Correction.Weighted>
   9.000000E+99

> <Gold.Protein.RotatedTorsions>
[ 6907 6896 6895 6894 ] final    9.83 input  -60.11 | X-H torsion
[ 7974 7965 7964 7962 ] final  -77.41 input  175.53 | X-H torsion
[ 8008 7997 7996 7995 ] final   -1.67 input   59.86 | X-H torsion
[ 10167 10162 10161 10158 ] final  -23.53 input  -65.29 | X-H torsion
[ 10718 10713 10712 10709 ] final   79.96 input   66.30 | X-H torsion
[ 10763 10752 10751 10750 ] final  -32.87 input  -60.55 | X-H torsion
[ 11005 11000 10999 10996 ] final -118.70 input  -57.11 | X-H torsion

> <Gold.Protein.ActiveResidues>
 VAL166  LYS551  ARG553  GLY616  TRP617  ASP618  TYR619  PRO620  LYS621  CYS622 
 ASP623  PHE694  ASN695  SER759  ASP760  ASP761  ALA762  ILE779  LEU786  VAL792 
 PHE793  MET794  SER795  GLU796  ALA797  LYS798  CYS799  TRP800  GLU811  SER814 

> <Gold.Protein.RotatedAtoms>
  151.7285  135.0879  160.0295 H   0  0  0  0  0  0  0  0  0  0  0  0  # atno 6907 bound_to 6896
  152.3556  133.6229  159.5985 H   0  0  0  0  0  0  0  0  0  0  0  0  # atno 6908 bound_to 6896
  150.7569  133.9421  159.3501 H   0  0  0  0  0  0  0  0  0  0  0  0  # atno 6909 bound_to 6896
  145.6001  140.9410  143.1245 H   0  0  0  0  0  0  0  0  0  0  0  0  # atno 7974 bound_to 7965
  154.6442  140.2553  155.7287 H   0  0  0  0  0  0  0  0  0  0  0  0  # atno 8008 bound_to 7997
  156.2544  140.2881  156.0769 H   0  0  0  0  0  0  0  0  0  0  0  0  # atno 8009 bound_to 7997
  155.1550  140.0383  157.2820 H   0  0  0  0  0  0  0  0  0  0  0  0  # atno 8010 bound_to 7997
  140.7288  143.4435  151.0622 H   0  0  0  0  0  0  0  0  0  0  0  0  # atno 10167 bound_to 10162
  157.6792  130.9938  150.2008 H   0  0  0  0  0  0  0  0  0  0  0  0  # atno 10718 bound_to 10713
  153.8209  135.6874  153.4827 H   0  0  0  0  0  0  0  0  0  0  0  0  # atno 10763 bound_to 10752
  153.1570  135.4595  154.9716 H   0  0  0  0  0  0  0  0  0  0  0  0  # atno 10764 bound_to 10752
  154.7928  135.3308  154.7681 H   0  0  0  0  0  0  0  0  0  0  0  0  # atno 10765 bound_to 10752
  141.0267  134.0042  157.3203 H   0  0  0  0  0  0  0  0  0  0  0  0  # atno 11005 bound_to 11000
  144.7314  139.7716  143.7346 LP  0  0  0  0  0  0  0  0  0  0  0  0  # atno 17320 bound_to 7965
  146.1583  139.4688  143.0005 LP  0  0  0  0  0  0  0  0  0  0  0  0  # atno 17321 bound_to 7965
  139.8104  143.7959  152.3171 LP  0  0  0  0  0  0  0  0  0  0  0  0  # atno 17342 bound_to 10162
  139.8006  144.7375  150.9829 LP  0  0  0  0  0  0  0  0  0  0  0  0  # atno 17343 bound_to 10162
  156.2699  130.3720  149.8042 LP  0  0  0  0  0  0  0  0  0  0  0  0  # atno 17370 bound_to 10713
  156.5762  130.8446  151.3370 LP  0  0  0  0  0  0  0  0  0  0  0  0  # atno 17371 bound_to 10713
  139.9181  135.0198  156.7959 LP  0  0  0  0  0  0  0  0  0  0  0  0  # atno 17394 bound_to 11000
  140.6478  133.9759  155.7740 LP  0  0  0  0  0  0  0  0  0  0  0  0  # atno 17395 bound_to 11000

$$$$
