AV-unprocessed.smi:728|AV-procd|sdf|3518|dock4
  -GOLD-   22720 0513D 1   1.00000     0.00000
 Structure written by MMmdl.
 39 40  0  0  0  0  0  0  0  0  1 V2000
  144.2502  144.2342  154.9530 C   0  0  0  0  0  0  0  0  0  0  0  0
  144.5315  143.2401  156.0901 C   0  0  0  0  0  0  0  0  0  0  0  0
  144.5792  143.9278  157.4621 C   0  0  0  0  0  0  0  0  0  0  0  0
  145.7687  142.4360  155.8410 C   0  0  0  0  0  0  0  0  0  0  0  0
  146.6598  142.6121  154.8671 N   0  0  0  0  0  0  0  0  0  0  0  0
  147.6127  141.7019  155.2126 C   0  0  0  0  0  0  0  0  0  0  0  0
  148.8604  141.4920  154.4148 C   0  0  0  0  0  0  0  0  0  0  0  0
  150.0861  141.4877  155.3300 C   0  0  0  0  0  0  0  0  0  0  0  0
  150.8577  140.5288  155.3224 O   0  0  0  0  0  0  0  0  0  0  0  0
  150.2481  142.5640  156.1163 N   0  0  0  0  0  0  0  0  0  0  0  0
  151.3143  142.7443  157.0959 C   0  0  0  0  0  0  0  0  0  0  0  0
  151.1657  141.7251  158.2448 C   0  0  0  0  0  0  0  0  0  0  0  0
  152.2242  141.9482  159.3371 C   0  0  0  0  0  0  0  0  0  0  0  0
  152.1846  143.3898  159.8680 C   0  0  0  0  0  0  0  0  0  0  0  0
  152.3412  144.4057  158.7255 C   0  0  0  0  0  0  0  0  0  0  0  0
  151.2791  144.1866  157.6360 C   0  0  0  0  0  0  0  0  0  0  0  0
  147.3745  141.0074  156.3188 N   0  0  0  0  0  0  0  0  0  0  0  0
  146.1466  141.5177  156.7634 O   0  0  0  0  0  0  0  0  0  0  0  0
  144.1636  143.7203  153.9950 H   0  0  0  0  0  0  0  0  0  0  0  0
  145.0472  144.9734  154.8640 H   0  0  0  0  0  0  0  0  0  0  0  0
  143.3173  144.7719  155.1238 H   0  0  0  0  0  0  0  0  0  0  0  0
  143.6967  142.5379  156.1105 H   0  0  0  0  0  0  0  0  0  0  0  0
  144.7067  143.1975  158.2621 H   0  0  0  0  0  0  0  0  0  0  0  0
  143.6583  144.4767  157.6597 H   0  0  0  0  0  0  0  0  0  0  0  0
  145.4080  144.6343  157.5221 H   0  0  0  0  0  0  0  0  0  0  0  0
  148.7999  140.5476  153.8716 H   0  0  0  0  0  0  0  0  0  0  0  0
  148.9568  142.2819  153.6687 H   0  0  0  0  0  0  0  0  0  0  0  0
  149.5611  143.3013  156.0530 H   0  0  0  0  0  0  0  0  0  0  0  0
  152.2788  142.5893  156.6082 H   0  0  0  0  0  0  0  0  0  0  0  0
  150.1704  141.8070  158.6845 H   0  0  0  0  0  0  0  0  0  0  0  0
  151.2493  140.7080  157.8596 H   0  0  0  0  0  0  0  0  0  0  0  0
  152.0668  141.2457  160.1561 H   0  0  0  0  0  0  0  0  0  0  0  0
  153.2147  141.7349  158.9332 H   0  0  0  0  0  0  0  0  0  0  0  0
  151.2400  143.5637  160.3850 H   0  0  0  0  0  0  0  0  0  0  0  0
  152.9733  143.5359  160.6066 H   0  0  0  0  0  0  0  0  0  0  0  0
  152.2679  145.4205  159.1178 H   0  0  0  0  0  0  0  0  0  0  0  0
  153.3366  144.3141  158.2890 H   0  0  0  0  0  0  0  0  0  0  0  0
  151.4372  144.8948  156.8218 H   0  0  0  0  0  0  0  0  0  0  0  0
  150.2920  144.4040  158.0470 H   0  0  0  0  0  0  0  0  0  0  0  0
  1  2  1  0  0  0  0
  1 19  1  0  0  0  0
  1 20  1  0  0  0  0
  1 21  1  0  0  0  0
  2  3  1  0  0  0  0
  2  4  1  0  0  0  0
  2 22  1  0  0  0  0
  3 23  1  0  0  0  0
  3 24  1  0  0  0  0
  3 25  1  0  0  0  0
  4 18  1  0  0  0  0
  4  5  2  0  0  0  0
  5  6  1  0  0  0  0
  6  7  1  0  0  0  0
  6 17  2  0  0  0  0
  7  8  1  0  0  0  0
  7 26  1  0  0  0  0
  7 27  1  0  0  0  0
  8  9  2  0  0  0  0
  8 10  1  0  0  0  0
 10 11  1  0  0  0  0
 10 28  1  0  0  0  0
 11 16  1  0  0  0  0
 11 12  1  0  0  0  0
 11 29  1  0  0  0  0
 12 13  1  0  0  0  0
 12 30  1  0  0  0  0
 12 31  1  0  0  0  0
 13 14  1  0  0  0  0
 13 32  1  0  0  0  0
 13 33  1  0  0  0  0
 14 15  1  0  0  0  0
 14 34  1  0  0  0  0
 14 35  1  0  0  0  0
 15 16  1  0  0  0  0
 15 36  1  0  0  0  0
 15 37  1  0  0  0  0
 16 38  1  0  0  0  0
 16 39  1  0  0  0  0
 17 18  1  0  0  0  0
M  END
> <s_m_source_file>
AV-unprocessed.smi

> <i_m_source_file_index>
728

> <i_lp_mmshare_version>
43012

> <i_f3d_flags>
0

> <s_epik_input>
W0NIM11bQ0hdKFtDSDNdKWMxbmMobm8xKVtDSDJdQyg9TylbTkhdW0NIXTJbQ0gyXVtDSDJdW0NIMl1bQ0gyXVtDSDJdMg==

> <s_epik_cmdline>
J2VwaWtfcHl0aG9uJywgJy1waCcsICc3LjAnLCAnLXRuJywgJzgnLCAnLW1hJywgJzIwMCcsICctbWV0YWxfYmluZGluZycsICctaW1hZScsICc8aW5maWxlLm1hZT4nLCAnLW9tYWUnLCAnPG91dGZpbGUubWFlPic=

> <r_lp_tautomer_probability>
1

> <r_epik_Ionization_Penalty>
6.23623e-08

> <r_epik_Ionization_Penalty_Charging>
0

> <r_epik_Ionization_Penalty_Neutral>
6.23623e-08

> <r_epik_State_Penalty>
-0

> <r_epik_Charging_Adjusted_Penalty>
0

> <i_epik_Tot_Q>
0

> <i_epik_Tot_abs_Q>
0

> <r_epik_Metal_State_Penalty>
-0

> <b_epik_Metal_Only>
0

> <s_lp_Force_Field>
OPLS_2005

> <r_lp_Energy>
7.21718

> <b_lp_Chiralities_Consistent>
1

> <s_lp_Variant>
AV-unprocessed.smi:728-1

> <Gold.Version>
5.8.1

> <Gold.Id.Protein>
6NUR|6NUR_protein|mol2

> <Gold.PLP.Fitness>
39.5076

> <Gold.PLP.PLP>
-34.4688

> <Gold.PLP.part.hbond>
-2.0000

> <Gold.PLP.part.metal>
0.0000

> <Gold.PLP.part.buried>
-3.2996

> <Gold.PLP.part.nonpolar>
-29.2099

> <Gold.PLP.part.repulsive>
0.5097

> <Gold.PLP.ligand.clash>
0.0000

> <Gold.PLP.ligand.torsion>
0.2637

> <Gold.PLP.Chemscore.Hbond>
1.8160

> <Gold.PLP.Chemscore.CHOScore>
0.0000

> <Gold.PLP.Chemscore.Metal>
0.0000

> <Gold.Chemscore.Hbonds>
donor molecule, donor type, donor heavy atom, donor atom, acceptor molecule, acceptor atom, score
      L1  H    10    28       P1  8028  1.00
      P1  H  7989  7998       L1     9  0.77

> <Gold.PLP.Chemscore.Internal.Correction>
0.1182

> <Gold.Rescore>
     Score         DG    S(hbond)    S(metal)    S(lipo)     H(rot)  DE(clash)    DE(int)     intcor
     15.12     -15.36       1.51        0.00      77.17       1.63       0.02       0.22       ----

> <Gold.Chemscore.Fitness>
15.1247

> <Gold.Chemscore.DG>
-15.3578

> <Gold.Chemscore.ZeroCoef>
-5.4800

> <Gold.Chemscore.Hbond>
1.5056

> <Gold.Chemscore.Metal>
0.0000

> <Gold.Chemscore.Lipo>
77.1746

> <Gold.Chemscore.Internal_Hbond>
0.0000

> <Gold.Chemscore.DEClash>
0.0174

> <Gold.Chemscore.DEInternal>
0.2158

> <Gold.Chemscore.Rot>
1.6329

> <Gold.Chemscore.Internal.Correction>
   9.000000E+99

> <Gold.Chemscore.Hbonds>
donor molecule, donor type, donor heavy atom, donor atom, acceptor molecule, acceptor atom, score
      L1  H    10    28       P1  8028  0.99
      P1  H  7989  7998       L1     9  0.10

> <Gold.Chemscore.Hbond.Weighted>
-5.0286

> <Gold.Chemscore.Metal.Weighted>
-0.0000

> <Gold.Chemscore.Lipo.Weighted>
-9.0294

> <Gold.Chemscore.Internal_Hbond.Weighted>
0.0000

> <Gold.Chemscore.DEClash.Weighted>
0.0174

> <Gold.Chemscore.DEInternal.Weighted>
0.2158

> <Gold.Chemscore.Rot.Weighted>
4.1802

> <Gold.Chemscore.Internal.Correction.Weighted>
   9.000000E+99

> <Gold.Protein.RotatedTorsions>
[ 6907 6896 6895 6894 ] final   10.56 input  -60.11 | X-H torsion
[ 7974 7965 7964 7962 ] final  115.94 input  175.53 | X-H torsion
[ 8008 7997 7996 7995 ] final  -65.14 input   59.86 | X-H torsion
[ 10167 10162 10161 10158 ] final  -60.29 input  -65.29 | X-H torsion
[ 10718 10713 10712 10709 ] final  124.76 input   66.30 | X-H torsion
[ 10763 10752 10751 10750 ] final  153.94 input  -60.55 | X-H torsion
[ 11005 11000 10999 10996 ] final   95.87 input  -57.11 | X-H torsion

> <Gold.Protein.ActiveResidues>
 VAL166  LYS551  ARG553  GLY616  TRP617  ASP618  TYR619  PRO620  LYS621  CYS622 
 ASP623  PHE694  ASN695  SER759  ASP760  ASP761  ALA762  ILE779  LEU786  VAL792 
 PHE793  MET794  SER795  GLU796  ALA797  LYS798  CYS799  TRP800  GLU811  SER814 

> <Gold.Protein.RotatedAtoms>
  151.7402  135.0856  160.0314 H   0  0  0  0  0  0  0  0  0  0  0  0  # atno 6907 bound_to 6896
  152.3484  133.6146  159.5935 H   0  0  0  0  0  0  0  0  0  0  0  0  # atno 6908 bound_to 6896
  150.7524  133.9529  159.3533 H   0  0  0  0  0  0  0  0  0  0  0  0  # atno 6909 bound_to 6896
  145.1858  139.3026  143.4394 H   0  0  0  0  0  0  0  0  0  0  0  0  # atno 7974 bound_to 7965
  154.4654  140.0939  156.7005 H   0  0  0  0  0  0  0  0  0  0  0  0  # atno 8008 bound_to 7997
  155.4874  140.3469  155.4331 H   0  0  0  0  0  0  0  0  0  0  0  0  # atno 8009 bound_to 7997
  156.0946  140.1406  156.9536 H   0  0  0  0  0  0  0  0  0  0  0  0  # atno 8010 bound_to 7997
  140.6081  143.2379  151.5775 H   0  0  0  0  0  0  0  0  0  0  0  0  # atno 10167 bound_to 10162
  157.5558  131.1092  150.8623 H   0  0  0  0  0  0  0  0  0  0  0  0  # atno 10718 bound_to 10713
  154.1443  135.2819  155.3152 H   0  0  0  0  0  0  0  0  0  0  0  0  # atno 10763 bound_to 10752
  154.6264  135.5450  153.7635 H   0  0  0  0  0  0  0  0  0  0  0  0  # atno 10764 bound_to 10752
  153.0241  135.6452  154.1589 H   0  0  0  0  0  0  0  0  0  0  0  0  # atno 10765 bound_to 10752
  139.8785  134.8921  156.4075 H   0  0  0  0  0  0  0  0  0  0  0  0  # atno 11005 bound_to 11000
  146.3445  140.2054  142.8589 LP  0  0  0  0  0  0  0  0  0  0  0  0  # atno 17320 bound_to 7965
  145.0090  140.8698  143.5235 LP  0  0  0  0  0  0  0  0  0  0  0  0  # atno 17321 bound_to 7965
  139.5340  144.2834  152.1210 LP  0  0  0  0  0  0  0  0  0  0  0  0  # atno 17342 bound_to 10162
  140.2028  144.4641  150.6423 LP  0  0  0  0  0  0  0  0  0  0  0  0  # atno 17343 bound_to 10162
  156.9135  130.5289  149.5280 LP  0  0  0  0  0  0  0  0  0  0  0  0  # atno 17370 bound_to 10713
  156.0618  130.5669  150.9207 LP  0  0  0  0  0  0  0  0  0  0  0  0  # atno 17371 bound_to 10713
  140.9224  133.7636  155.9923 LP  0  0  0  0  0  0  0  0  0  0  0  0  # atno 17394 bound_to 11000
  140.8424  134.3050  157.5308 LP  0  0  0  0  0  0  0  0  0  0  0  0  # atno 17395 bound_to 11000

$$$$
