AV-unprocessed.smi:775|AV-procd|sdf|3697|dock10
  -GOLD-   22720 1113D 1   1.00000     0.00000
 Structure written by MMmdl.
 38 39  0  0  0  0  0  0  0  0  1 V2000
  149.8446  143.1328  158.5918 C   0  0  0  0  0  0  0  0  0  0  0  0
  151.1349  142.5882  157.9624 C   0  0  2  0  0  0  0  0  0  0  0  0
  152.3698  143.3439  158.5074 C   0  0  0  0  0  0  0  0  0  0  0  0
  152.7015  142.9986  159.8788 N   0  0  0  0  0  0  0  0  0  0  0  0
  152.1859  143.5292  161.0428 C   0  0  0  0  0  0  0  0  0  0  0  0
  152.7922  142.8889  162.0853 C   0  0  0  0  0  0  0  0  0  0  0  0
  153.6827  141.9786  161.4506 C   0  0  0  0  0  0  0  0  0  0  0  0
  153.6284  142.0484  160.1304 N   0  0  0  0  0  0  0  0  0  0  0  0
  151.0079  142.7580  156.5174 N   0  0  0  0  0  0  0  0  0  0  0  0
  150.4663  141.5653  155.8481 C   0  0  0  0  0  0  0  0  0  0  0  0
  151.3967  140.3442  155.9461 C   0  0  0  0  0  0  0  0  0  0  0  0
  152.3241  140.3687  156.7579 O   0  0  0  0  0  0  0  0  0  0  0  0
  151.1693  139.2766  155.1402 N   0  0  0  0  0  0  0  0  0  0  0  0
  150.0851  139.1888  154.1573 C   0  0  0  0  0  0  0  0  0  0  0  0
  149.0383  138.1985  154.6958 C   0  0  0  0  0  0  0  0  0  0  0  0
  149.6553  136.9630  155.1848 N   0  0  0  0  0  0  0  0  0  0  0  0
  150.9621  136.8078  155.4715 C   0  0  0  0  0  0  0  0  0  0  0  0
  151.4124  135.7352  155.8673 O   0  0  0  0  0  0  0  0  0  0  0  0
  151.9079  138.0129  155.2945 C   0  0  0  0  0  0  0  0  0  0  0  0
  149.8614  143.0213  159.6763 H   0  0  0  0  0  0  0  0  0  0  0  0
  148.9677  142.5989  158.2236 H   0  0  0  0  0  0  0  0  0  0  0  0
  149.7077  144.1924  158.3710 H   0  0  0  0  0  0  0  0  0  0  0  0
  151.1990  141.5292  158.2195 H   0  0  0  0  0  0  0  0  0  0  0  0
  153.2389  143.1725  157.8693 H   0  0  0  0  0  0  0  0  0  0  0  0
  152.1830  144.4183  158.4846 H   0  0  0  0  0  0  0  0  0  0  0  0
  151.4346  144.3050  161.0311 H   0  0  0  0  0  0  0  0  0  0  0  0
  152.6263  143.0478  163.1404 H   0  0  0  0  0  0  0  0  0  0  0  0
  154.3613  141.2731  161.9065 H   0  0  0  0  0  0  0  0  0  0  0  0
  150.4290  143.5643  156.3295 H   0  0  0  0  0  0  0  0  0  0  0  0
  149.5104  141.3084  156.2975 H   0  0  0  0  0  0  0  0  0  0  0  0
  150.2889  141.7891  154.7954 H   0  0  0  0  0  0  0  0  0  0  0  0
  149.6254  140.1411  153.8969 H   0  0  0  0  0  0  0  0  0  0  0  0
  150.5006  138.8087  153.2228 H   0  0  0  0  0  0  0  0  0  0  0  0
  148.4865  138.6518  155.5200 H   0  0  0  0  0  0  0  0  0  0  0  0
  148.3102  137.9564  153.9215 H   0  0  0  0  0  0  0  0  0  0  0  0
  149.0473  136.1666  155.3113 H   0  0  0  0  0  0  0  0  0  0  0  0
  152.5138  137.8506  154.4024 H   0  0  0  0  0  0  0  0  0  0  0  0
  152.6007  138.0219  156.1371 H   0  0  0  0  0  0  0  0  0  0  0  0
  1  2  1  0  0  0  0
  1 20  1  0  0  0  0
  1 21  1  0  0  0  0
  1 22  1  0  0  0  0
  2  3  1  0  0  0  0
  2  9  1  0  0  0  0
  2 23  1  0  0  0  0
  3  4  1  0  0  0  0
  3 24  1  0  0  0  0
  3 25  1  0  0  0  0
  4  8  1  0  0  0  0
  4  5  1  0  0  0  0
  5  6  2  0  0  0  0
  5 26  1  0  0  0  0
  6  7  1  0  0  0  0
  6 27  1  0  0  0  0
  7  8  2  0  0  0  0
  7 28  1  0  0  0  0
  9 10  1  0  0  0  0
  9 29  1  0  0  0  0
 10 11  1  0  0  0  0
 10 30  1  0  0  0  0
 10 31  1  0  0  0  0
 11 12  2  0  0  0  0
 11 13  1  0  0  0  0
 13 19  1  0  0  0  0
 13 14  1  0  0  0  0
 14 15  1  0  0  0  0
 14 32  1  0  0  0  0
 14 33  1  0  0  0  0
 15 16  1  0  0  0  0
 15 34  1  0  0  0  0
 15 35  1  0  0  0  0
 16 17  1  0  0  0  0
 16 36  1  0  0  0  0
 17 18  2  0  0  0  0
 17 19  1  0  0  0  0
 19 37  1  0  0  0  0
 19 38  1  0  0  0  0
M  END
> <s_m_source_file>
AV-unprocessed.smi

> <i_m_source_file_index>
775

> <i_lp_mmshare_version>
43012

> <i_f3d_flags>
0

> <s_epik_input>
bjFbY0hdW2NIXVtjSF1uMVtDSDJdW0NAQEhdKFtDSDNdKVtOSF1bQ0gyXUMoPU8pTjJbQ0gyXVtDSDJdW05IXUMoPU8pW0NIMl0y

> <s_epik_cmdline>
J2VwaWtfcHl0aG9uJywgJy1waCcsICc3LjAnLCAnLXRuJywgJzgnLCAnLW1hJywgJzIwMCcsICctbWV0YWxfYmluZGluZycsICctaW1hZScsICc8aW5maWxlLm1hZT4nLCAnLW9tYWUnLCAnPG91dGZpbGUubWFlPic=

> <r_lp_tautomer_probability>
1

> <r_epik_Ionization_Penalty>
0.836058

> <r_epik_Ionization_Penalty_Charging>
0

> <r_epik_Ionization_Penalty_Neutral>
0.836058

> <r_epik_State_Penalty>
0.870309

> <r_epik_Charging_Adjusted_Penalty>
0.870309

> <i_epik_Tot_Q>
0

> <i_epik_Tot_abs_Q>
0

> <r_epik_Metal_State_Penalty>
0.870266

> <b_epik_Metal_Only>
0

> <s_lp_Force_Field>
OPLS_2005

> <r_lp_Energy>
24.9182

> <b_lp_Chiralities_Consistent>
1

> <s_lp_Variant>
AV-unprocessed.smi:775-3

> <Gold.Version>
5.8.1

> <Gold.Id.Protein>
6NUR|6NUR_protein|mol2

> <Gold.PLP.Fitness>
49.6598

> <Gold.PLP.PLP>
-42.8004

> <Gold.PLP.part.hbond>
-3.0000

> <Gold.PLP.part.metal>
0.0000

> <Gold.PLP.part.buried>
-2.4619

> <Gold.PLP.part.nonpolar>
-36.2826

> <Gold.PLP.part.repulsive>
0.0659

> <Gold.PLP.ligand.clash>
0.0000

> <Gold.PLP.ligand.torsion>
1.0651

> <Gold.PLP.Chemscore.Hbond>
2.9833

> <Gold.PLP.Chemscore.CHOScore>
0.0000

> <Gold.PLP.Chemscore.Metal>
0.0000

> <Gold.Chemscore.Hbonds>
donor molecule, donor type, donor heavy atom, donor atom, acceptor molecule, acceptor atom, score
      L1  H     9    29       P1  8028  0.99
      P1  H  7997  8008       L1    12  0.95
      P1  H 10752 10764       L1    18  1.00

> <Gold.PLP.Chemscore.Internal.Correction>
0.0396

> <Gold.Rescore>
     Score         DG    S(hbond)    S(metal)    S(lipo)     H(rot)  DE(clash)    DE(int)     intcor
     16.74     -19.33       2.71        0.00      87.43       2.12       0.21       2.39       ----

> <Gold.Chemscore.Fitness>
16.7405

> <Gold.Chemscore.DG>
-19.3342

> <Gold.Chemscore.ZeroCoef>
-5.4800

> <Gold.Chemscore.Hbond>
2.7130

> <Gold.Chemscore.Metal>
0.0000

> <Gold.Chemscore.Lipo>
87.4340

> <Gold.Chemscore.Internal_Hbond>
0.0000

> <Gold.Chemscore.DEClash>
0.2067

> <Gold.Chemscore.DEInternal>
2.3870

> <Gold.Chemscore.Rot>
2.1239

> <Gold.Chemscore.Internal.Correction>
   9.000000E+99

> <Gold.Chemscore.Hbonds>
donor molecule, donor type, donor heavy atom, donor atom, acceptor molecule, acceptor atom, score
      L1  H     9    29       P1  8028  0.93
      P1  H  7997  8008       L1    12  0.86
      P1  H 10752 10764       L1    18  0.50

> <Gold.Chemscore.Hbond.Weighted>
-9.0615

> <Gold.Chemscore.Metal.Weighted>
-0.0000

> <Gold.Chemscore.Lipo.Weighted>
-10.2298

> <Gold.Chemscore.Internal_Hbond.Weighted>
0.0000

> <Gold.Chemscore.DEClash.Weighted>
0.2067

> <Gold.Chemscore.DEInternal.Weighted>
2.3870

> <Gold.Chemscore.Rot.Weighted>
5.4371

> <Gold.Chemscore.Internal.Correction.Weighted>
   9.000000E+99

> <Gold.Protein.RotatedTorsions>
[ 6907 6896 6895 6894 ] final   87.47 input  -60.11 | X-H torsion
[ 7974 7965 7964 7962 ] final    6.25 input  175.53 | X-H torsion
[ 8008 7997 7996 7995 ] final  -50.92 input   59.86 | X-H torsion
[ 10167 10162 10161 10158 ] final   41.48 input  -65.29 | X-H torsion
[ 10718 10713 10712 10709 ] final -112.94 input   66.30 | X-H torsion
[ 10763 10752 10751 10750 ] final  -40.73 input  -60.55 | X-H torsion
[ 11005 11000 10999 10996 ] final   -1.46 input  -57.11 | X-H torsion

> <Gold.Protein.ActiveResidues>
 VAL166  LYS551  ARG553  GLY616  TRP617  ASP618  TYR619  PRO620  LYS621  CYS622 
 ASP623  PHE694  ASN695  SER759  ASP760  ASP761  ALA762  ILE779  LEU786  VAL792 
 PHE793  MET794  SER795  GLU796  ALA797  LYS798  CYS799  TRP800  GLU811  SER814 

> <Gold.Protein.RotatedAtoms>
  152.5411  134.2272  159.8810 H   0  0  0  0  0  0  0  0  0  0  0  0  # atno 6907 bound_to 6896
  151.2246  133.4477  159.2609 H   0  0  0  0  0  0  0  0  0  0  0  0  # atno 6908 bound_to 6896
  151.0773  134.9849  159.8394 H   0  0  0  0  0  0  0  0  0  0  0  0  # atno 6909 bound_to 6896
  146.2436  140.0262  142.8393 H   0  0  0  0  0  0  0  0  0  0  0  0  # atno 7974 bound_to 7965
  154.4072  140.1260  156.4745 H   0  0  0  0  0  0  0  0  0  0  0  0  # atno 8008 bound_to 7997
  155.7146  140.3493  155.4969 H   0  0  0  0  0  0  0  0  0  0  0  0  # atno 8009 bound_to 7997
  155.9269  140.1062  157.1153 H   0  0  0  0  0  0  0  0  0  0  0  0  # atno 8010 bound_to 7997
  140.3639  144.2193  150.6136 H   0  0  0  0  0  0  0  0  0  0  0  0  # atno 10167 bound_to 10162
  156.0736  130.5946  150.8575 H   0  0  0  0  0  0  0  0  0  0  0  0  # atno 10718 bound_to 10713
  153.9507  135.6751  153.4744 H   0  0  0  0  0  0  0  0  0  0  0  0  # atno 10763 bound_to 10752
  153.0885  135.4886  154.8642 H   0  0  0  0  0  0  0  0  0  0  0  0  # atno 10764 bound_to 10752
  154.7327  135.3142  154.8824 H   0  0  0  0  0  0  0  0  0  0  0  0  # atno 10765 bound_to 10752
  140.6475  133.9434  155.8361 H   0  0  0  0  0  0  0  0  0  0  0  0  # atno 11005 bound_to 11000
  145.1196  140.9454  143.4608 LP  0  0  0  0  0  0  0  0  0  0  0  0  # atno 17320 bound_to 7965
  145.0494  139.3194  143.5936 LP  0  0  0  0  0  0  0  0  0  0  0  0  # atno 17321 bound_to 7965
  140.5100  143.2293  151.8550 LP  0  0  0  0  0  0  0  0  0  0  0  0  # atno 17342 bound_to 10162
  139.4811  144.4961  151.9122 LP  0  0  0  0  0  0  0  0  0  0  0  0  # atno 17343 bound_to 10162
  157.5820  131.0946  150.9256 LP  0  0  0  0  0  0  0  0  0  0  0  0  # atno 17370 bound_to 10713
  156.9450  130.5398  149.5281 LP  0  0  0  0  0  0  0  0  0  0  0  0  # atno 17371 bound_to 10713
  141.0561  134.0414  157.3720 LP  0  0  0  0  0  0  0  0  0  0  0  0  # atno 17394 bound_to 11000
  139.9057  135.0179  156.7476 LP  0  0  0  0  0  0  0  0  0  0  0  0  # atno 17395 bound_to 11000

$$$$
