AV-unprocessed.smi:198|AV-procd|sdf|1555|dock5
  -GOLD-   2262019423D 1   1.00000     0.00000
 Structure written by MMmdl.
 59 63  0  0  0  0  0  0  0  0  2 V2000
  148.2879  128.2968  152.8408 C   0  0  0  0  0  0  0  0  0  0  0  0
  147.6964  129.6239  152.5668 N   0  3  2  0  0  0  0  0  0  0  0  0
  148.3359  130.7013  153.3607 C   0  0  0  0  0  0  0  0  0  0  0  0
  147.8058  132.0799  152.9407 C   0  0  0  0  0  0  0  0  0  0  0  0
  146.2690  132.1438  153.0743 C   0  0  2  0  0  0  0  0  0  0  0  0
  145.6016  130.9783  152.3061 C   0  0  1  0  0  0  0  0  0  0  0  0
  145.6249  131.2081  150.7806 C   0  0  0  0  0  0  0  0  0  0  0  0
  145.0128  132.5732  150.4366 C   0  0  0  0  0  0  0  0  0  0  0  0
  145.7143  133.7041  151.2043 C   0  0  0  0  0  0  0  0  0  0  0  0
  145.7168  133.4351  152.6450 N   0  0  0  0  0  0  0  0  0  0  0  0
  145.9589  134.4813  153.4778 C   0  0  0  0  0  0  0  0  0  0  0  0
  146.1875  134.2520  154.7988 N   0  0  0  0  0  0  0  0  0  0  0  0
  146.4076  135.2714  155.6339 C   0  0  0  0  0  0  0  0  0  0  0  0
  146.4386  136.5776  155.3652 N   0  0  0  0  0  0  0  0  0  0  0  0
  146.2133  136.8164  154.0416 C   0  0  0  0  0  0  0  0  0  0  0  0
  145.9737  135.8355  153.0375 C   0  0  0  0  0  0  0  0  0  0  0  0
  145.8187  136.4539  151.8023 N   0  0  0  0  0  0  0  0  0  0  0  0
  145.9551  137.7254  152.0620 C   0  0  0  0  0  0  0  0  0  0  0  0
  146.1627  138.0351  153.3871 N   0  0  0  0  0  0  0  0  0  0  0  0
  146.3828  139.3399  153.9397 C   0  0  0  0  0  0  0  0  0  0  0  0
  147.2671  140.3639  153.2187 C   0  0  0  0  0  0  0  0  0  0  0  0
  147.8118  140.8626  154.5768 C   0  0  0  0  0  0  0  0  0  0  0  0
  149.3336  141.0845  154.6630 C   0  0  0  0  0  0  0  0  0  0  0  0
  150.0725  140.0909  153.9803 O   0  0  0  0  0  0  0  0  0  0  0  0
  147.1851  142.1603  155.1288 C   0  0  0  0  0  0  0  0  0  0  0  0
  147.4518  142.3756  156.4999 O   0  0  0  0  0  0  0  0  0  0  0  0
  147.2767  139.5392  155.1699 C   0  0  0  0  0  0  0  0  0  0  0  0
  146.2187  129.6242  152.7127 C   0  0  0  0  0  0  0  0  0  0  0  0
  148.1254  128.0024  153.8786 H   0  0  0  0  0  0  0  0  0  0  0  0
  149.3618  128.3072  152.6518 H   0  0  0  0  0  0  0  0  0  0  0  0
  147.8450  127.5371  152.1959 H   0  0  0  0  0  0  0  0  0  0  0  0
  148.1515  130.5338  154.4231 H   0  0  0  0  0  0  0  0  0  0  0  0
  149.4167  130.6701  153.2172 H   0  0  0  0  0  0  0  0  0  0  0  0
  148.2689  132.8486  153.5604 H   0  0  0  0  0  0  0  0  0  0  0  0
  148.1151  132.2878  151.9164 H   0  0  0  0  0  0  0  0  0  0  0  0
  146.0336  131.9933  154.1269 H   0  0  0  0  0  0  0  0  0  0  0  0
  144.5514  130.9522  152.6021 H   0  0  0  0  0  0  0  0  0  0  0  0
  146.6456  131.1601  150.4004 H   0  0  0  0  0  0  0  0  0  0  0  0
  145.0700  130.4185  150.2727 H   0  0  0  0  0  0  0  0  0  0  0  0
  145.0784  132.7544  149.3634 H   0  0  0  0  0  0  0  0  0  0  0  0
  143.9509  132.5697  150.6860 H   0  0  0  0  0  0  0  0  0  0  0  0
  146.7386  133.8207  150.8491 H   0  0  0  0  0  0  0  0  0  0  0  0
  145.1985  134.6439  151.0016 H   0  0  0  0  0  0  0  0  0  0  0  0
  146.5800  135.0029  156.6657 H   0  0  0  0  0  0  0  0  0  0  0  0
  145.9022  138.4770  151.2876 H   0  0  0  0  0  0  0  0  0  0  0  0
  145.3896  139.7533  154.1188 H   0  0  0  0  0  0  0  0  0  0  0  0
  148.0215  139.8855  152.5928 H   0  0  0  0  0  0  0  0  0  0  0  0
  146.7115  141.1083  152.6476 H   0  0  0  0  0  0  0  0  0  0  0  0
  149.6085  142.0514  154.2403 H   0  0  0  0  0  0  0  0  0  0  0  0
  149.6659  141.0896  155.7017 H   0  0  0  0  0  0  0  0  0  0  0  0
  149.6349  139.8972  153.1656 H   0  0  0  0  0  0  0  0  0  0  0  0
  147.5539  143.0290  154.5825 H   0  0  0  0  0  0  0  0  0  0  0  0
  146.1019  142.1494  155.0025 H   0  0  0  0  0  0  0  0  0  0  0  0
  147.9889  143.1487  156.5842 H   0  0  0  0  0  0  0  0  0  0  0  0
  146.7285  139.6469  156.1063 H   0  0  0  0  0  0  0  0  0  0  0  0
  148.0388  138.7638  155.2588 H   0  0  0  0  0  0  0  0  0  0  0  0
  145.7870  128.8247  152.1088 H   0  0  0  0  0  0  0  0  0  0  0  0
  145.9650  129.4017  153.7506 H   0  0  0  0  0  0  0  0  0  0  0  0
  147.8895  129.8282  151.5966 H   0  0  0  0  0  0  0  0  0  0  0  0
  1  2  1  0  0  0  0
  1 29  1  0  0  0  0
  1 30  1  0  0  0  0
  1 31  1  0  0  0  0
  2 28  1  0  0  0  0
  2  3  1  0  0  0  0
  2 59  1  0  0  0  0
  3  4  1  0  0  0  0
  3 32  1  0  0  0  0
  3 33  1  0  0  0  0
  4  5  1  0  0  0  0
  4 34  1  0  0  0  0
  4 35  1  0  0  0  0
  5 10  1  0  0  0  0
  5  6  1  0  0  0  0
  5 36  1  0  0  0  0
  6  7  1  0  0  0  0
  6 28  1  0  0  0  0
  6 37  1  0  0  0  0
  7  8  1  0  0  0  0
  7 38  1  0  0  0  0
  7 39  1  0  0  0  0
  8  9  1  0  0  0  0
  8 40  1  0  0  0  0
  8 41  1  0  0  0  0
  9 10  1  0  0  0  0
  9 42  1  0  0  0  0
  9 43  1  0  0  0  0
 10 11  1  0  0  0  0
 11 16  1  0  0  0  0
 11 12  2  0  0  0  0
 12 13  1  0  0  0  0
 13 14  2  0  0  0  0
 13 44  1  0  0  0  0
 14 15  1  0  0  0  0
 15 19  1  0  0  0  0
 15 16  2  0  0  0  0
 16 17  1  0  0  0  0
 17 18  2  0  0  0  0
 18 19  1  0  0  0  0
 18 45  1  0  0  0  0
 19 20  1  0  0  0  0
 20 27  1  0  0  0  0
 20 21  1  0  0  0  0
 20 46  1  0  0  0  0
 21 22  1  0  0  0  0
 21 47  1  0  0  0  0
 21 48  1  0  0  0  0
 22 23  1  0  0  0  0
 22 25  1  0  0  0  0
 22 27  1  0  0  0  0
 23 24  1  0  0  0  0
 23 49  1  0  0  0  0
 23 50  1  0  0  0  0
 24 51  1  0  0  0  0
 25 26  1  0  0  0  0
 25 52  1  0  0  0  0
 25 53  1  0  0  0  0
 26 54  1  0  0  0  0
 27 55  1  0  0  0  0
 27 56  1  0  0  0  0
 28 57  1  0  0  0  0
 28 58  1  0  0  0  0
M  CHG  1   2   1
M  END
> <s_m_source_file>
AV-unprocessed.smi

> <i_m_source_file_index>
198

> <i_lp_mmshare_version>
43012

> <i_f3d_flags>
0

> <s_epik_input>
W0NIMl0xW0NIMl1OKFtDSDNdKVtDSDJdW0NAQEhdKFtDQEhdMTIpW0NIMl1bQ0gyXVtDSDJdTjJjKG5bY0hdbjMpYyhjMzQpbltjSF1uNFtDSF0oW0NIMl01KVtDSDJdQzUoW0NIMl1bT0hdKVtDSDJdW09IXQ==

> <s_epik_cmdline>
J2VwaWtfcHl0aG9uJywgJy1waCcsICc3LjAnLCAnLXRuJywgJzgnLCAnLW1hJywgJzIwMCcsICctbWV0YWxfYmluZGluZycsICctaW1hZScsICc8aW5maWxlLm1hZT4nLCAnLW9tYWUnLCAnPG91dGZpbGUubWFlPic=

> <r_lp_tautomer_probability>
1

> <r_epik_Ionization_Penalty>
0.00239938

> <r_epik_Ionization_Penalty_Charging>
0.00138697

> <r_epik_Ionization_Penalty_Neutral>
0.00101241

> <r_epik_State_Penalty>
-0

> <r_epik_Charging_Adjusted_Penalty>
0.00138697

> <i_epik_Tot_Q>
1

> <i_epik_Tot_abs_Q>
1

> <r_epik_Metal_State_Penalty>
-0

> <b_epik_Metal_Only>
0

> <s_lp_Force_Field>
OPLS_2005

> <r_lp_Energy>
59.0053

> <b_lp_Chiralities_Consistent>
1

> <s_lp_Variant>
AV-unprocessed.smi:198-4

> <Gold.Version>
5.8.1

> <Gold.Id.Protein>
6NUR|6NUR_protein|mol2

> <Gold.PLP.Fitness>
48.3940

> <Gold.PLP.PLP>
-36.4674

> <Gold.PLP.part.hbond>
-4.0000

> <Gold.PLP.part.metal>
0.0000

> <Gold.PLP.part.buried>
-0.9438

> <Gold.PLP.part.nonpolar>
-32.1705

> <Gold.PLP.part.repulsive>
0.4564

> <Gold.PLP.ligand.clash>
0.0000

> <Gold.PLP.ligand.torsion>
1.2542

> <Gold.PLP.Chemscore.Hbond>
3.6952

> <Gold.PLP.Chemscore.CHOScore>
0.8123

> <Gold.PLP.Chemscore.Metal>
0.0000

> <Gold.Chemscore.Hbonds>
donor molecule, donor type, donor heavy atom, donor atom, acceptor molecule, acceptor atom, score
      L1  H     2    59       P1 10747  0.96
      L1  H    24    51       P1  7957  0.96
      L1  H    26    54       P1  8028  0.85
      P1  H  7989  7998       L1    24  0.90
      L1  C    18    45       P1 10171  0.81

> <Gold.PLP.Chemscore.Internal.Correction>
0.9125

> <Gold.Rescore>
     Score         DG    S(hbond)    S(metal)    S(lipo)     H(rot)  DE(clash)    DE(int)     intcor
     13.59     -16.49       2.34        0.00      94.60       3.08       0.17       2.73       ----

> <Gold.Chemscore.Fitness>
13.5864

> <Gold.Chemscore.DG>
-16.4923

> <Gold.Chemscore.ZeroCoef>
-5.4800

> <Gold.Chemscore.Hbond>
2.3426

> <Gold.Chemscore.Metal>
0.0000

> <Gold.Chemscore.Lipo>
94.5982

> <Gold.Chemscore.Internal_Hbond>
0.0000

> <Gold.Chemscore.DEClash>
0.1743

> <Gold.Chemscore.DEInternal>
2.7315

> <Gold.Chemscore.Rot>
3.0781

> <Gold.Chemscore.Internal.Correction>
   9.000000E+99

> <Gold.Chemscore.Hbonds>
donor molecule, donor type, donor heavy atom, donor atom, acceptor molecule, acceptor atom, score
      L1  H     2    59       P1 10747  0.87
      L1  H    24    51       P1  7957  0.88
      L1  H    26    54       P1  8028  0.15
      P1  H  7989  7998       L1    24  0.22

> <Gold.Chemscore.Hbond.Weighted>
-7.8243

> <Gold.Chemscore.Metal.Weighted>
-0.0000

> <Gold.Chemscore.Lipo.Weighted>
-11.0680

> <Gold.Chemscore.Internal_Hbond.Weighted>
0.0000

> <Gold.Chemscore.DEClash.Weighted>
0.1743

> <Gold.Chemscore.DEInternal.Weighted>
2.7315

> <Gold.Chemscore.Rot.Weighted>
7.8800

> <Gold.Chemscore.Internal.Correction.Weighted>
   9.000000E+99

> <Gold.Protein.RotatedTorsions>
[ 6907 6896 6895 6894 ] final   91.51 input  -60.11 | X-H torsion
[ 7974 7965 7964 7962 ] final  104.02 input  175.53 | X-H torsion
[ 8008 7997 7996 7995 ] final  -27.54 input   59.86 | X-H torsion
[ 10167 10162 10161 10158 ] final  119.64 input  -65.29 | X-H torsion
[ 10718 10713 10712 10709 ] final -161.95 input   66.30 | X-H torsion
[ 10763 10752 10751 10750 ] final  172.13 input  -60.55 | X-H torsion
[ 11005 11000 10999 10996 ] final -151.76 input  -57.11 | X-H torsion

> <Gold.Protein.ActiveResidues>
 VAL166  LYS551  ARG553  GLY616  TRP617  ASP618  TYR619  PRO620  LYS621  CYS622 
 ASP623  PHE694  ASN695  SER759  ASP760  ASP761  ALA762  ILE779  LEU786  VAL792 
 PHE793  MET794  SER795  GLU796  ALA797  LYS798  CYS799  TRP800  GLU811  SER814 

> <Gold.Protein.RotatedAtoms>
  152.5450  134.1646  159.8571 H   0  0  0  0  0  0  0  0  0  0  0  0  # atno 6907 bound_to 6896
  151.1661  133.4807  159.2601 H   0  0  0  0  0  0  0  0  0  0  0  0  # atno 6908 bound_to 6896
  151.1323  135.0147  159.8643 H   0  0  0  0  0  0  0  0  0  0  0  0  # atno 6909 bound_to 6896
  145.3383  139.2469  143.3623 H   0  0  0  0  0  0  0  0  0  0  0  0  # atno 7974 bound_to 7965
  154.4373  140.1869  156.0947 H   0  0  0  0  0  0  0  0  0  0  0  0  # atno 8008 bound_to 7997
  156.0338  140.3327  155.7142 H   0  0  0  0  0  0  0  0  0  0  0  0  # atno 8009 bound_to 7997
  155.5800  140.0621  157.2776 H   0  0  0  0  0  0  0  0  0  0  0  0  # atno 8010 bound_to 7997
  139.6033  144.7063  151.3012 H   0  0  0  0  0  0  0  0  0  0  0  0  # atno 10167 bound_to 10162
  156.6035  130.8820  151.2919 H   0  0  0  0  0  0  0  0  0  0  0  0  # atno 10718 bound_to 10713
  154.4217  135.2758  155.1971 H   0  0  0  0  0  0  0  0  0  0  0  0  # atno 10763 bound_to 10752
  154.3914  135.6065  153.5849 H   0  0  0  0  0  0  0  0  0  0  0  0  # atno 10764 bound_to 10752
  152.9833  135.5904  154.4514 H   0  0  0  0  0  0  0  0  0  0  0  0  # atno 10765 bound_to 10752
  140.7261  134.3673  157.5175 H   0  0  0  0  0  0  0  0  0  0  0  0  # atno 11005 bound_to 11000
  146.3018  140.3975  142.8701 LP  0  0  0  0  0  0  0  0  0  0  0  0  # atno 17320 bound_to 7965
  144.8810  140.7400  143.5986 LP  0  0  0  0  0  0  0  0  0  0  0  0  # atno 17321 bound_to 7965
  140.7266  143.6986  150.7863 LP  0  0  0  0  0  0  0  0  0  0  0  0  # atno 17342 bound_to 10162
  140.0567  143.5195  152.2647 LP  0  0  0  0  0  0  0  0  0  0  0  0  # atno 17343 bound_to 10162
  157.7273  130.9641  150.1694 LP  0  0  0  0  0  0  0  0  0  0  0  0  # atno 17370 bound_to 10713
  156.2449  130.3694  149.8295 LP  0  0  0  0  0  0  0  0  0  0  0  0  # atno 17371 bound_to 10713
  139.8837  134.8987  156.2751 LP  0  0  0  0  0  0  0  0  0  0  0  0  # atno 17394 bound_to 11000
  140.9961  133.7179  156.0888 LP  0  0  0  0  0  0  0  0  0  0  0  0  # atno 17395 bound_to 11000

$$$$
