AV-unprocessed.smi:153|AV-procd|sdf|1262|dock9
  -GOLD-   2262018513D 1   1.00000     0.00000
 Structure written by MMmdl.
 59 62  0  0  0  0  0  0  0  0  1 V2000
  152.8275  144.4624  157.6565 C   0  0  0  0  0  0  0  0  0  0  0  0
  152.3733  143.5161  158.7786 C   0  0  2  0  0  0  0  0  0  0  0  0
  153.5331  143.1266  159.5103 O   0  0  0  0  0  0  0  0  0  0  0  0
  153.3330  141.8227  160.0267 C   0  0  0  0  0  0  0  0  0  0  0  0
  152.6331  141.1195  158.8740 C   0  0  0  0  0  0  0  0  0  0  0  0
  151.6842  142.1910  158.3439 C   0  0  1  0  0  0  0  0  0  0  0  0
  150.4667  142.0851  159.0637 O   0  0  0  0  0  0  0  0  0  0  0  0
  151.3593  142.0420  156.8343 C   0  0  0  0  0  0  0  0  0  0  0  0
  150.6885  140.7920  156.5090 N   0  0  0  0  0  0  0  0  0  0  0  0
  149.3391  140.5322  156.5953 C   0  0  0  0  0  0  0  0  0  0  0  0
  148.9798  139.3283  156.2428 N   0  0  0  0  0  0  0  0  0  0  0  0
  150.1713  138.7114  155.8820 C   0  0  0  0  0  0  0  0  0  0  0  0
  150.5064  137.4209  155.3853 C   0  0  0  0  0  0  0  0  0  0  0  0
  149.5734  136.4599  155.1692 N   0  0  0  0  0  0  0  0  0  0  0  0
  150.0902  135.2851  154.4772 C   0  0  0  0  0  0  0  0  0  0  0  0
  148.1838  136.8504  154.9195 C   0  0  0  0  0  0  0  0  0  0  0  0
  147.1706  135.7055  155.1417 C   0  0  1  0  0  0  0  0  0  0  0  0
  147.0844  135.4983  156.5358 O   0  0  0  0  0  0  0  0  0  0  0  0
  145.7551  136.0447  154.6147 C   0  0  0  0  0  0  0  0  0  0  0  0
  145.5209  135.7363  153.2031 N   0  0  0  0  0  0  0  0  0  0  0  0
  144.1423  136.0052  152.7962 C   0  0  0  0  0  0  0  0  0  0  0  0
  143.8865  135.6337  151.3260 C   0  0  0  0  0  0  0  0  0  0  0  0
  144.2200  134.2664  151.1129 O   0  0  0  0  0  0  0  0  0  0  0  0
  145.5730  133.9754  151.4469 C   0  0  0  0  0  0  0  0  0  0  0  0
  145.8282  134.3378  152.9202 C   0  0  0  0  0  0  0  0  0  0  0  0
  151.8166  137.1708  155.1227 N   0  0  0  0  0  0  0  0  0  0  0  0
  152.7364  138.1194  155.3205 C   0  0  0  0  0  0  0  0  0  0  0  0
  152.5671  139.3657  155.7662 N   0  0  0  0  0  0  0  0  0  0  0  0
  151.2551  139.6205  156.0376 C   0  0  0  0  0  0  0  0  0  0  0  0
  151.9837  144.8056  157.0577 H   0  0  0  0  0  0  0  0  0  0  0  0
  153.5460  143.9813  156.9925 H   0  0  0  0  0  0  0  0  0  0  0  0
  153.3114  145.3463  158.0729 H   0  0  0  0  0  0  0  0  0  0  0  0
  151.7273  144.0755  159.4580 H   0  0  0  0  0  0  0  0  0  0  0  0
  154.2752  141.3486  160.3021 H   0  0  0  0  0  0  0  0  0  0  0  0
  152.6939  141.8673  160.9097 H   0  0  0  0  0  0  0  0  0  0  0  0
  153.3768  140.8689  158.1167 H   0  0  0  0  0  0  0  0  0  0  0  0
  152.1360  140.1946  159.1702 H   0  0  0  0  0  0  0  0  0  0  0  0
  149.8278  142.6498  158.6564 H   0  0  0  0  0  0  0  0  0  0  0  0
  150.7279  142.8646  156.4958 H   0  0  0  0  0  0  0  0  0  0  0  0
  152.2723  142.0900  156.2405 H   0  0  0  0  0  0  0  0  0  0  0  0
  148.6243  141.2682  156.9334 H   0  0  0  0  0  0  0  0  0  0  0  0
  150.9054  135.5453  153.8000 H   0  0  0  0  0  0  0  0  0  0  0  0
  149.3130  134.7990  153.8870 H   0  0  0  0  0  0  0  0  0  0  0  0
  150.4626  134.5584  155.1995 H   0  0  0  0  0  0  0  0  0  0  0  0
  147.9359  137.7013  155.5557 H   0  0  0  0  0  0  0  0  0  0  0  0
  148.0963  137.2065  153.8922 H   0  0  0  0  0  0  0  0  0  0  0  0
  147.5439  134.7764  154.7141 H   0  0  0  0  0  0  0  0  0  0  0  0
  147.7835  134.9171  156.7942 H   0  0  0  0  0  0  0  0  0  0  0  0
  145.0168  135.5225  155.2257 H   0  0  0  0  0  0  0  0  0  0  0  0
  145.5469  137.1031  154.7784 H   0  0  0  0  0  0  0  0  0  0  0  0
  143.4537  135.4465  153.4319 H   0  0  0  0  0  0  0  0  0  0  0  0
  143.9052  137.0593  152.9282 H   0  0  0  0  0  0  0  0  0  0  0  0
  142.8369  135.7894  151.0753 H   0  0  0  0  0  0  0  0  0  0  0  0
  144.4737  136.2674  150.6599 H   0  0  0  0  0  0  0  0  0  0  0  0
  145.7612  132.9149  151.2790 H   0  0  0  0  0  0  0  0  0  0  0  0
  146.2453  134.5291  150.7897 H   0  0  0  0  0  0  0  0  0  0  0  0
  146.8708  134.1318  153.1645 H   0  0  0  0  0  0  0  0  0  0  0  0
  145.2250  133.6900  153.5584 H   0  0  0  0  0  0  0  0  0  0  0  0
  153.7530  137.8408  155.0859 H   0  0  0  0  0  0  0  0  0  0  0  0
  1  2  1  0  0  0  0
  1 30  1  0  0  0  0
  1 31  1  0  0  0  0
  1 32  1  0  0  0  0
  2  6  1  0  0  0  0
  2  3  1  0  0  0  0
  2 33  1  0  0  0  0
  3  4  1  0  0  0  0
  4  5  1  0  0  0  0
  4 34  1  0  0  0  0
  4 35  1  0  0  0  0
  5  6  1  0  0  0  0
  5 36  1  0  0  0  0
  5 37  1  0  0  0  0
  6  7  1  0  0  0  0
  6  8  1  0  0  0  0
  7 38  1  0  0  0  0
  8  9  1  0  0  0  0
  8 39  1  0  0  0  0
  8 40  1  0  0  0  0
  9 29  1  0  0  0  0
  9 10  1  0  0  0  0
 10 11  2  0  0  0  0
 10 41  1  0  0  0  0
 11 12  1  0  0  0  0
 12 29  2  0  0  0  0
 12 13  1  0  0  0  0
 13 14  1  0  0  0  0
 13 26  2  0  0  0  0
 14 15  1  0  0  0  0
 14 16  1  0  0  0  0
 15 42  1  0  0  0  0
 15 43  1  0  0  0  0
 15 44  1  0  0  0  0
 16 17  1  0  0  0  0
 16 45  1  0  0  0  0
 16 46  1  0  0  0  0
 17 18  1  0  0  0  0
 17 19  1  0  0  0  0
 17 47  1  0  0  0  0
 18 48  1  0  0  0  0
 19 20  1  0  0  0  0
 19 49  1  0  0  0  0
 19 50  1  0  0  0  0
 20 25  1  0  0  0  0
 20 21  1  0  0  0  0
 21 22  1  0  0  0  0
 21 51  1  0  0  0  0
 21 52  1  0  0  0  0
 22 23  1  0  0  0  0
 22 53  1  0  0  0  0
 22 54  1  0  0  0  0
 23 24  1  0  0  0  0
 24 25  1  0  0  0  0
 24 55  1  0  0  0  0
 24 56  1  0  0  0  0
 25 57  1  0  0  0  0
 25 58  1  0  0  0  0
 26 27  1  0  0  0  0
 27 28  2  0  0  0  0
 27 59  1  0  0  0  0
 28 29  1  0  0  0  0
M  END
> <s_m_source_file>
AV-unprocessed.smi

> <i_m_source_file_index>
153

> <i_lp_mmshare_version>
43012

> <i_f3d_flags>
0

> <s_epik_input>
W0NIMl0xW0NIMl1PW0NAQEhdKFtDSDNdKVtDQEBdMShbT0hdKVtDSDJdbihbY0hdbjIpYyhjMjMpbltjSF1uYzNOKFtDSDNdKVtDSDJdW0NASF0oW09IXSlbQ0gyXU40W0NIMl1bQ0gyXU9bQ0gyXVtDSDJdNA==

> <s_epik_cmdline>
J2VwaWtfcHl0aG9uJywgJy1waCcsICc3LjAnLCAnLXRuJywgJzgnLCAnLW1hJywgJzIwMCcsICctbWV0YWxfYmluZGluZycsICctaW1hZScsICc8aW5maWxlLm1hZT4nLCAnLW9tYWUnLCAnPG91dGZpbGUubWFlPic=

> <r_lp_tautomer_probability>
1

> <r_epik_Ionization_Penalty>
0.424123

> <r_epik_Ionization_Penalty_Charging>
0

> <r_epik_Ionization_Penalty_Neutral>
0.424123

> <r_epik_State_Penalty>
0.421495

> <r_epik_Charging_Adjusted_Penalty>
0.421495

> <i_epik_Tot_Q>
0

> <i_epik_Tot_abs_Q>
0

> <r_epik_Metal_State_Penalty>
0.421223

> <b_epik_Metal_Only>
0

> <s_lp_Force_Field>
OPLS_2005

> <r_lp_Energy>
51.9128

> <b_lp_Chiralities_Consistent>
1

> <s_lp_Variant>
AV-unprocessed.smi:153-13

> <Gold.Version>
5.8.1

> <Gold.Id.Protein>
6NUR|6NUR_protein|mol2

> <Gold.PLP.Fitness>
46.8381

> <Gold.PLP.PLP>
-42.3267

> <Gold.PLP.part.hbond>
-2.9428

> <Gold.PLP.part.metal>
0.0000

> <Gold.PLP.part.buried>
-6.5556

> <Gold.PLP.part.nonpolar>
-33.8628

> <Gold.PLP.part.repulsive>
0.7079

> <Gold.PLP.ligand.clash>
0.0000

> <Gold.PLP.ligand.torsion>
1.0147

> <Gold.PLP.Chemscore.Hbond>
1.9357

> <Gold.PLP.Chemscore.CHOScore>
0.0000

> <Gold.PLP.Chemscore.Metal>
0.0000

> <Gold.Chemscore.Hbonds>
donor molecule, donor type, donor heavy atom, donor atom, acceptor molecule, acceptor atom, score
      P1  H  7997  8008       L1    28  1.00
      P1  H 10752 10765       L1    26  0.99

> <Gold.PLP.Chemscore.Internal.Correction>
0.7336

> <Gold.Rescore>
     Score         DG    S(hbond)    S(metal)    S(lipo)     H(rot)  DE(clash)    DE(int)     intcor
      8.12     -12.01       1.10        0.00     101.30       3.52       1.83       2.07       ----

> <Gold.Chemscore.Fitness>
8.1179

> <Gold.Chemscore.DG>
-12.0148

> <Gold.Chemscore.ZeroCoef>
-5.4800

> <Gold.Chemscore.Hbond>
1.1035

> <Gold.Chemscore.Metal>
0.0000

> <Gold.Chemscore.Lipo>
101.3042

> <Gold.Chemscore.Internal_Hbond>
0.0000

> <Gold.Chemscore.DEClash>
1.8302

> <Gold.Chemscore.DEInternal>
2.0667

> <Gold.Chemscore.Rot>
3.5170

> <Gold.Chemscore.Internal.Correction>
   9.000000E+99

> <Gold.Chemscore.Hbonds>
donor molecule, donor type, donor heavy atom, donor atom, acceptor molecule, acceptor atom, score
      P1  H  7997  8008       L1    28  0.68
      P1  H 10752 10765       L1    26  0.27

> <Gold.Chemscore.Hbond.Weighted>
-3.6858

> <Gold.Chemscore.Metal.Weighted>
-0.0000

> <Gold.Chemscore.Lipo.Weighted>
-11.8526

> <Gold.Chemscore.Internal_Hbond.Weighted>
0.0000

> <Gold.Chemscore.DEClash.Weighted>
1.8302

> <Gold.Chemscore.DEInternal.Weighted>
2.0667

> <Gold.Chemscore.Rot.Weighted>
9.0036

> <Gold.Chemscore.Internal.Correction.Weighted>
   9.000000E+99

> <Gold.Protein.RotatedTorsions>
[ 6907 6896 6895 6894 ] final   27.39 input  -60.11 | X-H torsion
[ 7974 7965 7964 7962 ] final  -78.93 input  175.53 | X-H torsion
[ 8008 7997 7996 7995 ] final  -37.32 input   59.86 | X-H torsion
[ 10167 10162 10161 10158 ] final   77.95 input  -65.29 | X-H torsion
[ 10718 10713 10712 10709 ] final   86.16 input   66.30 | X-H torsion
[ 10763 10752 10751 10750 ] final -172.72 input  -60.55 | X-H torsion
[ 11005 11000 10999 10996 ] final   65.24 input  -57.11 | X-H torsion

> <Gold.Protein.ActiveResidues>
 VAL166  LYS551  ARG553  GLY616  TRP617  ASP618  TYR619  PRO620  LYS621  CYS622 
 ASP623  PHE694  ASN695  SER759  ASP760  ASP761  ALA762  ILE779  LEU786  VAL792 
 PHE793  MET794  SER795  GLU796  ALA797  LYS798  CYS799  TRP800  GLU811  SER814 

> <Gold.Protein.RotatedAtoms>
  152.0016  134.9925  160.0565 H   0  0  0  0  0  0  0  0  0  0  0  0  # atno 6907 bound_to 6896
  152.1514  133.4519  159.4823 H   0  0  0  0  0  0  0  0  0  0  0  0  # atno 6908 bound_to 6896
  150.6876  134.2102  159.4399 H   0  0  0  0  0  0  0  0  0  0  0  0  # atno 6909 bound_to 6896
  145.5800  140.9450  143.1349 H   0  0  0  0  0  0  0  0  0  0  0  0  # atno 7974 bound_to 7965
  154.4056  140.1607  156.2518 H   0  0  0  0  0  0  0  0  0  0  0  0  # atno 8008 bound_to 7997
  155.9113  140.3427  155.6078 H   0  0  0  0  0  0  0  0  0  0  0  0  # atno 8009 bound_to 7997
  155.7333  140.0783  157.2270 H   0  0  0  0  0  0  0  0  0  0  0  0  # atno 8010 bound_to 7997
  139.9761  144.5860  150.7942 H   0  0  0  0  0  0  0  0  0  0  0  0  # atno 10167 bound_to 10162
  157.6925  131.0204  150.2931 H   0  0  0  0  0  0  0  0  0  0  0  0  # atno 10718 bound_to 10713
  154.6160  135.2870  155.0379 H   0  0  0  0  0  0  0  0  0  0  0  0  # atno 10763 bound_to 10752
  154.1591  135.6491  153.4985 H   0  0  0  0  0  0  0  0  0  0  0  0  # atno 10764 bound_to 10752
  153.0215  135.5374  154.6932 H   0  0  0  0  0  0  0  0  0  0  0  0  # atno 10765 bound_to 10752
  139.9907  134.6596  156.0096 H   0  0  0  0  0  0  0  0  0  0  0  0  # atno 11005 bound_to 11000
  144.7398  139.7480  143.7315 LP  0  0  0  0  0  0  0  0  0  0  0  0  # atno 17320 bound_to 7965
  146.1723  139.4879  142.9919 LP  0  0  0  0  0  0  0  0  0  0  0  0  # atno 17321 bound_to 7965
  140.7505  143.2957  151.3212 LP  0  0  0  0  0  0  0  0  0  0  0  0  # atno 17342 bound_to 10162
  139.6444  144.0478  152.2579 LP  0  0  0  0  0  0  0  0  0  0  0  0  # atno 17343 bound_to 10162
  156.3459  130.3823  149.7370 LP  0  0  0  0  0  0  0  0  0  0  0  0  # atno 17370 bound_to 10713
  156.4863  130.8064  151.3076 LP  0  0  0  0  0  0  0  0  0  0  0  0  # atno 17371 bound_to 10713
  141.1563  133.6542  156.4173 LP  0  0  0  0  0  0  0  0  0  0  0  0  # atno 17394 bound_to 11000
  140.4914  134.6572  157.5212 LP  0  0  0  0  0  0  0  0  0  0  0  0  # atno 17395 bound_to 11000

$$$$
