AV-unprocessed.smi:2840|AV-procd|sdf|10931|dock3
  -GOLD-   2272015373D 1   1.00000     0.00000
 Structure written by MMmdl.
 36 37  0  0  0  0  0  0  0  0  1 V2000
  151.4169  145.2991  158.2949 C   0  0  0  0  0  0  0  0  0  0  0  0
  151.4278  143.9453  159.0271 C   0  0  2  0  0  0  0  0  0  0  0  0
  152.5204  143.9330  160.1156 C   0  0  0  0  0  0  0  0  0  0  0  0
  152.5573  142.5998  160.8772 C   0  0  0  0  0  0  0  0  0  0  0  0
  152.7535  141.4220  159.9137 C   0  0  0  0  0  0  0  0  0  0  0  0
  151.6619  141.4089  158.8342 C   0  0  0  0  0  0  0  0  0  0  0  0
  151.6031  142.7428  158.0633 C   0  0  1  0  0  0  0  0  0  0  0  0
  150.5027  142.6789  157.1021 N   0  0  0  0  0  0  0  0  0  0  0  0
  150.1665  141.6150  156.3571 C   0  0  0  0  0  0  0  0  0  0  0  0
  150.7686  140.5413  156.3886 O   0  0  0  0  0  0  0  0  0  0  0  0
  149.0992  141.8852  155.5855 N   0  0  0  0  0  0  0  0  0  0  0  0
  148.4525  141.0344  154.6499 C   0  0  0  0  0  0  0  0  0  0  0  0
  147.5165  141.6751  153.8068 C   0  0  0  0  0  0  0  0  0  0  0  0
  146.8234  140.9200  152.8411 C   0  0  0  0  0  0  0  0  0  0  0  0
  147.0839  139.5416  152.7432 C   0  0  0  0  0  0  0  0  0  0  0  0
  148.0313  138.9820  153.6203 C   0  0  0  0  0  0  0  0  0  0  0  0
  148.6970  139.7041  154.5463 N   0  0  0  0  0  0  0  0  0  0  0  0
  152.3389  145.4500  157.7323 H   0  0  0  0  0  0  0  0  0  0  0  0
  151.3190  146.1252  158.9996 H   0  0  0  0  0  0  0  0  0  0  0  0
  150.5844  145.3738  157.5956 H   0  0  0  0  0  0  0  0  0  0  0  0
  150.4644  143.8384  159.5286 H   0  0  0  0  0  0  0  0  0  0  0  0
  153.4949  144.1163  159.6606 H   0  0  0  0  0  0  0  0  0  0  0  0
  152.3531  144.7478  160.8209 H   0  0  0  0  0  0  0  0  0  0  0  0
  153.3604  142.6145  161.6145 H   0  0  0  0  0  0  0  0  0  0  0  0
  151.6281  142.4691  161.4332 H   0  0  0  0  0  0  0  0  0  0  0  0
  153.7348  141.4921  159.4427 H   0  0  0  0  0  0  0  0  0  0  0  0
  152.7411  140.4826  160.4668 H   0  0  0  0  0  0  0  0  0  0  0  0
  151.8445  140.5862  158.1417 H   0  0  0  0  0  0  0  0  0  0  0  0
  150.6970  141.2083  159.3022 H   0  0  0  0  0  0  0  0  0  0  0  0
  152.5529  142.8613  157.5379 H   0  0  0  0  0  0  0  0  0  0  0  0
  149.9486  143.5165  157.0010 H   0  0  0  0  0  0  0  0  0  0  0  0
  148.7048  142.8097  155.6751 H   0  0  0  0  0  0  0  0  0  0  0  0
  147.3283  142.7355  153.8959 H   0  0  0  0  0  0  0  0  0  0  0  0
  146.1052  141.3915  152.1870 H   0  0  0  0  0  0  0  0  0  0  0  0
  146.5723  138.9295  152.0151 H   0  0  0  0  0  0  0  0  0  0  0  0
  148.2617  137.9278  153.5771 H   0  0  0  0  0  0  0  0  0  0  0  0
  1  2  1  0  0  0  0
  1 18  1  0  0  0  0
  1 19  1  0  0  0  0
  1 20  1  0  0  0  0
  2  7  1  0  0  0  0
  2  3  1  0  0  0  0
  2 21  1  0  0  0  0
  3  4  1  0  0  0  0
  3 22  1  0  0  0  0
  3 23  1  0  0  0  0
  4  5  1  0  0  0  0
  4 24  1  0  0  0  0
  4 25  1  0  0  0  0
  5  6  1  0  0  0  0
  5 26  1  0  0  0  0
  5 27  1  0  0  0  0
  6  7  1  0  0  0  0
  6 28  1  0  0  0  0
  6 29  1  0  0  0  0
  7  8  1  0  0  0  0
  7 30  1  0  0  0  0
  8  9  1  0  0  0  0
  8 31  1  0  0  0  0
  9 10  2  0  0  0  0
  9 11  1  0  0  0  0
 11 12  1  0  0  0  0
 11 32  1  0  0  0  0
 12 17  1  0  0  0  0
 12 13  2  0  0  0  0
 13 14  1  0  0  0  0
 13 33  1  0  0  0  0
 14 15  2  0  0  0  0
 14 34  1  0  0  0  0
 15 16  1  0  0  0  0
 15 35  1  0  0  0  0
 16 17  2  0  0  0  0
 16 36  1  0  0  0  0
M  END
> <s_m_source_file>
AV-unprocessed.smi

> <i_m_source_file_index>
2840

> <i_lp_mmshare_version>
43012

> <i_f3d_flags>
0

> <s_epik_input>
W0NIM11bQ0BASF0xW0NIMl1bQ0gyXVtDSDJdW0NIMl1bQ0BIXTFbTkhdQyg9TylbTkhdYzJbY0hdW2NIXVtjSF1bY0hdbjI=

> <s_epik_cmdline>
J2VwaWtfcHl0aG9uJywgJy1waCcsICc3LjAnLCAnLXRuJywgJzgnLCAnLW1hJywgJzIwMCcsICctbWV0YWxfYmluZGluZycsICctaW1hZScsICc8aW5maWxlLm1hZT4nLCAnLW9tYWUnLCAnPG91dGZpbGUubWFlPic=

> <r_lp_tautomer_probability>
1

> <r_epik_Ionization_Penalty>
5.29956e-05

> <r_epik_Ionization_Penalty_Charging>
0

> <r_epik_Ionization_Penalty_Neutral>
5.29956e-05

> <r_epik_State_Penalty>
-0

> <r_epik_Charging_Adjusted_Penalty>
0

> <i_epik_Tot_Q>
0

> <i_epik_Tot_abs_Q>
0

> <r_epik_Metal_State_Penalty>
-0

> <b_epik_Metal_Only>
0

> <s_lp_Force_Field>
OPLS_2005

> <r_lp_Energy>
13.2298

> <b_lp_Chiralities_Consistent>
1

> <s_lp_Variant>
AV-unprocessed.smi:2840-1

> <Gold.Version>
5.8.1

> <Gold.Id.Protein>
6NUR|6NUR_protein|mol2

> <Gold.PLP.Fitness>
42.9846

> <Gold.PLP.PLP>
-35.3065

> <Gold.PLP.part.hbond>
-2.0000

> <Gold.PLP.part.metal>
0.0000

> <Gold.PLP.part.buried>
-2.4609

> <Gold.PLP.part.nonpolar>
-30.1673

> <Gold.PLP.part.repulsive>
0.2733

> <Gold.PLP.ligand.clash>
0.2021

> <Gold.PLP.ligand.torsion>
0.2833

> <Gold.PLP.Chemscore.Hbond>
1.8143

> <Gold.PLP.Chemscore.CHOScore>
1.0000

> <Gold.PLP.Chemscore.Metal>
0.0000

> <Gold.Chemscore.Hbonds>
donor molecule, donor type, donor heavy atom, donor atom, acceptor molecule, acceptor atom, score
      L1  H     8    31       P1  8028  0.81
      L1  H    11    32       P1  8028  1.00
      L1  C    16    36       P1  7948  1.00

> <Gold.PLP.Chemscore.Internal.Correction>
0.0038

> <Gold.Rescore>
     Score         DG    S(hbond)    S(metal)    S(lipo)     H(rot)  DE(clash)    DE(int)     intcor
     17.11     -22.05       1.90        0.00     109.21       1.00       1.88       3.06       ----

> <Gold.Chemscore.Fitness>
17.1079

> <Gold.Chemscore.DG>
-22.0515

> <Gold.Chemscore.ZeroCoef>
-5.4800

> <Gold.Chemscore.Hbond>
1.9024

> <Gold.Chemscore.Metal>
0.0000

> <Gold.Chemscore.Lipo>
109.2082

> <Gold.Chemscore.Internal_Hbond>
0.0000

> <Gold.Chemscore.DEClash>
1.8788

> <Gold.Chemscore.DEInternal>
3.0648

> <Gold.Chemscore.Rot>
1.0000

> <Gold.Chemscore.Internal.Correction>
   9.000000E+99

> <Gold.Chemscore.Hbonds>
donor molecule, donor type, donor heavy atom, donor atom, acceptor molecule, acceptor atom, score
      L1  H     8    31       P1  8028  0.76
      L1  H    11    32       P1  8028  0.96

> <Gold.Chemscore.Hbond.Weighted>
-6.3542

> <Gold.Chemscore.Metal.Weighted>
-0.0000

> <Gold.Chemscore.Lipo.Weighted>
-12.7774

> <Gold.Chemscore.Internal_Hbond.Weighted>
0.0000

> <Gold.Chemscore.DEClash.Weighted>
1.8788

> <Gold.Chemscore.DEInternal.Weighted>
3.0648

> <Gold.Chemscore.Rot.Weighted>
2.5600

> <Gold.Chemscore.Internal.Correction.Weighted>
   9.000000E+99

> <Gold.Protein.RotatedTorsions>
[ 6907 6896 6895 6894 ] final  171.50 input  -60.11 | X-H torsion
[ 7974 7965 7964 7962 ] final   -0.30 input  175.53 | X-H torsion
[ 8008 7997 7996 7995 ] final   56.39 input   59.86 | X-H torsion
[ 10167 10162 10161 10158 ] final  165.93 input  -65.29 | X-H torsion
[ 10718 10713 10712 10709 ] final   96.23 input   66.30 | X-H torsion
[ 10763 10752 10751 10750 ] final   79.83 input  -60.55 | X-H torsion
[ 11005 11000 10999 10996 ] final   40.51 input  -57.11 | X-H torsion

> <Gold.Protein.ActiveResidues>
 VAL166  LYS551  ARG553  GLY616  TRP617  ASP618  TYR619  PRO620  LYS621  CYS622 
 ASP623  PHE694  ASN695  SER759  ASP760  ASP761  ALA762  ILE779  LEU786  VAL792 
 PHE793  MET794  SER795  GLU796  ALA797  LYS798  CYS799  TRP800  GLU811  SER814 

> <Gold.Protein.RotatedAtoms>
  151.7992  133.3368  159.3521 H   0  0  0  0  0  0  0  0  0  0  0  0  # atno 6907 bound_to 6896
  150.7364  134.5769  159.5928 H   0  0  0  0  0  0  0  0  0  0  0  0  # atno 6908 bound_to 6896
  152.3155  134.7446  160.0377 H   0  0  0  0  0  0  0  0  0  0  0  0  # atno 6909 bound_to 6896
  146.2428  140.1248  142.8339 H   0  0  0  0  0  0  0  0  0  0  0  0  # atno 7974 bound_to 7965
  155.5167  140.3478  155.4399 H   0  0  0  0  0  0  0  0  0  0  0  0  # atno 8008 bound_to 7997
  156.0812  140.1387  156.9736 H   0  0  0  0  0  0  0  0  0  0  0  0  # atno 8009 bound_to 7997
  154.4581  140.0945  156.6791 H   0  0  0  0  0  0  0  0  0  0  0  0  # atno 8010 bound_to 7997
  139.4915  144.4080  151.9332 H   0  0  0  0  0  0  0  0  0  0  0  0  # atno 10167 bound_to 10162
  157.6929  131.0571  150.4460 H   0  0  0  0  0  0  0  0  0  0  0  0  # atno 10718 bound_to 10713
  153.0984  135.4825  154.8821 H   0  0  0  0  0  0  0  0  0  0  0  0  # atno 10763 bound_to 10752
  154.7351  135.3069  154.8828 H   0  0  0  0  0  0  0  0  0  0  0  0  # atno 10764 bound_to 10752
  153.9452  135.6829  153.4797 H   0  0  0  0  0  0  0  0  0  0  0  0  # atno 10765 bound_to 10752
  140.1924  134.3971  155.8139 H   0  0  0  0  0  0  0  0  0  0  0  0  # atno 11005 bound_to 11000
  145.0376  140.8920  143.5072 LP  0  0  0  0  0  0  0  0  0  0  0  0  # atno 17320 bound_to 7965
  145.1323  139.2624  143.5533 LP  0  0  0  0  0  0  0  0  0  0  0  0  # atno 17321 bound_to 7965
  140.3521  144.3076  150.5947 LP  0  0  0  0  0  0  0  0  0  0  0  0  # atno 17342 bound_to 10162
  140.5476  143.2212  151.7981 LP  0  0  0  0  0  0  0  0  0  0  0  0  # atno 17343 bound_to 10162
  156.4815  130.4075  149.6459 LP  0  0  0  0  0  0  0  0  0  0  0  0  # atno 17370 bound_to 10713
  156.3503  130.7428  151.2387 LP  0  0  0  0  0  0  0  0  0  0  0  0  # atno 17371 bound_to 10713
  141.2226  133.7053  156.8117 LP  0  0  0  0  0  0  0  0  0  0  0  0  # atno 17394 bound_to 11000
  140.2145  134.8803  157.3311 LP  0  0  0  0  0  0  0  0  0  0  0  0  # atno 17395 bound_to 11000

$$$$
