AV-unprocessed.smi:2445|AV-procd|sdf|9640|dock8
  -GOLD-   2272013273D 1   1.00000     0.00000
 Structure written by MMmdl.
 40 41  0  0  0  0  0  0  0  0  1 V2000
  152.6881  139.3891  154.6145 C   0  0  0  0  0  0  0  0  0  0  0  0
  151.2416  139.2026  154.3053 C   0  0  0  0  0  0  0  0  0  0  0  0
  150.6555  138.1654  153.6234 C   0  0  0  0  0  0  0  0  0  0  0  0
  149.2697  138.2833  153.4994 N   0  0  0  0  0  0  0  0  0  0  0  0
  148.7956  139.3902  154.0776 C   0  0  0  0  0  0  0  0  0  0  0  0
  147.3448  139.7704  154.0656 C   0  0  1  0  0  0  0  0  0  0  0  0
  147.1089  141.1529  154.6897 C   0  0  0  0  0  0  0  0  0  0  0  0
  146.7009  139.6418  152.6662 C   0  0  0  0  0  0  0  0  0  0  0  0
  146.8130  138.2956  152.1116 N   0  0  0  0  0  0  0  0  0  0  0  0
  145.8901  137.3334  152.2410 C   0  0  0  0  0  0  0  0  0  0  0  0
  144.7988  137.4934  152.7877 O   0  0  0  0  0  0  0  0  0  0  0  0
  146.3131  136.1694  151.7309 N   0  0  0  0  0  0  0  0  0  0  0  0
  145.5805  134.9099  151.8077 C   0  0  1  0  0  0  0  0  0  0  0  0
  144.2949  134.9588  151.0087 C   0  0  0  0  0  0  0  0  0  0  0  0
  144.0367  133.4820  150.7228 C   0  0  0  0  0  0  0  0  0  0  0  0
  145.3131  132.8500  150.7030 O   0  0  0  0  0  0  0  0  0  0  0  0
  146.3258  133.7654  151.1093 C   0  0  2  0  0  0  0  0  0  0  0  0
  147.3658  133.0533  151.9832 C   0  0  0  0  0  0  0  0  0  0  0  0
  150.0558  140.3756  154.8147 S   0  0  0  0  0  0  0  0  0  0  0  0
  153.2621  138.4968  154.3633 H   0  0  0  0  0  0  0  0  0  0  0  0
  152.8342  139.5942  155.6751 H   0  0  0  0  0  0  0  0  0  0  0  0
  153.0988  140.2252  154.0485 H   0  0  0  0  0  0  0  0  0  0  0  0
  151.1470  137.3055  153.1929 H   0  0  0  0  0  0  0  0  0  0  0  0
  146.8340  139.0573  154.7146 H   0  0  0  0  0  0  0  0  0  0  0  0
  147.4958  141.1939  155.7084 H   0  0  0  0  0  0  0  0  0  0  0  0
  146.0450  141.3877  154.7314 H   0  0  0  0  0  0  0  0  0  0  0  0
  147.5988  141.9390  154.1147 H   0  0  0  0  0  0  0  0  0  0  0  0
  145.6543  139.9487  152.6951 H   0  0  0  0  0  0  0  0  0  0  0  0
  147.2000  140.3173  151.9710 H   0  0  0  0  0  0  0  0  0  0  0  0
  147.6780  138.0659  151.6445 H   0  0  0  0  0  0  0  0  0  0  0  0
  147.2266  136.1400  151.3021 H   0  0  0  0  0  0  0  0  0  0  0  0
  145.3465  134.6414  152.8401 H   0  0  0  0  0  0  0  0  0  0  0  0
  143.4746  135.4388  151.5431 H   0  0  0  0  0  0  0  0  0  0  0  0
  144.4475  135.4922  150.0690 H   0  0  0  0  0  0  0  0  0  0  0  0
  143.4462  133.0375  151.5249 H   0  0  0  0  0  0  0  0  0  0  0  0
  143.5019  133.3291  149.7853 H   0  0  0  0  0  0  0  0  0  0  0  0
  146.8040  134.1368  150.2013 H   0  0  0  0  0  0  0  0  0  0  0  0
  148.1687  133.7319  152.2717 H   0  0  0  0  0  0  0  0  0  0  0  0
  147.8169  132.2183  151.4471 H   0  0  0  0  0  0  0  0  0  0  0  0
  146.9141  132.6600  152.8943 H   0  0  0  0  0  0  0  0  0  0  0  0
  1  2  1  0  0  0  0
  1 20  1  0  0  0  0
  1 21  1  0  0  0  0
  1 22  1  0  0  0  0
  2 19  1  0  0  0  0
  2  3  2  0  0  0  0
  3  4  1  0  0  0  0
  3 23  1  0  0  0  0
  4  5  2  0  0  0  0
  5  6  1  0  0  0  0
  5 19  1  0  0  0  0
  6  7  1  0  0  0  0
  6  8  1  0  0  0  0
  6 24  1  0  0  0  0
  7 25  1  0  0  0  0
  7 26  1  0  0  0  0
  7 27  1  0  0  0  0
  8  9  1  0  0  0  0
  8 28  1  0  0  0  0
  8 29  1  0  0  0  0
  9 10  1  0  0  0  0
  9 30  1  0  0  0  0
 10 11  2  0  0  0  0
 10 12  1  0  0  0  0
 12 13  1  0  0  0  0
 12 31  1  0  0  0  0
 13 17  1  0  0  0  0
 13 14  1  0  0  0  0
 13 32  1  0  0  0  0
 14 15  1  0  0  0  0
 14 33  1  0  0  0  0
 14 34  1  0  0  0  0
 15 16  1  0  0  0  0
 15 35  1  0  0  0  0
 15 36  1  0  0  0  0
 16 17  1  0  0  0  0
 17 18  1  0  0  0  0
 17 37  1  0  0  0  0
 18 38  1  0  0  0  0
 18 39  1  0  0  0  0
 18 40  1  0  0  0  0
M  END
> <s_m_source_file>
AV-unprocessed.smi

> <i_m_source_file_index>
2445

> <i_lp_mmshare_version>
43012

> <i_f3d_flags>
0

> <s_epik_input>
W0NIM11jMVtjSF1uYyhzMSlbQ0BIXShbQ0gzXSlbQ0gyXVtOSF1DKD1PKVtOSF1bQ0BASF0yW0NIMl1bQ0gyXU9bQ0BIXTJbQ0gzXQ==

> <s_epik_cmdline>
J2VwaWtfcHl0aG9uJywgJy1waCcsICc3LjAnLCAnLXRuJywgJzgnLCAnLW1hJywgJzIwMCcsICctbWV0YWxfYmluZGluZycsICctaW1hZScsICc8aW5maWxlLm1hZT4nLCAnLW9tYWUnLCAnPG91dGZpbGUubWFlPic=

> <r_epik_Ionization_Penalty>
0.000649483

> <r_epik_Ionization_Penalty_Charging>
0

> <r_epik_Ionization_Penalty_Neutral>
0.000649483

> <r_epik_State_Penalty>
0.000379895

> <r_epik_Charging_Adjusted_Penalty>
0.000379895

> <i_epik_Tot_Q>
0

> <i_epik_Tot_abs_Q>
0

> <r_epik_Metal_State_Penalty>
-0

> <b_epik_Metal_Only>
0

> <s_lp_Force_Field>
OPLS_2005

> <r_lp_Energy>
5.35471

> <b_lp_Chiralities_Consistent>
1

> <s_lp_Variant>
AV-unprocessed.smi:2445-8

> <Gold.Version>
5.8.1

> <Gold.Id.Protein>
6NUR|6NUR_protein|mol2

> <Gold.PLP.Fitness>
39.7209

> <Gold.PLP.PLP>
-32.5696

> <Gold.PLP.part.hbond>
-1.9736

> <Gold.PLP.part.metal>
0.0000

> <Gold.PLP.part.buried>
-3.4955

> <Gold.PLP.part.nonpolar>
-31.4286

> <Gold.PLP.part.repulsive>
2.9542

> <Gold.PLP.ligand.clash>
0.0000

> <Gold.PLP.ligand.torsion>
0.3694

> <Gold.PLP.Chemscore.Hbond>
1.6897

> <Gold.PLP.Chemscore.CHOScore>
0.9022

> <Gold.PLP.Chemscore.Metal>
0.0000

> <Gold.Chemscore.Hbonds>
donor molecule, donor type, donor heavy atom, donor atom, acceptor molecule, acceptor atom, score
      L1  H     9    30       P1  7948  0.34
      L1  H    12    31       P1  7948  0.77
      L1  C     3    23       P1  7949  1.00

> <Gold.PLP.Chemscore.Internal.Correction>
0.1145

> <Gold.Rescore>
     Score         DG    S(hbond)    S(metal)    S(lipo)     H(rot)  DE(clash)    DE(int)     intcor
     15.89     -16.83       1.73        0.00      81.03       1.53       0.67       0.26       ----

> <Gold.Chemscore.Fitness>
15.8906

> <Gold.Chemscore.DG>
-16.8252

> <Gold.Chemscore.ZeroCoef>
-5.4800

> <Gold.Chemscore.Hbond>
1.7328

> <Gold.Chemscore.Metal>
0.0000

> <Gold.Chemscore.Lipo>
81.0331

> <Gold.Chemscore.Internal_Hbond>
0.0000

> <Gold.Chemscore.DEClash>
0.6745

> <Gold.Chemscore.DEInternal>
0.2601

> <Gold.Chemscore.Rot>
1.5325

> <Gold.Chemscore.Internal.Correction>
   9.000000E+99

> <Gold.Chemscore.Hbonds>
donor molecule, donor type, donor heavy atom, donor atom, acceptor molecule, acceptor atom, score
      L1  H     9    30       P1  7948  0.34
      L1  H    12    31       P1  7948  0.78

> <Gold.Chemscore.Hbond.Weighted>
-5.7877

> <Gold.Chemscore.Metal.Weighted>
-0.0000

> <Gold.Chemscore.Lipo.Weighted>
-9.4809

> <Gold.Chemscore.Internal_Hbond.Weighted>
0.0000

> <Gold.Chemscore.DEClash.Weighted>
0.6745

> <Gold.Chemscore.DEInternal.Weighted>
0.2601

> <Gold.Chemscore.Rot.Weighted>
3.9233

> <Gold.Chemscore.Internal.Correction.Weighted>
   9.000000E+99

> <Gold.Protein.RotatedTorsions>
[ 6907 6896 6895 6894 ] final   -9.94 input  -60.11 | X-H torsion
[ 7974 7965 7964 7962 ] final  152.47 input  175.53 | X-H torsion
[ 8008 7997 7996 7995 ] final    0.40 input   59.86 | X-H torsion
[ 10167 10162 10161 10158 ] final   35.85 input  -65.29 | X-H torsion
[ 10718 10713 10712 10709 ] final  -75.16 input   66.30 | X-H torsion
[ 10763 10752 10751 10750 ] final  163.20 input  -60.55 | X-H torsion
[ 11005 11000 10999 10996 ] final   91.13 input  -57.11 | X-H torsion

> <Gold.Protein.ActiveResidues>
 VAL166  LYS551  ARG553  GLY616  TRP617  ASP618  TYR619  PRO620  LYS621  CYS622 
 ASP623  PHE694  ASN695  SER759  ASP760  ASP761  ALA762  ILE779  LEU786  VAL792 
 PHE793  MET794  SER795  GLU796  ALA797  LYS798  CYS799  TRP800  GLU811  SER814 

> <Gold.Protein.RotatedAtoms>
  151.4098  135.0983  159.9581 H   0  0  0  0  0  0  0  0  0  0  0  0  # atno 6907 bound_to 6896
  152.5023  133.8808  159.7356 H   0  0  0  0  0  0  0  0  0  0  0  0  # atno 6908 bound_to 6896
  150.9300  133.6721  159.2841 H   0  0  0  0  0  0  0  0  0  0  0  0  # atno 6909 bound_to 6896
  144.8220  139.6673  143.6096 H   0  0  0  0  0  0  0  0  0  0  0  0  # atno 7974 bound_to 7965
  154.6677  140.2605  155.7041 H   0  0  0  0  0  0  0  0  0  0  0  0  # atno 8008 bound_to 7997
  156.2645  140.2836  156.1095 H   0  0  0  0  0  0  0  0  0  0  0  0  # atno 8009 bound_to 7997
  155.1215  140.0377  157.2741 H   0  0  0  0  0  0  0  0  0  0  0  0  # atno 8010 bound_to 7997
  140.4183  144.1495  150.6145 H   0  0  0  0  0  0  0  0  0  0  0  0  # atno 10167 bound_to 10162
  156.0217  130.4434  150.3001 H   0  0  0  0  0  0  0  0  0  0  0  0  # atno 10718 bound_to 10713
  154.2901  135.2761  155.2659 H   0  0  0  0  0  0  0  0  0  0  0  0  # atno 10763 bound_to 10752
  154.5141  135.5774  153.6632 H   0  0  0  0  0  0  0  0  0  0  0  0  # atno 10764 bound_to 10752
  152.9915  135.6188  154.3065 H   0  0  0  0  0  0  0  0  0  0  0  0  # atno 10765 bound_to 10752
  139.8844  134.8655  156.3384 H   0  0  0  0  0  0  0  0  0  0  0  0  # atno 11005 bound_to 11000
  146.2525  139.6231  142.9417 LP  0  0  0  0  0  0  0  0  0  0  0  0  # atno 17320 bound_to 7965
  145.5084  141.0436  143.2501 LP  0  0  0  0  0  0  0  0  0  0  0  0  # atno 17321 bound_to 7965
  140.4562  143.2467  151.9282 LP  0  0  0  0  0  0  0  0  0  0  0  0  # atno 17342 bound_to 10162
  139.4782  144.5513  151.8381 LP  0  0  0  0  0  0  0  0  0  0  0  0  # atno 17343 bound_to 10162
  157.1104  131.0220  151.3050 LP  0  0  0  0  0  0  0  0  0  0  0  0  # atno 17370 bound_to 10713
  157.4709  130.7708  149.7323 LP  0  0  0  0  0  0  0  0  0  0  0  0  # atno 17371 bound_to 10713
  140.9676  133.7348  156.0488 LP  0  0  0  0  0  0  0  0  0  0  0  0  # atno 17394 bound_to 11000
  140.7912  134.3615  157.5464 LP  0  0  0  0  0  0  0  0  0  0  0  0  # atno 17395 bound_to 11000

$$$$
