AV-unprocessed.smi:2973|AV-procd|sdf|11340|dock2
  -GOLD-   2272016253D 1   1.00000     0.00000
 Structure written by MMmdl.
 49 51  0  0  0  0  0  0  0  0  1 V2000
  147.6606  137.1330  155.0565 C   0  0  0  0  0  0  0  0  0  0  0  0
  148.0154  138.4807  154.3931 C   0  0  1  0  0  0  0  0  0  0  0  0
  146.8440  139.4782  154.5236 C   0  0  0  0  0  0  0  0  0  0  0  0
  147.1346  140.7942  153.7853 C   0  0  0  0  0  0  0  0  0  0  0  0
  148.4392  141.4376  154.2758 C   0  0  0  0  0  0  0  0  0  0  0  0
  149.6221  140.4599  154.1564 C   0  0  0  0  0  0  0  0  0  0  0  0
  149.3669  139.1056  154.8654 C   0  0  2  0  0  0  0  0  0  0  0  0
  150.4779  138.2051  154.6105 N   0  0  0  0  0  0  0  0  0  0  0  0
  151.1435  137.8587  155.7191 C   0  0  0  0  0  0  0  0  0  0  0  0
  152.1232  137.1160  155.7548 O   0  0  0  0  0  0  0  0  0  0  0  0
  150.5552  138.4577  156.7691 N   0  0  0  0  0  0  0  0  0  0  0  0
  151.0150  138.3260  158.1580 C   0  0  0  0  0  0  0  0  0  0  0  0
  152.4386  138.8538  158.3868 C   0  0  0  0  0  0  0  0  0  0  0  0
  153.2052  139.0495  157.4424 O   0  0  0  0  0  0  0  0  0  0  0  0
  152.7733  139.0883  159.6642 N   0  0  0  0  0  0  0  0  0  0  0  0
  154.0662  139.5902  160.1147 C   0  0  0  0  0  0  0  0  0  0  0  0
  153.9261  140.4877  161.3557 C   0  0  0  0  0  0  0  0  0  0  0  0
  153.2816  141.8218  161.0296 C   0  0  0  0  0  0  0  0  0  0  0  0
  152.7420  142.6312  162.0525 C   0  0  0  0  0  0  0  0  0  0  0  0
  152.1589  143.8627  161.6961 C   0  0  0  0  0  0  0  0  0  0  0  0
  152.1392  144.2364  160.3386 C   0  0  0  0  0  0  0  0  0  0  0  0
  152.7062  143.3582  159.3935 C   0  0  0  0  0  0  0  0  0  0  0  0
  153.2669  142.1750  159.7244 N   0  0  0  0  0  0  0  0  0  0  0  0
  149.5176  139.2139  156.3848 C   0  0  0  0  0  0  0  0  0  0  0  0
  148.7907  139.8892  157.1137 O   0  0  0  0  0  0  0  0  0  0  0  0
  147.4860  137.2415  156.1273 H   0  0  0  0  0  0  0  0  0  0  0  0
  148.4514  136.3954  154.9195 H   0  0  0  0  0  0  0  0  0  0  0  0
  146.7530  136.7143  154.6209 H   0  0  0  0  0  0  0  0  0  0  0  0
  148.1259  138.2691  153.3284 H   0  0  0  0  0  0  0  0  0  0  0  0
  145.9346  139.0348  154.1168 H   0  0  0  0  0  0  0  0  0  0  0  0
  146.6341  139.6842  155.5733 H   0  0  0  0  0  0  0  0  0  0  0  0
  147.2030  140.6031  152.7136 H   0  0  0  0  0  0  0  0  0  0  0  0
  146.3045  141.4876  153.9221 H   0  0  0  0  0  0  0  0  0  0  0  0
  148.6462  142.3374  153.6959 H   0  0  0  0  0  0  0  0  0  0  0  0
  148.3219  141.7651  155.3087 H   0  0  0  0  0  0  0  0  0  0  0  0
  149.8232  140.2792  153.0994 H   0  0  0  0  0  0  0  0  0  0  0  0
  150.5215  140.9345  154.5525 H   0  0  0  0  0  0  0  0  0  0  0  0
  150.7200  137.8881  153.6829 H   0  0  0  0  0  0  0  0  0  0  0  0
  150.3373  138.8547  158.8303 H   0  0  0  0  0  0  0  0  0  0  0  0
  150.9733  137.2783  158.4607 H   0  0  0  0  0  0  0  0  0  0  0  0
  152.0834  138.9007  160.3774 H   0  0  0  0  0  0  0  0  0  0  0  0
  154.6969  138.7322  160.3485 H   0  0  0  0  0  0  0  0  0  0  0  0
  154.5617  140.1277  159.3041 H   0  0  0  0  0  0  0  0  0  0  0  0
  153.3291  139.9879  162.1201 H   0  0  0  0  0  0  0  0  0  0  0  0
  154.9065  140.6629  161.8004 H   0  0  0  0  0  0  0  0  0  0  0  0
  152.7736  142.3183  163.0859 H   0  0  0  0  0  0  0  0  0  0  0  0
  151.7346  144.5089  162.4504 H   0  0  0  0  0  0  0  0  0  0  0  0
  151.7003  145.1731  160.0286 H   0  0  0  0  0  0  0  0  0  0  0  0
  152.7100  143.6130  158.3440 H   0  0  0  0  0  0  0  0  0  0  0  0
  1  2  1  0  0  0  0
  1 26  1  0  0  0  0
  1 27  1  0  0  0  0
  1 28  1  0  0  0  0
  2  7  1  0  0  0  0
  2  3  1  0  0  0  0
  2 29  1  0  0  0  0
  3  4  1  0  0  0  0
  3 30  1  0  0  0  0
  3 31  1  0  0  0  0
  4  5  1  0  0  0  0
  4 32  1  0  0  0  0
  4 33  1  0  0  0  0
  5  6  1  0  0  0  0
  5 34  1  0  0  0  0
  5 35  1  0  0  0  0
  6  7  1  0  0  0  0
  6 36  1  0  0  0  0
  6 37  1  0  0  0  0
  7 24  1  0  0  0  0
  7  8  1  0  0  0  0
  8  9  1  0  0  0  0
  8 38  1  0  0  0  0
  9 10  2  0  0  0  0
  9 11  1  0  0  0  0
 11 12  1  0  0  0  0
 11 24  1  0  0  0  0
 12 13  1  0  0  0  0
 12 39  1  0  0  0  0
 12 40  1  0  0  0  0
 13 14  2  0  0  0  0
 13 15  1  0  0  0  0
 15 16  1  0  0  0  0
 15 41  1  0  0  0  0
 16 17  1  0  0  0  0
 16 42  1  0  0  0  0
 16 43  1  0  0  0  0
 17 18  1  0  0  0  0
 17 44  1  0  0  0  0
 17 45  1  0  0  0  0
 18 23  1  0  0  0  0
 18 19  2  0  0  0  0
 19 20  1  0  0  0  0
 19 46  1  0  0  0  0
 20 21  2  0  0  0  0
 20 47  1  0  0  0  0
 21 22  1  0  0  0  0
 21 48  1  0  0  0  0
 22 23  2  0  0  0  0
 22 49  1  0  0  0  0
 24 25  2  0  0  0  0
M  END
> <s_m_source_file>
AV-unprocessed.smi

> <i_m_source_file_index>
2973

> <i_lp_mmshare_version>
43012

> <i_f3d_flags>
0

> <s_epik_input>
W0NIMl0xW0NIMl1bQ0gyXVtDSDJdW0NAQEhdKFtDSDNdKVtDQF0xMltOSF1DKD1PKU4oQzI9TylbQ0gyXUMoPU8pW05IXVtDSDJdW0NIMl1jM1tjSF1bY0hdW2NIXVtjSF1uMw==

> <s_epik_cmdline>
J2VwaWtfcHl0aG9uJywgJy1waCcsICc3LjAnLCAnLXRuJywgJzgnLCAnLW1hJywgJzIwMCcsICctbWV0YWxfYmluZGluZycsICctaW1hZScsICc8aW5maWxlLm1hZT4nLCAnLW9tYWUnLCAnPG91dGZpbGUubWFlPic=

> <r_lp_tautomer_probability>
1

> <r_epik_Ionization_Penalty>
0.0245152

> <r_epik_Ionization_Penalty_Charging>
0

> <r_epik_Ionization_Penalty_Neutral>
0.0245152

> <r_epik_State_Penalty>
0.0198648

> <r_epik_Charging_Adjusted_Penalty>
0.0198648

> <i_epik_Tot_Q>
0

> <i_epik_Tot_abs_Q>
0

> <r_epik_Metal_State_Penalty>
0.0400162

> <b_epik_Metal_Only>
0

> <s_lp_Force_Field>
OPLS_2005

> <r_lp_Energy>
16.769

> <b_lp_Chiralities_Consistent>
1

> <s_lp_Variant>
AV-unprocessed.smi:2973-4

> <Gold.Version>
5.8.1

> <Gold.Id.Protein>
6NUR|6NUR_protein|mol2

> <Gold.PLP.Fitness>
46.5285

> <Gold.PLP.PLP>
-42.1586

> <Gold.PLP.part.hbond>
-2.0000

> <Gold.PLP.part.metal>
0.0000

> <Gold.PLP.part.buried>
-3.3577

> <Gold.PLP.part.nonpolar>
-36.5832

> <Gold.PLP.part.repulsive>
0.1923

> <Gold.PLP.ligand.clash>
0.0000

> <Gold.PLP.ligand.torsion>
0.6761

> <Gold.PLP.Chemscore.Hbond>
1.8960

> <Gold.PLP.Chemscore.CHOScore>
0.0000

> <Gold.PLP.Chemscore.Metal>
0.0000

> <Gold.Chemscore.Hbonds>
donor molecule, donor type, donor heavy atom, donor atom, acceptor molecule, acceptor atom, score
      P1  H  7997  8009       L1    14  1.00
      P1  H 10752 10765       L1    10  0.94

> <Gold.PLP.Chemscore.Internal.Correction>
0.0342

> <Gold.Rescore>
     Score         DG    S(hbond)    S(metal)    S(lipo)     H(rot)  DE(clash)    DE(int)     intcor
     17.79     -19.89       1.90        0.00     109.56       1.86       0.68       1.42       ----

> <Gold.Chemscore.Fitness>
17.7864

> <Gold.Chemscore.DG>
-19.8901

> <Gold.Chemscore.ZeroCoef>
-5.4800

> <Gold.Chemscore.Hbond>
1.8987

> <Gold.Chemscore.Metal>
0.0000

> <Gold.Chemscore.Lipo>
109.5575

> <Gold.Chemscore.Internal_Hbond>
0.0000

> <Gold.Chemscore.DEClash>
0.6804

> <Gold.Chemscore.DEInternal>
1.4233

> <Gold.Chemscore.Rot>
1.8553

> <Gold.Chemscore.Internal.Correction>
   9.000000E+99

> <Gold.Chemscore.Hbonds>
donor molecule, donor type, donor heavy atom, donor atom, acceptor molecule, acceptor atom, score
      P1  H  7997  8009       L1    14  0.99
      P1  H 10752 10765       L1    10  0.86

> <Gold.Chemscore.Hbond.Weighted>
-6.3416

> <Gold.Chemscore.Metal.Weighted>
-0.0000

> <Gold.Chemscore.Lipo.Weighted>
-12.8182

> <Gold.Chemscore.Internal_Hbond.Weighted>
0.0000

> <Gold.Chemscore.DEClash.Weighted>
0.6804

> <Gold.Chemscore.DEInternal.Weighted>
1.4233

> <Gold.Chemscore.Rot.Weighted>
4.7497

> <Gold.Chemscore.Internal.Correction.Weighted>
   9.000000E+99

> <Gold.Protein.RotatedTorsions>
[ 6907 6896 6895 6894 ] final -100.08 input  -60.11 | X-H torsion
[ 7974 7965 7964 7962 ] final  -80.86 input  175.53 | X-H torsion
[ 8008 7997 7996 7995 ] final -178.66 input   59.86 | X-H torsion
[ 10167 10162 10161 10158 ] final  175.69 input  -65.29 | X-H torsion
[ 10718 10713 10712 10709 ] final   97.25 input   66.30 | X-H torsion
[ 10763 10752 10751 10750 ] final -162.47 input  -60.55 | X-H torsion
[ 11005 11000 10999 10996 ] final   49.94 input  -57.11 | X-H torsion

> <Gold.Protein.ActiveResidues>
 VAL166  LYS551  ARG553  GLY616  TRP617  ASP618  TYR619  PRO620  LYS621  CYS622 
 ASP623  PHE694  ASN695  SER759  ASP760  ASP761  ALA762  ILE779  LEU786  VAL792 
 PHE793  MET794  SER795  GLU796  ALA797  LYS798  CYS799  TRP800  GLU811  SER814 

> <Gold.Protein.RotatedAtoms>
  150.7103  134.0943  159.3942 H   0  0  0  0  0  0  0  0  0  0  0  0  # atno 6907 bound_to 6896
  151.8928  135.0407  160.0508 H   0  0  0  0  0  0  0  0  0  0  0  0  # atno 6908 bound_to 6896
  152.2477  133.5153  159.5344 H   0  0  0  0  0  0  0  0  0  0  0  0  # atno 6909 bound_to 6896
  145.5544  140.9492  143.1481 H   0  0  0  0  0  0  0  0  0  0  0  0  # atno 7974 bound_to 7965
  156.0214  140.1262  157.0353 H   0  0  0  0  0  0  0  0  0  0  0  0  # atno 8008 bound_to 7997
  154.4313  140.1068  156.6039 H   0  0  0  0  0  0  0  0  0  0  0  0  # atno 8009 bound_to 7997
  155.5939  140.3469  155.4576 H   0  0  0  0  0  0  0  0  0  0  0  0  # atno 8010 bound_to 7997
  139.5186  144.3002  152.0385 H   0  0  0  0  0  0  0  0  0  0  0  0  # atno 10167 bound_to 10162
  157.6915  131.0603  150.4616 H   0  0  0  0  0  0  0  0  0  0  0  0  # atno 10718 bound_to 10713
  154.7211  135.3026  154.9046 H   0  0  0  0  0  0  0  0  0  0  0  0  # atno 10763 bound_to 10752
  153.9918  135.6718  153.4758 H   0  0  0  0  0  0  0  0  0  0  0  0  # atno 10764 bound_to 10752
  153.0834  135.4996  154.8467 H   0  0  0  0  0  0  0  0  0  0  0  0  # atno 10765 bound_to 10752
  140.1060  134.5018  155.8719 H   0  0  0  0  0  0  0  0  0  0  0  0  # atno 11005 bound_to 11000
  144.7513  139.7185  143.7272 LP  0  0  0  0  0  0  0  0  0  0  0  0  # atno 17320 bound_to 7965
  146.1895  139.5127  142.9814 LP  0  0  0  0  0  0  0  0  0  0  0  0  # atno 17321 bound_to 7965
  140.2450  144.4229  150.6244 LP  0  0  0  0  0  0  0  0  0  0  0  0  # atno 17342 bound_to 10162
  140.6264  143.2182  151.6587 LP  0  0  0  0  0  0  0  0  0  0  0  0  # atno 17343 bound_to 10162
  156.4959  130.4106  149.6380 LP  0  0  0  0  0  0  0  0  0  0  0  0  # atno 17370 bound_to 10713
  156.3373  130.7363  151.2303 LP  0  0  0  0  0  0  0  0  0  0  0  0  # atno 17371 bound_to 10713
  141.2118  133.6711  156.6612 LP  0  0  0  0  0  0  0  0  0  0  0  0  # atno 17394 bound_to 11000
  140.3155  134.8051  157.4211 LP  0  0  0  0  0  0  0  0  0  0  0  0  # atno 17395 bound_to 11000

$$$$
