AV-unprocessed.smi:1240|AV-procd|sdf|5203|dock3
  -GOLD-   22720 4293D 1   1.00000     0.00000
 Structure written by MMmdl.
 48 50  0  0  0  0  0  0  0  0  2 V2000
  144.5038  136.5023  152.3259 O   0  0  0  0  0  0  0  0  0  0  0  0
  145.7230  136.3396  152.2847 C   0  0  0  0  0  0  0  0  0  0  0  0
  146.6047  137.2500  152.7229 N   0  0  0  0  0  0  0  0  0  0  0  0
  146.2592  138.5487  153.2929 C   0  0  0  0  0  0  0  0  0  0  0  0
  146.5966  138.7073  154.8154 C   0  0  2  0  0  0  0  0  0  0  0  0
  145.5040  139.6104  155.4991 C   0  0  2  0  0  0  0  0  0  0  0  0
  145.6846  139.9628  156.9679 C   0  0  0  0  0  0  0  0  0  0  0  0
  144.3199  140.5190  157.3464 C   0  0  0  0  0  0  0  0  0  0  0  0
  143.3970  139.7166  156.6277 O   0  0  0  0  0  0  0  0  0  0  0  0
  144.0716  139.0500  155.5651 C   0  0  0  0  0  0  0  0  0  0  0  0
  147.9709  139.2286  155.0769 N   0  0  0  0  0  0  0  0  0  0  0  0
  148.2223  140.6134  154.6575 C   0  0  0  0  0  0  0  0  0  0  0  0
  149.6496  141.0854  154.9896 C   0  0  0  0  0  0  0  0  0  0  0  0
  150.5991  140.2206  154.3817 O   0  0  0  0  0  0  0  0  0  0  0  0
  150.4322  138.8698  154.7896 C   0  0  0  0  0  0  0  0  0  0  0  0
  149.0088  138.4028  154.4431 C   0  0  0  0  0  0  0  0  0  0  0  0
  146.3483  135.2606  151.7825 N   0  0  0  0  0  0  0  0  0  0  0  0
  145.7808  134.0940  151.2006 C   0  0  0  0  0  0  0  0  0  0  0  0
  144.3804  133.9342  151.2964 C   0  0  0  0  0  0  0  0  0  0  0  0
  143.7676  132.8013  150.7233 C   0  0  0  0  0  0  0  0  0  0  0  0
  144.5201  131.8832  150.0802 N   0  3  0  0  0  0  0  0  0  0  0  0
  145.8593  131.9983  149.9507 C   0  0  0  0  0  0  0  0  0  0  0  0
  146.5277  133.1100  150.5032 C   0  0  0  0  0  0  0  0  0  0  0  0
  147.5887  137.0371  152.6476 H   0  0  0  0  0  0  0  0  0  0  0  0
  146.7974  139.2673  152.6757 H   0  0  0  0  0  0  0  0  0  0  0  0
  145.1980  138.7317  153.1211 H   0  0  0  0  0  0  0  0  0  0  0  0
  146.5335  137.7090  155.2509 H   0  0  0  0  0  0  0  0  0  0  0  0
  145.4647  140.5529  154.9498 H   0  0  0  0  0  0  0  0  0  0  0  0
  145.8799  139.0663  157.5582 H   0  0  0  0  0  0  0  0  0  0  0  0
  146.4779  140.6897  157.1451 H   0  0  0  0  0  0  0  0  0  0  0  0
  144.1332  140.4846  158.4199 H   0  0  0  0  0  0  0  0  0  0  0  0
  144.2232  141.5535  157.0141 H   0  0  0  0  0  0  0  0  0  0  0  0
  143.5208  139.1999  154.6367 H   0  0  0  0  0  0  0  0  0  0  0  0
  144.0813  137.9830  155.7915 H   0  0  0  0  0  0  0  0  0  0  0  0
  148.0457  140.7180  153.5858 H   0  0  0  0  0  0  0  0  0  0  0  0
  147.5422  141.2938  155.1691 H   0  0  0  0  0  0  0  0  0  0  0  0
  149.8079  142.0997  154.6234 H   0  0  0  0  0  0  0  0  0  0  0  0
  149.8068  141.1070  156.0691 H   0  0  0  0  0  0  0  0  0  0  0  0
  151.1691  138.2518  154.2767 H   0  0  0  0  0  0  0  0  0  0  0  0
  150.6219  138.7743  155.8600 H   0  0  0  0  0  0  0  0  0  0  0  0
  148.9308  137.3592  154.7208 H   0  0  0  0  0  0  0  0  0  0  0  0
  148.8824  138.4298  153.3596 H   0  0  0  0  0  0  0  0  0  0  0  0
  147.3564  135.3096  151.7558 H   0  0  0  0  0  0  0  0  0  0  0  0
  143.7771  134.6698  151.8088 H   0  0  0  0  0  0  0  0  0  0  0  0
  142.7060  132.6049  150.7580 H   0  0  0  0  0  0  0  0  0  0  0  0
  146.3528  131.2060  149.4068 H   0  0  0  0  0  0  0  0  0  0  0  0
  147.5955  133.1894  150.3696 H   0  0  0  0  0  0  0  0  0  0  0  0
  144.0575  131.0707  149.6709 H   0  0  0  0  0  0  0  0  0  0  0  0
  1  2  2  0  0  0  0
  2  3  1  0  0  0  0
  2 17  1  0  0  0  0
  3  4  1  0  0  0  0
  3 24  1  0  0  0  0
  4  5  1  0  0  0  0
  4 25  1  0  0  0  0
  4 26  1  0  0  0  0
  5  6  1  0  0  0  0
  5 11  1  0  0  0  0
  5 27  1  0  0  0  0
  6 10  1  0  0  0  0
  6  7  1  0  0  0  0
  6 28  1  0  0  0  0
  7  8  1  0  0  0  0
  7 29  1  0  0  0  0
  7 30  1  0  0  0  0
  8  9  1  0  0  0  0
  8 31  1  0  0  0  0
  8 32  1  0  0  0  0
  9 10  1  0  0  0  0
 10 33  1  0  0  0  0
 10 34  1  0  0  0  0
 11 16  1  0  0  0  0
 11 12  1  0  0  0  0
 12 13  1  0  0  0  0
 12 35  1  0  0  0  0
 12 36  1  0  0  0  0
 13 14  1  0  0  0  0
 13 37  1  0  0  0  0
 13 38  1  0  0  0  0
 14 15  1  0  0  0  0
 15 16  1  0  0  0  0
 15 39  1  0  0  0  0
 15 40  1  0  0  0  0
 16 41  1  0  0  0  0
 16 42  1  0  0  0  0
 17 18  1  0  0  0  0
 17 43  1  0  0  0  0
 18 23  1  0  0  0  0
 18 19  2  0  0  0  0
 19 20  1  0  0  0  0
 19 44  1  0  0  0  0
 20 21  2  0  0  0  0
 20 45  1  0  0  0  0
 21 22  1  0  0  0  0
 21 48  1  0  0  0  0
 22 23  2  0  0  0  0
 22 46  1  0  0  0  0
 23 47  1  0  0  0  0
M  CHG  1  21   1
M  END
> <s_m_source_file>
AV-unprocessed.smi

> <i_m_source_file_index>
1240

> <i_lp_mmshare_version>
43012

> <i_f3d_flags>
0

> <s_epik_input>
W2NIXTFbY0hdbltjSF1bY0hdYzFbTkhdQyg9TylbTkhdW0NIMl1bQ0BIXShbQ0BASF0yW0NIMl1bQ0gyXU9bQ0gyXTIpTjNbQ0gyXVtDSDJdT1tDSDJdW0NIMl0z

> <s_epik_cmdline>
J2VwaWtfcHl0aG9uJywgJy1waCcsICc3LjAnLCAnLXRuJywgJzgnLCAnLW1hJywgJzIwMCcsICctbWV0YWxfYmluZGluZycsICctaW1hZScsICc8aW5maWxlLm1hZT4nLCAnLW9tYWUnLCAnPG91dGZpbGUubWFlPic=

> <r_epik_Ionization_Penalty>
1.15944

> <r_epik_Ionization_Penalty_Charging>
1.0344

> <r_epik_Ionization_Penalty_Neutral>
0.125034

> <r_epik_State_Penalty>
1.2199

> <r_epik_Charging_Adjusted_Penalty>
2.25431

> <i_epik_Tot_Q>
1

> <i_epik_Tot_abs_Q>
1

> <r_epik_Metal_State_Penalty>
1.3155

> <b_epik_Metal_Only>
0

> <s_lp_Force_Field>
OPLS_2005

> <r_lp_Energy>
66.7815

> <b_lp_Chiralities_Consistent>
1

> <s_lp_Variant>
AV-unprocessed.smi:1240-9

> <Gold.Version>
5.8.1

> <Gold.Id.Protein>
6NUR|6NUR_protein|mol2

> <Gold.PLP.Fitness>
38.6625

> <Gold.PLP.PLP>
-30.5398

> <Gold.PLP.part.hbond>
-2.8898

> <Gold.PLP.part.metal>
0.0000

> <Gold.PLP.part.buried>
-6.6705

> <Gold.PLP.part.nonpolar>
-23.4322

> <Gold.PLP.part.repulsive>
0.5798

> <Gold.PLP.ligand.clash>
0.0000

> <Gold.PLP.ligand.torsion>
0.5537

> <Gold.PLP.Chemscore.Hbond>
2.9913

> <Gold.PLP.Chemscore.CHOScore>
0.0000

> <Gold.PLP.Chemscore.Metal>
0.0000

> <Gold.Chemscore.Hbonds>
donor molecule, donor type, donor heavy atom, donor atom, acceptor molecule, acceptor atom, score
      L1  H     3    24       P1  7948  1.00
      L1  H    17    43       P1  7948  1.00
      P1  H  7989  7998       L1    14  0.93

> <Gold.PLP.Chemscore.Internal.Correction>
0.2564

> <Gold.Rescore>
     Score         DG    S(hbond)    S(metal)    S(lipo)     H(rot)  DE(clash)    DE(int)     intcor
     17.30     -19.27       2.89        0.00      72.24       1.69       0.01       1.95       ----

> <Gold.Chemscore.Fitness>
17.2996

> <Gold.Chemscore.DG>
-19.2672

> <Gold.Chemscore.ZeroCoef>
-5.4800

> <Gold.Chemscore.Hbond>
2.8936

> <Gold.Chemscore.Metal>
0.0000

> <Gold.Chemscore.Lipo>
72.2385

> <Gold.Chemscore.Internal_Hbond>
0.0000

> <Gold.Chemscore.DEClash>
0.0141

> <Gold.Chemscore.DEInternal>
1.9535

> <Gold.Chemscore.Rot>
1.6912

> <Gold.Chemscore.Internal.Correction>
   9.000000E+99

> <Gold.Chemscore.Hbonds>
donor molecule, donor type, donor heavy atom, donor atom, acceptor molecule, acceptor atom, score
      L1  H     3    24       P1  7948  0.95
      L1  H    17    43       P1  7948  0.94
      P1  H  7989  7998       L1    14  0.82

> <Gold.Chemscore.Hbond.Weighted>
-9.6647

> <Gold.Chemscore.Metal.Weighted>
-0.0000

> <Gold.Chemscore.Lipo.Weighted>
-8.4519

> <Gold.Chemscore.Internal_Hbond.Weighted>
0.0000

> <Gold.Chemscore.DEClash.Weighted>
0.0141

> <Gold.Chemscore.DEInternal.Weighted>
1.9535

> <Gold.Chemscore.Rot.Weighted>
4.3295

> <Gold.Chemscore.Internal.Correction.Weighted>
   9.000000E+99

> <Gold.Protein.RotatedTorsions>
[ 6907 6896 6895 6894 ] final -159.43 input  -60.11 | X-H torsion
[ 7974 7965 7964 7962 ] final -147.35 input  175.53 | X-H torsion
[ 8008 7997 7996 7995 ] final  -95.37 input   59.86 | X-H torsion
[ 10167 10162 10161 10158 ] final  -44.06 input  -65.29 | X-H torsion
[ 10718 10713 10712 10709 ] final  -29.09 input   66.30 | X-H torsion
[ 10763 10752 10751 10750 ] final   29.52 input  -60.55 | X-H torsion
[ 11005 11000 10999 10996 ] final -137.98 input  -57.11 | X-H torsion

> <Gold.Protein.ActiveResidues>
 VAL166  LYS551  ARG553  GLY616  TRP617  ASP618  TYR619  PRO620  LYS621  CYS622 
 ASP623  PHE694  ASN695  SER759  ASP760  ASP761  ALA762  ILE779  LEU786  VAL792 
 PHE793  MET794  SER795  GLU796  ALA797  LYS798  CYS799  TRP800  GLU811  SER814 

> <Gold.Protein.RotatedAtoms>
  151.3334  133.3991  159.2664 H   0  0  0  0  0  0  0  0  0  0  0  0  # atno 6907 bound_to 6896
  150.9936  134.9266  159.7924 H   0  0  0  0  0  0  0  0  0  0  0  0  # atno 6908 bound_to 6896
  152.5255  134.3299  159.9231 H   0  0  0  0  0  0  0  0  0  0  0  0  # atno 6909 bound_to 6896
  144.8099  140.5338  143.5649 H   0  0  0  0  0  0  0  0  0  0  0  0  # atno 7974 bound_to 7965
  154.7605  140.0481  157.0969 H   0  0  0  0  0  0  0  0  0  0  0  0  # atno 8008 bound_to 7997
  154.9944  140.3117  155.4873 H   0  0  0  0  0  0  0  0  0  0  0  0  # atno 8009 bound_to 7997
  156.2903  140.2213  156.5051 H   0  0  0  0  0  0  0  0  0  0  0  0  # atno 8010 bound_to 7997
  140.6911  143.2950  151.3441 H   0  0  0  0  0  0  0  0  0  0  0  0  # atno 10167 bound_to 10162
  156.4168  130.4418  149.7212 H   0  0  0  0  0  0  0  0  0  0  0  0  # atno 10718 bound_to 10713
  153.0425  135.6487  154.0903 H   0  0  0  0  0  0  0  0  0  0  0  0  # atno 10763 bound_to 10752
  154.0607  135.2888  155.3327 H   0  0  0  0  0  0  0  0  0  0  0  0  # atno 10764 bound_to 10752
  154.6659  135.5374  153.8142 H   0  0  0  0  0  0  0  0  0  0  0  0  # atno 10765 bound_to 10752
  140.8660  134.2110  157.4679 H   0  0  0  0  0  0  0  0  0  0  0  0  # atno 11005 bound_to 11000
  145.5349  139.1475  143.3479 LP  0  0  0  0  0  0  0  0  0  0  0  0  # atno 17320 bound_to 7965
  146.2396  140.5489  142.8940 LP  0  0  0  0  0  0  0  0  0  0  0  0  # atno 17321 bound_to 7965
  139.6315  144.0712  152.2480 LP  0  0  0  0  0  0  0  0  0  0  0  0  # atno 17342 bound_to 10162
  140.0188  144.6169  150.7584 LP  0  0  0  0  0  0  0  0  0  0  0  0  # atno 17343 bound_to 10162
  156.4169  130.7749  151.2765 LP  0  0  0  0  0  0  0  0  0  0  0  0  # atno 17370 bound_to 10713
  157.7508  131.0195  150.3668 LP  0  0  0  0  0  0  0  0  0  0  0  0  # atno 17371 bound_to 10713
  139.8709  134.9752  156.4874 LP  0  0  0  0  0  0  0  0  0  0  0  0  # atno 17394 bound_to 11000
  140.8628  133.8046  155.9283 LP  0  0  0  0  0  0  0  0  0  0  0  0  # atno 17395 bound_to 11000

$$$$
