AV-unprocessed.smi:2330|AV-procd|sdf|9312|dock4
  -GOLD-   2272012533D 1   1.00000     0.00000
 Structure written by MMmdl.
 42 43  0  0  0  0  0  0  0  0  1 V2000
  146.0734  132.4318  149.9510 C   0  0  0  0  0  0  0  0  0  0  0  0
  145.6674  132.9003  151.3555 C   0  0  2  0  0  0  0  0  0  0  0  0
  144.8890  134.2288  151.3013 C   0  0  0  0  0  0  0  0  0  0  0  0
  144.4873  134.7125  152.7067 C   0  0  0  0  0  0  0  0  0  0  0  0
  145.6994  134.8323  153.6503 C   0  0  2  0  0  0  0  0  0  0  0  0
  146.5470  135.9510  153.2411 N   0  0  0  0  0  0  0  0  0  0  0  0
  146.1981  137.2444  153.2748 C   0  0  0  0  0  0  0  0  0  0  0  0
  145.0969  137.6536  153.6431 O   0  0  0  0  0  0  0  0  0  0  0  0
  147.2018  138.0370  152.8736 N   0  0  0  0  0  0  0  0  0  0  0  0
  147.1597  139.4953  152.8180 C   0  0  0  0  0  0  0  0  0  0  0  0
  147.8216  140.1503  154.0492 C   0  0  2  0  0  0  0  0  0  0  0  0
  147.8274  141.6890  154.0324 C   0  0  0  0  0  0  0  0  0  0  0  0
  149.1937  139.6018  154.2892 C   0  0  0  0  0  0  0  0  0  0  0  0
  149.6605  138.4875  153.7164 N   0  0  0  0  0  0  0  0  0  0  0  0
  150.9690  138.1918  154.1057 C   0  0  0  0  0  0  0  0  0  0  0  0
  151.4962  139.1010  154.9868 C   0  0  0  0  0  0  0  0  0  0  0  0
  150.3612  140.3681  155.3624 S   0  0  0  0  0  0  0  0  0  0  0  0
  146.4919  133.5082  153.6884 C   0  0  0  0  0  0  0  0  0  0  0  0
  146.8918  133.0294  152.2816 C   0  0  0  0  0  0  0  0  0  0  0  0
  146.7372  133.1508  149.4697 H   0  0  0  0  0  0  0  0  0  0  0  0
  145.1995  132.3053  149.3115 H   0  0  0  0  0  0  0  0  0  0  0  0
  146.5931  131.4741  149.9910 H   0  0  0  0  0  0  0  0  0  0  0  0
  145.0066  132.1410  151.7768 H   0  0  0  0  0  0  0  0  0  0  0  0
  145.4950  134.9915  150.8103 H   0  0  0  0  0  0  0  0  0  0  0  0
  143.9941  134.1105  150.6893 H   0  0  0  0  0  0  0  0  0  0  0  0
  143.9663  135.6683  152.6382 H   0  0  0  0  0  0  0  0  0  0  0  0
  143.7713  134.0087  153.1330 H   0  0  0  0  0  0  0  0  0  0  0  0
  145.3236  135.0431  154.6531 H   0  0  0  0  0  0  0  0  0  0  0  0
  147.4769  135.7194  152.9238 H   0  0  0  0  0  0  0  0  0  0  0  0
  148.0669  137.5987  152.5930 H   0  0  0  0  0  0  0  0  0  0  0  0
  147.6927  139.7970  151.9156 H   0  0  0  0  0  0  0  0  0  0  0  0
  146.1358  139.8541  152.6982 H   0  0  0  0  0  0  0  0  0  0  0  0
  147.2262  139.8574  154.9150 H   0  0  0  0  0  0  0  0  0  0  0  0
  148.2815  142.0872  154.9405 H   0  0  0  0  0  0  0  0  0  0  0  0
  146.8183  142.0958  153.9721 H   0  0  0  0  0  0  0  0  0  0  0  0
  148.3921  142.0724  153.1820 H   0  0  0  0  0  0  0  0  0  0  0  0
  151.4507  137.3117  153.7059 H   0  0  0  0  0  0  0  0  0  0  0  0
  152.4785  139.1023  155.4356 H   0  0  0  0  0  0  0  0  0  0  0  0
  147.3796  133.6103  154.3137 H   0  0  0  0  0  0  0  0  0  0  0  0
  145.8790  132.7408  154.1624 H   0  0  0  0  0  0  0  0  0  0  0  0
  147.4026  132.0690  152.3577 H   0  0  0  0  0  0  0  0  0  0  0  0
  147.6120  133.7251  151.8488 H   0  0  0  0  0  0  0  0  0  0  0  0
  1  2  1  0  0  0  0
  1 20  1  0  0  0  0
  1 21  1  0  0  0  0
  1 22  1  0  0  0  0
  2 19  1  0  0  0  0
  2  3  1  0  0  0  0
  2 23  1  0  0  0  0
  3  4  1  0  0  0  0
  3 24  1  0  0  0  0
  3 25  1  0  0  0  0
  4  5  1  0  0  0  0
  4 26  1  0  0  0  0
  4 27  1  0  0  0  0
  5  6  1  0  0  0  0
  5 18  1  0  0  0  0
  5 28  1  0  0  0  0
  6  7  1  0  0  0  0
  6 29  1  0  0  0  0
  7  8  2  0  0  0  0
  7  9  1  0  0  0  0
  9 10  1  0  0  0  0
  9 30  1  0  0  0  0
 10 11  1  0  0  0  0
 10 31  1  0  0  0  0
 10 32  1  0  0  0  0
 11 12  1  0  0  0  0
 11 13  1  0  0  0  0
 11 33  1  0  0  0  0
 12 34  1  0  0  0  0
 12 35  1  0  0  0  0
 12 36  1  0  0  0  0
 13 17  1  0  0  0  0
 13 14  2  0  0  0  0
 14 15  1  0  0  0  0
 15 16  2  0  0  0  0
 15 37  1  0  0  0  0
 16 17  1  0  0  0  0
 16 38  1  0  0  0  0
 18 19  1  0  0  0  0
 18 39  1  0  0  0  0
 18 40  1  0  0  0  0
 19 41  1  0  0  0  0
 19 42  1  0  0  0  0
M  END
> <s_m_source_file>
AV-unprocessed.smi

> <i_m_source_file_index>
2330

> <i_lp_mmshare_version>
43012

> <i_f3d_flags>
0

> <s_epik_input>
W0NIM11bQ0BASF0xW0NIMl1bQ0gyXVtDQEhdKFtDSDJdW0NIMl0xKVtOSF1DKD1PKVtOSF1bQ0gyXVtDQEhdKFtDSDNdKWMybltjSF1bY0hdczI=

> <s_epik_cmdline>
J2VwaWtfcHl0aG9uJywgJy1waCcsICc3LjAnLCAnLXRuJywgJzgnLCAnLW1hJywgJzIwMCcsICctbWV0YWxfYmluZGluZycsICctaW1hZScsICc8aW5maWxlLm1hZT4nLCAnLW9tYWUnLCAnPG91dGZpbGUubWFlPic=

> <r_lp_tautomer_probability>
1

> <r_epik_Ionization_Penalty>
0.000331107

> <r_epik_Ionization_Penalty_Charging>
0

> <r_epik_Ionization_Penalty_Neutral>
0.000331107

> <r_epik_State_Penalty>
-0

> <r_epik_Charging_Adjusted_Penalty>
0

> <i_epik_Tot_Q>
0

> <i_epik_Tot_abs_Q>
0

> <r_epik_Metal_State_Penalty>
-0

> <b_epik_Metal_Only>
0

> <s_lp_Force_Field>
OPLS_2005

> <r_lp_Energy>
-1.48662

> <b_lp_Chiralities_Consistent>
1

> <s_lp_Variant>
AV-unprocessed.smi:2330-3

> <Gold.Version>
5.8.1

> <Gold.Id.Protein>
6NUR|6NUR_protein|mol2

> <Gold.PLP.Fitness>
39.3166

> <Gold.PLP.PLP>
-31.8026

> <Gold.PLP.part.hbond>
-2.0000

> <Gold.PLP.part.metal>
0.0000

> <Gold.PLP.part.buried>
-3.4389

> <Gold.PLP.part.nonpolar>
-28.0223

> <Gold.PLP.part.repulsive>
2.3084

> <Gold.PLP.ligand.clash>
0.0000

> <Gold.PLP.ligand.torsion>
0.7409

> <Gold.PLP.Chemscore.Hbond>
1.9600

> <Gold.PLP.Chemscore.CHOScore>
1.0000

> <Gold.PLP.Chemscore.Metal>
0.0000

> <Gold.Chemscore.Hbonds>
donor molecule, donor type, donor heavy atom, donor atom, acceptor molecule, acceptor atom, score
      L1  H     6    29       P1  7948  0.94
      L1  H     9    30       P1  7948  1.00
      L1  C    15    37       P1  7949  0.84

> <Gold.PLP.Chemscore.Internal.Correction>
0.1158

> <Gold.Rescore>
     Score         DG    S(hbond)    S(metal)    S(lipo)     H(rot)  DE(clash)    DE(int)     intcor
     15.59     -17.89       1.90        0.00      83.61       1.45       0.02       2.28       ----

> <Gold.Chemscore.Fitness>
15.5932

> <Gold.Chemscore.DG>
-17.8950

> <Gold.Chemscore.ZeroCoef>
-5.4800

> <Gold.Chemscore.Hbond>
1.9023

> <Gold.Chemscore.Metal>
0.0000

> <Gold.Chemscore.Lipo>
83.6101

> <Gold.Chemscore.Internal_Hbond>
0.0000

> <Gold.Chemscore.DEClash>
0.0204

> <Gold.Chemscore.DEInternal>
2.2815

> <Gold.Chemscore.Rot>
1.4536

> <Gold.Chemscore.Internal.Correction>
   9.000000E+99

> <Gold.Chemscore.Hbonds>
donor molecule, donor type, donor heavy atom, donor atom, acceptor molecule, acceptor atom, score
      L1  H     6    29       P1  7948  0.91
      L1  H     9    30       P1  7948  0.95

> <Gold.Chemscore.Hbond.Weighted>
-6.3538

> <Gold.Chemscore.Metal.Weighted>
-0.0000

> <Gold.Chemscore.Lipo.Weighted>
-9.7824

> <Gold.Chemscore.Internal_Hbond.Weighted>
0.0000

> <Gold.Chemscore.DEClash.Weighted>
0.0204

> <Gold.Chemscore.DEInternal.Weighted>
2.2815

> <Gold.Chemscore.Rot.Weighted>
3.7212

> <Gold.Chemscore.Internal.Correction.Weighted>
   9.000000E+99

> <Gold.Protein.RotatedTorsions>
[ 6907 6896 6895 6894 ] final   62.76 input  -60.11 | X-H torsion
[ 7974 7965 7964 7962 ] final  -28.23 input  175.53 | X-H torsion
[ 8008 7997 7996 7995 ] final  112.06 input   59.86 | X-H torsion
[ 10167 10162 10161 10158 ] final   13.78 input  -65.29 | X-H torsion
[ 10718 10713 10712 10709 ] final  149.13 input   66.30 | X-H torsion
[ 10763 10752 10751 10750 ] final  -40.46 input  -60.55 | X-H torsion
[ 11005 11000 10999 10996 ] final  -75.86 input  -57.11 | X-H torsion

> <Gold.Protein.ActiveResidues>
 VAL166  LYS551  ARG553  GLY616  TRP617  ASP618  TYR619  PRO620  LYS621  CYS622 
 ASP623  PHE694  ASN695  SER759  ASP760  ASP761  ALA762  ILE779  LEU786  VAL792 
 PHE793  MET794  SER795  GLU796  ALA797  LYS798  CYS799  TRP800  GLU811  SER814 

> <Gold.Protein.RotatedAtoms>
  152.4198  134.5975  159.9990 H   0  0  0  0  0  0  0  0  0  0  0  0  # atno 6907 bound_to 6896
  151.6128  133.3340  159.3079 H   0  0  0  0  0  0  0  0  0  0  0  0  # atno 6908 bound_to 6896
  150.8087  134.7266  159.6733 H   0  0  0  0  0  0  0  0  0  0  0  0  # atno 6909 bound_to 6896
  146.1303  140.5255  142.8696 H   0  0  0  0  0  0  0  0  0  0  0  0  # atno 7974 bound_to 7965
  156.2167  140.3007  155.9855 H   0  0  0  0  0  0  0  0  0  0  0  0  # atno 8008 bound_to 7997
  155.2588  140.0429  157.3012 H   0  0  0  0  0  0  0  0  0  0  0  0  # atno 8009 bound_to 7997
  154.5778  140.2366  155.8106 H   0  0  0  0  0  0  0  0  0  0  0  0  # atno 8010 bound_to 7997
  140.5980  143.8663  150.6936 H   0  0  0  0  0  0  0  0  0  0  0  0  # atno 10167 bound_to 10162
  157.3000  131.0869  151.1397 H   0  0  0  0  0  0  0  0  0  0  0  0  # atno 10718 bound_to 10713
  153.9464  135.6755  153.4744 H   0  0  0  0  0  0  0  0  0  0  0  0  # atno 10763 bound_to 10752
  153.0906  135.4876  154.8679 H   0  0  0  0  0  0  0  0  0  0  0  0  # atno 10764 bound_to 10752
  154.7349  135.3147  154.8787 H   0  0  0  0  0  0  0  0  0  0  0  0  # atno 10765 bound_to 10752
  141.1649  133.6962  156.7581 H   0  0  0  0  0  0  0  0  0  0  0  0  # atno 11005 bound_to 11000
  144.7683  140.5581  143.6687 LP  0  0  0  0  0  0  0  0  0  0  0  0  # atno 17320 bound_to 7965
  145.5276  139.1475  143.3517 LP  0  0  0  0  0  0  0  0  0  0  0  0  # atno 17321 bound_to 7965
  140.2202  143.3815  152.1649 LP  0  0  0  0  0  0  0  0  0  0  0  0  # atno 17342 bound_to 10162
  139.5271  144.7115  151.5189 LP  0  0  0  0  0  0  0  0  0  0  0  0  # atno 17343 bound_to 10162
  157.2760  130.6727  149.6042 LP  0  0  0  0  0  0  0  0  0  0  0  0  # atno 17370 bound_to 10713
  155.9671  130.4464  150.5540 LP  0  0  0  0  0  0  0  0  0  0  0  0  # atno 17371 bound_to 10713
  140.2554  134.8508  157.3708 LP  0  0  0  0  0  0  0  0  0  0  0  0  # atno 17394 bound_to 11000
  140.1662  134.4666  155.7861 LP  0  0  0  0  0  0  0  0  0  0  0  0  # atno 17395 bound_to 11000

$$$$
