AV-unprocessed.smi:2386|AV-procd|sdf|9468|dock3
  -GOLD-   2272013 93D 1   1.00000     0.00000
 Structure written by MMmdl.
 42 43  0  0  0  0  0  0  0  0  1 V2000
  145.6126  132.1006  149.2372 C   0  0  0  0  0  0  0  0  0  0  0  0
  145.0694  133.0501  150.2842 C   0  0  0  0  0  0  0  0  0  0  0  0
  143.7771  132.8780  150.8170 C   0  0  0  0  0  0  0  0  0  0  0  0
  143.3337  133.7930  151.7884 C   0  0  0  0  0  0  0  0  0  0  0  0
  144.1949  134.8343  152.1851 C   0  0  0  0  0  0  0  0  0  0  0  0
  145.4784  134.9347  151.6026 C   0  0  0  0  0  0  0  0  0  0  0  0
  146.2705  136.0162  152.0724 N   0  0  0  0  0  0  0  0  0  0  0  0
  145.8562  137.1823  152.5986 C   0  0  0  0  0  0  0  0  0  0  0  0
  144.6816  137.5063  152.7778 O   0  0  0  0  0  0  0  0  0  0  0  0
  146.8949  137.9720  152.9083 N   0  0  0  0  0  0  0  0  0  0  0  0
  146.7859  139.3118  153.4745 C   0  0  0  0  0  0  0  0  0  0  0  0
  148.1685  139.9511  153.6803 C   0  0  0  0  0  0  0  0  0  0  0  0
  149.2552  138.9029  153.9727 C   0  0  0  0  0  0  0  0  0  0  0  0
  150.5278  139.4451  154.4467 N   0  0  0  0  0  0  0  0  0  0  0  0
  150.4041  140.1314  155.7314 C   0  0  0  0  0  0  0  0  0  0  0  0
  151.7583  140.6641  156.2319 C   0  0  0  0  0  0  0  0  0  0  0  0
  152.6949  139.5950  156.3137 O   0  0  0  0  0  0  0  0  0  0  0  0
  152.8797  138.9326  155.0676 C   0  0  0  0  0  0  0  0  0  0  0  0
  151.5292  138.3910  154.5683 C   0  0  0  0  0  0  0  0  0  0  0  0
  145.8963  134.0473  150.6657 N   0  0  0  0  0  0  0  0  0  0  0  0
  144.8168  131.4927  148.8063 H   0  0  0  0  0  0  0  0  0  0  0  0
  146.3511  131.4331  149.6815 H   0  0  0  0  0  0  0  0  0  0  0  0
  146.0914  132.6537  148.4285 H   0  0  0  0  0  0  0  0  0  0  0  0
  143.1411  132.0677  150.4924 H   0  0  0  0  0  0  0  0  0  0  0  0
  142.3497  133.6983  152.2232 H   0  0  0  0  0  0  0  0  0  0  0  0
  143.8694  135.5452  152.9305 H   0  0  0  0  0  0  0  0  0  0  0  0
  147.2681  135.8922  151.9860 H   0  0  0  0  0  0  0  0  0  0  0  0
  147.8269  137.6274  152.7309 H   0  0  0  0  0  0  0  0  0  0  0  0
  146.1649  139.9408  152.8341 H   0  0  0  0  0  0  0  0  0  0  0  0
  146.2666  139.2339  154.4299 H   0  0  0  0  0  0  0  0  0  0  0  0
  148.4413  140.5190  152.7899 H   0  0  0  0  0  0  0  0  0  0  0  0
  148.1111  140.6665  154.5005 H   0  0  0  0  0  0  0  0  0  0  0  0
  148.8743  138.1737  154.6894 H   0  0  0  0  0  0  0  0  0  0  0  0
  149.4358  138.3492  153.0504 H   0  0  0  0  0  0  0  0  0  0  0  0
  149.7126  140.9691  155.6488 H   0  0  0  0  0  0  0  0  0  0  0  0
  149.9867  139.4518  156.4757 H   0  0  0  0  0  0  0  0  0  0  0  0
  152.1385  141.4392  155.5646 H   0  0  0  0  0  0  0  0  0  0  0  0
  151.6467  141.1164  157.2175 H   0  0  0  0  0  0  0  0  0  0  0  0
  153.3124  139.6218  154.3410 H   0  0  0  0  0  0  0  0  0  0  0  0
  153.5907  138.1170  155.1991 H   0  0  0  0  0  0  0  0  0  0  0  0
  151.1745  137.6218  155.2559 H   0  0  0  0  0  0  0  0  0  0  0  0
  151.6725  137.9037  153.6033 H   0  0  0  0  0  0  0  0  0  0  0  0
  1  2  1  0  0  0  0
  1 21  1  0  0  0  0
  1 22  1  0  0  0  0
  1 23  1  0  0  0  0
  2 20  1  0  0  0  0
  2  3  2  0  0  0  0
  3  4  1  0  0  0  0
  3 24  1  0  0  0  0
  4  5  2  0  0  0  0
  4 25  1  0  0  0  0
  5  6  1  0  0  0  0
  5 26  1  0  0  0  0
  6  7  1  0  0  0  0
  6 20  2  0  0  0  0
  7  8  1  0  0  0  0
  7 27  1  0  0  0  0
  8  9  2  0  0  0  0
  8 10  1  0  0  0  0
 10 11  1  0  0  0  0
 10 28  1  0  0  0  0
 11 12  1  0  0  0  0
 11 29  1  0  0  0  0
 11 30  1  0  0  0  0
 12 13  1  0  0  0  0
 12 31  1  0  0  0  0
 12 32  1  0  0  0  0
 13 14  1  0  0  0  0
 13 33  1  0  0  0  0
 13 34  1  0  0  0  0
 14 19  1  0  0  0  0
 14 15  1  0  0  0  0
 15 16  1  0  0  0  0
 15 35  1  0  0  0  0
 15 36  1  0  0  0  0
 16 17  1  0  0  0  0
 16 37  1  0  0  0  0
 16 38  1  0  0  0  0
 17 18  1  0  0  0  0
 18 19  1  0  0  0  0
 18 39  1  0  0  0  0
 18 40  1  0  0  0  0
 19 41  1  0  0  0  0
 19 42  1  0  0  0  0
M  END
> <s_m_source_file>
AV-unprocessed.smi

> <i_m_source_file_index>
2386

> <i_lp_mmshare_version>
43012

> <i_f3d_flags>
0

> <s_epik_input>
W0NIM11jMVtjSF1bY0hdW2NIXWMobjEpW05IXUMoPU8pW05IXVtDSDJdW0NIMl1bQ0gyXU4yW0NIMl1bQ0gyXU9bQ0gyXVtDSDJdMg==

> <s_epik_cmdline>
J2VwaWtfcHl0aG9uJywgJy1waCcsICc3LjAnLCAnLXRuJywgJzgnLCAnLW1hJywgJzIwMCcsICctbWV0YWxfYmluZGluZycsICctaW1hZScsICc8aW5maWxlLm1hZT4nLCAnLW9tYWUnLCAnPG91dGZpbGUubWFlPic=

> <r_epik_Ionization_Penalty>
0.594745

> <r_epik_Ionization_Penalty_Charging>
0

> <r_epik_Ionization_Penalty_Neutral>
0.594745

> <r_epik_State_Penalty>
0.608529

> <r_epik_Charging_Adjusted_Penalty>
0.608529

> <i_epik_Tot_Q>
0

> <i_epik_Tot_abs_Q>
0

> <r_epik_Metal_State_Penalty>
0.608525

> <b_epik_Metal_Only>
0

> <s_lp_Force_Field>
OPLS_2005

> <r_lp_Energy>
23.5162

> <b_lp_Chiralities_Consistent>
1

> <s_lp_Variant>
AV-unprocessed.smi:2386-2

> <Gold.Version>
5.8.1

> <Gold.Id.Protein>
6NUR|6NUR_protein|mol2

> <Gold.PLP.Fitness>
46.7825

> <Gold.PLP.PLP>
-35.9705

> <Gold.PLP.part.hbond>
-4.0000

> <Gold.PLP.part.metal>
0.0000

> <Gold.PLP.part.buried>
-2.3256

> <Gold.PLP.part.nonpolar>
-29.8741

> <Gold.PLP.part.repulsive>
0.6059

> <Gold.PLP.ligand.clash>
0.0000

> <Gold.PLP.ligand.torsion>
0.3703

> <Gold.PLP.Chemscore.Hbond>
3.8440

> <Gold.PLP.Chemscore.CHOScore>
0.0000

> <Gold.PLP.Chemscore.Metal>
0.0000

> <Gold.Chemscore.Hbonds>
donor molecule, donor type, donor heavy atom, donor atom, acceptor molecule, acceptor atom, score
      L1  H     7    27       P1  7948  1.00
      L1  H    10    28       P1  7948  0.94
      P1  H  7989  7998       L1    14  0.89
      P1  H  7997  8008       L1    17  0.95

> <Gold.PLP.Chemscore.Internal.Correction>
0.0206

> <Gold.Rescore>
     Score         DG    S(hbond)    S(metal)    S(lipo)     H(rot)  DE(clash)    DE(int)     intcor
     18.06     -20.01       2.54        0.00      88.52       1.69       0.18       1.77       ----

> <Gold.Chemscore.Fitness>
18.0596

> <Gold.Chemscore.DG>
-20.0074

> <Gold.Chemscore.ZeroCoef>
-5.4800

> <Gold.Chemscore.Hbond>
2.5433

> <Gold.Chemscore.Metal>
0.0000

> <Gold.Chemscore.Lipo>
88.5213

> <Gold.Chemscore.Internal_Hbond>
0.0000

> <Gold.Chemscore.DEClash>
0.1780

> <Gold.Chemscore.DEInternal>
1.7698

> <Gold.Chemscore.Rot>
1.6892

> <Gold.Chemscore.Internal.Correction>
   9.000000E+99

> <Gold.Chemscore.Hbonds>
donor molecule, donor type, donor heavy atom, donor atom, acceptor molecule, acceptor atom, score
      L1  H     7    27       P1  7948  1.00
      L1  H    10    28       P1  7948  0.89
      P1  H  7989  7998       L1    14  0.04
      P1  H  7997  8008       L1    17  0.19

> <Gold.Chemscore.Hbond.Weighted>
-8.4948

> <Gold.Chemscore.Metal.Weighted>
-0.0000

> <Gold.Chemscore.Lipo.Weighted>
-10.3570

> <Gold.Chemscore.Internal_Hbond.Weighted>
0.0000

> <Gold.Chemscore.DEClash.Weighted>
0.1780

> <Gold.Chemscore.DEInternal.Weighted>
1.7698

> <Gold.Chemscore.Rot.Weighted>
4.3243

> <Gold.Chemscore.Internal.Correction.Weighted>
   9.000000E+99

> <Gold.Protein.RotatedTorsions>
[ 6907 6896 6895 6894 ] final  112.48 input  -60.11 | X-H torsion
[ 7974 7965 7964 7962 ] final -113.90 input  175.53 | X-H torsion
[ 8008 7997 7996 7995 ] final  -62.19 input   59.86 | X-H torsion
[ 10167 10162 10161 10158 ] final   48.82 input  -65.29 | X-H torsion
[ 10718 10713 10712 10709 ] final   92.95 input   66.30 | X-H torsion
[ 10763 10752 10751 10750 ] final -150.31 input  -60.55 | X-H torsion
[ 11005 11000 10999 10996 ] final   50.64 input  -57.11 | X-H torsion

> <Gold.Protein.ActiveResidues>
 VAL166  LYS551  ARG553  GLY616  TRP617  ASP618  TYR619  PRO620  LYS621  CYS622 
 ASP623  PHE694  ASN695  SER759  ASP760  ASP761  ALA762  ILE779  LEU786  VAL792 
 PHE793  MET794  SER795  GLU796  ALA797  LYS798  CYS799  TRP800  GLU811  SER814 

> <Gold.Protein.RotatedAtoms>
  152.4914  133.8510  159.7201 H   0  0  0  0  0  0  0  0  0  0  0  0  # atno 6907 bound_to 6896
  150.9047  133.7064  159.2876 H   0  0  0  0  0  0  0  0  0  0  0  0  # atno 6908 bound_to 6896
  151.4493  135.1032  159.9745 H   0  0  0  0  0  0  0  0  0  0  0  0  # atno 6909 bound_to 6896
  145.1265  140.8700  143.3783 H   0  0  0  0  0  0  0  0  0  0  0  0  # atno 7974 bound_to 7965
  154.4487  140.1001  156.6548 H   0  0  0  0  0  0  0  0  0  0  0  0  # atno 8008 bound_to 7997
  155.5357  140.3482  155.4417 H   0  0  0  0  0  0  0  0  0  0  0  0  # atno 8009 bound_to 7997
  156.0632  140.1331  156.9905 H   0  0  0  0  0  0  0  0  0  0  0  0  # atno 8010 bound_to 7997
  140.2893  144.3065  150.6244 H   0  0  0  0  0  0  0  0  0  0  0  0  # atno 10167 bound_to 10162
  157.6957  131.0461  150.3959 H   0  0  0  0  0  0  0  0  0  0  0  0  # atno 10718 bound_to 10713
  154.8126  135.3287  154.7262 H   0  0  0  0  0  0  0  0  0  0  0  0  # atno 10763 bound_to 10752
  153.7909  135.6911  153.4876 H   0  0  0  0  0  0  0  0  0  0  0  0  # atno 10764 bound_to 10752
  153.1917  135.4548  155.0104 H   0  0  0  0  0  0  0  0  0  0  0  0  # atno 10765 bound_to 10752
  140.1000  134.5094  155.8771 H   0  0  0  0  0  0  0  0  0  0  0  0  # atno 11005 bound_to 11000
  145.0682  139.3052  143.5845 LP  0  0  0  0  0  0  0  0  0  0  0  0  # atno 17320 bound_to 7965
  146.3517  140.0148  142.8664 LP  0  0  0  0  0  0  0  0  0  0  0  0  # atno 17321 bound_to 7965
  140.5746  143.2177  151.7538 LP  0  0  0  0  0  0  0  0  0  0  0  0  # atno 17342 bound_to 10162
  139.4942  144.4168  152.0021 LP  0  0  0  0  0  0  0  0  0  0  0  0  # atno 17343 bound_to 10162
  156.4358  130.3981  149.6730 LP  0  0  0  0  0  0  0  0  0  0  0  0  # atno 17370 bound_to 10713
  156.3931  130.7637  151.2640 LP  0  0  0  0  0  0  0  0  0  0  0  0  # atno 17371 bound_to 10713
  141.2103  133.6693  156.6499 LP  0  0  0  0  0  0  0  0  0  0  0  0  # atno 17394 bound_to 11000
  140.3233  134.7990  157.4269 LP  0  0  0  0  0  0  0  0  0  0  0  0  # atno 17395 bound_to 11000

$$$$
