AV-unprocessed.smi:1586|AV-procd|sdf|6380|dock7
  -GOLD-   22720 7 13D 1   1.00000     0.00000
 Structure written by MMmdl.
 46 47  0  0  0  0  0  0  0  0  3 V2000
  145.5892  143.3628  154.1310 C   0  0  0  0  0  0  0  0  0  0  0  0
  145.9889  142.4939  155.3320 C   0  0  0  0  0  0  0  0  0  0  0  0
  147.4577  142.3149  155.4438 N   0  3  0  0  0  0  0  0  0  0  0  0
  147.9776  141.3073  154.4873 C   0  0  0  0  0  0  0  0  0  0  0  0
  149.5122  141.1927  154.6006 C   0  0  0  0  0  0  0  0  0  0  0  0
  149.9336  140.8139  155.9557 N   0  0  0  0  0  0  0  0  0  0  0  0
  149.5907  139.4330  156.3617 C   0  0  1  0  0  0  0  0  0  0  0  0
  150.2831  138.3946  155.4527 C   0  0  0  0  0  0  0  0  0  0  0  0
  149.9492  139.1507  157.8412 C   0  0  0  0  0  0  0  0  0  0  0  0
  149.3952  137.8826  158.3036 N   0  0  0  0  0  0  0  0  0  0  0  0
  149.9506  137.0867  159.2260 C   0  0  0  0  0  0  0  0  0  0  0  0
  151.0153  137.4127  159.7556 O   0  0  0  0  0  0  0  0  0  0  0  0
  149.2372  135.9651  159.4772 N   0  5  0  0  0  0  0  0  0  0  0  0
  148.2885  135.9650  160.4263 C   0  0  0  0  0  0  0  0  0  0  0  0
  147.6234  134.8194  160.9420 C   0  0  0  0  0  0  0  0  0  0  0  0
  146.7804  135.3433  161.8805 C   0  0  0  0  0  0  0  0  0  0  0  0
  145.7869  134.7269  162.8051 C   0  0  0  0  0  0  0  0  0  0  0  0
  146.9237  136.6946  161.9414 O   0  0  0  0  0  0  0  0  0  0  0  0
  147.8948  137.0839  161.0111 N   0  0  0  0  0  0  0  0  0  0  0  0
  149.4553  141.8704  156.8579 C   0  0  0  0  0  0  0  0  0  0  0  0
  147.9186  142.0057  156.8212 C   0  0  0  0  0  0  0  0  0  0  0  0
  144.5044  143.3937  154.0264 H   0  0  0  0  0  0  0  0  0  0  0  0
  145.9978  142.9651  153.2015 H   0  0  0  0  0  0  0  0  0  0  0  0
  145.9315  144.3918  154.2378 H   0  0  0  0  0  0  0  0  0  0  0  0
  145.5908  142.9111  156.2581 H   0  0  0  0  0  0  0  0  0  0  0  0
  145.5212  141.5164  155.2068 H   0  0  0  0  0  0  0  0  0  0  0  0
  147.4956  140.3432  154.6535 H   0  0  0  0  0  0  0  0  0  0  0  0
  147.7197  141.6113  153.4722 H   0  0  0  0  0  0  0  0  0  0  0  0
  149.9023  140.4996  153.8573 H   0  0  0  0  0  0  0  0  0  0  0  0
  149.9633  142.1551  154.3548 H   0  0  0  0  0  0  0  0  0  0  0  0
  148.5164  139.2836  156.2622 H   0  0  0  0  0  0  0  0  0  0  0  0
  150.1463  137.3852  155.8410 H   0  0  0  0  0  0  0  0  0  0  0  0
  151.3566  138.5742  155.3811 H   0  0  0  0  0  0  0  0  0  0  0  0
  149.8709  138.3905  154.4443 H   0  0  0  0  0  0  0  0  0  0  0  0
  151.0277  139.1640  157.9984 H   0  0  0  0  0  0  0  0  0  0  0  0
  149.5571  139.9522  158.4694 H   0  0  0  0  0  0  0  0  0  0  0  0
  148.5256  137.5825  157.8877 H   0  0  0  0  0  0  0  0  0  0  0  0
  147.7441  133.7832  160.6650 H   0  0  0  0  0  0  0  0  0  0  0  0
  146.2851  134.0875  163.5340 H   0  0  0  0  0  0  0  0  0  0  0  0
  145.0724  134.1174  162.2518 H   0  0  0  0  0  0  0  0  0  0  0  0
  145.2295  135.4894  163.3497 H   0  0  0  0  0  0  0  0  0  0  0  0
  149.8035  141.7087  157.8766 H   0  0  0  0  0  0  0  0  0  0  0  0
  149.9065  142.8158  156.5534 H   0  0  0  0  0  0  0  0  0  0  0  0
  147.6264  142.8084  157.4971 H   0  0  0  0  0  0  0  0  0  0  0  0
  147.4345  141.1002  157.1891 H   0  0  0  0  0  0  0  0  0  0  0  0
  147.8819  143.1938  155.1834 H   0  0  0  0  0  0  0  0  0  0  0  0
  1  2  1  0  0  0  0
  1 22  1  0  0  0  0
  1 23  1  0  0  0  0
  1 24  1  0  0  0  0
  2  3  1  0  0  0  0
  2 25  1  0  0  0  0
  2 26  1  0  0  0  0
  3 21  1  0  0  0  0
  3  4  1  0  0  0  0
  3 46  1  0  0  0  0
  4  5  1  0  0  0  0
  4 27  1  0  0  0  0
  4 28  1  0  0  0  0
  5  6  1  0  0  0  0
  5 29  1  0  0  0  0
  5 30  1  0  0  0  0
  6  7  1  0  0  0  0
  6 20  1  0  0  0  0
  7  8  1  0  0  0  0
  7  9  1  0  0  0  0
  7 31  1  0  0  0  0
  8 32  1  0  0  0  0
  8 33  1  0  0  0  0
  8 34  1  0  0  0  0
  9 10  1  0  0  0  0
  9 35  1  0  0  0  0
  9 36  1  0  0  0  0
 10 11  1  0  0  0  0
 10 37  1  0  0  0  0
 11 12  2  0  0  0  0
 11 13  1  0  0  0  0
 13 14  1  0  0  0  0
 14 19  2  0  0  0  0
 14 15  1  0  0  0  0
 15 16  2  0  0  0  0
 15 38  1  0  0  0  0
 16 17  1  0  0  0  0
 16 18  1  0  0  0  0
 17 39  1  0  0  0  0
 17 40  1  0  0  0  0
 17 41  1  0  0  0  0
 18 19  1  0  0  0  0
 20 21  1  0  0  0  0
 20 42  1  0  0  0  0
 20 43  1  0  0  0  0
 21 44  1  0  0  0  0
 21 45  1  0  0  0  0
M  CHG  1   3   1
M  CHG  1  13  -1
M  END
> <s_m_source_file>
AV-unprocessed.smi

> <i_m_source_file_index>
1586

> <i_lp_mmshare_version>
43012

> <i_f3d_flags>
0

> <s_epik_input>
W0NIM11bQ0gyXU4xW0NIMl1bQ0gyXU4oW0NIMl1bQ0gyXTEpW0NASF0oW0NIM10pW0NIMl1bTkhdQyg9TylbTkhdYzJbY0hdYyhbQ0gzXSlvbjI=

> <s_epik_cmdline>
J2VwaWtfcHl0aG9uJywgJy1waCcsICc3LjAnLCAnLXRuJywgJzgnLCAnLW1hJywgJzIwMCcsICctbWV0YWxfYmluZGluZycsICctaW1hZScsICc8aW5maWxlLm1hZT4nLCAnLW9tYWUnLCAnPG91dGZpbGUubWFlPic=

> <r_epik_Ionization_Penalty>
6.66134

> <r_epik_Ionization_Penalty_Charging>
6.66063

> <r_epik_Ionization_Penalty_Neutral>
0.000714131

> <r_epik_State_Penalty>
6.77843

> <r_epik_Charging_Adjusted_Penalty>
13.4391

> <i_epik_Tot_Q>
0

> <i_epik_Tot_abs_Q>
2

> <r_epik_Metal_State_Penalty>
2.70494

> <b_epik_Metal_Only>
1

> <s_lp_Force_Field>
OPLS_2005

> <r_lp_Energy>
15.0096

> <b_lp_Chiralities_Consistent>
1

> <s_lp_Variant>
AV-unprocessed.smi:1586-8

> <Gold.Version>
5.8.1

> <Gold.Id.Protein>
6NUR|6NUR_protein|mol2

> <Gold.PLP.Fitness>
46.5309

> <Gold.PLP.PLP>
-32.3114

> <Gold.PLP.part.hbond>
-4.5252

> <Gold.PLP.part.metal>
0.0000

> <Gold.PLP.part.buried>
-3.0709

> <Gold.PLP.part.nonpolar>
-24.7723

> <Gold.PLP.part.repulsive>
0.2641

> <Gold.PLP.ligand.clash>
0.0000

> <Gold.PLP.ligand.torsion>
1.2565

> <Gold.PLP.Chemscore.Hbond>
5.5329

> <Gold.PLP.Chemscore.CHOScore>
0.0000

> <Gold.PLP.Chemscore.Metal>
0.0000

> <Gold.Chemscore.Hbonds>
donor molecule, donor type, donor heavy atom, donor atom, acceptor molecule, acceptor atom, score
      L1  H     3    46       P1  8028  2.00
      P1  H  6896  6909       L1    13  2.00
      P1  H  6931  6943       L1    19  0.98
      P1  H  6934  6947       L1    19  0.48

> <Gold.PLP.Chemscore.Internal.Correction>
0.1337

> <Gold.Rescore>
     Score         DG    S(hbond)    S(metal)    S(lipo)     H(rot)  DE(clash)    DE(int)     intcor
     14.54     -15.89       2.12        0.00      66.33       1.73       0.12       1.23       ----

> <Gold.Chemscore.Fitness>
14.5413

> <Gold.Chemscore.DG>
-15.8910

> <Gold.Chemscore.ZeroCoef>
-5.4800

> <Gold.Chemscore.Hbond>
2.1155

> <Gold.Chemscore.Metal>
0.0000

> <Gold.Chemscore.Lipo>
66.3350

> <Gold.Chemscore.Internal_Hbond>
0.0000

> <Gold.Chemscore.DEClash>
0.1208

> <Gold.Chemscore.DEInternal>
1.2289

> <Gold.Chemscore.Rot>
1.7250

> <Gold.Chemscore.Internal.Correction>
   9.000000E+99

> <Gold.Chemscore.Hbonds>
donor molecule, donor type, donor heavy atom, donor atom, acceptor molecule, acceptor atom, score
      L1  H     3    46       P1  8028  0.67
      P1  H  6896  6909       L1    13  0.32
      P1  H  6931  6943       L1    19  0.56
      P1  H  6934  6947       L1    19  0.04

> <Gold.Chemscore.Hbond.Weighted>
-7.0659

> <Gold.Chemscore.Metal.Weighted>
-0.0000

> <Gold.Chemscore.Lipo.Weighted>
-7.7612

> <Gold.Chemscore.Internal_Hbond.Weighted>
0.0000

> <Gold.Chemscore.DEClash.Weighted>
0.1208

> <Gold.Chemscore.DEInternal.Weighted>
1.2289

> <Gold.Chemscore.Rot.Weighted>
4.4161

> <Gold.Chemscore.Internal.Correction.Weighted>
   9.000000E+99

> <Gold.Protein.RotatedTorsions>
[ 6907 6896 6895 6894 ] final   49.28 input  -60.11 | X-H torsion
[ 7974 7965 7964 7962 ] final -159.67 input  175.53 | X-H torsion
[ 8008 7997 7996 7995 ] final    8.05 input   59.86 | X-H torsion
[ 10167 10162 10161 10158 ] final   42.12 input  -65.29 | X-H torsion
[ 10718 10713 10712 10709 ] final  152.21 input   66.30 | X-H torsion
[ 10763 10752 10751 10750 ] final   91.05 input  -60.55 | X-H torsion
[ 11005 11000 10999 10996 ] final -123.56 input  -57.11 | X-H torsion

> <Gold.Protein.ActiveResidues>
 VAL166  LYS551  ARG553  GLY616  TRP617  ASP618  TYR619  PRO620  LYS621  CYS622 
 ASP623  PHE694  ASN695  SER759  ASP760  ASP761  ALA762  ILE779  LEU786  VAL792 
 PHE793  MET794  SER795  GLU796  ALA797  LYS798  CYS799  TRP800  GLU811  SER814 

> <Gold.Protein.RotatedAtoms>
  152.2890  134.7743  160.0381 H   0  0  0  0  0  0  0  0  0  0  0  0  # atno 6907 bound_to 6896
  151.8296  133.3401  159.3617 H   0  0  0  0  0  0  0  0  0  0  0  0  # atno 6908 bound_to 6896
  150.7222  134.5424  159.5798 H   0  0  0  0  0  0  0  0  0  0  0  0  # atno 6909 bound_to 6896
  144.7456  140.3651  143.6088 H   0  0  0  0  0  0  0  0  0  0  0  0  # atno 7974 bound_to 7965
  154.7618  140.2786  155.6208 H   0  0  0  0  0  0  0  0  0  0  0  0  # atno 8008 bound_to 7997
  156.2917  140.2658  156.2325 H   0  0  0  0  0  0  0  0  0  0  0  0  # atno 8009 bound_to 7997
  155.0009  140.0373  157.2349 H   0  0  0  0  0  0  0  0  0  0  0  0  # atno 8010 bound_to 7997
  140.3576  144.2270  150.6140 H   0  0  0  0  0  0  0  0  0  0  0  0  # atno 10167 bound_to 10162
  157.2607  131.0797  151.1667 H   0  0  0  0  0  0  0  0  0  0  0  0  # atno 10718 bound_to 10713
  153.2041  135.4412  155.0301 H   0  0  0  0  0  0  0  0  0  0  0  0  # atno 10763 bound_to 10752
  154.8163  135.3317  154.7168 H   0  0  0  0  0  0  0  0  0  0  0  0  # atno 10764 bound_to 10752
  153.7611  135.6991  153.4981 H   0  0  0  0  0  0  0  0  0  0  0  0  # atno 10765 bound_to 10752
  140.9909  134.0540  157.3655 H   0  0  0  0  0  0  0  0  0  0  0  0  # atno 11005 bound_to 11000
  145.7136  139.1691  143.2524 LP  0  0  0  0  0  0  0  0  0  0  0  0  # atno 17320 bound_to 7965
  146.1329  140.7162  142.9404 LP  0  0  0  0  0  0  0  0  0  0  0  0  # atno 17321 bound_to 7965
  140.5159  143.2278  151.8464 LP  0  0  0  0  0  0  0  0  0  0  0  0  # atno 17342 bound_to 10162
  139.4818  144.4895  151.9203 LP  0  0  0  0  0  0  0  0  0  0  0  0  # atno 17343 bound_to 10162
  157.3178  130.6922  149.6252 LP  0  0  0  0  0  0  0  0  0  0  0  0  # atno 17370 bound_to 10713
  155.9664  130.4344  150.5048 LP  0  0  0  0  0  0  0  0  0  0  0  0  # atno 17371 bound_to 10713
  139.8992  135.0157  156.7184 LP  0  0  0  0  0  0  0  0  0  0  0  0  # atno 17394 bound_to 11000
  140.7041  133.9281  155.8042 LP  0  0  0  0  0  0  0  0  0  0  0  0  # atno 17395 bound_to 11000

$$$$
