AV-unprocessed.smi:2844|AV-procd|sdf|10939|dock5
  -GOLD-   2272015383D 1   1.00000     0.00000
 Structure written by MMmdl.
 38 40  0  0  0  0  0  0  0  0  1 V2000
  153.0927  142.9133  161.7515 C   0  0  0  0  0  0  0  0  0  0  0  0
  152.5431  142.5283  160.3892 C   0  0  0  0  0  0  0  0  0  0  0  0
  152.9692  141.3200  159.7933 C   0  0  0  0  0  0  0  0  0  0  0  0
  152.4872  140.9287  158.5251 C   0  0  0  0  0  0  0  0  0  0  0  0
  152.7672  139.8064  157.7647 N   0  0  0  0  0  0  0  0  0  0  0  0
  152.0168  140.0191  156.6873 C   0  0  0  0  0  0  0  0  0  0  0  0
  151.2833  141.1486  156.6597 N   0  0  0  0  0  0  0  0  0  0  0  0
  150.4013  141.5961  155.5969 C   0  0  0  0  0  0  0  0  0  0  0  0
  149.5165  140.4627  155.0449 C   0  0  2  0  0  0  0  0  0  0  0  0
  150.1345  139.8909  153.9069 O   0  0  0  0  0  0  0  0  0  0  0  0
  148.1067  140.9653  154.6785 C   0  0  0  0  0  0  0  0  0  0  0  0
  147.2319  139.8975  154.2268 N   0  0  0  0  0  0  0  0  0  0  0  0
  147.2975  139.1860  153.0444 C   0  0  0  0  0  0  0  0  0  0  0  0
  146.2640  138.3013  153.0957 C   0  0  0  0  0  0  0  0  0  0  0  0
  145.8395  137.1385  151.8951 Cl  0  0  0  0  0  0  0  0  0  0  0  0
  145.6062  138.5244  154.3321 C   0  0  0  0  0  0  0  0  0  0  0  0
  146.1997  139.4946  155.0119 N   0  0  0  0  0  0  0  0  0  0  0  0
  151.5602  141.7865  157.8637 C   0  0  0  0  0  0  0  0  0  0  0  0
  151.1250  142.9889  158.4482 C   0  0  0  0  0  0  0  0  0  0  0  0
  151.6172  143.3654  159.7156 C   0  0  0  0  0  0  0  0  0  0  0  0
  151.1459  144.6683  160.3370 C   0  0  0  0  0  0  0  0  0  0  0  0
  153.7730  142.1530  162.1361 H   0  0  0  0  0  0  0  0  0  0  0  0
  152.2831  143.0318  162.4720 H   0  0  0  0  0  0  0  0  0  0  0  0
  153.6423  143.8528  161.6889 H   0  0  0  0  0  0  0  0  0  0  0  0
  153.6743  140.6822  160.3060 H   0  0  0  0  0  0  0  0  0  0  0  0
  151.9982  139.3130  155.8699 H   0  0  0  0  0  0  0  0  0  0  0  0
  149.7799  142.4022  155.9887 H   0  0  0  0  0  0  0  0  0  0  0  0
  151.0073  142.0304  154.8002 H   0  0  0  0  0  0  0  0  0  0  0  0
  149.4274  139.6822  155.8020 H   0  0  0  0  0  0  0  0  0  0  0  0
  149.6014  140.0782  153.1491 H   0  0  0  0  0  0  0  0  0  0  0  0
  147.6408  141.4354  155.5454 H   0  0  0  0  0  0  0  0  0  0  0  0
  148.1621  141.7317  153.9036 H   0  0  0  0  0  0  0  0  0  0  0  0
  148.0521  139.3674  152.2934 H   0  0  0  0  0  0  0  0  0  0  0  0
  144.7417  138.0290  154.7492 H   0  0  0  0  0  0  0  0  0  0  0  0
  150.4203  143.6169  157.9234 H   0  0  0  0  0  0  0  0  0  0  0  0
  150.4520  145.1939  159.6806 H   0  0  0  0  0  0  0  0  0  0  0  0
  151.9918  145.3292  160.5270 H   0  0  0  0  0  0  0  0  0  0  0  0
  150.6348  144.4787  161.2810 H   0  0  0  0  0  0  0  0  0  0  0  0
  1  2  1  0  0  0  0
  1 22  1  0  0  0  0
  1 23  1  0  0  0  0
  1 24  1  0  0  0  0
  2 20  1  0  0  0  0
  2  3  2  0  0  0  0
  3  4  1  0  0  0  0
  3 25  1  0  0  0  0
  4 18  2  0  0  0  0
  4  5  1  0  0  0  0
  5  6  2  0  0  0  0
  6  7  1  0  0  0  0
  6 26  1  0  0  0  0
  7  8  1  0  0  0  0
  7 18  1  0  0  0  0
  8  9  1  0  0  0  0
  8 27  1  0  0  0  0
  8 28  1  0  0  0  0
  9 10  1  0  0  0  0
  9 11  1  0  0  0  0
  9 29  1  0  0  0  0
 10 30  1  0  0  0  0
 11 12  1  0  0  0  0
 11 31  1  0  0  0  0
 11 32  1  0  0  0  0
 12 17  1  0  0  0  0
 12 13  1  0  0  0  0
 13 14  2  0  0  0  0
 13 33  1  0  0  0  0
 14 15  1  0  0  0  0
 14 16  1  0  0  0  0
 16 17  2  0  0  0  0
 16 34  1  0  0  0  0
 18 19  1  0  0  0  0
 19 20  2  0  0  0  0
 19 35  1  0  0  0  0
 20 21  1  0  0  0  0
 21 36  1  0  0  0  0
 21 37  1  0  0  0  0
 21 38  1  0  0  0  0
M  END
> <s_m_source_file>
AV-unprocessed.smi

> <i_m_source_file_index>
2844

> <i_lp_mmshare_version>
43012

> <i_f3d_flags>
0

> <s_epik_input>
W0NIM11jKFtjSF0xKWMoW0NIM10pW2NIXWMoYzEyKW4oW2NIXW4yKVtDSDJdW0NASF0oW09IXSlbQ0gyXW4zW2NIXWMoQ2wpW2NIXW4z

> <s_epik_cmdline>
J2VwaWtfcHl0aG9uJywgJy1waCcsICc3LjAnLCAnLXRuJywgJzgnLCAnLW1hJywgJzIwMCcsICctbWV0YWxfYmluZGluZycsICctaW1hZScsICc8aW5maWxlLm1hZT4nLCAnLW9tYWUnLCAnPG91dGZpbGUubWFlPic=

> <r_lp_tautomer_probability>
1

> <r_epik_Ionization_Penalty>
0.1021

> <r_epik_Ionization_Penalty_Charging>
0

> <r_epik_Ionization_Penalty_Neutral>
0.1021

> <r_epik_State_Penalty>
0.0920694

> <r_epik_Charging_Adjusted_Penalty>
0.0920694

> <i_epik_Tot_Q>
0

> <i_epik_Tot_abs_Q>
0

> <r_epik_Metal_State_Penalty>
0.0784292

> <b_epik_Metal_Only>
0

> <s_lp_Force_Field>
OPLS_2005

> <r_lp_Energy>
10.8301

> <b_lp_Chiralities_Consistent>
1

> <s_lp_Variant>
AV-unprocessed.smi:2844-1

> <Gold.Version>
5.8.1

> <Gold.Id.Protein>
6NUR|6NUR_protein|mol2

> <Gold.PLP.Fitness>
52.3798

> <Gold.PLP.PLP>
-42.7297

> <Gold.PLP.part.hbond>
-3.0000

> <Gold.PLP.part.metal>
0.0000

> <Gold.PLP.part.buried>
-3.8493

> <Gold.PLP.part.nonpolar>
-35.0928

> <Gold.PLP.part.repulsive>
0.0681

> <Gold.PLP.ligand.clash>
0.0000

> <Gold.PLP.ligand.torsion>
0.7978

> <Gold.PLP.Chemscore.Hbond>
2.7448

> <Gold.PLP.Chemscore.CHOScore>
1.0000

> <Gold.PLP.Chemscore.Metal>
0.0000

> <Gold.Chemscore.Hbonds>
donor molecule, donor type, donor heavy atom, donor atom, acceptor molecule, acceptor atom, score
      L1  H    10    30       P1  7957  0.85
      P1  H  7989  7998       L1    10  0.88
      P1  H  7997  8009       L1     5  1.00
      L1  C    13    33       P1  7957  0.97

> <Gold.PLP.Chemscore.Internal.Correction>
0.0112

> <Gold.Rescore>
     Score         DG    S(hbond)    S(metal)    S(lipo)     H(rot)  DE(clash)    DE(int)     intcor
     18.43     -19.45       1.67        0.00     118.96       2.15       0.19       0.83       ----

> <Gold.Chemscore.Fitness>
18.4325

> <Gold.Chemscore.DG>
-19.4544

> <Gold.Chemscore.ZeroCoef>
-5.4800

> <Gold.Chemscore.Hbond>
1.6675

> <Gold.Chemscore.Metal>
0.0000

> <Gold.Chemscore.Lipo>
118.9554

> <Gold.Chemscore.Internal_Hbond>
0.0000

> <Gold.Chemscore.DEClash>
0.1884

> <Gold.Chemscore.DEInternal>
0.8336

> <Gold.Chemscore.Rot>
2.1534

> <Gold.Chemscore.Internal.Correction>
   9.000000E+99

> <Gold.Chemscore.Hbonds>
donor molecule, donor type, donor heavy atom, donor atom, acceptor molecule, acceptor atom, score
      L1  H    10    30       P1  7957  0.81
      P1  H  7989  7998       L1    10  0.14
      P1  H  7997  8009       L1     5  0.20

> <Gold.Chemscore.Hbond.Weighted>
-5.5694

> <Gold.Chemscore.Metal.Weighted>
-0.0000

> <Gold.Chemscore.Lipo.Weighted>
-13.9178

> <Gold.Chemscore.Internal_Hbond.Weighted>
0.0000

> <Gold.Chemscore.DEClash.Weighted>
0.1884

> <Gold.Chemscore.DEInternal.Weighted>
0.8336

> <Gold.Chemscore.Rot.Weighted>
5.5127

> <Gold.Chemscore.Internal.Correction.Weighted>
   9.000000E+99

> <Gold.Protein.RotatedTorsions>
[ 6907 6896 6895 6894 ] final  -52.07 input  -60.11 | X-H torsion
[ 7974 7965 7964 7962 ] final  101.74 input  175.53 | X-H torsion
[ 8008 7997 7996 7995 ] final  153.25 input   59.86 | X-H torsion
[ 10167 10162 10161 10158 ] final   54.35 input  -65.29 | X-H torsion
[ 10718 10713 10712 10709 ] final  -25.89 input   66.30 | X-H torsion
[ 10763 10752 10751 10750 ] final  -51.40 input  -60.55 | X-H torsion
[ 11005 11000 10999 10996 ] final  140.24 input  -57.11 | X-H torsion

> <Gold.Protein.ActiveResidues>
 VAL166  LYS551  ARG553  GLY616  TRP617  ASP618  TYR619  PRO620  LYS621  CYS622 
 ASP623  PHE694  ASN695  SER759  ASP760  ASP761  ALA762  ILE779  LEU786  VAL792 
 PHE793  MET794  SER795  GLU796  ALA797  LYS798  CYS799  TRP800  GLU811  SER814 

> <Gold.Protein.RotatedAtoms>
  150.8552  134.7888  159.7039 H   0  0  0  0  0  0  0  0  0  0  0  0  # atno 6907 bound_to 6896
  152.4605  134.5191  159.9787 H   0  0  0  0  0  0  0  0  0  0  0  0  # atno 6908 bound_to 6896
  151.5305  133.3412  159.2953 H   0  0  0  0  0  0  0  0  0  0  0  0  # atno 6909 bound_to 6896
  145.3683  139.2403  143.3469 H   0  0  0  0  0  0  0  0  0  0  0  0  # atno 7974 bound_to 7965
  156.2591  140.1999  156.6460 H   0  0  0  0  0  0  0  0  0  0  0  0  # atno 8008 bound_to 7997
  154.6573  140.0565  157.0047 H   0  0  0  0  0  0  0  0  0  0  0  0  # atno 8009 bound_to 7997
  155.1329  140.3235  155.4473 H   0  0  0  0  0  0  0  0  0  0  0  0  # atno 8010 bound_to 7997
  140.2311  144.3686  150.6414 H   0  0  0  0  0  0  0  0  0  0  0  0  # atno 10167 bound_to 10162
  156.4583  130.4498  149.6945 H   0  0  0  0  0  0  0  0  0  0  0  0  # atno 10718 bound_to 10713
  154.1260  135.6527  153.4912 H   0  0  0  0  0  0  0  0  0  0  0  0  # atno 10763 bound_to 10752
  153.0210  135.5281  154.7049 H   0  0  0  0  0  0  0  0  0  0  0  0  # atno 10764 bound_to 10752
  154.6270  135.2971  155.0230 H   0  0  0  0  0  0  0  0  0  0  0  0  # atno 10765 bound_to 10752
  140.0313  134.9350  157.0667 H   0  0  0  0  0  0  0  0  0  0  0  0  # atno 11005 bound_to 11000
  146.2897  140.4329  142.8744 LP  0  0  0  0  0  0  0  0  0  0  0  0  # atno 17320 bound_to 7965
  144.8595  140.7119  143.6116 LP  0  0  0  0  0  0  0  0  0  0  0  0  # atno 17321 bound_to 7965
  140.6184  143.2174  151.6744 LP  0  0  0  0  0  0  0  0  0  0  0  0  # atno 17342 bound_to 10162
  139.5110  144.3525  152.0639 LP  0  0  0  0  0  0  0  0  0  0  0  0  # atno 17343 bound_to 10162
  156.3743  130.7546  151.2533 LP  0  0  0  0  0  0  0  0  0  0  0  0  # atno 17370 bound_to 10713
  157.7499  131.0314  150.4180 LP  0  0  0  0  0  0  0  0  0  0  0  0  # atno 17371 bound_to 10713
  140.4221  134.1869  155.7165 LP  0  0  0  0  0  0  0  0  0  0  0  0  # atno 17394 bound_to 11000
  141.1832  133.8369  157.1182 LP  0  0  0  0  0  0  0  0  0  0  0  0  # atno 17395 bound_to 11000

$$$$
