AV-unprocessed.smi:1244|AV-procd|sdf|5236|dock1
  -GOLD-   22720 4343D 1   1.00000     0.00000
 Structure written by MMmdl.
 55 57  0  0  0  0  0  0  0  0  4 V2000
  145.5200  134.8051  155.6529 C   0  0  0  0  0  0  0  0  0  0  0  0
  146.6992  134.4838  154.7281 C   0  0  1  0  0  0  0  0  0  0  0  0
  148.0495  134.8825  155.3502 C   0  0  0  0  0  0  0  0  0  0  0  0
  149.1680  134.4964  154.4506 N   0  3  1  0  0  0  0  0  0  0  0  0
  150.5069  134.9216  154.9387 C   0  0  0  0  0  0  0  0  0  0  0  0
  150.5169  136.4014  155.3774 C   0  0  0  0  0  0  0  0  0  0  0  0
  151.8757  136.8323  155.7043 N   0  5  0  0  0  0  0  0  0  0  0  0
  152.2070  138.0726  156.1539 C   0  0  0  0  0  0  0  0  0  0  0  0
  153.3043  138.4565  156.5764 O   0  0  0  0  0  0  0  0  0  0  0  0
  151.1660  138.9208  156.1155 N   0  0  0  0  0  0  0  0  0  0  0  0
  151.1159  140.2630  156.5801 C   0  0  0  0  0  0  0  0  0  0  0  0
  151.9905  140.7020  157.6051 C   0  0  0  0  0  0  0  0  0  0  0  0
  151.9210  142.0302  158.0657 C   0  0  0  0  0  0  0  0  0  0  0  0
  150.9796  142.9000  157.4891 C   0  0  0  0  0  0  0  0  0  0  0  0
  150.1744  142.4560  156.5015 N   0  3  0  0  0  0  0  0  0  0  0  0
  150.2028  141.1934  156.0049 C   0  0  0  0  0  0  0  0  0  0  0  0
  149.2986  140.8765  154.9650 N   0  0  0  0  0  0  0  0  0  0  0  0
  148.4700  139.6795  155.0394 C   0  0  0  0  0  0  0  0  0  0  0  0
  147.4404  139.8421  153.9240 C   0  0  0  0  0  0  0  0  0  0  0  0
  147.2009  141.3493  153.9128 C   0  0  0  0  0  0  0  0  0  0  0  0
  148.5673  141.9374  154.2807 C   0  0  0  0  0  0  0  0  0  0  0  0
  149.0952  133.0482  154.1421 C   0  0  0  0  0  0  0  0  0  0  0  0
  147.7145  132.6897  153.5594 C   0  0  1  0  0  0  0  0  0  0  0  0
  147.5689  131.1862  153.3007 C   0  0  0  0  0  0  0  0  0  0  0  0
  146.7013  133.0819  154.4795 O   0  0  0  0  0  0  0  0  0  0  0  0
  145.4697  135.8729  155.8683 H   0  0  0  0  0  0  0  0  0  0  0  0
  145.6072  134.2760  156.6021 H   0  0  0  0  0  0  0  0  0  0  0  0
  144.5746  134.5141  155.1948 H   0  0  0  0  0  0  0  0  0  0  0  0
  146.5563  135.0169  153.7862 H   0  0  0  0  0  0  0  0  0  0  0  0
  148.0644  135.9576  155.5328 H   0  0  0  0  0  0  0  0  0  0  0  0
  148.1764  134.3945  156.3181 H   0  0  0  0  0  0  0  0  0  0  0  0
  150.8301  134.2646  155.7478 H   0  0  0  0  0  0  0  0  0  0  0  0
  151.2439  134.8027  154.1428 H   0  0  0  0  0  0  0  0  0  0  0  0
  150.0970  137.0059  154.5731 H   0  0  0  0  0  0  0  0  0  0  0  0
  149.8363  136.5328  156.2198 H   0  0  0  0  0  0  0  0  0  0  0  0
  150.2807  138.5086  155.8603 H   0  0  0  0  0  0  0  0  0  0  0  0
  152.7156  140.0311  158.0417 H   0  0  0  0  0  0  0  0  0  0  0  0
  152.5785  142.3732  158.8511 H   0  0  0  0  0  0  0  0  0  0  0  0
  150.8504  143.9322  157.7806 H   0  0  0  0  0  0  0  0  0  0  0  0
  149.0644  138.7739  154.9122 H   0  0  0  0  0  0  0  0  0  0  0  0
  147.9641  139.6291  156.0046 H   0  0  0  0  0  0  0  0  0  0  0  0
  147.8694  139.5270  152.9714 H   0  0  0  0  0  0  0  0  0  0  0  0
  146.5317  139.2647  154.0956 H   0  0  0  0  0  0  0  0  0  0  0  0
  146.8270  141.7150  152.9559 H   0  0  0  0  0  0  0  0  0  0  0  0
  146.4704  141.6089  154.6805 H   0  0  0  0  0  0  0  0  0  0  0  0
  148.4610  142.8292  154.8997 H   0  0  0  0  0  0  0  0  0  0  0  0
  149.1111  142.2114  153.3759 H   0  0  0  0  0  0  0  0  0  0  0  0
  149.8735  132.7863  153.4240 H   0  0  0  0  0  0  0  0  0  0  0  0
  149.2874  132.4732  155.0495 H   0  0  0  0  0  0  0  0  0  0  0  0
  147.5650  133.2193  152.6167 H   0  0  0  0  0  0  0  0  0  0  0  0
  148.3134  130.8372  152.5847 H   0  0  0  0  0  0  0  0  0  0  0  0
  146.5840  130.9540  152.8947 H   0  0  0  0  0  0  0  0  0  0  0  0
  147.6934  130.6131  154.2200 H   0  0  0  0  0  0  0  0  0  0  0  0
  149.0259  134.9781  153.5742 H   0  0  0  0  0  0  0  0  0  0  0  0
  149.5062  143.1129  156.0988 H   0  0  0  0  0  0  0  0  0  0  0  0
  1  2  1  0  0  0  0
  1 26  1  0  0  0  0
  1 27  1  0  0  0  0
  1 28  1  0  0  0  0
  2 25  1  0  0  0  0
  2  3  1  0  0  0  0
  2 29  1  0  0  0  0
  3  4  1  0  0  0  0
  3 30  1  0  0  0  0
  3 31  1  0  0  0  0
  4  5  1  0  0  0  0
  4 22  1  0  0  0  0
  4 54  1  0  0  0  0
  5  6  1  0  0  0  0
  5 32  1  0  0  0  0
  5 33  1  0  0  0  0
  6  7  1  0  0  0  0
  6 34  1  0  0  0  0
  6 35  1  0  0  0  0
  7  8  1  0  0  0  0
  8  9  2  0  0  0  0
  8 10  1  0  0  0  0
 10 11  1  0  0  0  0
 10 36  1  0  0  0  0
 11 16  1  0  0  0  0
 11 12  2  0  0  0  0
 12 13  1  0  0  0  0
 12 37  1  0  0  0  0
 13 14  2  0  0  0  0
 13 38  1  0  0  0  0
 14 15  1  0  0  0  0
 14 39  1  0  0  0  0
 15 16  2  0  0  0  0
 15 55  1  0  0  0  0
 16 17  1  0  0  0  0
 17 21  1  0  0  0  0
 17 18  1  0  0  0  0
 18 19  1  0  0  0  0
 18 40  1  0  0  0  0
 18 41  1  0  0  0  0
 19 20  1  0  0  0  0
 19 42  1  0  0  0  0
 19 43  1  0  0  0  0
 20 21  1  0  0  0  0
 20 44  1  0  0  0  0
 20 45  1  0  0  0  0
 21 46  1  0  0  0  0
 21 47  1  0  0  0  0
 22 23  1  0  0  0  0
 22 48  1  0  0  0  0
 22 49  1  0  0  0  0
 23 24  1  0  0  0  0
 23 25  1  0  0  0  0
 23 50  1  0  0  0  0
 24 51  1  0  0  0  0
 24 52  1  0  0  0  0
 24 53  1  0  0  0  0
M  CHG  1   4   1
M  CHG  1   7  -1
M  CHG  1  15   1
M  END
> <s_m_source_file>
AV-unprocessed.smi

> <i_m_source_file_index>
1244

> <i_lp_mmshare_version>
43012

> <i_f3d_flags>
0

> <s_epik_input>
W0NIM11bQ0BASF0xW0NIMl1OKFtDSDJdW0NASF0oTzEpW0NIM10pW0NIMl1bQ0gyXVtOSF1DKD1PKVtOSF1jMltjSF1bY0hdW2NIXW5jMk4zW0NIMl1bQ0gyXVtDSDJdW0NIMl0z

> <s_epik_cmdline>
J2VwaWtfcHl0aG9uJywgJy1waCcsICc3LjAnLCAnLXRuJywgJzgnLCAnLW1hJywgJzIwMCcsICctbWV0YWxfYmluZGluZycsICctaW1hZScsICc8aW5maWxlLm1hZT4nLCAnLW9tYWUnLCAnPG91dGZpbGUubWFlPic=

> <r_lp_tautomer_probability>
0.999994

> <r_epik_Ionization_Penalty>
8.60539

> <r_epik_Ionization_Penalty_Charging>
8.60539

> <r_epik_Ionization_Penalty_Neutral>
3.60441e-06

> <r_epik_State_Penalty>
8.59967

> <r_epik_Charging_Adjusted_Penalty>
17.2051

> <i_epik_Tot_Q>
1

> <i_epik_Tot_abs_Q>
3

> <r_epik_Metal_State_Penalty>
4.59489

> <b_epik_Metal_Only>
1

> <s_lp_Force_Field>
OPLS_2005

> <r_lp_Energy>
44.1273

> <b_lp_Chiralities_Consistent>
1

> <s_lp_Variant>
AV-unprocessed.smi:1244-16

> <Gold.Version>
5.8.1

> <Gold.Id.Protein>
6NUR|6NUR_protein|mol2

> <Gold.PLP.Fitness>
55.3316

> <Gold.PLP.PLP>
-36.1392

> <Gold.PLP.part.hbond>
-4.0000

> <Gold.PLP.part.metal>
0.0000

> <Gold.PLP.part.buried>
-2.0296

> <Gold.PLP.part.nonpolar>
-30.8114

> <Gold.PLP.part.repulsive>
0.2644

> <Gold.PLP.ligand.clash>
1.6454

> <Gold.PLP.ligand.torsion>
0.6625

> <Gold.PLP.Chemscore.Hbond>
6.9600

> <Gold.PLP.Chemscore.CHOScore>
0.0000

> <Gold.PLP.Chemscore.Metal>
0.0000

> <Gold.Chemscore.Hbonds>
donor molecule, donor type, donor heavy atom, donor atom, acceptor molecule, acceptor atom, score
      L1  H     4    54       P1  7948  1.72
      L1  H    15    55       P1  8028  2.00
      P1  H  7997  8010       L1     9  0.94
      P1  H 10752 10763       L1     7  2.00

> <Gold.PLP.Chemscore.Internal.Correction>
1.2827

> <Gold.Rescore>
     Score         DG    S(hbond)    S(metal)    S(lipo)     H(rot)  DE(clash)    DE(int)     intcor
     18.92     -21.50       2.91        0.00      84.72       1.42       0.42       2.15       ----

> <Gold.Chemscore.Fitness>
18.9202

> <Gold.Chemscore.DG>
-21.4961

> <Gold.Chemscore.ZeroCoef>
-5.4800

> <Gold.Chemscore.Hbond>
2.9148

> <Gold.Chemscore.Metal>
0.0000

> <Gold.Chemscore.Lipo>
84.7176

> <Gold.Chemscore.Internal_Hbond>
0.0000

> <Gold.Chemscore.DEClash>
0.4220

> <Gold.Chemscore.DEInternal>
2.1539

> <Gold.Chemscore.Rot>
1.4185

> <Gold.Chemscore.Internal.Correction>
   9.000000E+99

> <Gold.Chemscore.Hbonds>
donor molecule, donor type, donor heavy atom, donor atom, acceptor molecule, acceptor atom, score
      L1  H     4    54       P1  7948  0.29
      L1  H    15    55       P1  8028  0.98
      P1  H  7997  8010       L1     9  0.90
      P1  H 10752 10763       L1     7  0.58

> <Gold.Chemscore.Hbond.Weighted>
-9.7354

> <Gold.Chemscore.Metal.Weighted>
-0.0000

> <Gold.Chemscore.Lipo.Weighted>
-9.9120

> <Gold.Chemscore.Internal_Hbond.Weighted>
0.0000

> <Gold.Chemscore.DEClash.Weighted>
0.4220

> <Gold.Chemscore.DEInternal.Weighted>
2.1539

> <Gold.Chemscore.Rot.Weighted>
3.6313

> <Gold.Chemscore.Internal.Correction.Weighted>
   9.000000E+99

> <Gold.Protein.RotatedTorsions>
[ 6907 6896 6895 6894 ] final  175.65 input  -60.11 | X-H torsion
[ 7974 7965 7964 7962 ] final  163.90 input  175.53 | X-H torsion
[ 8008 7997 7996 7995 ] final   59.24 input   59.86 | X-H torsion
[ 10167 10162 10161 10158 ] final   72.09 input  -65.29 | X-H torsion
[ 10718 10713 10712 10709 ] final  121.93 input   66.30 | X-H torsion
[ 10763 10752 10751 10750 ] final   84.22 input  -60.55 | X-H torsion
[ 11005 11000 10999 10996 ] final  112.41 input  -57.11 | X-H torsion

> <Gold.Protein.ActiveResidues>
 VAL166  LYS551  ARG553  GLY616  TRP617  ASP618  TYR619  PRO620  LYS621  CYS622 
 ASP623  PHE694  ASN695  SER759  ASP760  ASP761  ALA762  ILE779  LEU786  VAL792 
 PHE793  MET794  SER795  GLU796  ALA797  LYS798  CYS799  TRP800  GLU811  SER814 

> <Gold.Protein.RotatedAtoms>
  151.7329  133.3318  159.3344 H   0  0  0  0  0  0  0  0  0  0  0  0  # atno 6907 bound_to 6896
  150.7605  134.6348  159.6215 H   0  0  0  0  0  0  0  0  0  0  0  0  # atno 6908 bound_to 6896
  152.3580  134.6914  160.0267 H   0  0  0  0  0  0  0  0  0  0  0  0  # atno 6909 bound_to 6896
  144.7569  139.8249  143.6347 H   0  0  0  0  0  0  0  0  0  0  0  0  # atno 7974 bound_to 7965
  155.5630  140.3488  155.4496 H   0  0  0  0  0  0  0  0  0  0  0  0  # atno 8008 bound_to 7997
  156.0500  140.1315  157.0086 H   0  0  0  0  0  0  0  0  0  0  0  0  # atno 8009 bound_to 7997
  154.4430  140.1006  156.6347 H   0  0  0  0  0  0  0  0  0  0  0  0  # atno 8010 bound_to 7997
  140.0390  144.5404  150.7448 H   0  0  0  0  0  0  0  0  0  0  0  0  # atno 10167 bound_to 10162
  157.5780  131.1077  150.8241 H   0  0  0  0  0  0  0  0  0  0  0  0  # atno 10718 bound_to 10713
  153.1362  135.4662  154.9425 H   0  0  0  0  0  0  0  0  0  0  0  0  # atno 10763 bound_to 10752
  154.7707  135.3158  154.8197 H   0  0  0  0  0  0  0  0  0  0  0  0  # atno 10764 bound_to 10752
  153.8729  135.6902  153.4827 H   0  0  0  0  0  0  0  0  0  0  0  0  # atno 10765 bound_to 10752
  139.8927  134.9529  156.6581 H   0  0  0  0  0  0  0  0  0  0  0  0  # atno 11005 bound_to 11000
  146.1589  139.4696  143.0001 LP  0  0  0  0  0  0  0  0  0  0  0  0  # atno 17320 bound_to 7965
  145.6750  141.0206  143.1637 LP  0  0  0  0  0  0  0  0  0  0  0  0  # atno 17321 bound_to 7965
  140.7268  143.2645  151.4091 LP  0  0  0  0  0  0  0  0  0  0  0  0  # atno 17342 bound_to 10162
  139.6026  144.1264  152.2214 LP  0  0  0  0  0  0  0  0  0  0  0  0  # atno 17343 bound_to 10162
  156.8695  130.5141  149.5298 LP  0  0  0  0  0  0  0  0  0  0  0  0  # atno 17370 bound_to 10713
  156.0825  130.5832  150.9589 LP  0  0  0  0  0  0  0  0  0  0  0  0  # atno 17371 bound_to 10713
  140.7468  133.8931  155.8318 LP  0  0  0  0  0  0  0  0  0  0  0  0  # atno 17394 bound_to 11000
  141.0033  134.1121  157.4296 LP  0  0  0  0  0  0  0  0  0  0  0  0  # atno 17395 bound_to 11000

$$$$
