AV-unprocessed.smi:2215|AV-procd|sdf|8961|dock5
  -GOLD-   2272012183D 1   1.00000     0.00000
 Structure written by MMmdl.
 40 41  0  0  0  0  0  0  0  0  1 V2000
  151.2664  141.9503  156.6570 C   0  0  0  0  0  0  0  0  0  0  0  0
  150.4094  141.0328  155.8099 C   0  0  0  0  0  0  0  0  0  0  0  0
  150.9051  139.8001  155.3454 C   0  0  0  0  0  0  0  0  0  0  0  0
  150.0649  138.9807  154.5671 C   0  0  0  0  0  0  0  0  0  0  0  0
  148.7514  139.4106  154.2725 C   0  0  0  0  0  0  0  0  0  0  0  0
  147.9844  138.5055  153.4909 N   0  0  0  0  0  0  0  0  0  0  0  0
  146.6530  138.3159  153.5037 C   0  0  0  0  0  0  0  0  0  0  0  0
  145.8476  138.9551  154.1814 O   0  0  0  0  0  0  0  0  0  0  0  0
  146.2969  137.3278  152.6702 N   0  0  0  0  0  0  0  0  0  0  0  0
  144.9312  136.8581  152.4585 C   0  0  0  0  0  0  0  0  0  0  0  0
  144.8646  135.3553  152.1023 C   0  0  1  0  0  0  0  0  0  0  0  0
  143.4171  134.8214  152.0009 C   0  0  0  0  0  0  0  0  0  0  0  0
  143.3880  133.3178  151.6818 C   0  0  0  0  0  0  0  0  0  0  0  0
  144.1727  133.0007  150.4002 C   0  0  0  0  0  0  0  0  0  0  0  0
  145.6171  133.5228  150.4869 C   0  0  0  0  0  0  0  0  0  0  0  0
  145.6707  135.0261  150.8213 C   0  0  1  0  0  0  0  0  0  0  0  0
  145.1945  135.7646  149.7112 O   0  0  0  0  0  0  0  0  0  0  0  0
  148.2831  140.6009  154.7241 N   0  0  0  0  0  0  0  0  0  0  0  0
  149.0891  141.3859  155.4698 C   0  0  0  0  0  0  0  0  0  0  0  0
  152.3269  141.7594  156.4895 H   0  0  0  0  0  0  0  0  0  0  0  0
  151.0520  141.7944  157.7144 H   0  0  0  0  0  0  0  0  0  0  0  0
  151.0681  142.9950  156.4155 H   0  0  0  0  0  0  0  0  0  0  0  0
  151.9107  139.4840  155.5807 H   0  0  0  0  0  0  0  0  0  0  0  0
  150.4293  138.0307  154.2037 H   0  0  0  0  0  0  0  0  0  0  0  0
  148.5145  137.9173  152.8650 H   0  0  0  0  0  0  0  0  0  0  0  0
  147.0233  136.8584  152.1493 H   0  0  0  0  0  0  0  0  0  0  0  0
  144.3716  137.0533  153.3735 H   0  0  0  0  0  0  0  0  0  0  0  0
  144.4555  137.4536  151.6775 H   0  0  0  0  0  0  0  0  0  0  0  0
  145.3466  134.8128  152.9175 H   0  0  0  0  0  0  0  0  0  0  0  0
  142.8829  134.9929  152.9356 H   0  0  0  0  0  0  0  0  0  0  0  0
  142.8722  135.3698  151.2315 H   0  0  0  0  0  0  0  0  0  0  0  0
  143.8126  132.7597  152.5171 H   0  0  0  0  0  0  0  0  0  0  0  0
  142.3564  132.9802  151.5780 H   0  0  0  0  0  0  0  0  0  0  0  0
  144.1778  131.9247  150.2248 H   0  0  0  0  0  0  0  0  0  0  0  0
  143.6683  133.4490  149.5432 H   0  0  0  0  0  0  0  0  0  0  0  0
  146.1493  132.9671  151.2598 H   0  0  0  0  0  0  0  0  0  0  0  0
  146.1441  133.3233  149.5531 H   0  0  0  0  0  0  0  0  0  0  0  0
  146.7125  135.3124  150.9709 H   0  0  0  0  0  0  0  0  0  0  0  0
  145.6254  135.4476  148.9325 H   0  0  0  0  0  0  0  0  0  0  0  0
  148.6654  142.3208  155.8064 H   0  0  0  0  0  0  0  0  0  0  0  0
  1  2  1  0  0  0  0
  1 20  1  0  0  0  0
  1 21  1  0  0  0  0
  1 22  1  0  0  0  0
  2 19  1  0  0  0  0
  2  3  2  0  0  0  0
  3  4  1  0  0  0  0
  3 23  1  0  0  0  0
  4  5  2  0  0  0  0
  4 24  1  0  0  0  0
  5  6  1  0  0  0  0
  5 18  1  0  0  0  0
  6  7  1  0  0  0  0
  6 25  1  0  0  0  0
  7  8  2  0  0  0  0
  7  9  1  0  0  0  0
  9 10  1  0  0  0  0
  9 26  1  0  0  0  0
 10 11  1  0  0  0  0
 10 27  1  0  0  0  0
 10 28  1  0  0  0  0
 11 16  1  0  0  0  0
 11 12  1  0  0  0  0
 11 29  1  0  0  0  0
 12 13  1  0  0  0  0
 12 30  1  0  0  0  0
 12 31  1  0  0  0  0
 13 14  1  0  0  0  0
 13 32  1  0  0  0  0
 13 33  1  0  0  0  0
 14 15  1  0  0  0  0
 14 34  1  0  0  0  0
 14 35  1  0  0  0  0
 15 16  1  0  0  0  0
 15 36  1  0  0  0  0
 15 37  1  0  0  0  0
 16 17  1  0  0  0  0
 16 38  1  0  0  0  0
 17 39  1  0  0  0  0
 18 19  2  0  0  0  0
 19 40  1  0  0  0  0
M  END
> <s_m_source_file>
AV-unprocessed.smi

> <i_m_source_file_index>
2215

> <i_lp_mmshare_version>
43012

> <i_f3d_flags>
0

> <s_epik_input>
W0NIM11jMVtjSF1bY0hdYyhuW2NIXTEpW05IXUMoPU8pW05IXVtDSDJdW0NAQEhdMltDSDJdW0NIMl1bQ0gyXVtDSDJdW0NASF0yW09IXQ==

> <s_epik_cmdline>
J2VwaWtfcHl0aG9uJywgJy1waCcsICc3LjAnLCAnLXRuJywgJzgnLCAnLW1hJywgJzIwMCcsICctbWV0YWxfYmluZGluZycsICctaW1hZScsICc8aW5maWxlLm1hZT4nLCAnLW9tYWUnLCAnPG91dGZpbGUubWFlPic=

> <r_lp_tautomer_probability>
1

> <r_epik_Ionization_Penalty>
6.08491e-05

> <r_epik_Ionization_Penalty_Charging>
0

> <r_epik_Ionization_Penalty_Neutral>
6.08491e-05

> <r_epik_State_Penalty>
-0

> <r_epik_Charging_Adjusted_Penalty>
0

> <i_epik_Tot_Q>
0

> <i_epik_Tot_abs_Q>
0

> <r_epik_Metal_State_Penalty>
-0

> <b_epik_Metal_Only>
0

> <s_lp_Force_Field>
OPLS_2005

> <r_lp_Energy>
16.7167

> <b_lp_Chiralities_Consistent>
1

> <s_lp_Variant>
AV-unprocessed.smi:2215-2

> <Gold.Version>
5.8.1

> <Gold.Id.Protein>
6NUR|6NUR_protein|mol2

> <Gold.PLP.Fitness>
46.0449

> <Gold.PLP.PLP>
-34.8282

> <Gold.PLP.part.hbond>
-4.1804

> <Gold.PLP.part.metal>
0.0000

> <Gold.PLP.part.buried>
-4.4176

> <Gold.PLP.part.nonpolar>
-26.6136

> <Gold.PLP.part.repulsive>
0.2782

> <Gold.PLP.ligand.clash>
0.0000

> <Gold.PLP.ligand.torsion>
0.3846

> <Gold.PLP.Chemscore.Hbond>
2.9913

> <Gold.PLP.Chemscore.CHOScore>
1.0000

> <Gold.PLP.Chemscore.Metal>
0.0000

> <Gold.Chemscore.Hbonds>
donor molecule, donor type, donor heavy atom, donor atom, acceptor molecule, acceptor atom, score
      L1  H     6    25       P1  7948  1.00
      L1  H     9    26       P1  7948  0.99
      L1  H    17    39       P1  7921  0.98
      L1  C    19    40       P1  8028  1.00

> <Gold.PLP.Chemscore.Internal.Correction>
0.0121

> <Gold.Rescore>
     Score         DG    S(hbond)    S(metal)    S(lipo)     H(rot)  DE(clash)    DE(int)     intcor
     17.84     -19.36       2.88        0.00      74.49       1.73       0.04       1.48       ----

> <Gold.Chemscore.Fitness>
17.8374

> <Gold.Chemscore.DG>
-19.3619

> <Gold.Chemscore.ZeroCoef>
-5.4800

> <Gold.Chemscore.Hbond>
2.8757

> <Gold.Chemscore.Metal>
0.0000

> <Gold.Chemscore.Lipo>
74.4929

> <Gold.Chemscore.Internal_Hbond>
0.0000

> <Gold.Chemscore.DEClash>
0.0417

> <Gold.Chemscore.DEInternal>
1.4827

> <Gold.Chemscore.Rot>
1.7339

> <Gold.Chemscore.Internal.Correction>
   9.000000E+99

> <Gold.Chemscore.Hbonds>
donor molecule, donor type, donor heavy atom, donor atom, acceptor molecule, acceptor atom, score
      L1  H     6    25       P1  7948  0.96
      L1  H     9    26       P1  7948  0.90
      L1  H    17    39       P1  7921  0.91

> <Gold.Chemscore.Hbond.Weighted>
-9.6049

> <Gold.Chemscore.Metal.Weighted>
-0.0000

> <Gold.Chemscore.Lipo.Weighted>
-8.7157

> <Gold.Chemscore.Internal_Hbond.Weighted>
0.0000

> <Gold.Chemscore.DEClash.Weighted>
0.0417

> <Gold.Chemscore.DEInternal.Weighted>
1.4827

> <Gold.Chemscore.Rot.Weighted>
4.4387

> <Gold.Chemscore.Internal.Correction.Weighted>
   9.000000E+99

> <Gold.Protein.RotatedTorsions>
[ 6907 6896 6895 6894 ] final -145.00 input  -60.11 | X-H torsion
[ 7974 7965 7964 7962 ] final -166.82 input  175.53 | X-H torsion
[ 8008 7997 7996 7995 ] final   76.53 input   59.86 | X-H torsion
[ 10167 10162 10161 10158 ] final  117.37 input  -65.29 | X-H torsion
[ 10718 10713 10712 10709 ] final -136.75 input   66.30 | X-H torsion
[ 10763 10752 10751 10750 ] final  -25.09 input  -60.55 | X-H torsion
[ 11005 11000 10999 10996 ] final   80.86 input  -57.11 | X-H torsion

> <Gold.Protein.ActiveResidues>
 VAL166  LYS551  ARG553  GLY616  TRP617  ASP618  TYR619  PRO620  LYS621  CYS622 
 ASP623  PHE694  ASN695  SER759  ASP760  ASP761  ALA762  ILE779  LEU786  VAL792 
 PHE793  MET794  SER795  GLU796  ALA797  LYS798  CYS799  TRP800  GLU811  SER814 

> <Gold.Protein.RotatedAtoms>
  151.1217  133.5099  159.2601 H   0  0  0  0  0  0  0  0  0  0  0  0  # atno 6907 bound_to 6896
  151.1854  135.0379  159.8820 H   0  0  0  0  0  0  0  0  0  0  0  0  # atno 6908 bound_to 6896
  152.5456  134.1064  159.8393 H   0  0  0  0  0  0  0  0  0  0  0  0  # atno 6909 bound_to 6896
  144.7237  140.2610  143.6265 H   0  0  0  0  0  0  0  0  0  0  0  0  # atno 7974 bound_to 7965
  155.8286  140.3467  155.5558 H   0  0  0  0  0  0  0  0  0  0  0  0  # atno 8008 bound_to 7997
  155.8266  140.0921  157.1837 H   0  0  0  0  0  0  0  0  0  0  0  0  # atno 8009 bound_to 7997
  154.4004  140.1420  156.3551 H   0  0  0  0  0  0  0  0  0  0  0  0  # atno 8010 bound_to 7997
  139.6183  144.7096  151.2689 H   0  0  0  0  0  0  0  0  0  0  0  0  # atno 10167 bound_to 10162
  156.2805  130.7318  151.1314 H   0  0  0  0  0  0  0  0  0  0  0  0  # atno 10718 bound_to 10713
  153.6943  135.6960  153.5081 H   0  0  0  0  0  0  0  0  0  0  0  0  # atno 10763 bound_to 10752
  153.2390  135.4312  155.0676 H   0  0  0  0  0  0  0  0  0  0  0  0  # atno 10764 bound_to 10752
  154.8363  135.3503  154.6484 H   0  0  0  0  0  0  0  0  0  0  0  0  # atno 10765 bound_to 10752
  139.9119  134.7953  156.1965 H   0  0  0  0  0  0  0  0  0  0  0  0  # atno 11005 bound_to 11000
  145.8136  139.2013  143.1979 LP  0  0  0  0  0  0  0  0  0  0  0  0  # atno 17320 bound_to 7965
  146.0575  140.8005  142.9751 LP  0  0  0  0  0  0  0  0  0  0  0  0  # atno 17321 bound_to 7965
  140.7366  143.6704  150.8087 LP  0  0  0  0  0  0  0  0  0  0  0  0  # atno 17342 bound_to 10162
  140.0310  143.5443  152.2760 LP  0  0  0  0  0  0  0  0  0  0  0  0  # atno 17343 bound_to 10162
  157.7313  131.0609  150.5685 LP  0  0  0  0  0  0  0  0  0  0  0  0  # atno 17370 bound_to 10713
  156.5790  130.4299  149.5985 LP  0  0  0  0  0  0  0  0  0  0  0  0  # atno 17371 bound_to 10713
  141.0551  133.6869  156.1845 LP  0  0  0  0  0  0  0  0  0  0  0  0  # atno 17394 bound_to 11000
  140.6749  134.4828  157.5588 LP  0  0  0  0  0  0  0  0  0  0  0  0  # atno 17395 bound_to 11000

$$$$
