AV-unprocessed.smi:2098|AV-procd|sdf|8566|dock8
  -GOLD-   2272011293D 1   1.00000     0.00000
 Structure written by MMmdl.
 36 38  0  0  0  0  0  0  0  0  1 V2000
  149.7953  140.4699  153.6004 O   0  0  0  0  0  0  0  0  0  0  0  0
  148.8716  140.8249  154.6109 C   0  0  1  0  0  0  0  0  0  0  0  0
  149.6097  141.6550  155.6730 C   0  0  0  0  0  0  0  0  0  0  0  0
  150.6832  140.8847  156.1978 O   0  0  0  0  0  0  0  0  0  0  0  0
  151.3490  141.3634  157.3059 C   0  0  0  0  0  0  0  0  0  0  0  0
  152.2336  140.4758  157.9534 C   0  0  0  0  0  0  0  0  0  0  0  0
  152.9581  140.8813  159.0908 C   0  0  0  0  0  0  0  0  0  0  0  0
  152.8040  142.1860  159.5942 C   0  0  0  0  0  0  0  0  0  0  0  0
  153.5017  142.5788  160.6862 F   0  0  0  0  0  0  0  0  0  0  0  0
  151.9233  143.0816  158.9602 C   0  0  0  0  0  0  0  0  0  0  0  0
  151.1979  142.6756  157.8231 C   0  0  0  0  0  0  0  0  0  0  0  0
  147.7098  141.6132  153.9757 C   0  0  0  0  0  0  0  0  0  0  0  0
  146.6591  141.9277  154.9282 N   0  0  0  0  0  0  0  0  0  0  0  0
  146.4966  141.4008  156.1570 C   0  0  0  0  0  0  0  0  0  0  0  0
  145.4641  141.8338  156.8748 N   0  0  0  0  0  0  0  0  0  0  0  0
  144.8885  142.7499  156.0110 C   0  0  0  0  0  0  0  0  0  0  0  0
  143.7482  143.5697  156.1709 C   0  0  0  0  0  0  0  0  0  0  0  0
  143.3433  144.4401  155.1375 C   0  0  0  0  0  0  0  0  0  0  0  0
  144.0700  144.5039  153.9307 C   0  0  0  0  0  0  0  0  0  0  0  0
  145.2097  143.6974  153.7487 C   0  0  0  0  0  0  0  0  0  0  0  0
  145.6117  142.8314  154.7827 C   0  0  0  0  0  0  0  0  0  0  0  0
  149.3539  140.5093  152.7655 H   0  0  0  0  0  0  0  0  0  0  0  0
  148.4764  139.9149  155.0646 H   0  0  0  0  0  0  0  0  0  0  0  0
  149.9573  142.5990  155.2492 H   0  0  0  0  0  0  0  0  0  0  0  0
  148.9255  141.8883  156.4908 H   0  0  0  0  0  0  0  0  0  0  0  0
  152.3586  139.4724  157.5733 H   0  0  0  0  0  0  0  0  0  0  0  0
  153.6324  140.1911  159.5759 H   0  0  0  0  0  0  0  0  0  0  0  0
  151.8034  144.0833  159.3461 H   0  0  0  0  0  0  0  0  0  0  0  0
  150.5318  143.3913  157.3660 H   0  0  0  0  0  0  0  0  0  0  0  0
  148.0768  142.5507  153.5560 H   0  0  0  0  0  0  0  0  0  0  0  0
  147.2757  141.0521  153.1471 H   0  0  0  0  0  0  0  0  0  0  0  0
  147.1759  140.6569  156.5471 H   0  0  0  0  0  0  0  0  0  0  0  0
  143.1843  143.5288  157.0908 H   0  0  0  0  0  0  0  0  0  0  0  0
  142.4704  145.0621  155.2713 H   0  0  0  0  0  0  0  0  0  0  0  0
  143.7517  145.1729  153.1447 H   0  0  0  0  0  0  0  0  0  0  0  0
  145.7671  143.7422  152.8248 H   0  0  0  0  0  0  0  0  0  0  0  0
  1  2  1  0  0  0  0
  1 22  1  0  0  0  0
  2  3  1  0  0  0  0
  2 12  1  0  0  0  0
  2 23  1  0  0  0  0
  3  4  1  0  0  0  0
  3 24  1  0  0  0  0
  3 25  1  0  0  0  0
  4  5  1  0  0  0  0
  5 11  1  0  0  0  0
  5  6  2  0  0  0  0
  6  7  1  0  0  0  0
  6 26  1  0  0  0  0
  7  8  2  0  0  0  0
  7 27  1  0  0  0  0
  8  9  1  0  0  0  0
  8 10  1  0  0  0  0
 10 11  2  0  0  0  0
 10 28  1  0  0  0  0
 11 29  1  0  0  0  0
 12 13  1  0  0  0  0
 12 30  1  0  0  0  0
 12 31  1  0  0  0  0
 13 21  1  0  0  0  0
 13 14  1  0  0  0  0
 14 15  2  0  0  0  0
 14 32  1  0  0  0  0
 15 16  1  0  0  0  0
 16 21  2  0  0  0  0
 16 17  1  0  0  0  0
 17 18  2  0  0  0  0
 17 33  1  0  0  0  0
 18 19  1  0  0  0  0
 18 34  1  0  0  0  0
 19 20  2  0  0  0  0
 19 35  1  0  0  0  0
 20 21  1  0  0  0  0
 20 36  1  0  0  0  0
M  END
> <s_m_source_file>
AV-unprocessed.smi

> <i_m_source_file_index>
2098

> <i_lp_mmshare_version>
43012

> <i_f3d_flags>
0

> <s_epik_input>
W2NIXTFbY0hdW2NIXVtjSF1jKGMxMiluKFtjSF1uMilbQ0gyXVtDQEhdKFtPSF0pW0NIMl1PYzNbY0hdW2NIXWMoRilbY0hdW2NIXTM=

> <s_epik_cmdline>
J2VwaWtfcHl0aG9uJywgJy1waCcsICc3LjAnLCAnLXRuJywgJzgnLCAnLW1hJywgJzIwMCcsICctbWV0YWxfYmluZGluZycsICctaW1hZScsICc8aW5maWxlLm1hZT4nLCAnLW9tYWUnLCAnPG91dGZpbGUubWFlPic=

> <r_lp_tautomer_probability>
1

> <r_epik_Ionization_Penalty>
0.0603575

> <r_epik_Ionization_Penalty_Charging>
0

> <r_epik_Ionization_Penalty_Neutral>
0.0603575

> <r_epik_State_Penalty>
0.0523204

> <r_epik_Charging_Adjusted_Penalty>
0.0523204

> <i_epik_Tot_Q>
0

> <i_epik_Tot_abs_Q>
0

> <r_epik_Metal_State_Penalty>
5.46976e-05

> <b_epik_Metal_Only>
0

> <s_lp_Force_Field>
OPLS_2005

> <r_lp_Energy>
15.3663

> <b_lp_Chiralities_Consistent>
1

> <s_lp_Variant>
AV-unprocessed.smi:2098-2

> <Gold.Version>
5.8.1

> <Gold.Id.Protein>
6NUR|6NUR_protein|mol2

> <Gold.PLP.Fitness>
53.7177

> <Gold.PLP.PLP>
-49.3417

> <Gold.PLP.part.hbond>
-2.0000

> <Gold.PLP.part.metal>
0.0000

> <Gold.PLP.part.buried>
-6.0608

> <Gold.PLP.part.nonpolar>
-41.2200

> <Gold.PLP.part.repulsive>
0.1290

> <Gold.PLP.ligand.clash>
0.0000

> <Gold.PLP.ligand.torsion>
0.3205

> <Gold.PLP.Chemscore.Hbond>
1.6640

> <Gold.PLP.Chemscore.CHOScore>
0.0000

> <Gold.PLP.Chemscore.Metal>
0.0000

> <Gold.Chemscore.Hbonds>
donor molecule, donor type, donor heavy atom, donor atom, acceptor molecule, acceptor atom, score
      L1  H     1    22       P1  7957  0.78
      P1  H  7989  7998       L1     1  0.53

> <Gold.PLP.Chemscore.Internal.Correction>
0.0250

> <Gold.Rescore>
     Score         DG    S(hbond)    S(metal)    S(lipo)     H(rot)  DE(clash)    DE(int)     intcor
     15.22     -16.39       1.12        0.00     113.28       2.37       0.91       0.26       ----

> <Gold.Chemscore.Fitness>
15.2197

> <Gold.Chemscore.DG>
-16.3931

> <Gold.Chemscore.ZeroCoef>
-5.4800

> <Gold.Chemscore.Hbond>
1.1186

> <Gold.Chemscore.Metal>
0.0000

> <Gold.Chemscore.Lipo>
113.2761

> <Gold.Chemscore.Internal_Hbond>
0.0000

> <Gold.Chemscore.DEClash>
0.9105

> <Gold.Chemscore.DEInternal>
0.2629

> <Gold.Chemscore.Rot>
2.3735

> <Gold.Chemscore.Internal.Correction>
   9.000000E+99

> <Gold.Chemscore.Hbonds>
donor molecule, donor type, donor heavy atom, donor atom, acceptor molecule, acceptor atom, score
      L1  H     1    22       P1  7957  0.78
      P1  H  7989  7998       L1     1  0.44

> <Gold.Chemscore.Hbond.Weighted>
-3.7360

> <Gold.Chemscore.Metal.Weighted>
-0.0000

> <Gold.Chemscore.Lipo.Weighted>
-13.2533

> <Gold.Chemscore.Internal_Hbond.Weighted>
0.0000

> <Gold.Chemscore.DEClash.Weighted>
0.9105

> <Gold.Chemscore.DEInternal.Weighted>
0.2629

> <Gold.Chemscore.Rot.Weighted>
6.0762

> <Gold.Chemscore.Internal.Correction.Weighted>
   9.000000E+99

> <Gold.Protein.RotatedTorsions>
[ 6907 6896 6895 6894 ] final  126.15 input  -60.11 | X-H torsion
[ 7974 7965 7964 7962 ] final   26.57 input  175.53 | X-H torsion
[ 8008 7997 7996 7995 ] final  146.09 input   59.86 | X-H torsion
[ 10167 10162 10161 10158 ] final  -54.13 input  -65.29 | X-H torsion
[ 10718 10713 10712 10709 ] final   97.77 input   66.30 | X-H torsion
[ 10763 10752 10751 10750 ] final -110.61 input  -60.55 | X-H torsion
[ 11005 11000 10999 10996 ] final  157.89 input  -57.11 | X-H torsion

> <Gold.Protein.ActiveResidues>
 VAL166  LYS551  ARG553  GLY616  TRP617  ASP618  TYR619  PRO620  LYS621  CYS622 
 ASP623  PHE694  ASN695  SER759  ASP760  ASP761  ALA762  ILE779  LEU786  VAL792 
 PHE793  MET794  SER795  GLU796  ALA797  LYS798  CYS799  TRP800  GLU811  SER814 

> <Gold.Protein.RotatedAtoms>
  152.3929  133.6705  159.6252 H   0  0  0  0  0  0  0  0  0  0  0  0  # atno 6907 bound_to 6896
  150.7834  133.8923  159.3326 H   0  0  0  0  0  0  0  0  0  0  0  0  # atno 6908 bound_to 6896
  151.6706  135.0978  160.0248 H   0  0  0  0  0  0  0  0  0  0  0  0  # atno 6909 bound_to 6896
  146.1830  139.7310  142.8886 H   0  0  0  0  0  0  0  0  0  0  0  0  # atno 7974 bound_to 7965
  156.2865  140.2191  156.5321 H   0  0  0  0  0  0  0  0  0  0  0  0  # atno 8008 bound_to 7997
  154.7440  140.0485  157.0858 H   0  0  0  0  0  0  0  0  0  0  0  0  # atno 8009 bound_to 7997
  155.0194  140.3122  155.4802 H   0  0  0  0  0  0  0  0  0  0  0  0  # atno 8010 bound_to 7997
  140.6447  143.2528  151.4892 H   0  0  0  0  0  0  0  0  0  0  0  0  # atno 10167 bound_to 10162
  157.6907  131.0620  150.4695 H   0  0  0  0  0  0  0  0  0  0  0  0  # atno 10718 bound_to 10713
  154.8257  135.4558  154.0911 H   0  0  0  0  0  0  0  0  0  0  0  0  # atno 10763 bound_to 10752
  153.2228  135.6896  153.7987 H   0  0  0  0  0  0  0  0  0  0  0  0  # atno 10764 bound_to 10752
  153.7398  135.3314  155.3278 H   0  0  0  0  0  0  0  0  0  0  0  0  # atno 10765 bound_to 10752
  140.1813  134.8473  157.2806 H   0  0  0  0  0  0  0  0  0  0  0  0  # atno 11005 bound_to 11000
  145.4020  141.0386  143.3065 LP  0  0  0  0  0  0  0  0  0  0  0  0  # atno 17320 bound_to 7965
  144.8348  139.5568  143.6927 LP  0  0  0  0  0  0  0  0  0  0  0  0  # atno 17321 bound_to 7965
  139.5657  144.2048  152.1761 LP  0  0  0  0  0  0  0  0  0  0  0  0  # atno 17342 bound_to 10162
  140.1329  144.5272  150.6791 LP  0  0  0  0  0  0  0  0  0  0  0  0  # atno 17343 bound_to 10162
  156.5034  130.4122  149.6341 LP  0  0  0  0  0  0  0  0  0  0  0  0  # atno 17370 bound_to 10713
  156.3307  130.7330  151.2259 LP  0  0  0  0  0  0  0  0  0  0  0  0  # atno 17371 bound_to 10713
  140.2264  134.3961  155.7542 LP  0  0  0  0  0  0  0  0  0  0  0  0  # atno 17394 bound_to 11000
  141.2223  133.7192  156.8572 LP  0  0  0  0  0  0  0  0  0  0  0  0  # atno 17395 bound_to 11000

$$$$
