AV-unprocessed.smi:229|AV-procd|sdf|1751|dock5
  -GOLD-   2262020273D 1   1.00000     0.00000
 Structure written by MMmdl.
 58 62  0  0  0  0  0  0  0  0  1 V2000
  154.6451  139.0985  161.0847 C   0  0  0  0  0  0  0  0  0  0  0  0
  154.5448  140.6298  161.0760 C   0  0  0  0  0  0  0  0  0  0  0  0
  153.2892  141.1649  160.3675 C   0  0  2  0  0  0  0  0  0  0  0  0
  153.1891  140.7121  158.8986 C   0  0  0  0  0  0  0  0  0  0  0  0
  152.0499  141.3541  158.2552 N   0  0  0  0  0  0  0  0  0  0  0  0
  151.6623  140.7969  157.0800 C   0  0  0  0  0  0  0  0  0  0  0  0
  152.4715  139.9016  156.4525 N   0  0  0  0  0  0  0  0  0  0  0  0
  152.0945  139.3418  155.2994 C   0  0  0  0  0  0  0  0  0  0  0  0
  150.9701  139.5332  154.6072 N   0  0  0  0  0  0  0  0  0  0  0  0
  150.1582  140.4375  155.2256 C   0  0  0  0  0  0  0  0  0  0  0  0
  150.4236  141.1106  156.4519 C   0  0  0  0  0  0  0  0  0  0  0  0
  149.3705  141.9653  156.7586 N   0  0  0  0  0  0  0  0  0  0  0  0
  148.5264  141.7974  155.7772 C   0  0  0  0  0  0  0  0  0  0  0  0
  148.9197  140.8969  154.8140 N   0  0  0  0  0  0  0  0  0  0  0  0
  148.1776  140.5199  153.6240 C   0  0  0  0  0  0  0  0  0  0  0  0
  147.8686  139.0080  153.5816 C   0  0  2  0  0  0  0  0  0  0  0  0
  147.6458  138.5790  152.2527 O   0  0  0  0  0  0  0  0  0  0  0  0
  146.6660  138.5779  154.4465 C   0  0  1  0  0  0  0  0  0  0  0  0
  146.4188  137.0693  154.4761 C   0  0  0  0  0  0  0  0  0  0  0  0
  145.6094  136.9222  155.7442 C   0  0  0  0  0  0  0  0  0  0  0  0
  146.2775  137.9392  156.6658 C   0  0  0  0  0  0  0  0  0  0  0  0
  146.8433  138.9344  155.8158 O   0  0  0  0  0  0  0  0  0  0  0  0
  152.0952  142.8100  158.3451 C   0  0  0  0  0  0  0  0  0  0  0  0
  152.2375  143.2635  159.8157 C   0  0  1  0  0  0  0  0  0  0  0  0
  152.4973  144.7635  159.9019 C   0  0  0  0  0  0  0  0  0  0  0  0
  151.1055  145.3452  160.0963 C   0  0  0  0  0  0  0  0  0  0  0  0
  150.5149  144.4237  160.9938 O   0  0  0  0  0  0  0  0  0  0  0  0
  150.9296  143.1120  160.6276 C   0  0  0  0  0  0  0  0  0  0  0  0
  153.3492  142.5919  160.4158 O   0  0  0  0  0  0  0  0  0  0  0  0
  155.5158  138.7730  161.6542 H   0  0  0  0  0  0  0  0  0  0  0  0
  154.7453  138.6969  160.0766 H   0  0  0  0  0  0  0  0  0  0  0  0
  153.7631  138.6481  161.5408 H   0  0  0  0  0  0  0  0  0  0  0  0
  154.5412  140.9796  162.1089 H   0  0  0  0  0  0  0  0  0  0  0  0
  155.4386  141.0533  160.6164 H   0  0  0  0  0  0  0  0  0  0  0  0
  152.4110  140.8177  160.9128 H   0  0  0  0  0  0  0  0  0  0  0  0
  154.0976  140.9828  158.3588 H   0  0  0  0  0  0  0  0  0  0  0  0
  153.1058  139.6275  158.8507 H   0  0  0  0  0  0  0  0  0  0  0  0
  152.7938  138.6397  154.8702 H   0  0  0  0  0  0  0  0  0  0  0  0
  147.5868  142.3286  155.7282 H   0  0  0  0  0  0  0  0  0  0  0  0
  147.2558  141.1012  153.6035 H   0  0  0  0  0  0  0  0  0  0  0  0
  148.7530  140.8206  152.7477 H   0  0  0  0  0  0  0  0  0  0  0  0
  148.7468  138.4604  153.9267 H   0  0  0  0  0  0  0  0  0  0  0  0
  148.2805  139.0003  151.6928 H   0  0  0  0  0  0  0  0  0  0  0  0
  145.7536  139.0583  154.0880 H   0  0  0  0  0  0  0  0  0  0  0  0
  145.8945  136.7073  153.5913 H   0  0  0  0  0  0  0  0  0  0  0  0
  147.3543  136.5171  154.5683 H   0  0  0  0  0  0  0  0  0  0  0  0
  144.5726  137.2071  155.5597 H   0  0  0  0  0  0  0  0  0  0  0  0
  145.6195  135.9091  156.1472 H   0  0  0  0  0  0  0  0  0  0  0  0
  145.5740  138.3760  157.3747 H   0  0  0  0  0  0  0  0  0  0  0  0
  147.0832  137.4714  157.2327 H   0  0  0  0  0  0  0  0  0  0  0  0
  152.9462  143.1670  157.7628 H   0  0  0  0  0  0  0  0  0  0  0  0
  151.1980  143.2463  157.9035 H   0  0  0  0  0  0  0  0  0  0  0  0
  153.1022  144.9906  160.7812 H   0  0  0  0  0  0  0  0  0  0  0  0
  153.0132  145.1713  159.0320 H   0  0  0  0  0  0  0  0  0  0  0  0
  151.1213  146.3549  160.5070 H   0  0  0  0  0  0  0  0  0  0  0  0
  150.5485  145.3591  159.1580 H   0  0  0  0  0  0  0  0  0  0  0  0
  150.1453  142.6343  160.0388 H   0  0  0  0  0  0  0  0  0  0  0  0
  151.0625  142.5266  161.5372 H   0  0  0  0  0  0  0  0  0  0  0  0
  1  2  1  0  0  0  0
  1 30  1  0  0  0  0
  1 31  1  0  0  0  0
  1 32  1  0  0  0  0
  2  3  1  0  0  0  0
  2 33  1  0  0  0  0
  2 34  1  0  0  0  0
  3 29  1  0  0  0  0
  3  4  1  0  0  0  0
  3 35  1  0  0  0  0
  4  5  1  0  0  0  0
  4 36  1  0  0  0  0
  4 37  1  0  0  0  0
  5  6  1  0  0  0  0
  5 23  1  0  0  0  0
  6 11  1  0  0  0  0
  6  7  2  0  0  0  0
  7  8  1  0  0  0  0
  8  9  2  0  0  0  0
  8 38  1  0  0  0  0
  9 10  1  0  0  0  0
 10 14  1  0  0  0  0
 10 11  2  0  0  0  0
 11 12  1  0  0  0  0
 12 13  2  0  0  0  0
 13 14  1  0  0  0  0
 13 39  1  0  0  0  0
 14 15  1  0  0  0  0
 15 16  1  0  0  0  0
 15 40  1  0  0  0  0
 15 41  1  0  0  0  0
 16 17  1  0  0  0  0
 16 18  1  0  0  0  0
 16 42  1  0  0  0  0
 17 43  1  0  0  0  0
 18 22  1  0  0  0  0
 18 19  1  0  0  0  0
 18 44  1  0  0  0  0
 19 20  1  0  0  0  0
 19 45  1  0  0  0  0
 19 46  1  0  0  0  0
 20 21  1  0  0  0  0
 20 47  1  0  0  0  0
 20 48  1  0  0  0  0
 21 22  1  0  0  0  0
 21 49  1  0  0  0  0
 21 50  1  0  0  0  0
 23 24  1  0  0  0  0
 23 51  1  0  0  0  0
 23 52  1  0  0  0  0
 24 28  1  0  0  0  0
 24 25  1  0  0  0  0
 24 29  1  0  0  0  0
 25 26  1  0  0  0  0
 25 53  1  0  0  0  0
 25 54  1  0  0  0  0
 26 27  1  0  0  0  0
 26 55  1  0  0  0  0
 26 56  1  0  0  0  0
 27 28  1  0  0  0  0
 28 57  1  0  0  0  0
 28 58  1  0  0  0  0
M  END
> <s_m_source_file>
AV-unprocessed.smi

> <i_m_source_file_index>
229

> <i_lp_mmshare_version>
43012

> <i_f3d_flags>
0

> <s_epik_input>
W0NIMl0xT1tDSDJdW0NIMl1bQ0BdMTJbQ0gyXU4oW0NIMl1bQ0BIXShPMilbQ0gyXVtDSDNdKWMobltjSF1uMyljKGMzNCluW2NIXW40W0NIMl1bQ0BIXShbT0hdKVtDQEBIXTVbQ0gyXVtDSDJdW0NIMl1PNQ==

> <s_epik_cmdline>
J2VwaWtfcHl0aG9uJywgJy1waCcsICc3LjAnLCAnLXRuJywgJzgnLCAnLW1hJywgJzIwMCcsICctbWV0YWxfYmluZGluZycsICctaW1hZScsICc8aW5maWxlLm1hZT4nLCAnLW9tYWUnLCAnPG91dGZpbGUubWFlPic=

> <r_lp_tautomer_probability>
1

> <r_epik_Ionization_Penalty>
0.00318402

> <r_epik_Ionization_Penalty_Charging>
0

> <r_epik_Ionization_Penalty_Neutral>
0.00318402

> <r_epik_State_Penalty>
0.00215642

> <r_epik_Charging_Adjusted_Penalty>
0.00215642

> <i_epik_Tot_Q>
0

> <i_epik_Tot_abs_Q>
0

> <r_epik_Metal_State_Penalty>
-0

> <b_epik_Metal_Only>
0

> <s_lp_Force_Field>
OPLS_2005

> <r_lp_Energy>
54.9877

> <b_lp_Chiralities_Consistent>
1

> <s_lp_Variant>
AV-unprocessed.smi:229-5

> <Gold.Version>
5.8.1

> <Gold.Id.Protein>
6NUR|6NUR_protein|mol2

> <Gold.PLP.Fitness>
48.4580

> <Gold.PLP.PLP>
-41.0699

> <Gold.PLP.part.hbond>
-4.3718

> <Gold.PLP.part.metal>
0.0000

> <Gold.PLP.part.buried>
2.1450

> <Gold.PLP.part.nonpolar>
-37.7083

> <Gold.PLP.part.repulsive>
1.2363

> <Gold.PLP.ligand.clash>
0.0000

> <Gold.PLP.ligand.torsion>
0.3924

> <Gold.PLP.Chemscore.Hbond>
2.4675

> <Gold.PLP.Chemscore.CHOScore>
0.1380

> <Gold.PLP.Chemscore.Metal>
0.0000

> <Gold.Chemscore.Hbonds>
donor molecule, donor type, donor heavy atom, donor atom, acceptor molecule, acceptor atom, score
      L1  H    17    43       P1  7957  1.00
      P1  H  7989  7998       L1     9  0.44
      P1  H  7997  8008       L1     7  1.00
      L1  C    13    39       P1  8028  0.14

> <Gold.PLP.Chemscore.Internal.Correction>
0.3566

> <Gold.Rescore>
     Score         DG    S(hbond)    S(metal)    S(lipo)     H(rot)  DE(clash)    DE(int)     intcor
     15.06     -17.43       1.70        0.00     107.24       2.46       1.83       0.54       ----

> <Gold.Chemscore.Fitness>
15.0574

> <Gold.Chemscore.DG>
-17.4253

> <Gold.Chemscore.ZeroCoef>
-5.4800

> <Gold.Chemscore.Hbond>
1.7046

> <Gold.Chemscore.Metal>
0.0000

> <Gold.Chemscore.Lipo>
107.2412

> <Gold.Chemscore.Internal_Hbond>
0.0000

> <Gold.Chemscore.DEClash>
1.8262

> <Gold.Chemscore.DEInternal>
0.5418

> <Gold.Chemscore.Rot>
2.4591

> <Gold.Chemscore.Internal.Correction>
   9.000000E+99

> <Gold.Chemscore.Hbonds>
donor molecule, donor type, donor heavy atom, donor atom, acceptor molecule, acceptor atom, score
      L1  H    17    43       P1  7957  0.88
      P1  H  7997  8008       L1     7  0.81

> <Gold.Chemscore.Hbond.Weighted>
-5.6935

> <Gold.Chemscore.Metal.Weighted>
-0.0000

> <Gold.Chemscore.Lipo.Weighted>
-12.5472

> <Gold.Chemscore.Internal_Hbond.Weighted>
0.0000

> <Gold.Chemscore.DEClash.Weighted>
1.8262

> <Gold.Chemscore.DEInternal.Weighted>
0.5418

> <Gold.Chemscore.Rot.Weighted>
6.2953

> <Gold.Chemscore.Internal.Correction.Weighted>
   9.000000E+99

> <Gold.Protein.RotatedTorsions>
[ 6907 6896 6895 6894 ] final  137.19 input  -60.11 | X-H torsion
[ 7974 7965 7964 7962 ] final  127.72 input  175.53 | X-H torsion
[ 8008 7997 7996 7995 ] final  -58.73 input   59.86 | X-H torsion
[ 10167 10162 10161 10158 ] final  -28.20 input  -65.29 | X-H torsion
[ 10718 10713 10712 10709 ] final  146.00 input   66.30 | X-H torsion
[ 10763 10752 10751 10750 ] final -131.48 input  -60.55 | X-H torsion
[ 11005 11000 10999 10996 ] final  -89.94 input  -57.11 | X-H torsion

> <Gold.Protein.ActiveResidues>
 VAL166  LYS551  ARG553  GLY616  TRP617  ASP618  TYR619  PRO620  LYS621  CYS622 
 ASP623  PHE694  ASN695  SER759  ASP760  ASP761  ALA762  ILE779  LEU786  VAL792 
 PHE793  MET794  SER795  GLU796  ALA797  LYS798  CYS799  TRP800  GLU811  SER814 

> <Gold.Protein.RotatedAtoms>
  152.2809  133.5469  159.5496 H   0  0  0  0  0  0  0  0  0  0  0  0  # atno 6907 bound_to 6896
  150.7195  134.0565  159.3825 H   0  0  0  0  0  0  0  0  0  0  0  0  # atno 6908 bound_to 6896
  151.8476  135.0569  160.0506 H   0  0  0  0  0  0  0  0  0  0  0  0  # atno 6909 bound_to 6896
  145.0474  139.3911  143.5071 H   0  0  0  0  0  0  0  0  0  0  0  0  # atno 7974 bound_to 7965
  154.4321  140.1077  156.6003 H   0  0  0  0  0  0  0  0  0  0  0  0  # atno 8008 bound_to 7997
  155.5918  140.3492  155.4550 H   0  0  0  0  0  0  0  0  0  0  0  0  # atno 8009 bound_to 7997
  156.0241  140.1246  157.0317 H   0  0  0  0  0  0  0  0  0  0  0  0  # atno 8010 bound_to 7997
  140.7272  143.4030  151.1233 H   0  0  0  0  0  0  0  0  0  0  0  0  # atno 10167 bound_to 10162
  157.3385  131.0932  151.1102 H   0  0  0  0  0  0  0  0  0  0  0  0  # atno 10718 bound_to 10713
  154.8750  135.3828  154.4254 H   0  0  0  0  0  0  0  0  0  0  0  0  # atno 10763 bound_to 10752
  153.4953  135.7030  153.5866 H   0  0  0  0  0  0  0  0  0  0  0  0  # atno 10764 bound_to 10752
  153.4222  135.3899  155.2085 H   0  0  0  0  0  0  0  0  0  0  0  0  # atno 10765 bound_to 10752
  141.1575  133.7661  156.9666 H   0  0  0  0  0  0  0  0  0  0  0  0  # atno 11005 bound_to 11000
  146.3515  140.0107  142.8667 LP  0  0  0  0  0  0  0  0  0  0  0  0  # atno 17320 bound_to 7965
  145.1570  140.9653  143.4399 LP  0  0  0  0  0  0  0  0  0  0  0  0  # atno 17321 bound_to 7965
  139.7652  143.8575  152.3109 LP  0  0  0  0  0  0  0  0  0  0  0  0  # atno 17342 bound_to 10162
  139.8475  144.7180  150.9255 LP  0  0  0  0  0  0  0  0  0  0  0  0  # atno 17343 bound_to 10162
  157.2323  130.6531  149.5855 LP  0  0  0  0  0  0  0  0  0  0  0  0  # atno 17370 bound_to 10713
  155.9704  130.4595  150.6037 LP  0  0  0  0  0  0  0  0  0  0  0  0  # atno 17371 bound_to 10713
  140.1157  134.9449  157.2131 LP  0  0  0  0  0  0  0  0  0  0  0  0  # atno 17394 bound_to 11000
  140.3136  134.2995  155.7261 LP  0  0  0  0  0  0  0  0  0  0  0  0  # atno 17395 bound_to 11000

$$$$
