AV-unprocessed.smi:3197|AV-procd|sdf|12225|dock8
  -GOLD-   2272018 53D 1   1.00000     0.00000
 Structure written by MMmdl.
 33 34  0  0  0  0  0  0  0  0  1 V2000
  144.6285  132.4459  150.7834 C   0  0  0  0  0  0  0  0  0  0  0  0
  146.0275  132.6145  150.7982 C   0  0  0  0  0  0  0  0  0  0  0  0
  146.5988  133.7881  151.1471 N   0  0  0  0  0  0  0  0  0  0  0  0
  145.7781  134.7878  151.4794 C   0  0  0  0  0  0  0  0  0  0  0  0
  146.3960  135.9733  151.8295 N   0  0  0  0  0  0  0  0  0  0  0  0
  145.6851  137.1986  152.1624 C   0  0  0  0  0  0  0  0  0  0  0  0
  146.4912  138.4422  151.7734 C   0  0  0  0  0  0  0  0  0  0  0  0
  147.4484  138.7127  152.7841 O   0  0  0  0  0  0  0  0  0  0  0  0
  146.9346  139.5330  153.8203 C   0  0  0  0  0  0  0  0  0  0  0  0
  148.0873  139.9633  154.7384 C   0  0  2  0  0  0  0  0  0  0  0  0
  148.3963  141.4454  154.6867 C   0  0  0  0  0  0  0  0  0  0  0  0
  149.8057  141.4913  155.2681 C   0  0  0  0  0  0  0  0  0  0  0  0
  150.4230  140.2668  154.8820 O   0  0  0  0  0  0  0  0  0  0  0  0
  149.4455  139.3675  154.3655 C   0  0  0  0  0  0  0  0  0  0  0  0
  144.4404  134.7402  151.4997 N   0  0  0  0  0  0  0  0  0  0  0  0
  143.8626  133.5696  151.1525 C   0  0  0  0  0  0  0  0  0  0  0  0
  144.1692  131.5091  150.5052 H   0  0  0  0  0  0  0  0  0  0  0  0
  146.6903  131.8056  150.5290 H   0  0  0  0  0  0  0  0  0  0  0  0
  147.4031  135.9689  151.8998 H   0  0  0  0  0  0  0  0  0  0  0  0
  144.7357  137.2017  151.6259 H   0  0  0  0  0  0  0  0  0  0  0  0
  145.4526  137.2141  153.2278 H   0  0  0  0  0  0  0  0  0  0  0  0
  146.9747  138.2990  150.8056 H   0  0  0  0  0  0  0  0  0  0  0  0
  145.8176  139.2951  151.6784 H   0  0  0  0  0  0  0  0  0  0  0  0
  146.4357  140.4072  153.3983 H   0  0  0  0  0  0  0  0  0  0  0  0
  146.1917  138.9780  154.3953 H   0  0  0  0  0  0  0  0  0  0  0  0
  147.8521  139.6937  155.7695 H   0  0  0  0  0  0  0  0  0  0  0  0
  148.4070  141.7973  153.6539 H   0  0  0  0  0  0  0  0  0  0  0  0
  147.6858  142.0529  155.2483 H   0  0  0  0  0  0  0  0  0  0  0  0
  150.3740  142.3532  154.9178 H   0  0  0  0  0  0  0  0  0  0  0  0
  149.7661  141.5313  156.3573 H   0  0  0  0  0  0  0  0  0  0  0  0
  149.5812  138.3616  154.7633 H   0  0  0  0  0  0  0  0  0  0  0  0
  149.5639  139.3196  153.2821 H   0  0  0  0  0  0  0  0  0  0  0  0
  142.7836  133.5292  151.1691 H   0  0  0  0  0  0  0  0  0  0  0  0
  1 16  1  0  0  0  0
  1  2  2  0  0  0  0
  1 17  1  0  0  0  0
  2  3  1  0  0  0  0
  2 18  1  0  0  0  0
  3  4  2  0  0  0  0
  4  5  1  0  0  0  0
  4 15  1  0  0  0  0
  5  6  1  0  0  0  0
  5 19  1  0  0  0  0
  6  7  1  0  0  0  0
  6 20  1  0  0  0  0
  6 21  1  0  0  0  0
  7  8  1  0  0  0  0
  7 22  1  0  0  0  0
  7 23  1  0  0  0  0
  8  9  1  0  0  0  0
  9 10  1  0  0  0  0
  9 24  1  0  0  0  0
  9 25  1  0  0  0  0
 10 14  1  0  0  0  0
 10 11  1  0  0  0  0
 10 26  1  0  0  0  0
 11 12  1  0  0  0  0
 11 27  1  0  0  0  0
 11 28  1  0  0  0  0
 12 13  1  0  0  0  0
 12 29  1  0  0  0  0
 12 30  1  0  0  0  0
 13 14  1  0  0  0  0
 14 31  1  0  0  0  0
 14 32  1  0  0  0  0
 15 16  2  0  0  0  0
 16 33  1  0  0  0  0
M  END
> <s_m_source_file>
AV-unprocessed.smi

> <i_m_source_file_index>
3197

> <i_lp_mmshare_version>
43012

> <i_f3d_flags>
0

> <s_epik_input>
bjFbY0hdW2NIXVtjSF1uYzFbTkhdW0NIMl1bQ0gyXU9bQ0gyXVtDQEBIXTJbQ0gyXVtDSDJdT1tDSDJdMg==

> <s_epik_cmdline>
J2VwaWtfcHl0aG9uJywgJy1waCcsICc3LjAnLCAnLXRuJywgJzgnLCAnLW1hJywgJzIwMCcsICctbWV0YWxfYmluZGluZycsICctaW1hZScsICc8aW5maWxlLm1hZT4nLCAnLW9tYWUnLCAnPG91dGZpbGUubWFlPic=

> <r_lp_tautomer_probability>
1

> <r_epik_Ionization_Penalty>
0.000570263

> <r_epik_Ionization_Penalty_Charging>
0

> <r_epik_Ionization_Penalty_Neutral>
0.000570263

> <r_epik_State_Penalty>
0.000357543

> <r_epik_Charging_Adjusted_Penalty>
0.000357543

> <i_epik_Tot_Q>
0

> <i_epik_Tot_abs_Q>
0

> <r_epik_Metal_State_Penalty>
-0

> <b_epik_Metal_Only>
0

> <s_lp_Force_Field>
OPLS_2005

> <r_lp_Energy>
12.4723

> <b_lp_Chiralities_Consistent>
1

> <s_lp_Variant>
AV-unprocessed.smi:3197-1

> <Gold.Version>
5.8.1

> <Gold.Id.Protein>
6NUR|6NUR_protein|mol2

> <Gold.PLP.Fitness>
37.8154

> <Gold.PLP.PLP>
-28.2040

> <Gold.PLP.part.hbond>
-2.0000

> <Gold.PLP.part.metal>
0.0000

> <Gold.PLP.part.buried>
-5.8593

> <Gold.PLP.part.nonpolar>
-24.1495

> <Gold.PLP.part.repulsive>
2.4045

> <Gold.PLP.ligand.clash>
0.0000

> <Gold.PLP.ligand.torsion>
1.2175

> <Gold.PLP.Chemscore.Hbond>
2.0000

> <Gold.PLP.Chemscore.CHOScore>
2.0000

> <Gold.PLP.Chemscore.Metal>
0.0000

> <Gold.Chemscore.Hbonds>
donor molecule, donor type, donor heavy atom, donor atom, acceptor molecule, acceptor atom, score
      L1  H     5    19       P1  7948  1.00
      P1  H  7989  7998       L1    13  1.00
      L1  C     2    18       P1 10747  1.00
      L1  C    16    33       P1 10186  0.94

> <Gold.PLP.Chemscore.Internal.Correction>
0.0465

> <Gold.Rescore>
     Score         DG    S(hbond)    S(metal)    S(lipo)     H(rot)  DE(clash)    DE(int)     intcor
     13.08     -14.57       1.78        0.00      67.84       1.88       0.18       1.30       ----

> <Gold.Chemscore.Fitness>
13.0849

> <Gold.Chemscore.DG>
-14.5653

> <Gold.Chemscore.ZeroCoef>
-5.4800

> <Gold.Chemscore.Hbond>
1.7835

> <Gold.Chemscore.Metal>
0.0000

> <Gold.Chemscore.Lipo>
67.8373

> <Gold.Chemscore.Internal_Hbond>
0.0000

> <Gold.Chemscore.DEClash>
0.1778

> <Gold.Chemscore.DEInternal>
1.3025

> <Gold.Chemscore.Rot>
1.8784

> <Gold.Chemscore.Internal.Correction>
   9.000000E+99

> <Gold.Chemscore.Hbonds>
donor molecule, donor type, donor heavy atom, donor atom, acceptor molecule, acceptor atom, score
      L1  H     5    19       P1  7948  0.94
      P1  H  7989  7998       L1    13  0.23

> <Gold.Chemscore.Hbond.Weighted>
-5.9570

> <Gold.Chemscore.Metal.Weighted>
-0.0000

> <Gold.Chemscore.Lipo.Weighted>
-7.9370

> <Gold.Chemscore.Internal_Hbond.Weighted>
0.0000

> <Gold.Chemscore.DEClash.Weighted>
0.1778

> <Gold.Chemscore.DEInternal.Weighted>
1.3025

> <Gold.Chemscore.Rot.Weighted>
4.8087

> <Gold.Chemscore.Internal.Correction.Weighted>
   9.000000E+99

> <Gold.Protein.RotatedTorsions>
[ 6907 6896 6895 6894 ] final   -2.24 input  -60.11 | X-H torsion
[ 7974 7965 7964 7962 ] final   51.88 input  175.53 | X-H torsion
[ 8008 7997 7996 7995 ] final  -59.07 input   59.86 | X-H torsion
[ 10167 10162 10161 10158 ] final  -44.95 input  -65.29 | X-H torsion
[ 10718 10713 10712 10709 ] final  -74.48 input   66.30 | X-H torsion
[ 10763 10752 10751 10750 ] final  157.11 input  -60.55 | X-H torsion
[ 11005 11000 10999 10996 ] final  134.58 input  -57.11 | X-H torsion

> <Gold.Protein.ActiveResidues>
 VAL166  LYS551  ARG553  GLY616  TRP617  ASP618  TYR619  PRO620  LYS621  CYS622 
 ASP623  PHE694  ASN695  SER759  ASP760  ASP761  ALA762  ILE779  LEU786  VAL792 
 PHE793  MET794  SER795  GLU796  ALA797  LYS798  CYS799  TRP800  GLU811  SER814 

> <Gold.Protein.RotatedAtoms>
  151.5330  135.1068  159.9907 H   0  0  0  0  0  0  0  0  0  0  0  0  # atno 6907 bound_to 6896
  152.4570  133.7738  159.6824 H   0  0  0  0  0  0  0  0  0  0  0  0  # atno 6908 bound_to 6896
  150.8517  133.7712  159.3048 H   0  0  0  0  0  0  0  0  0  0  0  0  # atno 6909 bound_to 6896
  145.9869  139.4299  143.0097 H   0  0  0  0  0  0  0  0  0  0  0  0  # atno 7974 bound_to 7965
  154.4336  140.1070  156.6057 H   0  0  0  0  0  0  0  0  0  0  0  0  # atno 8008 bound_to 7997
  155.5863  140.3491  155.4535 H   0  0  0  0  0  0  0  0  0  0  0  0  # atno 8009 bound_to 7997
  156.0280  140.1254  157.0277 H   0  0  0  0  0  0  0  0  0  0  0  0  # atno 8010 bound_to 7997
  140.6877  143.2904  151.3569 H   0  0  0  0  0  0  0  0  0  0  0  0  # atno 10167 bound_to 10162
  156.0241  130.4418  150.2898 H   0  0  0  0  0  0  0  0  0  0  0  0  # atno 10718 bound_to 10713
  154.1950  135.2793  155.3009 H   0  0  0  0  0  0  0  0  0  0  0  0  # atno 10763 bound_to 10752
  154.5899  135.5563  153.7271 H   0  0  0  0  0  0  0  0  0  0  0  0  # atno 10764 bound_to 10752
  153.0102  135.6365  154.2088 H   0  0  0  0  0  0  0  0  0  0  0  0  # atno 10765 bound_to 10752
  139.9924  134.9510  156.9887 H   0  0  0  0  0  0  0  0  0  0  0  0  # atno 11005 bound_to 11000
  145.7688  140.9905  143.1161 LP  0  0  0  0  0  0  0  0  0  0  0  0  # atno 17320 bound_to 7965
  144.6877  139.9421  143.7475 LP  0  0  0  0  0  0  0  0  0  0  0  0  # atno 17321 bound_to 7965
  139.6250  144.0832  152.2426 LP  0  0  0  0  0  0  0  0  0  0  0  0  # atno 17342 bound_to 10162
  140.0288  144.6097  150.7505 LP  0  0  0  0  0  0  0  0  0  0  0  0  # atno 17343 bound_to 10162
  157.1001  131.0193  151.3088 LP  0  0  0  0  0  0  0  0  0  0  0  0  # atno 17370 bound_to 10713
  157.4786  130.7751  149.7392 LP  0  0  0  0  0  0  0  0  0  0  0  0  # atno 17371 bound_to 10713
  140.4882  134.1220  155.7228 LP  0  0  0  0  0  0  0  0  0  0  0  0  # atno 17394 bound_to 11000
  141.1577  133.8852  157.1933 LP  0  0  0  0  0  0  0  0  0  0  0  0  # atno 17395 bound_to 11000

$$$$
