AV-unprocessed.smi:637|AV-procd|sdf|3142|dock9
  -GOLD-   22720 0 73D 1   1.00000     0.00000
 Structure written by MMmdl.
 38 40  0  0  0  0  0  0  0  0  1 V2000
  155.9894  141.9469  167.0946 C   0  0  0  0  0  0  0  0  0  0  0  0
  155.5615  140.7422  166.3273 C   0  0  0  0  0  0  0  0  0  0  0  0
  155.4091  139.4595  166.7947 C   0  0  0  0  0  0  0  0  0  0  0  0
  154.9807  138.5381  165.7933 C   0  0  0  0  0  0  0  0  0  0  0  0
  154.8184  139.1487  164.5724 C   0  0  0  0  0  0  0  0  0  0  0  0
  154.3684  138.4047  163.4075 C   0  0  0  0  0  0  0  0  0  0  0  0
  154.2746  136.9550  163.4211 C   0  0  0  0  0  0  0  0  0  0  0  0
  153.8941  136.3085  162.2980 C   0  0  0  0  0  0  0  0  0  0  0  0
  153.5756  137.0269  161.0657 C   0  0  0  0  0  0  0  0  0  0  0  0
  153.2604  136.4641  160.0177 O   0  0  0  0  0  0  0  0  0  0  0  0
  153.6754  138.3830  161.1795 N   0  0  0  0  0  0  0  0  0  0  0  0
  153.4480  139.2602  160.0230 C   0  0  0  0  0  0  0  0  0  0  0  0
  153.4609  140.7592  160.4048 C   0  0  1  0  0  0  0  0  0  0  0  0
  154.7989  141.1526  160.6317 O   0  0  0  0  0  0  0  0  0  0  0  0
  152.7710  141.6359  159.3670 C   0  0  0  0  0  0  0  0  0  0  0  0
  152.0622  141.0523  158.2935 C   0  0  0  0  0  0  0  0  0  0  0  0
  151.3827  141.8653  157.3659 C   0  0  0  0  0  0  0  0  0  0  0  0
  151.4081  143.2661  157.5059 C   0  0  0  0  0  0  0  0  0  0  0  0
  152.1144  143.8537  158.5728 C   0  0  0  0  0  0  0  0  0  0  0  0
  152.1348  145.2004  158.7108 F   0  0  0  0  0  0  0  0  0  0  0  0
  152.7950  143.0412  159.5001 C   0  0  0  0  0  0  0  0  0  0  0  0
  154.0533  139.0509  162.3315 N   0  0  0  0  0  0  0  0  0  0  0  0
  155.1793  140.8523  164.6262 S   0  0  0  0  0  0  0  0  0  0  0  0
  156.1014  141.7190  168.1549 H   0  0  0  0  0  0  0  0  0  0  0  0
  155.2552  142.7471  166.9989 H   0  0  0  0  0  0  0  0  0  0  0  0
  156.9455  142.3195  166.7269 H   0  0  0  0  0  0  0  0  0  0  0  0
  155.5866  139.1527  167.8150 H   0  0  0  0  0  0  0  0  0  0  0  0
  154.8129  137.4941  166.0168 H   0  0  0  0  0  0  0  0  0  0  0  0
  154.5069  136.3992  164.3171 H   0  0  0  0  0  0  0  0  0  0  0  0
  153.8252  135.2307  162.3078 H   0  0  0  0  0  0  0  0  0  0  0  0
  154.1886  139.0630  159.2456 H   0  0  0  0  0  0  0  0  0  0  0  0
  152.4863  139.0099  159.5702 H   0  0  0  0  0  0  0  0  0  0  0  0
  152.9392  140.8813  161.3548 H   0  0  0  0  0  0  0  0  0  0  0  0
  155.2420  141.1987  159.7981 H   0  0  0  0  0  0  0  0  0  0  0  0
  152.0260  139.9779  158.1873 H   0  0  0  0  0  0  0  0  0  0  0  0
  150.8376  141.4141  156.5502 H   0  0  0  0  0  0  0  0  0  0  0  0
  150.8841  143.8892  156.7964 H   0  0  0  0  0  0  0  0  0  0  0  0
  153.3224  143.5003  160.3235 H   0  0  0  0  0  0  0  0  0  0  0  0
  1  2  1  0  0  0  0
  1 24  1  0  0  0  0
  1 25  1  0  0  0  0
  1 26  1  0  0  0  0
  2 23  1  0  0  0  0
  2  3  2  0  0  0  0
  3  4  1  0  0  0  0
  3 27  1  0  0  0  0
  4  5  2  0  0  0  0
  4 28  1  0  0  0  0
  5  6  1  0  0  0  0
  5 23  1  0  0  0  0
  6 22  2  0  0  0  0
  6  7  1  0  0  0  0
  7  8  2  0  0  0  0
  7 29  1  0  0  0  0
  8  9  1  0  0  0  0
  8 30  1  0  0  0  0
  9 10  2  0  0  0  0
  9 11  1  0  0  0  0
 11 12  1  0  0  0  0
 11 22  1  0  0  0  0
 12 13  1  0  0  0  0
 12 31  1  0  0  0  0
 12 32  1  0  0  0  0
 13 14  1  0  0  0  0
 13 15  1  0  0  0  0
 13 33  1  0  0  0  0
 14 34  1  0  0  0  0
 15 21  1  0  0  0  0
 15 16  2  0  0  0  0
 16 17  1  0  0  0  0
 16 35  1  0  0  0  0
 17 18  2  0  0  0  0
 17 36  1  0  0  0  0
 18 19  1  0  0  0  0
 18 37  1  0  0  0  0
 19 20  1  0  0  0  0
 19 21  2  0  0  0  0
 21 38  1  0  0  0  0
M  END
> <s_m_source_file>
AV-unprocessed.smi

> <i_m_source_file_index>
637

> <i_lp_mmshare_version>
43012

> <i_f3d_flags>
0

> <s_epik_input>
W0NIM11jMVtjSF1bY0hdYyhzMSktYzJbY0hdW2NIXWMoPU8pbihuMilbQ0gyXVtDQEhdKFtPSF0pYzNbY0hdW2NIXVtjSF1jKEYpW2NIXTM=

> <s_epik_cmdline>
J2VwaWtfcHl0aG9uJywgJy1waCcsICc3LjAnLCAnLXRuJywgJzgnLCAnLW1hJywgJzIwMCcsICctbWV0YWxfYmluZGluZycsICctaW1hZScsICc8aW5maWxlLm1hZT4nLCAnLW9tYWUnLCAnPG91dGZpbGUubWFlPic=

> <r_lp_tautomer_probability>
1

> <r_epik_Ionization_Penalty>
2.26963e-07

> <r_epik_Ionization_Penalty_Charging>
5.89185e-08

> <r_epik_Ionization_Penalty_Neutral>
1.68044e-07

> <r_epik_State_Penalty>
-0

> <r_epik_Charging_Adjusted_Penalty>
5.89185e-08

> <i_epik_Tot_Q>
0

> <i_epik_Tot_abs_Q>
0

> <r_epik_Metal_State_Penalty>
-0

> <b_epik_Metal_Only>
0

> <s_lp_Force_Field>
OPLS_2005

> <r_lp_Energy>
25.403

> <b_lp_Chiralities_Consistent>
1

> <s_lp_Variant>
AV-unprocessed.smi:637-2

> <Gold.Version>
5.8.1

> <Gold.Id.Protein>
6NUR|6NUR_protein|mol2

> <Gold.PLP.Fitness>
50.9386

> <Gold.PLP.PLP>
-48.6458

> <Gold.PLP.part.hbond>
-1.8106

> <Gold.PLP.part.metal>
0.0000

> <Gold.PLP.part.buried>
-6.0825

> <Gold.PLP.part.nonpolar>
-40.9830

> <Gold.PLP.part.repulsive>
0.0000

> <Gold.PLP.ligand.clash>
0.0000

> <Gold.PLP.ligand.torsion>
0.3725

> <Gold.PLP.Chemscore.Hbond>
1.0000

> <Gold.PLP.Chemscore.CHOScore>
0.0000

> <Gold.PLP.Chemscore.Metal>
0.0000

> <Gold.Chemscore.Hbonds>
donor molecule, donor type, donor heavy atom, donor atom, acceptor molecule, acceptor atom, score
      P1  H  6896  6909       L1    10  1.00

> <Gold.PLP.Chemscore.Internal.Correction>
0.0378

> <Gold.Rescore>
     Score         DG    S(hbond)    S(metal)    S(lipo)     H(rot)  DE(clash)    DE(int)     intcor
     16.40     -18.37       1.00        0.00     121.47       1.82       0.05       1.92       ----

> <Gold.Chemscore.Fitness>
16.3970

> <Gold.Chemscore.DG>
-18.3667

> <Gold.Chemscore.ZeroCoef>
-5.4800

> <Gold.Chemscore.Hbond>
1.0000

> <Gold.Chemscore.Metal>
0.0000

> <Gold.Chemscore.Lipo>
121.4670

> <Gold.Chemscore.Internal_Hbond>
0.0000

> <Gold.Chemscore.DEClash>
0.0460

> <Gold.Chemscore.DEInternal>
1.9237

> <Gold.Chemscore.Rot>
1.8222

> <Gold.Chemscore.Internal.Correction>
   9.000000E+99

> <Gold.Chemscore.Hbonds>
donor molecule, donor type, donor heavy atom, donor atom, acceptor molecule, acceptor atom, score
      P1  H  6896  6909       L1    10  0.98

> <Gold.Chemscore.Hbond.Weighted>
-3.3400

> <Gold.Chemscore.Metal.Weighted>
-0.0000

> <Gold.Chemscore.Lipo.Weighted>
-14.2116

> <Gold.Chemscore.Internal_Hbond.Weighted>
0.0000

> <Gold.Chemscore.DEClash.Weighted>
0.0460

> <Gold.Chemscore.DEInternal.Weighted>
1.9237

> <Gold.Chemscore.Rot.Weighted>
4.6649

> <Gold.Chemscore.Internal.Correction.Weighted>
   9.000000E+99

> <Gold.Protein.RotatedTorsions>
[ 6907 6896 6895 6894 ] final  157.20 input  -60.11 | X-H torsion
[ 7974 7965 7964 7962 ] final    1.28 input  175.53 | X-H torsion
[ 8008 7997 7996 7995 ] final -169.47 input   59.86 | X-H torsion
[ 10167 10162 10161 10158 ] final  -37.77 input  -65.29 | X-H torsion
[ 10718 10713 10712 10709 ] final    3.53 input   66.30 | X-H torsion
[ 10763 10752 10751 10750 ] final -129.32 input  -60.55 | X-H torsion
[ 11005 11000 10999 10996 ] final   68.51 input  -57.11 | X-H torsion

> <Gold.Protein.ActiveResidues>
 VAL166  LYS551  ARG553  GLY616  TRP617  ASP618  TYR619  PRO620  LYS621  CYS622 
 ASP623  PHE694  ASN695  SER759  ASP760  ASP761  ALA762  ILE779  LEU786  VAL792 
 PHE793  MET794  SER795  GLU796  ALA797  LYS798  CYS799  TRP800  GLU811  SER814 

> <Gold.Protein.RotatedAtoms>
  152.0185  133.3889  159.4248 H   0  0  0  0  0  0  0  0  0  0  0  0  # atno 6907 bound_to 6896
  150.6892  134.3652  159.4977 H   0  0  0  0  0  0  0  0  0  0  0  0  # atno 6908 bound_to 6896
  152.1422  134.9053  160.0604 H   0  0  0  0  0  0  0  0  0  0  0  0  # atno 6909 bound_to 6896
  146.2439  140.1010  142.8348 H   0  0  0  0  0  0  0  0  0  0  0  0  # atno 7974 bound_to 7965
  155.9053  140.1048  157.1319 H   0  0  0  0  0  0  0  0  0  0  0  0  # atno 8008 bound_to 7997
  154.4032  140.1284  156.4553 H   0  0  0  0  0  0  0  0  0  0  0  0  # atno 8009 bound_to 7997
  155.7374  140.3467  155.5090 H   0  0  0  0  0  0  0  0  0  0  0  0  # atno 8010 bound_to 7997
  140.7110  143.3320  151.2547 H   0  0  0  0  0  0  0  0  0  0  0  0  # atno 10167 bound_to 10162
  156.8792  130.5647  149.5654 H   0  0  0  0  0  0  0  0  0  0  0  0  # atno 10718 bound_to 10713
  154.8757  135.3899  154.3901 H   0  0  0  0  0  0  0  0  0  0  0  0  # atno 10763 bound_to 10752
  153.4638  135.7029  153.6039 H   0  0  0  0  0  0  0  0  0  0  0  0  # atno 10764 bound_to 10752
  153.4527  135.3830  155.2261 H   0  0  0  0  0  0  0  0  0  0  0  0  # atno 10765 bound_to 10752
  139.9707  134.6905  156.0453 H   0  0  0  0  0  0  0  0  0  0  0  0  # atno 11005 bound_to 11000
  145.0568  140.9059  143.4962 LP  0  0  0  0  0  0  0  0  0  0  0  0  # atno 17320 bound_to 7965
  145.1118  139.2752  143.5633 LP  0  0  0  0  0  0  0  0  0  0  0  0  # atno 17321 bound_to 7965
  139.6805  143.9863  152.2805 LP  0  0  0  0  0  0  0  0  0  0  0  0  # atno 17342 bound_to 10162
  139.9491  144.6632  150.8189 LP  0  0  0  0  0  0  0  0  0  0  0  0  # atno 17343 bound_to 10162
  156.0686  130.5724  150.9338 LP  0  0  0  0  0  0  0  0  0  0  0  0  # atno 17370 bound_to 10713
  157.6150  131.0934  150.8726 LP  0  0  0  0  0  0  0  0  0  0  0  0  # atno 17371 bound_to 10713
  141.1387  133.6569  156.3666 LP  0  0  0  0  0  0  0  0  0  0  0  0  # atno 17394 bound_to 11000
  140.5299  134.6222  157.5346 LP  0  0  0  0  0  0  0  0  0  0  0  0  # atno 17395 bound_to 11000

$$$$
