AV-unprocessed.smi:1424|AV-procd|sdf|5802|dock4
  -GOLD-   22720 5453D 1   1.00000     0.00000
 Structure written by MMmdl.
 46 48  0  0  0  0  0  0  0  0  2 V2000
  144.4459  136.5339  151.7403 O   0  0  0  0  0  0  0  0  0  0  0  0
  145.6507  136.3023  151.8399 C   0  0  0  0  0  0  0  0  0  0  0  0
  146.5693  137.2465  152.0874 N   0  0  0  0  0  0  0  0  0  0  0  0
  146.2814  138.6665  152.2611 C   0  0  0  0  0  0  0  0  0  0  0  0
  147.5150  139.4527  152.7465 C   0  0  1  0  0  0  0  0  0  0  0  0
  147.1516  140.8601  153.2572 C   0  0  0  0  0  0  0  0  0  0  0  0
  148.3753  141.4536  153.9614 C   0  0  0  0  0  0  0  0  0  0  0  0
  149.2106  140.0392  154.7700 S   0  0  0  0  0  0  0  0  0  0  0  0
  150.6251  140.0225  154.3681 O   0  0  0  0  0  0  0  0  0  0  0  0
  148.8248  139.9875  156.1882 O   0  0  0  0  0  0  0  0  0  0  0  0
  148.2988  138.7347  153.8594 C   0  0  0  0  0  0  0  0  0  0  0  0
  146.2199  135.0942  151.6936 N   0  0  0  0  0  0  0  0  0  0  0  0
  145.5838  133.8555  151.3955 C   0  0  0  0  0  0  0  0  0  0  0  0
  144.5208  133.7832  150.4586 C   0  0  0  0  0  0  0  0  0  0  0  0
  143.9223  132.5431  150.1673 C   0  0  0  0  0  0  0  0  0  0  0  0
  144.3920  131.3916  150.8211 C   0  0  0  0  0  0  0  0  0  0  0  0
  145.3904  131.4953  151.7223 N   0  3  0  0  0  0  0  0  0  0  0  0
  145.9973  132.6617  152.0568 C   0  0  0  0  0  0  0  0  0  0  0  0
  147.0228  132.6139  153.0291 N   0  0  0  0  0  0  0  0  0  0  0  0
  148.3216  133.2222  152.7643 C   0  0  0  0  0  0  0  0  0  0  0  0
  149.2416  132.6813  153.8553 C   0  0  0  0  0  0  0  0  0  0  0  0
  148.7145  131.2638  154.0560 C   0  0  0  0  0  0  0  0  0  0  0  0
  147.2071  131.3987  153.8160 C   0  0  0  0  0  0  0  0  0  0  0  0
  147.5377  136.9688  152.1515 H   0  0  0  0  0  0  0  0  0  0  0  0
  145.9072  139.0866  151.3257 H   0  0  0  0  0  0  0  0  0  0  0  0
  145.4707  138.7599  152.9843 H   0  0  0  0  0  0  0  0  0  0  0  0
  148.1956  139.5894  151.9047 H   0  0  0  0  0  0  0  0  0  0  0  0
  146.8054  141.5063  152.4501 H   0  0  0  0  0  0  0  0  0  0  0  0
  146.3348  140.7827  153.9761 H   0  0  0  0  0  0  0  0  0  0  0  0
  149.0669  141.8847  153.2370 H   0  0  0  0  0  0  0  0  0  0  0  0
  148.1194  142.2149  154.6982 H   0  0  0  0  0  0  0  0  0  0  0  0
  147.6252  138.2476  154.5650 H   0  0  0  0  0  0  0  0  0  0  0  0
  148.9964  137.9907  153.4749 H   0  0  0  0  0  0  0  0  0  0  0  0
  147.2292  135.0762  151.6982 H   0  0  0  0  0  0  0  0  0  0  0  0
  144.1486  134.6654  149.9597 H   0  0  0  0  0  0  0  0  0  0  0  0
  143.1157  132.4782  149.4516 H   0  0  0  0  0  0  0  0  0  0  0  0
  143.9975  130.3989  150.6590 H   0  0  0  0  0  0  0  0  0  0  0  0
  148.6939  132.9145  151.7860 H   0  0  0  0  0  0  0  0  0  0  0  0
  148.2649  134.3110  152.7855 H   0  0  0  0  0  0  0  0  0  0  0  0
  150.2952  132.7107  153.5764 H   0  0  0  0  0  0  0  0  0  0  0  0
  149.1154  133.2592  154.7722 H   0  0  0  0  0  0  0  0  0  0  0  0
  149.1486  130.6028  153.3045 H   0  0  0  0  0  0  0  0  0  0  0  0
  148.9524  130.8558  155.0388 H   0  0  0  0  0  0  0  0  0  0  0  0
  146.6886  131.5155  154.7682 H   0  0  0  0  0  0  0  0  0  0  0  0
  146.8052  130.5176  153.3141 H   0  0  0  0  0  0  0  0  0  0  0  0
  145.7024  130.6426  152.1872 H   0  0  0  0  0  0  0  0  0  0  0  0
  1  2  2  0  0  0  0
  2  3  1  0  0  0  0
  2 12  1  0  0  0  0
  3  4  1  0  0  0  0
  3 24  1  0  0  0  0
  4  5  1  0  0  0  0
  4 25  1  0  0  0  0
  4 26  1  0  0  0  0
  5 11  1  0  0  0  0
  5  6  1  0  0  0  0
  5 27  1  0  0  0  0
  6  7  1  0  0  0  0
  6 28  1  0  0  0  0
  6 29  1  0  0  0  0
  7  8  1  0  0  0  0
  7 30  1  0  0  0  0
  7 31  1  0  0  0  0
  8  9  2  0  0  0  0
  8 10  2  0  0  0  0
  8 11  1  0  0  0  0
 11 32  1  0  0  0  0
 11 33  1  0  0  0  0
 12 13  1  0  0  0  0
 12 34  1  0  0  0  0
 13 18  1  0  0  0  0
 13 14  2  0  0  0  0
 14 15  1  0  0  0  0
 14 35  1  0  0  0  0
 15 16  2  0  0  0  0
 15 36  1  0  0  0  0
 16 17  1  0  0  0  0
 16 37  1  0  0  0  0
 17 18  2  0  0  0  0
 17 46  1  0  0  0  0
 18 19  1  0  0  0  0
 19 23  1  0  0  0  0
 19 20  1  0  0  0  0
 20 21  1  0  0  0  0
 20 38  1  0  0  0  0
 20 39  1  0  0  0  0
 21 22  1  0  0  0  0
 21 40  1  0  0  0  0
 21 41  1  0  0  0  0
 22 23  1  0  0  0  0
 22 42  1  0  0  0  0
 22 43  1  0  0  0  0
 23 44  1  0  0  0  0
 23 45  1  0  0  0  0
M  CHG  1  17   1
M  END
> <s_m_source_file>
AV-unprocessed.smi

> <i_m_source_file_index>
1424

> <i_lp_mmshare_version>
43012

> <i_f3d_flags>
0

> <s_epik_input>
Tz1TMSg9TylbQ0gyXVtDSDJdW0NASF0oW0NIMl0xKVtDSDJdW05IXUMoPU8pW05IXWMyW2NIXVtjSF1bY0hdbmMyTjNbQ0gyXVtDSDJdW0NIMl1bQ0gyXTM=

> <s_epik_cmdline>
J2VwaWtfcHl0aG9uJywgJy1waCcsICc3LjAnLCAnLXRuJywgJzgnLCAnLW1hJywgJzIwMCcsICctbWV0YWxfYmluZGluZycsICctaW1hZScsICc8aW5maWxlLm1hZT4nLCAnLW9tYWUnLCAnPG91dGZpbGUubWFlPic=

> <r_lp_tautomer_probability>
0.999994

> <r_epik_Ionization_Penalty>
1.12573

> <r_epik_Ionization_Penalty_Charging>
1.12571

> <r_epik_Ionization_Penalty_Neutral>
1.92863e-05

> <r_epik_State_Penalty>
1.18495

> <r_epik_Charging_Adjusted_Penalty>
2.31065

> <i_epik_Tot_Q>
1

> <i_epik_Tot_abs_Q>
1

> <r_epik_Metal_State_Penalty>
1.26881

> <b_epik_Metal_Only>
0

> <s_lp_Force_Field>
OPLS_2005

> <r_lp_Energy>
39.7192

> <b_lp_Chiralities_Consistent>
1

> <s_lp_Variant>
AV-unprocessed.smi:1424-4

> <Gold.Version>
5.8.1

> <Gold.Id.Protein>
6NUR|6NUR_protein|mol2

> <Gold.PLP.Fitness>
47.5734

> <Gold.PLP.PLP>
-39.6667

> <Gold.PLP.part.hbond>
-3.0000

> <Gold.PLP.part.metal>
0.0000

> <Gold.PLP.part.buried>
-2.4505

> <Gold.PLP.part.nonpolar>
-36.4131

> <Gold.PLP.part.repulsive>
2.0780

> <Gold.PLP.ligand.clash>
0.0000

> <Gold.PLP.ligand.torsion>
0.6649

> <Gold.PLP.Chemscore.Hbond>
2.9440

> <Gold.PLP.Chemscore.CHOScore>
0.0000

> <Gold.PLP.Chemscore.Metal>
0.0000

> <Gold.Chemscore.Hbonds>
donor molecule, donor type, donor heavy atom, donor atom, acceptor molecule, acceptor atom, score
      L1  H     3    24       P1  7948  1.00
      L1  H    12    34       P1  7948  0.92
      P1  H  7989  7998       L1     9  1.00

> <Gold.PLP.Chemscore.Internal.Correction>
0.4046

> <Gold.Rescore>
     Score         DG    S(hbond)    S(metal)    S(lipo)     H(rot)  DE(clash)    DE(int)     intcor
     17.70     -21.77       2.88        0.00      89.87       1.50       2.39       1.68       ----

> <Gold.Chemscore.Fitness>
17.7047

> <Gold.Chemscore.DG>
-21.7748

> <Gold.Chemscore.ZeroCoef>
-5.4800

> <Gold.Chemscore.Hbond>
2.8773

> <Gold.Chemscore.Metal>
0.0000

> <Gold.Chemscore.Lipo>
89.8713

> <Gold.Chemscore.Internal_Hbond>
0.0000

> <Gold.Chemscore.DEClash>
2.3910

> <Gold.Chemscore.DEInternal>
1.6792

> <Gold.Chemscore.Rot>
1.4962

> <Gold.Chemscore.Internal.Correction>
   9.000000E+99

> <Gold.Chemscore.Hbonds>
donor molecule, donor type, donor heavy atom, donor atom, acceptor molecule, acceptor atom, score
      L1  H     3    24       P1  7948  0.99
      L1  H    12    34       P1  7948  0.75
      P1  H  7989  7998       L1     9  0.97

> <Gold.Chemscore.Hbond.Weighted>
-9.6102

> <Gold.Chemscore.Metal.Weighted>
-0.0000

> <Gold.Chemscore.Lipo.Weighted>
-10.5149

> <Gold.Chemscore.Internal_Hbond.Weighted>
0.0000

> <Gold.Chemscore.DEClash.Weighted>
2.3910

> <Gold.Chemscore.DEInternal.Weighted>
1.6792

> <Gold.Chemscore.Rot.Weighted>
3.8303

> <Gold.Chemscore.Internal.Correction.Weighted>
   9.000000E+99

> <Gold.Protein.RotatedTorsions>
[ 6907 6896 6895 6894 ] final  160.10 input  -60.11 | X-H torsion
[ 7974 7965 7964 7962 ] final -151.84 input  175.53 | X-H torsion
[ 8008 7997 7996 7995 ] final -150.97 input   59.86 | X-H torsion
[ 10167 10162 10161 10158 ] final  111.26 input  -65.29 | X-H torsion
[ 10718 10713 10712 10709 ] final -159.32 input   66.30 | X-H torsion
[ 10763 10752 10751 10750 ] final -131.58 input  -60.55 | X-H torsion
[ 11005 11000 10999 10996 ] final  105.01 input  -57.11 | X-H torsion

> <Gold.Protein.ActiveResidues>
 VAL166  LYS551  ARG553  GLY616  TRP617  ASP618  TYR619  PRO620  LYS621  CYS622 
 ASP623  PHE694  ASN695  SER759  ASP760  ASP761  ALA762  ILE779  LEU786  VAL792 
 PHE793  MET794  SER795  GLU796  ALA797  LYS798  CYS799  TRP800  GLU811  SER814 

> <Gold.Protein.RotatedAtoms>
  151.9757  133.3740  159.4087 H   0  0  0  0  0  0  0  0  0  0  0  0  # atno 6907 bound_to 6896
  150.6942  134.4093  159.5163 H   0  0  0  0  0  0  0  0  0  0  0  0  # atno 6908 bound_to 6896
  152.1804  134.8759  160.0577 H   0  0  0  0  0  0  0  0  0  0  0  0  # atno 6909 bound_to 6896
  144.7827  140.4743  143.5828 H   0  0  0  0  0  0  0  0  0  0  0  0  # atno 7974 bound_to 7965
  155.6320  140.0692  157.2646 H   0  0  0  0  0  0  0  0  0  0  0  0  # atno 8008 bound_to 7997
  154.4203  140.1765  156.1531 H   0  0  0  0  0  0  0  0  0  0  0  0  # atno 8009 bound_to 7997
  155.9925  140.3344  155.6770 H   0  0  0  0  0  0  0  0  0  0  0  0  # atno 8010 bound_to 7997
  139.6625  144.7128  151.1839 H   0  0  0  0  0  0  0  0  0  0  0  0  # atno 10167 bound_to 10162
  156.5665  130.8670  151.2825 H   0  0  0  0  0  0  0  0  0  0  0  0  # atno 10718 bound_to 10713
  154.8750  135.3825  154.4269 H   0  0  0  0  0  0  0  0  0  0  0  0  # atno 10763 bound_to 10752
  153.4967  135.7030  153.5859 H   0  0  0  0  0  0  0  0  0  0  0  0  # atno 10764 bound_to 10752
  153.4209  135.3901  155.2077 H   0  0  0  0  0  0  0  0  0  0  0  0  # atno 10765 bound_to 10752
  139.8797  134.9321  156.5449 H   0  0  0  0  0  0  0  0  0  0  0  0  # atno 11005 bound_to 11000
  145.6006  139.1503  143.3131 LP  0  0  0  0  0  0  0  0  0  0  0  0  # atno 17320 bound_to 7965
  146.2043  140.6127  142.9088 LP  0  0  0  0  0  0  0  0  0  0  0  0  # atno 17321 bound_to 7965
  140.7586  143.5972  150.8736 LP  0  0  0  0  0  0  0  0  0  0  0  0  # atno 17342 bound_to 10162
  139.9630  143.6142  152.2996 LP  0  0  0  0  0  0  0  0  0  0  0  0  # atno 17343 bound_to 10162
  157.7357  130.9767  150.2098 LP  0  0  0  0  0  0  0  0  0  0  0  0  # atno 17370 bound_to 10713
  156.2752  130.3726  149.7990 LP  0  0  0  0  0  0  0  0  0  0  0  0  # atno 17371 bound_to 10713
  140.8283  133.8299  155.8960 LP  0  0  0  0  0  0  0  0  0  0  0  0  # atno 17394 bound_to 11000
  140.9353  134.1970  157.4836 LP  0  0  0  0  0  0  0  0  0  0  0  0  # atno 17395 bound_to 11000

$$$$
