AV-unprocessed.smi:3196|AV-procd|sdf|12223|dock4
  -GOLD-   2272018 53D 1   1.00000     0.00000
 Structure written by MMmdl.
 33 34  0  0  0  0  0  0  0  0  1 V2000
  148.2833  145.1051  161.3213 C   0  0  0  0  0  0  0  0  0  0  0  0
  149.7679  144.9343  160.9824 C   0  0  0  0  0  0  0  0  0  0  0  0
  149.9963  144.5647  159.5106 C   0  0  0  0  0  0  0  0  0  0  0  0
  151.4410  144.1935  159.2257 C   0  0  2  0  0  0  0  0  0  0  0  0
  152.2342  144.9207  158.1731 C   0  0  0  0  0  0  0  0  0  0  0  0
  151.8571  143.4685  157.9605 C   0  0  2  0  0  0  0  0  0  0  0  0
  150.8720  143.1904  156.9572 N   0  0  0  0  0  0  0  0  0  0  0  0
  150.5406  141.9963  156.4346 C   0  0  0  0  0  0  0  0  0  0  0  0
  151.1265  140.9733  156.7811 O   0  0  0  0  0  0  0  0  0  0  0  0
  149.5694  142.0546  155.5013 N   0  0  0  0  0  0  0  0  0  0  0  0
  148.9721  141.0150  154.7350 C   0  0  0  0  0  0  0  0  0  0  0  0
  149.5186  139.7195  154.5602 C   0  0  0  0  0  0  0  0  0  0  0  0
  148.8105  138.7878  153.7745 C   0  0  0  0  0  0  0  0  0  0  0  0
  147.6305  139.0596  153.1784 N   0  0  0  0  0  0  0  0  0  0  0  0
  147.1092  140.2922  153.3515 C   0  0  0  0  0  0  0  0  0  0  0  0
  147.7358  141.2972  154.1152 C   0  0  0  0  0  0  0  0  0  0  0  0
  147.1553  142.5145  154.2484 F   0  0  0  0  0  0  0  0  0  0  0  0
  148.1522  145.3664  162.3714 H   0  0  0  0  0  0  0  0  0  0  0  0
  147.7287  144.1851  161.1352 H   0  0  0  0  0  0  0  0  0  0  0  0
  147.8316  145.8963  160.7223 H   0  0  0  0  0  0  0  0  0  0  0  0
  150.2982  145.8588  161.2134 H   0  0  0  0  0  0  0  0  0  0  0  0
  150.1961  144.1636  161.6244 H   0  0  0  0  0  0  0  0  0  0  0  0
  149.3633  143.7204  159.2356 H   0  0  0  0  0  0  0  0  0  0  0  0
  149.7012  145.4002  158.8746 H   0  0  0  0  0  0  0  0  0  0  0  0
  151.9910  143.9056  160.1197 H   0  0  0  0  0  0  0  0  0  0  0  0
  151.7172  145.6735  157.5806 H   0  0  0  0  0  0  0  0  0  0  0  0
  153.2757  145.1425  158.3965 H   0  0  0  0  0  0  0  0  0  0  0  0
  152.6862  142.7684  158.0513 H   0  0  0  0  0  0  0  0  0  0  0  0
  150.4159  143.9975  156.5569 H   0  0  0  0  0  0  0  0  0  0  0  0
  149.2182  142.9800  155.3014 H   0  0  0  0  0  0  0  0  0  0  0  0
  150.4510  139.4138  155.0063 H   0  0  0  0  0  0  0  0  0  0  0  0
  149.2036  137.7934  153.6229 H   0  0  0  0  0  0  0  0  0  0  0  0
  146.1630  140.4834  152.8675 H   0  0  0  0  0  0  0  0  0  0  0  0
  1  2  1  0  0  0  0
  1 18  1  0  0  0  0
  1 19  1  0  0  0  0
  1 20  1  0  0  0  0
  2  3  1  0  0  0  0
  2 21  1  0  0  0  0
  2 22  1  0  0  0  0
  3  4  1  0  0  0  0
  3 23  1  0  0  0  0
  3 24  1  0  0  0  0
  4  6  1  0  0  0  0
  4  5  1  0  0  0  0
  4 25  1  0  0  0  0
  5  6  1  0  0  0  0
  5 26  1  0  0  0  0
  5 27  1  0  0  0  0
  6  7  1  0  0  0  0
  6 28  1  0  0  0  0
  7  8  1  0  0  0  0
  7 29  1  0  0  0  0
  8  9  2  0  0  0  0
  8 10  1  0  0  0  0
 10 11  1  0  0  0  0
 10 30  1  0  0  0  0
 11 16  1  0  0  0  0
 11 12  2  0  0  0  0
 12 13  1  0  0  0  0
 12 31  1  0  0  0  0
 13 14  2  0  0  0  0
 13 32  1  0  0  0  0
 14 15  1  0  0  0  0
 15 16  2  0  0  0  0
 15 33  1  0  0  0  0
 16 17  1  0  0  0  0
M  END
> <s_m_source_file>
AV-unprocessed.smi

> <i_m_source_file_index>
3196

> <i_lp_mmshare_version>
43012

> <i_f3d_flags>
0

> <s_epik_input>
W0NIM11bQ0gyXVtDSDJdW0NAQEhdMVtDSDJdW0NASF0xW05IXUMoPU8pW05IXWMyW2NIXVtjSF1uW2NIXWMyRg==

> <s_epik_cmdline>
J2VwaWtfcHl0aG9uJywgJy1waCcsICc3LjAnLCAnLXRuJywgJzgnLCAnLW1hJywgJzIwMCcsICctbWV0YWxfYmluZGluZycsICctaW1hZScsICc8aW5maWxlLm1hZT4nLCAnLW9tYWUnLCAnPG91dGZpbGUubWFlPic=

> <r_epik_Ionization_Penalty>
0.00341997

> <r_epik_Ionization_Penalty_Charging>
0

> <r_epik_Ionization_Penalty_Neutral>
0.00341997

> <r_epik_State_Penalty>
0.00239198

> <r_epik_Charging_Adjusted_Penalty>
0.00239198

> <i_epik_Tot_Q>
0

> <i_epik_Tot_abs_Q>
0

> <r_epik_Metal_State_Penalty>
-0

> <b_epik_Metal_Only>
0

> <s_lp_Force_Field>
OPLS_2005

> <r_lp_Energy>
35.1312

> <b_lp_Chiralities_Consistent>
1

> <s_lp_Variant>
AV-unprocessed.smi:3196-3

> <Gold.Version>
5.8.1

> <Gold.Id.Protein>
6NUR|6NUR_protein|mol2

> <Gold.PLP.Fitness>
48.6655

> <Gold.PLP.PLP>
-37.3482

> <Gold.PLP.part.hbond>
-2.0000

> <Gold.PLP.part.metal>
0.0000

> <Gold.PLP.part.buried>
-2.3459

> <Gold.PLP.part.nonpolar>
-34.1002

> <Gold.PLP.part.repulsive>
1.3567

> <Gold.PLP.ligand.clash>
0.0000

> <Gold.PLP.ligand.torsion>
0.5868

> <Gold.PLP.Chemscore.Hbond>
1.9760

> <Gold.PLP.Chemscore.CHOScore>
2.0000

> <Gold.PLP.Chemscore.Metal>
0.0000

> <Gold.Chemscore.Hbonds>
donor molecule, donor type, donor heavy atom, donor atom, acceptor molecule, acceptor atom, score
      L1  H     7    29       P1  8028  0.99
      L1  H    10    30       P1  8028  1.00
      L1  C    13    32       P1  7948  1.00
      L1  C    15    33       P1 10175  1.00

> <Gold.PLP.Chemscore.Internal.Correction>
0.5628

> <Gold.Rescore>
     Score         DG    S(hbond)    S(metal)    S(lipo)     H(rot)  DE(clash)    DE(int)     intcor
     17.06     -18.43       1.95        0.00      85.45       1.39       0.10       1.27       ----

> <Gold.Chemscore.Fitness>
17.0630

> <Gold.Chemscore.DG>
-18.4339

> <Gold.Chemscore.ZeroCoef>
-5.4800

> <Gold.Chemscore.Hbond>
1.9467

> <Gold.Chemscore.Metal>
0.0000

> <Gold.Chemscore.Lipo>
85.4536

> <Gold.Chemscore.Internal_Hbond>
0.0000

> <Gold.Chemscore.DEClash>
0.1018

> <Gold.Chemscore.DEInternal>
1.2691

> <Gold.Chemscore.Rot>
1.3852

> <Gold.Chemscore.Internal.Correction>
   9.000000E+99

> <Gold.Chemscore.Hbonds>
donor molecule, donor type, donor heavy atom, donor atom, acceptor molecule, acceptor atom, score
      L1  H     7    29       P1  8028  0.93
      L1  H    10    30       P1  8028  0.99

> <Gold.Chemscore.Hbond.Weighted>
-6.5019

> <Gold.Chemscore.Metal.Weighted>
-0.0000

> <Gold.Chemscore.Lipo.Weighted>
-9.9981

> <Gold.Chemscore.Internal_Hbond.Weighted>
0.0000

> <Gold.Chemscore.DEClash.Weighted>
0.1018

> <Gold.Chemscore.DEInternal.Weighted>
1.2691

> <Gold.Chemscore.Rot.Weighted>
3.5460

> <Gold.Chemscore.Internal.Correction.Weighted>
   9.000000E+99

> <Gold.Protein.RotatedTorsions>
[ 6907 6896 6895 6894 ] final  -50.70 input  -60.11 | X-H torsion
[ 7974 7965 7964 7962 ] final   75.48 input  175.53 | X-H torsion
[ 8008 7997 7996 7995 ] final -108.53 input   59.86 | X-H torsion
[ 10167 10162 10161 10158 ] final   23.27 input  -65.29 | X-H torsion
[ 10718 10713 10712 10709 ] final  -31.52 input   66.30 | X-H torsion
[ 10763 10752 10751 10750 ] final  158.56 input  -60.55 | X-H torsion
[ 11005 11000 10999 10996 ] final  -16.84 input  -57.11 | X-H torsion

> <Gold.Protein.ActiveResidues>
 VAL166  LYS551  ARG553  GLY616  TRP617  ASP618  TYR619  PRO620  LYS621  CYS622 
 ASP623  PHE694  ASN695  SER759  ASP760  ASP761  ALA762  ILE779  LEU786  VAL792 
 PHE793  MET794  SER795  GLU796  ALA797  LYS798  CYS799  TRP800  GLU811  SER814 

> <Gold.Protein.RotatedAtoms>
  150.8682  134.8050  159.7134 H   0  0  0  0  0  0  0  0  0  0  0  0  # atno 6907 bound_to 6896
  152.4696  134.4989  159.9728 H   0  0  0  0  0  0  0  0  0  0  0  0  # atno 6908 bound_to 6896
  151.5082  133.3452  159.2916 H   0  0  0  0  0  0  0  0  0  0  0  0  # atno 6909 bound_to 6896
  145.7150  139.2628  143.1629 H   0  0  0  0  0  0  0  0  0  0  0  0  # atno 7974 bound_to 7965
  154.9456  140.0402  157.2119 H   0  0  0  0  0  0  0  0  0  0  0  0  # atno 8008 bound_to 7997
  154.8027  140.2854  155.5888 H   0  0  0  0  0  0  0  0  0  0  0  0  # atno 8009 bound_to 7997
  156.2963  140.2552  156.2898 H   0  0  0  0  0  0  0  0  0  0  0  0  # atno 8010 bound_to 7997
  140.5282  143.9887  150.6451 H   0  0  0  0  0  0  0  0  0  0  0  0  # atno 10167 bound_to 10162
  156.3863  130.4365  149.7429 H   0  0  0  0  0  0  0  0  0  0  0  0  # atno 10718 bound_to 10713
  154.2180  135.2783  155.2935 H   0  0  0  0  0  0  0  0  0  0  0  0  # atno 10763 bound_to 10752
  154.5725  135.5614  153.7111 H   0  0  0  0  0  0  0  0  0  0  0  0  # atno 10764 bound_to 10752
  153.0048  135.6325  154.2320 H   0  0  0  0  0  0  0  0  0  0  0  0  # atno 10765 bound_to 10752
  140.8108  133.8142  155.9562 H   0  0  0  0  0  0  0  0  0  0  0  0  # atno 11005 bound_to 11000
  146.0678  140.7902  142.9703 LP  0  0  0  0  0  0  0  0  0  0  0  0  # atno 17320 bound_to 7965
  144.6931  140.3295  143.7218 LP  0  0  0  0  0  0  0  0  0  0  0  0  # atno 17321 bound_to 7965
  140.3254  143.3110  152.0741 LP  0  0  0  0  0  0  0  0  0  0  0  0  # atno 17342 bound_to 10162
  139.4945  144.6545  151.6602 LP  0  0  0  0  0  0  0  0  0  0  0  0  # atno 17343 bound_to 10162
  156.4500  130.7902  151.2923 LP  0  0  0  0  0  0  0  0  0  0  0  0  # atno 17370 bound_to 10713
  157.7496  131.0098  150.3282 LP  0  0  0  0  0  0  0  0  0  0  0  0  # atno 17371 bound_to 10713
  140.9199  134.2155  157.4933 LP  0  0  0  0  0  0  0  0  0  0  0  0  # atno 17394 bound_to 11000
  139.8714  134.9787  156.5010 LP  0  0  0  0  0  0  0  0  0  0  0  0  # atno 17395 bound_to 11000

$$$$
