AV-unprocessed.smi:283|AV-procd|sdf|2156|dock8
  -GOLD-   2262021503D 1   1.00000     0.00000
 Structure written by MMmdl.
 48 51  0  0  0  0  0  0  0  0  1 V2000
  151.4118  140.1213  158.6003 C   0  0  0  0  0  0  0  0  0  0  0  0
  151.9650  141.2662  157.7326 C   0  0  1  0  0  0  0  0  0  0  0  0
  151.2988  141.3149  156.4314 N   0  0  0  0  0  0  0  0  0  0  0  0
  150.9964  140.1922  155.7426 C   0  0  0  0  0  0  0  0  0  0  0  0
  151.8963  139.1846  155.5991 N   0  0  0  0  0  0  0  0  0  0  0  0
  151.5680  138.0875  154.9105 C   0  0  0  0  0  0  0  0  0  0  0  0
  150.4206  137.8045  154.2896 N   0  0  0  0  0  0  0  0  0  0  0  0
  149.5170  138.8185  154.4212 C   0  0  0  0  0  0  0  0  0  0  0  0
  149.7252  140.0319  155.1334 C   0  0  0  0  0  0  0  0  0  0  0  0
  148.5811  140.8155  155.0705 N   0  0  0  0  0  0  0  0  0  0  0  0
  147.7465  140.0990  154.3666 C   0  0  0  0  0  0  0  0  0  0  0  0
  148.2397  138.8953  153.9056 N   0  0  0  0  0  0  0  0  0  0  0  0
  147.5483  137.8378  153.0967 C   0  0  1  0  0  0  0  0  0  0  0  0
  147.0132  136.8968  153.9829 O   0  0  0  0  0  0  0  0  0  0  0  0
  145.6001  137.0480  154.1059 C   0  0  1  0  0  0  0  0  0  0  0  0
  145.2587  138.0054  155.2645 C   0  0  0  0  0  0  0  0  0  0  0  0
  143.9052  138.4003  155.1942 O   0  0  0  0  0  0  0  0  0  0  0  0
  145.1833  137.5699  152.7287 C   0  0  2  0  0  0  0  0  0  0  0  0
  144.9617  136.4595  151.8752 O   0  0  0  0  0  0  0  0  0  0  0  0
  146.3694  138.4320  152.2996 C   0  0  2  0  0  0  0  0  0  0  0  0
  146.5676  138.4008  150.8986 O   0  0  0  0  0  0  0  0  0  0  0  0
  151.8654  142.5890  158.4904 C   0  0  0  0  0  0  0  0  0  0  0  0
  151.1490  143.6720  157.9284 C   0  0  0  0  0  0  0  0  0  0  0  0
  151.0404  144.8957  158.6155 C   0  0  0  0  0  0  0  0  0  0  0  0
  151.6431  145.0495  159.8765 C   0  0  0  0  0  0  0  0  0  0  0  0
  152.3479  143.9760  160.4511 C   0  0  0  0  0  0  0  0  0  0  0  0
  152.4585  142.7476  159.7690 C   0  0  0  0  0  0  0  0  0  0  0  0
  153.3202  141.4590  160.5357 Cl  0  0  0  0  0  0  0  0  0  0  0  0
  148.3379  137.3992  152.4853 H   0  0  0  0  0  0  0  0  0  0  0  0
  145.1597  136.0726  154.3197 H   0  0  0  0  0  0  0  0  0  0  0  0
  144.2592  138.1476  152.7664 H   0  0  0  0  0  0  0  0  0  0  0  0
  146.1943  139.4614  152.6162 H   0  0  0  0  0  0  0  0  0  0  0  0
  151.9428  140.0617  159.5508 H   0  0  0  0  0  0  0  0  0  0  0  0
  151.5158  139.1531  158.1116 H   0  0  0  0  0  0  0  0  0  0  0  0
  150.3540  140.2677  158.8209 H   0  0  0  0  0  0  0  0  0  0  0  0
  153.0200  141.0774  157.5388 H   0  0  0  0  0  0  0  0  0  0  0  0
  151.0501  142.2377  156.1053 H   0  0  0  0  0  0  0  0  0  0  0  0
  152.3347  137.3297  154.8453 H   0  0  0  0  0  0  0  0  0  0  0  0
  146.7424  140.4407  154.1623 H   0  0  0  0  0  0  0  0  0  0  0  0
  145.4132  137.5045  156.2202 H   0  0  0  0  0  0  0  0  0  0  0  0
  145.8934  138.8919  155.2560 H   0  0  0  0  0  0  0  0  0  0  0  0
  143.7482  138.7868  154.3461 H   0  0  0  0  0  0  0  0  0  0  0  0
  144.5836  136.7747  151.0685 H   0  0  0  0  0  0  0  0  0  0  0  0
  145.7212  138.4257  150.4788 H   0  0  0  0  0  0  0  0  0  0  0  0
  150.6711  143.5716  156.9649 H   0  0  0  0  0  0  0  0  0  0  0  0
  150.4923  145.7158  158.1752 H   0  0  0  0  0  0  0  0  0  0  0  0
  151.5613  145.9878  160.4049 H   0  0  0  0  0  0  0  0  0  0  0  0
  152.8042  144.0956  161.4229 H   0  0  0  0  0  0  0  0  0  0  0  0
  1  2  1  0  0  0  0
  1 33  1  0  0  0  0
  1 34  1  0  0  0  0
  1 35  1  0  0  0  0
  2  3  1  0  0  0  0
  2 22  1  0  0  0  0
  2 36  1  0  0  0  0
  3  4  1  0  0  0  0
  3 37  1  0  0  0  0
  4  9  1  0  0  0  0
  4  5  2  0  0  0  0
  5  6  1  0  0  0  0
  6  7  2  0  0  0  0
  6 38  1  0  0  0  0
  7  8  1  0  0  0  0
  8 12  1  0  0  0  0
  8  9  2  0  0  0  0
  9 10  1  0  0  0  0
 10 11  2  0  0  0  0
 11 12  1  0  0  0  0
 11 39  1  0  0  0  0
 12 13  1  0  0  0  0
 13 29  1  0  0  0  0
 13 20  1  0  0  0  0
 13 14  1  0  0  0  0
 14 15  1  0  0  0  0
 15 30  1  0  0  0  0
 15 16  1  0  0  0  0
 15 18  1  0  0  0  0
 16 17  1  0  0  0  0
 16 40  1  0  0  0  0
 16 41  1  0  0  0  0
 17 42  1  0  0  0  0
 18 31  1  0  0  0  0
 18 19  1  0  0  0  0
 18 20  1  0  0  0  0
 19 43  1  0  0  0  0
 20 32  1  0  0  0  0
 20 21  1  0  0  0  0
 21 44  1  0  0  0  0
 22 27  1  0  0  0  0
 22 23  2  0  0  0  0
 23 24  1  0  0  0  0
 23 45  1  0  0  0  0
 24 25  2  0  0  0  0
 24 46  1  0  0  0  0
 25 26  1  0  0  0  0
 25 47  1  0  0  0  0
 26 27  2  0  0  0  0
 26 48  1  0  0  0  0
 27 28  1  0  0  0  0
M  END
> <s_m_source_file>
AV-unprocessed.smi

> <i_m_source_file_index>
283

> <i_lp_mmshare_version>
43012

> <i_f3d_flags>
0

> <s_epik_input>
Q2xjMVtjSF1bY0hdW2NIXVtjSF1jMVtDQEhdKFtDSDNdKVtOSF1jKG5bY0hdbjIpYyhjMjMpbltjSF1uM1tDQEBIXTRPW0NASF0oW0NIMl1bT0hdKVtDQEBIXShbT0hdKVtDQEhdNFtPSF0=

> <s_epik_cmdline>
J2VwaWtfcHl0aG9uJywgJy1waCcsICc3LjAnLCAnLXRuJywgJzgnLCAnLW1hJywgJzIwMCcsICctbWV0YWxfYmluZGluZycsICctaW1hZScsICc8aW5maWxlLm1hZT4nLCAnLW9tYWUnLCAnPG91dGZpbGUubWFlPic=

> <r_lp_tautomer_probability>
1

> <r_epik_Ionization_Penalty>
0.000266407

> <r_epik_Ionization_Penalty_Charging>
0

> <r_epik_Ionization_Penalty_Neutral>
0.000266407

> <r_epik_State_Penalty>
-0

> <r_epik_Charging_Adjusted_Penalty>
0

> <i_epik_Tot_Q>
0

> <i_epik_Tot_abs_Q>
0

> <r_epik_Metal_State_Penalty>
-0

> <b_epik_Metal_Only>
0

> <s_epik_Chemistry_Notes>
This compound contains an acetal/aminal-like group ( X-CH(R)-Y where X, Y are N, S, or O) that may be acid/base labile, releasing an aldehyde.

> <s_lp_Force_Field>
OPLS_2005

> <r_lp_Energy>
46.4468

> <b_lp_Chiralities_Consistent>
1

> <s_lp_Variant>
AV-unprocessed.smi:283-32

> <Gold.Version>
5.8.1

> <Gold.Id.Protein>
6NUR|6NUR_protein|mol2

> <Gold.PLP.Fitness>
56.7834

> <Gold.PLP.PLP>
-47.6141

> <Gold.PLP.part.hbond>
-4.3006

> <Gold.PLP.part.metal>
0.0000

> <Gold.PLP.part.buried>
-0.6483

> <Gold.PLP.part.nonpolar>
-43.3331

> <Gold.PLP.part.repulsive>
0.9396

> <Gold.PLP.ligand.clash>
0.0000

> <Gold.PLP.ligand.torsion>
1.3414

> <Gold.PLP.Chemscore.Hbond>
3.9110

> <Gold.PLP.Chemscore.CHOScore>
0.0000

> <Gold.PLP.Chemscore.Metal>
0.0000

> <Gold.Chemscore.Hbonds>
donor molecule, donor type, donor heavy atom, donor atom, acceptor molecule, acceptor atom, score
      L1  H    19    43       P1 10171  0.29
      L1  H    21    44       P1 10171  1.00
      P1  H  7954  7966       L1    21  1.00

> <Gold.PLP.Chemscore.Internal.Correction>
0.1191

> <Gold.Rescore>
     Score         DG    S(hbond)    S(metal)    S(lipo)     H(rot)  DE(clash)    DE(int)     intcor
     16.57     -19.86       3.36        0.00     116.73       4.10       2.04       1.25       ----

> <Gold.Chemscore.Fitness>
16.5671

> <Gold.Chemscore.DG>
-19.8583

> <Gold.Chemscore.ZeroCoef>
-5.4800

> <Gold.Chemscore.Hbond>
3.3560

> <Gold.Chemscore.Metal>
0.0000

> <Gold.Chemscore.Lipo>
116.7275

> <Gold.Chemscore.Internal_Hbond>
0.0000

> <Gold.Chemscore.DEClash>
2.0395

> <Gold.Chemscore.DEInternal>
1.2517

> <Gold.Chemscore.Rot>
4.0968

> <Gold.Chemscore.Internal.Correction>
   9.000000E+99

> <Gold.Chemscore.Hbonds>
donor molecule, donor type, donor heavy atom, donor atom, acceptor molecule, acceptor atom, score
      L1  H    17    42       P1 10175  0.02
      L1  H    19    43       P1 10171  0.27
      L1  H    21    44       P1 10171  0.99
      P1  H  7954  7966       L1    21  0.92

> <Gold.Chemscore.Hbond.Weighted>
-11.2091

> <Gold.Chemscore.Metal.Weighted>
-0.0000

> <Gold.Chemscore.Lipo.Weighted>
-13.6571

> <Gold.Chemscore.Internal_Hbond.Weighted>
0.0000

> <Gold.Chemscore.DEClash.Weighted>
2.0395

> <Gold.Chemscore.DEInternal.Weighted>
1.2517

> <Gold.Chemscore.Rot.Weighted>
10.4879

> <Gold.Chemscore.Internal.Correction.Weighted>
   9.000000E+99

> <Gold.Protein.RotatedTorsions>
[ 6907 6896 6895 6894 ] final   29.95 input  -60.11 | X-H torsion
[ 7974 7965 7964 7962 ] final -178.68 input  175.53 | X-H torsion
[ 8008 7997 7996 7995 ] final  -87.02 input   59.86 | X-H torsion
[ 10167 10162 10161 10158 ] final  -52.80 input  -65.29 | X-H torsion
[ 10718 10713 10712 10709 ] final -158.86 input   66.30 | X-H torsion
[ 10763 10752 10751 10750 ] final -148.67 input  -60.55 | X-H torsion
[ 11005 11000 10999 10996 ] final  -99.17 input  -57.11 | X-H torsion

> <Gold.Protein.ActiveResidues>
 VAL166  LYS551  ARG553  GLY616  TRP617  ASP618  TYR619  PRO620  LYS621  CYS622 
 ASP623  PHE694  ASN695  SER759  ASP760  ASP761  ALA762  ILE779  LEU786  VAL792 
 PHE793  MET794  SER795  GLU796  ALA797  LYS798  CYS799  TRP800  GLU811  SER814 

> <Gold.Protein.RotatedAtoms>
  152.0389  134.9723  160.0573 H   0  0  0  0  0  0  0  0  0  0  0  0  # atno 6907 bound_to 6896
  152.1170  133.4327  159.4666 H   0  0  0  0  0  0  0  0  0  0  0  0  # atno 6908 bound_to 6896
  150.6846  134.2499  159.4550 H   0  0  0  0  0  0  0  0  0  0  0  0  # atno 6909 bound_to 6896
  144.7132  140.0831  143.6424 H   0  0  0  0  0  0  0  0  0  0  0  0  # atno 7974 bound_to 7965
  154.6584  140.0571  157.0035 H   0  0  0  0  0  0  0  0  0  0  0  0  # atno 8008 bound_to 7997
  155.1265  140.3252  155.4466 H   0  0  0  0  0  0  0  0  0  0  0  0  # atno 8009 bound_to 7997
  156.2607  140.1988  156.6385 H   0  0  0  0  0  0  0  0  0  0  0  0  # atno 8010 bound_to 7997
  140.6519  143.2571  151.4700 H   0  0  0  0  0  0  0  0  0  0  0  0  # atno 10167 bound_to 10162
  156.5600  130.8643  151.2806 H   0  0  0  0  0  0  0  0  0  0  0  0  # atno 10718 bound_to 10713
  154.8220  135.3328  154.7010 H   0  0  0  0  0  0  0  0  0  0  0  0  # atno 10763 bound_to 10752
  153.7642  135.6930  153.4924 H   0  0  0  0  0  0  0  0  0  0  0  0  # atno 10764 bound_to 10752
  153.2089  135.4489  155.0305 H   0  0  0  0  0  0  0  0  0  0  0  0  # atno 10765 bound_to 10752
  141.1318  133.8301  157.0937 H   0  0  0  0  0  0  0  0  0  0  0  0  # atno 11005 bound_to 11000
  145.9685  139.2852  143.1113 LP  0  0  0  0  0  0  0  0  0  0  0  0  # atno 17320 bound_to 7965
  145.9143  140.9159  143.0438 LP  0  0  0  0  0  0  0  0  0  0  0  0  # atno 17321 bound_to 7965
  139.5735  144.1873  152.1870 LP  0  0  0  0  0  0  0  0  0  0  0  0  # atno 17342 bound_to 10162
  140.1177  144.5401  150.6883 LP  0  0  0  0  0  0  0  0  0  0  0  0  # atno 17343 bound_to 10162
  157.7370  130.9789  150.2170 LP  0  0  0  0  0  0  0  0  0  0  0  0  # atno 17370 bound_to 10713
  156.2807  130.3733  149.7938 LP  0  0  0  0  0  0  0  0  0  0  0  0  # atno 17371 bound_to 10713
  140.0376  134.9870  157.0901 LP  0  0  0  0  0  0  0  0  0  0  0  0  # atno 17394 bound_to 11000
  140.4185  134.1905  155.7164 LP  0  0  0  0  0  0  0  0  0  0  0  0  # atno 17395 bound_to 11000

$$$$
