AV-unprocessed.smi:1032|AV-procd|sdf|4489|dock3
  -GOLD-   22720 2473D 1   1.00000     0.00000
 Structure written by MMmdl.
 47 48  0  0  0  0  0  0  0  0  3 V2000
  143.5611  132.6172  151.4104 C   0  0  0  0  0  0  0  0  0  0  0  0
  144.6567  131.8573  150.6426 C   0  0  2  0  0  0  0  0  0  0  0  0
  145.4163  130.8508  151.5261 C   0  0  0  0  0  0  0  0  0  0  0  0
  146.3917  131.5433  152.4950 C   0  0  0  0  0  0  0  0  0  0  0  0
  147.3424  132.4218  151.7636 N   0  3  2  0  0  0  0  0  0  0  0  0
  148.3894  133.0109  152.6379 C   0  0  0  0  0  0  0  0  0  0  0  0
  147.9194  133.1714  154.0986 C   0  0  1  0  0  0  0  0  0  0  0  0
  149.0729  133.4238  154.8770 O   0  0  0  0  0  0  0  0  0  0  0  0
  146.9549  134.3654  154.2537 C   0  0  0  0  0  0  0  0  0  0  0  0
  147.5903  135.6330  153.9059 N   0  0  0  0  0  0  0  0  0  0  0  0
  147.3008  136.8171  154.4634 C   0  0  0  0  0  0  0  0  0  0  0  0
  146.4333  136.9666  155.3232 O   0  0  0  0  0  0  0  0  0  0  0  0
  148.0577  137.8000  153.9456 N   0  0  0  0  0  0  0  0  0  0  0  0
  148.0762  139.1782  154.2941 C   0  0  0  0  0  0  0  0  0  0  0  0
  149.3298  139.8288  154.3273 C   0  0  0  0  0  0  0  0  0  0  0  0
  149.3976  141.1905  154.6858 C   0  0  0  0  0  0  0  0  0  0  0  0
  148.2686  141.8590  155.0047 N   0  3  0  0  0  0  0  0  0  0  0  0
  147.0501  141.2771  155.0015 C   0  0  0  0  0  0  0  0  0  0  0  0
  146.9195  139.9180  154.6505 C   0  0  0  0  0  0  0  0  0  0  0  0
  146.6313  133.4491  150.9605 C   0  0  0  0  0  0  0  0  0  0  0  0
  145.6632  132.7984  149.9562 C   0  0  0  0  0  0  0  0  0  0  0  0
  143.9683  133.2203  152.2213 H   0  0  0  0  0  0  0  0  0  0  0  0
  142.8386  131.9257  151.8449 H   0  0  0  0  0  0  0  0  0  0  0  0
  143.0124  133.2856  150.7464 H   0  0  0  0  0  0  0  0  0  0  0  0
  144.1482  131.2912  149.8609 H   0  0  0  0  0  0  0  0  0  0  0  0
  144.7128  130.2304  152.0827 H   0  0  0  0  0  0  0  0  0  0  0  0
  145.9795  130.1688  150.8873 H   0  0  0  0  0  0  0  0  0  0  0  0
  145.8427  132.1301  153.2328 H   0  0  0  0  0  0  0  0  0  0  0  0
  146.9355  130.7794  153.0495 H   0  0  0  0  0  0  0  0  0  0  0  0
  149.2789  132.3782  152.6307 H   0  0  0  0  0  0  0  0  0  0  0  0
  148.7013  133.9713  152.2245 H   0  0  0  0  0  0  0  0  0  0  0  0
  147.4351  132.2599  154.4484 H   0  0  0  0  0  0  0  0  0  0  0  0
  149.0920  134.3432  155.0985 H   0  0  0  0  0  0  0  0  0  0  0  0
  146.0293  134.2128  153.6948 H   0  0  0  0  0  0  0  0  0  0  0  0
  146.6603  134.4591  155.2992 H   0  0  0  0  0  0  0  0  0  0  0  0
  148.3138  135.6006  153.2024 H   0  0  0  0  0  0  0  0  0  0  0  0
  148.6616  137.5384  153.1800 H   0  0  0  0  0  0  0  0  0  0  0  0
  150.2343  139.2940  154.0756 H   0  0  0  0  0  0  0  0  0  0  0  0
  150.3145  141.7601  154.7289 H   0  0  0  0  0  0  0  0  0  0  0  0
  146.2215  141.9100  155.2843 H   0  0  0  0  0  0  0  0  0  0  0  0
  145.9388  139.4681  154.6750 H   0  0  0  0  0  0  0  0  0  0  0  0
  146.0987  134.1315  151.6241 H   0  0  0  0  0  0  0  0  0  0  0  0
  147.3568  134.0494  150.4102 H   0  0  0  0  0  0  0  0  0  0  0  0
  146.2422  132.2300  149.2267 H   0  0  0  0  0  0  0  0  0  0  0  0
  145.1370  133.5676  149.3899 H   0  0  0  0  0  0  0  0  0  0  0  0
  147.8317  131.8399  151.0982 H   0  0  0  0  0  0  0  0  0  0  0  0
  148.3396  142.8435  155.2631 H   0  0  0  0  0  0  0  0  0  0  0  0
  1  2  1  0  0  0  0
  1 22  1  0  0  0  0
  1 23  1  0  0  0  0
  1 24  1  0  0  0  0
  2 21  1  0  0  0  0
  2  3  1  0  0  0  0
  2 25  1  0  0  0  0
  3  4  1  0  0  0  0
  3 26  1  0  0  0  0
  3 27  1  0  0  0  0
  4  5  1  0  0  0  0
  4 28  1  0  0  0  0
  4 29  1  0  0  0  0
  5  6  1  0  0  0  0
  5 20  1  0  0  0  0
  5 46  1  0  0  0  0
  6  7  1  0  0  0  0
  6 30  1  0  0  0  0
  6 31  1  0  0  0  0
  7  8  1  0  0  0  0
  7  9  1  0  0  0  0
  7 32  1  0  0  0  0
  8 33  1  0  0  0  0
  9 10  1  0  0  0  0
  9 34  1  0  0  0  0
  9 35  1  0  0  0  0
 10 11  1  0  0  0  0
 10 36  1  0  0  0  0
 11 12  2  0  0  0  0
 11 13  1  0  0  0  0
 13 14  1  0  0  0  0
 13 37  1  0  0  0  0
 14 19  1  0  0  0  0
 14 15  2  0  0  0  0
 15 16  1  0  0  0  0
 15 38  1  0  0  0  0
 16 17  2  0  0  0  0
 16 39  1  0  0  0  0
 17 18  1  0  0  0  0
 17 47  1  0  0  0  0
 18 19  2  0  0  0  0
 18 40  1  0  0  0  0
 19 41  1  0  0  0  0
 20 21  1  0  0  0  0
 20 42  1  0  0  0  0
 20 43  1  0  0  0  0
 21 44  1  0  0  0  0
 21 45  1  0  0  0  0
M  CHG  1   5   1
M  CHG  1  17   1
M  END
> <s_m_source_file>
AV-unprocessed.smi

> <i_m_source_file_index>
1032

> <i_lp_mmshare_version>
43012

> <i_f3d_flags>
0

> <s_epik_input>
W0NIM11bQ0hdMVtDSDJdW0NIMl1OKFtDSDJdW0NIMl0xKVtDSDJdW0NASF0oW09IXSlbQ0gyXVtOSF1DKD1PKVtOSF1jMltjSF1bY0hdbltjSF1bY0hdMg==

> <s_epik_cmdline>
J2VwaWtfcHl0aG9uJywgJy1waCcsICc3LjAnLCAnLXRuJywgJzgnLCAnLW1hJywgJzIwMCcsICctbWV0YWxfYmluZGluZycsICctaW1hZScsICc8aW5maWxlLm1hZT4nLCAnLW9tYWUnLCAnPG91dGZpbGUubWFlPic=

> <r_epik_Ionization_Penalty>
1.02509

> <r_epik_Ionization_Penalty_Charging>
1.02507

> <r_epik_Ionization_Penalty_Neutral>
1.85474e-05

> <r_epik_State_Penalty>
1.07411

> <r_epik_Charging_Adjusted_Penalty>
2.09917

> <i_epik_Tot_Q>
2

> <i_epik_Tot_abs_Q>
2

> <r_epik_Metal_State_Penalty>
1.1725

> <b_epik_Metal_Only>
0

> <s_lp_Force_Field>
OPLS_2005

> <r_lp_Energy>
32.8821

> <b_lp_Chiralities_Consistent>
1

> <s_lp_Variant>
AV-unprocessed.smi:1032-8

> <Gold.Version>
5.8.1

> <Gold.Id.Protein>
6NUR|6NUR_protein|mol2

> <Gold.PLP.Fitness>
48.0737

> <Gold.PLP.PLP>
-35.4182

> <Gold.PLP.part.hbond>
-4.0000

> <Gold.PLP.part.metal>
0.0000

> <Gold.PLP.part.buried>
-4.0843

> <Gold.PLP.part.nonpolar>
-27.7144

> <Gold.PLP.part.repulsive>
0.2112

> <Gold.PLP.ligand.clash>
0.0409

> <Gold.PLP.ligand.torsion>
1.0733

> <Gold.PLP.Chemscore.Hbond>
4.9200

> <Gold.PLP.Chemscore.CHOScore>
0.0000

> <Gold.PLP.Chemscore.Metal>
0.0000

> <Gold.Chemscore.Hbonds>
donor molecule, donor type, donor heavy atom, donor atom, acceptor molecule, acceptor atom, score
      L1  H     5    46       P1 10747  1.00
      L1  H    10    36       P1  7948  0.99
      L1  H    13    37       P1  7948  0.90
      L1  H    17    47       P1  8028  2.00

> <Gold.PLP.Chemscore.Internal.Correction>
0.0831

> <Gold.Rescore>
     Score         DG    S(hbond)    S(metal)    S(lipo)     H(rot)  DE(clash)    DE(int)     intcor
     21.20     -23.18       3.92        0.00      90.57       2.34       0.08       1.89       ----

> <Gold.Chemscore.Fitness>
21.2043

> <Gold.Chemscore.DG>
-23.1774

> <Gold.Chemscore.ZeroCoef>
-5.4800

> <Gold.Chemscore.Hbond>
3.9191

> <Gold.Chemscore.Metal>
0.0000

> <Gold.Chemscore.Lipo>
90.5656

> <Gold.Chemscore.Internal_Hbond>
0.0000

> <Gold.Chemscore.DEClash>
0.0782

> <Gold.Chemscore.DEInternal>
1.8948

> <Gold.Chemscore.Rot>
2.3393

> <Gold.Chemscore.Internal.Correction>
   9.000000E+99

> <Gold.Chemscore.Hbonds>
donor molecule, donor type, donor heavy atom, donor atom, acceptor molecule, acceptor atom, score
      L1  H     5    46       P1 10747  1.00
      L1  H    10    36       P1  7948  0.93
      L1  H    13    37       P1  7948  0.88
      L1  H    17    47       P1  8028  0.97

> <Gold.Chemscore.Hbond.Weighted>
-13.0899

> <Gold.Chemscore.Metal.Weighted>
-0.0000

> <Gold.Chemscore.Lipo.Weighted>
-10.5962

> <Gold.Chemscore.Internal_Hbond.Weighted>
0.0000

> <Gold.Chemscore.DEClash.Weighted>
0.0782

> <Gold.Chemscore.DEInternal.Weighted>
1.8948

> <Gold.Chemscore.Rot.Weighted>
5.9886

> <Gold.Chemscore.Internal.Correction.Weighted>
   9.000000E+99

> <Gold.Protein.RotatedTorsions>
[ 6907 6896 6895 6894 ] final  -21.07 input  -60.11 | X-H torsion
[ 7974 7965 7964 7962 ] final -117.60 input  175.53 | X-H torsion
[ 8008 7997 7996 7995 ] final -148.36 input   59.86 | X-H torsion
[ 10167 10162 10161 10158 ] final  -20.78 input  -65.29 | X-H torsion
[ 10718 10713 10712 10709 ] final -157.61 input   66.30 | X-H torsion
[ 10763 10752 10751 10750 ] final  -30.39 input  -60.55 | X-H torsion
[ 11005 11000 10999 10996 ] final -107.32 input  -57.11 | X-H torsion

> <Gold.Protein.ActiveResidues>
 VAL166  LYS551  ARG553  GLY616  TRP617  ASP618  TYR619  PRO620  LYS621  CYS622 
 ASP623  PHE694  ASN695  SER759  ASP760  ASP761  ALA762  ILE779  LEU786  VAL792 
 PHE793  MET794  SER795  GLU796  ALA797  LYS798  CYS799  TRP800  GLU811  SER814 

> <Gold.Protein.RotatedAtoms>
  151.2388  135.0581  159.9016 H   0  0  0  0  0  0  0  0  0  0  0  0  # atno 6907 bound_to 6896
  152.5396  134.0457  159.8098 H   0  0  0  0  0  0  0  0  0  0  0  0  # atno 6908 bound_to 6896
  151.0648  133.5466  159.2663 H   0  0  0  0  0  0  0  0  0  0  0  0  # atno 6909 bound_to 6896
  145.0833  140.8441  143.4026 H   0  0  0  0  0  0  0  0  0  0  0  0  # atno 7974 bound_to 7965
  155.5904  140.0652  157.2760 H   0  0  0  0  0  0  0  0  0  0  0  0  # atno 8008 bound_to 7997
  154.4307  140.1836  156.1116 H   0  0  0  0  0  0  0  0  0  0  0  0  # atno 8009 bound_to 7997
  156.0237  140.3314  155.7069 H   0  0  0  0  0  0  0  0  0  0  0  0  # atno 8010 bound_to 7997
  140.7278  143.4690  151.0273 H   0  0  0  0  0  0  0  0  0  0  0  0  # atno 10167 bound_to 10162
  156.5426  130.8570  151.2754 H   0  0  0  0  0  0  0  0  0  0  0  0  # atno 10718 bound_to 10713
  153.7801  135.6906  153.4890 H   0  0  0  0  0  0  0  0  0  0  0  0  # atno 10763 bound_to 10752
  153.1817  135.4504  155.0035 H   0  0  0  0  0  0  0  0  0  0  0  0  # atno 10764 bound_to 10752
  154.8085  135.3367  154.7305 H   0  0  0  0  0  0  0  0  0  0  0  0  # atno 10765 bound_to 10752
  141.0960  133.8970  157.1961 H   0  0  0  0  0  0  0  0  0  0  0  0  # atno 11005 bound_to 11000
  145.1152  139.2730  143.5617 LP  0  0  0  0  0  0  0  0  0  0  0  0  # atno 17320 bound_to 7965
  146.3531  140.0759  142.8620 LP  0  0  0  0  0  0  0  0  0  0  0  0  # atno 17321 bound_to 7965
  139.8380  143.7601  152.3180 LP  0  0  0  0  0  0  0  0  0  0  0  0  # atno 17342 bound_to 10162
  139.7740  144.7467  151.0183 LP  0  0  0  0  0  0  0  0  0  0  0  0  # atno 17343 bound_to 10162
  157.7402  130.9846  150.2365 LP  0  0  0  0  0  0  0  0  0  0  0  0  # atno 17370 bound_to 10713
  156.2957  130.3751  149.7798 LP  0  0  0  0  0  0  0  0  0  0  0  0  # atno 17371 bound_to 10713
  139.9797  135.0102  156.9719 LP  0  0  0  0  0  0  0  0  0  0  0  0  # atno 17394 bound_to 11000
  140.5139  134.0975  155.7276 LP  0  0  0  0  0  0  0  0  0  0  0  0  # atno 17395 bound_to 11000

$$$$
