AV-unprocessed.smi:415|AV-procd|sdf|2523|dock7
  -GOLD-   2262022473D 1   1.00000     0.00000
 Structure written by MMmdl.
 53 54  0  0  0  0  0  0  0  0  1 V2000
  150.4318  134.8611  155.0197 C   0  0  0  0  0  0  0  0  0  0  0  0
  149.0891  134.8675  155.4703 O   0  0  0  0  0  0  0  0  0  0  0  0
  148.3883  136.0333  155.0700 C   0  0  0  0  0  0  0  0  0  0  0  0
  148.8224  137.2195  155.9468 C   0  0  0  0  0  0  0  0  0  0  0  0
  150.1366  137.7317  155.6055 N   0  0  0  0  0  0  0  0  0  0  0  0
  150.4643  138.2334  154.3485 C   0  0  0  0  0  0  0  0  0  0  0  0
  149.5148  138.2380  153.3428 N   0  0  0  0  0  0  0  0  0  0  0  0
  151.7011  138.7084  154.0808 C   0  0  0  0  0  0  0  0  0  0  0  0
  152.7573  138.7158  155.0835 C   0  0  0  0  0  0  0  0  0  0  0  0
  153.8830  139.1639  154.8645 O   0  0  0  0  0  0  0  0  0  0  0  0
  152.4109  138.1756  156.3432 N   0  0  0  0  0  0  0  0  0  0  0  0
  153.4255  138.1575  157.4199 C   0  0  0  0  0  0  0  0  0  0  0  0
  152.9906  138.9501  158.6610 C   0  0  0  0  0  0  0  0  0  0  0  0
  152.9395  138.4100  159.7668 O   0  0  0  0  0  0  0  0  0  0  0  0
  152.6697  140.2364  158.4550 N   0  0  0  0  0  0  0  0  0  0  0  0
  152.2438  141.1796  159.4876 C   0  0  1  0  0  0  0  0  0  0  0  0
  153.3099  141.2320  160.6001 C   0  0  0  0  0  0  0  0  0  0  0  0
  152.9295  142.2377  161.6901 C   0  0  0  0  0  0  0  0  0  0  0  0
  152.7120  143.6291  161.0869 C   0  0  0  0  0  0  0  0  0  0  0  0
  151.6335  143.6153  159.9851 C   0  0  1  0  0  0  0  0  0  0  0  0
  151.4336  145.0435  159.4450 C   0  0  0  0  0  0  0  0  0  0  0  0
  151.9807  142.5824  158.8748 C   0  0  2  0  0  0  0  0  0  0  0  0
  150.8891  142.5153  157.7841 C   0  0  0  0  0  0  0  0  0  0  0  0
  151.1186  137.6783  156.6273 C   0  0  0  0  0  0  0  0  0  0  0  0
  150.8619  137.2142  157.7422 O   0  0  0  0  0  0  0  0  0  0  0  0
  150.9281  133.9525  155.3604 H   0  0  0  0  0  0  0  0  0  0  0  0
  150.9849  135.7150  155.4127 H   0  0  0  0  0  0  0  0  0  0  0  0
  150.4810  134.8830  153.9304 H   0  0  0  0  0  0  0  0  0  0  0  0
  148.6157  136.2521  154.0257 H   0  0  0  0  0  0  0  0  0  0  0  0
  147.3110  135.8744  155.1385 H   0  0  0  0  0  0  0  0  0  0  0  0
  148.1167  138.0463  155.8757 H   0  0  0  0  0  0  0  0  0  0  0  0
  148.8390  136.9551  157.0056 H   0  0  0  0  0  0  0  0  0  0  0  0
  148.5809  137.8845  153.4942 H   0  0  0  0  0  0  0  0  0  0  0  0
  149.6659  138.7382  152.4783 H   0  0  0  0  0  0  0  0  0  0  0  0
  151.9231  139.0955  153.0964 H   0  0  0  0  0  0  0  0  0  0  0  0
  153.6556  137.1294  157.7058 H   0  0  0  0  0  0  0  0  0  0  0  0
  154.3826  138.5572  157.0827 H   0  0  0  0  0  0  0  0  0  0  0  0
  152.7355  140.5942  157.5132 H   0  0  0  0  0  0  0  0  0  0  0  0
  151.3077  140.8244  159.9233 H   0  0  0  0  0  0  0  0  0  0  0  0
  153.4385  140.2458  161.0481 H   0  0  0  0  0  0  0  0  0  0  0  0
  154.2768  141.5054  160.1751 H   0  0  0  0  0  0  0  0  0  0  0  0
  152.0221  141.9077  162.1976 H   0  0  0  0  0  0  0  0  0  0  0  0
  153.7125  142.2787  162.4476 H   0  0  0  0  0  0  0  0  0  0  0  0
  152.4277  144.3225  161.8793 H   0  0  0  0  0  0  0  0  0  0  0  0
  153.6534  143.9993  160.6781 H   0  0  0  0  0  0  0  0  0  0  0  0
  150.6948  143.3081  160.4490 H   0  0  0  0  0  0  0  0  0  0  0  0
  152.3060  145.3819  158.8852 H   0  0  0  0  0  0  0  0  0  0  0  0
  151.2698  145.7496  160.2596 H   0  0  0  0  0  0  0  0  0  0  0  0
  150.5646  145.1147  158.7919 H   0  0  0  0  0  0  0  0  0  0  0  0
  152.9031  142.9119  158.3933 H   0  0  0  0  0  0  0  0  0  0  0  0
  149.9257  142.2309  158.2080 H   0  0  0  0  0  0  0  0  0  0  0  0
  151.1335  141.7909  157.0075 H   0  0  0  0  0  0  0  0  0  0  0  0
  150.7630  143.4704  157.2762 H   0  0  0  0  0  0  0  0  0  0  0  0
  1  2  1  0  0  0  0
  1 26  1  0  0  0  0
  1 27  1  0  0  0  0
  1 28  1  0  0  0  0
  2  3  1  0  0  0  0
  3  4  1  0  0  0  0
  3 29  1  0  0  0  0
  3 30  1  0  0  0  0
  4  5  1  0  0  0  0
  4 31  1  0  0  0  0
  4 32  1  0  0  0  0
  5 24  1  0  0  0  0
  5  6  1  0  0  0  0
  6  7  1  0  0  0  0
  6  8  2  0  0  0  0
  7 33  1  0  0  0  0
  7 34  1  0  0  0  0
  8  9  1  0  0  0  0
  8 35  1  0  0  0  0
  9 10  2  0  0  0  0
  9 11  1  0  0  0  0
 11 12  1  0  0  0  0
 11 24  1  0  0  0  0
 12 13  1  0  0  0  0
 12 36  1  0  0  0  0
 12 37  1  0  0  0  0
 13 14  2  0  0  0  0
 13 15  1  0  0  0  0
 15 16  1  0  0  0  0
 15 38  1  0  0  0  0
 16 22  1  0  0  0  0
 16 17  1  0  0  0  0
 16 39  1  0  0  0  0
 17 18  1  0  0  0  0
 17 40  1  0  0  0  0
 17 41  1  0  0  0  0
 18 19  1  0  0  0  0
 18 42  1  0  0  0  0
 18 43  1  0  0  0  0
 19 20  1  0  0  0  0
 19 44  1  0  0  0  0
 19 45  1  0  0  0  0
 20 21  1  0  0  0  0
 20 22  1  0  0  0  0
 20 46  1  0  0  0  0
 21 47  1  0  0  0  0
 21 48  1  0  0  0  0
 21 49  1  0  0  0  0
 22 23  1  0  0  0  0
 22 50  1  0  0  0  0
 23 51  1  0  0  0  0
 23 52  1  0  0  0  0
 23 53  1  0  0  0  0
 24 25  2  0  0  0  0
M  END
> <s_m_source_file>
AV-unprocessed.smi

> <i_m_source_file_index>
415

> <i_lp_mmshare_version>
43012

> <i_f3d_flags>
0

> <s_epik_input>
W0NIM11PW0NIMl1bQ0gyXW4xYyhbTkgyXSlbY0hdYyg9TyluKGMxPU8pW0NIMl1DKD1PKVtOSF1bQ0BASF0yW0NIMl1bQ0gyXVtDSDJdW0NAQEhdKFtDSDNdKVtDQEhdMltDSDNd

> <s_epik_cmdline>
J2VwaWtfcHl0aG9uJywgJy1waCcsICc3LjAnLCAnLXRuJywgJzgnLCAnLW1hJywgJzIwMCcsICctbWV0YWxfYmluZGluZycsICctaW1hZScsICc8aW5maWxlLm1hZT4nLCAnLW9tYWUnLCAnPG91dGZpbGUubWFlPic=

> <r_lp_tautomer_probability>
1

> <r_epik_Ionization_Penalty>
8.6647e-06

> <r_epik_Ionization_Penalty_Charging>
1.81162e-08

> <r_epik_Ionization_Penalty_Neutral>
8.64658e-06

> <r_epik_State_Penalty>
-0

> <r_epik_Charging_Adjusted_Penalty>
1.81162e-08

> <i_epik_Tot_Q>
0

> <i_epik_Tot_abs_Q>
0

> <r_epik_Metal_State_Penalty>
-0

> <b_epik_Metal_Only>
0

> <s_lp_Force_Field>
OPLS_2005

> <r_lp_Energy>
22.0049

> <b_lp_Chiralities_Consistent>
1

> <s_lp_Variant>
AV-unprocessed.smi:415-6

> <Gold.Version>
5.8.1

> <Gold.Id.Protein>
6NUR|6NUR_protein|mol2

> <Gold.PLP.Fitness>
47.9756

> <Gold.PLP.PLP>
-42.2361

> <Gold.PLP.part.hbond>
-2.8623

> <Gold.PLP.part.metal>
0.0000

> <Gold.PLP.part.buried>
-6.9664

> <Gold.PLP.part.nonpolar>
-32.2793

> <Gold.PLP.part.repulsive>
0.2470

> <Gold.PLP.ligand.clash>
0.0000

> <Gold.PLP.ligand.torsion>
0.1409

> <Gold.PLP.Chemscore.Hbond>
2.0000

> <Gold.PLP.Chemscore.CHOScore>
0.0000

> <Gold.PLP.Chemscore.Metal>
0.0000

> <Gold.Chemscore.Hbonds>
donor molecule, donor type, donor heavy atom, donor atom, acceptor molecule, acceptor atom, score
      L1  H     7    34       P1  7957  1.00
      P1  H  7997  8010       L1    10  0.96

> <Gold.PLP.Chemscore.Internal.Correction>
0.0212

> <Gold.Rescore>
     Score         DG    S(hbond)    S(metal)    S(lipo)     H(rot)  DE(clash)    DE(int)     intcor
     13.38     -18.45       1.91        0.00     105.87       2.26       1.00       4.07       ----

> <Gold.Chemscore.Fitness>
13.3821

> <Gold.Chemscore.DG>
-18.4481

> <Gold.Chemscore.ZeroCoef>
-5.4800

> <Gold.Chemscore.Hbond>
1.9098

> <Gold.Chemscore.Metal>
0.0000

> <Gold.Chemscore.Lipo>
105.8667

> <Gold.Chemscore.Internal_Hbond>
0.0000

> <Gold.Chemscore.DEClash>
0.9975

> <Gold.Chemscore.DEInternal>
4.0684

> <Gold.Chemscore.Rot>
2.2645

> <Gold.Chemscore.Internal.Correction>
   9.000000E+99

> <Gold.Chemscore.Hbonds>
donor molecule, donor type, donor heavy atom, donor atom, acceptor molecule, acceptor atom, score
      L1  H     7    34       P1  7957  0.60
      P1  H  7997  8010       L1    10  0.88

> <Gold.Chemscore.Hbond.Weighted>
-6.3789

> <Gold.Chemscore.Metal.Weighted>
-0.0000

> <Gold.Chemscore.Lipo.Weighted>
-12.3864

> <Gold.Chemscore.Internal_Hbond.Weighted>
0.0000

> <Gold.Chemscore.DEClash.Weighted>
0.9975

> <Gold.Chemscore.DEInternal.Weighted>
4.0684

> <Gold.Chemscore.Rot.Weighted>
5.7972

> <Gold.Chemscore.Internal.Correction.Weighted>
   9.000000E+99

> <Gold.Protein.RotatedTorsions>
[ 6907 6896 6895 6894 ] final  111.67 input  -60.11 | X-H torsion
[ 7974 7965 7964 7962 ] final  177.32 input  175.53 | X-H torsion
[ 8008 7997 7996 7995 ] final  115.46 input   59.86 | X-H torsion
[ 10167 10162 10161 10158 ] final  -63.34 input  -65.29 | X-H torsion
[ 10718 10713 10712 10709 ] final    7.95 input   66.30 | X-H torsion
[ 10763 10752 10751 10750 ] final  -60.43 input  -60.55 | X-H torsion
[ 11005 11000 10999 10996 ] final   41.85 input  -57.11 | X-H torsion

> <Gold.Protein.ActiveResidues>
 VAL166  LYS551  ARG553  GLY616  TRP617  ASP618  TYR619  PRO620  LYS621  CYS622 
 ASP623  PHE694  ASN695  SER759  ASP760  ASP761  ALA762  ILE779  LEU786  VAL792 
 PHE793  MET794  SER795  GLU796  ALA797  LYS798  CYS799  TRP800  GLU811  SER814 

> <Gold.Protein.RotatedAtoms>
  152.4957  133.8624  159.7256 H   0  0  0  0  0  0  0  0  0  0  0  0  # atno 6907 bound_to 6896
  150.9132  133.6962  159.2856 H   0  0  0  0  0  0  0  0  0  0  0  0  # atno 6908 bound_to 6896
  151.4365  135.1020  159.9710 H   0  0  0  0  0  0  0  0  0  0  0  0  # atno 6909 bound_to 6896
  144.7171  140.0230  143.6440 H   0  0  0  0  0  0  0  0  0  0  0  0  # atno 7974 bound_to 7965
  156.2382  140.2938  156.0371 H   0  0  0  0  0  0  0  0  0  0  0  0  # atno 8008 bound_to 7997
  155.2028  140.0410  157.2937 H   0  0  0  0  0  0  0  0  0  0  0  0  # atno 8009 bound_to 7997
  154.6119  140.2454  155.7666 H   0  0  0  0  0  0  0  0  0  0  0  0  # atno 8010 bound_to 7997
  140.5877  143.2336  151.6206 H   0  0  0  0  0  0  0  0  0  0  0  0  # atno 10167 bound_to 10162
  156.9444  130.5873  149.5654 H   0  0  0  0  0  0  0  0  0  0  0  0  # atno 10718 bound_to 10713
  154.2691  135.6293  153.5303 H   0  0  0  0  0  0  0  0  0  0  0  0  # atno 10763 bound_to 10752
  152.9883  135.5606  154.5620 H   0  0  0  0  0  0  0  0  0  0  0  0  # atno 10764 bound_to 10752
  154.5186  135.2881  155.1257 H   0  0  0  0  0  0  0  0  0  0  0  0  # atno 10765 bound_to 10752
  140.1795  134.4121  155.8208 H   0  0  0  0  0  0  0  0  0  0  0  0  # atno 11005 bound_to 11000
  146.0165  139.3214  143.0839 LP  0  0  0  0  0  0  0  0  0  0  0  0  # atno 17320 bound_to 7965
  145.8619  140.9470  143.0695 LP  0  0  0  0  0  0  0  0  0  0  0  0  # atno 17321 bound_to 7965
  139.5208  144.3212  152.0909 LP  0  0  0  0  0  0  0  0  0  0  0  0  # atno 17342 bound_to 10162
  140.2371  144.4308  150.6275 LP  0  0  0  0  0  0  0  0  0  0  0  0  # atno 17343 bound_to 10162
  156.0390  130.5475  150.8725 LP  0  0  0  0  0  0  0  0  0  0  0  0  # atno 17370 bound_to 10713
  157.5764  131.0946  150.9340 LP  0  0  0  0  0  0  0  0  0  0  0  0  # atno 17371 bound_to 10713
  141.2222  133.6994  156.7906 LP  0  0  0  0  0  0  0  0  0  0  0  0  # atno 17394 bound_to 11000
  140.2284  134.8704  157.3450 LP  0  0  0  0  0  0  0  0  0  0  0  0  # atno 17395 bound_to 11000

$$$$
