AV-unprocessed.smi:3148|AV-procd|sdf|11991|dock2
  -GOLD-   2272017393D 1   1.00000     0.00000
 Structure written by MMmdl.
 34 36  0  0  0  0  0  0  0  0  1 V2000
  153.3171  138.7981  154.8785 C   0  0  0  0  0  0  0  0  0  0  0  0
  153.0575  139.7626  155.8927 O   0  0  0  0  0  0  0  0  0  0  0  0
  151.8432  140.4165  155.8704 C   0  0  0  0  0  0  0  0  0  0  0  0
  150.8337  139.9763  154.9905 C   0  0  0  0  0  0  0  0  0  0  0  0
  149.6184  140.6918  155.0211 C   0  0  0  0  0  0  0  0  0  0  0  0
  148.4547  140.3146  154.1291 C   0  0  0  0  0  0  0  0  0  0  0  0
  149.4311  141.7433  155.8492 N   0  0  0  0  0  0  0  0  0  0  0  0
  150.4501  142.0772  156.6444 C   0  0  0  0  0  0  0  0  0  0  0  0
  150.2224  143.1505  157.4860 N   0  0  0  0  0  0  0  0  0  0  0  0
  150.7352  143.2522  158.8469 C   0  0  2  0  0  0  0  0  0  0  0  0
  150.3333  144.5593  159.5414 C   0  0  0  0  0  0  0  0  0  0  0  0
  151.6964  145.1359  159.9437 C   0  0  1  0  0  0  0  0  0  0  0  0
  152.3709  144.3159  161.0519 C   0  0  0  0  0  0  0  0  0  0  0  0
  152.8057  143.0627  160.2920 C   0  0  0  0  0  0  0  0  0  0  0  0
  152.2698  143.3454  158.8818 C   0  0  2  0  0  0  0  0  0  0  0  0
  152.4702  144.7486  158.8222 O   0  0  0  0  0  0  0  0  0  0  0  0
  151.6421  141.4721  156.6978 N   0  0  0  0  0  0  0  0  0  0  0  0
  154.3062  138.3679  155.0339 H   0  0  0  0  0  0  0  0  0  0  0  0
  153.3051  139.2510  153.8860 H   0  0  0  0  0  0  0  0  0  0  0  0
  152.5929  137.9827  154.9081 H   0  0  0  0  0  0  0  0  0  0  0  0
  150.9866  139.1349  154.3311 H   0  0  0  0  0  0  0  0  0  0  0  0
  148.7370  139.5333  153.4229 H   0  0  0  0  0  0  0  0  0  0  0  0
  148.1136  141.1801  153.5605 H   0  0  0  0  0  0  0  0  0  0  0  0
  147.6222  139.9475  154.7299 H   0  0  0  0  0  0  0  0  0  0  0  0
  149.5369  143.8293  157.1881 H   0  0  0  0  0  0  0  0  0  0  0  0
  150.4031  142.3814  159.4138 H   0  0  0  0  0  0  0  0  0  0  0  0
  149.8253  145.2399  158.8564 H   0  0  0  0  0  0  0  0  0  0  0  0
  149.6792  144.3952  160.3983 H   0  0  0  0  0  0  0  0  0  0  0  0
  151.6836  146.2097  160.1311 H   0  0  0  0  0  0  0  0  0  0  0  0
  153.2391  144.8408  161.4519 H   0  0  0  0  0  0  0  0  0  0  0  0
  151.6913  144.0980  161.8764 H   0  0  0  0  0  0  0  0  0  0  0  0
  153.8932  142.9806  160.2822 H   0  0  0  0  0  0  0  0  0  0  0  0
  152.3981  142.1455  160.7183 H   0  0  0  0  0  0  0  0  0  0  0  0
  152.7776  142.7784  158.1007 H   0  0  0  0  0  0  0  0  0  0  0  0
  1  2  1  0  0  0  0
  1 18  1  0  0  0  0
  1 19  1  0  0  0  0
  1 20  1  0  0  0  0
  2  3  1  0  0  0  0
  3 17  1  0  0  0  0
  3  4  2  0  0  0  0
  4  5  1  0  0  0  0
  4 21  1  0  0  0  0
  5  6  1  0  0  0  0
  5  7  2  0  0  0  0
  6 22  1  0  0  0  0
  6 23  1  0  0  0  0
  6 24  1  0  0  0  0
  7  8  1  0  0  0  0
  8  9  1  0  0  0  0
  8 17  2  0  0  0  0
  9 10  1  0  0  0  0
  9 25  1  0  0  0  0
 10 15  1  0  0  0  0
 10 11  1  0  0  0  0
 10 26  1  0  0  0  0
 11 12  1  0  0  0  0
 11 27  1  0  0  0  0
 11 28  1  0  0  0  0
 12 16  1  0  0  0  0
 12 13  1  0  0  0  0
 12 29  1  0  0  0  0
 13 14  1  0  0  0  0
 13 30  1  0  0  0  0
 13 31  1  0  0  0  0
 14 15  1  0  0  0  0
 14 32  1  0  0  0  0
 14 33  1  0  0  0  0
 15 16  1  0  0  0  0
 15 34  1  0  0  0  0
M  END
> <s_m_source_file>
AV-unprocessed.smi

> <i_m_source_file_index>
3148

> <i_lp_mmshare_version>
43012

> <i_f3d_flags>
0

> <s_epik_input>
W0NIM11PYzFbY0hdYyhbQ0gzXSluYyhuMSlbTkhdW0NASF0oW0NIMl1bQ0BASF0yMylbQ0BASF0oTzMpW0NIMl1bQ0gyXTI=

> <s_epik_cmdline>
J2VwaWtfcHl0aG9uJywgJy1waCcsICc3LjAnLCAnLXRuJywgJzgnLCAnLW1hJywgJzIwMCcsICctbWV0YWxfYmluZGluZycsICctaW1hZScsICc8aW5maWxlLm1hZT4nLCAnLW9tYWUnLCAnPG91dGZpbGUubWFlPic=

> <r_lp_tautomer_probability>
1

> <r_epik_Ionization_Penalty>
0.101645

> <r_epik_Ionization_Penalty_Charging>
0

> <r_epik_Ionization_Penalty_Neutral>
0.101645

> <r_epik_State_Penalty>
0.0916212

> <r_epik_Charging_Adjusted_Penalty>
0.0916212

> <i_epik_Tot_Q>
0

> <i_epik_Tot_abs_Q>
0

> <r_epik_Metal_State_Penalty>
0.0781

> <b_epik_Metal_Only>
0

> <s_lp_Force_Field>
OPLS_2005

> <r_lp_Energy>
31.271

> <b_lp_Chiralities_Consistent>
1

> <s_lp_Variant>
AV-unprocessed.smi:3148-1

> <Gold.Version>
5.8.1

> <Gold.Id.Protein>
6NUR|6NUR_protein|mol2

> <Gold.PLP.Fitness>
43.7891

> <Gold.PLP.PLP>
-38.4985

> <Gold.PLP.part.hbond>
-2.0000

> <Gold.PLP.part.metal>
0.0000

> <Gold.PLP.part.buried>
-4.0083

> <Gold.PLP.part.nonpolar>
-32.7541

> <Gold.PLP.part.repulsive>
0.5632

> <Gold.PLP.ligand.clash>
0.0000

> <Gold.PLP.ligand.torsion>
0.3670

> <Gold.PLP.Chemscore.Hbond>
2.0000

> <Gold.PLP.Chemscore.CHOScore>
0.0000

> <Gold.PLP.Chemscore.Metal>
0.0000

> <Gold.Chemscore.Hbonds>
donor molecule, donor type, donor heavy atom, donor atom, acceptor molecule, acceptor atom, score
      L1  H     9    25       P1  8028  0.86
      P1  H  7997  8009       L1     2  0.72

> <Gold.PLP.Chemscore.Internal.Correction>
0.0245

> <Gold.Rescore>
     Score         DG    S(hbond)    S(metal)    S(lipo)     H(rot)  DE(clash)    DE(int)     intcor
     18.46     -19.09       1.76        0.00      92.89       1.22       0.22       0.41       ----

> <Gold.Chemscore.Fitness>
18.4618

> <Gold.Chemscore.DG>
-19.0885

> <Gold.Chemscore.ZeroCoef>
-5.4800

> <Gold.Chemscore.Hbond>
1.7581

> <Gold.Chemscore.Metal>
0.0000

> <Gold.Chemscore.Lipo>
92.8878

> <Gold.Chemscore.Internal_Hbond>
0.0000

> <Gold.Chemscore.DEClash>
0.2164

> <Gold.Chemscore.DEInternal>
0.4104

> <Gold.Chemscore.Rot>
1.2232

> <Gold.Chemscore.Internal.Correction>
   9.000000E+99

> <Gold.Chemscore.Hbonds>
donor molecule, donor type, donor heavy atom, donor atom, acceptor molecule, acceptor atom, score
      L1  H     9    25       P1  8028  0.59
      P1  H  7997  8009       L1     2  0.48

> <Gold.Chemscore.Hbond.Weighted>
-5.8721

> <Gold.Chemscore.Metal.Weighted>
-0.0000

> <Gold.Chemscore.Lipo.Weighted>
-10.8679

> <Gold.Chemscore.Internal_Hbond.Weighted>
0.0000

> <Gold.Chemscore.DEClash.Weighted>
0.2164

> <Gold.Chemscore.DEInternal.Weighted>
0.4104

> <Gold.Chemscore.Rot.Weighted>
3.1314

> <Gold.Chemscore.Internal.Correction.Weighted>
   9.000000E+99

> <Gold.Protein.RotatedTorsions>
[ 6907 6896 6895 6894 ] final -162.99 input  -60.11 | X-H torsion
[ 7974 7965 7964 7962 ] final -136.60 input  175.53 | X-H torsion
[ 8008 7997 7996 7995 ] final  177.35 input   59.86 | X-H torsion
[ 10167 10162 10161 10158 ] final  135.56 input  -65.29 | X-H torsion
[ 10718 10713 10712 10709 ] final  178.09 input   66.30 | X-H torsion
[ 10763 10752 10751 10750 ] final  139.92 input  -60.55 | X-H torsion
[ 11005 11000 10999 10996 ] final -116.03 input  -57.11 | X-H torsion

> <Gold.Protein.ActiveResidues>
 VAL166  LYS551  ARG553  GLY616  TRP617  ASP618  TYR619  PRO620  LYS621  CYS622 
 ASP623  PHE694  ASN695  SER759  ASP760  ASP761  ALA762  ILE779  LEU786  VAL792 
 PHE793  MET794  SER795  GLU796  ALA797  LYS798  CYS799  TRP800  GLU811  SER814 

> <Gold.Protein.RotatedAtoms>
  151.3890  133.3795  159.2718 H   0  0  0  0  0  0  0  0  0  0  0  0  # atno 6907 bound_to 6896
  150.9519  134.8919  159.7688 H   0  0  0  0  0  0  0  0  0  0  0  0  # atno 6908 bound_to 6896
  152.5115  134.3845  159.9415 H   0  0  0  0  0  0  0  0  0  0  0  0  # atno 6909 bound_to 6896
  144.8913  140.6646  143.5143 H   0  0  0  0  0  0  0  0  0  0  0  0  # atno 7974 bound_to 7965
  156.0666  140.1360  156.9878 H   0  0  0  0  0  0  0  0  0  0  0  0  # atno 8008 bound_to 7997
  154.4509  140.0980  156.6667 H   0  0  0  0  0  0  0  0  0  0  0  0  # atno 8009 bound_to 7997
  155.5294  140.3458  155.4425 H   0  0  0  0  0  0  0  0  0  0  0  0  # atno 8010 bound_to 7997
  139.5212  144.6510  151.5301 H   0  0  0  0  0  0  0  0  0  0  0  0  # atno 10167 bound_to 10162
  156.8957  130.9862  151.3043 H   0  0  0  0  0  0  0  0  0  0  0  0  # atno 10718 bound_to 10713
  153.9141  135.3008  155.3448 H   0  0  0  0  0  0  0  0  0  0  0  0  # atno 10763 bound_to 10752
  154.7608  135.4935  153.9464 H   0  0  0  0  0  0  0  0  0  0  0  0  # atno 10764 bound_to 10752
  153.1177  135.6774  153.9492 H   0  0  0  0  0  0  0  0  0  0  0  0  # atno 10765 bound_to 10752
  141.0449  133.9779  157.2934 H   0  0  0  0  0  0  0  0  0  0  0  0  # atno 11005 bound_to 11000
  145.3778  139.1644  143.4297 LP  0  0  0  0  0  0  0  0  0  0  0  0  # atno 17320 bound_to 7965
  146.3055  140.3856  142.8688 LP  0  0  0  0  0  0  0  0  0  0  0  0  # atno 17321 bound_to 7965
  140.6315  143.9066  150.6610 LP  0  0  0  0  0  0  0  0  0  0  0  0  # atno 17342 bound_to 10162
  140.2372  143.3691  152.1517 LP  0  0  0  0  0  0  0  0  0  0  0  0  # atno 17343 bound_to 10162
  157.6056  130.8545  149.8870 LP  0  0  0  0  0  0  0  0  0  0  0  0  # atno 17370 bound_to 10713
  156.0606  130.3700  150.0990 LP  0  0  0  0  0  0  0  0  0  0  0  0  # atno 17371 bound_to 10713
  139.9304  135.0200  156.8379 LP  0  0  0  0  0  0  0  0  0  0  0  0  # atno 17394 bound_to 11000
  140.6166  134.0033  155.7600 LP  0  0  0  0  0  0  0  0  0  0  0  0  # atno 17395 bound_to 11000

$$$$
