AV-unprocessed.smi:1558|AV-procd|sdf|6273|dock5
  -GOLD-   22720 6463D 1   1.00000     0.00000
 Structure written by MMmdl.
 36 37  0  0  0  0  0  0  0  0  1 V2000
  151.3006  125.6287  149.1294 N   0  0  0  0  0  0  0  0  0  0  0  0
  150.3530  124.6985  148.9840 C   0  0  0  0  0  0  0  0  0  0  0  0
  150.1013  124.1808  147.8982 O   0  0  0  0  0  0  0  0  0  0  0  0
  149.5763  124.2906  150.2373 C   0  0  0  0  0  0  0  0  0  0  0  0
  148.9761  125.4453  150.8817 N   0  0  0  0  0  0  0  0  0  0  0  0
  148.7515  126.6995  150.3477 C   0  0  0  0  0  0  0  0  0  0  0  0
  148.1662  127.4276  151.3444 C   0  0  0  0  0  0  0  0  0  0  0  0
  147.7272  128.7758  151.3339 N   0  0  0  0  0  0  0  0  0  0  0  0
  146.6722  129.2940  151.9834 C   0  0  0  0  0  0  0  0  0  0  0  0
  145.9046  128.6581  152.7064 O   0  0  0  0  0  0  0  0  0  0  0  0
  146.5549  130.6087  151.7492 N   0  0  0  0  0  0  0  0  0  0  0  0
  145.5357  131.4762  152.3291 C   0  0  0  0  0  0  0  0  0  0  0  0
  145.7544  132.9441  151.9283 C   0  0  1  0  0  0  0  0  0  0  0  0
  145.1646  133.3022  150.5664 C   0  0  0  0  0  0  0  0  0  0  0  0
  145.0277  134.8034  150.6822 C   0  0  0  0  0  0  0  0  0  0  0  0
  144.6145  134.9767  152.1423 C   0  0  0  0  0  0  0  0  0  0  0  0
  145.1012  133.8290  152.8343 O   0  0  0  0  0  0  0  0  0  0  0  0
  148.0706  126.5527  152.4576 C   0  0  0  0  0  0  0  0  0  0  0  0
  148.5616  125.3567  152.1705 N   0  0  0  0  0  0  0  0  0  0  0  0
  151.8347  125.9281  148.3264 H   0  0  0  0  0  0  0  0  0  0  0  0
  151.4791  126.0315  150.0378 H   0  0  0  0  0  0  0  0  0  0  0  0
  148.7971  123.5741  149.9719 H   0  0  0  0  0  0  0  0  0  0  0  0
  150.2365  123.7949  150.9502 H   0  0  0  0  0  0  0  0  0  0  0  0
  149.0223  126.9463  149.3319 H   0  0  0  0  0  0  0  0  0  0  0  0
  148.2796  129.4142  150.7806 H   0  0  0  0  0  0  0  0  0  0  0  0
  147.2306  131.0460  151.1402 H   0  0  0  0  0  0  0  0  0  0  0  0
  144.5673  131.1383  151.9597 H   0  0  0  0  0  0  0  0  0  0  0  0
  145.5038  131.3724  153.4150 H   0  0  0  0  0  0  0  0  0  0  0  0
  146.8194  133.1822  151.9292 H   0  0  0  0  0  0  0  0  0  0  0  0
  145.7967  132.9929  149.7337 H   0  0  0  0  0  0  0  0  0  0  0  0
  144.1815  132.8460  150.4397 H   0  0  0  0  0  0  0  0  0  0  0  0
  145.9933  135.2791  150.5065 H   0  0  0  0  0  0  0  0  0  0  0  0
  144.3067  135.2254  149.9817 H   0  0  0  0  0  0  0  0  0  0  0  0
  145.0122  135.8957  152.5731 H   0  0  0  0  0  0  0  0  0  0  0  0
  143.5283  135.0014  152.2356 H   0  0  0  0  0  0  0  0  0  0  0  0
  147.6694  126.7400  153.4427 H   0  0  0  0  0  0  0  0  0  0  0  0
  1  2  1  0  0  0  0
  1 20  1  0  0  0  0
  1 21  1  0  0  0  0
  2  3  2  0  0  0  0
  2  4  1  0  0  0  0
  4  5  1  0  0  0  0
  4 22  1  0  0  0  0
  4 23  1  0  0  0  0
  5 19  1  0  0  0  0
  5  6  1  0  0  0  0
  6  7  2  0  0  0  0
  6 24  1  0  0  0  0
  7  8  1  0  0  0  0
  7 18  1  0  0  0  0
  8  9  1  0  0  0  0
  8 25  1  0  0  0  0
  9 10  2  0  0  0  0
  9 11  1  0  0  0  0
 11 12  1  0  0  0  0
 11 26  1  0  0  0  0
 12 13  1  0  0  0  0
 12 27  1  0  0  0  0
 12 28  1  0  0  0  0
 13 17  1  0  0  0  0
 13 14  1  0  0  0  0
 13 29  1  0  0  0  0
 14 15  1  0  0  0  0
 14 30  1  0  0  0  0
 14 31  1  0  0  0  0
 15 16  1  0  0  0  0
 15 32  1  0  0  0  0
 15 33  1  0  0  0  0
 16 17  1  0  0  0  0
 16 34  1  0  0  0  0
 16 35  1  0  0  0  0
 18 19  2  0  0  0  0
 18 36  1  0  0  0  0
M  END
> <s_m_source_file>
AV-unprocessed.smi

> <i_m_source_file_index>
1558

> <i_lp_mmshare_version>
43012

> <i_f3d_flags>
0

> <s_epik_input>
W05IMl1DKD1PKVtDSDJdbjFbY0hdYyhbY0hdbjEpW05IXUMoPU8pW05IXVtDSDJdW0NAQEhdMltDSDJdW0NIMl1bQ0gyXU8y

> <s_epik_cmdline>
J2VwaWtfcHl0aG9uJywgJy1waCcsICc3LjAnLCAnLXRuJywgJzgnLCAnLW1hJywgJzIwMCcsICctbWV0YWxfYmluZGluZycsICctaW1hZScsICc8aW5maWxlLm1hZT4nLCAnLW9tYWUnLCAnPG91dGZpbGUubWFlPic=

> <r_lp_tautomer_probability>
1

> <r_epik_Ionization_Penalty>
4.01684e-05

> <r_epik_Ionization_Penalty_Charging>
0

> <r_epik_Ionization_Penalty_Neutral>
4.01684e-05

> <r_epik_State_Penalty>
-0

> <r_epik_Charging_Adjusted_Penalty>
0

> <i_epik_Tot_Q>
0

> <i_epik_Tot_abs_Q>
0

> <r_epik_Metal_State_Penalty>
-0

> <b_epik_Metal_Only>
0

> <s_lp_Force_Field>
OPLS_2005

> <r_lp_Energy>
20.8688

> <b_lp_Chiralities_Consistent>
1

> <s_lp_Variant>
AV-unprocessed.smi:1558-2

> <Gold.Version>
5.8.1

> <Gold.Id.Protein>
6NUR|6NUR_protein|mol2

> <Gold.PLP.Fitness>
45.0793

> <Gold.PLP.PLP>
-35.4262

> <Gold.PLP.part.hbond>
-5.0000

> <Gold.PLP.part.metal>
0.0000

> <Gold.PLP.part.buried>
-5.0673

> <Gold.PLP.part.nonpolar>
-25.5532

> <Gold.PLP.part.repulsive>
0.6576

> <Gold.PLP.ligand.clash>
0.0000

> <Gold.PLP.ligand.torsion>
0.7311

> <Gold.PLP.Chemscore.Hbond>
3.6587

> <Gold.PLP.Chemscore.CHOScore>
0.0372

> <Gold.PLP.Chemscore.Metal>
0.0000

> <Gold.Chemscore.Hbonds>
donor molecule, donor type, donor heavy atom, donor atom, acceptor molecule, acceptor atom, score
      L1  H     1    20       P1 10722  0.37
      L1  H     1    21       P1 10737  0.16
      L1  H     8    25       P1 10747  0.95
      L1  H    11    26       P1 10747  0.90

> <Gold.PLP.Chemscore.Internal.Correction>
0.0278

> <Gold.Rescore>
     Score         DG    S(hbond)    S(metal)    S(lipo)     H(rot)  DE(clash)    DE(int)     intcor
     11.41     -14.43       2.33        0.00      61.05       2.33       0.23       2.80       ----

> <Gold.Chemscore.Fitness>
11.4069

> <Gold.Chemscore.DG>
-14.4338

> <Gold.Chemscore.ZeroCoef>
-5.4800

> <Gold.Chemscore.Hbond>
2.3284

> <Gold.Chemscore.Metal>
0.0000

> <Gold.Chemscore.Lipo>
61.0476

> <Gold.Chemscore.Internal_Hbond>
0.0000

> <Gold.Chemscore.DEClash>
0.2257

> <Gold.Chemscore.DEInternal>
2.8011

> <Gold.Chemscore.Rot>
2.3303

> <Gold.Chemscore.Internal.Correction>
   9.000000E+99

> <Gold.Chemscore.Hbonds>
donor molecule, donor type, donor heavy atom, donor atom, acceptor molecule, acceptor atom, score
      L1  H     1    20       P1 10722  0.36
      L1  H     1    21       P1 10737  0.03
      L1  H     8    25       P1 10747  0.21
      L1  H    11    26       P1 10747  0.87

> <Gold.Chemscore.Hbond.Weighted>
-7.7768

> <Gold.Chemscore.Metal.Weighted>
-0.0000

> <Gold.Chemscore.Lipo.Weighted>
-7.1426

> <Gold.Chemscore.Internal_Hbond.Weighted>
0.0000

> <Gold.Chemscore.DEClash.Weighted>
0.2257

> <Gold.Chemscore.DEInternal.Weighted>
2.8011

> <Gold.Chemscore.Rot.Weighted>
5.9656

> <Gold.Chemscore.Internal.Correction.Weighted>
   9.000000E+99

> <Gold.Protein.RotatedTorsions>
[ 6907 6896 6895 6894 ] final -150.79 input  -60.11 | X-H torsion
[ 7974 7965 7964 7962 ] final  156.30 input  175.53 | X-H torsion
[ 8008 7997 7996 7995 ] final  -66.99 input   59.86 | X-H torsion
[ 10167 10162 10161 10158 ] final -111.62 input  -65.29 | X-H torsion
[ 10718 10713 10712 10709 ] final -137.17 input   66.30 | X-H torsion
[ 10763 10752 10751 10750 ] final -109.98 input  -60.55 | X-H torsion
[ 11005 11000 10999 10996 ] final  117.05 input  -57.11 | X-H torsion

> <Gold.Protein.ActiveResidues>
 VAL166  LYS551  ARG553  GLY616  TRP617  ASP618  TYR619  PRO620  LYS621  CYS622 
 ASP623  PHE694  ASN695  SER759  ASP760  ASP761  ALA762  ILE779  LEU786  VAL792 
 PHE793  MET794  SER795  GLU796  ALA797  LYS798  CYS799  TRP800  GLU811  SER814 

> <Gold.Protein.RotatedAtoms>
  151.2037  133.4596  159.2596 H   0  0  0  0  0  0  0  0  0  0  0  0  # atno 6907 bound_to 6896
  151.1044  134.9991  159.8474 H   0  0  0  0  0  0  0  0  0  0  0  0  # atno 6908 bound_to 6896
  152.5446  134.1962  159.8746 H   0  0  0  0  0  0  0  0  0  0  0  0  # atno 6909 bound_to 6896
  144.7971  139.7185  143.6197 H   0  0  0  0  0  0  0  0  0  0  0  0  # atno 7974 bound_to 7965
  154.4770  140.0901  156.7287 H   0  0  0  0  0  0  0  0  0  0  0  0  # atno 8008 bound_to 7997
  155.4569  140.3459  155.4289 H   0  0  0  0  0  0  0  0  0  0  0  0  # atno 8009 bound_to 7997
  156.1132  140.1453  156.9297 H   0  0  0  0  0  0  0  0  0  0  0  0  # atno 8010 bound_to 7997
  140.1316  143.4356  152.1624 H   0  0  0  0  0  0  0  0  0  0  0  0  # atno 10167 bound_to 10162
  156.2852  130.7343  151.1353 H   0  0  0  0  0  0  0  0  0  0  0  0  # atno 10718 bound_to 10713
  154.8223  135.4581  154.0815 H   0  0  0  0  0  0  0  0  0  0  0  0  # atno 10763 bound_to 10752
  153.2158  135.6888  153.8065 H   0  0  0  0  0  0  0  0  0  0  0  0  # atno 10764 bound_to 10752
  153.7500  135.3299  155.3296 H   0  0  0  0  0  0  0  0  0  0  0  0  # atno 10765 bound_to 10752
  139.9061  134.9605  156.7292 H   0  0  0  0  0  0  0  0  0  0  0  0  # atno 11005 bound_to 11000
  146.2243  139.5693  142.9598 LP  0  0  0  0  0  0  0  0  0  0  0  0  # atno 17320 bound_to 7965
  145.5645  141.0401  143.2208 LP  0  0  0  0  0  0  0  0  0  0  0  0  # atno 17321 bound_to 7965
  139.5517  144.7342  151.4416 LP  0  0  0  0  0  0  0  0  0  0  0  0  # atno 17342 bound_to 10162
  140.6814  143.8074  150.7126 LP  0  0  0  0  0  0  0  0  0  0  0  0  # atno 17343 bound_to 10162
  157.7326  131.0598  150.5618 LP  0  0  0  0  0  0  0  0  0  0  0  0  # atno 17370 bound_to 10713
  156.5728  130.4284  149.6012 LP  0  0  0  0  0  0  0  0  0  0  0  0  # atno 17371 bound_to 10713
  140.6938  133.9366  155.7982 LP  0  0  0  0  0  0  0  0  0  0  0  0  # atno 17394 bound_to 11000
  141.0422  134.0605  157.3888 LP  0  0  0  0  0  0  0  0  0  0  0  0  # atno 17395 bound_to 11000

$$$$
