AV-unprocessed.smi:3234|AV-procd|sdf|12356|dock1
  -GOLD-   2272018213D 1   1.00000     0.00000
 Structure written by MMmdl.
 37 39  0  0  0  0  0  0  0  0  4 V2000
  151.7896  137.6451  156.3252 O   0  0  0  0  0  0  0  0  0  0  0  0
  151.0940  137.2472  155.3836 C   0  0  0  0  0  0  0  0  0  0  0  0
  150.3313  138.1114  154.6905 N   0  0  0  0  0  0  0  0  0  0  0  0
  150.1395  139.5021  154.9073 C   0  0  0  0  0  0  0  0  0  0  0  0
  149.0143  140.1123  154.3108 C   0  0  0  0  0  0  0  0  0  0  0  0
  148.7767  141.4859  154.5208 C   0  0  0  0  0  0  0  0  0  0  0  0
  149.6156  142.2022  155.2996 N   0  3  0  0  0  0  0  0  0  0  0  0
  150.6929  141.6583  155.9058 C   0  0  0  0  0  0  0  0  0  0  0  0
  150.9820  140.2897  155.7318 C   0  0  0  0  0  0  0  0  0  0  0  0
  151.0026  135.9793  154.8983 N   0  5  0  0  0  0  0  0  0  0  0  0
  150.0413  134.9740  155.3604 C   0  0  2  0  0  0  0  0  0  0  0  0
  150.2779  133.6227  154.6589 C   0  0  0  0  0  0  0  0  0  0  0  0
  148.8894  133.1557  154.2258 C   0  0  0  0  0  0  0  0  0  0  0  0
  148.1519  134.4030  153.9638 N   0  3  1  0  0  0  0  0  0  0  0  0
  146.6850  134.2390  153.8843 C   0  0  0  0  0  0  0  0  0  0  0  0
  146.2165  133.6253  152.5868 C   0  0  0  0  0  0  0  0  0  0  0  0
  146.0381  135.1079  152.8325 C   0  0  0  0  0  0  0  0  0  0  0  0
  148.6045  135.3767  154.9771 C   0  0  0  0  0  0  0  0  0  0  0  0
  149.8843  137.7314  153.8691 H   0  0  0  0  0  0  0  0  0  0  0  0
  148.3419  139.5363  153.6912 H   0  0  0  0  0  0  0  0  0  0  0  0
  147.9453  142.0277  154.0944 H   0  0  0  0  0  0  0  0  0  0  0  0
  151.2839  142.3274  156.5138 H   0  0  0  0  0  0  0  0  0  0  0  0
  151.8333  139.8634  156.2410 H   0  0  0  0  0  0  0  0  0  0  0  0
  150.0775  134.8309  156.4415 H   0  0  0  0  0  0  0  0  0  0  0  0
  150.9019  133.7426  153.7711 H   0  0  0  0  0  0  0  0  0  0  0  0
  150.7731  132.8996  155.3077 H   0  0  0  0  0  0  0  0  0  0  0  0
  148.9232  132.5178  153.3421 H   0  0  0  0  0  0  0  0  0  0  0  0
  148.4030  132.5936  155.0267 H   0  0  0  0  0  0  0  0  0  0  0  0
  146.1679  134.0244  154.8181 H   0  0  0  0  0  0  0  0  0  0  0  0
  146.9675  133.3238  151.8586 H   0  0  0  0  0  0  0  0  0  0  0  0
  145.3238  133.0040  152.6188 H   0  0  0  0  0  0  0  0  0  0  0  0
  145.0278  135.4626  153.0260 H   0  0  0  0  0  0  0  0  0  0  0  0
  146.6711  135.7912  152.2690 H   0  0  0  0  0  0  0  0  0  0  0  0
  147.9654  135.3059  155.8590 H   0  0  0  0  0  0  0  0  0  0  0  0
  148.5195  136.3960  154.5968 H   0  0  0  0  0  0  0  0  0  0  0  0
  148.4800  134.7487  153.0735 H   0  0  0  0  0  0  0  0  0  0  0  0
  149.4244  143.1944  155.4409 H   0  0  0  0  0  0  0  0  0  0  0  0
  1  2  2  0  0  0  0
  2  3  1  0  0  0  0
  2 10  1  0  0  0  0
  3  4  1  0  0  0  0
  3 19  1  0  0  0  0
  4  9  1  0  0  0  0
  4  5  2  0  0  0  0
  5  6  1  0  0  0  0
  5 20  1  0  0  0  0
  6  7  2  0  0  0  0
  6 21  1  0  0  0  0
  7  8  1  0  0  0  0
  7 37  1  0  0  0  0
  8  9  2  0  0  0  0
  8 22  1  0  0  0  0
  9 23  1  0  0  0  0
 10 11  1  0  0  0  0
 11 18  1  0  0  0  0
 11 12  1  0  0  0  0
 11 24  1  0  0  0  0
 12 13  1  0  0  0  0
 12 25  1  0  0  0  0
 12 26  1  0  0  0  0
 13 14  1  0  0  0  0
 13 27  1  0  0  0  0
 13 28  1  0  0  0  0
 14 15  1  0  0  0  0
 14 18  1  0  0  0  0
 14 36  1  0  0  0  0
 15 17  1  0  0  0  0
 15 16  1  0  0  0  0
 15 29  1  0  0  0  0
 16 17  1  0  0  0  0
 16 30  1  0  0  0  0
 16 31  1  0  0  0  0
 17 32  1  0  0  0  0
 17 33  1  0  0  0  0
 18 34  1  0  0  0  0
 18 35  1  0  0  0  0
M  CHG  1   7   1
M  CHG  1  10  -1
M  CHG  1  14   1
M  END
> <s_m_source_file>
AV-unprocessed.smi

> <i_m_source_file_index>
3234

> <i_lp_mmshare_version>
43012

> <i_f3d_flags>
0

> <s_epik_input>
W2NIXTFbY0hdbltjSF1bY0hdYzFbTkhdQyg9TylbTkhdW0NAQEhdMltDSDJdW0NIMl1OKFtDSDJdMilbQ0hdM1tDSDJdW0NIMl0z

> <s_epik_cmdline>
J2VwaWtfcHl0aG9uJywgJy1waCcsICc3LjAnLCAnLXRuJywgJzgnLCAnLW1hJywgJzIwMCcsICctbWV0YWxfYmluZGluZycsICctaW1hZScsICc8aW5maWxlLm1hZT4nLCAnLW9tYWUnLCAnPG91dGZpbGUubWFlPic=

> <r_epik_Ionization_Penalty>
8.3234

> <r_epik_Ionization_Penalty_Charging>
8.3234

> <r_epik_Ionization_Penalty_Neutral>
3.58513e-06

> <r_epik_State_Penalty>
7.99376

> <r_epik_Charging_Adjusted_Penalty>
16.3172

> <i_epik_Tot_Q>
1

> <i_epik_Tot_abs_Q>
3

> <r_epik_Metal_State_Penalty>
3.98956

> <b_epik_Metal_Only>
1

> <s_lp_Force_Field>
OPLS_2005

> <r_lp_Energy>
40.8871

> <b_lp_Chiralities_Consistent>
1

> <s_lp_Variant>
AV-unprocessed.smi:3234-9

> <Gold.Version>
5.8.1

> <Gold.Id.Protein>
6NUR|6NUR_protein|mol2

> <Gold.PLP.Fitness>
44.6513

> <Gold.PLP.PLP>
-28.3570

> <Gold.PLP.part.hbond>
-3.0000

> <Gold.PLP.part.metal>
0.0000

> <Gold.PLP.part.buried>
-2.8039

> <Gold.PLP.part.nonpolar>
-22.0355

> <Gold.PLP.part.repulsive>
0.4184

> <Gold.PLP.ligand.clash>
0.0000

> <Gold.PLP.ligand.torsion>
1.4881

> <Gold.PLP.Chemscore.Hbond>
6.0000

> <Gold.PLP.Chemscore.CHOScore>
0.0000

> <Gold.PLP.Chemscore.Metal>
0.0000

> <Gold.Chemscore.Hbonds>
donor molecule, donor type, donor heavy atom, donor atom, acceptor molecule, acceptor atom, score
      L1  H     7    37       P1  8028  2.00
      L1  H    14    36       P1  7948  2.00
      P1  H 10752 10765       L1    10  2.00

> <Gold.PLP.Chemscore.Internal.Correction>
1.2706

> <Gold.Rescore>
     Score         DG    S(hbond)    S(metal)    S(lipo)     H(rot)  DE(clash)    DE(int)     intcor
     14.39     -17.33       2.28        0.00      62.63       1.21       0.08       2.86       ----

> <Gold.Chemscore.Fitness>
14.3941

> <Gold.Chemscore.DG>
-17.3334

> <Gold.Chemscore.ZeroCoef>
-5.4800

> <Gold.Chemscore.Hbond>
2.2829

> <Gold.Chemscore.Metal>
0.0000

> <Gold.Chemscore.Lipo>
62.6333

> <Gold.Chemscore.Internal_Hbond>
0.0000

> <Gold.Chemscore.DEClash>
0.0796

> <Gold.Chemscore.DEInternal>
2.8596

> <Gold.Chemscore.Rot>
1.2108

> <Gold.Chemscore.Internal.Correction>
   9.000000E+99

> <Gold.Chemscore.Hbonds>
donor molecule, donor type, donor heavy atom, donor atom, acceptor molecule, acceptor atom, score
      L1  H     7    37       P1  8028  0.99
      L1  H    14    36       P1  7948  0.48
      P1  H 10752 10765       L1    10  0.24

> <Gold.Chemscore.Hbond.Weighted>
-7.6249

> <Gold.Chemscore.Metal.Weighted>
-0.0000

> <Gold.Chemscore.Lipo.Weighted>
-7.3281

> <Gold.Chemscore.Internal_Hbond.Weighted>
0.0000

> <Gold.Chemscore.DEClash.Weighted>
0.0796

> <Gold.Chemscore.DEInternal.Weighted>
2.8596

> <Gold.Chemscore.Rot.Weighted>
3.0996

> <Gold.Chemscore.Internal.Correction.Weighted>
   9.000000E+99

> <Gold.Protein.RotatedTorsions>
[ 6907 6896 6895 6894 ] final  -90.89 input  -60.11 | X-H torsion
[ 7974 7965 7964 7962 ] final  -94.31 input  175.53 | X-H torsion
[ 8008 7997 7996 7995 ] final  123.78 input   59.86 | X-H torsion
[ 10167 10162 10161 10158 ] final -144.56 input  -65.29 | X-H torsion
[ 10718 10713 10712 10709 ] final   89.22 input   66.30 | X-H torsion
[ 10763 10752 10751 10750 ] final -171.30 input  -60.55 | X-H torsion
[ 11005 11000 10999 10996 ] final -104.84 input  -57.11 | X-H torsion

> <Gold.Protein.ActiveResidues>
 VAL166  LYS551  ARG553  GLY616  TRP617  ASP618  TYR619  PRO620  LYS621  CYS622 
 ASP623  PHE694  ASN695  SER759  ASP760  ASP761  ALA762  ILE779  LEU786  VAL792 
 PHE793  MET794  SER795  GLU796  ALA797  LYS798  CYS799  TRP800  GLU811  SER814 

> <Gold.Protein.RotatedAtoms>
  150.6886  134.2362  159.4453 H   0  0  0  0  0  0  0  0  0  0  0  0  # atno 6907 bound_to 6896
  152.0309  134.9766  160.0582 H   0  0  0  0  0  0  0  0  0  0  0  0  # atno 6908 bound_to 6896
  152.1305  133.4370  159.4755 H   0  0  0  0  0  0  0  0  0  0  0  0  # atno 6909 bound_to 6896
  145.3749  140.9510  143.2426 H   0  0  0  0  0  0  0  0  0  0  0  0  # atno 7974 bound_to 7965
  156.2778  140.2755  156.1683 H   0  0  0  0  0  0  0  0  0  0  0  0  # atno 8008 bound_to 7997
  155.0682  140.0387  157.2617 H   0  0  0  0  0  0  0  0  0  0  0  0  # atno 8009 bound_to 7997
  154.7062  140.2659  155.6678 H   0  0  0  0  0  0  0  0  0  0  0  0  # atno 8010 bound_to 7997
  139.7888  143.7996  152.2647 H   0  0  0  0  0  0  0  0  0  0  0  0  # atno 10167 bound_to 10162
  157.6954  131.0325  150.3393 H   0  0  0  0  0  0  0  0  0  0  0  0  # atno 10718 bound_to 10713
  154.6320  135.2887  155.0205 H   0  0  0  0  0  0  0  0  0  0  0  0  # atno 10763 bound_to 10752
  154.1363  135.6525  153.4936 H   0  0  0  0  0  0  0  0  0  0  0  0  # atno 10764 bound_to 10752
  153.0284  135.5322  154.7151 H   0  0  0  0  0  0  0  0  0  0  0  0  # atno 10765 bound_to 10752
  141.1082  133.8757  157.1660 H   0  0  0  0  0  0  0  0  0  0  0  0  # atno 11005 bound_to 11000
  144.8549  139.5264  143.6839 LP  0  0  0  0  0  0  0  0  0  0  0  0  # atno 17320 bound_to 7965
  146.2868  139.7027  142.9189 LP  0  0  0  0  0  0  0  0  0  0  0  0  # atno 17321 bound_to 7965
  139.8081  144.7347  150.9734 LP  0  0  0  0  0  0  0  0  0  0  0  0  # atno 17342 bound_to 10162
  140.7820  143.4278  151.0741 LP  0  0  0  0  0  0  0  0  0  0  0  0  # atno 17343 bound_to 10162
  156.3856  130.3888  149.7068 LP  0  0  0  0  0  0  0  0  0  0  0  0  # atno 17370 bound_to 10713
  156.4436  130.7873  151.2894 LP  0  0  0  0  0  0  0  0  0  0  0  0  # atno 17371 bound_to 10713
  139.9962  135.0046  157.0087 LP  0  0  0  0  0  0  0  0  0  0  0  0  # atno 17394 bound_to 11000
  140.4847  134.1254  155.7222 LP  0  0  0  0  0  0  0  0  0  0  0  0  # atno 17395 bound_to 11000

$$$$
