AV-unprocessed.smi:1239|AV-procd|sdf|5186|dock10
  -GOLD-   22720 4273D 1   1.00000     0.00000
 Structure written by MMmdl.
 48 49  0  0  0  0  0  0  0  0  2 V2000
  152.4900  138.3905  155.4969 C   0  0  0  0  0  0  0  0  0  0  0  0
  151.1518  137.9417  154.8559 C   0  0  1  0  0  0  0  0  0  0  0  0
  150.7726  136.5382  155.4061 C   0  0  0  0  0  0  0  0  0  0  0  0
  149.9412  135.7706  154.4808 N   0  0  0  0  0  0  0  0  0  0  0  0
  149.6647  134.4625  154.5817 C   0  0  0  0  0  0  0  0  0  0  0  0
  150.1009  133.7397  155.4771 O   0  0  0  0  0  0  0  0  0  0  0  0
  148.8745  134.0549  153.5732 N   0  0  0  0  0  0  0  0  0  0  0  0
  148.3222  132.7645  153.3468 C   0  0  0  0  0  0  0  0  0  0  0  0
  147.0960  132.6843  152.6545 C   0  0  0  0  0  0  0  0  0  0  0  0
  146.5009  131.4272  152.4221 C   0  0  0  0  0  0  0  0  0  0  0  0
  147.1328  130.2503  152.8934 C   0  0  0  0  0  0  0  0  0  0  0  0
  146.5998  128.9569  152.7035 N   0  0  0  0  0  0  0  0  0  0  0  0
  145.3185  128.7929  152.0258 C   0  0  0  0  0  0  0  0  0  0  0  0
  147.3304  127.7929  153.1874 C   0  0  0  0  0  0  0  0  0  0  0  0
  148.3041  130.3791  153.5631 N   0  3  0  0  0  0  0  0  0  0  0  0
  148.9094  131.5616  153.8060 C   0  0  0  0  0  0  0  0  0  0  0  0
  150.0732  138.9443  155.0231 N   0  0  0  0  0  0  0  0  0  0  0  0
  150.5348  140.3157  154.7773 C   0  0  0  0  0  0  0  0  0  0  0  0
  149.4148  141.3602  154.9257 C   0  0  0  0  0  0  0  0  0  0  0  0
  148.3456  141.0427  154.0460 O   0  0  0  0  0  0  0  0  0  0  0  0
  147.8131  139.7507  154.3012 C   0  0  0  0  0  0  0  0  0  0  0  0
  148.9200  138.6926  154.1505 C   0  0  0  0  0  0  0  0  0  0  0  0
  153.2727  137.6400  155.3950 H   0  0  0  0  0  0  0  0  0  0  0  0
  152.3677  138.5933  156.5613 H   0  0  0  0  0  0  0  0  0  0  0  0
  152.8972  139.2846  155.0276 H   0  0  0  0  0  0  0  0  0  0  0  0
  151.3364  137.8240  153.7869 H   0  0  0  0  0  0  0  0  0  0  0  0
  151.6765  135.9934  155.6841 H   0  0  0  0  0  0  0  0  0  0  0  0
  150.1721  136.6176  156.3103 H   0  0  0  0  0  0  0  0  0  0  0  0
  149.5436  136.2811  153.7060 H   0  0  0  0  0  0  0  0  0  0  0  0
  148.6668  134.7459  152.8670 H   0  0  0  0  0  0  0  0  0  0  0  0
  146.6105  133.5810  152.2974 H   0  0  0  0  0  0  0  0  0  0  0  0
  145.5646  131.3880  151.8856 H   0  0  0  0  0  0  0  0  0  0  0  0
  145.3672  129.1914  151.0118 H   0  0  0  0  0  0  0  0  0  0  0  0
  144.5291  129.3153  152.5671 H   0  0  0  0  0  0  0  0  0  0  0  0
  145.0367  127.7420  151.9571 H   0  0  0  0  0  0  0  0  0  0  0  0
  147.4719  127.8509  154.2671 H   0  0  0  0  0  0  0  0  0  0  0  0
  148.3082  127.7280  152.7095 H   0  0  0  0  0  0  0  0  0  0  0  0
  146.7929  126.8694  152.9714 H   0  0  0  0  0  0  0  0  0  0  0  0
  149.8283  131.4906  154.3681 H   0  0  0  0  0  0  0  0  0  0  0  0
  151.3187  140.5904  155.4806 H   0  0  0  0  0  0  0  0  0  0  0  0
  150.9654  140.3872  153.7774 H   0  0  0  0  0  0  0  0  0  0  0  0
  149.0529  141.3962  155.9546 H   0  0  0  0  0  0  0  0  0  0  0  0
  149.7901  142.3546  154.6842 H   0  0  0  0  0  0  0  0  0  0  0  0
  147.3806  139.7174  155.3025 H   0  0  0  0  0  0  0  0  0  0  0  0
  147.0042  139.5550  153.5973 H   0  0  0  0  0  0  0  0  0  0  0  0
  149.2451  138.6533  153.1097 H   0  0  0  0  0  0  0  0  0  0  0  0
  148.4666  137.7302  154.3787 H   0  0  0  0  0  0  0  0  0  0  0  0
  148.7560  129.5321  153.9082 H   0  0  0  0  0  0  0  0  0  0  0  0
  1  2  1  0  0  0  0
  1 23  1  0  0  0  0
  1 24  1  0  0  0  0
  1 25  1  0  0  0  0
  2  3  1  0  0  0  0
  2 17  1  0  0  0  0
  2 26  1  0  0  0  0
  3  4  1  0  0  0  0
  3 27  1  0  0  0  0
  3 28  1  0  0  0  0
  4  5  1  0  0  0  0
  4 29  1  0  0  0  0
  5  6  2  0  0  0  0
  5  7  1  0  0  0  0
  7  8  1  0  0  0  0
  7 30  1  0  0  0  0
  8 16  1  0  0  0  0
  8  9  2  0  0  0  0
  9 10  1  0  0  0  0
  9 31  1  0  0  0  0
 10 11  2  0  0  0  0
 10 32  1  0  0  0  0
 11 12  1  0  0  0  0
 11 15  1  0  0  0  0
 12 13  1  0  0  0  0
 12 14  1  0  0  0  0
 13 33  1  0  0  0  0
 13 34  1  0  0  0  0
 13 35  1  0  0  0  0
 14 36  1  0  0  0  0
 14 37  1  0  0  0  0
 14 38  1  0  0  0  0
 15 16  2  0  0  0  0
 15 48  1  0  0  0  0
 16 39  1  0  0  0  0
 17 22  1  0  0  0  0
 17 18  1  0  0  0  0
 18 19  1  0  0  0  0
 18 40  1  0  0  0  0
 18 41  1  0  0  0  0
 19 20  1  0  0  0  0
 19 42  1  0  0  0  0
 19 43  1  0  0  0  0
 20 21  1  0  0  0  0
 21 22  1  0  0  0  0
 21 44  1  0  0  0  0
 21 45  1  0  0  0  0
 22 46  1  0  0  0  0
 22 47  1  0  0  0  0
M  CHG  1  15   1
M  END
> <s_m_source_file>
AV-unprocessed.smi

> <i_m_source_file_index>
1239

> <i_lp_mmshare_version>
43012

> <i_f3d_flags>
0

> <s_epik_input>
W0NIMl0xW0NIMl1PW0NIMl1bQ0gyXU4xW0NASF0oW0NIM10pW0NIMl1bTkhdQyg9TylbTkhdYzJbY0hdW2NIXWMoTihbQ0gzXSlbQ0gzXSluW2NIXTI=

> <s_epik_cmdline>
J2VwaWtfcHl0aG9uJywgJy1waCcsICc3LjAnLCAnLXRuJywgJzgnLCAnLW1hJywgJzIwMCcsICctbWV0YWxfYmluZGluZycsICctaW1hZScsICc8aW5maWxlLm1hZT4nLCAnLW9tYWUnLCAnPG91dGZpbGUubWFlPic=

> <r_lp_tautomer_probability>
0.999994

> <r_epik_Ionization_Penalty>
0.528791

> <r_epik_Ionization_Penalty_Charging>
0.26278

> <r_epik_Ionization_Penalty_Neutral>
0.26601

> <r_epik_State_Penalty>
0.520375

> <r_epik_Charging_Adjusted_Penalty>
0.783156

> <i_epik_Tot_Q>
1

> <i_epik_Tot_abs_Q>
1

> <r_epik_Metal_State_Penalty>
0.806531

> <b_epik_Metal_Only>
0

> <s_lp_Force_Field>
OPLS_2005

> <r_lp_Energy>
38.5694

> <b_lp_Chiralities_Consistent>
1

> <s_lp_Variant>
AV-unprocessed.smi:1239-2

> <Gold.Version>
5.8.1

> <Gold.Id.Protein>
6NUR|6NUR_protein|mol2

> <Gold.PLP.Fitness>
41.0006

> <Gold.PLP.PLP>
-36.7732

> <Gold.PLP.part.hbond>
-2.3087

> <Gold.PLP.part.metal>
0.0000

> <Gold.PLP.part.buried>
-1.1829

> <Gold.PLP.part.nonpolar>
-33.7388

> <Gold.PLP.part.repulsive>
0.3347

> <Gold.PLP.ligand.clash>
0.0000

> <Gold.PLP.ligand.torsion>
0.6735

> <Gold.PLP.Chemscore.Hbond>
1.8440

> <Gold.PLP.Chemscore.CHOScore>
0.0000

> <Gold.PLP.Chemscore.Metal>
0.0000

> <Gold.Chemscore.Hbonds>
donor molecule, donor type, donor heavy atom, donor atom, acceptor molecule, acceptor atom, score
      L1  H     4    29       P1  7948  0.93
      L1  H     7    30       P1  7948  0.90

> <Gold.PLP.Chemscore.Internal.Correction>
0.0425

> <Gold.Rescore>
     Score         DG    S(hbond)    S(metal)    S(lipo)     H(rot)  DE(clash)    DE(int)     intcor
     13.49     -15.15       1.26        0.00      78.54       1.46       0.10       1.56       ----

> <Gold.Chemscore.Fitness>
13.4918

> <Gold.Chemscore.DG>
-15.1515

> <Gold.Chemscore.ZeroCoef>
-5.4800

> <Gold.Chemscore.Hbond>
1.2636

> <Gold.Chemscore.Metal>
0.0000

> <Gold.Chemscore.Lipo>
78.5430

> <Gold.Chemscore.Internal_Hbond>
0.0000

> <Gold.Chemscore.DEClash>
0.1027

> <Gold.Chemscore.DEInternal>
1.5569

> <Gold.Chemscore.Rot>
1.4604

> <Gold.Chemscore.Internal.Correction>
   9.000000E+99

> <Gold.Chemscore.Hbonds>
donor molecule, donor type, donor heavy atom, donor atom, acceptor molecule, acceptor atom, score
      L1  H     4    29       P1  7948  0.54
      L1  H     7    30       P1  7948  0.18

> <Gold.Chemscore.Hbond.Weighted>
-4.2205

> <Gold.Chemscore.Metal.Weighted>
-0.0000

> <Gold.Chemscore.Lipo.Weighted>
-9.1895

> <Gold.Chemscore.Internal_Hbond.Weighted>
0.0000

> <Gold.Chemscore.DEClash.Weighted>
0.1027

> <Gold.Chemscore.DEInternal.Weighted>
1.5569

> <Gold.Chemscore.Rot.Weighted>
3.7385

> <Gold.Chemscore.Internal.Correction.Weighted>
   9.000000E+99

> <Gold.Protein.RotatedTorsions>
[ 6907 6896 6895 6894 ] final  136.83 input  -60.11 | X-H torsion
[ 7974 7965 7964 7962 ] final  175.12 input  175.53 | X-H torsion
[ 8008 7997 7996 7995 ] final -123.04 input   59.86 | X-H torsion
[ 10167 10162 10161 10158 ] final  -57.04 input  -65.29 | X-H torsion
[ 10718 10713 10712 10709 ] final   69.35 input   66.30 | X-H torsion
[ 10763 10752 10751 10750 ] final  173.22 input  -60.55 | X-H torsion
[ 11005 11000 10999 10996 ] final  -19.25 input  -57.11 | X-H torsion

> <Gold.Protein.ActiveResidues>
 VAL166  LYS551  ARG553  GLY616  TRP617  ASP618  TYR619  PRO620  LYS621  CYS622 
 ASP623  PHE694  ASN695  SER759  ASP760  ASP761  ALA762  ILE779  LEU786  VAL792 
 PHE793  MET794  SER795  GLU796  ALA797  LYS798  CYS799  TRP800  GLU811  SER814 

> <Gold.Protein.RotatedAtoms>
  152.2849  133.5505  159.5520 H   0  0  0  0  0  0  0  0  0  0  0  0  # atno 6907 bound_to 6896
  150.7211  134.0511  159.3807 H   0  0  0  0  0  0  0  0  0  0  0  0  # atno 6908 bound_to 6896
  151.8420  135.0587  160.0500 H   0  0  0  0  0  0  0  0  0  0  0  0  # atno 6909 bound_to 6896
  144.7208  139.9898  143.6440 H   0  0  0  0  0  0  0  0  0  0  0  0  # atno 7974 bound_to 7965
  155.1740  140.0409  157.2868 H   0  0  0  0  0  0  0  0  0  0  0  0  # atno 8008 bound_to 7997
  154.6250  140.2510  155.7476 H   0  0  0  0  0  0  0  0  0  0  0  0  # atno 8009 bound_to 7997
  156.2454  140.2887  156.0575 H   0  0  0  0  0  0  0  0  0  0  0  0  # atno 8010 bound_to 7997
  140.6281  143.2447  151.5311 H   0  0  0  0  0  0  0  0  0  0  0  0  # atno 10167 bound_to 10162
  157.6340  130.9421  150.0501 H   0  0  0  0  0  0  0  0  0  0  0  0  # atno 10718 bound_to 10713
  154.4370  135.2761  155.1874 H   0  0  0  0  0  0  0  0  0  0  0  0  # atno 10763 bound_to 10752
  154.3756  135.6099  153.5767 H   0  0  0  0  0  0  0  0  0  0  0  0  # atno 10764 bound_to 10752
  152.9839  135.5868  154.4691 H   0  0  0  0  0  0  0  0  0  0  0  0  # atno 10765 bound_to 10752
  140.8348  133.7970  155.9797 H   0  0  0  0  0  0  0  0  0  0  0  0  # atno 11005 bound_to 11000
  146.0421  139.3431  143.0691 LP  0  0  0  0  0  0  0  0  0  0  0  0  # atno 17320 bound_to 7965
  145.8322  140.9624  143.0843 LP  0  0  0  0  0  0  0  0  0  0  0  0  # atno 17321 bound_to 7965
  139.5499  144.2423  152.1511 LP  0  0  0  0  0  0  0  0  0  0  0  0  # atno 17342 bound_to 10162
  140.1660  144.4981  150.6606 LP  0  0  0  0  0  0  0  0  0  0  0  0  # atno 17343 bound_to 10162
  156.1565  130.3643  149.9361 LP  0  0  0  0  0  0  0  0  0  0  0  0  # atno 17370 bound_to 10713
  156.7368  130.9064  151.3629 LP  0  0  0  0  0  0  0  0  0  0  0  0  # atno 17371 bound_to 10713
  140.8959  134.2438  157.5069 LP  0  0  0  0  0  0  0  0  0  0  0  0  # atno 17394 bound_to 11000
  139.8704  134.9683  156.4628 LP  0  0  0  0  0  0  0  0  0  0  0  0  # atno 17395 bound_to 11000

$$$$
