AV-unprocessed.smi:867|AV-procd|sdf|3999|dock3
  -GOLD-   22720 1483D 1   1.00000     0.00000
 Structure written by MMmdl.
 54 57  0  0  0  0  0  0  0  0  3 V2000
  150.1676  140.1928  154.3722 O   0  0  0  0  0  0  0  0  0  0  0  0
  149.3375  141.0861  154.5452 C   0  0  0  0  0  0  0  0  0  0  0  0
  149.5550  142.1127  155.3847 N   0  0  0  0  0  0  0  0  0  0  0  0
  150.7687  142.3112  156.1685 C   0  0  0  0  0  0  0  0  0  0  0  0
  150.8808  141.2838  157.3065 C   0  0  0  0  0  0  0  0  0  0  0  0
  151.6008  141.8495  158.5150 C   0  0  0  0  0  0  0  0  0  0  0  0
  151.8906  143.2297  158.5952 C   0  0  0  0  0  0  0  0  0  0  0  0
  152.5646  143.7302  159.7286 C   0  0  0  0  0  0  0  0  0  0  0  0
  152.9349  142.8386  160.7562 C   0  0  0  0  0  0  0  0  0  0  0  0
  152.6426  141.5241  160.6438 N   0  3  0  0  0  0  0  0  0  0  0  0
  151.9978  141.0058  159.5752 C   0  0  0  0  0  0  0  0  0  0  0  0
  148.1076  141.0748  153.9749 N   0  0  0  0  0  0  0  0  0  0  0  0
  147.3264  139.8796  153.6359 C   0  0  0  0  0  0  0  0  0  0  0  0
  146.1802  139.7078  154.6531 C   0  0  0  0  0  0  0  0  0  0  0  0
  145.3304  140.9308  154.7616 N   0  3  0  0  0  0  0  0  0  0  0  0
  144.2327  140.8362  155.7734 C   0  0  1  0  0  0  0  0  0  0  0  0
  144.7805  140.8836  157.2254 C   0  0  0  0  0  0  0  0  0  0  0  0
  143.9799  142.0208  157.8808 C   0  0  2  0  0  0  0  0  0  0  0  0
  142.5164  141.5843  158.0581 C   0  0  0  0  0  0  0  0  0  0  0  0
  141.9867  141.6064  156.6139 C   0  0  0  0  0  0  0  0  0  0  0  0
  143.2257  142.0219  155.7949 C   0  0  1  0  0  0  0  0  0  0  0  0
  143.8863  143.0218  156.7371 C   0  0  0  0  0  0  0  0  0  0  0  0
  146.1516  142.1624  154.9547 C   0  0  0  0  0  0  0  0  0  0  0  0
  147.2714  142.2736  153.9077 C   0  0  0  0  0  0  0  0  0  0  0  0
  148.8179  142.7922  155.5048 H   0  0  0  0  0  0  0  0  0  0  0  0
  151.6246  142.2205  155.4988 H   0  0  0  0  0  0  0  0  0  0  0  0
  150.7938  143.3274  156.5662 H   0  0  0  0  0  0  0  0  0  0  0  0
  149.8892  140.9479  157.6139 H   0  0  0  0  0  0  0  0  0  0  0  0
  151.4108  140.3961  156.9579 H   0  0  0  0  0  0  0  0  0  0  0  0
  151.6016  143.8984  157.7971 H   0  0  0  0  0  0  0  0  0  0  0  0
  152.7946  144.7828  159.8074 H   0  0  0  0  0  0  0  0  0  0  0  0
  153.4526  143.1347  161.6570 H   0  0  0  0  0  0  0  0  0  0  0  0
  151.8227  139.9398  159.6012 H   0  0  0  0  0  0  0  0  0  0  0  0
  146.9164  139.9995  152.6318 H   0  0  0  0  0  0  0  0  0  0  0  0
  147.9174  138.9644  153.6006 H   0  0  0  0  0  0  0  0  0  0  0  0
  145.5890  138.8560  154.3243 H   0  0  0  0  0  0  0  0  0  0  0  0
  146.5874  139.4622  155.6352 H   0  0  0  0  0  0  0  0  0  0  0  0
  143.6928  139.9045  155.5953 H   0  0  0  0  0  0  0  0  0  0  0  0
  144.6574  139.9336  157.7468 H   0  0  0  0  0  0  0  0  0  0  0  0
  145.8403  141.1408  157.2537 H   0  0  0  0  0  0  0  0  0  0  0  0
  144.4352  142.4057  158.7940 H   0  0  0  0  0  0  0  0  0  0  0  0
  142.4313  140.5996  158.5194 H   0  0  0  0  0  0  0  0  0  0  0  0
  141.9690  142.2948  158.6792 H   0  0  0  0  0  0  0  0  0  0  0  0
  141.5821  140.6427  156.3028 H   0  0  0  0  0  0  0  0  0  0  0  0
  141.1914  142.3463  156.5135 H   0  0  0  0  0  0  0  0  0  0  0  0
  142.9330  142.4265  154.8288 H   0  0  0  0  0  0  0  0  0  0  0  0
  143.2556  143.8827  156.9669 H   0  0  0  0  0  0  0  0  0  0  0  0
  144.8578  143.3729  156.3852 H   0  0  0  0  0  0  0  0  0  0  0  0
  145.5311  143.0558  154.8970 H   0  0  0  0  0  0  0  0  0  0  0  0
  146.5880  142.1516  155.9550 H   0  0  0  0  0  0  0  0  0  0  0  0
  147.8425  143.1903  154.0639 H   0  0  0  0  0  0  0  0  0  0  0  0
  146.8433  142.3605  152.9079 H   0  0  0  0  0  0  0  0  0  0  0  0
  144.8799  141.0302  153.8631 H   0  0  0  0  0  0  0  0  0  0  0  0
  152.9207  140.8960  161.3984 H   0  0  0  0  0  0  0  0  0  0  0  0
  1  2  2  0  0  0  0
  2  3  1  0  0  0  0
  2 12  1  0  0  0  0
  3  4  1  0  0  0  0
  3 25  1  0  0  0  0
  4  5  1  0  0  0  0
  4 26  1  0  0  0  0
  4 27  1  0  0  0  0
  5  6  1  0  0  0  0
  5 28  1  0  0  0  0
  5 29  1  0  0  0  0
  6 11  1  0  0  0  0
  6  7  2  0  0  0  0
  7  8  1  0  0  0  0
  7 30  1  0  0  0  0
  8  9  2  0  0  0  0
  8 31  1  0  0  0  0
  9 10  1  0  0  0  0
  9 32  1  0  0  0  0
 10 11  2  0  0  0  0
 10 54  1  0  0  0  0
 11 33  1  0  0  0  0
 12 24  1  0  0  0  0
 12 13  1  0  0  0  0
 13 14  1  0  0  0  0
 13 34  1  0  0  0  0
 13 35  1  0  0  0  0
 14 15  1  0  0  0  0
 14 36  1  0  0  0  0
 14 37  1  0  0  0  0
 15 16  1  0  0  0  0
 15 23  1  0  0  0  0
 15 53  1  0  0  0  0
 16 21  1  0  0  0  0
 16 17  1  0  0  0  0
 16 38  1  0  0  0  0
 17 18  1  0  0  0  0
 17 39  1  0  0  0  0
 17 40  1  0  0  0  0
 18 22  1  0  0  0  0
 18 19  1  0  0  0  0
 18 41  1  0  0  0  0
 19 20  1  0  0  0  0
 19 42  1  0  0  0  0
 19 43  1  0  0  0  0
 20 21  1  0  0  0  0
 20 44  1  0  0  0  0
 20 45  1  0  0  0  0
 21 22  1  0  0  0  0
 21 46  1  0  0  0  0
 22 47  1  0  0  0  0
 22 48  1  0  0  0  0
 23 24  1  0  0  0  0
 23 49  1  0  0  0  0
 23 50  1  0  0  0  0
 24 51  1  0  0  0  0
 24 52  1  0  0  0  0
M  CHG  1  10   1
M  CHG  1  15   1
M  END
> <s_m_source_file>
AV-unprocessed.smi

> <i_m_source_file_index>
867

> <i_lp_mmshare_version>
43012

> <i_f3d_flags>
0

> <s_epik_input>
W0NIMl0xW0NIMl1bQ0BASF0oW0NIMl0yKVtDQEBIXShbQ0gyXVtDQEhdMTIpTihbQ0gyXVtDSDJdMylbQ0gyXVtDSDJdTjNDKD1PKVtOSF1bQ0gyXVtDSDJdYzRbY0hdW2NIXVtjSF1uW2NIXTQ=

> <s_epik_cmdline>
J2VwaWtfcHl0aG9uJywgJy1waCcsICc3LjAnLCAnLXRuJywgJzgnLCAnLW1hJywgJzIwMCcsICctbWV0YWxfYmluZGluZycsICctaW1hZScsICc8aW5maWxlLm1hZT4nLCAnLW9tYWUnLCAnPG91dGZpbGUubWFlPic=

> <r_epik_Ionization_Penalty>
2.25108

> <r_epik_Ionization_Penalty_Charging>
2.25105

> <r_epik_Ionization_Penalty_Neutral>
2.64641e-05

> <r_epik_State_Penalty>
2.39519

> <r_epik_Charging_Adjusted_Penalty>
4.64625

> <i_epik_Tot_Q>
2

> <i_epik_Tot_abs_Q>
2

> <r_epik_Metal_State_Penalty>
2.40865

> <b_epik_Metal_Only>
0

> <s_lp_Force_Field>
OPLS_2005

> <r_lp_Energy>
104.459

> <b_lp_Chiralities_Consistent>
1

> <s_lp_Variant>
AV-unprocessed.smi:867-6

> <Gold.Version>
5.8.1

> <Gold.Id.Protein>
6NUR|6NUR_protein|mol2

> <Gold.PLP.Fitness>
47.3862

> <Gold.PLP.PLP>
-38.4987

> <Gold.PLP.part.hbond>
-3.0000

> <Gold.PLP.part.metal>
0.0000

> <Gold.PLP.part.buried>
-5.9899

> <Gold.PLP.part.nonpolar>
-30.2063

> <Gold.PLP.part.repulsive>
0.4077

> <Gold.PLP.ligand.clash>
0.9276

> <Gold.PLP.ligand.torsion>
0.6922

> <Gold.PLP.Chemscore.Hbond>
3.6880

> <Gold.PLP.Chemscore.CHOScore>
0.0000

> <Gold.PLP.Chemscore.Metal>
0.0000

> <Gold.Chemscore.Hbonds>
donor molecule, donor type, donor heavy atom, donor atom, acceptor molecule, acceptor atom, score
      L1  H     3    25       P1  8028  0.62
      L1  H    15    53       P1 10175  2.00
      P1  H  7989  7998       L1     1  1.00

> <Gold.PLP.Chemscore.Internal.Correction>
0.1355

> <Gold.Rescore>
     Score         DG    S(hbond)    S(metal)    S(lipo)     H(rot)  DE(clash)    DE(int)     intcor
     18.27     -20.69       2.31        0.00      96.02       1.46       1.41       1.00       ----

> <Gold.Chemscore.Fitness>
18.2732

> <Gold.Chemscore.DG>
-20.6867

> <Gold.Chemscore.ZeroCoef>
-5.4800

> <Gold.Chemscore.Hbond>
2.3062

> <Gold.Chemscore.Metal>
0.0000

> <Gold.Chemscore.Lipo>
96.0228

> <Gold.Chemscore.Internal_Hbond>
0.0000

> <Gold.Chemscore.DEClash>
1.4149

> <Gold.Chemscore.DEInternal>
0.9986

> <Gold.Chemscore.Rot>
1.4572

> <Gold.Chemscore.Internal.Correction>
   9.000000E+99

> <Gold.Chemscore.Hbonds>
donor molecule, donor type, donor heavy atom, donor atom, acceptor molecule, acceptor atom, score
      L1  H     3    25       P1  8028  0.64
      L1  H    15    53       P1 10175  0.76
      P1  H  7989  7998       L1     1  0.67

> <Gold.Chemscore.Hbond.Weighted>
-7.7025

> <Gold.Chemscore.Metal.Weighted>
-0.0000

> <Gold.Chemscore.Lipo.Weighted>
-11.2347

> <Gold.Chemscore.Internal_Hbond.Weighted>
0.0000

> <Gold.Chemscore.DEClash.Weighted>
1.4149

> <Gold.Chemscore.DEInternal.Weighted>
0.9986

> <Gold.Chemscore.Rot.Weighted>
3.7305

> <Gold.Chemscore.Internal.Correction.Weighted>
   9.000000E+99

> <Gold.Protein.RotatedTorsions>
[ 6907 6896 6895 6894 ] final  129.69 input  -60.11 | X-H torsion
[ 7974 7965 7964 7962 ] final  -59.60 input  175.53 | X-H torsion
[ 8008 7997 7996 7995 ] final   60.08 input   59.86 | X-H torsion
[ 10167 10162 10161 10158 ] final  -83.93 input  -65.29 | X-H torsion
[ 10718 10713 10712 10709 ] final   13.39 input   66.30 | X-H torsion
[ 10763 10752 10751 10750 ] final -127.21 input  -60.55 | X-H torsion
[ 11005 11000 10999 10996 ] final   62.50 input  -57.11 | X-H torsion

> <Gold.Protein.ActiveResidues>
 VAL166  LYS551  ARG553  GLY616  TRP617  ASP618  TYR619  PRO620  LYS621  CYS622 
 ASP623  PHE694  ASN695  SER759  ASP760  ASP761  ALA762  ILE779  LEU786  VAL792 
 PHE793  MET794  SER795  GLU796  ALA797  LYS798  CYS799  TRP800  GLU811  SER814 

> <Gold.Protein.RotatedAtoms>
  152.3600  133.6284  159.6007 H   0  0  0  0  0  0  0  0  0  0  0  0  # atno 6907 bound_to 6896
  150.7594  133.9439  159.3473 H   0  0  0  0  0  0  0  0  0  0  0  0  # atno 6908 bound_to 6896
  151.7279  135.0882  160.0346 H   0  0  0  0  0  0  0  0  0  0  0  0  # atno 6909 bound_to 6896
  145.8256  140.8513  143.0110 H   0  0  0  0  0  0  0  0  0  0  0  0  # atno 7974 bound_to 7965
  155.5766  140.3491  155.4529 H   0  0  0  0  0  0  0  0  0  0  0  0  # atno 8008 bound_to 7997
  156.0405  140.1295  157.0186 H   0  0  0  0  0  0  0  0  0  0  0  0  # atno 8009 bound_to 7997
  154.4390  140.1025  156.6215 H   0  0  0  0  0  0  0  0  0  0  0  0  # atno 8010 bound_to 7997
  140.4180  143.2596  151.8928 H   0  0  0  0  0  0  0  0  0  0  0  0  # atno 10167 bound_to 10162
  157.0240  130.6166  149.5725 H   0  0  0  0  0  0  0  0  0  0  0  0  # atno 10718 bound_to 10713
  154.8751  135.3969  154.3557 H   0  0  0  0  0  0  0  0  0  0  0  0  # atno 10763 bound_to 10752
  153.4336  135.7025  153.6220 H   0  0  0  0  0  0  0  0  0  0  0  0  # atno 10764 bound_to 10752
  153.4830  135.3765  155.2422 H   0  0  0  0  0  0  0  0  0  0  0  0  # atno 10765 bound_to 10752
  140.0088  134.6329  155.9813 H   0  0  0  0  0  0  0  0  0  0  0  0  # atno 11005 bound_to 11000
  144.6744  140.0596  143.7476 LP  0  0  0  0  0  0  0  0  0  0  0  0  # atno 17320 bound_to 7965
  145.9628  139.2812  143.1145 LP  0  0  0  0  0  0  0  0  0  0  0  0  # atno 17321 bound_to 7965
  139.4782  144.5467  151.8447 LP  0  0  0  0  0  0  0  0  0  0  0  0  # atno 17342 bound_to 10162
  140.4565  144.1782  150.5902 LP  0  0  0  0  0  0  0  0  0  0  0  0  # atno 17343 bound_to 10162
  156.0092  130.5182  150.7934 LP  0  0  0  0  0  0  0  0  0  0  0  0  # atno 17370 bound_to 10713
  157.5228  131.0932  151.0056 LP  0  0  0  0  0  0  0  0  0  0  0  0  # atno 17371 bound_to 10713
  141.1696  133.6537  156.4603 LP  0  0  0  0  0  0  0  0  0  0  0  0  # atno 17394 bound_to 11000
  140.4593  134.6856  157.5077 LP  0  0  0  0  0  0  0  0  0  0  0  0  # atno 17395 bound_to 11000

$$$$
