AV-unprocessed.smi:1803|AV-procd|sdf|7281|dock2
  -GOLD-   22720 8543D 1   1.00000     0.00000
 Structure written by MMmdl.
 36 38  0  0  0  0  0  0  0  0  2 V2000
  148.4913  133.5964  155.5392 O   0  0  0  0  0  0  0  0  0  0  0  0
  148.6198  134.2901  154.5323 C   0  0  0  0  0  0  0  0  0  0  0  0
  149.5485  135.2688  154.4754 N   0  0  0  0  0  0  0  0  0  0  0  0
  150.5098  135.7210  155.4268 C   0  0  0  0  0  0  0  0  0  0  0  0
  150.8577  135.0498  156.5372 N   0  0  0  0  0  0  0  0  0  0  0  0
  151.8246  135.7207  157.2735 N   0  0  0  0  0  0  0  0  0  0  0  0
  152.1756  136.8691  156.6888 C   0  0  0  0  0  0  0  0  0  0  0  0
  151.3572  137.2424  155.1820 S   0  0  0  0  0  0  0  0  0  0  0  0
  147.8601  134.1233  153.4373 N   0  0  0  0  0  0  0  0  0  0  0  0
  146.7938  133.1393  153.2828 C   0  0  2  0  0  0  0  0  0  0  0  0
  147.3059  131.6896  153.3497 C   0  0  0  0  0  0  0  0  0  0  0  0
  146.4811  130.9148  152.3031 C   0  0  0  0  0  0  0  0  0  0  0  0
  145.5002  131.8857  151.7823 N   0  3  2  0  0  0  0  0  0  0  0  0
  144.9517  131.6310  150.4324 C   0  0  0  0  0  0  0  0  0  0  0  0
  143.8899  132.7003  150.1056 C   0  0  0  0  0  0  0  0  0  0  0  0
  144.4423  134.1289  150.2868 C   0  0  0  0  0  0  0  0  0  0  0  0
  145.0848  134.3052  151.6762 C   0  0  0  0  0  0  0  0  0  0  0  0
  146.1369  133.2059  151.9016 C   0  0  1  0  0  0  0  0  0  0  0  0
  149.5876  135.7512  153.5889 H   0  0  0  0  0  0  0  0  0  0  0  0
  152.9223  137.5004  157.1474 H   0  0  0  0  0  0  0  0  0  0  0  0
  148.0341  134.7341  152.6514 H   0  0  0  0  0  0  0  0  0  0  0  0
  146.0336  133.2708  154.0558 H   0  0  0  0  0  0  0  0  0  0  0  0
  148.3665  131.6287  153.1002 H   0  0  0  0  0  0  0  0  0  0  0  0
  147.1819  131.2765  154.3513 H   0  0  0  0  0  0  0  0  0  0  0  0
  147.1305  130.5687  151.4974 H   0  0  0  0  0  0  0  0  0  0  0  0
  145.9774  130.0467  152.7292 H   0  0  0  0  0  0  0  0  0  0  0  0
  145.7550  131.6509  149.6943 H   0  0  0  0  0  0  0  0  0  0  0  0
  144.5066  130.6360  150.3993 H   0  0  0  0  0  0  0  0  0  0  0  0
  143.5253  132.5665  149.0868 H   0  0  0  0  0  0  0  0  0  0  0  0
  143.0282  132.5638  150.7607 H   0  0  0  0  0  0  0  0  0  0  0  0
  145.1867  134.3298  149.5153 H   0  0  0  0  0  0  0  0  0  0  0  0
  143.6460  134.8605  150.1456 H   0  0  0  0  0  0  0  0  0  0  0  0
  145.5431  135.2917  151.7494 H   0  0  0  0  0  0  0  0  0  0  0  0
  144.3177  134.2568  152.4504 H   0  0  0  0  0  0  0  0  0  0  0  0
  146.9152  133.2862  151.1387 H   0  0  0  0  0  0  0  0  0  0  0  0
  144.7239  131.8845  152.4285 H   0  0  0  0  0  0  0  0  0  0  0  0
  1  2  2  0  0  0  0
  2  3  1  0  0  0  0
  2  9  1  0  0  0  0
  3  4  1  0  0  0  0
  3 19  1  0  0  0  0
  4  8  1  0  0  0  0
  4  5  2  0  0  0  0
  5  6  1  0  0  0  0
  6  7  2  0  0  0  0
  7  8  1  0  0  0  0
  7 20  1  0  0  0  0
  9 10  1  0  0  0  0
  9 21  1  0  0  0  0
 10 18  1  0  0  0  0
 10 11  1  0  0  0  0
 10 22  1  0  0  0  0
 11 12  1  0  0  0  0
 11 23  1  0  0  0  0
 11 24  1  0  0  0  0
 12 13  1  0  0  0  0
 12 25  1  0  0  0  0
 12 26  1  0  0  0  0
 13 18  1  0  0  0  0
 13 14  1  0  0  0  0
 13 36  1  0  0  0  0
 14 15  1  0  0  0  0
 14 27  1  0  0  0  0
 14 28  1  0  0  0  0
 15 16  1  0  0  0  0
 15 29  1  0  0  0  0
 15 30  1  0  0  0  0
 16 17  1  0  0  0  0
 16 31  1  0  0  0  0
 16 32  1  0  0  0  0
 17 18  1  0  0  0  0
 17 33  1  0  0  0  0
 17 34  1  0  0  0  0
 18 35  1  0  0  0  0
M  CHG  1  13   1
M  END
> <s_m_source_file>
AV-unprocessed.smi

> <i_m_source_file_index>
1803

> <i_lp_mmshare_version>
43012

> <i_f3d_flags>
0

> <s_epik_input>
czFbY0hdbm5jMVtOSF1DKD1PKVtOSF1bQ0BIXShbQ0gyXVtDSDJdMilbQ0BASF0oTjIzKVtDSDJdW0NIMl1bQ0gyXVtDSDJdMw==

> <s_epik_cmdline>
J2VwaWtfcHl0aG9uJywgJy1waCcsICc3LjAnLCAnLXRuJywgJzgnLCAnLW1hJywgJzIwMCcsICctbWV0YWxfYmluZGluZycsICctaW1hZScsICc8aW5maWxlLm1hZT4nLCAnLW9tYWUnLCAnPG91dGZpbGUubWFlPic=

> <r_lp_tautomer_probability>
1

> <r_epik_Ionization_Penalty>
0.00213286

> <r_epik_Ionization_Penalty_Charging>
0.00107044

> <r_epik_Ionization_Penalty_Neutral>
0.00106242

> <r_epik_State_Penalty>
-0

> <r_epik_Charging_Adjusted_Penalty>
0.00107044

> <i_epik_Tot_Q>
1

> <i_epik_Tot_abs_Q>
1

> <r_epik_Metal_State_Penalty>
0.292783

> <b_epik_Metal_Only>
0

> <s_lp_Force_Field>
OPLS_2005

> <r_lp_Energy>
35.8307

> <b_lp_Chiralities_Consistent>
1

> <s_lp_Variant>
AV-unprocessed.smi:1803-3

> <Gold.Version>
5.8.1

> <Gold.Id.Protein>
6NUR|6NUR_protein|mol2

> <Gold.PLP.Fitness>
33.0729

> <Gold.PLP.PLP>
-27.1574

> <Gold.PLP.part.hbond>
-2.8124

> <Gold.PLP.part.metal>
0.0000

> <Gold.PLP.part.buried>
-4.5110

> <Gold.PLP.part.nonpolar>
-20.3219

> <Gold.PLP.part.repulsive>
0.0671

> <Gold.PLP.ligand.clash>
0.0000

> <Gold.PLP.ligand.torsion>
0.0471

> <Gold.PLP.Chemscore.Hbond>
2.0000

> <Gold.PLP.Chemscore.CHOScore>
0.0000

> <Gold.PLP.Chemscore.Metal>
0.0000

> <Gold.Chemscore.Hbonds>
donor molecule, donor type, donor heavy atom, donor atom, acceptor molecule, acceptor atom, score
      L1  H     3    19       P1  7948  0.95
      L1  H     9    21       P1  7948  1.00

> <Gold.PLP.Chemscore.Internal.Correction>
0.0098

> <Gold.Rescore>
     Score         DG    S(hbond)    S(metal)    S(lipo)     H(rot)  DE(clash)    DE(int)     intcor
     15.02     -16.59       1.90        0.00      62.59       1.00       0.34       1.23       ----

> <Gold.Chemscore.Fitness>
15.0221

> <Gold.Chemscore.DG>
-16.5893

> <Gold.Chemscore.ZeroCoef>
-5.4800

> <Gold.Chemscore.Hbond>
1.9000

> <Gold.Chemscore.Metal>
0.0000

> <Gold.Chemscore.Lipo>
62.5919

> <Gold.Chemscore.Internal_Hbond>
0.0000

> <Gold.Chemscore.DEClash>
0.3398

> <Gold.Chemscore.DEInternal>
1.2275

> <Gold.Chemscore.Rot>
1.0000

> <Gold.Chemscore.Internal.Correction>
   9.000000E+99

> <Gold.Chemscore.Hbonds>
donor molecule, donor type, donor heavy atom, donor atom, acceptor molecule, acceptor atom, score
      L1  H     3    19       P1  7948  0.21
      L1  H     9    21       P1  7948  0.67

> <Gold.Chemscore.Hbond.Weighted>
-6.3461

> <Gold.Chemscore.Metal.Weighted>
-0.0000

> <Gold.Chemscore.Lipo.Weighted>
-7.3233

> <Gold.Chemscore.Internal_Hbond.Weighted>
0.0000

> <Gold.Chemscore.DEClash.Weighted>
0.3398

> <Gold.Chemscore.DEInternal.Weighted>
1.2275

> <Gold.Chemscore.Rot.Weighted>
2.5600

> <Gold.Chemscore.Internal.Correction.Weighted>
   9.000000E+99

> <Gold.Protein.RotatedTorsions>
[ 6907 6896 6895 6894 ] final -165.21 input  -60.11 | X-H torsion
[ 7974 7965 7964 7962 ] final  157.82 input  175.53 | X-H torsion
[ 8008 7997 7996 7995 ] final -109.64 input   59.86 | X-H torsion
[ 10167 10162 10161 10158 ] final  -88.63 input  -65.29 | X-H torsion
[ 10718 10713 10712 10709 ] final   91.58 input   66.30 | X-H torsion
[ 10763 10752 10751 10750 ] final -110.37 input  -60.55 | X-H torsion
[ 11005 11000 10999 10996 ] final  -61.24 input  -57.11 | X-H torsion

> <Gold.Protein.ActiveResidues>
 VAL166  LYS551  ARG553  GLY616  TRP617  ASP618  TYR619  PRO620  LYS621  CYS622 
 ASP623  PHE694  ASN695  SER759  ASP760  ASP761  ALA762  ILE779  LEU786  VAL792 
 PHE793  MET794  SER795  GLU796  ALA797  LYS798  CYS799  TRP800  GLU811  SER814 

> <Gold.Protein.RotatedAtoms>
  151.4241  133.3689  159.2759 H   0  0  0  0  0  0  0  0  0  0  0  0  # atno 6907 bound_to 6896
  150.9272  134.8690  159.7538 H   0  0  0  0  0  0  0  0  0  0  0  0  # atno 6908 bound_to 6896
  152.5011  134.4183  159.9524 H   0  0  0  0  0  0  0  0  0  0  0  0  # atno 6909 bound_to 6896
  144.7881  139.7392  143.6232 H   0  0  0  0  0  0  0  0  0  0  0  0  # atno 7974 bound_to 7965
  154.9624  140.0399  157.2196 H   0  0  0  0  0  0  0  0  0  0  0  0  # atno 8008 bound_to 7997
  154.7877  140.2830  155.5993 H   0  0  0  0  0  0  0  0  0  0  0  0  # atno 8009 bound_to 7997
  156.2945  140.2579  156.2717 H   0  0  0  0  0  0  0  0  0  0  0  0  # atno 8010 bound_to 7997
  140.3727  143.2786  151.9480 H   0  0  0  0  0  0  0  0  0  0  0  0  # atno 10167 bound_to 10162
  157.6960  131.0412  150.3750 H   0  0  0  0  0  0  0  0  0  0  0  0  # atno 10718 bound_to 10713
  154.8244  135.4566  154.0876 H   0  0  0  0  0  0  0  0  0  0  0  0  # atno 10763 bound_to 10752
  153.2202  135.6893  153.8016 H   0  0  0  0  0  0  0  0  0  0  0  0  # atno 10764 bound_to 10752
  153.7436  135.3309  155.3285 H   0  0  0  0  0  0  0  0  0  0  0  0  # atno 10765 bound_to 10752
  141.1317  133.6628  156.5345 H   0  0  0  0  0  0  0  0  0  0  0  0  # atno 11005 bound_to 11000
  146.2122  139.5486  142.9673 LP  0  0  0  0  0  0  0  0  0  0  0  0  # atno 17320 bound_to 7965
  145.5866  141.0375  143.2093 LP  0  0  0  0  0  0  0  0  0  0  0  0  # atno 17321 bound_to 7965
  139.4802  144.5892  151.7802 LP  0  0  0  0  0  0  0  0  0  0  0  0  # atno 17342 bound_to 10162
  140.5017  144.1159  150.5972 LP  0  0  0  0  0  0  0  0  0  0  0  0  # atno 17343 bound_to 10162
  156.4171  130.3945  149.6851 LP  0  0  0  0  0  0  0  0  0  0  0  0  # atno 17370 bound_to 10713
  156.4115  130.7724  151.2737 LP  0  0  0  0  0  0  0  0  0  0  0  0  # atno 17371 bound_to 10713
  140.4189  134.7205  157.4879 LP  0  0  0  0  0  0  0  0  0  0  0  0  # atno 17394 bound_to 11000
  140.0374  134.6317  155.9026 LP  0  0  0  0  0  0  0  0  0  0  0  0  # atno 17395 bound_to 11000

$$$$
