AV-unprocessed.smi:3249|AV-procd|sdf|12421|dock9
  -GOLD-   2272018303D 1   1.00000     0.00000
 Structure written by MMmdl.
 44 45  0  0  0  0  0  0  0  0  2 V2000
  154.2689  138.8842  154.6614 C   0  0  0  0  0  0  0  0  0  0  0  0
  152.7903  138.8342  154.9185 C   0  0  0  0  0  0  0  0  0  0  0  0
  151.8339  137.9400  154.3593 C   0  0  0  0  0  0  0  0  0  0  0  0
  150.6053  138.1633  154.7958 N   0  0  0  0  0  0  0  0  0  0  0  0
  150.7290  139.2070  155.6436 N   0  0  0  0  0  0  0  0  0  0  0  0
  149.5522  139.7242  156.3303 C   0  0  2  0  0  0  0  0  0  0  0  0
  148.3735  138.7501  156.1496 C   0  0  0  0  0  0  0  0  0  0  0  0
  149.2182  141.1734  155.8870 C   0  0  2  0  0  0  0  0  0  0  0  0
  149.2967  141.3736  154.3626 C   0  0  0  0  0  0  0  0  0  0  0  0
  150.1325  142.1364  156.5405 N   0  3  0  0  0  0  0  0  0  0  0  0
  150.1055  142.1167  158.0175 C   0  0  0  0  0  0  0  0  0  0  0  0
  151.2129  143.0050  158.5997 C   0  0  1  0  0  0  0  0  0  0  0  0
  151.0163  144.4863  158.2229 C   0  0  0  0  0  0  0  0  0  0  0  0
  152.0762  145.3612  158.9014 C   0  0  0  0  0  0  0  0  0  0  0  0
  152.0796  145.0923  160.4099 C   0  0  0  0  0  0  0  0  0  0  0  0
  152.2140  143.5862  160.6841 C   0  0  0  0  0  0  0  0  0  0  0  0
  151.1717  142.8777  160.0198 O   0  0  0  0  0  0  0  0  0  0  0  0
  152.0403  139.6287  155.7381 C   0  0  0  0  0  0  0  0  0  0  0  0
  154.5830  138.1227  153.9470 H   0  0  0  0  0  0  0  0  0  0  0  0
  154.8411  138.7232  155.5752 H   0  0  0  0  0  0  0  0  0  0  0  0
  154.5738  139.8490  154.2560 H   0  0  0  0  0  0  0  0  0  0  0  0
  151.9963  137.1389  153.6532 H   0  0  0  0  0  0  0  0  0  0  0  0
  149.7870  139.7493  157.3966 H   0  0  0  0  0  0  0  0  0  0  0  0
  147.5233  139.0314  156.7713 H   0  0  0  0  0  0  0  0  0  0  0  0
  148.6574  137.7365  156.4353 H   0  0  0  0  0  0  0  0  0  0  0  0
  148.0329  138.7200  155.1142 H   0  0  0  0  0  0  0  0  0  0  0  0
  148.1918  141.3983  156.1831 H   0  0  0  0  0  0  0  0  0  0  0  0
  148.5634  140.7640  153.8345 H   0  0  0  0  0  0  0  0  0  0  0  0
  150.2838  141.1125  153.9794 H   0  0  0  0  0  0  0  0  0  0  0  0
  149.0994  142.4117  154.0936 H   0  0  0  0  0  0  0  0  0  0  0  0
  151.0743  141.9396  156.2320 H   0  0  0  0  0  0  0  0  0  0  0  0
  149.1288  142.4713  158.3495 H   0  0  0  0  0  0  0  0  0  0  0  0
  150.2174  141.0946  158.3816 H   0  0  0  0  0  0  0  0  0  0  0  0
  152.1810  142.6620  158.2295 H   0  0  0  0  0  0  0  0  0  0  0  0
  151.0673  144.6125  157.1410 H   0  0  0  0  0  0  0  0  0  0  0  0
  150.0226  144.8159  158.5292 H   0  0  0  0  0  0  0  0  0  0  0  0
  153.0594  145.1369  158.4853 H   0  0  0  0  0  0  0  0  0  0  0  0
  151.8839  146.4159  158.7029 H   0  0  0  0  0  0  0  0  0  0  0  0
  152.8925  145.6385  160.8893 H   0  0  0  0  0  0  0  0  0  0  0  0
  151.1520  145.4605  160.8500 H   0  0  0  0  0  0  0  0  0  0  0  0
  153.1865  143.2152  160.3573 H   0  0  0  0  0  0  0  0  0  0  0  0
  152.1434  143.3933  161.7548 H   0  0  0  0  0  0  0  0  0  0  0  0
  152.3302  140.4520  156.3742 H   0  0  0  0  0  0  0  0  0  0  0  0
  149.8859  143.0671  156.2351 H   0  0  0  0  0  0  0  0  0  0  0  0
  1  2  1  0  0  0  0
  1 19  1  0  0  0  0
  1 20  1  0  0  0  0
  1 21  1  0  0  0  0
  2 18  2  0  0  0  0
  2  3  1  0  0  0  0
  3  4  2  0  0  0  0
  3 22  1  0  0  0  0
  4  5  1  0  0  0  0
  5  6  1  0  0  0  0
  5 18  1  0  0  0  0
  6  7  1  0  0  0  0
  6  8  1  0  0  0  0
  6 23  1  0  0  0  0
  7 24  1  0  0  0  0
  7 25  1  0  0  0  0
  7 26  1  0  0  0  0
  8  9  1  0  0  0  0
  8 10  1  0  0  0  0
  8 27  1  0  0  0  0
  9 28  1  0  0  0  0
  9 29  1  0  0  0  0
  9 30  1  0  0  0  0
 10 11  1  0  0  0  0
 10 31  1  0  0  0  0
 10 44  1  0  0  0  0
 11 12  1  0  0  0  0
 11 32  1  0  0  0  0
 11 33  1  0  0  0  0
 12 17  1  0  0  0  0
 12 13  1  0  0  0  0
 12 34  1  0  0  0  0
 13 14  1  0  0  0  0
 13 35  1  0  0  0  0
 13 36  1  0  0  0  0
 14 15  1  0  0  0  0
 14 37  1  0  0  0  0
 14 38  1  0  0  0  0
 15 16  1  0  0  0  0
 15 39  1  0  0  0  0
 15 40  1  0  0  0  0
 16 17  1  0  0  0  0
 16 41  1  0  0  0  0
 16 42  1  0  0  0  0
 18 43  1  0  0  0  0
M  CHG  1  10   1
M  END
> <s_m_source_file>
AV-unprocessed.smi

> <i_m_source_file_index>
3249

> <i_lp_mmshare_version>
43012

> <i_f3d_flags>
0

> <s_epik_input>
W0NIM11jMVtjSF1ubihbY0hdMSlbQ0BIXShbQ0gzXSlbQ0BIXShbQ0gzXSlbTkhdW0NIMl1bQ0BASF0yW0NIMl1bQ0gyXVtDSDJdW0NIMl1PMg==

> <s_epik_cmdline>
J2VwaWtfcHl0aG9uJywgJy1waCcsICc3LjAnLCAnLXRuJywgJzgnLCAnLW1hJywgJzIwMCcsICctbWV0YWxfYmluZGluZycsICctaW1hZScsICc8aW5maWxlLm1hZT4nLCAnLW9tYWUnLCAnPG91dGZpbGUubWFlPic=

> <r_lp_tautomer_probability>
1

> <r_epik_Ionization_Penalty>
0.00659207

> <r_epik_Ionization_Penalty_Charging>
0.00656881

> <r_epik_Ionization_Penalty_Neutral>
2.32662e-05

> <r_epik_State_Penalty>
0.0048654

> <r_epik_Charging_Adjusted_Penalty>
0.0114342

> <i_epik_Tot_Q>
1

> <i_epik_Tot_abs_Q>
1

> <r_epik_Metal_State_Penalty>
-0

> <b_epik_Metal_Only>
0

> <s_lp_Force_Field>
OPLS_2005

> <r_lp_Energy>
18.8744

> <b_lp_Chiralities_Consistent>
1

> <s_lp_Variant>
AV-unprocessed.smi:3249-5

> <Gold.Version>
5.8.1

> <Gold.Id.Protein>
6NUR|6NUR_protein|mol2

> <Gold.PLP.Fitness>
45.6669

> <Gold.PLP.PLP>
-37.5648

> <Gold.PLP.part.hbond>
-2.0000

> <Gold.PLP.part.metal>
0.0000

> <Gold.PLP.part.buried>
-1.1913

> <Gold.PLP.part.nonpolar>
-33.2266

> <Gold.PLP.part.repulsive>
0.2462

> <Gold.PLP.ligand.clash>
0.0000

> <Gold.PLP.ligand.torsion>
0.5156

> <Gold.PLP.Chemscore.Hbond>
2.0000

> <Gold.PLP.Chemscore.CHOScore>
1.0000

> <Gold.PLP.Chemscore.Metal>
0.0000

> <Gold.Chemscore.Hbonds>
donor molecule, donor type, donor heavy atom, donor atom, acceptor molecule, acceptor atom, score
      L1  H    10    44       P1  8028  2.00
      L1  C     3    22       P1  7949  0.87

> <Gold.PLP.Chemscore.Internal.Correction>
0.1333

> <Gold.Rescore>
     Score         DG    S(hbond)    S(metal)    S(lipo)     H(rot)  DE(clash)    DE(int)     intcor
     16.81     -18.78       0.99        0.00     118.99       1.53       1.53       0.44       ----

> <Gold.Chemscore.Fitness>
16.8068

> <Gold.Chemscore.DG>
-18.7800

> <Gold.Chemscore.ZeroCoef>
-5.4800

> <Gold.Chemscore.Hbond>
0.9892

> <Gold.Chemscore.Metal>
0.0000

> <Gold.Chemscore.Lipo>
118.9861

> <Gold.Chemscore.Internal_Hbond>
0.0000

> <Gold.Chemscore.DEClash>
1.5344

> <Gold.Chemscore.DEInternal>
0.4389

> <Gold.Chemscore.Rot>
1.5333

> <Gold.Chemscore.Internal.Correction>
   9.000000E+99

> <Gold.Chemscore.Hbonds>
donor molecule, donor type, donor heavy atom, donor atom, acceptor molecule, acceptor atom, score
      L1  H    10    44       P1  8028  0.94

> <Gold.Chemscore.Hbond.Weighted>
-3.3039

> <Gold.Chemscore.Metal.Weighted>
-0.0000

> <Gold.Chemscore.Lipo.Weighted>
-13.9214

> <Gold.Chemscore.Internal_Hbond.Weighted>
0.0000

> <Gold.Chemscore.DEClash.Weighted>
1.5344

> <Gold.Chemscore.DEInternal.Weighted>
0.4389

> <Gold.Chemscore.Rot.Weighted>
3.9252

> <Gold.Chemscore.Internal.Correction.Weighted>
   9.000000E+99

> <Gold.Protein.RotatedTorsions>
[ 6907 6896 6895 6894 ] final   -4.74 input  -60.11 | X-H torsion
[ 7974 7965 7964 7962 ] final  -37.61 input  175.53 | X-H torsion
[ 8008 7997 7996 7995 ] final -132.01 input   59.86 | X-H torsion
[ 10167 10162 10161 10158 ] final   99.46 input  -65.29 | X-H torsion
[ 10718 10713 10712 10709 ] final   36.69 input   66.30 | X-H torsion
[ 10763 10752 10751 10750 ] final -100.44 input  -60.55 | X-H torsion
[ 11005 11000 10999 10996 ] final -163.50 input  -57.11 | X-H torsion

> <Gold.Protein.ActiveResidues>
 VAL166  LYS551  ARG553  GLY616  TRP617  ASP618  TYR619  PRO620  LYS621  CYS622 
 ASP623  PHE694  ASN695  SER759  ASP760  ASP761  ALA762  ILE779  LEU786  VAL792 
 PHE793  MET794  SER795  GLU796  ALA797  LYS798  CYS799  TRP800  GLU811  SER814 

> <Gold.Protein.RotatedAtoms>
  151.4928  135.1058  159.9807 H   0  0  0  0  0  0  0  0  0  0  0  0  # atno 6907 bound_to 6896
  152.4734  133.8078  159.6998 H   0  0  0  0  0  0  0  0  0  0  0  0  # atno 6908 bound_to 6896
  150.8757  133.7380  159.2973 H   0  0  0  0  0  0  0  0  0  0  0  0  # atno 6909 bound_to 6896
  146.0560  140.6416  142.9019 H   0  0  0  0  0  0  0  0  0  0  0  0  # atno 7974 bound_to 7965
  155.3219  140.0462  157.3039 H   0  0  0  0  0  0  0  0  0  0  0  0  # atno 8008 bound_to 7997
  154.5375  140.2277  155.8663 H   0  0  0  0  0  0  0  0  0  0  0  0  # atno 8009 bound_to 7997
  156.1849  140.3065  155.9226 H   0  0  0  0  0  0  0  0  0  0  0  0  # atno 8010 bound_to 7997
  139.7616  144.6952  151.0285 H   0  0  0  0  0  0  0  0  0  0  0  0  # atno 10167 bound_to 10162
  157.3379  130.7532  149.6892 H   0  0  0  0  0  0  0  0  0  0  0  0  # atno 10718 bound_to 10713
  154.7579  135.4935  153.9410 H   0  0  0  0  0  0  0  0  0  0  0  0  # atno 10763 bound_to 10752
  153.1217  135.6733  153.9332 H   0  0  0  0  0  0  0  0  0  0  0  0  # atno 10764 bound_to 10752
  153.9062  135.3104  155.3427 H   0  0  0  0  0  0  0  0  0  0  0  0  # atno 10765 bound_to 10752
  140.5974  134.4983  157.5201 H   0  0  0  0  0  0  0  0  0  0  0  0  # atno 11005 bound_to 11000
  144.7148  140.4170  143.7053 LP  0  0  0  0  0  0  0  0  0  0  0  0  # atno 17320 bound_to 7965
  145.6643  139.1587  143.2790 LP  0  0  0  0  0  0  0  0  0  0  0  0  # atno 17321 bound_to 7965
  140.7807  143.4691  151.0171 LP  0  0  0  0  0  0  0  0  0  0  0  0  # atno 17342 bound_to 10162
  139.8377  143.7606  152.3180 LP  0  0  0  0  0  0  0  0  0  0  0  0  # atno 17343 bound_to 10162
  155.9704  130.4176  150.4288 LP  0  0  0  0  0  0  0  0  0  0  0  0  # atno 17370 bound_to 10713
  157.2330  131.0508  151.2481 LP  0  0  0  0  0  0  0  0  0  0  0  0  # atno 17371 bound_to 10713
  139.9247  134.8079  156.1103 LP  0  0  0  0  0  0  0  0  0  0  0  0  # atno 17394 bound_to 11000
  141.0895  133.6720  156.2509 LP  0  0  0  0  0  0  0  0  0  0  0  0  # atno 17395 bound_to 11000

$$$$
