AV-unprocessed.smi:1230|AV-procd|sdf|5157|dock10
  -GOLD-   22720 4233D 1   1.00000     0.00000
 Structure written by MMmdl.
 39 40  0  0  0  0  0  0  0  0  1 V2000
  151.7424  144.7100  158.0384 C   0  0  0  0  0  0  0  0  0  0  0  0
  152.4967  144.1181  159.2395 C   0  0  1  0  0  0  0  0  0  0  0  0
  151.7451  144.3569  160.5649 C   0  0  0  0  0  0  0  0  0  0  0  0
  152.5252  143.7959  161.7647 C   0  0  0  0  0  0  0  0  0  0  0  0
  152.8515  142.3069  161.5729 C   0  0  0  0  0  0  0  0  0  0  0  0
  153.6019  142.0677  160.2526 C   0  0  0  0  0  0  0  0  0  0  0  0
  152.8174  142.6194  159.0426 C   0  0  1  0  0  0  0  0  0  0  0  0
  151.5907  141.9154  158.8753 O   0  0  0  0  0  0  0  0  0  0  0  0
  151.1816  141.7469  157.5271 C   0  0  0  0  0  0  0  0  0  0  0  0
  149.8358  141.0069  157.5218 C   0  0  0  0  0  0  0  0  0  0  0  0
  149.1044  141.1793  156.2916 N   0  0  0  0  0  0  0  0  0  0  0  0
  147.8285  141.7210  156.2545 C   0  0  0  0  0  0  0  0  0  0  0  0
  147.1304  141.8730  155.1040 C   0  0  0  0  0  0  0  0  0  0  0  0
  145.8190  142.4320  155.0807 C   0  0  0  0  0  0  0  0  0  0  0  0
  144.7644  142.9088  155.0614 N   0  0  0  0  0  0  0  0  0  0  0  0
  147.7019  141.4610  153.8230 C   0  0  0  0  0  0  0  0  0  0  0  0
  147.1520  141.5588  152.7275 O   0  0  0  0  0  0  0  0  0  0  0  0
  148.9857  140.9132  153.9143 N   0  0  0  0  0  0  0  0  0  0  0  0
  149.7178  140.7476  155.0917 C   0  0  0  0  0  0  0  0  0  0  0  0
  150.8404  140.2439  155.0502 O   0  0  0  0  0  0  0  0  0  0  0  0
  149.4202  140.6090  153.0550 H   0  0  0  0  0  0  0  0  0  0  0  0
  150.7624  144.2485  157.9143 H   0  0  0  0  0  0  0  0  0  0  0  0
  152.2996  144.5611  157.1133 H   0  0  0  0  0  0  0  0  0  0  0  0
  151.5895  145.7823  158.1618 H   0  0  0  0  0  0  0  0  0  0  0  0
  153.4481  144.6480  159.3057 H   0  0  0  0  0  0  0  0  0  0  0  0
  151.5744  145.4242  160.7093 H   0  0  0  0  0  0  0  0  0  0  0  0
  150.7592  143.8919  160.5217 H   0  0  0  0  0  0  0  0  0  0  0  0
  153.4510  144.3584  161.8926 H   0  0  0  0  0  0  0  0  0  0  0  0
  151.9503  143.9356  162.6805 H   0  0  0  0  0  0  0  0  0  0  0  0
  153.4501  141.9473  162.4102 H   0  0  0  0  0  0  0  0  0  0  0  0
  151.9288  141.7254  161.5816 H   0  0  0  0  0  0  0  0  0  0  0  0
  154.5741  142.5599  160.3013 H   0  0  0  0  0  0  0  0  0  0  0  0
  153.8133  141.0059  160.1316 H   0  0  0  0  0  0  0  0  0  0  0  0
  153.4248  142.5166  158.1414 H   0  0  0  0  0  0  0  0  0  0  0  0
  151.0851  142.7207  157.0452 H   0  0  0  0  0  0  0  0  0  0  0  0
  151.9205  141.1738  156.9671 H   0  0  0  0  0  0  0  0  0  0  0  0
  149.9879  139.9327  157.6389 H   0  0  0  0  0  0  0  0  0  0  0  0
  149.1841  141.3151  158.3424 H   0  0  0  0  0  0  0  0  0  0  0  0
  147.3656  142.0354  157.1796 H   0  0  0  0  0  0  0  0  0  0  0  0
  1  2  1  0  0  0  0
  1 22  1  0  0  0  0
  1 23  1  0  0  0  0
  1 24  1  0  0  0  0
  2  7  1  0  0  0  0
  2  3  1  0  0  0  0
  2 25  1  0  0  0  0
  3  4  1  0  0  0  0
  3 26  1  0  0  0  0
  3 27  1  0  0  0  0
  4  5  1  0  0  0  0
  4 28  1  0  0  0  0
  4 29  1  0  0  0  0
  5  6  1  0  0  0  0
  5 30  1  0  0  0  0
  5 31  1  0  0  0  0
  6  7  1  0  0  0  0
  6 32  1  0  0  0  0
  6 33  1  0  0  0  0
  7  8  1  0  0  0  0
  7 34  1  0  0  0  0
  8  9  1  0  0  0  0
  9 10  1  0  0  0  0
  9 35  1  0  0  0  0
  9 36  1  0  0  0  0
 10 11  1  0  0  0  0
 10 37  1  0  0  0  0
 10 38  1  0  0  0  0
 11 19  1  0  0  0  0
 11 12  1  0  0  0  0
 12 13  2  0  0  0  0
 12 39  1  0  0  0  0
 13 14  1  0  0  0  0
 13 16  1  0  0  0  0
 14 15  3  0  0  0  0
 16 17  2  0  0  0  0
 16 18  1  0  0  0  0
 18 21  1  0  0  0  0
 18 19  1  0  0  0  0
 19 20  2  0  0  0  0
M  END
> <s_m_source_file>
AV-unprocessed.smi

> <i_m_source_file_index>
1230

> <i_lp_mmshare_version>
43012

> <i_f3d_flags>
0

> <s_epik_input>
W0NIM11bQ0BASF0xW0NIMl1bQ0gyXVtDSDJdW0NIMl1bQ0BIXTFPW0NIMl1bQ0gyXW4yW2NIXWMoQyNOKWMoPU8pW25IXWMyPU8=

> <s_epik_cmdline>
J2VwaWtfcHl0aG9uJywgJy1waCcsICc3LjAnLCAnLXRuJywgJzgnLCAnLW1hJywgJzIwMCcsICctbWV0YWxfYmluZGluZycsICctaW1hZScsICc8aW5maWxlLm1hZT4nLCAnLW9tYWUnLCAnPG91dGZpbGUubWFlPic=

> <r_epik_Ionization_Penalty>
0.421541

> <r_epik_Ionization_Penalty_Charging>
0.421541

> <r_epik_Ionization_Penalty_Neutral>
2.29267e-11

> <r_epik_State_Penalty>
0.422277

> <r_epik_Charging_Adjusted_Penalty>
0.843818

> <i_epik_Tot_Q>
0

> <i_epik_Tot_abs_Q>
0

> <r_epik_Metal_State_Penalty>
4.11629

> <b_epik_Metal_Only>
0

> <s_lp_Force_Field>
OPLS_2005

> <r_lp_Energy>
14.8101

> <b_lp_Chiralities_Consistent>
1

> <s_lp_Variant>
AV-unprocessed.smi:1230-6

> <Gold.Version>
5.8.1

> <Gold.Id.Protein>
6NUR|6NUR_protein|mol2

> <Gold.PLP.Fitness>
48.6086

> <Gold.PLP.PLP>
-43.6772

> <Gold.PLP.part.hbond>
-2.0000

> <Gold.PLP.part.metal>
0.0000

> <Gold.PLP.part.buried>
-3.6705

> <Gold.PLP.part.nonpolar>
-37.7784

> <Gold.PLP.part.repulsive>
0.6165

> <Gold.PLP.ligand.clash>
0.0000

> <Gold.PLP.ligand.torsion>
0.5446

> <Gold.PLP.Chemscore.Hbond>
2.0000

> <Gold.PLP.Chemscore.CHOScore>
0.0000

> <Gold.PLP.Chemscore.Metal>
0.0000

> <Gold.Chemscore.Hbonds>
donor molecule, donor type, donor heavy atom, donor atom, acceptor molecule, acceptor atom, score
      L1  H    18    21       P1  7957  1.00
      P1  H  7989  7998       L1    20  1.00

> <Gold.PLP.Chemscore.Internal.Correction>
0.0206

> <Gold.Rescore>
     Score         DG    S(hbond)    S(metal)    S(lipo)     H(rot)  DE(clash)    DE(int)     intcor
     17.96     -18.85       1.95        0.00     100.90       1.94       0.09       0.80       ----

> <Gold.Chemscore.Fitness>
17.9609

> <Gold.Chemscore.DG>
-18.8511

> <Gold.Chemscore.ZeroCoef>
-5.4800

> <Gold.Chemscore.Hbond>
1.9546

> <Gold.Chemscore.Metal>
0.0000

> <Gold.Chemscore.Lipo>
100.8982

> <Gold.Chemscore.Internal_Hbond>
0.0000

> <Gold.Chemscore.DEClash>
0.0884

> <Gold.Chemscore.DEInternal>
0.8018

> <Gold.Chemscore.Rot>
1.9385

> <Gold.Chemscore.Internal.Correction>
   9.000000E+99

> <Gold.Chemscore.Hbonds>
donor molecule, donor type, donor heavy atom, donor atom, acceptor molecule, acceptor atom, score
      L1  H    18    21       P1  7957  0.97
      P1  H  7989  7998       L1    20  0.55

> <Gold.Chemscore.Hbond.Weighted>
-6.5285

> <Gold.Chemscore.Metal.Weighted>
-0.0000

> <Gold.Chemscore.Lipo.Weighted>
-11.8051

> <Gold.Chemscore.Internal_Hbond.Weighted>
0.0000

> <Gold.Chemscore.DEClash.Weighted>
0.0884

> <Gold.Chemscore.DEInternal.Weighted>
0.8018

> <Gold.Chemscore.Rot.Weighted>
4.9625

> <Gold.Chemscore.Internal.Correction.Weighted>
   9.000000E+99

> <Gold.Protein.RotatedTorsions>
[ 6907 6896 6895 6894 ] final   -0.31 input  -60.11 | X-H torsion
[ 7974 7965 7964 7962 ] final  -54.59 input  175.53 | X-H torsion
[ 8008 7997 7996 7995 ] final -100.49 input   59.86 | X-H torsion
[ 10167 10162 10161 10158 ] final  -74.44 input  -65.29 | X-H torsion
[ 10718 10713 10712 10709 ] final  -54.36 input   66.30 | X-H torsion
[ 10763 10752 10751 10750 ] final -107.62 input  -60.55 | X-H torsion
[ 11005 11000 10999 10996 ] final  -43.96 input  -57.11 | X-H torsion

> <Gold.Protein.ActiveResidues>
 VAL166  LYS551  ARG553  GLY616  TRP617  ASP618  TYR619  PRO620  LYS621  CYS622 
 ASP623  PHE694  ASN695  SER759  ASP760  ASP761  ALA762  ILE779  LEU786  VAL792 
 PHE793  MET794  SER795  GLU796  ALA797  LYS798  CYS799  TRP800  GLU811  SER814 

> <Gold.Protein.RotatedAtoms>
  151.5643  135.1064  159.9979 H   0  0  0  0  0  0  0  0  0  0  0  0  # atno 6907 bound_to 6896
  152.4432  133.7482  159.6690 H   0  0  0  0  0  0  0  0  0  0  0  0  # atno 6908 bound_to 6896
  150.8341  133.7974  159.3110 H   0  0  0  0  0  0  0  0  0  0  0  0  # atno 6909 bound_to 6896
  145.8839  140.8123  142.9826 H   0  0  0  0  0  0  0  0  0  0  0  0  # atno 7974 bound_to 7965
  154.8294  140.0440  157.1466 H   0  0  0  0  0  0  0  0  0  0  0  0  # atno 8008 bound_to 7997
  154.9169  140.3021  155.5216 H   0  0  0  0  0  0  0  0  0  0  0  0  # atno 8009 bound_to 7997
  156.2986  140.2347  156.4215 H   0  0  0  0  0  0  0  0  0  0  0  0  # atno 8010 bound_to 7997
  140.5027  143.2358  151.7725 H   0  0  0  0  0  0  0  0  0  0  0  0  # atno 10167 bound_to 10162
  156.1457  130.4153  150.0028 H   0  0  0  0  0  0  0  0  0  0  0  0  # atno 10718 bound_to 10713
  154.8086  135.4668  154.0458 H   0  0  0  0  0  0  0  0  0  0  0  0  # atno 10763 bound_to 10752
  153.1907  135.6854  153.8364 H   0  0  0  0  0  0  0  0  0  0  0  0  # atno 10764 bound_to 10752
  153.7882  135.3247  155.3352 H   0  0  0  0  0  0  0  0  0  0  0  0  # atno 10765 bound_to 10752
  141.0419  133.6777  156.2806 H   0  0  0  0  0  0  0  0  0  0  0  0  # atno 11005 bound_to 11000
  144.6728  140.1425  143.7436 LP  0  0  0  0  0  0  0  0  0  0  0  0  # atno 17320 bound_to 7965
  145.8991  139.2420  143.1504 LP  0  0  0  0  0  0  0  0  0  0  0  0  # atno 17321 bound_to 7965
  139.4876  144.4500  151.9665 LP  0  0  0  0  0  0  0  0  0  0  0  0  # atno 17342 bound_to 10162
  140.3589  144.2997  150.5936 LP  0  0  0  0  0  0  0  0  0  0  0  0  # atno 17343 bound_to 10162
  156.7900  130.9252  151.3646 LP  0  0  0  0  0  0  0  0  0  0  0  0  # atno 17370 bound_to 10713
  157.6614  130.8970  149.9839 LP  0  0  0  0  0  0  0  0  0  0  0  0  # atno 17371 bound_to 10713
  140.6219  134.5353  157.5548 LP  0  0  0  0  0  0  0  0  0  0  0  0  # atno 17394 bound_to 11000
  139.9282  134.8015  156.1007 LP  0  0  0  0  0  0  0  0  0  0  0  0  # atno 17395 bound_to 11000

$$$$
