AV-unprocessed.smi:593|AV-procd|sdf|3013|dock3
  -GOLD-   2262023523D 1   1.00000     0.00000
 Structure written by MMmdl.
 40 41  0  0  0  0  0  0  0  0  3 V2000
  152.7916  140.1042  156.4660 O   0  0  0  0  0  0  0  0  0  0  0  0
  151.8129  139.9011  157.1831 C   0  0  0  0  0  0  0  0  0  0  0  0
  150.6706  139.0132  156.6585 C   0  0  0  0  0  0  0  0  0  0  0  0
  149.4501  139.7409  156.2626 N   0  0  0  0  0  0  0  0  0  0  0  0
  148.4481  139.8856  157.2424 C   0  0  0  0  0  0  0  0  0  0  0  0
  147.2961  140.5401  156.9979 C   0  0  0  0  0  0  0  0  0  0  0  0
  146.2818  140.6848  158.0187 N   0  3  0  0  0  0  0  0  0  0  0  0
  146.5687  140.4013  159.1775 O   0  0  0  0  0  0  0  0  0  0  0  0
  145.1666  141.0848  157.6977 O   0  5  0  0  0  0  0  0  0  0  0  0
  147.1080  141.1022  155.6747 C   0  0  0  0  0  0  0  0  0  0  0  0
  148.0641  140.9715  154.7342 C   0  0  0  0  0  0  0  0  0  0  0  0
  149.3192  140.2631  155.0042 C   0  0  0  0  0  0  0  0  0  0  0  0
  150.2028  140.1536  154.1542 O   0  0  0  0  0  0  0  0  0  0  0  0
  151.6930  140.4254  158.4131 N   0  0  0  0  0  0  0  0  0  0  0  0
  152.6525  141.3199  159.0444 C   0  0  0  0  0  0  0  0  0  0  0  0
  151.9402  142.5084  159.7185 C   0  0  0  0  0  0  0  0  0  0  0  0
  151.6500  143.6605  158.7289 C   0  0  0  0  0  0  0  0  0  0  0  0
  150.9560  144.8450  159.4210 C   0  0  0  0  0  0  0  0  0  0  0  0
  151.7736  145.3494  160.6196 C   0  0  0  0  0  0  0  0  0  0  0  0
  152.0577  144.2119  161.6115 C   0  0  0  0  0  0  0  0  0  0  0  0
  152.7556  143.0300  160.9188 C   0  0  0  0  0  0  0  0  0  0  0  0
  151.0487  138.4260  155.8199 H   0  0  0  0  0  0  0  0  0  0  0  0
  150.4354  138.2777  157.4291 H   0  0  0  0  0  0  0  0  0  0  0  0
  148.6874  139.4380  158.1964 H   0  0  0  0  0  0  0  0  0  0  0  0
  146.1999  141.6329  155.4287 H   0  0  0  0  0  0  0  0  0  0  0  0
  147.9038  141.3995  153.7555 H   0  0  0  0  0  0  0  0  0  0  0  0
  150.8609  140.2076  158.9418 H   0  0  0  0  0  0  0  0  0  0  0  0
  153.2218  140.7530  159.7822 H   0  0  0  0  0  0  0  0  0  0  0  0
  153.3650  141.6853  158.3026 H   0  0  0  0  0  0  0  0  0  0  0  0
  150.9840  142.1477  160.1012 H   0  0  0  0  0  0  0  0  0  0  0  0
  152.5831  143.9998  158.2774 H   0  0  0  0  0  0  0  0  0  0  0  0
  151.0208  143.3133  157.9087 H   0  0  0  0  0  0  0  0  0  0  0  0
  150.8062  145.6556  158.7073 H   0  0  0  0  0  0  0  0  0  0  0  0
  149.9639  144.5411  159.7567 H   0  0  0  0  0  0  0  0  0  0  0  0
  152.7156  145.7723  160.2685 H   0  0  0  0  0  0  0  0  0  0  0  0
  151.2397  146.1565  161.1218 H   0  0  0  0  0  0  0  0  0  0  0  0
  152.6761  144.5801  162.4304 H   0  0  0  0  0  0  0  0  0  0  0  0
  151.1220  143.8735  162.0582 H   0  0  0  0  0  0  0  0  0  0  0  0
  152.9118  142.2274  161.6404 H   0  0  0  0  0  0  0  0  0  0  0  0
  153.7467  143.3399  160.5845 H   0  0  0  0  0  0  0  0  0  0  0  0
  1  2  2  0  0  0  0
  2  3  1  0  0  0  0
  2 14  1  0  0  0  0
  3  4  1  0  0  0  0
  3 22  1  0  0  0  0
  3 23  1  0  0  0  0
  4 12  1  0  0  0  0
  4  5  1  0  0  0  0
  5  6  2  0  0  0  0
  5 24  1  0  0  0  0
  6  7  1  0  0  0  0
  6 10  1  0  0  0  0
  7  8  2  0  0  0  0
  7  9  1  0  0  0  0
 10 11  2  0  0  0  0
 10 25  1  0  0  0  0
 11 12  1  0  0  0  0
 11 26  1  0  0  0  0
 12 13  2  0  0  0  0
 14 15  1  0  0  0  0
 14 27  1  0  0  0  0
 15 16  1  0  0  0  0
 15 28  1  0  0  0  0
 15 29  1  0  0  0  0
 16 21  1  0  0  0  0
 16 17  1  0  0  0  0
 16 30  1  0  0  0  0
 17 18  1  0  0  0  0
 17 31  1  0  0  0  0
 17 32  1  0  0  0  0
 18 19  1  0  0  0  0
 18 33  1  0  0  0  0
 18 34  1  0  0  0  0
 19 20  1  0  0  0  0
 19 35  1  0  0  0  0
 19 36  1  0  0  0  0
 20 21  1  0  0  0  0
 20 37  1  0  0  0  0
 20 38  1  0  0  0  0
 21 39  1  0  0  0  0
 21 40  1  0  0  0  0
M  CHG  1   7   1
M  CHG  1   9  -1
M  END
> <s_m_source_file>
AV-unprocessed.smi

> <i_m_source_file_index>
593

> <i_lp_mmshare_version>
43012

> <i_f3d_flags>
0

> <s_epik_input>
W0NIMl0xW0NIMl1bQ0gyXVtDSDJdW0NIMl1bQ0hdMVtDSDJdW05IXUMoPU8pW0NIMl1uMltjSF1jKFtOK10oPU8pW08tXSlbY0hdW2NIXWMyPU8=

> <s_epik_cmdline>
J2VwaWtfcHl0aG9uJywgJy1waCcsICc3LjAnLCAnLXRuJywgJzgnLCAnLW1hJywgJzIwMCcsICctbWV0YWxfYmluZGluZycsICctaW1hZScsICc8aW5maWxlLm1hZT4nLCAnLW9tYWUnLCAnPG91dGZpbGUubWFlPic=

> <r_lp_tautomer_probability>
1

> <r_epik_Ionization_Penalty>
1.98738e-08

> <r_epik_Ionization_Penalty_Charging>
7.60687e-11

> <r_epik_Ionization_Penalty_Neutral>
1.97978e-08

> <r_epik_State_Penalty>
-0

> <r_epik_Charging_Adjusted_Penalty>
7.60687e-11

> <i_epik_Tot_Q>
0

> <i_epik_Tot_abs_Q>
2

> <r_epik_Metal_State_Penalty>
-0

> <b_epik_Metal_Only>
0

> <s_lp_Force_Field>
OPLS_2005

> <r_lp_Energy>
22.1176

> <b_lp_Chiralities_Consistent>
1

> <s_lp_Variant>
AV-unprocessed.smi:593-1

> <Gold.Version>
5.8.1

> <Gold.Id.Protein>
6NUR|6NUR_protein|mol2

> <Gold.PLP.Fitness>
43.5175

> <Gold.PLP.PLP>
-37.8137

> <Gold.PLP.part.hbond>
-3.0000

> <Gold.PLP.part.metal>
0.0000

> <Gold.PLP.part.buried>
-6.9329

> <Gold.PLP.part.nonpolar>
-29.3955

> <Gold.PLP.part.repulsive>
0.9910

> <Gold.PLP.ligand.clash>
0.0000

> <Gold.PLP.ligand.torsion>
1.0016

> <Gold.PLP.Chemscore.Hbond>
2.5476

> <Gold.PLP.Chemscore.CHOScore>
0.0000

> <Gold.PLP.Chemscore.Metal>
0.0000

> <Gold.Chemscore.Hbonds>
donor molecule, donor type, donor heavy atom, donor atom, acceptor molecule, acceptor atom, score
      P1  H  6934  6946       L1     8  0.08
      P1  H  7989  7998       L1    13  0.99
      P1  H  7997  8010       L1     1  0.99

> <Gold.PLP.Chemscore.Internal.Correction>
0.0644

> <Gold.Rescore>
     Score         DG    S(hbond)    S(metal)    S(lipo)     H(rot)  DE(clash)    DE(int)     intcor
     19.65     -20.63       2.61        0.00      93.81       1.78       0.24       0.73       ----

> <Gold.Chemscore.Fitness>
19.6530

> <Gold.Chemscore.DG>
-20.6262

> <Gold.Chemscore.ZeroCoef>
-5.4800

> <Gold.Chemscore.Hbond>
2.6146

> <Gold.Chemscore.Metal>
0.0000

> <Gold.Chemscore.Lipo>
93.8121

> <Gold.Chemscore.Internal_Hbond>
0.0000

> <Gold.Chemscore.DEClash>
0.2391

> <Gold.Chemscore.DEInternal>
0.7341

> <Gold.Chemscore.Rot>
1.7823

> <Gold.Chemscore.Internal.Correction>
   9.000000E+99

> <Gold.Chemscore.Hbonds>
donor molecule, donor type, donor heavy atom, donor atom, acceptor molecule, acceptor atom, score
      P1  H  6934  6946       L1     8  0.10
      P1  H  7989  7998       L1    13  0.93
      P1  H  7997  8010       L1     1  0.92

> <Gold.Chemscore.Hbond.Weighted>
-8.7329

> <Gold.Chemscore.Metal.Weighted>
-0.0000

> <Gold.Chemscore.Lipo.Weighted>
-10.9760

> <Gold.Chemscore.Internal_Hbond.Weighted>
0.0000

> <Gold.Chemscore.DEClash.Weighted>
0.2391

> <Gold.Chemscore.DEInternal.Weighted>
0.7341

> <Gold.Chemscore.Rot.Weighted>
4.5627

> <Gold.Chemscore.Internal.Correction.Weighted>
   9.000000E+99

> <Gold.Protein.RotatedTorsions>
[ 6907 6896 6895 6894 ] final  160.67 input  -60.11 | X-H torsion
[ 7974 7965 7964 7962 ] final  -31.60 input  175.53 | X-H torsion
[ 8008 7997 7996 7995 ] final   87.38 input   59.86 | X-H torsion
[ 10167 10162 10161 10158 ] final -121.46 input  -65.29 | X-H torsion
[ 10718 10713 10712 10709 ] final  -43.30 input   66.30 | X-H torsion
[ 10763 10752 10751 10750 ] final  -35.05 input  -60.55 | X-H torsion
[ 11005 11000 10999 10996 ] final  122.38 input  -57.11 | X-H torsion

> <Gold.Protein.ActiveResidues>
 VAL166  LYS551  ARG553  GLY616  TRP617  ASP618  TYR619  PRO620  LYS621  CYS622 
 ASP623  PHE694  ASN695  SER759  ASP760  ASP761  ALA762  ILE779  LEU786  VAL792 
 PHE793  MET794  SER795  GLU796  ALA797  LYS798  CYS799  TRP800  GLU811  SER814 

> <Gold.Protein.RotatedAtoms>
  151.9672  133.3714  159.4057 H   0  0  0  0  0  0  0  0  0  0  0  0  # atno 6907 bound_to 6896
  150.6954  134.4178  159.5200 H   0  0  0  0  0  0  0  0  0  0  0  0  # atno 6908 bound_to 6896
  152.1877  134.8699  160.0571 H   0  0  0  0  0  0  0  0  0  0  0  0  # atno 6909 bound_to 6896
  146.1055  140.5687  142.8801 H   0  0  0  0  0  0  0  0  0  0  0  0  # atno 7974 bound_to 7965
  155.9746  140.3382  155.6607 H   0  0  0  0  0  0  0  0  0  0  0  0  # atno 8008 bound_to 7997
  155.6629  140.0718  157.2566 H   0  0  0  0  0  0  0  0  0  0  0  0  # atno 8009 bound_to 7997
  154.4175  140.1705  156.1783 H   0  0  0  0  0  0  0  0  0  0  0  0  # atno 8010 bound_to 7997
  140.0248  143.5308  152.2204 H   0  0  0  0  0  0  0  0  0  0  0  0  # atno 10167 bound_to 10162
  156.2505  130.4187  149.8655 H   0  0  0  0  0  0  0  0  0  0  0  0  # atno 10718 bound_to 10713
  153.8568  135.6844  153.4787 H   0  0  0  0  0  0  0  0  0  0  0  0  # atno 10763 bound_to 10752
  153.1365  135.4675  154.9428 H   0  0  0  0  0  0  0  0  0  0  0  0  # atno 10764 bound_to 10752
  154.7777  135.3258  154.8006 H   0  0  0  0  0  0  0  0  0  0  0  0  # atno 10765 bound_to 10752
  139.9266  134.9641  156.8100 H   0  0  0  0  0  0  0  0  0  0  0  0  # atno 11005 bound_to 11000
  144.7467  140.5087  143.6830 LP  0  0  0  0  0  0  0  0  0  0  0  0  # atno 17320 bound_to 7965
  145.5769  139.1486  143.3257 LP  0  0  0  0  0  0  0  0  0  0  0  0  # atno 17321 bound_to 7965
  139.6115  144.7610  151.2940 LP  0  0  0  0  0  0  0  0  0  0  0  0  # atno 17342 bound_to 10162
  140.7327  143.6815  150.7997 LP  0  0  0  0  0  0  0  0  0  0  0  0  # atno 17343 bound_to 10162
  156.6206  130.8624  151.3474 LP  0  0  0  0  0  0  0  0  0  0  0  0  # atno 17370 bound_to 10713
  157.7212  130.9561  150.1447 LP  0  0  0  0  0  0  0  0  0  0  0  0  # atno 17371 bound_to 10713
  140.6320  133.9897  155.7666 LP  0  0  0  0  0  0  0  0  0  0  0  0  # atno 17394 bound_to 11000
  141.0827  134.0038  157.3361 LP  0  0  0  0  0  0  0  0  0  0  0  0  # atno 17395 bound_to 11000

$$$$
