AV-unprocessed.smi:229|AV-procd|sdf|1761|dock8
  -GOLD-   2262020293D 1   1.00000     0.00000
 Structure written by MMmdl.
 58 62  0  0  0  0  0  0  0  0  1 V2000
  151.6200  145.5133  160.2054 C   0  0  0  0  0  0  0  0  0  0  0  0
  151.1143  144.8059  158.9420 C   0  0  0  0  0  0  0  0  0  0  0  0
  151.8579  143.4933  158.6534 C   0  0  2  0  0  0  0  0  0  0  0  0
  150.9411  142.4468  157.9965 C   0  0  0  0  0  0  0  0  0  0  0  0
  151.6606  141.1879  157.8403 N   0  0  0  0  0  0  0  0  0  0  0  0
  151.1296  140.2392  157.0301 C   0  0  0  0  0  0  0  0  0  0  0  0
  150.8501  140.5302  155.7313 N   0  0  0  0  0  0  0  0  0  0  0  0
  150.3176  139.6013  154.9315 C   0  0  0  0  0  0  0  0  0  0  0  0
  149.9952  138.3384  155.2179 N   0  0  0  0  0  0  0  0  0  0  0  0
  150.2827  138.0385  156.5166 C   0  0  0  0  0  0  0  0  0  0  0  0
  150.8433  138.9206  157.4828 C   0  0  0  0  0  0  0  0  0  0  0  0
  151.0004  138.2568  158.6943 N   0  0  0  0  0  0  0  0  0  0  0  0
  150.5539  137.0531  158.4592 C   0  0  0  0  0  0  0  0  0  0  0  0
  150.1098  136.8343  157.1747 N   0  0  0  0  0  0  0  0  0  0  0  0
  149.5718  135.5967  156.6368 C   0  0  0  0  0  0  0  0  0  0  0  0
  150.6253  134.7806  155.8558 C   0  0  1  0  0  0  0  0  0  0  0  0
  151.5992  134.3240  156.7756 O   0  0  0  0  0  0  0  0  0  0  0  0
  150.0323  133.5475  155.1449 C   0  0  1  0  0  0  0  0  0  0  0  0
  149.2989  133.8506  153.8375 C   0  0  0  0  0  0  0  0  0  0  0  0
  149.3480  132.5279  153.0930 C   0  0  0  0  0  0  0  0  0  0  0  0
  150.5264  131.7924  153.7359 C   0  0  0  0  0  0  0  0  0  0  0  0
  151.0769  132.7077  154.6744 O   0  0  0  0  0  0  0  0  0  0  0  0
  152.2083  140.6839  159.0942 C   0  0  0  0  0  0  0  0  0  0  0  0
  153.0886  141.7528  159.7783 C   0  0  2  0  0  0  0  0  0  0  0  0
  154.4360  141.9702  159.0807 C   0  0  0  0  0  0  0  0  0  0  0  0
  155.4242  141.2188  159.9610 C   0  0  0  0  0  0  0  0  0  0  0  0
  154.9165  141.4662  161.2584 O   0  0  0  0  0  0  0  0  0  0  0  0
  153.5061  141.3065  161.1930 C   0  0  0  0  0  0  0  0  0  0  0  0
  152.3504  142.9736  159.8899 O   0  0  0  0  0  0  0  0  0  0  0  0
  151.0841  146.4487  160.3670 H   0  0  0  0  0  0  0  0  0  0  0  0
  152.6821  145.7473  160.1279 H   0  0  0  0  0  0  0  0  0  0  0  0
  151.4770  144.8927  161.0906 H   0  0  0  0  0  0  0  0  0  0  0  0
  150.0453  144.6108  159.0362 H   0  0  0  0  0  0  0  0  0  0  0  0
  151.2299  145.4803  158.0930 H   0  0  0  0  0  0  0  0  0  0  0  0
  152.6908  143.7073  157.9822 H   0  0  0  0  0  0  0  0  0  0  0  0
  150.0526  142.2841  158.6086 H   0  0  0  0  0  0  0  0  0  0  0  0
  150.6063  142.8101  157.0237 H   0  0  0  0  0  0  0  0  0  0  0  0
  150.1223  139.9153  153.9167 H   0  0  0  0  0  0  0  0  0  0  0  0
  150.5430  136.2848  159.2191 H   0  0  0  0  0  0  0  0  0  0  0  0
  149.1670  135.0051  157.4592 H   0  0  0  0  0  0  0  0  0  0  0  0
  148.7293  135.8543  155.9943 H   0  0  0  0  0  0  0  0  0  0  0  0
  151.1112  135.4252  155.1220 H   0  0  0  0  0  0  0  0  0  0  0  0
  152.2913  133.9004  156.2916 H   0  0  0  0  0  0  0  0  0  0  0  0
  149.3758  132.9854  155.8124 H   0  0  0  0  0  0  0  0  0  0  0  0
  148.2807  134.2079  153.9939 H   0  0  0  0  0  0  0  0  0  0  0  0
  149.8410  134.6088  153.2705 H   0  0  0  0  0  0  0  0  0  0  0  0
  148.4263  131.9636  153.2398 H   0  0  0  0  0  0  0  0  0  0  0  0
  149.4863  132.6761  152.0214 H   0  0  0  0  0  0  0  0  0  0  0  0
  150.1831  130.8986  154.2586 H   0  0  0  0  0  0  0  0  0  0  0  0
  151.2784  131.4920  153.0059 H   0  0  0  0  0  0  0  0  0  0  0  0
  151.3747  140.4204  159.7469 H   0  0  0  0  0  0  0  0  0  0  0  0
  152.7849  139.7717  158.9427 H   0  0  0  0  0  0  0  0  0  0  0  0
  154.4541  141.6312  158.0443 H   0  0  0  0  0  0  0  0  0  0  0  0
  154.6981  143.0291  159.0885 H   0  0  0  0  0  0  0  0  0  0  0  0
  155.4053  140.1480  159.7505 H   0  0  0  0  0  0  0  0  0  0  0  0
  156.4474  141.5780  159.8509 H   0  0  0  0  0  0  0  0  0  0  0  0
  153.0162  141.8804  161.9802 H   0  0  0  0  0  0  0  0  0  0  0  0
  153.2725  140.2539  161.3606 H   0  0  0  0  0  0  0  0  0  0  0  0
  1  2  1  0  0  0  0
  1 30  1  0  0  0  0
  1 31  1  0  0  0  0
  1 32  1  0  0  0  0
  2  3  1  0  0  0  0
  2 33  1  0  0  0  0
  2 34  1  0  0  0  0
  3 29  1  0  0  0  0
  3  4  1  0  0  0  0
  3 35  1  0  0  0  0
  4  5  1  0  0  0  0
  4 36  1  0  0  0  0
  4 37  1  0  0  0  0
  5  6  1  0  0  0  0
  5 23  1  0  0  0  0
  6 11  1  0  0  0  0
  6  7  2  0  0  0  0
  7  8  1  0  0  0  0
  8  9  2  0  0  0  0
  8 38  1  0  0  0  0
  9 10  1  0  0  0  0
 10 14  1  0  0  0  0
 10 11  2  0  0  0  0
 11 12  1  0  0  0  0
 12 13  2  0  0  0  0
 13 14  1  0  0  0  0
 13 39  1  0  0  0  0
 14 15  1  0  0  0  0
 15 16  1  0  0  0  0
 15 40  1  0  0  0  0
 15 41  1  0  0  0  0
 16 17  1  0  0  0  0
 16 18  1  0  0  0  0
 16 42  1  0  0  0  0
 17 43  1  0  0  0  0
 18 22  1  0  0  0  0
 18 19  1  0  0  0  0
 18 44  1  0  0  0  0
 19 20  1  0  0  0  0
 19 45  1  0  0  0  0
 19 46  1  0  0  0  0
 20 21  1  0  0  0  0
 20 47  1  0  0  0  0
 20 48  1  0  0  0  0
 21 22  1  0  0  0  0
 21 49  1  0  0  0  0
 21 50  1  0  0  0  0
 23 24  1  0  0  0  0
 23 51  1  0  0  0  0
 23 52  1  0  0  0  0
 24 28  1  0  0  0  0
 24 25  1  0  0  0  0
 24 29  1  0  0  0  0
 25 26  1  0  0  0  0
 25 53  1  0  0  0  0
 25 54  1  0  0  0  0
 26 27  1  0  0  0  0
 26 55  1  0  0  0  0
 26 56  1  0  0  0  0
 27 28  1  0  0  0  0
 28 57  1  0  0  0  0
 28 58  1  0  0  0  0
M  END
> <s_m_source_file>
AV-unprocessed.smi

> <i_m_source_file_index>
229

> <i_lp_mmshare_version>
43012

> <i_f3d_flags>
0

> <s_epik_input>
W0NIMl0xT1tDSDJdW0NIMl1bQ0BdMTJbQ0gyXU4oW0NIMl1bQ0BIXShPMilbQ0gyXVtDSDNdKWMobltjSF1uMyljKGMzNCluW2NIXW40W0NIMl1bQ0BIXShbT0hdKVtDQEBIXTVbQ0gyXVtDSDJdW0NIMl1PNQ==

> <s_epik_cmdline>
J2VwaWtfcHl0aG9uJywgJy1waCcsICc3LjAnLCAnLXRuJywgJzgnLCAnLW1hJywgJzIwMCcsICctbWV0YWxfYmluZGluZycsICctaW1hZScsICc8aW5maWxlLm1hZT4nLCAnLW9tYWUnLCAnPG91dGZpbGUubWFlPic=

> <r_lp_tautomer_probability>
1

> <r_epik_Ionization_Penalty>
0.00318402

> <r_epik_Ionization_Penalty_Charging>
0

> <r_epik_Ionization_Penalty_Neutral>
0.00318402

> <r_epik_State_Penalty>
0.00215642

> <r_epik_Charging_Adjusted_Penalty>
0.00215642

> <i_epik_Tot_Q>
0

> <i_epik_Tot_abs_Q>
0

> <r_epik_Metal_State_Penalty>
-0

> <b_epik_Metal_Only>
0

> <s_lp_Force_Field>
OPLS_2005

> <r_lp_Energy>
54.7562

> <b_lp_Chiralities_Consistent>
1

> <s_lp_Variant>
AV-unprocessed.smi:229-15

> <Gold.Version>
5.8.1

> <Gold.Id.Protein>
6NUR|6NUR_protein|mol2

> <Gold.PLP.Fitness>
47.4720

> <Gold.PLP.PLP>
-48.0388

> <Gold.PLP.part.hbond>
-2.5164

> <Gold.PLP.part.metal>
0.0000

> <Gold.PLP.part.buried>
-7.0194

> <Gold.PLP.part.nonpolar>
-38.5205

> <Gold.PLP.part.repulsive>
0.1121

> <Gold.PLP.ligand.clash>
0.3479

> <Gold.PLP.ligand.torsion>
1.1755

> <Gold.PLP.Chemscore.Hbond>
0.3968

> <Gold.PLP.Chemscore.CHOScore>
0.1891

> <Gold.PLP.Chemscore.Metal>
0.0000

> <Gold.Chemscore.Hbonds>
donor molecule, donor type, donor heavy atom, donor atom, acceptor molecule, acceptor atom, score
      L1  C     8    38       P1  7957  0.32

> <Gold.PLP.Chemscore.Internal.Correction>
0.3744

> <Gold.Rescore>
     Score         DG    S(hbond)    S(metal)    S(lipo)     H(rot)  DE(clash)    DE(int)     intcor
      9.10     -13.24       0.01        0.00     119.67       2.46       1.42       2.71       ----

> <Gold.Chemscore.Fitness>
9.0999

> <Gold.Chemscore.DG>
-13.2354

> <Gold.Chemscore.ZeroCoef>
-5.4800

> <Gold.Chemscore.Hbond>
0.0149

> <Gold.Chemscore.Metal>
0.0000

> <Gold.Chemscore.Lipo>
119.6660

> <Gold.Chemscore.Internal_Hbond>
0.0000

> <Gold.Chemscore.DEClash>
1.4205

> <Gold.Chemscore.DEInternal>
2.7150

> <Gold.Chemscore.Rot>
2.4591

> <Gold.Chemscore.Internal.Correction>
   9.000000E+99

> <Gold.Chemscore.Hbond.Weighted>
-0.0498

> <Gold.Chemscore.Metal.Weighted>
-0.0000

> <Gold.Chemscore.Lipo.Weighted>
-14.0009

> <Gold.Chemscore.Internal_Hbond.Weighted>
0.0000

> <Gold.Chemscore.DEClash.Weighted>
1.4205

> <Gold.Chemscore.DEInternal.Weighted>
2.7150

> <Gold.Chemscore.Rot.Weighted>
6.2953

> <Gold.Chemscore.Internal.Correction.Weighted>
   9.000000E+99

> <Gold.Protein.RotatedTorsions>
[ 6907 6896 6895 6894 ] final   -6.09 input  -60.11 | X-H torsion
[ 7974 7965 7964 7962 ] final -151.73 input  175.53 | X-H torsion
[ 8008 7997 7996 7995 ] final  -92.50 input   59.86 | X-H torsion
[ 10167 10162 10161 10158 ] final  156.34 input  -65.29 | X-H torsion
[ 10718 10713 10712 10709 ] final  -33.67 input   66.30 | X-H torsion
[ 10763 10752 10751 10750 ] final  -51.08 input  -60.55 | X-H torsion
[ 11005 11000 10999 10996 ] final   13.43 input  -57.11 | X-H torsion

> <Gold.Protein.ActiveResidues>
 VAL166  LYS551  ARG553  GLY616  TRP617  ASP618  TYR619  PRO620  LYS621  CYS622 
 ASP623  PHE694  ASN695  SER759  ASP760  ASP761  ALA762  ILE779  LEU786  VAL792 
 PHE793  MET794  SER795  GLU796  ALA797  LYS798  CYS799  TRP800  GLU811  SER814 

> <Gold.Protein.RotatedAtoms>
  151.4711  135.1046  159.9751 H   0  0  0  0  0  0  0  0  0  0  0  0  # atno 6907 bound_to 6896
  152.4816  133.8265  159.7091 H   0  0  0  0  0  0  0  0  0  0  0  0  # atno 6908 bound_to 6896
  150.8892  133.7205  159.2936 H   0  0  0  0  0  0  0  0  0  0  0  0  # atno 6909 bound_to 6896
  144.7833  140.4757  143.5824 H   0  0  0  0  0  0  0  0  0  0  0  0  # atno 7974 bound_to 7965
  154.7238  140.0508  157.0664 H   0  0  0  0  0  0  0  0  0  0  0  0  # atno 8008 bound_to 7997
  155.0391  140.3166  155.4712 H   0  0  0  0  0  0  0  0  0  0  0  0  # atno 8009 bound_to 7997
  156.2824  140.2136  156.5515 H   0  0  0  0  0  0  0  0  0  0  0  0  # atno 8010 bound_to 7997
  139.4821  144.5018  151.8157 H   0  0  0  0  0  0  0  0  0  0  0  0  # atno 10167 bound_to 10162
  156.3598  130.4322  149.7633 H   0  0  0  0  0  0  0  0  0  0  0  0  # atno 10718 bound_to 10713
  154.1207  135.6535  153.4902 H   0  0  0  0  0  0  0  0  0  0  0  0  # atno 10763 bound_to 10752
  153.0226  135.5269  154.7099 H   0  0  0  0  0  0  0  0  0  0  0  0  # atno 10764 bound_to 10752
  154.6306  135.2975  155.0191 H   0  0  0  0  0  0  0  0  0  0  0  0  # atno 10765 bound_to 10752
  140.4809  134.0936  155.7751 H   0  0  0  0  0  0  0  0  0  0  0  0  # atno 11005 bound_to 11000
  145.5990  139.1502  143.3140 LP  0  0  0  0  0  0  0  0  0  0  0  0  # atno 17320 bound_to 7965
  146.2052  140.6112  142.9084 LP  0  0  0  0  0  0  0  0  0  0  0  0  # atno 17321 bound_to 7965
  140.4512  144.1853  150.5897 LP  0  0  0  0  0  0  0  0  0  0  0  0  # atno 17342 bound_to 10162
  140.4583  143.2459  151.9255 LP  0  0  0  0  0  0  0  0  0  0  0  0  # atno 17343 bound_to 10162
  156.4802  130.8037  151.3052 LP  0  0  0  0  0  0  0  0  0  0  0  0  # atno 17370 bound_to 10713
  157.7472  131.0008  150.2940 LP  0  0  0  0  0  0  0  0  0  0  0  0  # atno 17371 bound_to 10713
  141.1532  133.8931  157.2046 LP  0  0  0  0  0  0  0  0  0  0  0  0  # atno 17394 bound_to 11000
  139.9827  135.0092  156.9789 LP  0  0  0  0  0  0  0  0  0  0  0  0  # atno 17395 bound_to 11000

$$$$
