AV-unprocessed.smi:775|AV-procd|sdf|3697|dock4
  -GOLD-   22720 1113D 1   1.00000     0.00000
 Structure written by MMmdl.
 38 39  0  0  0  0  0  0  0  0  1 V2000
  149.2044  128.8172  153.3538 C   0  0  0  0  0  0  0  0  0  0  0  0
  147.7393  129.2633  153.2434 C   0  0  2  0  0  0  0  0  0  0  0  0
  147.0262  128.5165  152.0913 C   0  0  0  0  0  0  0  0  0  0  0  0
  147.7729  127.3755  151.5910 N   0  0  0  0  0  0  0  0  0  0  0  0
  148.5437  127.2914  150.4503 C   0  0  0  0  0  0  0  0  0  0  0  0
  149.0560  126.0269  150.3976 C   0  0  0  0  0  0  0  0  0  0  0  0
  148.5270  125.3996  151.5600 C   0  0  0  0  0  0  0  0  0  0  0  0
  147.7573  126.2079  152.2706 N   0  0  0  0  0  0  0  0  0  0  0  0
  147.7500  130.7051  153.0106 N   0  0  0  0  0  0  0  0  0  0  0  0
  146.4085  131.2517  152.7552 C   0  0  0  0  0  0  0  0  0  0  0  0
  146.4183  132.7619  152.4628 C   0  0  0  0  0  0  0  0  0  0  0  0
  146.7659  133.5369  153.3563 O   0  0  0  0  0  0  0  0  0  0  0  0
  146.0475  133.1970  151.2323 N   0  0  0  0  0  0  0  0  0  0  0  0
  146.0136  134.6033  150.8196 C   0  0  0  0  0  0  0  0  0  0  0  0
  144.5393  135.0296  150.7147 C   0  0  0  0  0  0  0  0  0  0  0  0
  143.7392  134.0522  149.9725 N   0  0  0  0  0  0  0  0  0  0  0  0
  144.1106  132.7851  149.7071 C   0  0  0  0  0  0  0  0  0  0  0  0
  143.3905  132.0229  149.0663 O   0  0  0  0  0  0  0  0  0  0  0  0
  145.4759  132.2892  150.2246 C   0  0  0  0  0  0  0  0  0  0  0  0
  149.2734  127.7464  153.5472 H   0  0  0  0  0  0  0  0  0  0  0  0
  149.7141  129.3289  154.1711 H   0  0  0  0  0  0  0  0  0  0  0  0
  149.7558  129.0230  152.4353 H   0  0  0  0  0  0  0  0  0  0  0  0
  147.2576  129.0325  154.1954 H   0  0  0  0  0  0  0  0  0  0  0  0
  146.0308  128.1920  152.4005 H   0  0  0  0  0  0  0  0  0  0  0  0
  146.8774  129.1948  151.2501 H   0  0  0  0  0  0  0  0  0  0  0  0
  148.6661  128.1315  149.7826 H   0  0  0  0  0  0  0  0  0  0  0  0
  149.7079  125.6126  149.6430 H   0  0  0  0  0  0  0  0  0  0  0  0
  148.6792  124.3883  151.9070 H   0  0  0  0  0  0  0  0  0  0  0  0
  148.1756  131.1641  153.8033 H   0  0  0  0  0  0  0  0  0  0  0  0
  145.9710  130.7375  151.9032 H   0  0  0  0  0  0  0  0  0  0  0  0
  145.7699  131.0647  153.6196 H   0  0  0  0  0  0  0  0  0  0  0  0
  146.5726  135.2822  151.4620 H   0  0  0  0  0  0  0  0  0  0  0  0
  146.4876  134.6838  149.8401 H   0  0  0  0  0  0  0  0  0  0  0  0
  144.1099  135.1329  151.7118 H   0  0  0  0  0  0  0  0  0  0  0  0
  144.4584  136.0035  150.2318 H   0  0  0  0  0  0  0  0  0  0  0  0
  142.8398  134.3607  149.6322 H   0  0  0  0  0  0  0  0  0  0  0  0
  146.1643  132.2247  149.3813 H   0  0  0  0  0  0  0  0  0  0  0  0
  145.3454  131.2700  150.5913 H   0  0  0  0  0  0  0  0  0  0  0  0
  1  2  1  0  0  0  0
  1 20  1  0  0  0  0
  1 21  1  0  0  0  0
  1 22  1  0  0  0  0
  2  3  1  0  0  0  0
  2  9  1  0  0  0  0
  2 23  1  0  0  0  0
  3  4  1  0  0  0  0
  3 24  1  0  0  0  0
  3 25  1  0  0  0  0
  4  8  1  0  0  0  0
  4  5  1  0  0  0  0
  5  6  2  0  0  0  0
  5 26  1  0  0  0  0
  6  7  1  0  0  0  0
  6 27  1  0  0  0  0
  7  8  2  0  0  0  0
  7 28  1  0  0  0  0
  9 10  1  0  0  0  0
  9 29  1  0  0  0  0
 10 11  1  0  0  0  0
 10 30  1  0  0  0  0
 10 31  1  0  0  0  0
 11 12  2  0  0  0  0
 11 13  1  0  0  0  0
 13 19  1  0  0  0  0
 13 14  1  0  0  0  0
 14 15  1  0  0  0  0
 14 32  1  0  0  0  0
 14 33  1  0  0  0  0
 15 16  1  0  0  0  0
 15 34  1  0  0  0  0
 15 35  1  0  0  0  0
 16 17  1  0  0  0  0
 16 36  1  0  0  0  0
 17 18  2  0  0  0  0
 17 19  1  0  0  0  0
 19 37  1  0  0  0  0
 19 38  1  0  0  0  0
M  END
> <s_m_source_file>
AV-unprocessed.smi

> <i_m_source_file_index>
775

> <i_lp_mmshare_version>
43012

> <i_f3d_flags>
0

> <s_epik_input>
bjFbY0hdW2NIXVtjSF1uMVtDSDJdW0NAQEhdKFtDSDNdKVtOSF1bQ0gyXUMoPU8pTjJbQ0gyXVtDSDJdW05IXUMoPU8pW0NIMl0y

> <s_epik_cmdline>
J2VwaWtfcHl0aG9uJywgJy1waCcsICc3LjAnLCAnLXRuJywgJzgnLCAnLW1hJywgJzIwMCcsICctbWV0YWxfYmluZGluZycsICctaW1hZScsICc8aW5maWxlLm1hZT4nLCAnLW9tYWUnLCAnPG91dGZpbGUubWFlPic=

> <r_lp_tautomer_probability>
1

> <r_epik_Ionization_Penalty>
0.836058

> <r_epik_Ionization_Penalty_Charging>
0

> <r_epik_Ionization_Penalty_Neutral>
0.836058

> <r_epik_State_Penalty>
0.870309

> <r_epik_Charging_Adjusted_Penalty>
0.870309

> <i_epik_Tot_Q>
0

> <i_epik_Tot_abs_Q>
0

> <r_epik_Metal_State_Penalty>
0.870266

> <b_epik_Metal_Only>
0

> <s_lp_Force_Field>
OPLS_2005

> <r_lp_Energy>
24.9182

> <b_lp_Chiralities_Consistent>
1

> <s_lp_Variant>
AV-unprocessed.smi:775-3

> <Gold.Version>
5.8.1

> <Gold.Id.Protein>
6NUR|6NUR_protein|mol2

> <Gold.PLP.Fitness>
45.1324

> <Gold.PLP.PLP>
-41.3186

> <Gold.PLP.part.hbond>
-3.6350

> <Gold.PLP.part.metal>
0.0000

> <Gold.PLP.part.buried>
-8.0879

> <Gold.PLP.part.nonpolar>
-30.5674

> <Gold.PLP.part.repulsive>
0.4313

> <Gold.PLP.ligand.clash>
0.0000

> <Gold.PLP.ligand.torsion>
0.9915

> <Gold.PLP.Chemscore.Hbond>
1.9120

> <Gold.PLP.Chemscore.CHOScore>
0.0000

> <Gold.PLP.Chemscore.Metal>
0.0000

> <Gold.Chemscore.Hbonds>
donor molecule, donor type, donor heavy atom, donor atom, acceptor molecule, acceptor atom, score
      L1  H    16    36       P1 10186  1.00
      P1  H 10785 10796       L1    18  0.98

> <Gold.PLP.Chemscore.Internal.Correction>
0.0607

> <Gold.Rescore>
     Score         DG    S(hbond)    S(metal)    S(lipo)     H(rot)  DE(clash)    DE(int)     intcor
     13.82     -15.07       1.95        0.00      72.83       2.12       0.16       1.09       ----

> <Gold.Chemscore.Fitness>
13.8200

> <Gold.Chemscore.DG>
-15.0725

> <Gold.Chemscore.ZeroCoef>
-5.4800

> <Gold.Chemscore.Hbond>
1.9487

> <Gold.Chemscore.Metal>
0.0000

> <Gold.Chemscore.Lipo>
72.8269

> <Gold.Chemscore.Internal_Hbond>
0.0000

> <Gold.Chemscore.DEClash>
0.1637

> <Gold.Chemscore.DEInternal>
1.0888

> <Gold.Chemscore.Rot>
2.1239

> <Gold.Chemscore.Internal.Correction>
   9.000000E+99

> <Gold.Chemscore.Hbonds>
donor molecule, donor type, donor heavy atom, donor atom, acceptor molecule, acceptor atom, score
      L1  H    16    36       P1 10186  0.98
      P1  H 10785 10796       L1    18  0.92

> <Gold.Chemscore.Hbond.Weighted>
-6.5088

> <Gold.Chemscore.Metal.Weighted>
-0.0000

> <Gold.Chemscore.Lipo.Weighted>
-8.5207

> <Gold.Chemscore.Internal_Hbond.Weighted>
0.0000

> <Gold.Chemscore.DEClash.Weighted>
0.1637

> <Gold.Chemscore.DEInternal.Weighted>
1.0888

> <Gold.Chemscore.Rot.Weighted>
5.4371

> <Gold.Chemscore.Internal.Correction.Weighted>
   9.000000E+99

> <Gold.Protein.RotatedTorsions>
[ 6907 6896 6895 6894 ] final  -25.27 input  -60.11 | X-H torsion
[ 7974 7965 7964 7962 ] final  149.80 input  175.53 | X-H torsion
[ 8008 7997 7996 7995 ] final  158.79 input   59.86 | X-H torsion
[ 10167 10162 10161 10158 ] final -157.36 input  -65.29 | X-H torsion
[ 10718 10713 10712 10709 ] final   92.32 input   66.30 | X-H torsion
[ 10763 10752 10751 10750 ] final -160.84 input  -60.55 | X-H torsion
[ 11005 11000 10999 10996 ] final -128.42 input  -57.11 | X-H torsion

> <Gold.Protein.ActiveResidues>
 VAL166  LYS551  ARG553  GLY616  TRP617  ASP618  TYR619  PRO620  LYS621  CYS622 
 ASP623  PHE694  ASN695  SER759  ASP760  ASP761  ALA762  ILE779  LEU786  VAL792 
 PHE793  MET794  SER795  GLU796  ALA797  LYS798  CYS799  TRP800  GLU811  SER814 

> <Gold.Protein.RotatedAtoms>
  151.1776  135.0346  159.8778 H   0  0  0  0  0  0  0  0  0  0  0  0  # atno 6907 bound_to 6896
  152.5446  134.1099  159.8364 H   0  0  0  0  0  0  0  0  0  0  0  0  # atno 6908 bound_to 6896
  151.1212  133.5056  159.2634 H   0  0  0  0  0  0  0  0  0  0  0  0  # atno 6909 bound_to 6896
  144.8411  139.6327  143.6016 H   0  0  0  0  0  0  0  0  0  0  0  0  # atno 7974 bound_to 7965
  156.2280  140.1848  156.7314 H   0  0  0  0  0  0  0  0  0  0  0  0  # atno 8008 bound_to 7997
  154.5974  140.0641  156.9350 H   0  0  0  0  0  0  0  0  0  0  0  0  # atno 8009 bound_to 7997
  155.2233  140.3309  155.4315 H   0  0  0  0  0  0  0  0  0  0  0  0  # atno 8010 bound_to 7997
  139.6777  143.9636  152.2319 H   0  0  0  0  0  0  0  0  0  0  0  0  # atno 10167 bound_to 10162
  157.6959  131.0439  150.3864 H   0  0  0  0  0  0  0  0  0  0  0  0  # atno 10718 bound_to 10713
  154.7356  135.3056  154.8818 H   0  0  0  0  0  0  0  0  0  0  0  0  # atno 10763 bound_to 10752
  153.9648  135.6749  153.4750 H   0  0  0  0  0  0  0  0  0  0  0  0  # atno 10764 bound_to 10752
  153.0959  135.4936  154.8700 H   0  0  0  0  0  0  0  0  0  0  0  0  # atno 10765 bound_to 10752
  140.9517  134.1056  157.4055 H   0  0  0  0  0  0  0  0  0  0  0  0  # atno 11005 bound_to 11000
  146.2703  139.6619  142.9301 LP  0  0  0  0  0  0  0  0  0  0  0  0  # atno 17320 bound_to 7965
  145.4693  141.0435  143.2708 LP  0  0  0  0  0  0  0  0  0  0  0  0  # atno 17321 bound_to 7965
  139.9417  144.6677  150.8260 LP  0  0  0  0  0  0  0  0  0  0  0  0  # atno 17342 bound_to 10162
  140.7641  143.3240  151.2558 LP  0  0  0  0  0  0  0  0  0  0  0  0  # atno 17343 bound_to 10162
  156.4273  130.3965  149.6784 LP  0  0  0  0  0  0  0  0  0  0  0  0  # atno 17370 bound_to 10713
  156.4014  130.7677  151.2685 LP  0  0  0  0  0  0  0  0  0  0  0  0  # atno 17371 bound_to 10713
  139.8849  135.0068  156.6403 LP  0  0  0  0  0  0  0  0  0  0  0  0  # atno 17394 bound_to 11000
  140.7593  133.8831  155.8406 LP  0  0  0  0  0  0  0  0  0  0  0  0  # atno 17395 bound_to 11000

$$$$
