AV-unprocessed.smi:2032|AV-procd|sdf|8257|dock1
  -GOLD-   2272010533D 1   1.00000     0.00000
 Structure written by MMmdl.
 42 43  0  0  0  0  0  0  0  0  3 V2000
  145.4874  132.0906  149.5028 C   0  0  0  0  0  0  0  0  0  0  0  0
  145.9551  133.2766  150.3538 C   0  0  2  0  0  0  0  0  0  0  0  0
  146.6940  132.8218  151.6257 C   0  0  0  0  0  0  0  0  0  0  0  0
  147.0783  133.9779  152.4836 N   0  3  2  0  0  0  0  0  0  0  0  0
  147.8218  133.5776  153.7259 C   0  0  1  0  0  0  0  0  0  0  0  0
  149.1606  132.8761  153.3854 C   0  0  0  0  0  0  0  0  0  0  0  0
  148.0741  134.7784  154.6755 C   0  0  0  0  0  0  0  0  0  0  0  0
  149.3653  135.4119  154.4340 N   0  0  0  0  0  0  0  0  0  0  0  0
  150.3438  135.5421  155.3385 C   0  0  0  0  0  0  0  0  0  0  0  0
  150.1855  135.1057  156.4808 O   0  0  0  0  0  0  0  0  0  0  0  0
  151.4430  136.1673  154.8607 N   0  5  0  0  0  0  0  0  0  0  0  0
  151.6765  137.4517  155.1757 C   0  0  0  0  0  0  0  0  0  0  0  0
  150.9277  138.1353  156.0486 N   0  0  0  0  0  0  0  0  0  0  0  0
  151.3423  139.4574  156.2196 C   0  0  0  0  0  0  0  0  0  0  0  0
  152.4270  139.7906  155.4527 C   0  0  0  0  0  0  0  0  0  0  0  0
  152.9632  138.4459  154.4866 S   0  0  0  0  0  0  0  0  0  0  0  0
  145.8805  134.8269  152.7395 C   0  0  0  0  0  0  0  0  0  0  0  0
  145.1618  135.2101  151.4321 C   0  0  2  0  0  0  0  0  0  0  0  0
  143.8779  136.0068  151.6912 C   0  0  0  0  0  0  0  0  0  0  0  0
  144.8107  134.0299  150.7256 O   0  0  0  0  0  0  0  0  0  0  0  0
  146.3315  131.4811  149.1795 H   0  0  0  0  0  0  0  0  0  0  0  0
  144.9656  132.4339  148.6093 H   0  0  0  0  0  0  0  0  0  0  0  0
  144.8047  131.4485  150.0601 H   0  0  0  0  0  0  0  0  0  0  0  0
  146.6161  133.8971  149.7457 H   0  0  0  0  0  0  0  0  0  0  0  0
  146.0684  132.1369  152.2007 H   0  0  0  0  0  0  0  0  0  0  0  0
  147.5726  132.2656  151.3051 H   0  0  0  0  0  0  0  0  0  0  0  0
  147.1982  132.8609  154.2631 H   0  0  0  0  0  0  0  0  0  0  0  0
  149.7481  132.6516  154.2751 H   0  0  0  0  0  0  0  0  0  0  0  0
  149.7785  133.4984  152.7373 H   0  0  0  0  0  0  0  0  0  0  0  0
  149.0132  131.9148  152.8959 H   0  0  0  0  0  0  0  0  0  0  0  0
  147.2768  135.5158  154.5671 H   0  0  0  0  0  0  0  0  0  0  0  0
  148.0928  134.4657  155.7187 H   0  0  0  0  0  0  0  0  0  0  0  0
  149.5339  135.7822  153.5101 H   0  0  0  0  0  0  0  0  0  0  0  0
  150.8045  140.0927  156.9076 H   0  0  0  0  0  0  0  0  0  0  0  0
  152.9398  140.7387  155.3952 H   0  0  0  0  0  0  0  0  0  0  0  0
  145.1977  134.2988  153.4071 H   0  0  0  0  0  0  0  0  0  0  0  0
  146.1613  135.7578  153.2283 H   0  0  0  0  0  0  0  0  0  0  0  0
  145.8249  135.8177  150.8134 H   0  0  0  0  0  0  0  0  0  0  0  0
  144.0911  136.9347  152.2226 H   0  0  0  0  0  0  0  0  0  0  0  0
  143.1706  135.4329  152.2905 H   0  0  0  0  0  0  0  0  0  0  0  0
  143.3850  136.2672  150.7542 H   0  0  0  0  0  0  0  0  0  0  0  0
  147.7151  134.5422  151.9393 H   0  0  0  0  0  0  0  0  0  0  0  0
  1  2  1  0  0  0  0
  1 21  1  0  0  0  0
  1 22  1  0  0  0  0
  1 23  1  0  0  0  0
  2 20  1  0  0  0  0
  2  3  1  0  0  0  0
  2 24  1  0  0  0  0
  3  4  1  0  0  0  0
  3 25  1  0  0  0  0
  3 26  1  0  0  0  0
  4  5  1  0  0  0  0
  4 17  1  0  0  0  0
  4 42  1  0  0  0  0
  5  6  1  0  0  0  0
  5  7  1  0  0  0  0
  5 27  1  0  0  0  0
  6 28  1  0  0  0  0
  6 29  1  0  0  0  0
  6 30  1  0  0  0  0
  7  8  1  0  0  0  0
  7 31  1  0  0  0  0
  7 32  1  0  0  0  0
  8  9  1  0  0  0  0
  8 33  1  0  0  0  0
  9 10  2  0  0  0  0
  9 11  1  0  0  0  0
 11 12  1  0  0  0  0
 12 16  1  0  0  0  0
 12 13  2  0  0  0  0
 13 14  1  0  0  0  0
 14 15  2  0  0  0  0
 14 34  1  0  0  0  0
 15 16  1  0  0  0  0
 15 35  1  0  0  0  0
 17 18  1  0  0  0  0
 17 36  1  0  0  0  0
 17 37  1  0  0  0  0
 18 19  1  0  0  0  0
 18 20  1  0  0  0  0
 18 38  1  0  0  0  0
 19 39  1  0  0  0  0
 19 40  1  0  0  0  0
 19 41  1  0  0  0  0
M  CHG  1   4   1
M  CHG  1  11  -1
M  END
> <s_m_source_file>
AV-unprocessed.smi

> <i_m_source_file_index>
2032

> <i_lp_mmshare_version>
43012

> <i_f3d_flags>
0

> <s_epik_input>
W0NIM11bQ0BASF0xW0NIMl1OKFtDSDJdW0NASF0oTzEpW0NIM10pW0NASF0oW0NIM10pW0NIMl1bTkhdQyg9TylbTkhdYzJuW2NIXVtjSF1zMg==

> <s_epik_cmdline>
J2VwaWtfcHl0aG9uJywgJy1waCcsICc3LjAnLCAnLXRuJywgJzgnLCAnLW1hJywgJzIwMCcsICctbWV0YWxfYmluZGluZycsICctaW1hZScsICc8aW5maWxlLm1hZT4nLCAnLW9tYWUnLCAnPG91dGZpbGUubWFlPic=

> <r_lp_tautomer_probability>
0.999

> <r_epik_Ionization_Penalty>
6.71699

> <r_epik_Ionization_Penalty_Charging>
5.88592

> <r_epik_Ionization_Penalty_Neutral>
0.831074

> <r_epik_State_Penalty>
6.08365

> <r_epik_Charging_Adjusted_Penalty>
11.9696

> <i_epik_Tot_Q>
0

> <i_epik_Tot_abs_Q>
2

> <r_epik_Metal_State_Penalty>
2.0947

> <b_epik_Metal_Only>
1

> <s_lp_Force_Field>
OPLS_2005

> <r_lp_Energy>
10.3148

> <b_lp_Chiralities_Consistent>
1

> <s_lp_Variant>
AV-unprocessed.smi:2032-27

> <Gold.Version>
5.8.1

> <Gold.Id.Protein>
6NUR|6NUR_protein|mol2

> <Gold.PLP.Fitness>
47.0743

> <Gold.PLP.PLP>
-34.1555

> <Gold.PLP.part.hbond>
-3.0000

> <Gold.PLP.part.metal>
0.0000

> <Gold.PLP.part.buried>
-2.6562

> <Gold.PLP.part.nonpolar>
-27.6523

> <Gold.PLP.part.repulsive>
0.3228

> <Gold.PLP.ligand.clash>
0.0000

> <Gold.PLP.ligand.torsion>
1.1726

> <Gold.PLP.Chemscore.Hbond>
5.0000

> <Gold.PLP.Chemscore.CHOScore>
0.0000

> <Gold.PLP.Chemscore.Metal>
0.0000

> <Gold.Chemscore.Hbonds>
donor molecule, donor type, donor heavy atom, donor atom, acceptor molecule, acceptor atom, score
      L1  H     4    42       P1  7948  1.90
      L1  H     8    33       P1  7948  1.00
      P1  H 10752 10764       L1    11  2.00

> <Gold.PLP.Chemscore.Internal.Correction>
0.2640

> <Gold.Rescore>
     Score         DG    S(hbond)    S(metal)    S(lipo)     H(rot)  DE(clash)    DE(int)     intcor
     16.11     -17.50       2.44        0.00      67.64       1.58       0.27       1.12       ----

> <Gold.Chemscore.Fitness>
16.1149

> <Gold.Chemscore.DG>
-17.4963

> <Gold.Chemscore.ZeroCoef>
-5.4800

> <Gold.Chemscore.Hbond>
2.4386

> <Gold.Chemscore.Metal>
0.0000

> <Gold.Chemscore.Lipo>
67.6399

> <Gold.Chemscore.Internal_Hbond>
0.0000

> <Gold.Chemscore.DEClash>
0.2660

> <Gold.Chemscore.DEInternal>
1.1154

> <Gold.Chemscore.Rot>
1.5791

> <Gold.Chemscore.Internal.Correction>
   9.000000E+99

> <Gold.Chemscore.Hbonds>
donor molecule, donor type, donor heavy atom, donor atom, acceptor molecule, acceptor atom, score
      L1  H     4    42       P1  7948  0.30
      L1  H     8    33       P1  7948  0.25
      P1  H 10752 10764       L1    11  0.39

> <Gold.Chemscore.Hbond.Weighted>
-8.1450

> <Gold.Chemscore.Metal.Weighted>
-0.0000

> <Gold.Chemscore.Lipo.Weighted>
-7.9139

> <Gold.Chemscore.Internal_Hbond.Weighted>
0.0000

> <Gold.Chemscore.DEClash.Weighted>
0.2660

> <Gold.Chemscore.DEInternal.Weighted>
1.1154

> <Gold.Chemscore.Rot.Weighted>
4.0425

> <Gold.Chemscore.Internal.Correction.Weighted>
   9.000000E+99

> <Gold.Protein.RotatedTorsions>
[ 6907 6896 6895 6894 ] final  143.28 input  -60.11 | X-H torsion
[ 7974 7965 7964 7962 ] final   91.51 input  175.53 | X-H torsion
[ 8008 7997 7996 7995 ] final -139.77 input   59.86 | X-H torsion
[ 10167 10162 10161 10158 ] final  138.29 input  -65.29 | X-H torsion
[ 10718 10713 10712 10709 ] final  -43.82 input   66.30 | X-H torsion
[ 10763 10752 10751 10750 ] final  -70.17 input  -60.55 | X-H torsion
[ 11005 11000 10999 10996 ] final  -18.05 input  -57.11 | X-H torsion

> <Gold.Protein.ActiveResidues>
 VAL166  LYS551  ARG553  GLY616  TRP617  ASP618  TYR619  PRO620  LYS621  CYS622 
 ASP623  PHE694  ASN695  SER759  ASP760  ASP761  ALA762  ILE779  LEU786  VAL792 
 PHE793  MET794  SER795  GLU796  ALA797  LYS798  CYS799  TRP800  GLU811  SER814 

> <Gold.Protein.RotatedAtoms>
  152.2082  133.4891  159.5095 H   0  0  0  0  0  0  0  0  0  0  0  0  # atno 6907 bound_to 6896
  150.6984  134.1502  159.4146 H   0  0  0  0  0  0  0  0  0  0  0  0  # atno 6908 bound_to 6896
  151.9421  135.0208  160.0587 H   0  0  0  0  0  0  0  0  0  0  0  0  # atno 6909 bound_to 6896
  145.5047  139.2276  143.2758 H   0  0  0  0  0  0  0  0  0  0  0  0  # atno 7974 bound_to 7965
  155.4503  140.0538  157.3002 H   0  0  0  0  0  0  0  0  0  0  0  0  # atno 8008 bound_to 7997
  154.4780  140.2069  155.9787 H   0  0  0  0  0  0  0  0  0  0  0  0  # atno 8009 bound_to 7997
  156.1162  140.3196  155.8147 H   0  0  0  0  0  0  0  0  0  0  0  0  # atno 8010 bound_to 7997
  139.5115  144.6361  151.5692 H   0  0  0  0  0  0  0  0  0  0  0  0  # atno 10167 bound_to 10162
  156.2450  130.4183  149.8716 H   0  0  0  0  0  0  0  0  0  0  0  0  # atno 10718 bound_to 10713
  154.4138  135.6003  153.5968 H   0  0  0  0  0  0  0  0  0  0  0  0  # atno 10763 bound_to 10752
  152.9791  135.5936  154.4038 H   0  0  0  0  0  0  0  0  0  0  0  0  # atno 10764 bound_to 10752
  154.3854  135.2841  155.2165 H   0  0  0  0  0  0  0  0  0  0  0  0  # atno 10765 bound_to 10752
  140.8230  133.8054  155.9679 H   0  0  0  0  0  0  0  0  0  0  0  0  # atno 11005 bound_to 11000
  146.2204  140.5850  142.9019 LP  0  0  0  0  0  0  0  0  0  0  0  0  # atno 17320 bound_to 7965
  144.7760  140.5741  143.6637 LP  0  0  0  0  0  0  0  0  0  0  0  0  # atno 17321 bound_to 7965
  140.6111  143.9434  150.6454 LP  0  0  0  0  0  0  0  0  0  0  0  0  # atno 17342 bound_to 10162
  140.2677  143.3478  152.1266 LP  0  0  0  0  0  0  0  0  0  0  0  0  # atno 17343 bound_to 10162
  156.6285  130.8656  151.3490 LP  0  0  0  0  0  0  0  0  0  0  0  0  # atno 17370 bound_to 10713
  157.7191  130.9535  150.1368 LP  0  0  0  0  0  0  0  0  0  0  0  0  # atno 17371 bound_to 10713
  140.9079  134.2297  157.5003 LP  0  0  0  0  0  0  0  0  0  0  0  0  # atno 17394 bound_to 11000
  139.8707  134.9737  156.4818 LP  0  0  0  0  0  0  0  0  0  0  0  0  # atno 17395 bound_to 11000

$$$$
