AV-unprocessed.smi:676|AV-procd|sdf|3310|dock5
  -GOLD-   22720 0273D 1   1.00000     0.00000
 Structure written by MMmdl.
 42 43  0  0  0  0  0  0  0  0  1 V2000
  145.8825  137.2156  162.3984 C   0  0  0  0  0  0  0  0  0  0  0  0
  147.0100  137.2072  161.5324 O   0  0  0  0  0  0  0  0  0  0  0  0
  147.4038  135.9342  161.0174 C   0  0  2  0  0  0  0  0  0  0  0  0
  147.5401  134.9215  162.1653 C   0  0  0  0  0  0  0  0  0  0  0  0
  148.5653  136.0469  160.0127 C   0  0  0  0  0  0  0  0  0  0  0  0
  147.7955  135.0529  159.1462 C   0  0  2  0  0  0  0  0  0  0  0  0
  147.9206  135.3320  157.7199 N   0  0  0  0  0  0  0  0  0  0  0  0
  149.0217  135.0853  156.9961 C   0  0  0  0  0  0  0  0  0  0  0  0
  150.0467  134.5996  157.4773 O   0  0  0  0  0  0  0  0  0  0  0  0
  148.9299  135.4222  155.5010 C   0  0  0  0  0  0  0  0  0  0  0  0
  149.6457  136.6554  155.1338 N   0  0  0  0  0  0  0  0  0  0  0  0
  148.8879  137.6796  154.5313 C   0  0  0  0  0  0  0  0  0  0  0  0
  149.4415  138.8413  154.1490 C   0  0  0  0  0  0  0  0  0  0  0  0
  150.8557  139.0291  154.3712 C   0  0  0  0  0  0  0  0  0  0  0  0
  151.5905  138.0544  154.9432 C   0  0  0  0  0  0  0  0  0  0  0  0
  150.9902  136.7811  155.3586 C   0  0  0  0  0  0  0  0  0  0  0  0
  151.6552  135.8834  155.8763 O   0  0  0  0  0  0  0  0  0  0  0  0
  146.4907  135.5768  159.7995 C   0  0  0  0  0  0  0  0  0  0  0  0
  145.3976  134.5305  160.0391 C   0  0  0  0  0  0  0  0  0  0  0  0
  145.7923  136.7627  159.1034 C   0  0  0  0  0  0  0  0  0  0  0  0
  145.7531  138.2190  162.8037 H   0  0  0  0  0  0  0  0  0  0  0  0
  146.0076  136.5343  163.2400 H   0  0  0  0  0  0  0  0  0  0  0  0
  144.9635  136.9593  161.8718 H   0  0  0  0  0  0  0  0  0  0  0  0
  147.7132  133.9108  161.7965 H   0  0  0  0  0  0  0  0  0  0  0  0
  146.6400  134.8953  162.7797 H   0  0  0  0  0  0  0  0  0  0  0  0
  148.3804  135.1566  162.8179 H   0  0  0  0  0  0  0  0  0  0  0  0
  148.6633  137.0373  159.5638 H   0  0  0  0  0  0  0  0  0  0  0  0
  149.5240  135.6784  160.3790 H   0  0  0  0  0  0  0  0  0  0  0  0
  148.0245  134.0194  159.4158 H   0  0  0  0  0  0  0  0  0  0  0  0
  147.1169  135.7277  157.2542 H   0  0  0  0  0  0  0  0  0  0  0  0
  149.3231  134.5748  154.9374 H   0  0  0  0  0  0  0  0  0  0  0  0
  147.8793  135.4930  155.2135 H   0  0  0  0  0  0  0  0  0  0  0  0
  147.8397  137.4564  154.3938 H   0  0  0  0  0  0  0  0  0  0  0  0
  148.8459  139.6129  153.6837 H   0  0  0  0  0  0  0  0  0  0  0  0
  151.3273  139.9550  154.0763 H   0  0  0  0  0  0  0  0  0  0  0  0
  152.6475  138.2123  155.1006 H   0  0  0  0  0  0  0  0  0  0  0  0
  144.8653  134.2887  159.1185 H   0  0  0  0  0  0  0  0  0  0  0  0
  144.6617  134.8824  160.7624 H   0  0  0  0  0  0  0  0  0  0  0  0
  145.8050  133.5933  160.4178 H   0  0  0  0  0  0  0  0  0  0  0  0
  145.3357  136.4641  158.1593 H   0  0  0  0  0  0  0  0  0  0  0  0
  146.4821  137.5768  158.8800 H   0  0  0  0  0  0  0  0  0  0  0  0
  144.9995  137.1789  159.7259 H   0  0  0  0  0  0  0  0  0  0  0  0
  1  2  1  0  0  0  0
  1 21  1  0  0  0  0
  1 22  1  0  0  0  0
  1 23  1  0  0  0  0
  2  3  1  0  0  0  0
  3 18  1  0  0  0  0
  3  4  1  0  0  0  0
  3  5  1  0  0  0  0
  4 24  1  0  0  0  0
  4 25  1  0  0  0  0
  4 26  1  0  0  0  0
  5  6  1  0  0  0  0
  5 27  1  0  0  0  0
  5 28  1  0  0  0  0
  6  7  1  0  0  0  0
  6 18  1  0  0  0  0
  6 29  1  0  0  0  0
  7  8  1  0  0  0  0
  7 30  1  0  0  0  0
  8  9  2  0  0  0  0
  8 10  1  0  0  0  0
 10 11  1  0  0  0  0
 10 31  1  0  0  0  0
 10 32  1  0  0  0  0
 11 16  1  0  0  0  0
 11 12  1  0  0  0  0
 12 13  2  0  0  0  0
 12 33  1  0  0  0  0
 13 14  1  0  0  0  0
 13 34  1  0  0  0  0
 14 15  2  0  0  0  0
 14 35  1  0  0  0  0
 15 16  1  0  0  0  0
 15 36  1  0  0  0  0
 16 17  2  0  0  0  0
 18 19  1  0  0  0  0
 18 20  1  0  0  0  0
 19 37  1  0  0  0  0
 19 38  1  0  0  0  0
 19 39  1  0  0  0  0
 20 40  1  0  0  0  0
 20 41  1  0  0  0  0
 20 42  1  0  0  0  0
M  END
> <s_m_source_file>
AV-unprocessed.smi

> <i_m_source_file_index>
676

> <i_lp_mmshare_version>
43012

> <i_f3d_flags>
0

> <s_epik_input>
W0NIM11PW0NAQF0xKFtDSDNdKVtDSDJdW0NASF0oQzEoW0NIM10pW0NIM10pW05IXUMoPU8pW0NIMl1uMltjSF1bY0hdW2NIXVtjSF1jMj1P

> <s_epik_cmdline>
J2VwaWtfcHl0aG9uJywgJy1waCcsICc3LjAnLCAnLXRuJywgJzgnLCAnLW1hJywgJzIwMCcsICctbWV0YWxfYmluZGluZycsICctaW1hZScsICc8aW5maWxlLm1hZT4nLCAnLW9tYWUnLCAnPG91dGZpbGUubWFlPic=

> <r_lp_tautomer_probability>
1

> <r_epik_Ionization_Penalty>
4.09771e-07

> <r_epik_Ionization_Penalty_Charging>
3.90712e-07

> <r_epik_Ionization_Penalty_Neutral>
1.90591e-08

> <r_epik_State_Penalty>
-0

> <r_epik_Charging_Adjusted_Penalty>
3.90712e-07

> <i_epik_Tot_Q>
0

> <i_epik_Tot_abs_Q>
0

> <r_epik_Metal_State_Penalty>
-0

> <b_epik_Metal_Only>
0

> <s_lp_Force_Field>
OPLS_2005

> <r_lp_Energy>
31.4384

> <b_lp_Chiralities_Consistent>
1

> <s_lp_Variant>
AV-unprocessed.smi:676-4

> <Gold.Version>
5.8.1

> <Gold.Id.Protein>
6NUR|6NUR_protein|mol2

> <Gold.PLP.Fitness>
39.5107

> <Gold.PLP.PLP>
-29.7641

> <Gold.PLP.part.hbond>
-4.0000

> <Gold.PLP.part.metal>
0.0000

> <Gold.PLP.part.buried>
-1.7639

> <Gold.PLP.part.nonpolar>
-23.6093

> <Gold.PLP.part.repulsive>
0.0491

> <Gold.PLP.ligand.clash>
0.0000

> <Gold.PLP.ligand.torsion>
0.4513

> <Gold.PLP.Chemscore.Hbond>
3.4254

> <Gold.PLP.Chemscore.CHOScore>
0.0000

> <Gold.PLP.Chemscore.Metal>
0.0000

> <Gold.Chemscore.Hbonds>
donor molecule, donor type, donor heavy atom, donor atom, acceptor molecule, acceptor atom, score
      P1  H  6896  6907       L1     9  0.80
      P1  H  6931  6943       L1     2  0.26
      P1  H  6934  6947       L1     2  1.00
      P1  H 10752 10764       L1    17  1.00

> <Gold.PLP.Chemscore.Internal.Correction>
0.3729

> <Gold.Rescore>
     Score         DG    S(hbond)    S(metal)    S(lipo)     H(rot)  DE(clash)    DE(int)     intcor
     16.79     -17.63       2.72        0.00      61.61       1.62       0.03       0.82       ----

> <Gold.Chemscore.Fitness>
16.7882

> <Gold.Chemscore.DG>
-17.6341

> <Gold.Chemscore.ZeroCoef>
-5.4800

> <Gold.Chemscore.Hbond>
2.7205

> <Gold.Chemscore.Metal>
0.0000

> <Gold.Chemscore.Lipo>
61.6108

> <Gold.Chemscore.Internal_Hbond>
0.0000

> <Gold.Chemscore.DEClash>
0.0262

> <Gold.Chemscore.DEInternal>
0.8197

> <Gold.Chemscore.Rot>
1.6175

> <Gold.Chemscore.Internal.Correction>
   9.000000E+99

> <Gold.Chemscore.Hbonds>
donor molecule, donor type, donor heavy atom, donor atom, acceptor molecule, acceptor atom, score
      P1  H  6896  6907       L1     9  0.74
      P1  H  6931  6943       L1     2  0.10
      P1  H  6934  6947       L1     2  0.43
      P1  H 10752 10764       L1    17  0.55

> <Gold.Chemscore.Hbond.Weighted>
-9.0863

> <Gold.Chemscore.Metal.Weighted>
-0.0000

> <Gold.Chemscore.Lipo.Weighted>
-7.2085

> <Gold.Chemscore.Internal_Hbond.Weighted>
0.0000

> <Gold.Chemscore.DEClash.Weighted>
0.0262

> <Gold.Chemscore.DEInternal.Weighted>
0.8197

> <Gold.Chemscore.Rot.Weighted>
4.1408

> <Gold.Chemscore.Internal.Correction.Weighted>
   9.000000E+99

> <Gold.Protein.RotatedTorsions>
[ 6907 6896 6895 6894 ] final  -92.35 input  -60.11 | X-H torsion
[ 7974 7965 7964 7962 ] final    1.24 input  175.53 | X-H torsion
[ 8008 7997 7996 7995 ] final  143.41 input   59.86 | X-H torsion
[ 10167 10162 10161 10158 ] final  -32.66 input  -65.29 | X-H torsion
[ 10718 10713 10712 10709 ] final -147.91 input   66.30 | X-H torsion
[ 10763 10752 10751 10750 ] final  -52.39 input  -60.55 | X-H torsion
[ 11005 11000 10999 10996 ] final  -19.75 input  -57.11 | X-H torsion

> <Gold.Protein.ActiveResidues>
 VAL166  LYS551  ARG553  GLY616  TRP617  ASP618  TYR619  PRO620  LYS621  CYS622 
 ASP623  PHE694  ASN695  SER759  ASP760  ASP761  ALA762  ILE779  LEU786  VAL792 
 PHE793  MET794  SER795  GLU796  ALA797  LYS798  CYS799  TRP800  GLU811  SER814 

> <Gold.Protein.RotatedAtoms>
  150.6905  134.2136  159.4368 H   0  0  0  0  0  0  0  0  0  0  0  0  # atno 6907 bound_to 6896
  152.0096  134.9881  160.0577 H   0  0  0  0  0  0  0  0  0  0  0  0  # atno 6908 bound_to 6896
  152.1501  133.4482  159.4846 H   0  0  0  0  0  0  0  0  0  0  0  0  # atno 6909 bound_to 6896
  146.2439  140.1017  142.8347 H   0  0  0  0  0  0  0  0  0  0  0  0  # atno 7974 bound_to 7965
  156.2930  140.2263  156.4886 H   0  0  0  0  0  0  0  0  0  0  0  0  # atno 8008 bound_to 7997
  154.7790  140.0461  157.1133 H   0  0  0  0  0  0  0  0  0  0  0  0  # atno 8009 bound_to 7997
  154.9781  140.3075  155.4961 H   0  0  0  0  0  0  0  0  0  0  0  0  # atno 8010 bound_to 7997
  140.7217  143.3678  151.1837 H   0  0  0  0  0  0  0  0  0  0  0  0  # atno 10167 bound_to 10162
  156.4135  130.7993  151.2212 H   0  0  0  0  0  0  0  0  0  0  0  0  # atno 10718 bound_to 10713
  154.1419  135.6504  153.4944 H   0  0  0  0  0  0  0  0  0  0  0  0  # atno 10763 bound_to 10752
  153.0163  135.5317  154.6896 H   0  0  0  0  0  0  0  0  0  0  0  0  # atno 10764 bound_to 10752
  154.6160  135.2959  155.0350 H   0  0  0  0  0  0  0  0  0  0  0  0  # atno 10765 bound_to 10752
  140.8397  133.7935  155.9848 H   0  0  0  0  0  0  0  0  0  0  0  0  # atno 11005 bound_to 11000
  145.0562  140.9054  143.4966 LP  0  0  0  0  0  0  0  0  0  0  0  0  # atno 17320 bound_to 7965
  145.1124  139.2748  143.5630 LP  0  0  0  0  0  0  0  0  0  0  0  0  # atno 17321 bound_to 7965
  139.7243  143.9173  152.2997 LP  0  0  0  0  0  0  0  0  0  0  0  0  # atno 17342 bound_to 10162
  139.8941  144.6949  150.8738 LP  0  0  0  0  0  0  0  0  0  0  0  0  # atno 17343 bound_to 10162
  157.7507  131.0250  150.3901 LP  0  0  0  0  0  0  0  0  0  0  0  0  # atno 17370 bound_to 10713
  156.4204  130.3952  149.6829 LP  0  0  0  0  0  0  0  0  0  0  0  0  # atno 17371 bound_to 10713
  140.8908  134.2497  157.5095 LP  0  0  0  0  0  0  0  0  0  0  0  0  # atno 17394 bound_to 11000
  139.8703  134.9660  156.4549 LP  0  0  0  0  0  0  0  0  0  0  0  0  # atno 17395 bound_to 11000

$$$$
