AV-unprocessed.smi:275|AV-procd|sdf|2065|dock4
  -GOLD-   2262021313D 1   1.00000     0.00000
 Structure written by MMmdl.
 65 69  0  0  0  0  0  0  0  0  1 V2000
  148.4873  130.4884  159.7251 C   0  0  0  0  0  0  0  0  0  0  0  0
  147.8600  131.5620  160.6299 C   0  0  0  0  0  0  0  0  0  0  0  0
  146.4742  131.0576  161.0766 C   0  0  0  0  0  0  0  0  0  0  0  0
  147.7719  132.9609  159.9645 C   0  0  1  0  0  0  0  0  0  0  0  0
  146.8848  132.8386  158.8036 N   0  0  0  0  0  0  0  0  0  0  0  0
  147.3396  133.4232  157.5759 C   0  0  0  0  0  0  0  0  0  0  0  0
  148.6222  133.8707  157.4906 N   0  0  0  0  0  0  0  0  0  0  0  0
  149.1015  134.4114  156.3679 C   0  0  0  0  0  0  0  0  0  0  0  0
  148.4749  134.6155  155.2107 N   0  0  0  0  0  0  0  0  0  0  0  0
  147.1770  134.2093  155.2838 C   0  0  0  0  0  0  0  0  0  0  0  0
  146.5348  133.6231  156.4134 C   0  0  0  0  0  0  0  0  0  0  0  0
  145.2043  133.3633  156.1030 N   0  0  0  0  0  0  0  0  0  0  0  0
  145.0738  133.7495  154.8646 C   0  0  0  0  0  0  0  0  0  0  0  0
  146.2178  134.2472  154.2874 N   0  0  0  0  0  0  0  0  0  0  0  0
  146.3606  134.7296  152.9266 C   0  0  0  0  0  0  0  0  0  0  0  0
  145.1204  134.4788  152.0246 C   0  0  1  0  0  0  0  0  0  0  0  0
  144.6022  135.8375  151.4935 C   0  0  0  0  0  0  0  0  0  0  0  0
  145.5395  136.4376  150.6230 O   0  0  0  0  0  0  0  0  0  0  0  0
  145.4029  133.4735  150.8657 C   0  0  2  0  0  0  0  0  0  0  0  0
  144.2124  133.1626  149.9688 C   0  0  0  0  0  0  0  0  0  0  0  0
  144.6289  131.8547  149.3148 C   0  0  0  0  0  0  0  0  0  0  0  0
  145.2380  131.1343  150.3715 O   0  0  0  0  0  0  0  0  0  0  0  0
  145.8138  132.0514  151.2968 C   0  0  0  0  0  0  0  0  0  0  0  0
  145.7983  133.5189  159.4990 C   0  0  0  0  0  0  0  0  0  0  0  0
  146.8437  134.1192  160.4503 C   0  0  0  0  0  0  0  0  0  0  0  0
  147.2835  135.5555  160.0724 C   0  0  0  0  0  0  0  0  0  0  0  0
  148.3796  136.1293  160.9808 C   0  0  0  0  0  0  0  0  0  0  0  0
  147.9068  136.1668  162.4355 C   0  0  0  0  0  0  0  0  0  0  0  0
  147.4605  134.7735  162.8830 C   0  0  0  0  0  0  0  0  0  0  0  0
  146.4048  134.1776  161.9278 C   0  0  0  0  0  0  0  0  0  0  0  0
  148.0610  130.5135  158.7218 H   0  0  0  0  0  0  0  0  0  0  0  0
  148.3204  129.4883  160.1266 H   0  0  0  0  0  0  0  0  0  0  0  0
  149.5659  130.5974  159.6478 H   0  0  0  0  0  0  0  0  0  0  0  0
  148.4815  131.6230  161.5248 H   0  0  0  0  0  0  0  0  0  0  0  0
  145.8112  130.9153  160.2230 H   0  0  0  0  0  0  0  0  0  0  0  0
  145.9897  131.7515  161.7637 H   0  0  0  0  0  0  0  0  0  0  0  0
  146.5510  130.1013  161.5948 H   0  0  0  0  0  0  0  0  0  0  0  0
  148.7559  133.3600  159.7226 H   0  0  0  0  0  0  0  0  0  0  0  0
  150.1359  134.7200  156.4014 H   0  0  0  0  0  0  0  0  0  0  0  0
  144.1389  133.6674  154.3297 H   0  0  0  0  0  0  0  0  0  0  0  0
  146.5795  135.7955  152.9920 H   0  0  0  0  0  0  0  0  0  0  0  0
  147.2424  134.2679  152.4815 H   0  0  0  0  0  0  0  0  0  0  0  0
  144.3262  134.0543  152.6410 H   0  0  0  0  0  0  0  0  0  0  0  0
  143.6514  135.7148  150.9736 H   0  0  0  0  0  0  0  0  0  0  0  0
  144.4366  136.5484  152.3015 H   0  0  0  0  0  0  0  0  0  0  0  0
  145.1780  137.2512  150.3056 H   0  0  0  0  0  0  0  0  0  0  0  0
  146.1918  133.8804  150.2307 H   0  0  0  0  0  0  0  0  0  0  0  0
  143.3110  133.0091  150.5639 H   0  0  0  0  0  0  0  0  0  0  0  0
  144.0127  133.9433  149.2343 H   0  0  0  0  0  0  0  0  0  0  0  0
  143.7892  131.3079  148.8858 H   0  0  0  0  0  0  0  0  0  0  0  0
  145.3641  132.0323  148.5286 H   0  0  0  0  0  0  0  0  0  0  0  0
  146.8960  131.9281  151.3039 H   0  0  0  0  0  0  0  0  0  0  0  0
  145.4390  131.8051  152.2905 H   0  0  0  0  0  0  0  0  0  0  0  0
  145.2244  134.2564  158.9381 H   0  0  0  0  0  0  0  0  0  0  0  0
  145.1380  132.8018  159.9888 H   0  0  0  0  0  0  0  0  0  0  0  0
  147.6460  135.5991  159.0464 H   0  0  0  0  0  0  0  0  0  0  0  0
  146.4207  136.2226  160.0961 H   0  0  0  0  0  0  0  0  0  0  0  0
  149.2830  135.5241  160.8973 H   0  0  0  0  0  0  0  0  0  0  0  0
  148.6476  137.1337  160.6518 H   0  0  0  0  0  0  0  0  0  0  0  0
  148.7043  136.5331  163.0827 H   0  0  0  0  0  0  0  0  0  0  0  0
  147.0773  136.8680  162.5344 H   0  0  0  0  0  0  0  0  0  0  0  0
  148.3410  134.1369  162.9305 H   0  0  0  0  0  0  0  0  0  0  0  0
  147.0601  134.8195  163.8961 H   0  0  0  0  0  0  0  0  0  0  0  0
  145.4987  134.7798  162.0067 H   0  0  0  0  0  0  0  0  0  0  0  0
  146.1077  133.1899  162.2782 H   0  0  0  0  0  0  0  0  0  0  0  0
  1  2  1  0  0  0  0
  1 31  1  0  0  0  0
  1 32  1  0  0  0  0
  1 33  1  0  0  0  0
  2  3  1  0  0  0  0
  2  4  1  0  0  0  0
  2 34  1  0  0  0  0
  3 35  1  0  0  0  0
  3 36  1  0  0  0  0
  3 37  1  0  0  0  0
  4 25  1  0  0  0  0
  4  5  1  0  0  0  0
  4 38  1  0  0  0  0
  5  6  1  0  0  0  0
  5 24  1  0  0  0  0
  6 11  1  0  0  0  0
  6  7  2  0  0  0  0
  7  8  1  0  0  0  0
  8  9  2  0  0  0  0
  8 39  1  0  0  0  0
  9 10  1  0  0  0  0
 10 14  1  0  0  0  0
 10 11  2  0  0  0  0
 11 12  1  0  0  0  0
 12 13  2  0  0  0  0
 13 14  1  0  0  0  0
 13 40  1  0  0  0  0
 14 15  1  0  0  0  0
 15 16  1  0  0  0  0
 15 41  1  0  0  0  0
 15 42  1  0  0  0  0
 16 17  1  0  0  0  0
 16 19  1  0  0  0  0
 16 43  1  0  0  0  0
 17 18  1  0  0  0  0
 17 44  1  0  0  0  0
 17 45  1  0  0  0  0
 18 46  1  0  0  0  0
 19 23  1  0  0  0  0
 19 20  1  0  0  0  0
 19 47  1  0  0  0  0
 20 21  1  0  0  0  0
 20 48  1  0  0  0  0
 20 49  1  0  0  0  0
 21 22  1  0  0  0  0
 21 50  1  0  0  0  0
 21 51  1  0  0  0  0
 22 23  1  0  0  0  0
 23 52  1  0  0  0  0
 23 53  1  0  0  0  0
 24 25  1  0  0  0  0
 24 54  1  0  0  0  0
 24 55  1  0  0  0  0
 25 30  1  0  0  0  0
 25 26  1  0  0  0  0
 26 27  1  0  0  0  0
 26 56  1  0  0  0  0
 26 57  1  0  0  0  0
 27 28  1  0  0  0  0
 27 58  1  0  0  0  0
 27 59  1  0  0  0  0
 28 29  1  0  0  0  0
 28 60  1  0  0  0  0
 28 61  1  0  0  0  0
 29 30  1  0  0  0  0
 29 62  1  0  0  0  0
 29 63  1  0  0  0  0
 30 64  1  0  0  0  0
 30 65  1  0  0  0  0
M  END
> <s_m_source_file>
AV-unprocessed.smi

> <i_m_source_file_index>
275

> <i_lp_mmshare_version>
43012

> <i_f3d_flags>
0

> <s_epik_input>
W0NIMl0xW0NIMl1bQ0gyXVtDSDJdW0NIMl1DMTJbQ0BIXShbQ0hdKFtDSDNdKVtDSDNdKU4oW0NIMl0yKWMobltjSF1uMyljKGMzNCluW2NIXW40W0NIMl1bQ0BIXShbQ0gyXVtPSF0pW0NAQEhdNVtDSDJdW0NIMl1PW0NIMl01

> <s_epik_cmdline>
J2VwaWtfcHl0aG9uJywgJy1waCcsICc3LjAnLCAnLXRuJywgJzgnLCAnLW1hJywgJzIwMCcsICctbWV0YWxfYmluZGluZycsICctaW1hZScsICc8aW5maWxlLm1hZT4nLCAnLW9tYWUnLCAnPG91dGZpbGUubWFlPic=

> <r_lp_tautomer_probability>
1

> <r_epik_Ionization_Penalty>
0.00375122

> <r_epik_Ionization_Penalty_Charging>
0

> <r_epik_Ionization_Penalty_Neutral>
0.00375122

> <r_epik_State_Penalty>
0.00260593

> <r_epik_Charging_Adjusted_Penalty>
0.00260593

> <i_epik_Tot_Q>
0

> <i_epik_Tot_abs_Q>
0

> <r_epik_Metal_State_Penalty>
-0

> <b_epik_Metal_Only>
0

> <s_lp_Force_Field>
OPLS_2005

> <r_lp_Energy>
67.0366

> <b_lp_Chiralities_Consistent>
1

> <s_lp_Variant>
AV-unprocessed.smi:275-4

> <Gold.Version>
5.8.1

> <Gold.Id.Protein>
6NUR|6NUR_protein|mol2

> <Gold.PLP.Fitness>
42.4126

> <Gold.PLP.PLP>
-38.0963

> <Gold.PLP.part.hbond>
-1.0000

> <Gold.PLP.part.metal>
0.0000

> <Gold.PLP.part.buried>
-4.6091

> <Gold.PLP.part.nonpolar>
-33.7552

> <Gold.PLP.part.repulsive>
0.2857

> <Gold.PLP.ligand.clash>
0.0000

> <Gold.PLP.ligand.torsion>
1.1030

> <Gold.PLP.Chemscore.Hbond>
1.0000

> <Gold.PLP.Chemscore.CHOScore>
0.9957

> <Gold.PLP.Chemscore.Metal>
0.0000

> <Gold.Chemscore.Hbonds>
donor molecule, donor type, donor heavy atom, donor atom, acceptor molecule, acceptor atom, score
      L1  H    18    46       P1 10171  1.00
      L1  C    13    40       P1 10957  0.78

> <Gold.PLP.Chemscore.Internal.Correction>
0.5354

> <Gold.Rescore>
     Score         DG    S(hbond)    S(metal)    S(lipo)     H(rot)  DE(clash)    DE(int)     intcor
     13.48     -15.57       0.99        0.00     113.50       2.54       0.02       2.06       ----

> <Gold.Chemscore.Fitness>
13.4805

> <Gold.Chemscore.DG>
-15.5674

> <Gold.Chemscore.ZeroCoef>
-5.4800

> <Gold.Chemscore.Hbond>
0.9893

> <Gold.Chemscore.Metal>
0.0000

> <Gold.Chemscore.Lipo>
113.5009

> <Gold.Chemscore.Internal_Hbond>
0.0000

> <Gold.Chemscore.DEClash>
0.0234

> <Gold.Chemscore.DEInternal>
2.0635

> <Gold.Chemscore.Rot>
2.5377

> <Gold.Chemscore.Internal.Correction>
   9.000000E+99

> <Gold.Chemscore.Hbonds>
donor molecule, donor type, donor heavy atom, donor atom, acceptor molecule, acceptor atom, score
      L1  H    18    46       P1 10171  0.99

> <Gold.Chemscore.Hbond.Weighted>
-3.3044

> <Gold.Chemscore.Metal.Weighted>
-0.0000

> <Gold.Chemscore.Lipo.Weighted>
-13.2796

> <Gold.Chemscore.Internal_Hbond.Weighted>
0.0000

> <Gold.Chemscore.DEClash.Weighted>
0.0234

> <Gold.Chemscore.DEInternal.Weighted>
2.0635

> <Gold.Chemscore.Rot.Weighted>
6.4966

> <Gold.Chemscore.Internal.Correction.Weighted>
   9.000000E+99

> <Gold.Protein.RotatedTorsions>
[ 6907 6896 6895 6894 ] final   87.66 input  -60.11 | X-H torsion
[ 7974 7965 7964 7962 ] final  -71.77 input  175.53 | X-H torsion
[ 8008 7997 7996 7995 ] final -156.58 input   59.86 | X-H torsion
[ 10167 10162 10161 10158 ] final -107.30 input  -65.29 | X-H torsion
[ 10718 10713 10712 10709 ] final    8.90 input   66.30 | X-H torsion
[ 10763 10752 10751 10750 ] final  -68.56 input  -60.55 | X-H torsion
[ 11005 11000 10999 10996 ] final -103.85 input  -57.11 | X-H torsion

> <Gold.Protein.ActiveResidues>
 VAL166  LYS551  ARG553  GLY616  TRP617  ASP618  TYR619  PRO620  LYS621  CYS622 
 ASP623  PHE694  ASN695  SER759  ASP760  ASP761  ALA762  ILE779  LEU786  VAL792 
 PHE793  MET794  SER795  GLU796  ALA797  LYS798  CYS799  TRP800  GLU811  SER814 

> <Gold.Protein.RotatedAtoms>
  152.5414  134.2241  159.8798 H   0  0  0  0  0  0  0  0  0  0  0  0  # atno 6907 bound_to 6896
  151.2217  133.4492  159.2608 H   0  0  0  0  0  0  0  0  0  0  0  0  # atno 6908 bound_to 6896
  151.0799  134.9865  159.8407 H   0  0  0  0  0  0  0  0  0  0  0  0  # atno 6909 bound_to 6896
  145.6738  140.9212  143.0869 H   0  0  0  0  0  0  0  0  0  0  0  0  # atno 7974 bound_to 7965
  155.7194  140.0788  157.2337 H   0  0  0  0  0  0  0  0  0  0  0  0  # atno 8008 bound_to 7997
  154.4047  140.1615  156.2439 H   0  0  0  0  0  0  0  0  0  0  0  0  # atno 8009 bound_to 7997
  155.9210  140.3398  155.6176 H   0  0  0  0  0  0  0  0  0  0  0  0  # atno 8010 bound_to 7997
  140.1784  143.3986  152.1300 H   0  0  0  0  0  0  0  0  0  0  0  0  # atno 10167 bound_to 10162
  156.9584  130.5923  149.5660 H   0  0  0  0  0  0  0  0  0  0  0  0  # atno 10718 bound_to 10713
  154.3908  135.6053  153.5842 H   0  0  0  0  0  0  0  0  0  0  0  0  # atno 10763 bound_to 10752
  152.9787  135.5883  154.4300 H   0  0  0  0  0  0  0  0  0  0  0  0  # atno 10764 bound_to 10752
  154.4084  135.2844  155.2030 H   0  0  0  0  0  0  0  0  0  0  0  0  # atno 10765 bound_to 10752
  141.1127  133.8675  157.1538 H   0  0  0  0  0  0  0  0  0  0  0  0  # atno 11005 bound_to 11000
  144.7048  139.8607  143.7433 LP  0  0  0  0  0  0  0  0  0  0  0  0  # atno 17320 bound_to 7965
  146.1023  139.4019  143.0339 LP  0  0  0  0  0  0  0  0  0  0  0  0  # atno 17321 bound_to 7965
  139.5307  144.7155  151.5068 LP  0  0  0  0  0  0  0  0  0  0  0  0  # atno 17342 bound_to 10162
  140.6536  143.8646  150.6811 LP  0  0  0  0  0  0  0  0  0  0  0  0  # atno 17343 bound_to 10162
  156.0332  130.5422  150.8589 LP  0  0  0  0  0  0  0  0  0  0  0  0  # atno 17370 bound_to 10713
  157.5674  131.0946  150.9468 LP  0  0  0  0  0  0  0  0  0  0  0  0  # atno 17371 bound_to 10713
  140.0030  135.0020  157.0231 LP  0  0  0  0  0  0  0  0  0  0  0  0  # atno 17394 bound_to 11000
  140.4731  134.1366  155.7206 LP  0  0  0  0  0  0  0  0  0  0  0  0  # atno 17395 bound_to 11000

$$$$
