AV-unprocessed.smi:480|AV-procd|sdf|2677|dock2
  -GOLD-   2262023 93D 1   1.00000     0.00000
 Structure written by MMmdl.
 46 48  0  0  0  0  0  0  0  0  1 V2000
  151.4584  140.0951  155.8000 C   0  0  0  0  0  0  0  0  0  0  0  0
  152.0644  139.8476  157.1861 C   0  0  0  0  0  0  0  0  0  0  0  0
  152.0584  141.0758  158.0459 C   0  0  0  0  0  0  0  0  0  0  0  0
  151.5833  142.2387  157.5985 N   0  0  0  0  0  0  0  0  0  0  0  0
  151.7432  143.0730  158.6874 C   0  0  0  0  0  0  0  0  0  0  0  0
  151.4336  144.4425  158.8493 C   0  0  0  0  0  0  0  0  0  0  0  0
  151.6861  145.0912  160.0758 C   0  0  0  0  0  0  0  0  0  0  0  0
  152.2501  144.3815  161.1558 C   0  0  0  0  0  0  0  0  0  0  0  0
  152.5664  143.0166  161.0154 C   0  0  0  0  0  0  0  0  0  0  0  0
  152.3136  142.3743  159.7884 C   0  0  0  0  0  0  0  0  0  0  0  0
  152.5017  141.0745  159.3296 N   0  0  0  0  0  0  0  0  0  0  0  0
  153.0524  139.9708  160.1055 C   0  0  0  0  0  0  0  0  0  0  0  0
  154.5942  139.9262  160.0771 C   0  0  1  0  0  0  0  0  0  0  0  0
  155.0555  141.1338  160.6465 O   0  0  0  0  0  0  0  0  0  0  0  0
  155.2027  138.7549  160.8687 C   0  0  0  0  0  0  0  0  0  0  0  0
  154.4667  138.5901  162.0733 O   0  0  0  0  0  0  0  0  0  0  0  0
  154.5377  137.3753  162.7205 C   0  0  0  0  0  0  0  0  0  0  0  0
  153.9805  137.3067  164.0140 C   0  0  0  0  0  0  0  0  0  0  0  0
  154.0042  136.1052  164.7473 C   0  0  0  0  0  0  0  0  0  0  0  0
  154.5910  134.9513  164.1929 C   0  0  0  0  0  0  0  0  0  0  0  0
  154.6108  133.6570  164.9789 C   0  0  0  0  0  0  0  0  0  0  0  0
  153.8790  132.5838  164.2892 C   0  0  0  0  0  0  0  0  0  0  0  0
  153.3034  131.7396  163.7463 N   0  0  0  0  0  0  0  0  0  0  0  0
  155.1538  135.0080  162.9028 C   0  0  0  0  0  0  0  0  0  0  0  0
  155.1292  136.2103  162.1694 C   0  0  0  0  0  0  0  0  0  0  0  0
  151.4862  139.1880  155.1961 H   0  0  0  0  0  0  0  0  0  0  0  0
  152.0080  140.8695  155.2639 H   0  0  0  0  0  0  0  0  0  0  0  0
  150.4184  140.4136  155.8744 H   0  0  0  0  0  0  0  0  0  0  0  0
  151.5434  139.0347  157.6908 H   0  0  0  0  0  0  0  0  0  0  0  0
  153.0954  139.5108  157.0723 H   0  0  0  0  0  0  0  0  0  0  0  0
  151.0000  144.9948  158.0286 H   0  0  0  0  0  0  0  0  0  0  0  0
  151.4446  146.1379  160.1888 H   0  0  0  0  0  0  0  0  0  0  0  0
  152.4392  144.8852  162.0924 H   0  0  0  0  0  0  0  0  0  0  0  0
  152.9980  142.4699  161.8405 H   0  0  0  0  0  0  0  0  0  0  0  0
  152.7060  140.0842  161.1337 H   0  0  0  0  0  0  0  0  0  0  0  0
  152.6341  139.0276  159.7556 H   0  0  0  0  0  0  0  0  0  0  0  0
  154.9297  139.8787  159.0402 H   0  0  0  0  0  0  0  0  0  0  0  0
  155.9042  140.9763  161.0316 H   0  0  0  0  0  0  0  0  0  0  0  0
  155.2050  137.8437  160.2676 H   0  0  0  0  0  0  0  0  0  0  0  0
  156.2346  138.9810  161.1379 H   0  0  0  0  0  0  0  0  0  0  0  0
  153.5265  138.1855  164.4480 H   0  0  0  0  0  0  0  0  0  0  0  0
  153.5685  136.0702  165.7350 H   0  0  0  0  0  0  0  0  0  0  0  0
  155.6374  133.3269  165.1398 H   0  0  0  0  0  0  0  0  0  0  0  0
  154.1578  133.8098  165.9586 H   0  0  0  0  0  0  0  0  0  0  0  0
  155.6049  134.1272  162.4697 H   0  0  0  0  0  0  0  0  0  0  0  0
  155.5712  136.2119  161.1847 H   0  0  0  0  0  0  0  0  0  0  0  0
  1  2  1  0  0  0  0
  1 26  1  0  0  0  0
  1 27  1  0  0  0  0
  1 28  1  0  0  0  0
  2  3  1  0  0  0  0
  2 29  1  0  0  0  0
  2 30  1  0  0  0  0
  3 11  1  0  0  0  0
  3  4  2  0  0  0  0
  4  5  1  0  0  0  0
  5 10  2  0  0  0  0
  5  6  1  0  0  0  0
  6  7  2  0  0  0  0
  6 31  1  0  0  0  0
  7  8  1  0  0  0  0
  7 32  1  0  0  0  0
  8  9  2  0  0  0  0
  8 33  1  0  0  0  0
  9 10  1  0  0  0  0
  9 34  1  0  0  0  0
 10 11  1  0  0  0  0
 11 12  1  0  0  0  0
 12 13  1  0  0  0  0
 12 35  1  0  0  0  0
 12 36  1  0  0  0  0
 13 14  1  0  0  0  0
 13 15  1  0  0  0  0
 13 37  1  0  0  0  0
 14 38  1  0  0  0  0
 15 16  1  0  0  0  0
 15 39  1  0  0  0  0
 15 40  1  0  0  0  0
 16 17  1  0  0  0  0
 17 25  1  0  0  0  0
 17 18  2  0  0  0  0
 18 19  1  0  0  0  0
 18 41  1  0  0  0  0
 19 20  2  0  0  0  0
 19 42  1  0  0  0  0
 20 21  1  0  0  0  0
 20 24  1  0  0  0  0
 21 22  1  0  0  0  0
 21 43  1  0  0  0  0
 21 44  1  0  0  0  0
 22 23  3  0  0  0  0
 24 25  2  0  0  0  0
 24 45  1  0  0  0  0
 25 46  1  0  0  0  0
M  END
> <s_m_source_file>
AV-unprocessed.smi

> <i_m_source_file_index>
480

> <i_lp_mmshare_version>
43012

> <i_f3d_flags>
0

> <s_epik_input>
W2NIXTFbY0hdW2NIXVtjSF1jKGMxMiluKGMobjIpW0NIMl1bQ0gzXSlbQ0gyXVtDQEhdKFtPSF0pW0NIMl1PYzNbY0hdW2NIXWMoW0NIMl1DI04pW2NIXVtjSF0z

> <s_epik_cmdline>
J2VwaWtfcHl0aG9uJywgJy1waCcsICc3LjAnLCAnLXRuJywgJzgnLCAnLW1hJywgJzIwMCcsICctbWV0YWxfYmluZGluZycsICctaW1hZScsICc8aW5maWxlLm1hZT4nLCAnLW9tYWUnLCAnPG91dGZpbGUubWFlPic=

> <r_lp_tautomer_probability>
1

> <r_epik_Ionization_Penalty>
0.114213

> <r_epik_Ionization_Penalty_Charging>
0

> <r_epik_Ionization_Penalty_Neutral>
0.114213

> <r_epik_State_Penalty>
0.103875

> <r_epik_Charging_Adjusted_Penalty>
0.103875

> <i_epik_Tot_Q>
0

> <i_epik_Tot_abs_Q>
0

> <r_epik_Metal_State_Penalty>
0.000113526

> <b_epik_Metal_Only>
0

> <s_lp_Force_Field>
OPLS_2005

> <r_lp_Energy>
15.7981

> <b_lp_Chiralities_Consistent>
1

> <s_lp_Variant>
AV-unprocessed.smi:480-2

> <Gold.Version>
5.8.1

> <Gold.Id.Protein>
6NUR|6NUR_protein|mol2

> <Gold.PLP.Fitness>
53.0176

> <Gold.PLP.PLP>
-54.3289

> <Gold.PLP.part.hbond>
-1.0000

> <Gold.PLP.part.metal>
0.0000

> <Gold.PLP.part.buried>
-4.7364

> <Gold.PLP.part.nonpolar>
-48.8231

> <Gold.PLP.part.repulsive>
0.0490

> <Gold.PLP.ligand.clash>
0.0000

> <Gold.PLP.ligand.torsion>
0.7245

> <Gold.PLP.Chemscore.Hbond>
0.0000

> <Gold.PLP.Chemscore.CHOScore>
0.0000

> <Gold.PLP.Chemscore.Metal>
0.0000

> <Gold.PLP.Chemscore.Internal.Correction>
0.1377

> <Gold.Rescore>
     Score         DG    S(hbond)    S(metal)    S(lipo)     H(rot)  DE(clash)    DE(int)     intcor
     15.90     -17.09       0.00        0.00     155.57       2.58       0.45       0.74       ----

> <Gold.Chemscore.Fitness>
15.8994

> <Gold.Chemscore.DG>
-17.0874

> <Gold.Chemscore.ZeroCoef>
-5.4800

> <Gold.Chemscore.Hbond>
0.0000

> <Gold.Chemscore.Metal>
0.0000

> <Gold.Chemscore.Lipo>
155.5706

> <Gold.Chemscore.Internal_Hbond>
0.0000

> <Gold.Chemscore.DEClash>
0.4463

> <Gold.Chemscore.DEInternal>
0.7417

> <Gold.Chemscore.Rot>
2.5759

> <Gold.Chemscore.Internal.Correction>
   9.000000E+99

> <Gold.Chemscore.Hbond.Weighted>
-0.0000

> <Gold.Chemscore.Metal.Weighted>
-0.0000

> <Gold.Chemscore.Lipo.Weighted>
-18.2018

> <Gold.Chemscore.Internal_Hbond.Weighted>
0.0000

> <Gold.Chemscore.DEClash.Weighted>
0.4463

> <Gold.Chemscore.DEInternal.Weighted>
0.7417

> <Gold.Chemscore.Rot.Weighted>
6.5943

> <Gold.Chemscore.Internal.Correction.Weighted>
   9.000000E+99

> <Gold.Protein.RotatedTorsions>
[ 6907 6896 6895 6894 ] final  152.75 input  -60.11 | X-H torsion
[ 7974 7965 7964 7962 ] final   26.87 input  175.53 | X-H torsion
[ 8008 7997 7996 7995 ] final   38.44 input   59.86 | X-H torsion
[ 10167 10162 10161 10158 ] final -113.84 input  -65.29 | X-H torsion
[ 10718 10713 10712 10709 ] final -135.94 input   66.30 | X-H torsion
[ 10763 10752 10751 10750 ] final  -55.08 input  -60.55 | X-H torsion
[ 11005 11000 10999 10996 ] final   95.80 input  -57.11 | X-H torsion

> <Gold.Protein.ActiveResidues>
 VAL166  LYS551  ARG553  GLY616  TRP617  ASP618  TYR619  PRO620  LYS621  CYS622 
 ASP623  PHE694  ASN695  SER759  ASP760  ASP761  ALA762  ILE779  LEU786  VAL792 
 PHE793  MET794  SER795  GLU796  ALA797  LYS798  CYS799  TRP800  GLU811  SER814 

> <Gold.Protein.RotatedAtoms>
  152.0824  133.4159  159.4506 H   0  0  0  0  0  0  0  0  0  0  0  0  # atno 6907 bound_to 6896
  150.6862  134.2967  159.4698 H   0  0  0  0  0  0  0  0  0  0  0  0  # atno 6908 bound_to 6896
  152.0810  134.9471  160.0624 H   0  0  0  0  0  0  0  0  0  0  0  0  # atno 6909 bound_to 6896
  146.1815  139.7269  142.8897 H   0  0  0  0  0  0  0  0  0  0  0  0  # atno 7974 bound_to 7965
  155.2203  140.3330  155.4316 H   0  0  0  0  0  0  0  0  0  0  0  0  # atno 8008 bound_to 7997
  156.2336  140.1862  156.7226 H   0  0  0  0  0  0  0  0  0  0  0  0  # atno 8009 bound_to 7997
  154.6020  140.0622  156.9366 H   0  0  0  0  0  0  0  0  0  0  0  0  # atno 8010 bound_to 7997
  140.1074  143.4558  152.1774 H   0  0  0  0  0  0  0  0  0  0  0  0  # atno 10167 bound_to 10162
  156.2717  130.7269  151.1238 H   0  0  0  0  0  0  0  0  0  0  0  0  # atno 10718 bound_to 10713
  154.1851  135.6437  153.5044 H   0  0  0  0  0  0  0  0  0  0  0  0  # atno 10763 bound_to 10752
  153.0049  135.5415  154.6474 H   0  0  0  0  0  0  0  0  0  0  0  0  # atno 10764 bound_to 10752
  154.5848  135.2928  155.0669 H   0  0  0  0  0  0  0  0  0  0  0  0  # atno 10765 bound_to 10752
  139.8786  134.8918  156.4065 H   0  0  0  0  0  0  0  0  0  0  0  0  # atno 11005 bound_to 11000
  145.4063  141.0391  143.3042 LP  0  0  0  0  0  0  0  0  0  0  0  0  # atno 17320 bound_to 7965
  144.8322  139.5609  143.6938 LP  0  0  0  0  0  0  0  0  0  0  0  0  # atno 17321 bound_to 7965
  139.5637  144.7422  151.4081 LP  0  0  0  0  0  0  0  0  0  0  0  0  # atno 17342 bound_to 10162
  140.6944  143.7784  150.7304 LP  0  0  0  0  0  0  0  0  0  0  0  0  # atno 17343 bound_to 10162
  157.7286  131.0631  150.5813 LP  0  0  0  0  0  0  0  0  0  0  0  0  # atno 17370 bound_to 10713
  156.5910  130.4329  149.5936 LP  0  0  0  0  0  0  0  0  0  0  0  0  # atno 17371 bound_to 10713
  140.9230  133.7631  155.9930 LP  0  0  0  0  0  0  0  0  0  0  0  0  # atno 17394 bound_to 11000
  140.8417  134.3058  157.5310 LP  0  0  0  0  0  0  0  0  0  0  0  0  # atno 17395 bound_to 11000

$$$$
