AV-unprocessed.smi:1174|AV-procd|sdf|4949|dock7
  -GOLD-   22720 3533D 1   1.00000     0.00000
 Structure written by MMmdl.
 41 42  0  0  0  0  0  0  0  0  1 V2000
  149.4202  133.9748  154.0532 C   0  0  0  0  0  0  0  0  0  0  0  0
  149.1464  132.5839  153.4653 C   0  0  1  0  0  0  0  0  0  0  0  0
  148.4876  131.6575  154.5108 C   0  0  0  0  0  0  0  0  0  0  0  0
  148.4404  130.2691  154.0889 N   0  0  0  0  0  0  0  0  0  0  0  0
  147.3357  129.4673  153.8935 C   0  0  0  0  0  0  0  0  0  0  0  0
  147.7893  128.2409  153.5004 C   0  0  0  0  0  0  0  0  0  0  0  0
  149.2037  128.3921  153.4842 C   0  0  0  0  0  0  0  0  0  0  0  0
  149.5908  129.6050  153.8435 N   0  0  0  0  0  0  0  0  0  0  0  0
  148.2995  132.7356  152.2828 N   0  0  0  0  0  0  0  0  0  0  0  0
  147.1654  133.4509  152.2092 C   0  0  0  0  0  0  0  0  0  0  0  0
  146.7260  134.1110  153.1509 O   0  0  0  0  0  0  0  0  0  0  0  0
  146.4160  133.3980  150.8642 C   0  0  1  0  0  0  0  0  0  0  0  0
  145.8451  131.9896  150.5640 C   0  0  0  0  0  0  0  0  0  0  0  0
  144.5305  131.6880  151.3124 C   0  0  0  0  0  0  0  0  0  0  0  0
  143.5254  132.8396  151.1474 C   0  0  0  0  0  0  0  0  0  0  0  0
  144.1440  134.0976  151.5994 N   0  0  0  0  0  0  0  0  0  0  0  0
  143.6909  134.8958  152.5976 C   0  0  0  0  0  0  0  0  0  0  0  0
  142.8616  134.3061  153.4644 N   0  0  0  0  0  0  0  0  0  0  0  0
  144.0473  136.0619  152.7569 O   0  0  0  0  0  0  0  0  0  0  0  0
  145.2985  134.4661  150.7656 C   0  0  0  0  0  0  0  0  0  0  0  0
  150.0842  133.9120  154.9157 H   0  0  0  0  0  0  0  0  0  0  0  0
  148.4982  134.4585  154.3777 H   0  0  0  0  0  0  0  0  0  0  0  0
  149.8982  134.6248  153.3194 H   0  0  0  0  0  0  0  0  0  0  0  0
  150.1115  132.1653  153.1736 H   0  0  0  0  0  0  0  0  0  0  0  0
  149.0438  131.6981  155.4485 H   0  0  0  0  0  0  0  0  0  0  0  0
  147.4746  131.9923  154.7389 H   0  0  0  0  0  0  0  0  0  0  0  0
  146.3302  129.8329  154.0421 H   0  0  0  0  0  0  0  0  0  0  0  0
  147.1991  127.3703  153.2558 H   0  0  0  0  0  0  0  0  0  0  0  0
  149.9553  127.6609  153.2263 H   0  0  0  0  0  0  0  0  0  0  0  0
  148.5859  132.2298  151.4573 H   0  0  0  0  0  0  0  0  0  0  0  0
  147.1481  133.6198  150.0857 H   0  0  0  0  0  0  0  0  0  0  0  0
  145.6579  131.9157  149.4921 H   0  0  0  0  0  0  0  0  0  0  0  0
  146.5842  131.2191  150.7884 H   0  0  0  0  0  0  0  0  0  0  0  0
  144.0980  130.7605  150.9360 H   0  0  0  0  0  0  0  0  0  0  0  0
  144.7261  131.5214  152.3719 H   0  0  0  0  0  0  0  0  0  0  0  0
  143.2505  132.9409  150.0966 H   0  0  0  0  0  0  0  0  0  0  0  0
  142.5980  132.5937  151.6643 H   0  0  0  0  0  0  0  0  0  0  0  0
  142.4710  134.8382  154.2279 H   0  0  0  0  0  0  0  0  0  0  0  0
  142.6196  133.3337  153.3424 H   0  0  0  0  0  0  0  0  0  0  0  0
  145.7079  135.4441  151.0245 H   0  0  0  0  0  0  0  0  0  0  0  0
  144.9675  134.5574  149.7303 H   0  0  0  0  0  0  0  0  0  0  0  0
  1  2  1  0  0  0  0
  1 21  1  0  0  0  0
  1 22  1  0  0  0  0
  1 23  1  0  0  0  0
  2  3  1  0  0  0  0
  2  9  1  0  0  0  0
  2 24  1  0  0  0  0
  3  4  1  0  0  0  0
  3 25  1  0  0  0  0
  3 26  1  0  0  0  0
  4  8  1  0  0  0  0
  4  5  1  0  0  0  0
  5  6  2  0  0  0  0
  5 27  1  0  0  0  0
  6  7  1  0  0  0  0
  6 28  1  0  0  0  0
  7  8  2  0  0  0  0
  7 29  1  0  0  0  0
  9 10  1  0  0  0  0
  9 30  1  0  0  0  0
 10 11  2  0  0  0  0
 10 12  1  0  0  0  0
 12 20  1  0  0  0  0
 12 13  1  0  0  0  0
 12 31  1  0  0  0  0
 13 14  1  0  0  0  0
 13 32  1  0  0  0  0
 13 33  1  0  0  0  0
 14 15  1  0  0  0  0
 14 34  1  0  0  0  0
 14 35  1  0  0  0  0
 15 16  1  0  0  0  0
 15 36  1  0  0  0  0
 15 37  1  0  0  0  0
 16 17  1  0  0  0  0
 16 20  1  0  0  0  0
 17 18  1  0  0  0  0
 17 19  2  0  0  0  0
 18 38  1  0  0  0  0
 18 39  1  0  0  0  0
 20 40  1  0  0  0  0
 20 41  1  0  0  0  0
M  END
> <s_m_source_file>
AV-unprocessed.smi

> <i_m_source_file_index>
1174

> <i_lp_mmshare_version>
43012

> <i_f3d_flags>
0

> <s_epik_input>
bjFbY0hdW2NIXVtjSF1uMVtDSDJdW0NAQEhdKFtDSDNdKVtOSF1DKD1PKVtDQEBIXTJbQ0gyXVtDSDJdW0NIMl1OKFtDSDJdMilDKD1PKVtOSDJd

> <s_epik_cmdline>
J2VwaWtfcHl0aG9uJywgJy1waCcsICc3LjAnLCAnLXRuJywgJzgnLCAnLW1hJywgJzIwMCcsICctbWV0YWxfYmluZGluZycsICctaW1hZScsICc8aW5maWxlLm1hZT4nLCAnLW9tYWUnLCAnPG91dGZpbGUubWFlPic=

> <r_lp_tautomer_probability>
1

> <r_epik_Ionization_Penalty>
0.000372452

> <r_epik_Ionization_Penalty_Charging>
0

> <r_epik_Ionization_Penalty_Neutral>
0.000372452

> <r_epik_State_Penalty>
-0

> <r_epik_Charging_Adjusted_Penalty>
0

> <i_epik_Tot_Q>
0

> <i_epik_Tot_abs_Q>
0

> <r_epik_Metal_State_Penalty>
-0

> <b_epik_Metal_Only>
0

> <s_lp_Force_Field>
OPLS_2005

> <r_lp_Energy>
22.2792

> <b_lp_Chiralities_Consistent>
1

> <s_lp_Variant>
AV-unprocessed.smi:1174-4

> <Gold.Version>
5.8.1

> <Gold.Id.Protein>
6NUR|6NUR_protein|mol2

> <Gold.PLP.Fitness>
43.1370

> <Gold.PLP.PLP>
-36.6477

> <Gold.PLP.part.hbond>
-2.0000

> <Gold.PLP.part.metal>
0.0000

> <Gold.PLP.part.buried>
-5.9796

> <Gold.PLP.part.nonpolar>
-28.5178

> <Gold.PLP.part.repulsive>
0.3533

> <Gold.PLP.ligand.clash>
0.0000

> <Gold.PLP.ligand.torsion>
0.4803

> <Gold.PLP.Chemscore.Hbond>
1.4675

> <Gold.PLP.Chemscore.CHOScore>
1.0000

> <Gold.PLP.Chemscore.Metal>
0.0000

> <Gold.Chemscore.Hbonds>
donor molecule, donor type, donor heavy atom, donor atom, acceptor molecule, acceptor atom, score
      L1  H     9    30       P1 10747  1.00
      L1  H    18    39       P1 10957  0.46
      L1  C     7    29       P1 10737  0.89

> <Gold.PLP.Chemscore.Internal.Correction>
0.0475

> <Gold.Rescore>
     Score         DG    S(hbond)    S(metal)    S(lipo)     H(rot)  DE(clash)    DE(int)     intcor
     12.18     -14.66       1.73        0.00      69.05       1.82       0.04       2.45       ----

> <Gold.Chemscore.Fitness>
12.1811

> <Gold.Chemscore.DG>
-14.6626

> <Gold.Chemscore.ZeroCoef>
-5.4800

> <Gold.Chemscore.Hbond>
1.7257

> <Gold.Chemscore.Metal>
0.0000

> <Gold.Chemscore.Lipo>
69.0536

> <Gold.Chemscore.Internal_Hbond>
0.0000

> <Gold.Chemscore.DEClash>
0.0354

> <Gold.Chemscore.DEInternal>
2.4461

> <Gold.Chemscore.Rot>
1.8206

> <Gold.Chemscore.Internal.Correction>
   9.000000E+99

> <Gold.Chemscore.Hbonds>
donor molecule, donor type, donor heavy atom, donor atom, acceptor molecule, acceptor atom, score
      L1  H     9    30       P1 10747  1.00
      L1  H    18    39       P1 10957  0.43

> <Gold.Chemscore.Hbond.Weighted>
-5.7640

> <Gold.Chemscore.Metal.Weighted>
-0.0000

> <Gold.Chemscore.Lipo.Weighted>
-8.0793

> <Gold.Chemscore.Internal_Hbond.Weighted>
0.0000

> <Gold.Chemscore.DEClash.Weighted>
0.0354

> <Gold.Chemscore.DEInternal.Weighted>
2.4461

> <Gold.Chemscore.Rot.Weighted>
4.6607

> <Gold.Chemscore.Internal.Correction.Weighted>
   9.000000E+99

> <Gold.Protein.RotatedTorsions>
[ 6907 6896 6895 6894 ] final   -8.79 input  -60.11 | X-H torsion
[ 7974 7965 7964 7962 ] final  147.34 input  175.53 | X-H torsion
[ 8008 7997 7996 7995 ] final -104.85 input   59.86 | X-H torsion
[ 10167 10162 10161 10158 ] final  120.96 input  -65.29 | X-H torsion
[ 10718 10713 10712 10709 ] final  145.18 input   66.30 | X-H torsion
[ 10763 10752 10751 10750 ] final -109.06 input  -60.55 | X-H torsion
[ 11005 11000 10999 10996 ] final   55.27 input  -57.11 | X-H torsion

> <Gold.Protein.ActiveResidues>
 VAL166  LYS551  ARG553  GLY616  TRP617  ASP618  TYR619  PRO620  LYS621  CYS622 
 ASP623  PHE694  ASN695  SER759  ASP760  ASP761  ALA762  ILE779  LEU786  VAL792 
 PHE793  MET794  SER795  GLU796  ALA797  LYS798  CYS799  TRP800  GLU811  SER814 

> <Gold.Protein.RotatedAtoms>
  151.4281  135.1006  159.9633 H   0  0  0  0  0  0  0  0  0  0  0  0  # atno 6907 bound_to 6896
  152.4965  133.8643  159.7277 H   0  0  0  0  0  0  0  0  0  0  0  0  # atno 6908 bound_to 6896
  150.9175  133.6863  159.2868 H   0  0  0  0  0  0  0  0  0  0  0  0  # atno 6909 bound_to 6896
  144.8600  139.6016  143.5935 H   0  0  0  0  0  0  0  0  0  0  0  0  # atno 7974 bound_to 7965
  154.8913  140.0416  157.1840 H   0  0  0  0  0  0  0  0  0  0  0  0  # atno 8008 bound_to 7997
  154.8538  140.2933  155.5561 H   0  0  0  0  0  0  0  0  0  0  0  0  # atno 8009 bound_to 7997
  156.2997  140.2460  156.3501 H   0  0  0  0  0  0  0  0  0  0  0  0  # atno 8010 bound_to 7997
  139.5949  144.7038  151.3199 H   0  0  0  0  0  0  0  0  0  0  0  0  # atno 10167 bound_to 10162
  157.3483  131.0946  151.1022 H   0  0  0  0  0  0  0  0  0  0  0  0  # atno 10718 bound_to 10713
  154.8172  135.4615  154.0676 H   0  0  0  0  0  0  0  0  0  0  0  0  # atno 10763 bound_to 10752
  153.2059  135.6875  153.8180 H   0  0  0  0  0  0  0  0  0  0  0  0  # atno 10764 bound_to 10752
  153.7648  135.3279  155.3320 H   0  0  0  0  0  0  0  0  0  0  0  0  # atno 10765 bound_to 10752
  140.0620  134.5588  155.9141 H   0  0  0  0  0  0  0  0  0  0  0  0  # atno 11005 bound_to 11000
  146.2853  139.6986  142.9200 LP  0  0  0  0  0  0  0  0  0  0  0  0  # atno 17320 bound_to 7965
  145.4332  141.0417  143.2899 LP  0  0  0  0  0  0  0  0  0  0  0  0  # atno 17321 bound_to 7965
  140.7204  143.7151  150.7739 LP  0  0  0  0  0  0  0  0  0  0  0  0  # atno 17342 bound_to 10162
  140.0716  143.5056  152.2577 LP  0  0  0  0  0  0  0  0  0  0  0  0  # atno 17343 bound_to 10162
  157.2208  130.6480  149.5810 LP  0  0  0  0  0  0  0  0  0  0  0  0  # atno 17370 bound_to 10713
  155.9717  130.4630  150.6165 LP  0  0  0  0  0  0  0  0  0  0  0  0  # atno 17371 bound_to 10713
  141.1977  133.6598  156.5756 LP  0  0  0  0  0  0  0  0  0  0  0  0  # atno 17394 bound_to 11000
  140.3755  134.7569  157.4627 LP  0  0  0  0  0  0  0  0  0  0  0  0  # atno 17395 bound_to 11000

$$$$
