AV-unprocessed.smi:1769|AV-procd|sdf|7154|dock8
  -GOLD-   22720 8393D 1   1.00000     0.00000
 Structure written by MMmdl.
 42 43  0  0  0  0  0  0  0  0  2 V2000
  149.5807  141.7878  154.5021 C   0  0  0  0  0  0  0  0  0  0  0  0
  150.6801  140.7318  154.6368 C   0  0  0  0  0  0  0  0  0  0  0  0
  151.7631  141.0798  155.1084 O   0  0  0  0  0  0  0  0  0  0  0  0
  150.4318  139.4620  154.2356 N   0  0  0  0  0  0  0  0  0  0  0  0
  151.3562  138.3290  154.3730 C   0  0  0  0  0  0  0  0  0  0  0  0
  150.8133  137.3756  155.4532 C   0  0  0  0  0  0  0  0  0  0  0  0
  149.3772  136.9243  155.1225 C   0  0  0  0  0  0  0  0  0  0  0  0
  148.4584  138.1284  154.8092 C   0  0  2  0  0  0  0  0  0  0  0  0
  147.0700  137.6747  154.3433 C   0  0  0  0  0  0  0  0  0  0  0  0
  146.0668  137.9884  154.9852 O   0  0  0  0  0  0  0  0  0  0  0  0
  147.0304  136.9053  153.2432 N   0  0  0  0  0  0  0  0  0  0  0  0
  145.8319  136.2852  152.6834 C   0  0  0  0  0  0  0  0  0  0  0  0
  145.8112  134.7578  152.8948 C   0  0  0  0  0  0  0  0  0  0  0  0
  145.1783  133.9918  151.7452 C   0  0  0  0  0  0  0  0  0  0  0  0
  145.9060  132.9983  151.0520 C   0  0  0  0  0  0  0  0  0  0  0  0
  145.2779  132.2768  150.0158 C   0  0  0  0  0  0  0  0  0  0  0  0
  143.9370  132.5681  149.6922 C   0  0  0  0  0  0  0  0  0  0  0  0
  143.2747  133.5292  150.3729 N   0  3  0  0  0  0  0  0  0  0  0  0
  143.8401  134.2414  151.3721 C   0  0  0  0  0  0  0  0  0  0  0  0
  149.1184  139.0312  153.7431 C   0  0  0  0  0  0  0  0  0  0  0  0
  149.2637  141.8876  153.4636 H   0  0  0  0  0  0  0  0  0  0  0  0
  149.9401  142.7623  154.8347 H   0  0  0  0  0  0  0  0  0  0  0  0
  148.7170  141.5250  155.1134 H   0  0  0  0  0  0  0  0  0  0  0  0
  151.4258  137.8069  153.4175 H   0  0  0  0  0  0  0  0  0  0  0  0
  152.3758  138.6239  154.6167 H   0  0  0  0  0  0  0  0  0  0  0  0
  151.4643  136.5063  155.5481 H   0  0  0  0  0  0  0  0  0  0  0  0
  150.8255  137.8785  156.4211 H   0  0  0  0  0  0  0  0  0  0  0  0
  149.4127  136.2499  154.2652 H   0  0  0  0  0  0  0  0  0  0  0  0
  148.9721  136.3444  155.9529 H   0  0  0  0  0  0  0  0  0  0  0  0
  148.3408  138.7120  155.7246 H   0  0  0  0  0  0  0  0  0  0  0  0
  147.9043  136.7039  152.7782 H   0  0  0  0  0  0  0  0  0  0  0  0
  144.9335  136.7351  153.1090 H   0  0  0  0  0  0  0  0  0  0  0  0
  145.8024  136.5056  151.6161 H   0  0  0  0  0  0  0  0  0  0  0  0
  146.8299  134.3955  153.0368 H   0  0  0  0  0  0  0  0  0  0  0  0
  145.2768  134.5232  153.8163 H   0  0  0  0  0  0  0  0  0  0  0  0
  146.9289  132.7779  151.3205 H   0  0  0  0  0  0  0  0  0  0  0  0
  145.8159  131.5071  149.4817 H   0  0  0  0  0  0  0  0  0  0  0  0
  143.3777  132.0645  148.9174 H   0  0  0  0  0  0  0  0  0  0  0  0
  143.2049  134.9741  151.8482 H   0  0  0  0  0  0  0  0  0  0  0  0
  148.4675  139.8734  153.5039 H   0  0  0  0  0  0  0  0  0  0  0  0
  149.2503  138.4876  152.8057 H   0  0  0  0  0  0  0  0  0  0  0  0
  142.3042  133.7228  150.1248 H   0  0  0  0  0  0  0  0  0  0  0  0
  1  2  1  0  0  0  0
  1 21  1  0  0  0  0
  1 22  1  0  0  0  0
  1 23  1  0  0  0  0
  2  3  2  0  0  0  0
  2  4  1  0  0  0  0
  4 20  1  0  0  0  0
  4  5  1  0  0  0  0
  5  6  1  0  0  0  0
  5 24  1  0  0  0  0
  5 25  1  0  0  0  0
  6  7  1  0  0  0  0
  6 26  1  0  0  0  0
  6 27  1  0  0  0  0
  7  8  1  0  0  0  0
  7 28  1  0  0  0  0
  7 29  1  0  0  0  0
  8  9  1  0  0  0  0
  8 20  1  0  0  0  0
  8 30  1  0  0  0  0
  9 10  2  0  0  0  0
  9 11  1  0  0  0  0
 11 12  1  0  0  0  0
 11 31  1  0  0  0  0
 12 13  1  0  0  0  0
 12 32  1  0  0  0  0
 12 33  1  0  0  0  0
 13 14  1  0  0  0  0
 13 34  1  0  0  0  0
 13 35  1  0  0  0  0
 14 19  1  0  0  0  0
 14 15  2  0  0  0  0
 15 16  1  0  0  0  0
 15 36  1  0  0  0  0
 16 17  2  0  0  0  0
 16 37  1  0  0  0  0
 17 18  1  0  0  0  0
 17 38  1  0  0  0  0
 18 19  2  0  0  0  0
 18 42  1  0  0  0  0
 19 39  1  0  0  0  0
 20 40  1  0  0  0  0
 20 41  1  0  0  0  0
M  CHG  1  18   1
M  END
> <s_m_source_file>
AV-unprocessed.smi

> <i_m_source_file_index>
1769

> <i_lp_mmshare_version>
43012

> <i_f3d_flags>
0

> <s_epik_input>
W0NIM11DKD1PKU4xW0NIMl1bQ0gyXVtDSDJdW0NASF0oW0NIMl0xKUMoPU8pW05IXVtDSDJdW0NIMl1jMltjSF1bY0hdW2NIXW5bY0hdMg==

> <s_epik_cmdline>
J2VwaWtfcHl0aG9uJywgJy1waCcsICc3LjAnLCAnLXRuJywgJzgnLCAnLW1hJywgJzIwMCcsICctbWV0YWxfYmluZGluZycsICctaW1hZScsICc8aW5maWxlLm1hZT4nLCAnLW9tYWUnLCAnPG91dGZpbGUubWFlPic=

> <r_epik_Ionization_Penalty>
2.25127

> <r_epik_Ionization_Penalty_Charging>
2.25127

> <r_epik_Ionization_Penalty_Neutral>
1.02261e-06

> <r_epik_State_Penalty>
2.39841

> <r_epik_Charging_Adjusted_Penalty>
4.64968

> <i_epik_Tot_Q>
1

> <i_epik_Tot_abs_Q>
1

> <r_epik_Metal_State_Penalty>
2.41159

> <b_epik_Metal_Only>
0

> <s_lp_Force_Field>
OPLS_2005

> <r_lp_Energy>
29.6354

> <b_lp_Chiralities_Consistent>
1

> <s_lp_Variant>
AV-unprocessed.smi:1769-4

> <Gold.Version>
5.8.1

> <Gold.Id.Protein>
6NUR|6NUR_protein|mol2

> <Gold.PLP.Fitness>
43.9241

> <Gold.PLP.PLP>
-35.5269

> <Gold.PLP.part.hbond>
-2.9706

> <Gold.PLP.part.metal>
0.0000

> <Gold.PLP.part.buried>
-2.8802

> <Gold.PLP.part.nonpolar>
-29.0766

> <Gold.PLP.part.repulsive>
0.0528

> <Gold.PLP.ligand.clash>
0.0000

> <Gold.PLP.ligand.torsion>
0.3154

> <Gold.PLP.Chemscore.Hbond>
3.0000

> <Gold.PLP.Chemscore.CHOScore>
0.0000

> <Gold.PLP.Chemscore.Metal>
0.0000

> <Gold.Chemscore.Hbonds>
donor molecule, donor type, donor heavy atom, donor atom, acceptor molecule, acceptor atom, score
      L1  H    11    31       P1  7948  0.84
      L1  H    18    42       P1 10186  2.00

> <Gold.PLP.Chemscore.Internal.Correction>
0.0280

> <Gold.Rescore>
     Score         DG    S(hbond)    S(metal)    S(lipo)     H(rot)  DE(clash)    DE(int)     intcor
     17.27     -17.73       1.92        0.00      85.05       1.61       0.07       0.38       ----

> <Gold.Chemscore.Fitness>
17.2726

> <Gold.Chemscore.DG>
-17.7290

> <Gold.Chemscore.ZeroCoef>
-5.4800

> <Gold.Chemscore.Hbond>
1.9222

> <Gold.Chemscore.Metal>
0.0000

> <Gold.Chemscore.Lipo>
85.0474

> <Gold.Chemscore.Internal_Hbond>
0.0000

> <Gold.Chemscore.DEClash>
0.0747

> <Gold.Chemscore.DEInternal>
0.3817

> <Gold.Chemscore.Rot>
1.6100

> <Gold.Chemscore.Internal.Correction>
   9.000000E+99

> <Gold.Chemscore.Hbonds>
donor molecule, donor type, donor heavy atom, donor atom, acceptor molecule, acceptor atom, score
      L1  H    11    31       P1  7948  0.82
      L1  H    18    42       P1 10186  0.97

> <Gold.Chemscore.Hbond.Weighted>
-6.4201

> <Gold.Chemscore.Metal.Weighted>
-0.0000

> <Gold.Chemscore.Lipo.Weighted>
-9.9505

> <Gold.Chemscore.Internal_Hbond.Weighted>
0.0000

> <Gold.Chemscore.DEClash.Weighted>
0.0747

> <Gold.Chemscore.DEInternal.Weighted>
0.3817

> <Gold.Chemscore.Rot.Weighted>
4.1216

> <Gold.Chemscore.Internal.Correction.Weighted>
   9.000000E+99

> <Gold.Protein.RotatedTorsions>
[ 6907 6896 6895 6894 ] final  -54.64 input  -60.11 | X-H torsion
[ 7974 7965 7964 7962 ] final  -31.68 input  175.53 | X-H torsion
[ 8008 7997 7996 7995 ] final  163.73 input   59.86 | X-H torsion
[ 10167 10162 10161 10158 ] final   74.93 input  -65.29 | X-H torsion
[ 10718 10713 10712 10709 ] final   79.50 input   66.30 | X-H torsion
[ 10763 10752 10751 10750 ] final   54.02 input  -60.55 | X-H torsion
[ 11005 11000 10999 10996 ] final   -5.36 input  -57.11 | X-H torsion

> <Gold.Protein.ActiveResidues>
 VAL166  LYS551  ARG553  GLY616  TRP617  ASP618  TYR619  PRO620  LYS621  CYS622 
 ASP623  PHE694  ASN695  SER759  ASP760  ASP761  ALA762  ILE779  LEU786  VAL792 
 PHE793  MET794  SER795  GLU796  ALA797  LYS798  CYS799  TRP800  GLU811  SER814 

> <Gold.Protein.RotatedAtoms>
  150.8320  134.7578  159.6861 H   0  0  0  0  0  0  0  0  0  0  0  0  # atno 6907 bound_to 6896
  152.4423  134.5562  159.9891 H   0  0  0  0  0  0  0  0  0  0  0  0  # atno 6908 bound_to 6896
  151.5721  133.3351  159.3027 H   0  0  0  0  0  0  0  0  0  0  0  0  # atno 6909 bound_to 6896
  146.1048  140.5698  142.8804 H   0  0  0  0  0  0  0  0  0  0  0  0  # atno 7974 bound_to 7965
  156.1935  140.1716  156.8045 H   0  0  0  0  0  0  0  0  0  0  0  0  # atno 8008 bound_to 7997
  154.5500  140.0719  156.8684 H   0  0  0  0  0  0  0  0  0  0  0  0  # atno 8009 bound_to 7997
  155.3047  140.3364  155.4248 H   0  0  0  0  0  0  0  0  0  0  0  0  # atno 8010 bound_to 7997
  140.0084  144.5633  150.7679 H   0  0  0  0  0  0  0  0  0  0  0  0  # atno 10167 bound_to 10162
  157.6778  130.9917  150.1941 H   0  0  0  0  0  0  0  0  0  0  0  0  # atno 10718 bound_to 10713
  152.9800  135.5759  154.4837 H   0  0  0  0  0  0  0  0  0  0  0  0  # atno 10763 bound_to 10752
  154.4381  135.2775  155.1868 H   0  0  0  0  0  0  0  0  0  0  0  0  # atno 10764 bound_to 10752
  154.3548  135.6201  153.5714 H   0  0  0  0  0  0  0  0  0  0  0  0  # atno 10765 bound_to 10752
  140.6903  133.9077  155.8613 H   0  0  0  0  0  0  0  0  0  0  0  0  # atno 11005 bound_to 11000
  144.7462  140.5074  143.6834 LP  0  0  0  0  0  0  0  0  0  0  0  0  # atno 17320 bound_to 7965
  145.5782  139.1487  143.3250 LP  0  0  0  0  0  0  0  0  0  0  0  0  # atno 17321 bound_to 7965
  140.7391  143.2787  151.3663 LP  0  0  0  0  0  0  0  0  0  0  0  0  # atno 17342 bound_to 10162
  139.6222  144.0884  152.2402 LP  0  0  0  0  0  0  0  0  0  0  0  0  # atno 17343 bound_to 10162
  156.2646  130.3715  149.8094 LP  0  0  0  0  0  0  0  0  0  0  0  0  # atno 17370 bound_to 10713
  156.5829  130.8473  151.3388 LP  0  0  0  0  0  0  0  0  0  0  0  0  # atno 17371 bound_to 10713
  141.0247  134.0840  157.4082 LP  0  0  0  0  0  0  0  0  0  0  0  0  # atno 17394 bound_to 11000
  139.8925  135.0125  156.6851 LP  0  0  0  0  0  0  0  0  0  0  0  0  # atno 17395 bound_to 11000

$$$$
