AV-unprocessed.smi:1944|AV-procd|sdf|7856|dock2
  -GOLD-   2272010 03D 1   1.00000     0.00000
 Structure written by MMmdl.
 46 47  0  0  0  0  0  0  0  0  2 V2000
  151.7351  138.2608  154.6103 C   0  0  0  0  0  0  0  0  0  0  0  0
  150.3449  138.2003  154.3104 O   0  0  0  0  0  0  0  0  0  0  0  0
  149.6098  139.3700  154.3510 C   0  0  0  0  0  0  0  0  0  0  0  0
  150.2235  140.5032  154.7752 N   0  0  0  0  0  0  0  0  0  0  0  0
  149.5061  141.6443  154.8214 C   0  0  0  0  0  0  0  0  0  0  0  0
  148.1492  141.7159  154.4575 C   0  0  0  0  0  0  0  0  0  0  0  0
  147.5105  140.5421  154.0161 C   0  0  0  0  0  0  0  0  0  0  0  0
  148.2544  139.3389  153.9474 C   0  0  0  0  0  0  0  0  0  0  0  0
  147.7069  138.0928  153.5340 N   0  0  0  0  0  0  0  0  0  0  0  0
  146.4280  137.6827  153.5725 C   0  0  0  0  0  0  0  0  0  0  0  0
  145.4758  138.3478  153.9797 O   0  0  0  0  0  0  0  0  0  0  0  0
  146.3023  136.4385  153.0893 N   0  0  0  0  0  0  0  0  0  0  0  0
  145.0419  135.7144  152.9706 C   0  0  0  0  0  0  0  0  0  0  0  0
  145.0930  134.3614  153.7104 C   0  0  0  0  0  0  0  0  0  0  0  0
  144.7231  133.2120  152.8352 N   0  3  1  0  0  0  0  0  0  0  0  0
  143.6932  133.6076  151.8310 C   0  0  0  0  0  0  0  0  0  0  0  0
  143.1997  132.4123  151.0052 C   0  0  0  0  0  0  0  0  0  0  0  0
  144.3715  131.7380  150.2936 C   0  0  0  0  0  0  0  0  0  0  0  0
  145.4202  131.3290  151.3300 C   0  0  0  0  0  0  0  0  0  0  0  0
  145.8912  132.5226  152.1921 C   0  0  2  0  0  0  0  0  0  0  0  0
  146.9279  132.0015  153.2110 C   0  0  0  0  0  0  0  0  0  0  0  0
  152.1634  137.2614  154.5379 H   0  0  0  0  0  0  0  0  0  0  0  0
  151.9097  138.6223  155.6248 H   0  0  0  0  0  0  0  0  0  0  0  0
  152.2676  138.9007  153.9053 H   0  0  0  0  0  0  0  0  0  0  0  0
  150.0280  142.5253  155.1649 H   0  0  0  0  0  0  0  0  0  0  0  0
  147.6089  142.6490  154.5199 H   0  0  0  0  0  0  0  0  0  0  0  0
  146.4647  140.5871  153.7556 H   0  0  0  0  0  0  0  0  0  0  0  0
  148.3626  137.4629  153.0945 H   0  0  0  0  0  0  0  0  0  0  0  0
  147.1350  135.9654  152.7691 H   0  0  0  0  0  0  0  0  0  0  0  0
  144.2241  136.3283  153.3522 H   0  0  0  0  0  0  0  0  0  0  0  0
  144.8570  135.5779  151.9063 H   0  0  0  0  0  0  0  0  0  0  0  0
  146.0813  134.1938  154.1414 H   0  0  0  0  0  0  0  0  0  0  0  0
  144.4109  134.4410  154.5519 H   0  0  0  0  0  0  0  0  0  0  0  0
  142.8302  134.0560  152.3198 H   0  0  0  0  0  0  0  0  0  0  0  0
  144.1067  134.3694  151.1680 H   0  0  0  0  0  0  0  0  0  0  0  0
  142.6958  131.6952  151.6546 H   0  0  0  0  0  0  0  0  0  0  0  0
  142.4608  132.7430  150.2746 H   0  0  0  0  0  0  0  0  0  0  0  0
  144.0263  130.8645  149.7396 H   0  0  0  0  0  0  0  0  0  0  0  0
  144.8112  132.4204  149.5650 H   0  0  0  0  0  0  0  0  0  0  0  0
  145.0053  130.5516  151.9736 H   0  0  0  0  0  0  0  0  0  0  0  0
  146.2714  130.8786  150.8175 H   0  0  0  0  0  0  0  0  0  0  0  0
  146.3873  133.2414  151.5378 H   0  0  0  0  0  0  0  0  0  0  0  0
  147.6526  131.3455  152.7274 H   0  0  0  0  0  0  0  0  0  0  0  0
  146.4516  131.4294  154.0079 H   0  0  0  0  0  0  0  0  0  0  0  0
  147.5115  132.8014  153.6644 H   0  0  0  0  0  0  0  0  0  0  0  0
  144.2953  132.5234  153.4378 H   0  0  0  0  0  0  0  0  0  0  0  0
  1  2  1  0  0  0  0
  1 22  1  0  0  0  0
  1 23  1  0  0  0  0
  1 24  1  0  0  0  0
  2  3  1  0  0  0  0
  3  8  1  0  0  0  0
  3  4  2  0  0  0  0
  4  5  1  0  0  0  0
  5  6  2  0  0  0  0
  5 25  1  0  0  0  0
  6  7  1  0  0  0  0
  6 26  1  0  0  0  0
  7  8  2  0  0  0  0
  7 27  1  0  0  0  0
  8  9  1  0  0  0  0
  9 10  1  0  0  0  0
  9 28  1  0  0  0  0
 10 11  2  0  0  0  0
 10 12  1  0  0  0  0
 12 13  1  0  0  0  0
 12 29  1  0  0  0  0
 13 14  1  0  0  0  0
 13 30  1  0  0  0  0
 13 31  1  0  0  0  0
 14 15  1  0  0  0  0
 14 32  1  0  0  0  0
 14 33  1  0  0  0  0
 15 20  1  0  0  0  0
 15 16  1  0  0  0  0
 15 46  1  0  0  0  0
 16 17  1  0  0  0  0
 16 34  1  0  0  0  0
 16 35  1  0  0  0  0
 17 18  1  0  0  0  0
 17 36  1  0  0  0  0
 17 37  1  0  0  0  0
 18 19  1  0  0  0  0
 18 38  1  0  0  0  0
 18 39  1  0  0  0  0
 19 20  1  0  0  0  0
 19 40  1  0  0  0  0
 19 41  1  0  0  0  0
 20 21  1  0  0  0  0
 20 42  1  0  0  0  0
 21 43  1  0  0  0  0
 21 44  1  0  0  0  0
 21 45  1  0  0  0  0
M  CHG  1  15   1
M  END
> <s_m_source_file>
AV-unprocessed.smi

> <i_m_source_file_index>
1944

> <i_lp_mmshare_version>
43012

> <i_f3d_flags>
0

> <s_epik_input>
W0NIM11PYzFuW2NIXVtjSF1bY0hdYzFbTkhdQyg9TylbTkhdW0NIMl1bQ0gyXU4yW0NIMl1bQ0gyXVtDSDJdW0NIMl1bQ0BIXTJbQ0gzXQ==

> <s_epik_cmdline>
J2VwaWtfcHl0aG9uJywgJy1waCcsICc3LjAnLCAnLXRuJywgJzgnLCAnLW1hJywgJzIwMCcsICctbWV0YWxfYmluZGluZycsICctaW1hZScsICc8aW5maWxlLm1hZT4nLCAnLW9tYWUnLCAnPG91dGZpbGUubWFlPic=

> <r_lp_tautomer_probability>
1

> <r_epik_Ionization_Penalty>
0.00219525

> <r_epik_Ionization_Penalty_Charging>
0.00211816

> <r_epik_Ionization_Penalty_Neutral>
7.7088e-05

> <r_epik_State_Penalty>
0.00145254

> <r_epik_Charging_Adjusted_Penalty>
0.0035707

> <i_epik_Tot_Q>
1

> <i_epik_Tot_abs_Q>
1

> <r_epik_Metal_State_Penalty>
-0

> <b_epik_Metal_Only>
0

> <s_lp_Force_Field>
OPLS_2005

> <r_lp_Energy>
21.9876

> <b_lp_Chiralities_Consistent>
1

> <s_lp_Variant>
AV-unprocessed.smi:1944-4

> <Gold.Version>
5.8.1

> <Gold.Id.Protein>
6NUR|6NUR_protein|mol2

> <Gold.PLP.Fitness>
46.8411

> <Gold.PLP.PLP>
-34.4183

> <Gold.PLP.part.hbond>
-3.5451

> <Gold.PLP.part.metal>
0.0000

> <Gold.PLP.part.buried>
-4.5830

> <Gold.PLP.part.nonpolar>
-28.0463

> <Gold.PLP.part.repulsive>
0.4791

> <Gold.PLP.ligand.clash>
0.0425

> <Gold.PLP.ligand.torsion>
0.9222

> <Gold.PLP.Chemscore.Hbond>
3.8736

> <Gold.PLP.Chemscore.CHOScore>
0.8704

> <Gold.PLP.Chemscore.Metal>
0.0000

> <Gold.Chemscore.Hbonds>
donor molecule, donor type, donor heavy atom, donor atom, acceptor molecule, acceptor atom, score
      L1  H     9    28       P1  7948  1.00
      L1  H    12    29       P1  7948  0.87
      L1  H    15    46       P1 10957  1.01
      P1  H  7989  7998       L1     4  0.96
      L1  C     5    25       P1  8028  0.87

> <Gold.PLP.Chemscore.Internal.Correction>
0.0778

> <Gold.Rescore>
     Score         DG    S(hbond)    S(metal)    S(lipo)     H(rot)  DE(clash)    DE(int)     intcor
     17.23     -19.51       2.34        0.00      90.68       1.71       0.28       2.00       ----

> <Gold.Chemscore.Fitness>
17.2324

> <Gold.Chemscore.DG>
-19.5094

> <Gold.Chemscore.ZeroCoef>
-5.4800

> <Gold.Chemscore.Hbond>
2.3352

> <Gold.Chemscore.Metal>
0.0000

> <Gold.Chemscore.Lipo>
90.6783

> <Gold.Chemscore.Internal_Hbond>
0.0000

> <Gold.Chemscore.DEClash>
0.2762

> <Gold.Chemscore.DEInternal>
2.0009

> <Gold.Chemscore.Rot>
1.7107

> <Gold.Chemscore.Internal.Correction>
   9.000000E+99

> <Gold.Chemscore.Hbonds>
donor molecule, donor type, donor heavy atom, donor atom, acceptor molecule, acceptor atom, score
      L1  H     9    28       P1  7948  0.99
      L1  H    12    29       P1  7948  0.81
      L1  H    15    46       P1 10957  0.12
      P1  H  7989  7998       L1     4  0.25

> <Gold.Chemscore.Hbond.Weighted>
-7.7995

> <Gold.Chemscore.Metal.Weighted>
-0.0000

> <Gold.Chemscore.Lipo.Weighted>
-10.6094

> <Gold.Chemscore.Internal_Hbond.Weighted>
0.0000

> <Gold.Chemscore.DEClash.Weighted>
0.2762

> <Gold.Chemscore.DEInternal.Weighted>
2.0009

> <Gold.Chemscore.Rot.Weighted>
4.3794

> <Gold.Chemscore.Internal.Correction.Weighted>
   9.000000E+99

> <Gold.Protein.RotatedTorsions>
[ 6907 6896 6895 6894 ] final   10.22 input  -60.11 | X-H torsion
[ 7974 7965 7964 7962 ] final  165.94 input  175.53 | X-H torsion
[ 8008 7997 7996 7995 ] final -147.01 input   59.86 | X-H torsion
[ 10167 10162 10161 10158 ] final   98.29 input  -65.29 | X-H torsion
[ 10718 10713 10712 10709 ] final   42.30 input   66.30 | X-H torsion
[ 10763 10752 10751 10750 ] final   56.51 input  -60.55 | X-H torsion
[ 11005 11000 10999 10996 ] final  -41.10 input  -57.11 | X-H torsion

> <Gold.Protein.ActiveResidues>
 VAL166  LYS551  ARG553  GLY616  TRP617  ASP618  TYR619  PRO620  LYS621  CYS622 
 ASP623  PHE694  ASN695  SER759  ASP760  ASP761  ALA762  ILE779  LEU786  VAL792 
 PHE793  MET794  SER795  GLU796  ALA797  LYS798  CYS799  TRP800  GLU811  SER814 

> <Gold.Protein.RotatedAtoms>
  151.7347  135.0867  160.0305 H   0  0  0  0  0  0  0  0  0  0  0  0  # atno 6907 bound_to 6896
  152.3518  133.6185  159.5959 H   0  0  0  0  0  0  0  0  0  0  0  0  # atno 6908 bound_to 6896
  150.7545  133.9478  159.3518 H   0  0  0  0  0  0  0  0  0  0  0  0  # atno 6909 bound_to 6896
  144.7482  139.8543  143.6375 H   0  0  0  0  0  0  0  0  0  0  0  0  # atno 7974 bound_to 7965
  155.5687  140.0632  157.2812 H   0  0  0  0  0  0  0  0  0  0  0  0  # atno 8008 bound_to 7997
  154.4368  140.1873  156.0902 H   0  0  0  0  0  0  0  0  0  0  0  0  # atno 8009 bound_to 7997
  156.0393  140.3297  155.7229 H   0  0  0  0  0  0  0  0  0  0  0  0  # atno 8010 bound_to 7997
  139.7722  144.6918  151.0139 H   0  0  0  0  0  0  0  0  0  0  0  0  # atno 10167 bound_to 10162
  157.4032  130.7872  149.7366 H   0  0  0  0  0  0  0  0  0  0  0  0  # atno 10718 bound_to 10713
  152.9833  135.5674  154.5240 H   0  0  0  0  0  0  0  0  0  0  0  0  # atno 10763 bound_to 10752
  154.4723  135.2785  155.1635 H   0  0  0  0  0  0  0  0  0  0  0  0  # atno 10764 bound_to 10752
  154.3178  135.6275  153.5547 H   0  0  0  0  0  0  0  0  0  0  0  0  # atno 10765 bound_to 10752
  141.0222  133.6857  156.2412 H   0  0  0  0  0  0  0  0  0  0  0  0  # atno 11005 bound_to 11000
  146.1394  139.4447  143.0119 LP  0  0  0  0  0  0  0  0  0  0  0  0  # atno 17320 bound_to 7965
  145.7042  141.0126  143.1488 LP  0  0  0  0  0  0  0  0  0  0  0  0  # atno 17321 bound_to 7965
  140.7814  143.4575  151.0324 LP  0  0  0  0  0  0  0  0  0  0  0  0  # atno 17342 bound_to 10162
  139.8259  143.7757  152.3178 LP  0  0  0  0  0  0  0  0  0  0  0  0  # atno 17343 bound_to 10162
  155.9829  130.4005  150.3391 LP  0  0  0  0  0  0  0  0  0  0  0  0  # atno 17370 bound_to 10713
  157.1521  131.0323  151.2880 LP  0  0  0  0  0  0  0  0  0  0  0  0  # atno 17371 bound_to 10713
  140.6553  134.5024  157.5580 LP  0  0  0  0  0  0  0  0  0  0  0  0  # atno 17394 bound_to 11000
  139.9153  134.8259  156.1387 LP  0  0  0  0  0  0  0  0  0  0  0  0  # atno 17395 bound_to 11000

$$$$
