AV-unprocessed.smi:492|AV-procd|sdf|2710|dock3
  -GOLD-   2262023153D 1   1.00000     0.00000
 Structure written by MMmdl.
 47 49  0  0  0  0  0  0  0  0  2 V2000
  146.2505  132.1827  152.0873 C   0  0  0  0  0  0  0  0  0  0  0  0
  146.1190  133.2391  153.0273 O   0  0  0  0  0  0  0  0  0  0  0  0
  147.2590  133.6960  153.6534 C   0  0  0  0  0  0  0  0  0  0  0  0
  148.5463  133.1287  153.4782 C   0  0  0  0  0  0  0  0  0  0  0  0
  149.6592  133.6590  154.1596 C   0  0  0  0  0  0  0  0  0  0  0  0
  149.5073  134.7652  155.0193 C   0  0  0  0  0  0  0  0  0  0  0  0
  150.7058  135.3211  155.7648 C   0  0  0  0  0  0  0  0  0  0  0  0
  150.7944  136.7315  155.6468 O   0  0  0  0  0  0  0  0  0  0  0  0
  151.8992  137.2807  156.3467 C   0  0  0  0  0  0  0  0  0  0  0  0
  151.8976  138.8103  156.1972 C   0  0  2  0  0  0  0  0  0  0  0  0
  153.1966  139.2359  155.8372 O   0  0  0  0  0  0  0  0  0  0  0  0
  151.3733  139.5516  157.4443 C   0  0  0  0  0  0  0  0  0  0  0  0
  151.1035  140.9750  157.1880 N   0  0  0  0  0  0  0  0  0  0  0  0
  150.3031  141.5593  156.2516 C   0  0  0  0  0  0  0  0  0  0  0  0
  149.4778  140.8599  155.2244 C   0  0  0  0  0  0  0  0  0  0  0  0
  150.3955  142.9079  156.4250 N   0  3  0  0  0  0  0  0  0  0  0  0
  151.2644  143.1897  157.4802 C   0  0  0  0  0  0  0  0  0  0  0  0
  151.6729  144.4037  158.0241 C   0  0  0  0  0  0  0  0  0  0  0  0
  152.5796  144.3411  159.1026 C   0  0  0  0  0  0  0  0  0  0  0  0
  153.0456  143.1065  159.5992 C   0  0  0  0  0  0  0  0  0  0  0  0
  152.6235  141.8821  159.0405 C   0  0  0  0  0  0  0  0  0  0  0  0
  151.7253  141.9523  157.9752 C   0  0  0  0  0  0  0  0  0  0  0  0
  148.2278  135.3272  155.2043 C   0  0  0  0  0  0  0  0  0  0  0  0
  147.1160  134.7968  154.5226 C   0  0  0  0  0  0  0  0  0  0  0  0
  145.2682  131.9364  151.6841 H   0  0  0  0  0  0  0  0  0  0  0  0
  146.6509  131.2811  152.5527 H   0  0  0  0  0  0  0  0  0  0  0  0
  146.8875  132.4712  151.2501 H   0  0  0  0  0  0  0  0  0  0  0  0
  148.7068  132.2834  152.8266 H   0  0  0  0  0  0  0  0  0  0  0  0
  150.6322  133.2117  154.0178 H   0  0  0  0  0  0  0  0  0  0  0  0
  150.6178  135.0393  156.8150 H   0  0  0  0  0  0  0  0  0  0  0  0
  151.6185  134.8641  155.3791 H   0  0  0  0  0  0  0  0  0  0  0  0
  151.8733  136.9958  157.4000 H   0  0  0  0  0  0  0  0  0  0  0  0
  152.8213  136.8778  155.9251 H   0  0  0  0  0  0  0  0  0  0  0  0
  151.2560  139.0625  155.3524 H   0  0  0  0  0  0  0  0  0  0  0  0
  153.5638  138.5994  155.2431 H   0  0  0  0  0  0  0  0  0  0  0  0
  150.4393  139.0984  157.7778 H   0  0  0  0  0  0  0  0  0  0  0  0
  152.0634  139.4662  158.2832 H   0  0  0  0  0  0  0  0  0  0  0  0
  148.9422  141.5812  154.6068 H   0  0  0  0  0  0  0  0  0  0  0  0
  148.7496  140.2076  155.7068 H   0  0  0  0  0  0  0  0  0  0  0  0
  150.1139  140.2555  154.5776 H   0  0  0  0  0  0  0  0  0  0  0  0
  151.3187  145.3510  157.6443 H   0  0  0  0  0  0  0  0  0  0  0  0
  152.9257  145.2582  159.5571 H   0  0  0  0  0  0  0  0  0  0  0  0
  153.7419  143.0974  160.4253 H   0  0  0  0  0  0  0  0  0  0  0  0
  152.9914  140.9436  159.4277 H   0  0  0  0  0  0  0  0  0  0  0  0
  148.0927  136.1672  155.8697 H   0  0  0  0  0  0  0  0  0  0  0  0
  146.1416  135.2386  154.6708 H   0  0  0  0  0  0  0  0  0  0  0  0
  149.9011  143.5851  155.8585 H   0  0  0  0  0  0  0  0  0  0  0  0
  1  2  1  0  0  0  0
  1 25  1  0  0  0  0
  1 26  1  0  0  0  0
  1 27  1  0  0  0  0
  2  3  1  0  0  0  0
  3 24  1  0  0  0  0
  3  4  2  0  0  0  0
  4  5  1  0  0  0  0
  4 28  1  0  0  0  0
  5  6  2  0  0  0  0
  5 29  1  0  0  0  0
  6  7  1  0  0  0  0
  6 23  1  0  0  0  0
  7  8  1  0  0  0  0
  7 30  1  0  0  0  0
  7 31  1  0  0  0  0
  8  9  1  0  0  0  0
  9 10  1  0  0  0  0
  9 32  1  0  0  0  0
  9 33  1  0  0  0  0
 10 11  1  0  0  0  0
 10 12  1  0  0  0  0
 10 34  1  0  0  0  0
 11 35  1  0  0  0  0
 12 13  1  0  0  0  0
 12 36  1  0  0  0  0
 12 37  1  0  0  0  0
 13 22  1  0  0  0  0
 13 14  1  0  0  0  0
 14 15  1  0  0  0  0
 14 16  2  0  0  0  0
 15 38  1  0  0  0  0
 15 39  1  0  0  0  0
 15 40  1  0  0  0  0
 16 17  1  0  0  0  0
 16 47  1  0  0  0  0
 17 22  2  0  0  0  0
 17 18  1  0  0  0  0
 18 19  2  0  0  0  0
 18 41  1  0  0  0  0
 19 20  1  0  0  0  0
 19 42  1  0  0  0  0
 20 21  2  0  0  0  0
 20 43  1  0  0  0  0
 21 22  1  0  0  0  0
 21 44  1  0  0  0  0
 23 24  2  0  0  0  0
 23 45  1  0  0  0  0
 24 46  1  0  0  0  0
M  CHG  1  16   1
M  END
> <s_m_source_file>
AV-unprocessed.smi

> <i_m_source_file_index>
492

> <i_lp_mmshare_version>
43012

> <i_f3d_flags>
0

> <s_epik_input>
W0NIM11PYzFbY0hdW2NIXWMoW2NIXVtjSF0xKVtDSDJdT1tDSDJdW0NASF0oW09IXSlbQ0gyXW4oYyhuMilbQ0gzXSljKGMyMylbY0hdW2NIXVtjSF1bY0hdMw==

> <s_epik_cmdline>
J2VwaWtfcHl0aG9uJywgJy1waCcsICc3LjAnLCAnLXRuJywgJzgnLCAnLW1hJywgJzIwMCcsICctbWV0YWxfYmluZGluZycsICctaW1hZScsICc8aW5maWxlLm1hZT4nLCAnLW9tYWUnLCAnPG91dGZpbGUubWFlPic=

> <r_lp_tautomer_probability>
1

> <r_epik_Ionization_Penalty>
0.952

> <r_epik_Ionization_Penalty_Charging>
0.951999

> <r_epik_Ionization_Penalty_Neutral>
9.7482e-07

> <r_epik_State_Penalty>
0.996343

> <r_epik_Charging_Adjusted_Penalty>
1.94834

> <i_epik_Tot_Q>
1

> <i_epik_Tot_abs_Q>
1

> <r_epik_Metal_State_Penalty>
4.96724

> <b_epik_Metal_Only>
0

> <s_lp_Force_Field>
OPLS_2005

> <r_lp_Energy>
22.3556

> <b_lp_Chiralities_Consistent>
1

> <s_lp_Variant>
AV-unprocessed.smi:492-3

> <Gold.Version>
5.8.1

> <Gold.Id.Protein>
6NUR|6NUR_protein|mol2

> <Gold.PLP.Fitness>
54.9520

> <Gold.PLP.PLP>
-47.6212

> <Gold.PLP.part.hbond>
-1.6765

> <Gold.PLP.part.metal>
0.0000

> <Gold.PLP.part.buried>
-7.3351

> <Gold.PLP.part.nonpolar>
-40.6110

> <Gold.PLP.part.repulsive>
0.2738

> <Gold.PLP.ligand.clash>
0.0000

> <Gold.PLP.ligand.torsion>
0.8429

> <Gold.PLP.Chemscore.Hbond>
2.9440

> <Gold.PLP.Chemscore.CHOScore>
0.0000

> <Gold.PLP.Chemscore.Metal>
0.0000

> <Gold.Chemscore.Hbonds>
donor molecule, donor type, donor heavy atom, donor atom, acceptor molecule, acceptor atom, score
      L1  H    16    47       P1  8028  2.00
      P1  H  7997  8010       L1    11  0.91

> <Gold.PLP.Chemscore.Internal.Correction>
0.1846

> <Gold.Rescore>
     Score         DG    S(hbond)    S(metal)    S(lipo)     H(rot)  DE(clash)    DE(int)     intcor
     19.33     -20.25       1.82        0.00     129.05       2.50       0.09       0.82       ----

> <Gold.Chemscore.Fitness>
19.3341

> <Gold.Chemscore.DG>
-20.2482

> <Gold.Chemscore.ZeroCoef>
-5.4800

> <Gold.Chemscore.Hbond>
1.8201

> <Gold.Chemscore.Metal>
0.0000

> <Gold.Chemscore.Lipo>
129.0492

> <Gold.Chemscore.Internal_Hbond>
0.0000

> <Gold.Chemscore.DEClash>
0.0894

> <Gold.Chemscore.DEInternal>
0.8247

> <Gold.Chemscore.Rot>
2.5038

> <Gold.Chemscore.Internal.Correction>
   9.000000E+99

> <Gold.Chemscore.Hbonds>
donor molecule, donor type, donor heavy atom, donor atom, acceptor molecule, acceptor atom, score
      L1  H    16    47       P1  8028  0.91
      P1  H  7997  8010       L1    11  0.65

> <Gold.Chemscore.Hbond.Weighted>
-6.0792

> <Gold.Chemscore.Metal.Weighted>
-0.0000

> <Gold.Chemscore.Lipo.Weighted>
-15.0988

> <Gold.Chemscore.Internal_Hbond.Weighted>
0.0000

> <Gold.Chemscore.DEClash.Weighted>
0.0894

> <Gold.Chemscore.DEInternal.Weighted>
0.8247

> <Gold.Chemscore.Rot.Weighted>
6.4098

> <Gold.Chemscore.Internal.Correction.Weighted>
   9.000000E+99

> <Gold.Protein.RotatedTorsions>
[ 6907 6896 6895 6894 ] final  163.56 input  -60.11 | X-H torsion
[ 7974 7965 7964 7962 ] final   44.20 input  175.53 | X-H torsion
[ 8008 7997 7996 7995 ] final   65.02 input   59.86 | X-H torsion
[ 10167 10162 10161 10158 ] final   69.44 input  -65.29 | X-H torsion
[ 10718 10713 10712 10709 ] final -172.72 input   66.30 | X-H torsion
[ 10763 10752 10751 10750 ] final  -38.02 input  -60.55 | X-H torsion
[ 11005 11000 10999 10996 ] final  170.22 input  -57.11 | X-H torsion

> <Gold.Protein.ActiveResidues>
 VAL166  LYS551  ARG553  GLY616  TRP617  ASP618  TYR619  PRO620  LYS621  CYS622 
 ASP623  PHE694  ASN695  SER759  ASP760  ASP761  ALA762  ILE779  LEU786  VAL792 
 PHE793  MET794  SER795  GLU796  ALA797  LYS798  CYS799  TRP800  GLU811  SER814 

> <Gold.Protein.RotatedAtoms>
  151.9233  133.3591  159.3904 H   0  0  0  0  0  0  0  0  0  0  0  0  # atno 6907 bound_to 6896
  150.7032  134.4613  159.5391 H   0  0  0  0  0  0  0  0  0  0  0  0  # atno 6908 bound_to 6896
  152.2240  134.8385  160.0533 H   0  0  0  0  0  0  0  0  0  0  0  0  # atno 6909 bound_to 6896
  146.0589  139.5101  142.9671 H   0  0  0  0  0  0  0  0  0  0  0  0  # atno 7974 bound_to 7965
  155.6552  140.3497  155.4762 H   0  0  0  0  0  0  0  0  0  0  0  0  # atno 8008 bound_to 7997
  155.9815  140.1175  157.0745 H   0  0  0  0  0  0  0  0  0  0  0  0  # atno 8009 bound_to 7997
  154.4193  140.1137  156.5427 H   0  0  0  0  0  0  0  0  0  0  0  0  # atno 8010 bound_to 7997
  140.0678  144.5179  150.7249 H   0  0  0  0  0  0  0  0  0  0  0  0  # atno 10167 bound_to 10162
  156.7597  130.9409  151.3117 H   0  0  0  0  0  0  0  0  0  0  0  0  # atno 10718 bound_to 10713
  153.9060  135.6797  153.4753 H   0  0  0  0  0  0  0  0  0  0  0  0  # atno 10763 bound_to 10752
  153.1104  135.4786  154.9022 H   0  0  0  0  0  0  0  0  0  0  0  0  # atno 10764 bound_to 10752
  154.7551  135.3195  154.8440 H   0  0  0  0  0  0  0  0  0  0  0  0  # atno 10765 bound_to 10752
  140.3060  134.7556  157.3954 H   0  0  0  0  0  0  0  0  0  0  0  0  # atno 11005 bound_to 11000
  145.6595  141.0244  143.1717 LP  0  0  0  0  0  0  0  0  0  0  0  0  # atno 17320 bound_to 7965
  144.7163  139.8184  143.7397 LP  0  0  0  0  0  0  0  0  0  0  0  0  # atno 17321 bound_to 7965
  140.7141  143.2529  151.4491 LP  0  0  0  0  0  0  0  0  0  0  0  0  # atno 17342 bound_to 10162
  139.5854  144.1615  152.2023 LP  0  0  0  0  0  0  0  0  0  0  0  0  # atno 17343 bound_to 10162
  157.6740  130.9077  150.0107 LP  0  0  0  0  0  0  0  0  0  0  0  0  # atno 17370 bound_to 10713
  156.1347  130.3643  149.9676 LP  0  0  0  0  0  0  0  0  0  0  0  0  # atno 17371 bound_to 10713
  140.1067  134.5401  155.8303 LP  0  0  0  0  0  0  0  0  0  0  0  0  # atno 17394 bound_to 11000
  141.2118  133.6711  156.6611 LP  0  0  0  0  0  0  0  0  0  0  0  0  # atno 17395 bound_to 11000

$$$$
