AV-unprocessed.smi:1406|AV-procd|sdf|5711|dock5
  -GOLD-   22720 5343D 1   1.00000     0.00000
 Structure written by MMmdl.
 41 43  0  0  0  0  0  0  0  0  2 V2000
  149.3182  141.4345  157.3085 C   0  0  0  0  0  0  0  0  0  0  0  0
  149.9697  141.4181  155.9106 C   0  0  2  0  0  0  0  0  0  0  0  0
  148.9525  141.2034  154.7794 C   0  0  0  0  0  0  0  0  0  0  0  0
  148.8959  141.9766  153.8227 O   0  0  0  0  0  0  0  0  0  0  0  0
  148.1251  140.1560  154.9204 N   0  0  0  0  0  0  0  0  0  0  0  0
  147.0050  139.8551  154.0344 C   0  0  1  0  0  0  0  0  0  0  0  0
  147.4437  139.3715  152.6453 C   0  0  0  0  0  0  0  0  0  0  0  0
  146.3554  138.3762  152.2034 C   0  0  0  0  0  0  0  0  0  0  0  0
  145.3820  138.3088  153.3160 N   0  3  1  0  0  0  0  0  0  0  0  0
  144.5792  137.0633  153.4196 C   0  0  0  0  0  0  0  0  0  0  0  0
  145.3638  135.9012  154.0514 C   0  0  0  0  0  0  0  0  0  0  0  0
  145.9580  136.3199  155.4001 C   0  0  0  0  0  0  0  0  0  0  0  0
  146.8573  137.5451  155.2076 C   0  0  0  0  0  0  0  0  0  0  0  0
  146.0953  138.7231  154.5446 C   0  0  1  0  0  0  0  0  0  0  0  0
  151.0340  140.4263  155.8088 N   0  0  0  0  0  0  0  0  0  0  0  0
  152.0335  140.1517  156.6500 C   0  0  0  0  0  0  0  0  0  0  0  0
  152.8706  139.2240  156.2084 N   0  0  0  0  0  0  0  0  0  0  0  0
  152.2922  138.9507  155.0016 C   0  0  0  0  0  0  0  0  0  0  0  0
  151.1995  139.6541  154.7059 N   0  0  0  0  0  0  0  0  0  0  0  0
  148.5689  142.2233  157.3829 H   0  0  0  0  0  0  0  0  0  0  0  0
  150.0642  141.6196  158.0818 H   0  0  0  0  0  0  0  0  0  0  0  0
  148.8272  140.4895  157.5451 H   0  0  0  0  0  0  0  0  0  0  0  0
  150.4271  142.3967  155.7553 H   0  0  0  0  0  0  0  0  0  0  0  0
  148.2436  139.5624  155.7286 H   0  0  0  0  0  0  0  0  0  0  0  0
  146.4015  140.7556  153.9009 H   0  0  0  0  0  0  0  0  0  0  0  0
  147.5490  140.2021  151.9467 H   0  0  0  0  0  0  0  0  0  0  0  0
  148.4068  138.8613  152.6951 H   0  0  0  0  0  0  0  0  0  0  0  0
  145.8563  138.6955  151.2881 H   0  0  0  0  0  0  0  0  0  0  0  0
  146.8014  137.3990  152.0152 H   0  0  0  0  0  0  0  0  0  0  0  0
  143.7061  137.2803  154.0361 H   0  0  0  0  0  0  0  0  0  0  0  0
  144.2006  136.7845  152.4356 H   0  0  0  0  0  0  0  0  0  0  0  0
  144.7065  135.0417  154.1863 H   0  0  0  0  0  0  0  0  0  0  0  0
  146.1603  135.5754  153.3816 H   0  0  0  0  0  0  0  0  0  0  0  0
  145.1593  136.5508  156.1063 H   0  0  0  0  0  0  0  0  0  0  0  0
  146.5307  135.4981  155.8308 H   0  0  0  0  0  0  0  0  0  0  0  0
  147.2582  137.8520  156.1742 H   0  0  0  0  0  0  0  0  0  0  0  0
  147.7160  137.2602  154.5983 H   0  0  0  0  0  0  0  0  0  0  0  0
  145.3673  139.1133  155.2574 H   0  0  0  0  0  0  0  0  0  0  0  0
  152.1579  140.6494  157.6005 H   0  0  0  0  0  0  0  0  0  0  0  0
  152.6944  138.2198  154.3156 H   0  0  0  0  0  0  0  0  0  0  0  0
  144.7242  139.0517  153.1262 H   0  0  0  0  0  0  0  0  0  0  0  0
  1  2  1  0  0  0  0
  1 20  1  0  0  0  0
  1 21  1  0  0  0  0
  1 22  1  0  0  0  0
  2  3  1  0  0  0  0
  2 15  1  0  0  0  0
  2 23  1  0  0  0  0
  3  4  2  0  0  0  0
  3  5  1  0  0  0  0
  5  6  1  0  0  0  0
  5 24  1  0  0  0  0
  6 14  1  0  0  0  0
  6  7  1  0  0  0  0
  6 25  1  0  0  0  0
  7  8  1  0  0  0  0
  7 26  1  0  0  0  0
  7 27  1  0  0  0  0
  8  9  1  0  0  0  0
  8 28  1  0  0  0  0
  8 29  1  0  0  0  0
  9 14  1  0  0  0  0
  9 10  1  0  0  0  0
  9 41  1  0  0  0  0
 10 11  1  0  0  0  0
 10 30  1  0  0  0  0
 10 31  1  0  0  0  0
 11 12  1  0  0  0  0
 11 32  1  0  0  0  0
 11 33  1  0  0  0  0
 12 13  1  0  0  0  0
 12 34  1  0  0  0  0
 12 35  1  0  0  0  0
 13 14  1  0  0  0  0
 13 36  1  0  0  0  0
 13 37  1  0  0  0  0
 14 38  1  0  0  0  0
 15 19  1  0  0  0  0
 15 16  1  0  0  0  0
 16 17  2  0  0  0  0
 16 39  1  0  0  0  0
 17 18  1  0  0  0  0
 18 19  2  0  0  0  0
 18 40  1  0  0  0  0
M  CHG  1   9   1
M  END
> <s_m_source_file>
AV-unprocessed.smi

> <i_m_source_file_index>
1406

> <i_lp_mmshare_version>
43012

> <i_f3d_flags>
0

> <s_epik_input>
bjFbY0hdbltjSF1uMVtDQEhdKFtDSDNdKUMoPU8pW05IXVtDQEhdKFtDSDJdW0NIMl0yKVtDQEBIXShOMjMpW0NIMl1bQ0gyXVtDSDJdW0NIMl0z

> <s_epik_cmdline>
J2VwaWtfcHl0aG9uJywgJy1waCcsICc3LjAnLCAnLXRuJywgJzgnLCAnLW1hJywgJzIwMCcsICctbWV0YWxfYmluZGluZycsICctaW1hZScsICc8aW5maWxlLm1hZT4nLCAnLW9tYWUnLCAnPG91dGZpbGUubWFlPic=

> <r_lp_tautomer_probability>
1

> <r_epik_Ionization_Penalty>
0.00197066

> <r_epik_Ionization_Penalty_Charging>
0.00196223

> <r_epik_Ionization_Penalty_Neutral>
8.43107e-06

> <r_epik_State_Penalty>
0.00133866

> <r_epik_Charging_Adjusted_Penalty>
0.00330089

> <i_epik_Tot_Q>
1

> <i_epik_Tot_abs_Q>
1

> <r_epik_Metal_State_Penalty>
-0

> <b_epik_Metal_Only>
0

> <s_lp_Force_Field>
OPLS_2005

> <r_lp_Energy>
41.142

> <b_lp_Chiralities_Consistent>
1

> <s_lp_Variant>
AV-unprocessed.smi:1406-3

> <Gold.Version>
5.8.1

> <Gold.Id.Protein>
6NUR|6NUR_protein|mol2

> <Gold.PLP.Fitness>
39.0126

> <Gold.PLP.PLP>
-26.8016

> <Gold.PLP.part.hbond>
-3.9012

> <Gold.PLP.part.metal>
0.0000

> <Gold.PLP.part.buried>
-0.7018

> <Gold.PLP.part.nonpolar>
-22.5624

> <Gold.PLP.part.repulsive>
0.3180

> <Gold.PLP.ligand.clash>
0.0000

> <Gold.PLP.ligand.torsion>
0.6441

> <Gold.PLP.Chemscore.Hbond>
4.4640

> <Gold.PLP.Chemscore.CHOScore>
0.0000

> <Gold.PLP.Chemscore.Metal>
0.0000

> <Gold.Chemscore.Hbonds>
donor molecule, donor type, donor heavy atom, donor atom, acceptor molecule, acceptor atom, score
      L1  H     9    41       P1 10175  2.00
      P1  H  7989  7998       L1    19  1.00
      P1  H  7997  8009       L1    17  1.00
      P1  H  8011  8017       L1     4  0.46

> <Gold.PLP.Chemscore.Internal.Correction>
0.1071

> <Gold.Rescore>
     Score         DG    S(hbond)    S(metal)    S(lipo)     H(rot)  DE(clash)    DE(int)     intcor
     11.05     -13.81       2.43        0.00      43.24       1.89       1.72       1.04       ----

> <Gold.Chemscore.Fitness>
11.0489

> <Gold.Chemscore.DG>
-13.8123

> <Gold.Chemscore.ZeroCoef>
-5.4800

> <Gold.Chemscore.Hbond>
2.4259

> <Gold.Chemscore.Metal>
0.0000

> <Gold.Chemscore.Lipo>
43.2411

> <Gold.Chemscore.Internal_Hbond>
0.0000

> <Gold.Chemscore.DEClash>
1.7207

> <Gold.Chemscore.DEInternal>
1.0427

> <Gold.Chemscore.Rot>
1.8865

> <Gold.Chemscore.Internal.Correction>
   9.000000E+99

> <Gold.Chemscore.Hbonds>
donor molecule, donor type, donor heavy atom, donor atom, acceptor molecule, acceptor atom, score
      L1  H     9    41       P1 10175  1.00
      P1  H  7989  7998       L1    19  0.23
      P1  H  7997  8009       L1    17  0.28
      P1  H  8011  8017       L1     4  0.46

> <Gold.Chemscore.Hbond.Weighted>
-8.1026

> <Gold.Chemscore.Metal.Weighted>
-0.0000

> <Gold.Chemscore.Lipo.Weighted>
-5.0592

> <Gold.Chemscore.Internal_Hbond.Weighted>
0.0000

> <Gold.Chemscore.DEClash.Weighted>
1.7207

> <Gold.Chemscore.DEInternal.Weighted>
1.0427

> <Gold.Chemscore.Rot.Weighted>
4.8295

> <Gold.Chemscore.Internal.Correction.Weighted>
   9.000000E+99

> <Gold.Protein.RotatedTorsions>
[ 6907 6896 6895 6894 ] final   56.91 input  -60.11 | X-H torsion
[ 7974 7965 7964 7962 ] final   71.37 input  175.53 | X-H torsion
[ 8008 7997 7996 7995 ] final -150.21 input   59.86 | X-H torsion
[ 10167 10162 10161 10158 ] final   48.47 input  -65.29 | X-H torsion
[ 10718 10713 10712 10709 ] final  -32.07 input   66.30 | X-H torsion
[ 10763 10752 10751 10750 ] final -152.18 input  -60.55 | X-H torsion
[ 11005 11000 10999 10996 ] final  167.76 input  -57.11 | X-H torsion

> <Gold.Protein.ActiveResidues>
 VAL166  LYS551  ARG553  GLY616  TRP617  ASP618  TYR619  PRO620  LYS621  CYS622 
 ASP623  PHE694  ASN695  SER759  ASP760  ASP761  ALA762  ILE779  LEU786  VAL792 
 PHE793  MET794  SER795  GLU796  ALA797  LYS798  CYS799  TRP800  GLU811  SER814 

> <Gold.Protein.RotatedAtoms>
  152.3682  134.6773  160.0184 H   0  0  0  0  0  0  0  0  0  0  0  0  # atno 6907 bound_to 6896
  151.7075  133.3306  159.3290 H   0  0  0  0  0  0  0  0  0  0  0  0  # atno 6908 bound_to 6896
  150.7653  134.6496  159.6325 H   0  0  0  0  0  0  0  0  0  0  0  0  # atno 6909 bound_to 6896
  145.7666  139.2824  143.1345 H   0  0  0  0  0  0  0  0  0  0  0  0  # atno 7974 bound_to 7965
  155.6200  140.0680  157.2681 H   0  0  0  0  0  0  0  0  0  0  0  0  # atno 8008 bound_to 7997
  154.4231  140.1786  156.1410 H   0  0  0  0  0  0  0  0  0  0  0  0  # atno 8009 bound_to 7997
  156.0017  140.3335  155.6855 H   0  0  0  0  0  0  0  0  0  0  0  0  # atno 8010 bound_to 7997
  140.2929  144.3025  150.6236 H   0  0  0  0  0  0  0  0  0  0  0  0  # atno 10167 bound_to 10162
  156.3795  130.4353  149.7481 H   0  0  0  0  0  0  0  0  0  0  0  0  # atno 10718 bound_to 10713
  154.8011  135.3242  154.7548 H   0  0  0  0  0  0  0  0  0  0  0  0  # atno 10763 bound_to 10752
  153.8216  135.6887  153.4831 H   0  0  0  0  0  0  0  0  0  0  0  0  # atno 10764 bound_to 10752
  153.1728  135.4616  154.9868 H   0  0  0  0  0  0  0  0  0  0  0  0  # atno 10765 bound_to 10752
  140.2802  134.7757  157.3751 H   0  0  0  0  0  0  0  0  0  0  0  0  # atno 11005 bound_to 11000
  146.0211  140.8347  142.9923 LP  0  0  0  0  0  0  0  0  0  0  0  0  # atno 17320 bound_to 7965
  144.6820  140.2630  143.7316 LP  0  0  0  0  0  0  0  0  0  0  0  0  # atno 17321 bound_to 7965
  140.5717  143.2180  151.7588 LP  0  0  0  0  0  0  0  0  0  0  0  0  # atno 17342 bound_to 10162
  139.4933  144.4207  151.9980 LP  0  0  0  0  0  0  0  0  0  0  0  0  # atno 17343 bound_to 10162
  156.4577  130.7937  151.2957 LP  0  0  0  0  0  0  0  0  0  0  0  0  # atno 17370 bound_to 10713
  157.7491  131.0075  150.3195 LP  0  0  0  0  0  0  0  0  0  0  0  0  # atno 17371 bound_to 10713
  140.1291  134.5119  155.8120 LP  0  0  0  0  0  0  0  0  0  0  0  0  # atno 17394 bound_to 11000
  141.2164  133.6783  156.7006 LP  0  0  0  0  0  0  0  0  0  0  0  0  # atno 17395 bound_to 11000

$$$$
