AV-unprocessed.smi:1346|AV-procd|sdf|5513|dock7
  -GOLD-   22720 5 93D 1   1.00000     0.00000
 Structure written by MMmdl.
 47 48  0  0  0  0  0  0  0  0  1 V2000
  154.0415  137.9679  156.5157 C   0  0  0  0  0  0  0  0  0  0  0  0
  152.8921  137.0351  156.2632 C   0  0  0  0  0  0  0  0  0  0  0  0
  152.6887  136.0226  157.0890 N   0  0  0  0  0  0  0  0  0  0  0  0
  151.5648  135.3497  156.6010 O   0  0  0  0  0  0  0  0  0  0  0  0
  151.1312  135.9900  155.4860 C   0  0  0  0  0  0  0  0  0  0  0  0
  149.9270  135.4187  154.8168 C   0  0  0  0  0  0  0  0  0  0  0  0
  151.9299  137.0667  155.2124 C   0  0  0  0  0  0  0  0  0  0  0  0
  151.8205  138.0532  154.0783 C   0  0  0  0  0  0  0  0  0  0  0  0
  151.2927  139.3877  154.6053 C   0  0  0  0  0  0  0  0  0  0  0  0
  150.4782  140.0316  153.9438 O   0  0  0  0  0  0  0  0  0  0  0  0
  151.7642  139.7915  155.7947 N   0  0  0  0  0  0  0  0  0  0  0  0
  151.4035  141.0354  156.4655 C   0  0  0  0  0  0  0  0  0  0  0  0
  151.7847  141.0134  157.9529 C   0  0  0  0  0  0  0  0  0  0  0  0
  151.5497  142.2960  158.5137 O   0  0  0  0  0  0  0  0  0  0  0  0
  152.6521  143.1900  158.4050 C   0  0  1  0  0  0  0  0  0  0  0  0
  152.1231  144.5377  157.8811 C   0  0  0  0  0  0  0  0  0  0  0  0
  151.1956  145.2251  158.8969 C   0  0  0  0  0  0  0  0  0  0  0  0
  151.8869  145.3914  160.2583 C   0  0  0  0  0  0  0  0  0  0  0  0
  152.3957  144.0433  160.7932 C   0  0  0  0  0  0  0  0  0  0  0  0
  153.3338  143.3518  159.7838 C   0  0  1  0  0  0  0  0  0  0  0  0
  153.8746  142.0214  160.3298 C   0  0  0  0  0  0  0  0  0  0  0  0
  153.8964  138.9234  156.0126 H   0  0  0  0  0  0  0  0  0  0  0  0
  154.9767  137.5403  156.1538 H   0  0  0  0  0  0  0  0  0  0  0  0
  154.1581  138.1734  157.5803 H   0  0  0  0  0  0  0  0  0  0  0  0
  149.4933  136.1313  154.1151 H   0  0  0  0  0  0  0  0  0  0  0  0
  149.1618  135.1625  155.5496 H   0  0  0  0  0  0  0  0  0  0  0  0
  150.1850  134.5151  154.2647 H   0  0  0  0  0  0  0  0  0  0  0  0
  152.7819  138.2026  153.5850 H   0  0  0  0  0  0  0  0  0  0  0  0
  151.1412  137.6948  153.3043 H   0  0  0  0  0  0  0  0  0  0  0  0
  152.4318  139.1986  156.2661 H   0  0  0  0  0  0  0  0  0  0  0  0
  151.8861  141.8766  155.9654 H   0  0  0  0  0  0  0  0  0  0  0  0
  150.3290  141.1857  156.3594 H   0  0  0  0  0  0  0  0  0  0  0  0
  151.2110  140.2512  158.4822 H   0  0  0  0  0  0  0  0  0  0  0  0
  152.8395  140.7573  158.0610 H   0  0  0  0  0  0  0  0  0  0  0  0
  153.3883  142.8173  157.6895 H   0  0  0  0  0  0  0  0  0  0  0  0
  152.9661  145.1949  157.6640 H   0  0  0  0  0  0  0  0  0  0  0  0
  151.5986  144.3903  156.9365 H   0  0  0  0  0  0  0  0  0  0  0  0
  150.8852  146.1986  158.5165 H   0  0  0  0  0  0  0  0  0  0  0  0
  150.2849  144.6377  159.0191 H   0  0  0  0  0  0  0  0  0  0  0  0
  152.7229  146.0852  160.1615 H   0  0  0  0  0  0  0  0  0  0  0  0
  151.1958  145.8383  160.9737 H   0  0  0  0  0  0  0  0  0  0  0  0
  152.9175  144.2018  161.7376 H   0  0  0  0  0  0  0  0  0  0  0  0
  151.5471  143.3950  161.0160 H   0  0  0  0  0  0  0  0  0  0  0  0
  154.1949  144.0066  159.6411 H   0  0  0  0  0  0  0  0  0  0  0  0
  153.0678  141.3194  160.5411 H   0  0  0  0  0  0  0  0  0  0  0  0
  154.4284  142.1747  161.2563 H   0  0  0  0  0  0  0  0  0  0  0  0
  154.5500  141.5487  159.6161 H   0  0  0  0  0  0  0  0  0  0  0  0
  1  2  1  0  0  0  0
  1 22  1  0  0  0  0
  1 23  1  0  0  0  0
  1 24  1  0  0  0  0
  2  7  1  0  0  0  0
  2  3  2  0  0  0  0
  3  4  1  0  0  0  0
  4  5  1  0  0  0  0
  5  6  1  0  0  0  0
  5  7  2  0  0  0  0
  6 25  1  0  0  0  0
  6 26  1  0  0  0  0
  6 27  1  0  0  0  0
  7  8  1  0  0  0  0
  8  9  1  0  0  0  0
  8 28  1  0  0  0  0
  8 29  1  0  0  0  0
  9 10  2  0  0  0  0
  9 11  1  0  0  0  0
 11 12  1  0  0  0  0
 11 30  1  0  0  0  0
 12 13  1  0  0  0  0
 12 31  1  0  0  0  0
 12 32  1  0  0  0  0
 13 14  1  0  0  0  0
 13 33  1  0  0  0  0
 13 34  1  0  0  0  0
 14 15  1  0  0  0  0
 15 20  1  0  0  0  0
 15 16  1  0  0  0  0
 15 35  1  0  0  0  0
 16 17  1  0  0  0  0
 16 36  1  0  0  0  0
 16 37  1  0  0  0  0
 17 18  1  0  0  0  0
 17 38  1  0  0  0  0
 17 39  1  0  0  0  0
 18 19  1  0  0  0  0
 18 40  1  0  0  0  0
 18 41  1  0  0  0  0
 19 20  1  0  0  0  0
 19 42  1  0  0  0  0
 19 43  1  0  0  0  0
 20 21  1  0  0  0  0
 20 44  1  0  0  0  0
 21 45  1  0  0  0  0
 21 46  1  0  0  0  0
 21 47  1  0  0  0  0
M  END
> <s_m_source_file>
AV-unprocessed.smi

> <i_m_source_file_index>
1346

> <i_lp_mmshare_version>
43012

> <i_f3d_flags>
0

> <s_epik_input>
W0NIM11jMW5vYyhbQ0gzXSljMVtDSDJdQyg9TylbTkhdW0NIMl1bQ0gyXU9bQ0BASF0yW0NIMl1bQ0gyXVtDSDJdW0NIMl1bQ0BIXTJbQ0gzXQ==

> <s_epik_cmdline>
J2VwaWtfcHl0aG9uJywgJy1waCcsICc3LjAnLCAnLXRuJywgJzgnLCAnLW1hJywgJzIwMCcsICctbWV0YWxfYmluZGluZycsICctaW1hZScsICc8aW5maWxlLm1hZT4nLCAnLW9tYWUnLCAnPG91dGZpbGUubWFlPic=

> <r_lp_tautomer_probability>
1

> <r_epik_Ionization_Penalty>
3.26154e-08

> <r_epik_Ionization_Penalty_Charging>
0

> <r_epik_Ionization_Penalty_Neutral>
3.26154e-08

> <r_epik_State_Penalty>
-0

> <r_epik_Charging_Adjusted_Penalty>
0

> <i_epik_Tot_Q>
0

> <i_epik_Tot_abs_Q>
0

> <r_epik_Metal_State_Penalty>
-0

> <b_epik_Metal_Only>
0

> <s_lp_Force_Field>
OPLS_2005

> <r_lp_Energy>
6.45158

> <b_lp_Chiralities_Consistent>
1

> <s_lp_Variant>
AV-unprocessed.smi:1346-2

> <Gold.Version>
5.8.1

> <Gold.Id.Protein>
6NUR|6NUR_protein|mol2

> <Gold.PLP.Fitness>
49.2248

> <Gold.PLP.PLP>
-48.9453

> <Gold.PLP.part.hbond>
-2.5239

> <Gold.PLP.part.metal>
0.0000

> <Gold.PLP.part.buried>
-6.5273

> <Gold.PLP.part.nonpolar>
-39.8832

> <Gold.PLP.part.repulsive>
0.6525

> <Gold.PLP.ligand.clash>
0.0000

> <Gold.PLP.ligand.torsion>
1.3942

> <Gold.PLP.Chemscore.Hbond>
1.0021

> <Gold.PLP.Chemscore.CHOScore>
0.0000

> <Gold.PLP.Chemscore.Metal>
0.0000

> <Gold.Chemscore.Hbonds>
donor molecule, donor type, donor heavy atom, donor atom, acceptor molecule, acceptor atom, score
      P1  H  7989  7998       L1    10  0.35

> <Gold.PLP.Chemscore.Internal.Correction>
0.0617

> <Gold.Rescore>
     Score         DG    S(hbond)    S(metal)    S(lipo)     H(rot)  DE(clash)    DE(int)     intcor
     19.64     -20.98       1.76        0.00     120.22       1.74       0.16       1.18       ----

> <Gold.Chemscore.Fitness>
19.6419

> <Gold.Chemscore.DG>
-20.9798

> <Gold.Chemscore.ZeroCoef>
-5.4800

> <Gold.Chemscore.Hbond>
1.7592

> <Gold.Chemscore.Metal>
0.0000

> <Gold.Chemscore.Lipo>
120.2243

> <Gold.Chemscore.Internal_Hbond>
0.0000

> <Gold.Chemscore.DEClash>
0.1623

> <Gold.Chemscore.DEInternal>
1.1756

> <Gold.Chemscore.Rot>
1.7352

> <Gold.Chemscore.Internal.Correction>
   9.000000E+99

> <Gold.Chemscore.Hbonds>
donor molecule, donor type, donor heavy atom, donor atom, acceptor molecule, acceptor atom, score
      P1  H  7989  7998       L1    10  0.01

> <Gold.Chemscore.Hbond.Weighted>
-5.8756

> <Gold.Chemscore.Metal.Weighted>
-0.0000

> <Gold.Chemscore.Lipo.Weighted>
-14.0662

> <Gold.Chemscore.Internal_Hbond.Weighted>
0.0000

> <Gold.Chemscore.DEClash.Weighted>
0.1623

> <Gold.Chemscore.DEInternal.Weighted>
1.1756

> <Gold.Chemscore.Rot.Weighted>
4.4420

> <Gold.Chemscore.Internal.Correction.Weighted>
   9.000000E+99

> <Gold.Protein.RotatedTorsions>
[ 6907 6896 6895 6894 ] final -164.38 input  -60.11 | X-H torsion
[ 7974 7965 7964 7962 ] final -106.49 input  175.53 | X-H torsion
[ 8008 7997 7996 7995 ] final  128.74 input   59.86 | X-H torsion
[ 10167 10162 10161 10158 ] final -134.12 input  -65.29 | X-H torsion
[ 10718 10713 10712 10709 ] final  -97.74 input   66.30 | X-H torsion
[ 10763 10752 10751 10750 ] final  172.18 input  -60.55 | X-H torsion
[ 11005 11000 10999 10996 ] final   51.97 input  -57.11 | X-H torsion

> <Gold.Protein.ActiveResidues>
 VAL166  LYS551  ARG553  GLY616  TRP617  ASP618  TYR619  PRO620  LYS621  CYS622 
 ASP623  PHE694  ASN695  SER759  ASP760  ASP761  ALA762  ILE779  LEU786  VAL792 
 PHE793  MET794  SER795  GLU796  ALA797  LYS798  CYS799  TRP800  GLU811  SER814 

> <Gold.Protein.RotatedAtoms>
  151.4109  133.3727  159.2743 H   0  0  0  0  0  0  0  0  0  0  0  0  # atno 6907 bound_to 6896
  150.9363  134.8777  159.7594 H   0  0  0  0  0  0  0  0  0  0  0  0  # atno 6908 bound_to 6896
  152.5051  134.4057  159.9484 H   0  0  0  0  0  0  0  0  0  0  0  0  # atno 6909 bound_to 6896
  145.2172  140.9120  143.3280 H   0  0  0  0  0  0  0  0  0  0  0  0  # atno 7974 bound_to 7965
  156.2921  140.2637  156.2486 H   0  0  0  0  0  0  0  0  0  0  0  0  # atno 8008 bound_to 7997
  154.9905  140.0388  157.2336 H   0  0  0  0  0  0  0  0  0  0  0  0  # atno 8009 bound_to 7997
  154.7690  140.2774  155.6158 H   0  0  0  0  0  0  0  0  0  0  0  0  # atno 8010 bound_to 7997
  139.8912  143.6720  152.2612 H   0  0  0  0  0  0  0  0  0  0  0  0  # atno 10167 bound_to 10162
  156.0090  130.5207  150.6419 H   0  0  0  0  0  0  0  0  0  0  0  0  # atno 10718 bound_to 10713
  154.4225  135.2758  155.1966 H   0  0  0  0  0  0  0  0  0  0  0  0  # atno 10763 bound_to 10752
  154.3906  135.6067  153.5844 H   0  0  0  0  0  0  0  0  0  0  0  0  # atno 10764 bound_to 10752
  152.9833  135.5902  154.4523 H   0  0  0  0  0  0  0  0  0  0  0  0  # atno 10765 bound_to 10752
  140.0888  134.5237  155.8872 H   0  0  0  0  0  0  0  0  0  0  0  0  # atno 11005 bound_to 11000
  144.9800  139.3793  143.6267 LP  0  0  0  0  0  0  0  0  0  0  0  0  # atno 17320 bound_to 7965
  146.3384  139.8936  142.8805 LP  0  0  0  0  0  0  0  0  0  0  0  0  # atno 17321 bound_to 7965
  139.7108  144.7620  151.1116 LP  0  0  0  0  0  0  0  0  0  0  0  0  # atno 17342 bound_to 10162
  140.7726  143.5334  150.9397 LP  0  0  0  0  0  0  0  0  0  0  0  0  # atno 17343 bound_to 10162
  157.4197  131.0835  151.1142 LP  0  0  0  0  0  0  0  0  0  0  0  0  # atno 17370 bound_to 10713
  157.1748  130.6283  149.5652 LP  0  0  0  0  0  0  0  0  0  0  0  0  # atno 17371 bound_to 10713
  141.2071  133.6661  156.6286 LP  0  0  0  0  0  0  0  0  0  0  0  0  # atno 17394 bound_to 11000
  140.3381  134.7872  157.4377 LP  0  0  0  0  0  0  0  0  0  0  0  0  # atno 17395 bound_to 11000

$$$$
