AV-unprocessed.smi:1021|AV-procd|sdf|4457|dock1
  -GOLD-   22720 2433D 1   1.00000     0.00000
 Structure written by MMmdl.
 43 45  0  0  0  0  0  0  0  0  2 V2000
  152.0259  135.4033  156.7368 O   0  0  0  0  0  0  0  0  0  0  0  0
  150.8626  136.0014  156.2054 C   0  0  0  0  0  0  0  0  0  0  0  0
  151.0121  136.2150  154.6918 C   0  0  0  0  0  0  0  0  0  0  0  0
  151.5010  137.6288  154.3266 C   0  0  0  0  0  0  0  0  0  0  0  0
  150.4037  138.6487  154.2901 C   0  0  0  0  0  0  0  0  0  0  0  0
  149.2721  138.6115  153.5285 N   0  3  0  0  0  0  0  0  0  0  0  0
  148.4917  139.7400  153.7811 C   0  0  0  0  0  0  0  0  0  0  0  0
  147.2678  140.1377  153.2517 C   0  0  0  0  0  0  0  0  0  0  0  0
  146.7387  141.3555  153.7270 C   0  0  0  0  0  0  0  0  0  0  0  0
  147.4225  142.1268  154.6891 C   0  0  0  0  0  0  0  0  0  0  0  0
  148.6628  141.7129  155.2180 C   0  0  0  0  0  0  0  0  0  0  0  0
  149.1782  140.5060  154.7450 C   0  0  0  0  0  0  0  0  0  0  0  0
  150.3500  139.7937  155.0294 N   0  0  0  0  0  0  0  0  0  0  0  0
  151.3063  140.3237  156.0150 C   0  0  0  0  0  0  0  0  0  0  0  0
  150.7569  140.3048  157.4554 C   0  0  1  0  0  0  0  0  0  0  0  0
  151.1605  139.1210  158.1161 O   0  0  0  0  0  0  0  0  0  0  0  0
  151.1652  141.5555  158.2176 C   0  0  0  0  0  0  0  0  0  0  0  0
  151.9284  141.4424  159.3997 C   0  0  0  0  0  0  0  0  0  0  0  0
  152.3034  142.5958  160.1159 C   0  0  0  0  0  0  0  0  0  0  0  0
  151.9151  143.8687  159.6560 C   0  0  0  0  0  0  0  0  0  0  0  0
  152.2746  144.9769  160.3458 F   0  0  0  0  0  0  0  0  0  0  0  0
  151.1512  143.9880  158.4791 C   0  0  0  0  0  0  0  0  0  0  0  0
  150.7760  142.8349  157.7623 C   0  0  0  0  0  0  0  0  0  0  0  0
  152.4111  135.9971  157.3632 H   0  0  0  0  0  0  0  0  0  0  0  0
  149.9973  135.3764  156.4283 H   0  0  0  0  0  0  0  0  0  0  0  0
  150.7072  136.9579  156.7050 H   0  0  0  0  0  0  0  0  0  0  0  0
  151.7234  135.4827  154.3081 H   0  0  0  0  0  0  0  0  0  0  0  0
  150.0599  136.0069  154.2012 H   0  0  0  0  0  0  0  0  0  0  0  0
  152.2515  137.9615  155.0444 H   0  0  0  0  0  0  0  0  0  0  0  0
  151.9884  137.6090  153.3516 H   0  0  0  0  0  0  0  0  0  0  0  0
  146.7435  139.5491  152.5132 H   0  0  0  0  0  0  0  0  0  0  0  0
  145.7906  141.7055  153.3452 H   0  0  0  0  0  0  0  0  0  0  0  0
  146.9875  143.0558  155.0279 H   0  0  0  0  0  0  0  0  0  0  0  0
  149.1801  142.3151  155.9499 H   0  0  0  0  0  0  0  0  0  0  0  0
  152.2455  139.7756  155.9391 H   0  0  0  0  0  0  0  0  0  0  0  0
  151.5334  141.3492  155.7212 H   0  0  0  0  0  0  0  0  0  0  0  0
  149.6675  140.2757  157.4122 H   0  0  0  0  0  0  0  0  0  0  0  0
  150.4169  138.7717  158.5836 H   0  0  0  0  0  0  0  0  0  0  0  0
  152.2285  140.4707  159.7634 H   0  0  0  0  0  0  0  0  0  0  0  0
  152.8886  142.5039  161.0192 H   0  0  0  0  0  0  0  0  0  0  0  0
  150.8516  144.9640  158.1267 H   0  0  0  0  0  0  0  0  0  0  0  0
  150.1867  142.9360  156.8626 H   0  0  0  0  0  0  0  0  0  0  0  0
  149.0523  137.8638  152.8832 H   0  0  0  0  0  0  0  0  0  0  0  0
  1  2  1  0  0  0  0
  1 24  1  0  0  0  0
  2  3  1  0  0  0  0
  2 25  1  0  0  0  0
  2 26  1  0  0  0  0
  3  4  1  0  0  0  0
  3 27  1  0  0  0  0
  3 28  1  0  0  0  0
  4  5  1  0  0  0  0
  4 29  1  0  0  0  0
  4 30  1  0  0  0  0
  5 13  1  0  0  0  0
  5  6  2  0  0  0  0
  6  7  1  0  0  0  0
  6 43  1  0  0  0  0
  7 12  2  0  0  0  0
  7  8  1  0  0  0  0
  8  9  2  0  0  0  0
  8 31  1  0  0  0  0
  9 10  1  0  0  0  0
  9 32  1  0  0  0  0
 10 11  2  0  0  0  0
 10 33  1  0  0  0  0
 11 12  1  0  0  0  0
 11 34  1  0  0  0  0
 12 13  1  0  0  0  0
 13 14  1  0  0  0  0
 14 15  1  0  0  0  0
 14 35  1  0  0  0  0
 14 36  1  0  0  0  0
 15 16  1  0  0  0  0
 15 17  1  0  0  0  0
 15 37  1  0  0  0  0
 16 38  1  0  0  0  0
 17 23  1  0  0  0  0
 17 18  2  0  0  0  0
 18 19  1  0  0  0  0
 18 39  1  0  0  0  0
 19 20  2  0  0  0  0
 19 40  1  0  0  0  0
 20 21  1  0  0  0  0
 20 22  1  0  0  0  0
 22 23  2  0  0  0  0
 22 41  1  0  0  0  0
 23 42  1  0  0  0  0
M  CHG  1   6   1
M  END
> <s_m_source_file>
AV-unprocessed.smi

> <i_m_source_file_index>
1021

> <i_lp_mmshare_version>
43012

> <i_f3d_flags>
0

> <s_epik_input>
W09IXVtDSDJdW0NIMl1bQ0gyXWMobjEpbihjKGMxMilbY0hdW2NIXVtjSF1bY0hdMilbQ0gyXVtDQEhdKFtPSF0pYzNbY0hdW2NIXWMoRilbY0hdW2NIXTM=

> <s_epik_cmdline>
J2VwaWtfcHl0aG9uJywgJy1waCcsICc3LjAnLCAnLXRuJywgJzgnLCAnLW1hJywgJzIwMCcsICctbWV0YWxfYmluZGluZycsICctaW1hZScsICc8aW5maWxlLm1hZT4nLCAnLW9tYWUnLCAnPG91dGZpbGUubWFlPic=

> <r_epik_Ionization_Penalty>
0.786441

> <r_epik_Ionization_Penalty_Charging>
0.786439

> <r_epik_Ionization_Penalty_Neutral>
1.96029e-06

> <r_epik_State_Penalty>
0.816472

> <r_epik_Charging_Adjusted_Penalty>
1.60291

> <i_epik_Tot_Q>
1

> <i_epik_Tot_abs_Q>
1

> <r_epik_Metal_State_Penalty>
4.73733

> <b_epik_Metal_Only>
0

> <s_lp_Force_Field>
OPLS_2005

> <r_lp_Energy>
16.4086

> <b_lp_Chiralities_Consistent>
1

> <s_lp_Variant>
AV-unprocessed.smi:1021-4

> <Gold.Version>
5.8.1

> <Gold.Id.Protein>
6NUR|6NUR_protein|mol2

> <Gold.PLP.Fitness>
56.5538

> <Gold.PLP.PLP>
-49.3567

> <Gold.PLP.part.hbond>
-3.0000

> <Gold.PLP.part.metal>
0.0000

> <Gold.PLP.part.buried>
3.3458

> <Gold.PLP.part.nonpolar>
-49.6149

> <Gold.PLP.part.repulsive>
0.0755

> <Gold.PLP.ligand.clash>
0.0000

> <Gold.PLP.ligand.torsion>
0.9424

> <Gold.PLP.Chemscore.Hbond>
3.0000

> <Gold.PLP.Chemscore.CHOScore>
0.0000

> <Gold.PLP.Chemscore.Metal>
0.0000

> <Gold.Chemscore.Hbonds>
donor molecule, donor type, donor heavy atom, donor atom, acceptor molecule, acceptor atom, score
      L1  H     6    43       P1  7948  2.00
      P1  H 10752 10763       L1     1  1.00

> <Gold.PLP.Chemscore.Internal.Correction>
0.0819

> <Gold.Rescore>
     Score         DG    S(hbond)    S(metal)    S(lipo)     H(rot)  DE(clash)    DE(int)     intcor
     14.25     -15.77       1.09        0.00     125.94       3.16       0.44       1.08       ----

> <Gold.Chemscore.Fitness>
14.2481

> <Gold.Chemscore.DG>
-15.7684

> <Gold.Chemscore.ZeroCoef>
-5.4800

> <Gold.Chemscore.Hbond>
1.0909

> <Gold.Chemscore.Metal>
0.0000

> <Gold.Chemscore.Lipo>
125.9439

> <Gold.Chemscore.Internal_Hbond>
0.0000

> <Gold.Chemscore.DEClash>
0.4363

> <Gold.Chemscore.DEInternal>
1.0839

> <Gold.Chemscore.Rot>
3.1604

> <Gold.Chemscore.Internal.Correction>
   9.000000E+99

> <Gold.Chemscore.Hbonds>
donor molecule, donor type, donor heavy atom, donor atom, acceptor molecule, acceptor atom, score
      L1  H     6    43       P1  7948  0.99
      P1  H 10752 10763       L1     1  0.21

> <Gold.Chemscore.Hbond.Weighted>
-3.6437

> <Gold.Chemscore.Metal.Weighted>
-0.0000

> <Gold.Chemscore.Lipo.Weighted>
-14.7354

> <Gold.Chemscore.Internal_Hbond.Weighted>
0.0000

> <Gold.Chemscore.DEClash.Weighted>
0.4363

> <Gold.Chemscore.DEInternal.Weighted>
1.0839

> <Gold.Chemscore.Rot.Weighted>
8.0907

> <Gold.Chemscore.Internal.Correction.Weighted>
   9.000000E+99

> <Gold.Protein.RotatedTorsions>
[ 6907 6896 6895 6894 ] final   10.36 input  -60.11 | X-H torsion
[ 7974 7965 7964 7962 ] final  -49.96 input  175.53 | X-H torsion
[ 8008 7997 7996 7995 ] final  -60.92 input   59.86 | X-H torsion
[ 10167 10162 10161 10158 ] final   75.46 input  -65.29 | X-H torsion
[ 10718 10713 10712 10709 ] final -146.05 input   66.30 | X-H torsion
[ 10763 10752 10751 10750 ] final  107.99 input  -60.55 | X-H torsion
[ 11005 11000 10999 10996 ] final   89.75 input  -57.11 | X-H torsion

> <Gold.Protein.ActiveResidues>
 VAL166  LYS551  ARG553  GLY616  TRP617  ASP618  TYR619  PRO620  LYS621  CYS622 
 ASP623  PHE694  ASN695  SER759  ASP760  ASP761  ALA762  ILE779  LEU786  VAL792 
 PHE793  MET794  SER795  GLU796  ALA797  LYS798  CYS799  TRP800  GLU811  SER814 

> <Gold.Protein.RotatedAtoms>
  151.7370  135.0862  160.0309 H   0  0  0  0  0  0  0  0  0  0  0  0  # atno 6907 bound_to 6896
  152.3504  133.6168  159.5949 H   0  0  0  0  0  0  0  0  0  0  0  0  # atno 6908 bound_to 6896
  150.7536  133.9499  159.3524 H   0  0  0  0  0  0  0  0  0  0  0  0  # atno 6909 bound_to 6896
  145.9350  140.7715  142.9580 H   0  0  0  0  0  0  0  0  0  0  0  0  # atno 7974 bound_to 7965
  154.4422  140.1029  156.6350 H   0  0  0  0  0  0  0  0  0  0  0  0  # atno 8008 bound_to 7997
  155.5563  140.3486  155.4462 H   0  0  0  0  0  0  0  0  0  0  0  0  # atno 8009 bound_to 7997
  156.0492  140.1300  157.0058 H   0  0  0  0  0  0  0  0  0  0  0  0  # atno 8010 bound_to 7997
  140.0027  144.5674  150.7723 H   0  0  0  0  0  0  0  0  0  0  0  0  # atno 10167 bound_to 10162
  156.3901  130.7881  151.2082 H   0  0  0  0  0  0  0  0  0  0  0  0  # atno 10718 bound_to 10713
  153.4145  135.3826  155.2071 H   0  0  0  0  0  0  0  0  0  0  0  0  # atno 10763 bound_to 10752
  154.8740  135.3802  154.4460 H   0  0  0  0  0  0  0  0  0  0  0  0  # atno 10764 bound_to 10752
  153.4973  135.7088  153.5913 H   0  0  0  0  0  0  0  0  0  0  0  0  # atno 10765 bound_to 10752
  139.8869  134.8571  156.3187 H   0  0  0  0  0  0  0  0  0  0  0  0  # atno 11005 bound_to 11000
  144.6770  140.2188  143.7369 LP  0  0  0  0  0  0  0  0  0  0  0  0  # atno 17320 bound_to 7965
  145.8376  139.2114  143.1846 LP  0  0  0  0  0  0  0  0  0  0  0  0  # atno 17321 bound_to 7965
  140.7412  143.2815  151.3584 LP  0  0  0  0  0  0  0  0  0  0  0  0  # atno 17342 bound_to 10162
  139.6260  144.0813  152.2434 LP  0  0  0  0  0  0  0  0  0  0  0  0  # atno 17343 bound_to 10162
  157.7498  131.0318  150.4198 LP  0  0  0  0  0  0  0  0  0  0  0  0  # atno 17370 bound_to 10713
  156.4458  130.4001  149.6667 LP  0  0  0  0  0  0  0  0  0  0  0  0  # atno 17371 bound_to 10713
  140.9801  133.7272  156.0660 LP  0  0  0  0  0  0  0  0  0  0  0  0  # atno 17394 bound_to 11000
  140.7760  134.3779  157.5498 LP  0  0  0  0  0  0  0  0  0  0  0  0  # atno 17395 bound_to 11000

$$$$
