AV-unprocessed.smi:703|AV-procd|sdf|3426|dock6
  -GOLD-   22720 0413D 1   1.00000     0.00000
 Structure written by MMmdl.
 38 39  0  0  0  0  0  0  0  0  2 V2000
  148.0138  139.6910  157.1948 C   0  0  0  0  0  0  0  0  0  0  0  0
  147.6314  141.1380  156.8557 C   0  0  0  0  0  0  0  0  0  0  0  0
  148.8179  141.9830  156.5831 N   0  3  1  0  0  0  0  0  0  0  0  0
  149.6619  142.2712  157.7642 C   0  0  0  0  0  0  0  0  0  0  0  0
  151.0670  142.4992  157.2094 C   0  0  1  0  0  0  0  0  0  0  0  0
  152.1992  142.4293  158.2481 C   0  0  0  0  0  0  0  0  0  0  0  0
  151.1423  141.5024  156.0468 C   0  0  1  0  0  0  0  0  0  0  0  0
  151.5545  140.1716  156.5095 N   0  0  0  0  0  0  0  0  0  0  0  0
  152.1271  139.0432  155.3378 S   0  0  0  0  0  0  0  0  0  0  0  0
  153.1010  139.7404  154.4838 O   0  0  0  0  0  0  0  0  0  0  0  0
  152.5249  137.8259  156.0607 O   0  0  0  0  0  0  0  0  0  0  0  0
  150.6167  138.6924  154.3437 C   0  0  0  0  0  0  0  0  0  0  0  0
  150.2480  137.2439  154.4882 C   0  0  0  0  0  0  0  0  0  0  0  0
  149.0035  136.6843  154.8900 C   0  0  0  0  0  0  0  0  0  0  0  0
  149.2294  135.3387  154.8424 C   0  0  0  0  0  0  0  0  0  0  0  0
  150.5034  135.0843  154.4511 O   0  0  0  0  0  0  0  0  0  0  0  0
  151.1463  136.3073  154.2285 N   0  0  0  0  0  0  0  0  0  0  0  0
  149.7006  141.4612  155.5108 C   0  0  0  0  0  0  0  0  0  0  0  0
  147.1276  139.1079  157.4464 H   0  0  0  0  0  0  0  0  0  0  0  0
  148.6892  139.6522  158.0499 H   0  0  0  0  0  0  0  0  0  0  0  0
  148.5029  139.1954  156.3560 H   0  0  0  0  0  0  0  0  0  0  0  0
  146.9523  141.1629  156.0020 H   0  0  0  0  0  0  0  0  0  0  0  0
  147.0882  141.5619  157.7014 H   0  0  0  0  0  0  0  0  0  0  0  0
  149.2902  143.1320  158.3208 H   0  0  0  0  0  0  0  0  0  0  0  0
  149.6647  141.4117  158.4367 H   0  0  0  0  0  0  0  0  0  0  0  0
  151.0864  143.4998  156.7740 H   0  0  0  0  0  0  0  0  0  0  0  0
  152.2030  141.4806  158.7851 H   0  0  0  0  0  0  0  0  0  0  0  0
  152.0936  143.2222  158.9889 H   0  0  0  0  0  0  0  0  0  0  0  0
  153.1729  142.5491  157.7724 H   0  0  0  0  0  0  0  0  0  0  0  0
  151.8462  141.8448  155.2868 H   0  0  0  0  0  0  0  0  0  0  0  0
  152.2093  140.2456  157.2882 H   0  0  0  0  0  0  0  0  0  0  0  0
  149.8150  139.3449  154.6908 H   0  0  0  0  0  0  0  0  0  0  0  0
  150.8223  138.9409  153.3028 H   0  0  0  0  0  0  0  0  0  0  0  0
  148.0893  137.1894  155.1640 H   0  0  0  0  0  0  0  0  0  0  0  0
  148.6145  134.4750  155.0483 H   0  0  0  0  0  0  0  0  0  0  0  0
  149.4104  140.4601  155.1881 H   0  0  0  0  0  0  0  0  0  0  0  0
  149.6000  142.1162  154.6450 H   0  0  0  0  0  0  0  0  0  0  0  0
  148.4781  142.8733  156.2480 H   0  0  0  0  0  0  0  0  0  0  0  0
  1  2  1  0  0  0  0
  1 19  1  0  0  0  0
  1 20  1  0  0  0  0
  1 21  1  0  0  0  0
  2  3  1  0  0  0  0
  2 22  1  0  0  0  0
  2 23  1  0  0  0  0
  3 18  1  0  0  0  0
  3  4  1  0  0  0  0
  3 38  1  0  0  0  0
  4  5  1  0  0  0  0
  4 24  1  0  0  0  0
  4 25  1  0  0  0  0
  5  6  1  0  0  0  0
  5  7  1  0  0  0  0
  5 26  1  0  0  0  0
  6 27  1  0  0  0  0
  6 28  1  0  0  0  0
  6 29  1  0  0  0  0
  7  8  1  0  0  0  0
  7 18  1  0  0  0  0
  7 30  1  0  0  0  0
  8  9  1  0  0  0  0
  8 31  1  0  0  0  0
  9 10  2  0  0  0  0
  9 11  2  0  0  0  0
  9 12  1  0  0  0  0
 12 13  1  0  0  0  0
 12 32  1  0  0  0  0
 12 33  1  0  0  0  0
 13 17  2  0  0  0  0
 13 14  1  0  0  0  0
 14 15  2  0  0  0  0
 14 34  1  0  0  0  0
 15 16  1  0  0  0  0
 15 35  1  0  0  0  0
 16 17  1  0  0  0  0
 18 36  1  0  0  0  0
 18 37  1  0  0  0  0
M  CHG  1   3   1
M  END
> <s_m_source_file>
AV-unprocessed.smi

> <i_m_source_file_index>
703

> <i_lp_mmshare_version>
43012

> <i_f3d_flags>
0

> <s_epik_input>
W0NIM11bQ0gyXU4xW0NIMl1bQ0BASF0oW0NIM10pW0NASF0oW0NIMl0xKVtOSF1TKD1PKSg9TylbQ0gyXWMyW2NIXVtjSF1vbjI=

> <s_epik_cmdline>
J2VwaWtfcHl0aG9uJywgJy1waCcsICc3LjAnLCAnLXRuJywgJzgnLCAnLW1hJywgJzIwMCcsICctbWV0YWxfYmluZGluZycsICctaW1hZScsICc8aW5maWxlLm1hZT4nLCAnLW9tYWUnLCAnPG91dGZpbGUubWFlPic=

> <r_epik_Ionization_Penalty>
0.00324529

> <r_epik_Ionization_Penalty_Charging>
0.0019384

> <r_epik_Ionization_Penalty_Neutral>
0.00130689

> <r_epik_State_Penalty>
0.00218682

> <r_epik_Charging_Adjusted_Penalty>
0.00412522

> <i_epik_Tot_Q>
1

> <i_epik_Tot_abs_Q>
1

> <r_epik_Metal_State_Penalty>
0.310831

> <b_epik_Metal_Only>
0

> <s_lp_Force_Field>
OPLS_2005

> <r_lp_Energy>
19.6136

> <b_lp_Chiralities_Consistent>
1

> <s_lp_Variant>
AV-unprocessed.smi:703-1

> <Gold.Version>
5.8.1

> <Gold.Id.Protein>
6NUR|6NUR_protein|mol2

> <Gold.PLP.Fitness>
37.9588

> <Gold.PLP.PLP>
-26.2901

> <Gold.PLP.part.hbond>
-4.0000

> <Gold.PLP.part.metal>
0.0000

> <Gold.PLP.part.buried>
-5.7682

> <Gold.PLP.part.nonpolar>
-17.6377

> <Gold.PLP.part.repulsive>
0.3356

> <Gold.PLP.ligand.clash>
0.0000

> <Gold.PLP.ligand.torsion>
0.4011

> <Gold.PLP.Chemscore.Hbond>
4.1033

> <Gold.PLP.Chemscore.CHOScore>
0.0000

> <Gold.PLP.Chemscore.Metal>
0.0000

> <Gold.Chemscore.Hbonds>
donor molecule, donor type, donor heavy atom, donor atom, acceptor molecule, acceptor atom, score
      L1  H     3    38       P1  8028  1.98
      P1  H  7989  7998       L1    10  0.19
      P1  H  7997  8008       L1    10  0.49
      P1  H 10752 10763       L1    17  0.80

> <Gold.PLP.Chemscore.Internal.Correction>
0.1610

> <Gold.Rescore>
     Score         DG    S(hbond)    S(metal)    S(lipo)     H(rot)  DE(clash)    DE(int)     intcor
     15.63     -17.03       2.87        0.00      59.34       1.94       0.01       1.38       ----

> <Gold.Chemscore.Fitness>
15.6316

> <Gold.Chemscore.DG>
-17.0261

> <Gold.Chemscore.ZeroCoef>
-5.4800

> <Gold.Chemscore.Hbond>
2.8651

> <Gold.Chemscore.Metal>
0.0000

> <Gold.Chemscore.Lipo>
59.3449

> <Gold.Chemscore.Internal_Hbond>
0.0000

> <Gold.Chemscore.DEClash>
0.0106

> <Gold.Chemscore.DEInternal>
1.3839

> <Gold.Chemscore.Rot>
1.9400

> <Gold.Chemscore.Internal.Correction>
   9.000000E+99

> <Gold.Chemscore.Hbonds>
donor molecule, donor type, donor heavy atom, donor atom, acceptor molecule, acceptor atom, score
      L1  H     3    38       P1  8028  0.85
      P1  H  7989  7998       L1    10  0.02
      P1  H  7997  8008       L1    10  0.04
      P1  H 10752 10763       L1    17  0.12

> <Gold.Chemscore.Hbond.Weighted>
-9.5693

> <Gold.Chemscore.Metal.Weighted>
-0.0000

> <Gold.Chemscore.Lipo.Weighted>
-6.9434

> <Gold.Chemscore.Internal_Hbond.Weighted>
0.0000

> <Gold.Chemscore.DEClash.Weighted>
0.0106

> <Gold.Chemscore.DEInternal.Weighted>
1.3839

> <Gold.Chemscore.Rot.Weighted>
4.9665

> <Gold.Chemscore.Internal.Correction.Weighted>
   9.000000E+99

> <Gold.Protein.RotatedTorsions>
[ 6907 6896 6895 6894 ] final   86.49 input  -60.11 | X-H torsion
[ 7974 7965 7964 7962 ] final   -3.88 input  175.53 | X-H torsion
[ 8008 7997 7996 7995 ] final  -30.82 input   59.86 | X-H torsion
[ 10167 10162 10161 10158 ] final  120.28 input  -65.29 | X-H torsion
[ 10718 10713 10712 10709 ] final  108.82 input   66.30 | X-H torsion
[ 10763 10752 10751 10750 ] final   45.89 input  -60.55 | X-H torsion
[ 11005 11000 10999 10996 ] final -167.19 input  -57.11 | X-H torsion

> <Gold.Protein.ActiveResidues>
 VAL166  LYS551  ARG553  GLY616  TRP617  ASP618  TYR619  PRO620  LYS621  CYS622 
 ASP623  PHE694  ASN695  SER759  ASP760  ASP761  ALA762  ILE779  LEU786  VAL792 
 PHE793  MET794  SER795  GLU796  ALA797  LYS798  CYS799  TRP800  GLU811  SER814 

> <Gold.Protein.RotatedAtoms>
  152.5395  134.2423  159.8866 H   0  0  0  0  0  0  0  0  0  0  0  0  # atno 6907 bound_to 6896
  151.2390  133.4403  159.2614 H   0  0  0  0  0  0  0  0  0  0  0  0  # atno 6908 bound_to 6896
  151.0644  134.9771  159.8333 H   0  0  0  0  0  0  0  0  0  0  0  0  # atno 6909 bound_to 6896
  146.2382  140.1788  142.8332 H   0  0  0  0  0  0  0  0  0  0  0  0  # atno 7974 bound_to 7965
  154.4236  140.1781  156.1467 H   0  0  0  0  0  0  0  0  0  0  0  0  # atno 8008 bound_to 7997
  155.9948  140.3365  155.6763 H   0  0  0  0  0  0  0  0  0  0  0  0  # atno 8009 bound_to 7997
  155.6324  140.0671  157.2635 H   0  0  0  0  0  0  0  0  0  0  0  0  # atno 8010 bound_to 7997
  139.5992  144.7051  151.3104 H   0  0  0  0  0  0  0  0  0  0  0  0  # atno 10167 bound_to 10162
  157.6569  131.0901  150.6362 H   0  0  0  0  0  0  0  0  0  0  0  0  # atno 10718 bound_to 10713
  152.9818  135.6025  154.3510 H   0  0  0  0  0  0  0  0  0  0  0  0  # atno 10763 bound_to 10752
  154.3199  135.2770  155.2526 H   0  0  0  0  0  0  0  0  0  0  0  0  # atno 10764 bound_to 10752
  154.4698  135.5945  153.6369 H   0  0  0  0  0  0  0  0  0  0  0  0  # atno 10765 bound_to 10752
  140.5560  134.5380  157.5133 H   0  0  0  0  0  0  0  0  0  0  0  0  # atno 11005 bound_to 11000
  144.9951  140.8582  143.5315 LP  0  0  0  0  0  0  0  0  0  0  0  0  # atno 17320 bound_to 7965
  145.1799  139.2357  143.5298 LP  0  0  0  0  0  0  0  0  0  0  0  0  # atno 17321 bound_to 7965
  140.7236  143.7067  150.7802 LP  0  0  0  0  0  0  0  0  0  0  0  0  # atno 17342 bound_to 10162
  140.0639  143.5127  152.2614 LP  0  0  0  0  0  0  0  0  0  0  0  0  # atno 17343 bound_to 10162
  156.6667  130.4528  149.5670 LP  0  0  0  0  0  0  0  0  0  0  0  0  # atno 17370 bound_to 10713
  156.2027  130.6630  151.1185 LP  0  0  0  0  0  0  0  0  0  0  0  0  # atno 17371 bound_to 10713
  139.9431  134.7751  156.0628 LP  0  0  0  0  0  0  0  0  0  0  0  0  # atno 17394 bound_to 11000
  141.1143  133.6633  156.3055 LP  0  0  0  0  0  0  0  0  0  0  0  0  # atno 17395 bound_to 11000

$$$$
