AV-unprocessed.smi:120|AV-procd|sdf|1138|dock6
  -GOLD-   2262018273D 1   1.00000     0.00000
 Structure written by MMmdl.
 45 48  0  0  0  0  0  0  0  0  1 V2000
  148.4443  131.4710  159.8372 C   0  0  0  0  0  0  0  0  0  0  0  0
  147.6469  131.8938  160.9338 O   0  0  0  0  0  0  0  0  0  0  0  0
  147.5247  133.2472  161.1662 C   0  0  0  0  0  0  0  0  0  0  0  0
  146.7468  133.6368  162.2731 C   0  0  0  0  0  0  0  0  0  0  0  0
  146.5760  134.9971  162.5824 C   0  0  0  0  0  0  0  0  0  0  0  0
  147.1836  135.9824  161.7835 C   0  0  0  0  0  0  0  0  0  0  0  0
  147.9686  135.6274  160.6622 C   0  0  0  0  0  0  0  0  0  0  0  0
  148.6059  136.6637  159.8197 C   0  0  0  0  0  0  0  0  0  0  0  0
  147.9283  137.7113  159.3673 N   0  0  0  0  0  0  0  0  0  0  0  0
  148.8972  138.4193  158.6406 O   0  0  0  0  0  0  0  0  0  0  0  0
  150.0436  137.7015  158.7471 C   0  0  0  0  0  0  0  0  0  0  0  0
  151.2772  138.2143  158.0685 C   0  0  0  0  0  0  0  0  0  0  0  0
  151.1010  139.5942  157.6454 N   0  0  0  0  0  0  0  0  0  0  0  0
  150.3814  139.8430  156.4502 C   0  0  0  0  0  0  0  0  0  0  0  0
  149.8924  138.9354  155.7757 O   0  0  0  0  0  0  0  0  0  0  0  0
  150.2830  141.2523  156.0865 C   0  0  0  0  0  0  0  0  0  0  0  0
  149.6084  141.6065  154.9796 F   0  0  0  0  0  0  0  0  0  0  0  0
  150.8593  142.2114  156.8431 C   0  0  0  0  0  0  0  0  0  0  0  0
  151.5763  141.9353  157.9962 N   0  0  0  0  0  0  0  0  0  0  0  0
  152.2249  143.0265  158.8211 C   0  0  1  0  0  0  0  0  0  0  0  0
  152.1382  144.3804  158.0918 C   0  0  0  0  0  0  0  0  0  0  0  0
  151.5680  145.2962  159.1562 C   0  0  0  0  0  0  0  0  0  0  0  0
  150.7294  144.3327  159.9824 C   0  0  0  0  0  0  0  0  0  0  0  0
  151.5466  143.1706  160.0369 O   0  0  0  0  0  0  0  0  0  0  0  0
  151.7133  140.5991  158.4301 C   0  0  0  0  0  0  0  0  0  0  0  0
  152.3544  140.3284  159.4487 O   0  0  0  0  0  0  0  0  0  0  0  0
  149.9193  136.5901  159.4714 N   0  0  0  0  0  0  0  0  0  0  0  0
  148.1289  134.2516  160.3680 C   0  0  0  0  0  0  0  0  0  0  0  0
  148.4445  130.3820  159.7919 H   0  0  0  0  0  0  0  0  0  0  0  0
  149.4798  131.7958  159.9475 H   0  0  0  0  0  0  0  0  0  0  0  0
  148.0477  131.8400  158.8904 H   0  0  0  0  0  0  0  0  0  0  0  0
  146.2780  132.8855  162.8918 H   0  0  0  0  0  0  0  0  0  0  0  0
  145.9779  135.2863  163.4339 H   0  0  0  0  0  0  0  0  0  0  0  0
  147.0355  137.0213  162.0399 H   0  0  0  0  0  0  0  0  0  0  0  0
  152.1403  138.1435  158.7310 H   0  0  0  0  0  0  0  0  0  0  0  0
  151.5194  137.6206  157.1849 H   0  0  0  0  0  0  0  0  0  0  0  0
  150.7439  143.2329  156.5150 H   0  0  0  0  0  0  0  0  0  0  0  0
  153.2441  142.6869  159.0152 H   0  0  0  0  0  0  0  0  0  0  0  0
  153.1176  144.6952  157.7306 H   0  0  0  0  0  0  0  0  0  0  0  0
  151.4534  144.3102  157.2450 H   0  0  0  0  0  0  0  0  0  0  0  0
  152.3718  145.7099  159.7664 H   0  0  0  0  0  0  0  0  0  0  0  0
  150.9886  146.1231  158.7445 H   0  0  0  0  0  0  0  0  0  0  0  0
  150.5059  144.7135  160.9789 H   0  0  0  0  0  0  0  0  0  0  0  0
  149.7880  144.1080  159.4793 H   0  0  0  0  0  0  0  0  0  0  0  0
  148.7323  133.9775  159.5165 H   0  0  0  0  0  0  0  0  0  0  0  0
  1  2  1  0  0  0  0
  1 29  1  0  0  0  0
  1 30  1  0  0  0  0
  1 31  1  0  0  0  0
  2  3  1  0  0  0  0
  3 28  1  0  0  0  0
  3  4  2  0  0  0  0
  4  5  1  0  0  0  0
  4 32  1  0  0  0  0
  5  6  2  0  0  0  0
  5 33  1  0  0  0  0
  6  7  1  0  0  0  0
  6 34  1  0  0  0  0
  7  8  1  0  0  0  0
  7 28  2  0  0  0  0
  8 27  1  0  0  0  0
  8  9  2  0  0  0  0
  9 10  1  0  0  0  0
 10 11  1  0  0  0  0
 11 12  1  0  0  0  0
 11 27  2  0  0  0  0
 12 13  1  0  0  0  0
 12 35  1  0  0  0  0
 12 36  1  0  0  0  0
 13 25  1  0  0  0  0
 13 14  1  0  0  0  0
 14 15  2  0  0  0  0
 14 16  1  0  0  0  0
 16 17  1  0  0  0  0
 16 18  2  0  0  0  0
 18 19  1  0  0  0  0
 18 37  1  0  0  0  0
 19 20  1  0  0  0  0
 19 25  1  0  0  0  0
 20 24  1  0  0  0  0
 20 21  1  0  0  0  0
 20 38  1  0  0  0  0
 21 22  1  0  0  0  0
 21 39  1  0  0  0  0
 21 40  1  0  0  0  0
 22 23  1  0  0  0  0
 22 41  1  0  0  0  0
 22 42  1  0  0  0  0
 23 24  1  0  0  0  0
 23 43  1  0  0  0  0
 23 44  1  0  0  0  0
 25 26  2  0  0  0  0
 28 45  1  0  0  0  0
M  END
> <s_m_source_file>
AV-unprocessed.smi

> <i_m_source_file_index>
120

> <i_lp_mmshare_version>
43012

> <i_f3d_flags>
0

> <s_epik_input>
W0NIM11PYzFbY0hdW2NIXVtjSF1jKFtjSF0xKS1jMm5vYyhuMilbQ0gyXW4zYyg9TyljKEYpW2NIXW4oYzM9TylbQ0BASF00W0NIMl1bQ0gyXVtDSDJdTzQ=

> <s_epik_cmdline>
J2VwaWtfcHl0aG9uJywgJy1waCcsICc3LjAnLCAnLXRuJywgJzgnLCAnLW1hJywgJzIwMCcsICctbWV0YWxfYmluZGluZycsICctaW1hZScsICc8aW5maWxlLm1hZT4nLCAnLW9tYWUnLCAnPG91dGZpbGUubWFlPic=

> <r_lp_tautomer_probability>
1

> <r_epik_Ionization_Penalty>
4.93314e-09

> <r_epik_Ionization_Penalty_Charging>
4.92654e-09

> <r_epik_Ionization_Penalty_Neutral>
6.60436e-12

> <r_epik_State_Penalty>
-0

> <r_epik_Charging_Adjusted_Penalty>
4.92654e-09

> <i_epik_Tot_Q>
0

> <i_epik_Tot_abs_Q>
0

> <r_epik_Metal_State_Penalty>
-0

> <b_epik_Metal_Only>
0

> <s_epik_Chemistry_Notes>
This compound contains an acetal/aminal-like group ( X-CH(R)-Y where X, Y are N, S, or O) that may be acid/base labile, releasing an aldehyde.

> <s_lp_Force_Field>
OPLS_2005

> <r_lp_Energy>
36.9113

> <b_lp_Chiralities_Consistent>
1

> <s_lp_Variant>
AV-unprocessed.smi:120-2

> <Gold.Version>
5.8.1

> <Gold.Id.Protein>
6NUR|6NUR_protein|mol2

> <Gold.PLP.Fitness>
60.7961

> <Gold.PLP.PLP>
-56.1343

> <Gold.PLP.part.hbond>
-3.3315

> <Gold.PLP.part.metal>
0.0000

> <Gold.PLP.part.buried>
-7.7575

> <Gold.PLP.part.nonpolar>
-47.2419

> <Gold.PLP.part.repulsive>
0.0299

> <Gold.PLP.ligand.clash>
0.0000

> <Gold.PLP.ligand.torsion>
1.4114

> <Gold.PLP.Chemscore.Hbond>
1.4960

> <Gold.PLP.Chemscore.CHOScore>
0.9884

> <Gold.PLP.Chemscore.Metal>
0.0000

> <Gold.Chemscore.Hbonds>
donor molecule, donor type, donor heavy atom, donor atom, acceptor molecule, acceptor atom, score
      P1  H  6896  6909       L1    27  1.00
      P1  H  6934  6947       L1     9  0.35
      L1  C    18    37       P1  8028  1.00

> <Gold.PLP.Chemscore.Internal.Correction>
0.0314

> <Gold.Rescore>
     Score         DG    S(hbond)    S(metal)    S(lipo)     H(rot)  DE(clash)    DE(int)     intcor
     15.10     -16.86       1.34        0.00     102.59       1.99       0.03       1.73       ----

> <Gold.Chemscore.Fitness>
15.1003

> <Gold.Chemscore.DG>
-16.8566

> <Gold.Chemscore.ZeroCoef>
-5.4800

> <Gold.Chemscore.Hbond>
1.3361

> <Gold.Chemscore.Metal>
0.0000

> <Gold.Chemscore.Lipo>
102.5901

> <Gold.Chemscore.Internal_Hbond>
0.0000

> <Gold.Chemscore.DEClash>
0.0276

> <Gold.Chemscore.DEInternal>
1.7288

> <Gold.Chemscore.Rot>
1.9879

> <Gold.Chemscore.Internal.Correction>
   9.000000E+99

> <Gold.Chemscore.Hbonds>
donor molecule, donor type, donor heavy atom, donor atom, acceptor molecule, acceptor atom, score
      P1  H  6896  6909       L1    27  0.94
      P1  H  6934  6947       L1     9  0.19

> <Gold.Chemscore.Hbond.Weighted>
-4.4626

> <Gold.Chemscore.Metal.Weighted>
-0.0000

> <Gold.Chemscore.Lipo.Weighted>
-12.0030

> <Gold.Chemscore.Internal_Hbond.Weighted>
0.0000

> <Gold.Chemscore.DEClash.Weighted>
0.0276

> <Gold.Chemscore.DEInternal.Weighted>
1.7288

> <Gold.Chemscore.Rot.Weighted>
5.0890

> <Gold.Chemscore.Internal.Correction.Weighted>
   9.000000E+99

> <Gold.Protein.RotatedTorsions>
[ 6907 6896 6895 6894 ] final   71.40 input  -60.11 | X-H torsion
[ 7974 7965 7964 7962 ] final  -88.92 input  175.53 | X-H torsion
[ 8008 7997 7996 7995 ] final  -81.07 input   59.86 | X-H torsion
[ 10167 10162 10161 10158 ] final   86.11 input  -65.29 | X-H torsion
[ 10718 10713 10712 10709 ] final -120.47 input   66.30 | X-H torsion
[ 10763 10752 10751 10750 ] final  174.02 input  -60.55 | X-H torsion
[ 11005 11000 10999 10996 ] final  -72.44 input  -57.11 | X-H torsion

> <Gold.Protein.ActiveResidues>
 VAL166  LYS551  ARG553  GLY616  TRP617  ASP618  TYR619  PRO620  LYS621  CYS622 
 ASP623  PHE694  ASN695  SER759  ASP760  ASP761  ALA762  ILE779  LEU786  VAL792 
 PHE793  MET794  SER795  GLU796  ALA797  LYS798  CYS799  TRP800  GLU811  SER814 

> <Gold.Protein.RotatedAtoms>
  152.4807  134.4726  159.9640 H   0  0  0  0  0  0  0  0  0  0  0  0  # atno 6907 bound_to 6896
  151.4732  133.3558  159.2834 H   0  0  0  0  0  0  0  0  0  0  0  0  # atno 6908 bound_to 6896
  150.8878  134.8304  159.7333 H   0  0  0  0  0  0  0  0  0  0  0  0  # atno 6909 bound_to 6896
  145.4467  140.9560  143.2045 H   0  0  0  0  0  0  0  0  0  0  0  0  # atno 7974 bound_to 7965
  154.5946  140.0653  156.9286 H   0  0  0  0  0  0  0  0  0  0  0  0  # atno 8008 bound_to 7997
  155.2236  140.3332  155.4294 H   0  0  0  0  0  0  0  0  0  0  0  0  # atno 8009 bound_to 7997
  156.2279  140.1827  156.7302 H   0  0  0  0  0  0  0  0  0  0  0  0  # atno 8010 bound_to 7997
  139.8909  144.6386  150.8740 H   0  0  0  0  0  0  0  0  0  0  0  0  # atno 10167 bound_to 10162
  156.1261  130.6360  150.9544 H   0  0  0  0  0  0  0  0  0  0  0  0  # atno 10718 bound_to 10713
  154.4481  135.2764  155.1800 H   0  0  0  0  0  0  0  0  0  0  0  0  # atno 10763 bound_to 10752
  154.3639  135.6123  153.5708 H   0  0  0  0  0  0  0  0  0  0  0  0  # atno 10764 bound_to 10752
  152.9845  135.5841  154.4821 H   0  0  0  0  0  0  0  0  0  0  0  0  # atno 10765 bound_to 10752
  141.1608  133.6847  156.7059 H   0  0  0  0  0  0  0  0  0  0  0  0  # atno 11005 bound_to 11000
  144.8087  139.6003  143.7039 LP  0  0  0  0  0  0  0  0  0  0  0  0  # atno 17320 bound_to 7965
  146.2527  139.6234  142.9416 LP  0  0  0  0  0  0  0  0  0  0  0  0  # atno 17321 bound_to 7965
  140.7726  143.3511  151.2013 LP  0  0  0  0  0  0  0  0  0  0  0  0  # atno 17342 bound_to 10162
  139.7111  143.9376  152.2947 LP  0  0  0  0  0  0  0  0  0  0  0  0  # atno 17343 bound_to 10162
  157.6442  131.0906  150.8188 LP  0  0  0  0  0  0  0  0  0  0  0  0  # atno 17370 bound_to 10713
  156.8279  130.5006  149.5335 LP  0  0  0  0  0  0  0  0  0  0  0  0  # atno 17371 bound_to 10713
  140.2923  134.8230  157.4027 LP  0  0  0  0  0  0  0  0  0  0  0  0  # atno 17394 bound_to 11000
  140.1335  134.5064  155.8087 LP  0  0  0  0  0  0  0  0  0  0  0  0  # atno 17395 bound_to 11000

$$$$
