AV-unprocessed.smi:110|AV-procd|sdf|1077|dock2
  -GOLD-   2262018163D 1   1.00000     0.00000
 Structure written by MMmdl.
 46 50  0  0  0  0  0  0  0  0  1 V2000
  145.9893  137.0670  154.4916 O   0  0  0  0  0  0  0  0  0  0  0  0
  147.3654  136.7942  154.6496 C   0  0  0  0  0  0  0  0  0  0  0  0
  148.1216  138.0805  155.0280 C   0  0  1  0  0  0  0  0  0  0  0  0
  149.5330  137.8685  155.0175 O   0  0  0  0  0  0  0  0  0  0  0  0
  150.2101  139.0466  154.6912 C   0  0  2  0  0  0  0  0  0  0  0  0
  151.0643  139.4385  155.8572 N   0  0  0  0  0  0  0  0  0  0  0  0
  152.1751  138.7748  156.3271 C   0  0  0  0  0  0  0  0  0  0  0  0
  152.7540  139.3140  157.3644 N   0  0  0  0  0  0  0  0  0  0  0  0
  151.9722  140.4256  157.6533 C   0  0  0  0  0  0  0  0  0  0  0  0
  152.0249  141.4535  158.6381 C   0  0  0  0  0  0  0  0  0  0  0  0
  152.9718  141.5516  159.5997 N   0  0  0  0  0  0  0  0  0  0  0  0
  153.9437  140.4566  159.7349 C   0  0  0  0  0  0  0  0  0  0  0  0
  154.5218  140.5152  161.1616 C   0  0  0  0  0  0  0  0  0  0  0  0
  153.8359  141.7295  161.6976 C   0  0  0  0  0  0  0  0  0  0  0  0
  154.0032  142.3139  162.9650 C   0  0  0  0  0  0  0  0  0  0  0  0
  153.2655  143.4800  163.2620 C   0  0  0  0  0  0  0  0  0  0  0  0
  152.3926  144.0385  162.2994 C   0  0  0  0  0  0  0  0  0  0  0  0
  152.2419  143.4347  161.0316 C   0  0  0  0  0  0  0  0  0  0  0  0
  152.9675  142.2593  160.7487 C   0  0  0  0  0  0  0  0  0  0  0  0
  151.0901  142.4350  158.5752 N   0  0  0  0  0  0  0  0  0  0  0  0
  150.1407  142.3965  157.6373 C   0  0  0  0  0  0  0  0  0  0  0  0
  149.9599  141.4946  156.6717 N   0  0  0  0  0  0  0  0  0  0  0  0
  150.9107  140.5173  156.7075 C   0  0  0  0  0  0  0  0  0  0  0  0
  149.1585  140.1186  154.3703 C   0  0  1  0  0  0  0  0  0  0  0  0
  149.5058  140.9388  153.2701 O   0  0  0  0  0  0  0  0  0  0  0  0
  147.9273  139.2683  154.0765 C   0  0  1  0  0  0  0  0  0  0  0  0
  147.8835  138.8267  152.7283 O   0  0  0  0  0  0  0  0  0  0  0  0
  147.8176  138.4000  156.0247 H   0  0  0  0  0  0  0  0  0  0  0  0
  150.9053  138.8531  153.8731 H   0  0  0  0  0  0  0  0  0  0  0  0
  148.9743  140.7394  155.2472 H   0  0  0  0  0  0  0  0  0  0  0  0
  147.0047  139.8095  154.2883 H   0  0  0  0  0  0  0  0  0  0  0  0
  145.5060  136.5418  155.1110 H   0  0  0  0  0  0  0  0  0  0  0  0
  147.5126  136.0114  155.3943 H   0  0  0  0  0  0  0  0  0  0  0  0
  147.7312  136.4106  153.6967 H   0  0  0  0  0  0  0  0  0  0  0  0
  152.5523  137.8725  155.8679 H   0  0  0  0  0  0  0  0  0  0  0  0
  153.4653  139.4934  159.5511 H   0  0  0  0  0  0  0  0  0  0  0  0
  154.7348  140.5815  158.9949 H   0  0  0  0  0  0  0  0  0  0  0  0
  154.2573  139.6349  161.7478 H   0  0  0  0  0  0  0  0  0  0  0  0
  155.6046  140.6416  161.1639 H   0  0  0  0  0  0  0  0  0  0  0  0
  154.6799  141.8855  163.6896 H   0  0  0  0  0  0  0  0  0  0  0  0
  153.3734  143.9524  164.2273 H   0  0  0  0  0  0  0  0  0  0  0  0
  151.8398  144.9361  162.5335 H   0  0  0  0  0  0  0  0  0  0  0  0
  151.5834  143.8726  160.2959 H   0  0  0  0  0  0  0  0  0  0  0  0
  149.4249  143.2048  157.6624 H   0  0  0  0  0  0  0  0  0  0  0  0
  149.3423  140.4555  152.4744 H   0  0  0  0  0  0  0  0  0  0  0  0
  148.3852  138.0281  152.6622 H   0  0  0  0  0  0  0  0  0  0  0  0
  1  2  1  0  0  0  0
  1 32  1  0  0  0  0
  2  3  1  0  0  0  0
  2 33  1  0  0  0  0
  2 34  1  0  0  0  0
  3 28  1  0  0  0  0
  3 26  1  0  0  0  0
  3  4  1  0  0  0  0
  4  5  1  0  0  0  0
  5 29  1  0  0  0  0
  5  6  1  0  0  0  0
  5 24  1  0  0  0  0
  6 23  1  0  0  0  0
  6  7  1  0  0  0  0
  7  8  2  0  0  0  0
  7 35  1  0  0  0  0
  8  9  1  0  0  0  0
  9 23  2  0  0  0  0
  9 10  1  0  0  0  0
 10 11  1  0  0  0  0
 10 20  2  0  0  0  0
 11 19  1  0  0  0  0
 11 12  1  0  0  0  0
 12 13  1  0  0  0  0
 12 36  1  0  0  0  0
 12 37  1  0  0  0  0
 13 14  1  0  0  0  0
 13 38  1  0  0  0  0
 13 39  1  0  0  0  0
 14 19  2  0  0  0  0
 14 15  1  0  0  0  0
 15 16  2  0  0  0  0
 15 40  1  0  0  0  0
 16 17  1  0  0  0  0
 16 41  1  0  0  0  0
 17 18  2  0  0  0  0
 17 42  1  0  0  0  0
 18 19  1  0  0  0  0
 18 43  1  0  0  0  0
 20 21  1  0  0  0  0
 21 22  2  0  0  0  0
 21 44  1  0  0  0  0
 22 23  1  0  0  0  0
 24 30  1  0  0  0  0
 24 25  1  0  0  0  0
 24 26  1  0  0  0  0
 25 45  1  0  0  0  0
 26 31  1  0  0  0  0
 26 27  1  0  0  0  0
 27 46  1  0  0  0  0
M  END
> <s_m_source_file>
AV-unprocessed.smi

> <i_m_source_file_index>
110

> <i_lp_mmshare_version>
43012

> <i_f3d_flags>
0

> <s_epik_input>
W09IXVtDSDJdW0NASF0xT1tDQEhdKFtDQEhdKFtPSF0pW0NAQEhdMVtPSF0pbihbY0hdbjIpYyhjMjMpbltjSF1uYzNOKFtDSDJdW0NIMl00KWMoYzQ1KVtjSF1bY0hdW2NIXVtjSF01

> <s_epik_cmdline>
J2VwaWtfcHl0aG9uJywgJy1waCcsICc3LjAnLCAnLXRuJywgJzgnLCAnLW1hJywgJzIwMCcsICctbWV0YWxfYmluZGluZycsICctaW1hZScsICc8aW5maWxlLm1hZT4nLCAnLW9tYWUnLCAnPG91dGZpbGUubWFlPic=

> <r_lp_tautomer_probability>
1

> <r_epik_Ionization_Penalty>
0.00068475

> <r_epik_Ionization_Penalty_Charging>
0

> <r_epik_Ionization_Penalty_Neutral>
0.00068475

> <r_epik_State_Penalty>
0.000417442

> <r_epik_Charging_Adjusted_Penalty>
0.000417442

> <i_epik_Tot_Q>
0

> <i_epik_Tot_abs_Q>
0

> <r_epik_Metal_State_Penalty>
-0

> <b_epik_Metal_Only>
0

> <s_epik_Chemistry_Notes>
This compound contains an acetal/aminal-like group ( X-CH(R)-Y where X, Y are N, S, or O) that may be acid/base labile, releasing an aldehyde.

> <s_lp_Force_Field>
OPLS_2005

> <r_lp_Energy>
64.5887

> <b_lp_Chiralities_Consistent>
1

> <s_lp_Variant>
AV-unprocessed.smi:110-15

> <Gold.Version>
5.8.1

> <Gold.Id.Protein>
6NUR|6NUR_protein|mol2

> <Gold.PLP.Fitness>
64.2403

> <Gold.PLP.PLP>
-52.1663

> <Gold.PLP.part.hbond>
-5.2226

> <Gold.PLP.part.metal>
0.0000

> <Gold.PLP.part.buried>
-2.7823

> <Gold.PLP.part.nonpolar>
-44.4066

> <Gold.PLP.part.repulsive>
0.2533

> <Gold.PLP.ligand.clash>
0.0000

> <Gold.PLP.ligand.torsion>
0.2322

> <Gold.PLP.Chemscore.Hbond>
3.3593

> <Gold.PLP.Chemscore.CHOScore>
0.7735

> <Gold.PLP.Chemscore.Metal>
0.0000

> <Gold.Chemscore.Hbonds>
donor molecule, donor type, donor heavy atom, donor atom, acceptor molecule, acceptor atom, score
      L1  H    25    45       P1  7957  0.68
      L1  H    27    46       P1  7948  1.00
      P1  H  7989  7998       L1    25  0.17
      P1  H  7997  8009       L1     8  1.00
      P1  H  8011  8017       L1    25  0.50
      L1  C    21    44       P1  8028  0.85

> <Gold.PLP.Chemscore.Internal.Correction>
0.1402

> <Gold.Rescore>
     Score         DG    S(hbond)    S(metal)    S(lipo)     H(rot)  DE(clash)    DE(int)     intcor
     12.75     -17.53       2.45        0.00     107.09       3.38       0.63       4.16       ----

> <Gold.Chemscore.Fitness>
12.7466

> <Gold.Chemscore.DG>
-17.5347

> <Gold.Chemscore.ZeroCoef>
-5.4800

> <Gold.Chemscore.Hbond>
2.4514

> <Gold.Chemscore.Metal>
0.0000

> <Gold.Chemscore.Lipo>
107.0876

> <Gold.Chemscore.Internal_Hbond>
0.0000

> <Gold.Chemscore.DEClash>
0.6266

> <Gold.Chemscore.DEInternal>
4.1615

> <Gold.Chemscore.Rot>
3.3837

> <Gold.Chemscore.Internal.Correction>
   9.000000E+99

> <Gold.Chemscore.Hbonds>
donor molecule, donor type, donor heavy atom, donor atom, acceptor molecule, acceptor atom, score
      L1  H    25    45       P1  7957  0.65
      L1  H    27    46       P1  7948  0.92
      P1  H  7989  7998       L1    25  0.02
      P1  H  7997  8009       L1     8  0.20
      P1  H  8011  8017       L1    25  0.02

> <Gold.Chemscore.Hbond.Weighted>
-8.1877

> <Gold.Chemscore.Metal.Weighted>
-0.0000

> <Gold.Chemscore.Lipo.Weighted>
-12.5293

> <Gold.Chemscore.Internal_Hbond.Weighted>
0.0000

> <Gold.Chemscore.DEClash.Weighted>
0.6266

> <Gold.Chemscore.DEInternal.Weighted>
4.1615

> <Gold.Chemscore.Rot.Weighted>
8.6622

> <Gold.Chemscore.Internal.Correction.Weighted>
   9.000000E+99

> <Gold.Protein.RotatedTorsions>
[ 6907 6896 6895 6894 ] final  -45.31 input  -60.11 | X-H torsion
[ 7974 7965 7964 7962 ] final  -24.38 input  175.53 | X-H torsion
[ 8008 7997 7996 7995 ] final  179.85 input   59.86 | X-H torsion
[ 10167 10162 10161 10158 ] final   33.73 input  -65.29 | X-H torsion
[ 10718 10713 10712 10709 ] final  158.37 input   66.30 | X-H torsion
[ 10763 10752 10751 10750 ] final   54.13 input  -60.55 | X-H torsion
[ 11005 11000 10999 10996 ] final -120.56 input  -57.11 | X-H torsion

> <Gold.Protein.ActiveResidues>
 VAL166  LYS551  ARG553  GLY616  TRP617  ASP618  TYR619  PRO620  LYS621  CYS622 
 ASP623  PHE694  ASN695  SER759  ASP760  ASP761  ALA762  ILE779  LEU786  VAL792 
 PHE793  MET794  SER795  GLU796  ALA797  LYS798  CYS799  TRP800  GLU811  SER814 

> <Gold.Protein.RotatedAtoms>
  150.9234  134.8651  159.7503 H   0  0  0  0  0  0  0  0  0  0  0  0  # atno 6907 bound_to 6896
  152.5003  134.4185  159.9482 H   0  0  0  0  0  0  0  0  0  0  0  0  # atno 6908 bound_to 6896
  151.4217  133.3656  159.2792 H   0  0  0  0  0  0  0  0  0  0  0  0  # atno 6909 bound_to 6896
  146.1558  140.4744  142.8592 H   0  0  0  0  0  0  0  0  0  0  0  0  # atno 7974 bound_to 7965
  156.0387  140.1298  157.0179 H   0  0  0  0  0  0  0  0  0  0  0  0  # atno 8008 bound_to 7997
  154.4381  140.1034  156.6276 H   0  0  0  0  0  0  0  0  0  0  0  0  # atno 8009 bound_to 7997
  155.5699  140.3466  155.4515 H   0  0  0  0  0  0  0  0  0  0  0  0  # atno 8010 bound_to 7997
  140.4380  144.1229  150.6169 H   0  0  0  0  0  0  0  0  0  0  0  0  # atno 10167 bound_to 10162
  157.1788  131.0627  151.2143 H   0  0  0  0  0  0  0  0  0  0  0  0  # atno 10718 bound_to 10713
  152.9801  135.5755  154.4854 H   0  0  0  0  0  0  0  0  0  0  0  0  # atno 10763 bound_to 10752
  154.4396  135.2775  155.1859 H   0  0  0  0  0  0  0  0  0  0  0  0  # atno 10764 bound_to 10752
  154.3532  135.6204  153.5707 H   0  0  0  0  0  0  0  0  0  0  0  0  # atno 10765 bound_to 10752
  141.0134  134.0231  157.3382 H   0  0  0  0  0  0  0  0  0  0  0  0  # atno 11005 bound_to 11000
  144.7961  140.6126  143.6509 LP  0  0  0  0  0  0  0  0  0  0  0  0  # atno 17320 bound_to 7965
  145.4712  139.1503  143.3813 LP  0  0  0  0  0  0  0  0  0  0  0  0  # atno 17321 bound_to 7965
  140.4351  143.2551  151.9545 LP  0  0  0  0  0  0  0  0  0  0  0  0  # atno 17342 bound_to 10162
  139.4788  144.5707  151.8092 LP  0  0  0  0  0  0  0  0  0  0  0  0  # atno 17343 bound_to 10162
  157.3972  130.7314  149.6741 LP  0  0  0  0  0  0  0  0  0  0  0  0  # atno 17370 bound_to 10713
  155.9727  130.4130  150.4062 LP  0  0  0  0  0  0  0  0  0  0  0  0  # atno 17371 bound_to 10713
  139.9103  135.0188  156.7663 LP  0  0  0  0  0  0  0  0  0  0  0  0  # atno 17394 bound_to 11000
  140.6695  133.9572  155.7848 LP  0  0  0  0  0  0  0  0  0  0  0  0  # atno 17395 bound_to 11000

$$$$
