AV-unprocessed.smi:2855|AV-procd|sdf|10989|dock7
  -GOLD-   2272015443D 1   1.00000     0.00000
 Structure written by MMmdl.
 46 47  0  0  0  0  0  0  0  0  2 V2000
  154.8822  140.5620  162.5957 C   0  0  0  0  0  0  0  0  0  0  0  0
  154.2670  141.5320  161.5770 C   0  0  2  0  0  0  0  0  0  0  0  0
  153.3403  142.5524  162.2583 C   0  0  0  0  0  0  0  0  0  0  0  0
  152.7328  143.5267  161.2382 C   0  0  0  0  0  0  0  0  0  0  0  0
  151.9592  142.7893  160.1188 C   0  0  1  0  0  0  0  0  0  0  0  0
  151.2557  143.7580  159.1206 C   0  0  0  0  0  0  0  0  0  0  0  0
  152.2181  144.7037  158.3788 C   0  0  0  0  0  0  0  0  0  0  0  0
  150.1146  144.5534  159.7783 C   0  0  0  0  0  0  0  0  0  0  0  0
  152.8824  141.7384  159.4388 C   0  0  2  0  0  0  0  0  0  0  0  0
  152.1435  140.9414  158.4601 N   0  0  0  0  0  0  0  0  0  0  0  0
  152.6091  139.8718  157.7965 C   0  0  0  0  0  0  0  0  0  0  0  0
  153.7488  139.4274  157.9415 O   0  0  0  0  0  0  0  0  0  0  0  0
  151.6278  139.2339  156.8029 C   0  0  0  0  0  0  0  0  0  0  0  0
  150.6982  138.2762  157.4239 N   0  0  0  0  0  0  0  0  0  0  0  0
  149.3216  138.5343  157.3006 C   0  0  0  0  0  0  0  0  0  0  0  0
  148.3944  137.7151  157.8321 C   0  0  0  0  0  0  0  0  0  0  0  0
  148.8501  136.5326  158.5522 C   0  0  0  0  0  0  0  0  0  0  0  0
  148.0179  135.7770  159.0503 O   0  0  0  0  0  0  0  0  0  0  0  0
  150.1963  136.3214  158.6381 N   0  5  0  0  0  0  0  0  0  0  0  0
  151.1279  137.1615  158.0888 C   0  0  0  0  0  0  0  0  0  0  0  0
  152.3380  136.9494  158.1740 O   0  0  0  0  0  0  0  0  0  0  0  0
  153.5023  140.7795  160.4745 C   0  0  0  0  0  0  0  0  0  0  0  0
  154.1130  139.9788  163.1032 H   0  0  0  0  0  0  0  0  0  0  0  0
  155.4497  141.0988  163.3564 H   0  0  0  0  0  0  0  0  0  0  0  0
  155.5632  139.8632  162.1090 H   0  0  0  0  0  0  0  0  0  0  0  0
  155.0858  142.0790  161.1073 H   0  0  0  0  0  0  0  0  0  0  0  0
  152.5405  142.0330  162.7881 H   0  0  0  0  0  0  0  0  0  0  0  0
  153.8945  143.1142  163.0112 H   0  0  0  0  0  0  0  0  0  0  0  0
  152.0775  144.2180  161.7667 H   0  0  0  0  0  0  0  0  0  0  0  0
  153.5333  144.1286  160.8075 H   0  0  0  0  0  0  0  0  0  0  0  0
  151.1635  142.2255  160.6092 H   0  0  0  0  0  0  0  0  0  0  0  0
  150.7710  143.1489  158.3578 H   0  0  0  0  0  0  0  0  0  0  0  0
  152.7023  145.4040  159.0588 H   0  0  0  0  0  0  0  0  0  0  0  0
  151.6826  145.2932  157.6344 H   0  0  0  0  0  0  0  0  0  0  0  0
  152.9972  144.1566  157.8495 H   0  0  0  0  0  0  0  0  0  0  0  0
  150.4871  145.2805  160.4996 H   0  0  0  0  0  0  0  0  0  0  0  0
  149.4180  143.8932  160.2956 H   0  0  0  0  0  0  0  0  0  0  0  0
  149.5446  145.1045  159.0297 H   0  0  0  0  0  0  0  0  0  0  0  0
  153.7071  142.2620  158.9532 H   0  0  0  0  0  0  0  0  0  0  0  0
  151.1948  141.2295  158.2702 H   0  0  0  0  0  0  0  0  0  0  0  0
  151.0767  140.0238  156.2895 H   0  0  0  0  0  0  0  0  0  0  0  0
  152.2067  138.7373  156.0229 H   0  0  0  0  0  0  0  0  0  0  0  0
  149.0698  139.4268  156.7470 H   0  0  0  0  0  0  0  0  0  0  0  0
  147.3405  137.9262  157.7256 H   0  0  0  0  0  0  0  0  0  0  0  0
  154.1771  140.0856  159.9706 H   0  0  0  0  0  0  0  0  0  0  0  0
  152.7185  140.1700  160.9273 H   0  0  0  0  0  0  0  0  0  0  0  0
  1  2  1  0  0  0  0
  1 23  1  0  0  0  0
  1 24  1  0  0  0  0
  1 25  1  0  0  0  0
  2 22  1  0  0  0  0
  2  3  1  0  0  0  0
  2 26  1  0  0  0  0
  3  4  1  0  0  0  0
  3 27  1  0  0  0  0
  3 28  1  0  0  0  0
  4  5  1  0  0  0  0
  4 29  1  0  0  0  0
  4 30  1  0  0  0  0
  5  6  1  0  0  0  0
  5  9  1  0  0  0  0
  5 31  1  0  0  0  0
  6  7  1  0  0  0  0
  6  8  1  0  0  0  0
  6 32  1  0  0  0  0
  7 33  1  0  0  0  0
  7 34  1  0  0  0  0
  7 35  1  0  0  0  0
  8 36  1  0  0  0  0
  8 37  1  0  0  0  0
  8 38  1  0  0  0  0
  9 10  1  0  0  0  0
  9 22  1  0  0  0  0
  9 39  1  0  0  0  0
 10 11  1  0  0  0  0
 10 40  1  0  0  0  0
 11 12  2  0  0  0  0
 11 13  1  0  0  0  0
 13 14  1  0  0  0  0
 13 41  1  0  0  0  0
 13 42  1  0  0  0  0
 14 20  1  0  0  0  0
 14 15  1  0  0  0  0
 15 16  2  0  0  0  0
 15 43  1  0  0  0  0
 16 17  1  0  0  0  0
 16 44  1  0  0  0  0
 17 18  2  0  0  0  0
 17 19  1  0  0  0  0
 19 20  1  0  0  0  0
 20 21  2  0  0  0  0
 22 45  1  0  0  0  0
 22 46  1  0  0  0  0
M  CHG  1  19  -1
M  END
> <s_m_source_file>
AV-unprocessed.smi

> <i_m_source_file_index>
2855

> <i_lp_mmshare_version>
43012

> <i_f3d_flags>
0

> <s_epik_input>
W0NIM11bQ0BASF0xW0NIMl1bQ0gyXVtDQEBIXShbQ0hdKFtDSDNdKVtDSDNdKVtDQEhdKFtDSDJdMSlbTkhdQyg9TylbQ0gyXW4yW2NIXVtjSF1jKD1PKVtuSF1jMj1P

> <s_epik_cmdline>
J2VwaWtfcHl0aG9uJywgJy1waCcsICc3LjAnLCAnLXRuJywgJzgnLCAnLW1hJywgJzIwMCcsICctbWV0YWxfYmluZGluZycsICctaW1hZScsICc8aW5maWxlLm1hZT4nLCAnLW9tYWUnLCAnPG91dGZpbGUubWFlPic=

> <r_lp_tautomer_probability>
0.999537

> <r_epik_Ionization_Penalty>
3.12102

> <r_epik_Ionization_Penalty_Charging>
2.9581e-08

> <r_epik_Ionization_Penalty_Neutral>
3.12102

> <r_epik_State_Penalty>
3.12011

> <r_epik_Charging_Adjusted_Penalty>
3.12011

> <i_epik_Tot_Q>
-1

> <i_epik_Tot_abs_Q>
1

> <r_epik_Metal_State_Penalty>
0.463583

> <b_epik_Metal_Only>
1

> <s_lp_Force_Field>
OPLS_2005

> <r_lp_Energy>
24.0282

> <b_lp_Chiralities_Consistent>
1

> <s_lp_Variant>
AV-unprocessed.smi:2855-13

> <Gold.Version>
5.8.1

> <Gold.Id.Protein>
6NUR|6NUR_protein|mol2

> <Gold.PLP.Fitness>
48.8066

> <Gold.PLP.PLP>
-40.6897

> <Gold.PLP.part.hbond>
-2.4193

> <Gold.PLP.part.metal>
0.0000

> <Gold.PLP.part.buried>
-4.0764

> <Gold.PLP.part.nonpolar>
-32.1158

> <Gold.PLP.part.repulsive>
0.1099

> <Gold.PLP.ligand.clash>
0.0000

> <Gold.PLP.ligand.torsion>
0.4718

> <Gold.PLP.Chemscore.Hbond>
3.0000

> <Gold.PLP.Chemscore.CHOScore>
0.0000

> <Gold.PLP.Chemscore.Metal>
0.0000

> <Gold.Chemscore.Hbonds>
donor molecule, donor type, donor heavy atom, donor atom, acceptor molecule, acceptor atom, score
      P1  H  6896  6907       L1    19  1.98
      P1  H  7997  8009       L1    12  0.75

> <Gold.PLP.Chemscore.Internal.Correction>
0.0605

> <Gold.Rescore>
     Score         DG    S(hbond)    S(metal)    S(lipo)     H(rot)  DE(clash)    DE(int)     intcor
     18.01     -19.84       1.81        0.00     110.63       1.81       0.03       1.80       ----

> <Gold.Chemscore.Fitness>
18.0067

> <Gold.Chemscore.DG>
-19.8359

> <Gold.Chemscore.ZeroCoef>
-5.4800

> <Gold.Chemscore.Hbond>
1.8101

> <Gold.Chemscore.Metal>
0.0000

> <Gold.Chemscore.Lipo>
110.6299

> <Gold.Chemscore.Internal_Hbond>
0.0000

> <Gold.Chemscore.DEClash>
0.0310

> <Gold.Chemscore.DEInternal>
1.7982

> <Gold.Chemscore.Rot>
1.8100

> <Gold.Chemscore.Internal.Correction>
   9.000000E+99

> <Gold.Chemscore.Hbonds>
donor molecule, donor type, donor heavy atom, donor atom, acceptor molecule, acceptor atom, score
      P1  H  6896  6907       L1    19  0.86
      P1  H  7997  8009       L1    12  0.72

> <Gold.Chemscore.Hbond.Weighted>
-6.0457

> <Gold.Chemscore.Metal.Weighted>
-0.0000

> <Gold.Chemscore.Lipo.Weighted>
-12.9437

> <Gold.Chemscore.Internal_Hbond.Weighted>
0.0000

> <Gold.Chemscore.DEClash.Weighted>
0.0310

> <Gold.Chemscore.DEInternal.Weighted>
1.7982

> <Gold.Chemscore.Rot.Weighted>
4.6335

> <Gold.Chemscore.Internal.Correction.Weighted>
   9.000000E+99

> <Gold.Protein.RotatedTorsions>
[ 6907 6896 6895 6894 ] final  -59.13 input  -60.11 | X-H torsion
[ 7974 7965 7964 7962 ] final  109.59 input  175.53 | X-H torsion
[ 8008 7997 7996 7995 ] final  135.60 input   59.86 | X-H torsion
[ 10167 10162 10161 10158 ] final  -40.84 input  -65.29 | X-H torsion
[ 10718 10713 10712 10709 ] final -156.94 input   66.30 | X-H torsion
[ 10763 10752 10751 10750 ] final   85.80 input  -60.55 | X-H torsion
[ 11005 11000 10999 10996 ] final -149.49 input  -57.11 | X-H torsion

> <Gold.Protein.ActiveResidues>
 VAL166  LYS551  ARG553  GLY616  TRP617  ASP618  TYR619  PRO620  LYS621  CYS622 
 ASP623  PHE694  ASN695  SER759  ASP760  ASP761  ALA762  ILE779  LEU786  VAL792 
 PHE793  MET794  SER795  GLU796  ALA797  LYS798  CYS799  TRP800  GLU811  SER814 

> <Gold.Protein.RotatedAtoms>
  150.7954  134.7009  159.6548 H   0  0  0  0  0  0  0  0  0  0  0  0  # atno 6907 bound_to 6896
  152.4065  134.6195  160.0057 H   0  0  0  0  0  0  0  0  0  0  0  0  # atno 6908 bound_to 6896
  151.6450  133.3287  159.3175 H   0  0  0  0  0  0  0  0  0  0  0  0  # atno 6909 bound_to 6896
  145.2659  139.2685  143.3992 H   0  0  0  0  0  0  0  0  0  0  0  0  # atno 7974 bound_to 7965
  156.3003  140.2466  156.3609 H   0  0  0  0  0  0  0  0  0  0  0  0  # atno 8008 bound_to 7997
  154.8878  140.0410  157.1840 H   0  0  0  0  0  0  0  0  0  0  0  0  # atno 8009 bound_to 7997
  154.8629  140.2923  155.5532 H   0  0  0  0  0  0  0  0  0  0  0  0  # atno 8010 bound_to 7997
  140.7021  143.3129  151.2982 H   0  0  0  0  0  0  0  0  0  0  0  0  # atno 10167 bound_to 10162
  156.5335  130.8531  151.2724 H   0  0  0  0  0  0  0  0  0  0  0  0  # atno 10718 bound_to 10713
  153.1509  135.4604  154.9635 H   0  0  0  0  0  0  0  0  0  0  0  0  # atno 10763 bound_to 10752
  154.7824  135.3193  154.7963 H   0  0  0  0  0  0  0  0  0  0  0  0  # atno 10764 bound_to 10752
  153.8469  135.6925  153.4851 H   0  0  0  0  0  0  0  0  0  0  0  0  # atno 10765 bound_to 10752
  140.7501  134.3416  157.5128 H   0  0  0  0  0  0  0  0  0  0  0  0  # atno 11005 bound_to 11000
  146.3261  140.3089  142.8625 LP  0  0  0  0  0  0  0  0  0  0  0  0  # atno 17320 bound_to 7965
  144.9377  140.8045  143.5650 LP  0  0  0  0  0  0  0  0  0  0  0  0  # atno 17321 bound_to 7965
  139.6558  144.0278  152.2659 LP  0  0  0  0  0  0  0  0  0  0  0  0  # atno 17342 bound_to 10162
  139.9830  144.6415  150.7884 LP  0  0  0  0  0  0  0  0  0  0  0  0  # atno 17343 bound_to 10162
  157.7418  130.9876  150.2468 LP  0  0  0  0  0  0  0  0  0  0  0  0  # atno 17370 bound_to 10713
  156.3038  130.3762  149.7726 LP  0  0  0  0  0  0  0  0  0  0  0  0  # atno 17371 bound_to 10713
  139.8789  134.9137  156.3089 LP  0  0  0  0  0  0  0  0  0  0  0  0  # atno 17394 bound_to 11000
  140.9758  133.7298  156.0600 LP  0  0  0  0  0  0  0  0  0  0  0  0  # atno 17395 bound_to 11000

$$$$
