AV-unprocessed.smi:240|AV-procd|sdf|1837|dock5
  -GOLD-   2262020443D 1   1.00000     0.00000
 Structure written by MMmdl.
 55 59  0  0  0  0  0  0  0  0  1 V2000
  149.9918  143.7518  158.0076 O   0  0  0  0  0  0  0  0  0  0  0  0
  151.2251  143.2085  157.5700 C   0  0  1  0  0  0  0  0  0  0  0  0
  152.2840  143.4768  158.6412 C   0  0  0  0  0  0  0  0  0  0  0  0
  152.1560  142.3245  159.6424 C   0  0  0  0  0  0  0  0  0  0  0  0
  151.2989  141.2521  158.9558 C   0  0  0  0  0  0  0  0  0  0  0  0
  151.1582  141.6697  157.4763 C   0  0  1  0  0  0  0  0  0  0  0  0
  149.9371  141.0947  156.6801 C   0  0  1  0  0  0  0  0  0  0  0  0
  149.7518  141.8692  155.3473 C   0  0  0  0  0  0  0  0  0  0  0  0
  148.6682  141.3458  154.5897 O   0  0  0  0  0  0  0  0  0  0  0  0
  148.8926  139.9954  154.2177 C   0  0  0  0  0  0  0  0  0  0  0  0
  148.9952  139.1538  155.4930 C   0  0  0  0  0  0  0  0  0  0  0  0
  150.0569  139.6610  156.3576 N   0  0  0  0  0  0  0  0  0  0  0  0
  150.2444  138.8046  157.3843 C   0  0  0  0  0  0  0  0  0  0  0  0
  151.5019  138.7030  157.8804 N   0  0  0  0  0  0  0  0  0  0  0  0
  151.7493  137.8848  158.9077 C   0  0  0  0  0  0  0  0  0  0  0  0
  150.9002  137.0963  159.5705 N   0  0  0  0  0  0  0  0  0  0  0  0
  149.6377  137.1859  159.0610 C   0  0  0  0  0  0  0  0  0  0  0  0
  149.2258  138.0002  157.9699 C   0  0  0  0  0  0  0  0  0  0  0  0
  147.8688  137.8223  157.7297 N   0  0  0  0  0  0  0  0  0  0  0  0
  147.4964  136.9616  158.6372 C   0  0  0  0  0  0  0  0  0  0  0  0
  148.4923  136.5378  159.4883 N   0  0  0  0  0  0  0  0  0  0  0  0
  148.3589  135.5999  160.5920 C   0  0  0  0  0  0  0  0  0  0  0  0
  147.3349  136.0396  161.6693 C   0  0  2  0  0  0  0  0  0  0  0  0
  147.6371  137.3597  162.0827 O   0  0  0  0  0  0  0  0  0  0  0  0
  147.2856  135.1297  162.8984 C   0  0  0  0  0  0  0  0  0  0  0  0
  146.1289  134.1964  162.5757 C   0  0  0  0  0  0  0  0  0  0  0  0
  145.1867  135.0778  161.9901 O   0  0  0  0  0  0  0  0  0  0  0  0
  145.8889  135.9740  161.1357 C   0  0  0  0  0  0  0  0  0  0  0  0
  149.4182  143.8362  157.2614 H   0  0  0  0  0  0  0  0  0  0  0  0
  151.5023  143.6711  156.6222 H   0  0  0  0  0  0  0  0  0  0  0  0
  153.2729  143.4417  158.1824 H   0  0  0  0  0  0  0  0  0  0  0  0
  152.1811  144.4565  159.1100 H   0  0  0  0  0  0  0  0  0  0  0  0
  153.1399  141.9371  159.9099 H   0  0  0  0  0  0  0  0  0  0  0  0
  151.6754  142.6586  160.5627 H   0  0  0  0  0  0  0  0  0  0  0  0
  151.7531  140.2694  159.0743 H   0  0  0  0  0  0  0  0  0  0  0  0
  150.3178  141.2228  159.4310 H   0  0  0  0  0  0  0  0  0  0  0  0
  152.0661  141.3492  156.9620 H   0  0  0  0  0  0  0  0  0  0  0  0
  149.0329  141.2370  157.2724 H   0  0  0  0  0  0  0  0  0  0  0  0
  149.5270  142.9190  155.5297 H   0  0  0  0  0  0  0  0  0  0  0  0
  150.6658  141.8418  154.7515 H   0  0  0  0  0  0  0  0  0  0  0  0
  148.0607  139.6508  153.6036 H   0  0  0  0  0  0  0  0  0  0  0  0
  149.7972  139.9091  153.6139 H   0  0  0  0  0  0  0  0  0  0  0  0
  148.0422  139.1765  156.0236 H   0  0  0  0  0  0  0  0  0  0  0  0
  149.1914  138.1134  155.2283 H   0  0  0  0  0  0  0  0  0  0  0  0
  152.7730  137.8625  159.2509 H   0  0  0  0  0  0  0  0  0  0  0  0
  146.4758  136.6164  158.7171 H   0  0  0  0  0  0  0  0  0  0  0  0
  148.0820  134.6279  160.1813 H   0  0  0  0  0  0  0  0  0  0  0  0
  149.3427  135.4679  161.0445 H   0  0  0  0  0  0  0  0  0  0  0  0
  147.3539  137.4647  162.9782 H   0  0  0  0  0  0  0  0  0  0  0  0
  148.2112  134.5970  163.1112 H   0  0  0  0  0  0  0  0  0  0  0  0
  147.0306  135.7019  163.7920 H   0  0  0  0  0  0  0  0  0  0  0  0
  146.4272  133.4350  161.8533 H   0  0  0  0  0  0  0  0  0  0  0  0
  145.7251  133.7013  163.4591 H   0  0  0  0  0  0  0  0  0  0  0  0
  145.3904  136.9443  161.1259 H   0  0  0  0  0  0  0  0  0  0  0  0
  145.8572  135.5832  160.1176 H   0  0  0  0  0  0  0  0  0  0  0  0
  1  2  1  0  0  0  0
  1 29  1  0  0  0  0
  2  6  1  0  0  0  0
  2  3  1  0  0  0  0
  2 30  1  0  0  0  0
  3  4  1  0  0  0  0
  3 31  1  0  0  0  0
  3 32  1  0  0  0  0
  4  5  1  0  0  0  0
  4 33  1  0  0  0  0
  4 34  1  0  0  0  0
  5  6  1  0  0  0  0
  5 35  1  0  0  0  0
  5 36  1  0  0  0  0
  6  7  1  0  0  0  0
  6 37  1  0  0  0  0
  7 12  1  0  0  0  0
  7  8  1  0  0  0  0
  7 38  1  0  0  0  0
  8  9  1  0  0  0  0
  8 39  1  0  0  0  0
  8 40  1  0  0  0  0
  9 10  1  0  0  0  0
 10 11  1  0  0  0  0
 10 41  1  0  0  0  0
 10 42  1  0  0  0  0
 11 12  1  0  0  0  0
 11 43  1  0  0  0  0
 11 44  1  0  0  0  0
 12 13  1  0  0  0  0
 13 18  1  0  0  0  0
 13 14  2  0  0  0  0
 14 15  1  0  0  0  0
 15 16  2  0  0  0  0
 15 45  1  0  0  0  0
 16 17  1  0  0  0  0
 17 21  1  0  0  0  0
 17 18  2  0  0  0  0
 18 19  1  0  0  0  0
 19 20  2  0  0  0  0
 20 21  1  0  0  0  0
 20 46  1  0  0  0  0
 21 22  1  0  0  0  0
 22 23  1  0  0  0  0
 22 47  1  0  0  0  0
 22 48  1  0  0  0  0
 23 28  1  0  0  0  0
 23 24  1  0  0  0  0
 23 25  1  0  0  0  0
 24 49  1  0  0  0  0
 25 26  1  0  0  0  0
 25 50  1  0  0  0  0
 25 51  1  0  0  0  0
 26 27  1  0  0  0  0
 26 52  1  0  0  0  0
 26 53  1  0  0  0  0
 27 28  1  0  0  0  0
 28 54  1  0  0  0  0
 28 55  1  0  0  0  0
M  END
> <s_m_source_file>
AV-unprocessed.smi

> <i_m_source_file_index>
240

> <i_lp_mmshare_version>
43012

> <i_f3d_flags>
0

> <s_epik_input>
W09IXVtDQEBIXTFbQ0gyXVtDSDJdW0NIMl1bQ0BIXTFbQ0BASF0yW0NIMl1PW0NIMl1bQ0gyXU4yYyhuW2NIXW4zKWMoYzM0KW5bY0hdbjRbQ0gyXVtDQEBdNShbT0hdKVtDSDJdW0NIMl1PW0NIMl01

> <s_epik_cmdline>
J2VwaWtfcHl0aG9uJywgJy1waCcsICc3LjAnLCAnLXRuJywgJzgnLCAnLW1hJywgJzIwMCcsICctbWV0YWxfYmluZGluZycsICctaW1hZScsICc8aW5maWxlLm1hZT4nLCAnLW9tYWUnLCAnPG91dGZpbGUubWFlPic=

> <r_lp_tautomer_probability>
1

> <r_epik_Ionization_Penalty>
0.000130618

> <r_epik_Ionization_Penalty_Charging>
0

> <r_epik_Ionization_Penalty_Neutral>
0.000130618

> <r_epik_State_Penalty>
-0

> <r_epik_Charging_Adjusted_Penalty>
0

> <i_epik_Tot_Q>
0

> <i_epik_Tot_abs_Q>
0

> <r_epik_Metal_State_Penalty>
-0

> <b_epik_Metal_Only>
0

> <s_lp_Force_Field>
OPLS_2005

> <r_lp_Energy>
64.0442

> <b_lp_Chiralities_Consistent>
1

> <s_lp_Variant>
AV-unprocessed.smi:240-14

> <Gold.Version>
5.8.1

> <Gold.Id.Protein>
6NUR|6NUR_protein|mol2

> <Gold.PLP.Fitness>
53.7067

> <Gold.PLP.PLP>
-44.9546

> <Gold.PLP.part.hbond>
-4.5097

> <Gold.PLP.part.metal>
0.0000

> <Gold.PLP.part.buried>
-3.9524

> <Gold.PLP.part.nonpolar>
-36.4858

> <Gold.PLP.part.repulsive>
0.1443

> <Gold.PLP.ligand.clash>
0.2883

> <Gold.PLP.ligand.torsion>
0.8631

> <Gold.PLP.Chemscore.Hbond>
3.5040

> <Gold.PLP.Chemscore.CHOScore>
0.0000

> <Gold.PLP.Chemscore.Metal>
0.0000

> <Gold.Chemscore.Hbonds>
donor molecule, donor type, donor heavy atom, donor atom, acceptor molecule, acceptor atom, score
      L1  H     1    29       P1  8028  1.00
      P1  H  6896  6907       L1    16  0.96
      P1  H  6931  6943       L1    24  0.88
      P1  H  6934  6947       L1    24  0.52

> <Gold.PLP.Chemscore.Internal.Correction>
0.2546

> <Gold.Rescore>
     Score         DG    S(hbond)    S(metal)    S(lipo)     H(rot)  DE(clash)    DE(int)     intcor
     15.60     -18.73       2.62        0.00     104.18       3.00       0.77       2.35       ----

> <Gold.Chemscore.Fitness>
15.6049

> <Gold.Chemscore.DG>
-18.7319

> <Gold.Chemscore.ZeroCoef>
-5.4800

> <Gold.Chemscore.Hbond>
2.6206

> <Gold.Chemscore.Metal>
0.0000

> <Gold.Chemscore.Lipo>
104.1789

> <Gold.Chemscore.Internal_Hbond>
0.0000

> <Gold.Chemscore.DEClash>
0.7731

> <Gold.Chemscore.DEInternal>
2.3539

> <Gold.Chemscore.Rot>
3.0039

> <Gold.Chemscore.Internal.Correction>
   9.000000E+99

> <Gold.Chemscore.Hbonds>
donor molecule, donor type, donor heavy atom, donor atom, acceptor molecule, acceptor atom, score
      L1  H     1    29       P1  8028  0.47
      P1  H  6896  6907       L1    16  0.32
      P1  H  6931  6943       L1    24  0.48
      P1  H  6934  6947       L1    24  0.39

> <Gold.Chemscore.Hbond.Weighted>
-8.7529

> <Gold.Chemscore.Metal.Weighted>
-0.0000

> <Gold.Chemscore.Lipo.Weighted>
-12.1889

> <Gold.Chemscore.Internal_Hbond.Weighted>
0.0000

> <Gold.Chemscore.DEClash.Weighted>
0.7731

> <Gold.Chemscore.DEInternal.Weighted>
2.3539

> <Gold.Chemscore.Rot.Weighted>
7.6899

> <Gold.Chemscore.Internal.Correction.Weighted>
   9.000000E+99

> <Gold.Protein.RotatedTorsions>
[ 6907 6896 6895 6894 ] final  -28.93 input  -60.11 | X-H torsion
[ 7974 7965 7964 7962 ] final -178.05 input  175.53 | X-H torsion
[ 8008 7997 7996 7995 ] final   56.18 input   59.86 | X-H torsion
[ 10167 10162 10161 10158 ] final -111.64 input  -65.29 | X-H torsion
[ 10718 10713 10712 10709 ] final  -93.61 input   66.30 | X-H torsion
[ 10763 10752 10751 10750 ] final  125.89 input  -60.55 | X-H torsion
[ 11005 11000 10999 10996 ] final   84.57 input  -57.11 | X-H torsion

> <Gold.Protein.ActiveResidues>
 VAL166  LYS551  ARG553  GLY616  TRP617  ASP618  TYR619  PRO620  LYS621  CYS622 
 ASP623  PHE694  ASN695  SER759  ASP760  ASP761  ALA762  ILE779  LEU786  VAL792 
 PHE793  MET794  SER795  GLU796  ALA797  LYS798  CYS799  TRP800  GLU811  SER814 

> <Gold.Protein.RotatedAtoms>
  151.1262  135.0106  159.8561 H   0  0  0  0  0  0  0  0  0  0  0  0  # atno 6907 bound_to 6896
  152.5449  134.1664  159.8589 H   0  0  0  0  0  0  0  0  0  0  0  0  # atno 6908 bound_to 6896
  151.1726  133.4729  159.2627 H   0  0  0  0  0  0  0  0  0  0  0  0  # atno 6909 bound_to 6896
  144.7129  140.0927  143.6420 H   0  0  0  0  0  0  0  0  0  0  0  0  # atno 7974 bound_to 7965
  155.5133  140.3477  155.4392 H   0  0  0  0  0  0  0  0  0  0  0  0  # atno 8008 bound_to 7997
  156.0835  140.1392  156.9710 H   0  0  0  0  0  0  0  0  0  0  0  0  # atno 8009 bound_to 7997
  154.4593  140.0941  156.6824 H   0  0  0  0  0  0  0  0  0  0  0  0  # atno 8010 bound_to 7997
  140.1314  143.4357  152.1625 H   0  0  0  0  0  0  0  0  0  0  0  0  # atno 10167 bound_to 10162
  156.0015  130.5034  150.5802 H   0  0  0  0  0  0  0  0  0  0  0  0  # atno 10718 bound_to 10713
  153.6845  135.3309  155.3187 H   0  0  0  0  0  0  0  0  0  0  0  0  # atno 10763 bound_to 10752
  154.8457  135.4417  154.1572 H   0  0  0  0  0  0  0  0  0  0  0  0  # atno 10764 bound_to 10752
  153.2597  135.6990  153.7669 H   0  0  0  0  0  0  0  0  0  0  0  0  # atno 10765 bound_to 10752
  139.8996  134.8226  156.2463 H   0  0  0  0  0  0  0  0  0  0  0  0  # atno 11005 bound_to 11000
  145.9606  139.2798  143.1158 LP  0  0  0  0  0  0  0  0  0  0  0  0  # atno 17320 bound_to 7965
  145.9225  140.9105  143.0398 LP  0  0  0  0  0  0  0  0  0  0  0  0  # atno 17321 bound_to 7965
  139.5518  144.7343  151.4413 LP  0  0  0  0  0  0  0  0  0  0  0  0  # atno 17342 bound_to 10162
  140.6814  143.8072  150.7127 LP  0  0  0  0  0  0  0  0  0  0  0  0  # atno 17343 bound_to 10162
  157.3683  131.0761  151.1579 LP  0  0  0  0  0  0  0  0  0  0  0  0  # atno 17370 bound_to 10713
  157.2341  130.6539  149.5862 LP  0  0  0  0  0  0  0  0  0  0  0  0  # atno 17371 bound_to 10713
  141.0252  133.7019  156.1336 LP  0  0  0  0  0  0  0  0  0  0  0  0  # atno 17394 bound_to 11000
  140.7176  134.4393  157.5577 LP  0  0  0  0  0  0  0  0  0  0  0  0  # atno 17395 bound_to 11000

$$$$
