AV-unprocessed.smi:720|AV-procd|sdf|3501|dock8
  -GOLD-   22720 0493D 1   1.00000     0.00000
 Structure written by MMmdl.
 46 48  0  0  0  0  0  0  0  0  1 V2000
  145.4779  135.9381  150.8528 C   0  0  0  0  0  0  0  0  0  0  0  0
  145.5613  136.4030  152.2323 N   0  0  0  0  0  0  0  0  0  0  0  0
  144.2247  136.3522  152.8099 C   0  0  0  0  0  0  0  0  0  0  0  0
  146.0652  137.7745  152.3204 C   0  0  0  0  0  0  0  0  0  0  0  0
  146.7388  138.1011  153.6706 C   0  0  0  0  0  0  0  0  0  0  0  0
  147.1310  139.4943  153.7997 N   0  0  0  0  0  0  0  0  0  0  0  0
  146.8140  140.5549  152.9735 C   0  0  0  0  0  0  0  0  0  0  0  0
  147.3798  141.6776  153.5076 C   0  0  0  0  0  0  0  0  0  0  0  0
  148.0198  141.1935  154.6814 C   0  0  0  0  0  0  0  0  0  0  0  0
  148.7322  142.0761  155.5320 N   0  0  0  0  0  0  0  0  0  0  0  0
  149.3392  141.7861  156.6996 C   0  0  0  0  0  0  0  0  0  0  0  0
  149.3876  140.6650  157.2024 O   0  0  0  0  0  0  0  0  0  0  0  0
  149.9251  142.8415  157.2931 N   0  0  0  0  0  0  0  0  0  0  0  0
  150.6620  142.8694  158.5586 C   0  0  2  0  0  0  0  0  0  0  0  0
  150.3034  144.0863  159.4439 C   0  0  0  0  0  0  0  0  0  0  0  0
  151.6645  144.7780  159.6433 C   0  0  1  0  0  0  0  0  0  0  0  0
  152.5643  143.9003  160.5354 C   0  0  0  0  0  0  0  0  0  0  0  0
  152.9368  142.7313  159.6018 C   0  0  0  0  0  0  0  0  0  0  0  0
  152.1719  143.0772  158.3107 C   0  0  2  0  0  0  0  0  0  0  0  0
  152.3052  144.5969  158.2742 C   0  0  0  0  0  0  0  0  0  0  0  0
  147.8608  139.8904  154.8653 N   0  0  0  0  0  0  0  0  0  0  0  0
  146.4665  135.8484  150.4069 H   0  0  0  0  0  0  0  0  0  0  0  0
  144.8806  136.6139  150.2389 H   0  0  0  0  0  0  0  0  0  0  0  0
  145.0226  134.9480  150.8104 H   0  0  0  0  0  0  0  0  0  0  0  0
  144.2444  136.6565  153.8571 H   0  0  0  0  0  0  0  0  0  0  0  0
  143.8281  135.3370  152.7725 H   0  0  0  0  0  0  0  0  0  0  0  0
  143.5350  137.0082  152.2762 H   0  0  0  0  0  0  0  0  0  0  0  0
  146.7209  138.0048  151.4792 H   0  0  0  0  0  0  0  0  0  0  0  0
  145.2084  138.4431  152.2262 H   0  0  0  0  0  0  0  0  0  0  0  0
  146.0338  137.8960  154.4770 H   0  0  0  0  0  0  0  0  0  0  0  0
  147.5989  137.4521  153.8457 H   0  0  0  0  0  0  0  0  0  0  0  0
  146.2190  140.4228  152.0819 H   0  0  0  0  0  0  0  0  0  0  0  0
  147.3391  142.6848  153.1202 H   0  0  0  0  0  0  0  0  0  0  0  0
  148.7895  143.0345  155.2208 H   0  0  0  0  0  0  0  0  0  0  0  0
  149.8753  143.7194  156.7965 H   0  0  0  0  0  0  0  0  0  0  0  0
  150.4973  141.9298  159.0891 H   0  0  0  0  0  0  0  0  0  0  0  0
  149.6078  144.7593  158.9398 H   0  0  0  0  0  0  0  0  0  0  0  0
  149.8483  143.7895  160.3894 H   0  0  0  0  0  0  0  0  0  0  0  0
  151.5848  145.8113  159.9820 H   0  0  0  0  0  0  0  0  0  0  0  0
  153.4580  144.4446  160.8428 H   0  0  0  0  0  0  0  0  0  0  0  0
  152.0494  143.5654  161.4365 H   0  0  0  0  0  0  0  0  0  0  0  0
  154.0124  142.7133  159.4213 H   0  0  0  0  0  0  0  0  0  0  0  0
  152.6516  141.7614  160.0112 H   0  0  0  0  0  0  0  0  0  0  0  0
  152.5549  142.5583  157.4312 H   0  0  0  0  0  0  0  0  0  0  0  0
  151.7391  145.0641  157.4665 H   0  0  0  0  0  0  0  0  0  0  0  0
  153.3404  144.9408  158.2307 H   0  0  0  0  0  0  0  0  0  0  0  0
  1  2  1  0  0  0  0
  1 22  1  0  0  0  0
  1 23  1  0  0  0  0
  1 24  1  0  0  0  0
  2  3  1  0  0  0  0
  2  4  1  0  0  0  0
  3 25  1  0  0  0  0
  3 26  1  0  0  0  0
  3 27  1  0  0  0  0
  4  5  1  0  0  0  0
  4 28  1  0  0  0  0
  4 29  1  0  0  0  0
  5  6  1  0  0  0  0
  5 30  1  0  0  0  0
  5 31  1  0  0  0  0
  6 21  1  0  0  0  0
  6  7  1  0  0  0  0
  7  8  2  0  0  0  0
  7 32  1  0  0  0  0
  8  9  1  0  0  0  0
  8 33  1  0  0  0  0
  9 10  1  0  0  0  0
  9 21  2  0  0  0  0
 10 11  1  0  0  0  0
 10 34  1  0  0  0  0
 11 12  2  0  0  0  0
 11 13  1  0  0  0  0
 13 14  1  0  0  0  0
 13 35  1  0  0  0  0
 14 19  1  0  0  0  0
 14 15  1  0  0  0  0
 14 36  1  0  0  0  0
 15 16  1  0  0  0  0
 15 37  1  0  0  0  0
 15 38  1  0  0  0  0
 16 20  1  0  0  0  0
 16 17  1  0  0  0  0
 16 39  1  0  0  0  0
 17 18  1  0  0  0  0
 17 40  1  0  0  0  0
 17 41  1  0  0  0  0
 18 19  1  0  0  0  0
 18 42  1  0  0  0  0
 18 43  1  0  0  0  0
 19 20  1  0  0  0  0
 19 44  1  0  0  0  0
 20 45  1  0  0  0  0
 20 46  1  0  0  0  0
M  END
> <s_m_source_file>
AV-unprocessed.smi

> <i_m_source_file_index>
720

> <i_lp_mmshare_version>
43012

> <i_f3d_flags>
0

> <s_epik_input>
W0NIM11OKFtDSDNdKVtDSDJdW0NIMl1uMVtjSF1bY0hdYyhuMSlbTkhdQyg9TylbTkhdW0NASF0oW0NIMl1bQ0BIXTIzKVtDQEhdKFtDSDJdMylbQ0gyXVtDSDJdMg==

> <s_epik_cmdline>
J2VwaWtfcHl0aG9uJywgJy1waCcsICc3LjAnLCAnLXRuJywgJzgnLCAnLW1hJywgJzIwMCcsICctbWV0YWxfYmluZGluZycsICctaW1hZScsICc8aW5maWxlLm1hZT4nLCAnLW9tYWUnLCAnPG91dGZpbGUubWFlPic=

> <r_lp_tautomer_probability>
1

> <r_epik_Ionization_Penalty>
1.83819

> <r_epik_Ionization_Penalty_Charging>
0

> <r_epik_Ionization_Penalty_Neutral>
1.83819

> <r_epik_State_Penalty>
1.95467

> <r_epik_Charging_Adjusted_Penalty>
1.95467

> <i_epik_Tot_Q>
0

> <i_epik_Tot_abs_Q>
0

> <r_epik_Metal_State_Penalty>
1.95467

> <b_epik_Metal_Only>
0

> <s_lp_Force_Field>
OPLS_2005

> <r_lp_Energy>
62.6494

> <b_lp_Chiralities_Consistent>
1

> <s_lp_Variant>
AV-unprocessed.smi:720-7

> <Gold.Version>
5.8.1

> <Gold.Id.Protein>
6NUR|6NUR_protein|mol2

> <Gold.PLP.Fitness>
48.9543

> <Gold.PLP.PLP>
-41.9590

> <Gold.PLP.part.hbond>
-2.0000

> <Gold.PLP.part.metal>
0.0000

> <Gold.PLP.part.buried>
-5.4352

> <Gold.PLP.part.nonpolar>
-35.6585

> <Gold.PLP.part.repulsive>
0.4155

> <Gold.PLP.ligand.clash>
0.0000

> <Gold.PLP.ligand.torsion>
0.5314

> <Gold.PLP.Chemscore.Hbond>
1.9600

> <Gold.PLP.Chemscore.CHOScore>
0.7132

> <Gold.PLP.Chemscore.Metal>
0.0000

> <Gold.Chemscore.Hbonds>
donor molecule, donor type, donor heavy atom, donor atom, acceptor molecule, acceptor atom, score
      L1  H    10    34       P1  8028  0.98
      L1  H    13    35       P1  8028  0.91
      L1  C     7    32       P1 10175  0.67

> <Gold.PLP.Chemscore.Internal.Correction>
0.0384

> <Gold.Rescore>
     Score         DG    S(hbond)    S(metal)    S(lipo)     H(rot)  DE(clash)    DE(int)     intcor
     19.21     -21.12       1.87        0.00     113.76       1.53       0.22       1.70       ----

> <Gold.Chemscore.Fitness>
19.2077

> <Gold.Chemscore.DG>
-21.1242

> <Gold.Chemscore.ZeroCoef>
-5.4800

> <Gold.Chemscore.Hbond>
1.8726

> <Gold.Chemscore.Metal>
0.0000

> <Gold.Chemscore.Lipo>
113.7579

> <Gold.Chemscore.Internal_Hbond>
0.0000

> <Gold.Chemscore.DEClash>
0.2204

> <Gold.Chemscore.DEInternal>
1.6960

> <Gold.Chemscore.Rot>
1.5312

> <Gold.Chemscore.Internal.Correction>
   9.000000E+99

> <Gold.Chemscore.Hbonds>
donor molecule, donor type, donor heavy atom, donor atom, acceptor molecule, acceptor atom, score
      L1  H    10    34       P1  8028  0.92
      L1  H    13    35       P1  8028  0.89

> <Gold.Chemscore.Hbond.Weighted>
-6.2544

> <Gold.Chemscore.Metal.Weighted>
-0.0000

> <Gold.Chemscore.Lipo.Weighted>
-13.3097

> <Gold.Chemscore.Internal_Hbond.Weighted>
0.0000

> <Gold.Chemscore.DEClash.Weighted>
0.2204

> <Gold.Chemscore.DEInternal.Weighted>
1.6960

> <Gold.Chemscore.Rot.Weighted>
3.9199

> <Gold.Chemscore.Internal.Correction.Weighted>
   9.000000E+99

> <Gold.Protein.RotatedTorsions>
[ 6907 6896 6895 6894 ] final -103.28 input  -60.11 | X-H torsion
[ 7974 7965 7964 7962 ] final -149.56 input  175.53 | X-H torsion
[ 8008 7997 7996 7995 ] final  -75.15 input   59.86 | X-H torsion
[ 10167 10162 10161 10158 ] final  -95.49 input  -65.29 | X-H torsion
[ 10718 10713 10712 10709 ] final   36.83 input   66.30 | X-H torsion
[ 10763 10752 10751 10750 ] final   31.39 input  -60.55 | X-H torsion
[ 11005 11000 10999 10996 ] final   54.10 input  -57.11 | X-H torsion

> <Gold.Protein.ActiveResidues>
 VAL166  LYS551  ARG553  GLY616  TRP617  ASP618  TYR619  PRO620  LYS621  CYS622 
 ASP623  PHE694  ASN695  SER759  ASP760  ASP761  ALA762  ILE779  LEU786  VAL792 
 PHE793  MET794  SER795  GLU796  ALA797  LYS798  CYS799  TRP800  GLU811  SER814 

> <Gold.Protein.RotatedAtoms>
  150.7233  134.0454  159.3779 H   0  0  0  0  0  0  0  0  0  0  0  0  # atno 6907 bound_to 6896
  151.8429  135.0582  160.0459 H   0  0  0  0  0  0  0  0  0  0  0  0  # atno 6908 bound_to 6896
  152.2849  133.5469  159.5557 H   0  0  0  0  0  0  0  0  0  0  0  0  # atno 6909 bound_to 6896
  144.7960  140.5049  143.5740 H   0  0  0  0  0  0  0  0  0  0  0  0  # atno 7974 bound_to 7965
  154.5392  140.0749  156.8480 H   0  0  0  0  0  0  0  0  0  0  0  0  # atno 8008 bound_to 7997
  155.3216  140.3396  155.4223 H   0  0  0  0  0  0  0  0  0  0  0  0  # atno 8009 bound_to 7997
  156.1857  140.1668  156.8175 H   0  0  0  0  0  0  0  0  0  0  0  0  # atno 8010 bound_to 7997
  140.3036  143.3147  152.0222 H   0  0  0  0  0  0  0  0  0  0  0  0  # atno 10167 bound_to 10162
  157.3396  130.7541  149.6903 H   0  0  0  0  0  0  0  0  0  0  0  0  # atno 10718 bound_to 10713
  153.0318  135.6440  154.1192 H   0  0  0  0  0  0  0  0  0  0  0  0  # atno 10763 bound_to 10752
  154.0913  135.2866  155.3272 H   0  0  0  0  0  0  0  0  0  0  0  0  # atno 10764 bound_to 10752
  154.6462  135.5442  153.7911 H   0  0  0  0  0  0  0  0  0  0  0  0  # atno 10765 bound_to 10752
  140.0713  134.5465  155.9043 H   0  0  0  0  0  0  0  0  0  0  0  0  # atno 11005 bound_to 11000
  145.5672  139.1482  143.3308 LP  0  0  0  0  0  0  0  0  0  0  0  0  # atno 17320 bound_to 7965
  146.2228  140.5806  142.9009 LP  0  0  0  0  0  0  0  0  0  0  0  0  # atno 17321 bound_to 7965
  139.4909  144.6437  151.6823 LP  0  0  0  0  0  0  0  0  0  0  0  0  # atno 17342 bound_to 10162
  140.5629  144.0238  150.6178 LP  0  0  0  0  0  0  0  0  0  0  0  0  # atno 17343 bound_to 10162
  155.9706  130.4171  150.4265 LP  0  0  0  0  0  0  0  0  0  0  0  0  # atno 17370 bound_to 10713
  157.2311  131.0504  151.2492 LP  0  0  0  0  0  0  0  0  0  0  0  0  # atno 17371 bound_to 10713
  141.2013  133.6617  156.5942 LP  0  0  0  0  0  0  0  0  0  0  0  0  # atno 17394 bound_to 11000
  140.3623  134.7677  157.4542 LP  0  0  0  0  0  0  0  0  0  0  0  0  # atno 17395 bound_to 11000

$$$$
