AV-unprocessed.smi:2888|AV-procd|sdf|11106|dock8
  -GOLD-   2272015573D 1   1.00000     0.00000
 Structure written by MMmdl.
 34 36  0  0  0  0  0  0  0  0  2 V2000
  152.5401  140.2334  159.2434 C   0  0  0  0  0  0  0  0  0  0  0  0
  151.9902  141.4988  158.6196 C   0  0  0  0  0  0  0  0  0  0  0  0
  152.4549  142.7709  158.9955 C   0  0  0  0  0  0  0  0  0  0  0  0
  151.8690  143.8751  158.3464 C   0  0  0  0  0  0  0  0  0  0  0  0
  152.2743  145.2998  158.6589 C   0  0  0  0  0  0  0  0  0  0  0  0
  150.9065  143.6817  157.4100 N   0  3  0  0  0  0  0  0  0  0  0  0
  150.5100  142.4372  157.1021 C   0  0  0  0  0  0  0  0  0  0  0  0
  149.5226  142.3010  156.1430 N   0  0  0  0  0  0  0  0  0  0  0  0
  148.9852  141.0198  155.6994 C   0  0  2  0  0  0  0  0  0  0  0  0
  149.1058  140.8035  154.1887 C   0  0  0  0  0  0  0  0  0  0  0  0
  147.6580  140.4679  153.8029 C   0  0  2  0  0  0  0  0  0  0  0  0
  146.7708  141.7192  153.8085 C   0  0  0  0  0  0  0  0  0  0  0  0
  146.6266  141.9904  155.3050 C   0  0  0  0  0  0  0  0  0  0  0  0
  147.4678  140.8572  155.9176 C   0  0  1  0  0  0  0  0  0  0  0  0
  147.2053  139.8244  154.9829 O   0  0  0  0  0  0  0  0  0  0  0  0
  151.0304  141.3475  157.6852 N   0  0  0  0  0  0  0  0  0  0  0  0
  153.3695  140.4537  159.9159 H   0  0  0  0  0  0  0  0  0  0  0  0
  152.9011  139.5536  158.4710 H   0  0  0  0  0  0  0  0  0  0  0  0
  151.7634  139.7242  159.8149 H   0  0  0  0  0  0  0  0  0  0  0  0
  153.2228  142.8955  159.7456 H   0  0  0  0  0  0  0  0  0  0  0  0
  153.1428  145.3255  159.3176 H   0  0  0  0  0  0  0  0  0  0  0  0
  151.4564  145.8262  159.1515 H   0  0  0  0  0  0  0  0  0  0  0  0
  152.5268  145.8353  157.7433 H   0  0  0  0  0  0  0  0  0  0  0  0
  149.0378  143.1390  155.8569 H   0  0  0  0  0  0  0  0  0  0  0  0
  149.5146  140.2152  156.2119 H   0  0  0  0  0  0  0  0  0  0  0  0
  149.4805  141.6729  153.6462 H   0  0  0  0  0  0  0  0  0  0  0  0
  149.7698  139.9641  153.9791 H   0  0  0  0  0  0  0  0  0  0  0  0
  147.5682  139.8664  152.8978 H   0  0  0  0  0  0  0  0  0  0  0  0
  147.2224  142.5512  153.2673 H   0  0  0  0  0  0  0  0  0  0  0  0
  145.7980  141.5093  153.3624 H   0  0  0  0  0  0  0  0  0  0  0  0
  146.9689  142.9844  155.5935 H   0  0  0  0  0  0  0  0  0  0  0  0
  145.5828  141.8959  155.6063 H   0  0  0  0  0  0  0  0  0  0  0  0
  147.1914  140.6082  156.9426 H   0  0  0  0  0  0  0  0  0  0  0  0
  150.4901  144.4908  156.9488 H   0  0  0  0  0  0  0  0  0  0  0  0
  1  2  1  0  0  0  0
  1 17  1  0  0  0  0
  1 18  1  0  0  0  0
  1 19  1  0  0  0  0
  2 16  1  0  0  0  0
  2  3  2  0  0  0  0
  3  4  1  0  0  0  0
  3 20  1  0  0  0  0
  4  5  1  0  0  0  0
  4  6  2  0  0  0  0
  5 21  1  0  0  0  0
  5 22  1  0  0  0  0
  5 23  1  0  0  0  0
  6  7  1  0  0  0  0
  6 34  1  0  0  0  0
  7  8  1  0  0  0  0
  7 16  2  0  0  0  0
  8  9  1  0  0  0  0
  8 24  1  0  0  0  0
  9 14  1  0  0  0  0
  9 10  1  0  0  0  0
  9 25  1  0  0  0  0
 10 11  1  0  0  0  0
 10 26  1  0  0  0  0
 10 27  1  0  0  0  0
 11 15  1  0  0  0  0
 11 12  1  0  0  0  0
 11 28  1  0  0  0  0
 12 13  1  0  0  0  0
 12 29  1  0  0  0  0
 12 30  1  0  0  0  0
 13 14  1  0  0  0  0
 13 31  1  0  0  0  0
 13 32  1  0  0  0  0
 14 15  1  0  0  0  0
 14 33  1  0  0  0  0
M  CHG  1   6   1
M  END
> <s_m_source_file>
AV-unprocessed.smi

> <i_m_source_file_index>
2888

> <i_lp_mmshare_version>
43012

> <i_f3d_flags>
0

> <s_epik_input>
W0NIM11jMVtjSF1jKFtDSDNdKW5jKG4xKVtOSF1bQ0BIXShbQ0gyXVtDQEBIXTIzKVtDQEBIXShPMylbQ0gyXVtDSDJdMg==

> <s_epik_cmdline>
J2VwaWtfcHl0aG9uJywgJy1waCcsICc3LjAnLCAnLXRuJywgJzgnLCAnLW1hJywgJzIwMCcsICctbWV0YWxfYmluZGluZycsICctaW1hZScsICc8aW5maWxlLm1hZT4nLCAnLW9tYWUnLCAnPG91dGZpbGUubWFlPic=

> <r_lp_tautomer_probability>
0.505494

> <r_epik_Ionization_Penalty>
2.49163

> <r_epik_Ionization_Penalty_Charging>
2.49163

> <r_epik_Ionization_Penalty_Neutral>
3.7631e-06

> <r_epik_State_Penalty>
2.656

> <r_epik_Charging_Adjusted_Penalty>
5.14762

> <i_epik_Tot_Q>
1

> <i_epik_Tot_abs_Q>
1

> <r_epik_Metal_State_Penalty>
2.66479

> <b_epik_Metal_Only>
0

> <s_lp_Force_Field>
OPLS_2005

> <r_lp_Energy>
36.4538

> <b_lp_Chiralities_Consistent>
1

> <s_lp_Variant>
AV-unprocessed.smi:2888-7

> <Gold.Version>
5.8.1

> <Gold.Id.Protein>
6NUR|6NUR_protein|mol2

> <Gold.PLP.Fitness>
42.0283

> <Gold.PLP.PLP>
-31.8459

> <Gold.PLP.part.hbond>
-2.0000

> <Gold.PLP.part.metal>
0.0000

> <Gold.PLP.part.buried>
-3.2793

> <Gold.PLP.part.nonpolar>
-26.8890

> <Gold.PLP.part.repulsive>
0.1776

> <Gold.PLP.ligand.clash>
0.0000

> <Gold.PLP.ligand.torsion>
0.0067

> <Gold.PLP.Chemscore.Hbond>
3.3957

> <Gold.PLP.Chemscore.CHOScore>
0.0000

> <Gold.PLP.Chemscore.Metal>
0.0000

> <Gold.Chemscore.Hbonds>
donor molecule, donor type, donor heavy atom, donor atom, acceptor molecule, acceptor atom, score
      L1  H     6    34       P1  8028  1.37
      L1  H     8    24       P1  8028  2.00

> <Gold.PLP.Chemscore.Internal.Correction>
0.0087

> <Gold.Rescore>
     Score         DG    S(hbond)    S(metal)    S(lipo)     H(rot)  DE(clash)    DE(int)     intcor
     18.67     -18.81       1.74        0.00      86.22       1.00       0.12       0.02       ----

> <Gold.Chemscore.Fitness>
18.6692

> <Gold.Chemscore.DG>
-18.8118

> <Gold.Chemscore.ZeroCoef>
-5.4800

> <Gold.Chemscore.Hbond>
1.7376

> <Gold.Chemscore.Metal>
0.0000

> <Gold.Chemscore.Lipo>
86.2233

> <Gold.Chemscore.Internal_Hbond>
0.0000

> <Gold.Chemscore.DEClash>
0.1207

> <Gold.Chemscore.DEInternal>
0.0219

> <Gold.Chemscore.Rot>
1.0000

> <Gold.Chemscore.Internal.Correction>
   9.000000E+99

> <Gold.Chemscore.Hbonds>
donor molecule, donor type, donor heavy atom, donor atom, acceptor molecule, acceptor atom, score
      L1  H     6    34       P1  8028  0.57
      L1  H     8    24       P1  8028  0.97

> <Gold.Chemscore.Hbond.Weighted>
-5.8037

> <Gold.Chemscore.Metal.Weighted>
-0.0000

> <Gold.Chemscore.Lipo.Weighted>
-10.0881

> <Gold.Chemscore.Internal_Hbond.Weighted>
0.0000

> <Gold.Chemscore.DEClash.Weighted>
0.1207

> <Gold.Chemscore.DEInternal.Weighted>
0.0219

> <Gold.Chemscore.Rot.Weighted>
2.5600

> <Gold.Chemscore.Internal.Correction.Weighted>
   9.000000E+99

> <Gold.Protein.RotatedTorsions>
[ 6907 6896 6895 6894 ] final  113.82 input  -60.11 | X-H torsion
[ 7974 7965 7964 7962 ] final  -80.33 input  175.53 | X-H torsion
[ 8008 7997 7996 7995 ] final  -46.11 input   59.86 | X-H torsion
[ 10167 10162 10161 10158 ] final   84.76 input  -65.29 | X-H torsion
[ 10718 10713 10712 10709 ] final -141.93 input   66.30 | X-H torsion
[ 10763 10752 10751 10750 ] final   26.67 input  -60.55 | X-H torsion
[ 11005 11000 10999 10996 ] final  -23.88 input  -57.11 | X-H torsion

> <Gold.Protein.ActiveResidues>
 VAL166  LYS551  ARG553  GLY616  TRP617  ASP618  TYR619  PRO620  LYS621  CYS622 
 ASP623  PHE694  ASN695  SER759  ASP760  ASP761  ALA762  ILE779  LEU786  VAL792 
 PHE793  MET794  SER795  GLU796  ALA797  LYS798  CYS799  TRP800  GLU811  SER814 

> <Gold.Protein.RotatedAtoms>
  152.4839  133.8322  159.7108 H   0  0  0  0  0  0  0  0  0  0  0  0  # atno 6907 bound_to 6896
  150.8909  133.7235  159.2911 H   0  0  0  0  0  0  0  0  0  0  0  0  # atno 6908 bound_to 6896
  151.4708  135.1049  159.9803 H   0  0  0  0  0  0  0  0  0  0  0  0  # atno 6909 bound_to 6896
  145.5614  140.9481  143.1445 H   0  0  0  0  0  0  0  0  0  0  0  0  # atno 7974 bound_to 7965
  154.4005  140.1380  156.3957 H   0  0  0  0  0  0  0  0  0  0  0  0  # atno 8008 bound_to 7997
  155.7871  140.3480  155.5309 H   0  0  0  0  0  0  0  0  0  0  0  0  # atno 8009 bound_to 7997
  155.8616  140.0957  157.1600 H   0  0  0  0  0  0  0  0  0  0  0  0  # atno 8010 bound_to 7997
  139.9047  144.6308  150.8599 H   0  0  0  0  0  0  0  0  0  0  0  0  # atno 10167 bound_to 10162
  156.3398  130.7631  151.1765 H   0  0  0  0  0  0  0  0  0  0  0  0  # atno 10718 bound_to 10713
  153.0607  135.6555  154.0470 H   0  0  0  0  0  0  0  0  0  0  0  0  # atno 10763 bound_to 10752
  154.0139  135.2926  155.3390 H   0  0  0  0  0  0  0  0  0  0  0  0  # atno 10764 bound_to 10752
  154.6943  135.5270  153.8505 H   0  0  0  0  0  0  0  0  0  0  0  0  # atno 10765 bound_to 10752
  140.8793  133.7665  156.0282 H   0  0  0  0  0  0  0  0  0  0  0  0  # atno 11005 bound_to 11000
  144.7481  139.7266  143.7284 LP  0  0  0  0  0  0  0  0  0  0  0  0  # atno 17320 bound_to 7965
  146.1848  139.5058  142.9843 LP  0  0  0  0  0  0  0  0  0  0  0  0  # atno 17321 bound_to 7965
  140.7699  143.3410  151.2208 LP  0  0  0  0  0  0  0  0  0  0  0  0  # atno 17342 bound_to 10162
  139.6994  143.9558  152.2898 LP  0  0  0  0  0  0  0  0  0  0  0  0  # atno 17343 bound_to 10162
  157.7445  131.0458  150.4859 LP  0  0  0  0  0  0  0  0  0  0  0  0  # atno 17370 bound_to 10713
  156.5038  130.4123  149.6338 LP  0  0  0  0  0  0  0  0  0  0  0  0  # atno 17371 bound_to 10713
  140.8480  134.2988  157.5287 LP  0  0  0  0  0  0  0  0  0  0  0  0  # atno 17394 bound_to 11000
  139.8718  134.9452  156.3903 LP  0  0  0  0  0  0  0  0  0  0  0  0  # atno 17395 bound_to 11000

$$$$
