AV-unprocessed.smi:287|AV-procd|sdf|2185|dock5
  -GOLD-   2262021563D 1   1.00000     0.00000
 Structure written by MMmdl.
 55 58  0  0  0  0  0  0  0  0  1 V2000
  152.2404  139.7218  155.4375 C   0  0  0  0  0  0  0  0  0  0  0  0
  150.8897  139.2776  154.9910 C   0  0  0  0  0  0  0  0  0  0  0  0
  149.8735  139.8813  154.3091 C   0  0  0  0  0  0  0  0  0  0  0  0
  148.8145  138.9313  154.1925 C   0  0  0  0  0  0  0  0  0  0  0  0
  147.4741  139.1484  153.5022 C   0  0  1  0  0  0  0  0  0  0  0  0
  147.3279  140.6273  153.1093 C   0  0  0  0  0  0  0  0  0  0  0  0
  147.3627  138.4229  152.2928 O   0  0  0  0  0  0  0  0  0  0  0  0
  146.2697  138.7086  154.3670 C   0  0  0  0  0  0  0  0  0  0  0  0
  145.0609  138.4734  153.5843 N   0  0  0  0  0  0  0  0  0  0  0  0
  144.4775  137.2567  153.5856 C   0  0  0  0  0  0  0  0  0  0  0  0
  143.6408  136.8817  154.5882 N   0  0  0  0  0  0  0  0  0  0  0  0
  143.0689  135.6741  154.5627 C   0  0  0  0  0  0  0  0  0  0  0  0
  143.1966  134.7098  153.6486 N   0  0  0  0  0  0  0  0  0  0  0  0
  144.0399  135.0805  152.6418 C   0  0  0  0  0  0  0  0  0  0  0  0
  144.7147  136.3287  152.5394 C   0  0  0  0  0  0  0  0  0  0  0  0
  145.4860  136.3545  151.3850 N   0  0  0  0  0  0  0  0  0  0  0  0
  145.2735  135.1877  150.8379 C   0  0  0  0  0  0  0  0  0  0  0  0
  144.4181  134.3580  151.5287 N   0  0  0  0  0  0  0  0  0  0  0  0
  143.9843  132.9797  151.1523 C   0  0  2  0  0  0  0  0  0  0  0  0
  144.7303  132.0730  151.9000 O   0  0  0  0  0  0  0  0  0  0  0  0
  144.9459  130.9116  151.1140 C   0  0  2  0  0  0  0  0  0  0  0  0
  146.0707  130.0427  151.7044 C   0  0  0  0  0  0  0  0  0  0  0  0
  147.1870  130.8426  152.0317 O   0  0  0  0  0  0  0  0  0  0  0  0
  145.1568  131.4677  149.6971 C   0  0  2  0  0  0  0  0  0  0  0  0
  146.5039  131.8405  149.4769 O   0  0  0  0  0  0  0  0  0  0  0  0
  144.2498  132.6973  149.6613 C   0  0  1  0  0  0  0  0  0  0  0  0
  143.0499  132.3767  148.9861 O   0  0  0  0  0  0  0  0  0  0  0  0
  149.2924  137.7987  154.8064 C   0  0  0  0  0  0  0  0  0  0  0  0
  148.7388  136.4301  155.0291 C   0  0  0  0  0  0  0  0  0  0  0  0
  150.5457  138.0025  155.2999 O   0  0  0  0  0  0  0  0  0  0  0  0
  142.9301  132.9261  151.4295 H   0  0  0  0  0  0  0  0  0  0  0  0
  144.0131  130.3444  151.1303 H   0  0  0  0  0  0  0  0  0  0  0  0
  144.8943  130.7285  148.9387 H   0  0  0  0  0  0  0  0  0  0  0  0
  144.7209  133.5506  149.1701 H   0  0  0  0  0  0  0  0  0  0  0  0
  152.4254  140.7568  155.1491 H   0  0  0  0  0  0  0  0  0  0  0  0
  153.0182  139.1022  154.9911 H   0  0  0  0  0  0  0  0  0  0  0  0
  152.3317  139.6517  156.5215 H   0  0  0  0  0  0  0  0  0  0  0  0
  149.8849  140.8960  153.9395 H   0  0  0  0  0  0  0  0  0  0  0  0
  147.3685  141.2738  153.9868 H   0  0  0  0  0  0  0  0  0  0  0  0
  146.3782  140.8167  152.6073 H   0  0  0  0  0  0  0  0  0  0  0  0
  148.1264  140.9399  152.4350 H   0  0  0  0  0  0  0  0  0  0  0  0
  148.0594  137.7856  152.2606 H   0  0  0  0  0  0  0  0  0  0  0  0
  146.5162  137.7675  154.8606 H   0  0  0  0  0  0  0  0  0  0  0  0
  146.0782  139.4345  155.1592 H   0  0  0  0  0  0  0  0  0  0  0  0
  144.7379  139.2485  153.0226 H   0  0  0  0  0  0  0  0  0  0  0  0
  142.4135  135.4493  155.3914 H   0  0  0  0  0  0  0  0  0  0  0  0
  145.7401  134.8986  149.9076 H   0  0  0  0  0  0  0  0  0  0  0  0
  145.7372  129.4924  152.5844 H   0  0  0  0  0  0  0  0  0  0  0  0
  146.3877  129.3007  150.9712 H   0  0  0  0  0  0  0  0  0  0  0  0
  147.7385  130.9158  151.2677 H   0  0  0  0  0  0  0  0  0  0  0  0
  147.0624  131.1727  149.8469 H   0  0  0  0  0  0  0  0  0  0  0  0
  142.4033  133.0328  149.1966 H   0  0  0  0  0  0  0  0  0  0  0  0
  148.3525  136.0135  154.0988 H   0  0  0  0  0  0  0  0  0  0  0  0
  147.9246  136.4557  155.7533 H   0  0  0  0  0  0  0  0  0  0  0  0
  149.5040  135.7515  155.4066 H   0  0  0  0  0  0  0  0  0  0  0  0
  1  2  1  0  0  0  0
  1 35  1  0  0  0  0
  1 36  1  0  0  0  0
  1 37  1  0  0  0  0
  2 30  1  0  0  0  0
  2  3  2  0  0  0  0
  3  4  1  0  0  0  0
  3 38  1  0  0  0  0
  4  5  1  0  0  0  0
  4 28  2  0  0  0  0
  5  6  1  0  0  0  0
  5  7  1  0  0  0  0
  5  8  1  0  0  0  0
  6 39  1  0  0  0  0
  6 40  1  0  0  0  0
  6 41  1  0  0  0  0
  7 42  1  0  0  0  0
  8  9  1  0  0  0  0
  8 43  1  0  0  0  0
  8 44  1  0  0  0  0
  9 10  1  0  0  0  0
  9 45  1  0  0  0  0
 10 15  1  0  0  0  0
 10 11  2  0  0  0  0
 11 12  1  0  0  0  0
 12 13  2  0  0  0  0
 12 46  1  0  0  0  0
 13 14  1  0  0  0  0
 14 18  1  0  0  0  0
 14 15  2  0  0  0  0
 15 16  1  0  0  0  0
 16 17  2  0  0  0  0
 17 18  1  0  0  0  0
 17 47  1  0  0  0  0
 18 19  1  0  0  0  0
 19 31  1  0  0  0  0
 19 26  1  0  0  0  0
 19 20  1  0  0  0  0
 20 21  1  0  0  0  0
 21 32  1  0  0  0  0
 21 22  1  0  0  0  0
 21 24  1  0  0  0  0
 22 23  1  0  0  0  0
 22 48  1  0  0  0  0
 22 49  1  0  0  0  0
 23 50  1  0  0  0  0
 24 33  1  0  0  0  0
 24 25  1  0  0  0  0
 24 26  1  0  0  0  0
 25 51  1  0  0  0  0
 26 34  1  0  0  0  0
 26 27  1  0  0  0  0
 27 52  1  0  0  0  0
 28 29  1  0  0  0  0
 28 30  1  0  0  0  0
 29 53  1  0  0  0  0
 29 54  1  0  0  0  0
 29 55  1  0  0  0  0
M  END
> <s_m_source_file>
AV-unprocessed.smi

> <i_m_source_file_index>
287

> <i_lp_mmshare_version>
43012

> <i_f3d_flags>
0

> <s_epik_input>
W0NIM11jMVtjSF1jKGMobzEpW0NIM10pW0NAQF0oW0NIM10pKFtPSF0pW0NIMl1bTkhdYyhuW2NIXW4yKWMoYzIzKW5bY0hdbjNbQ0BASF00T1tDQEhdKFtDSDJdW09IXSlbQ0BASF0oW09IXSlbQ0BIXTRbT0hd

> <s_epik_cmdline>
J2VwaWtfcHl0aG9uJywgJy1waCcsICc3LjAnLCAnLXRuJywgJzgnLCAnLW1hJywgJzIwMCcsICctbWV0YWxfYmluZGluZycsICctaW1hZScsICc8aW5maWxlLm1hZT4nLCAnLW9tYWUnLCAnPG91dGZpbGUubWFlPic=

> <r_lp_tautomer_probability>
1

> <r_epik_Ionization_Penalty>
0.000992612

> <r_epik_Ionization_Penalty_Charging>
0

> <r_epik_Ionization_Penalty_Neutral>
0.000992612

> <r_epik_State_Penalty>
-0

> <r_epik_Charging_Adjusted_Penalty>
0

> <i_epik_Tot_Q>
0

> <i_epik_Tot_abs_Q>
0

> <r_epik_Metal_State_Penalty>
-0

> <b_epik_Metal_Only>
0

> <s_epik_Chemistry_Notes>
This compound contains an acetal/aminal-like group ( X-CH(R)-Y where X, Y are N, S, or O) that may be acid/base labile, releasing an aldehyde.

> <s_lp_Force_Field>
OPLS_2005

> <r_lp_Energy>
37.4731

> <b_lp_Chiralities_Consistent>
1

> <s_lp_Variant>
AV-unprocessed.smi:287-9

> <Gold.Version>
5.8.1

> <Gold.Id.Protein>
6NUR|6NUR_protein|mol2

> <Gold.PLP.Fitness>
65.4120

> <Gold.PLP.PLP>
-49.0731

> <Gold.PLP.part.hbond>
-7.1042

> <Gold.PLP.part.metal>
0.0000

> <Gold.PLP.part.buried>
-8.3250

> <Gold.PLP.part.nonpolar>
-35.6914

> <Gold.PLP.part.repulsive>
0.9962

> <Gold.PLP.ligand.clash>
0.0000

> <Gold.PLP.ligand.torsion>
1.8715

> <Gold.PLP.Chemscore.Hbond>
5.2695

> <Gold.PLP.Chemscore.CHOScore>
1.3718

> <Gold.PLP.Chemscore.Metal>
0.0000

> <Gold.Chemscore.Hbonds>
donor molecule, donor type, donor heavy atom, donor atom, acceptor molecule, acceptor atom, score
      L1  H     7    42       P1  7948  1.00
      L1  H     9    45       P1 10175  1.00
      L1  H    23    50       P1 10747  1.00
      L1  H    25    51       P1 10747  0.80
      L1  H    27    52       P1 10186  1.00
      P1  H 10785 10796       L1    27  0.46
      L1  C    12    46       P1 11000  0.25
      L1  C    17    47       P1  7921  1.00

> <Gold.PLP.Chemscore.Internal.Correction>
0.1578

> <Gold.Rescore>
     Score         DG    S(hbond)    S(metal)    S(lipo)     H(rot)  DE(clash)    DE(int)     intcor
     16.41     -19.81       4.97        0.00      95.75       5.27       0.12       3.29       ----

> <Gold.Chemscore.Fitness>
16.4056

> <Gold.Chemscore.DG>
-19.8061

> <Gold.Chemscore.ZeroCoef>
-5.4800

> <Gold.Chemscore.Hbond>
4.9724

> <Gold.Chemscore.Metal>
0.0000

> <Gold.Chemscore.Lipo>
95.7457

> <Gold.Chemscore.Internal_Hbond>
0.0000

> <Gold.Chemscore.DEClash>
0.1153

> <Gold.Chemscore.DEInternal>
3.2852

> <Gold.Chemscore.Rot>
5.2672

> <Gold.Chemscore.Internal.Correction>
   9.000000E+99

> <Gold.Chemscore.Hbonds>
donor molecule, donor type, donor heavy atom, donor atom, acceptor molecule, acceptor atom, score
      L1  H     7    42       P1  7948  1.00
      L1  H     9    45       P1 10175  0.99
      L1  H    23    50       P1 10747  0.98
      L1  H    25    51       P1 10747  0.78
      L1  H    27    52       P1 10186  0.97
      P1  H 10785 10796       L1    27  0.18

> <Gold.Chemscore.Hbond.Weighted>
-16.6078

> <Gold.Chemscore.Metal.Weighted>
-0.0000

> <Gold.Chemscore.Lipo.Weighted>
-11.2022

> <Gold.Chemscore.Internal_Hbond.Weighted>
0.0000

> <Gold.Chemscore.DEClash.Weighted>
0.1153

> <Gold.Chemscore.DEInternal.Weighted>
3.2852

> <Gold.Chemscore.Rot.Weighted>
13.4839

> <Gold.Chemscore.Internal.Correction.Weighted>
   9.000000E+99

> <Gold.Protein.RotatedTorsions>
[ 6907 6896 6895 6894 ] final   35.31 input  -60.11 | X-H torsion
[ 7974 7965 7964 7962 ] final   76.47 input  175.53 | X-H torsion
[ 8008 7997 7996 7995 ] final  105.69 input   59.86 | X-H torsion
[ 10167 10162 10161 10158 ] final -153.20 input  -65.29 | X-H torsion
[ 10718 10713 10712 10709 ] final  132.99 input   66.30 | X-H torsion
[ 10763 10752 10751 10750 ] final  -22.17 input  -60.55 | X-H torsion
[ 11005 11000 10999 10996 ] final  168.22 input  -57.11 | X-H torsion

> <Gold.Protein.ActiveResidues>
 VAL166  LYS551  ARG553  GLY616  TRP617  ASP618  TYR619  PRO620  LYS621  CYS622 
 ASP623  PHE694  ASN695  SER759  ASP760  ASP761  ALA762  ILE779  LEU786  VAL792 
 PHE793  MET794  SER795  GLU796  ALA797  LYS798  CYS799  TRP800  GLU811  SER814 

> <Gold.Protein.RotatedAtoms>
  152.1143  134.9252  160.0565 H   0  0  0  0  0  0  0  0  0  0  0  0  # atno 6907 bound_to 6896
  152.0417  133.3975  159.4348 H   0  0  0  0  0  0  0  0  0  0  0  0  # atno 6908 bound_to 6896
  150.6845  134.3328  159.4878 H   0  0  0  0  0  0  0  0  0  0  0  0  # atno 6909 bound_to 6896
  145.7025  139.2587  143.1697 H   0  0  0  0  0  0  0  0  0  0  0  0  # atno 7974 bound_to 7965
  156.1680  140.3126  155.8924 H   0  0  0  0  0  0  0  0  0  0  0  0  # atno 8008 bound_to 7997
  155.3645  140.0478  157.3063 H   0  0  0  0  0  0  0  0  0  0  0  0  # atno 8009 bound_to 7997
  154.5212  140.2199  155.8982 H   0  0  0  0  0  0  0  0  0  0  0  0  # atno 8010 bound_to 7997
  139.7117  143.9099  152.2470 H   0  0  0  0  0  0  0  0  0  0  0  0  # atno 10167 bound_to 10162
  157.4817  131.1086  150.9673 H   0  0  0  0  0  0  0  0  0  0  0  0  # atno 10718 bound_to 10713
  153.6477  135.6982  153.5219 H   0  0  0  0  0  0  0  0  0  0  0  0  # atno 10763 bound_to 10752
  153.2731  135.4209  155.1006 H   0  0  0  0  0  0  0  0  0  0  0  0  # atno 10764 bound_to 10752
  154.8484  135.3583  154.6022 H   0  0  0  0  0  0  0  0  0  0  0  0  # atno 10765 bound_to 10752
  140.2850  134.7720  157.3790 H   0  0  0  0  0  0  0  0  0  0  0  0  # atno 11005 bound_to 11000
  146.0785  140.7790  142.9653 LP  0  0  0  0  0  0  0  0  0  0  0  0  # atno 17320 bound_to 7965
  144.6964  140.3452  143.7192 LP  0  0  0  0  0  0  0  0  0  0  0  0  # atno 17321 bound_to 7965
  139.8970  144.6933  150.8707 LP  0  0  0  0  0  0  0  0  0  0  0  0  # atno 17342 bound_to 10162
  140.7734  143.3543  151.1952 LP  0  0  0  0  0  0  0  0  0  0  0  0  # atno 17343 bound_to 10162
  157.0404  130.5747  149.5355 LP  0  0  0  0  0  0  0  0  0  0  0  0  # atno 17370 bound_to 10713
  156.0125  130.5217  150.8032 LP  0  0  0  0  0  0  0  0  0  0  0  0  # atno 17371 bound_to 10713
  140.1248  134.5172  155.8153 LP  0  0  0  0  0  0  0  0  0  0  0  0  # atno 17394 bound_to 11000
  141.2156  133.6769  156.6932 LP  0  0  0  0  0  0  0  0  0  0  0  0  # atno 17395 bound_to 11000

$$$$
