AV-unprocessed.smi:1873|AV-procd|sdf|7607|dock4
  -GOLD-   22720 9323D 1   1.00000     0.00000
 Structure written by MMmdl.
 36 38  0  0  0  0  0  0  0  0  1 V2000
  149.1116  139.4703  153.7239 O   0  0  0  0  0  0  0  0  0  0  0  0
  148.3737  140.3336  154.5682 C   0  0  2  0  0  0  0  0  0  0  0  0
  147.7766  141.4881  153.7404 C   0  0  0  0  0  0  0  0  0  0  0  0
  146.6972  142.1672  154.4339 N   0  0  0  0  0  0  0  0  0  0  0  0
  146.1579  141.8378  155.6235 C   0  0  0  0  0  0  0  0  0  0  0  0
  145.1701  142.6043  156.0774 N   0  0  0  0  0  0  0  0  0  0  0  0
  145.0544  143.5405  155.0641 C   0  0  0  0  0  0  0  0  0  0  0  0
  144.1824  144.6447  154.9295 C   0  0  0  0  0  0  0  0  0  0  0  0
  144.2494  145.4733  153.7899 C   0  0  0  0  0  0  0  0  0  0  0  0
  145.1864  145.2115  152.7690 C   0  0  0  0  0  0  0  0  0  0  0  0
  146.0655  144.1171  152.8806 C   0  0  0  0  0  0  0  0  0  0  0  0
  145.9955  143.2933  154.0196 C   0  0  0  0  0  0  0  0  0  0  0  0
  149.2049  140.8591  155.7281 C   0  0  0  0  0  0  0  0  0  0  0  0
  148.9088  140.4857  157.0566 C   0  0  0  0  0  0  0  0  0  0  0  0
  149.6934  140.9690  158.1211 C   0  0  0  0  0  0  0  0  0  0  0  0
  150.7797  141.8334  157.8781 C   0  0  0  0  0  0  0  0  0  0  0  0
  151.5176  142.2574  158.9601 O   0  0  0  0  0  0  0  0  0  0  0  0
  151.5056  143.5732  159.3027 C   0  0  0  0  0  0  0  0  0  0  0  0
  152.1397  143.7432  160.4878 F   0  0  0  0  0  0  0  0  0  0  0  0
  152.1664  144.3101  158.3762 F   0  0  0  0  0  0  0  0  0  0  0  0
  151.0836  142.1954  156.5437 C   0  0  0  0  0  0  0  0  0  0  0  0
  150.2994  141.7127  155.4784 C   0  0  0  0  0  0  0  0  0  0  0  0
  149.3094  139.9315  152.9232 H   0  0  0  0  0  0  0  0  0  0  0  0
  147.5576  139.7393  154.9809 H   0  0  0  0  0  0  0  0  0  0  0  0
  148.5472  142.2261  153.5135 H   0  0  0  0  0  0  0  0  0  0  0  0
  147.4033  141.1213  152.7830 H   0  0  0  0  0  0  0  0  0  0  0  0
  146.5129  140.9889  156.1896 H   0  0  0  0  0  0  0  0  0  0  0  0
  143.4611  144.8549  155.7053 H   0  0  0  0  0  0  0  0  0  0  0  0
  143.5780  146.3145  153.6988 H   0  0  0  0  0  0  0  0  0  0  0  0
  145.2301  145.8519  151.9003 H   0  0  0  0  0  0  0  0  0  0  0  0
  146.7851  143.9132  152.1017 H   0  0  0  0  0  0  0  0  0  0  0  0
  148.0813  139.8232  157.2644 H   0  0  0  0  0  0  0  0  0  0  0  0
  149.4587  140.6742  159.1333 H   0  0  0  0  0  0  0  0  0  0  0  0
  150.4894  143.9528  159.4120 H   0  0  0  0  0  0  0  0  0  0  0  0
  151.9224  142.8377  156.3209 H   0  0  0  0  0  0  0  0  0  0  0  0
  150.5469  141.9972  154.4660 H   0  0  0  0  0  0  0  0  0  0  0  0
  1  2  1  0  0  0  0
  1 23  1  0  0  0  0
  2  3  1  0  0  0  0
  2 13  1  0  0  0  0
  2 24  1  0  0  0  0
  3  4  1  0  0  0  0
  3 25  1  0  0  0  0
  3 26  1  0  0  0  0
  4 12  1  0  0  0  0
  4  5  1  0  0  0  0
  5  6  2  0  0  0  0
  5 27  1  0  0  0  0
  6  7  1  0  0  0  0
  7 12  2  0  0  0  0
  7  8  1  0  0  0  0
  8  9  2  0  0  0  0
  8 28  1  0  0  0  0
  9 10  1  0  0  0  0
  9 29  1  0  0  0  0
 10 11  2  0  0  0  0
 10 30  1  0  0  0  0
 11 12  1  0  0  0  0
 11 31  1  0  0  0  0
 13 22  1  0  0  0  0
 13 14  2  0  0  0  0
 14 15  1  0  0  0  0
 14 32  1  0  0  0  0
 15 16  2  0  0  0  0
 15 33  1  0  0  0  0
 16 17  1  0  0  0  0
 16 21  1  0  0  0  0
 17 18  1  0  0  0  0
 18 19  1  0  0  0  0
 18 20  1  0  0  0  0
 18 34  1  0  0  0  0
 21 22  2  0  0  0  0
 21 35  1  0  0  0  0
 22 36  1  0  0  0  0
M  END
> <s_m_source_file>
AV-unprocessed.smi

> <i_m_source_file_index>
1873

> <i_lp_mmshare_version>
43012

> <i_f3d_flags>
0

> <s_epik_input>
RltDSF0oRilPYyhbY0hdW2NIXTEpW2NIXVtjSF1jMVtDQEhdKFtPSF0pW0NIMl1uKFtjSF1uMiljKGMyMylbY0hdW2NIXVtjSF1bY0hdMw==

> <s_epik_cmdline>
J2VwaWtfcHl0aG9uJywgJy1waCcsICc3LjAnLCAnLXRuJywgJzgnLCAnLW1hJywgJzIwMCcsICctbWV0YWxfYmluZGluZycsICctaW1hZScsICc8aW5maWxlLm1hZT4nLCAnLW9tYWUnLCAnPG91dGZpbGUubWFlPic=

> <r_lp_tautomer_probability>
1

> <r_epik_Ionization_Penalty>
0.0696507

> <r_epik_Ionization_Penalty_Charging>
0

> <r_epik_Ionization_Penalty_Neutral>
0.0696507

> <r_epik_State_Penalty>
0.0610247

> <r_epik_Charging_Adjusted_Penalty>
0.0610247

> <i_epik_Tot_Q>
0

> <i_epik_Tot_abs_Q>
0

> <r_epik_Metal_State_Penalty>
6.42746e-05

> <b_epik_Metal_Only>
0

> <s_lp_Force_Field>
OPLS_2005

> <r_lp_Energy>
11.1273

> <b_lp_Chiralities_Consistent>
1

> <s_lp_Variant>
AV-unprocessed.smi:1873-1

> <Gold.Version>
5.8.1

> <Gold.Id.Protein>
6NUR|6NUR_protein|mol2

> <Gold.PLP.Fitness>
50.6749

> <Gold.PLP.PLP>
-48.1472

> <Gold.PLP.part.hbond>
-1.0000

> <Gold.PLP.part.metal>
0.0000

> <Gold.PLP.part.buried>
-6.9472

> <Gold.PLP.part.nonpolar>
-39.4570

> <Gold.PLP.part.repulsive>
0.0824

> <Gold.PLP.ligand.clash>
0.0000

> <Gold.PLP.ligand.torsion>
0.2650

> <Gold.PLP.Chemscore.Hbond>
0.9920

> <Gold.PLP.Chemscore.CHOScore>
0.0000

> <Gold.PLP.Chemscore.Metal>
0.0000

> <Gold.Chemscore.Hbonds>
donor molecule, donor type, donor heavy atom, donor atom, acceptor molecule, acceptor atom, score
      L1  H     1    23       P1  7957  1.00

> <Gold.PLP.Chemscore.Internal.Correction>
0.0818

> <Gold.Rescore>
     Score         DG    S(hbond)    S(metal)    S(lipo)     H(rot)  DE(clash)    DE(int)     intcor
     13.18     -13.79       0.99        0.00      95.32       2.40       0.18       0.44       ----

> <Gold.Chemscore.Fitness>
13.1801

> <Gold.Chemscore.DG>
-13.7936

> <Gold.Chemscore.ZeroCoef>
-5.4800

> <Gold.Chemscore.Hbond>
0.9886

> <Gold.Chemscore.Metal>
0.0000

> <Gold.Chemscore.Lipo>
95.3181

> <Gold.Chemscore.Internal_Hbond>
0.0000

> <Gold.Chemscore.DEClash>
0.1760

> <Gold.Chemscore.DEInternal>
0.4375

> <Gold.Chemscore.Rot>
2.3986

> <Gold.Chemscore.Internal.Correction>
   9.000000E+99

> <Gold.Chemscore.Hbonds>
donor molecule, donor type, donor heavy atom, donor atom, acceptor molecule, acceptor atom, score
      L1  H     1    23       P1  7957  0.98

> <Gold.Chemscore.Hbond.Weighted>
-3.3019

> <Gold.Chemscore.Metal.Weighted>
-0.0000

> <Gold.Chemscore.Lipo.Weighted>
-11.1522

> <Gold.Chemscore.Internal_Hbond.Weighted>
0.0000

> <Gold.Chemscore.DEClash.Weighted>
0.1760

> <Gold.Chemscore.DEInternal.Weighted>
0.4375

> <Gold.Chemscore.Rot.Weighted>
6.1405

> <Gold.Chemscore.Internal.Correction.Weighted>
   9.000000E+99

> <Gold.Protein.RotatedTorsions>
[ 6907 6896 6895 6894 ] final -151.86 input  -60.11 | X-H torsion
[ 7974 7965 7964 7962 ] final   65.45 input  175.53 | X-H torsion
[ 8008 7997 7996 7995 ] final -155.67 input   59.86 | X-H torsion
[ 10167 10162 10161 10158 ] final   71.35 input  -65.29 | X-H torsion
[ 10718 10713 10712 10709 ] final  -69.96 input   66.30 | X-H torsion
[ 10763 10752 10751 10750 ] final -108.35 input  -60.55 | X-H torsion
[ 11005 11000 10999 10996 ] final  176.47 input  -57.11 | X-H torsion

> <Gold.Protein.ActiveResidues>
 VAL166  LYS551  ARG553  GLY616  TRP617  ASP618  TYR619  PRO620  LYS621  CYS622 
 ASP623  PHE694  ASN695  SER759  ASP760  ASP761  ALA762  ILE779  LEU786  VAL792 
 PHE793  MET794  SER795  GLU796  ALA797  LYS798  CYS799  TRP800  GLU811  SER814 

> <Gold.Protein.RotatedAtoms>
  151.2193  133.4511  159.2600 H   0  0  0  0  0  0  0  0  0  0  0  0  # atno 6907 bound_to 6896
  151.0901  134.9911  159.8408 H   0  0  0  0  0  0  0  0  0  0  0  0  # atno 6908 bound_to 6896
  152.5433  134.2127  159.8809 H   0  0  0  0  0  0  0  0  0  0  0  0  # atno 6909 bound_to 6896
  145.8383  139.3180  143.0947 H   0  0  0  0  0  0  0  0  0  0  0  0  # atno 7974 bound_to 7965
  155.7055  140.0772  157.2393 H   0  0  0  0  0  0  0  0  0  0  0  0  # atno 8008 bound_to 7997
  154.4066  140.1639  156.2291 H   0  0  0  0  0  0  0  0  0  0  0  0  # atno 8009 bound_to 7997
  155.9330  140.3390  155.6267 H   0  0  0  0  0  0  0  0  0  0  0  0  # atno 8010 bound_to 7997
  140.0471  144.5342  150.7391 H   0  0  0  0  0  0  0  0  0  0  0  0  # atno 10167 bound_to 10162
  156.0430  130.4322  150.2225 H   0  0  0  0  0  0  0  0  0  0  0  0  # atno 10718 bound_to 10713
  154.8130  135.4641  154.0567 H   0  0  0  0  0  0  0  0  0  0  0  0  # atno 10763 bound_to 10752
  153.1982  135.6865  153.8271 H   0  0  0  0  0  0  0  0  0  0  0  0  # atno 10764 bound_to 10752
  153.7765  135.3262  155.3337 H   0  0  0  0  0  0  0  0  0  0  0  0  # atno 10765 bound_to 10752
  140.3735  134.7009  157.4407 H   0  0  0  0  0  0  0  0  0  0  0  0  # atno 11005 bound_to 11000
  145.9494  140.8920  143.0267 LP  0  0  0  0  0  0  0  0  0  0  0  0  # atno 17320 bound_to 7965
  144.6735  140.1659  143.7418 LP  0  0  0  0  0  0  0  0  0  0  0  0  # atno 17321 bound_to 7965
  140.7234  143.2611  151.4203 LP  0  0  0  0  0  0  0  0  0  0  0  0  # atno 17342 bound_to 10162
  139.5977  144.1363  152.2162 LP  0  0  0  0  0  0  0  0  0  0  0  0  # atno 17343 bound_to 10162
  157.0318  131.0009  151.3310 LP  0  0  0  0  0  0  0  0  0  0  0  0  # atno 17370 bound_to 10713
  157.5272  130.8035  149.7875 LP  0  0  0  0  0  0  0  0  0  0  0  0  # atno 17371 bound_to 10713
  140.0533  134.6099  155.8835 LP  0  0  0  0  0  0  0  0  0  0  0  0  # atno 17394 bound_to 11000
  141.1947  133.6584  156.5607 LP  0  0  0  0  0  0  0  0  0  0  0  0  # atno 17395 bound_to 11000

$$$$
