AV-unprocessed.smi:1072|AV-procd|sdf|4683|dock8
  -GOLD-   22720 3203D 1   1.00000     0.00000
 Structure written by MMmdl.
 46 47  0  0  0  0  0  0  0  0  1 V2000
  150.8535  142.6198  156.6313 C   0  0  0  0  0  0  0  0  0  0  0  0
  150.0565  141.7128  155.7179 C   0  0  0  0  0  0  0  0  0  0  0  0
  150.4430  140.5332  155.3583 N   0  0  0  0  0  0  0  0  0  0  0  0
  149.6170  139.7834  154.5094 C   0  0  0  0  0  0  0  0  0  0  0  0
  150.1371  138.4054  154.1374 C   0  0  0  0  0  0  0  0  0  0  0  0
  148.4244  140.2708  154.0570 C   0  0  0  0  0  0  0  0  0  0  0  0
  147.5018  139.4745  153.1353 C   0  0  0  0  0  0  0  0  0  0  0  0
  146.5134  138.5371  153.8331 C   0  0  0  0  0  0  0  0  0  0  0  0
  145.6276  138.9988  154.5524 O   0  0  0  0  0  0  0  0  0  0  0  0
  146.6946  137.2233  153.6122 N   0  0  0  0  0  0  0  0  0  0  0  0
  145.9429  136.0870  154.1650 C   0  0  1  0  0  0  0  0  0  0  0  0
  146.1208  136.0433  155.6981 C   0  0  0  0  0  0  0  0  0  0  0  0
  144.4368  136.1585  153.7977 C   0  0  0  0  0  0  0  0  0  0  0  0
  144.1859  136.0546  152.2828 C   0  0  0  0  0  0  0  0  0  0  0  0
  144.7881  134.7634  151.7003 C   0  0  1  0  0  0  0  0  0  0  0  0
  144.5457  134.6635  150.1879 C   0  0  0  0  0  0  0  0  0  0  0  0
  146.2867  134.6713  152.0402 C   0  0  0  0  0  0  0  0  0  0  0  0
  146.5345  134.7925  153.5563 C   0  0  0  0  0  0  0  0  0  0  0  0
  147.9931  141.6192  154.4740 C   0  0  0  0  0  0  0  0  0  0  0  0
  146.9385  142.1517  154.1318 O   0  0  0  0  0  0  0  0  0  0  0  0
  148.8513  142.2688  155.2918 N   0  0  0  0  0  0  0  0  0  0  0  0
  148.6005  143.1949  155.6061 H   0  0  0  0  0  0  0  0  0  0  0  0
  150.9938  142.1437  157.6019 H   0  0  0  0  0  0  0  0  0  0  0  0
  150.3522  143.5756  156.7886 H   0  0  0  0  0  0  0  0  0  0  0  0
  151.8355  142.8167  156.2009 H   0  0  0  0  0  0  0  0  0  0  0  0
  150.3135  138.3404  153.0638 H   0  0  0  0  0  0  0  0  0  0  0  0
  149.4217  137.6332  154.4203 H   0  0  0  0  0  0  0  0  0  0  0  0
  151.0777  138.1872  154.6445 H   0  0  0  0  0  0  0  0  0  0  0  0
  146.9343  140.1422  152.4864 H   0  0  0  0  0  0  0  0  0  0  0  0
  148.1222  138.8886  152.4560 H   0  0  0  0  0  0  0  0  0  0  0  0
  147.4558  136.9755  152.9971 H   0  0  0  0  0  0  0  0  0  0  0  0
  145.6483  135.1578  156.1241 H   0  0  0  0  0  0  0  0  0  0  0  0
  145.6739  136.9084  156.1879 H   0  0  0  0  0  0  0  0  0  0  0  0
  147.1754  136.0162  155.9749 H   0  0  0  0  0  0  0  0  0  0  0  0
  143.9097  135.3412  154.2921 H   0  0  0  0  0  0  0  0  0  0  0  0
  143.9798  137.0700  154.1822 H   0  0  0  0  0  0  0  0  0  0  0  0
  143.1126  136.0825  152.0909 H   0  0  0  0  0  0  0  0  0  0  0  0
  144.6081  136.9239  151.7771 H   0  0  0  0  0  0  0  0  0  0  0  0
  144.2853  133.9168  152.1701 H   0  0  0  0  0  0  0  0  0  0  0  0
  145.0175  135.4900  149.6556 H   0  0  0  0  0  0  0  0  0  0  0  0
  143.4797  134.6856  149.9595 H   0  0  0  0  0  0  0  0  0  0  0  0
  144.9496  133.7341  149.7856 H   0  0  0  0  0  0  0  0  0  0  0  0
  146.6897  133.7230  151.6828 H   0  0  0  0  0  0  0  0  0  0  0  0
  146.8341  135.4521  151.5107 H   0  0  0  0  0  0  0  0  0  0  0  0
  147.6057  134.7379  153.7554 H   0  0  0  0  0  0  0  0  0  0  0  0
  146.0944  133.9247  154.0499 H   0  0  0  0  0  0  0  0  0  0  0  0
  1  2  1  0  0  0  0
  1 23  1  0  0  0  0
  1 24  1  0  0  0  0
  1 25  1  0  0  0  0
  2 21  1  0  0  0  0
  2  3  2  0  0  0  0
  3  4  1  0  0  0  0
  4  5  1  0  0  0  0
  4  6  2  0  0  0  0
  5 26  1  0  0  0  0
  5 27  1  0  0  0  0
  5 28  1  0  0  0  0
  6  7  1  0  0  0  0
  6 19  1  0  0  0  0
  7  8  1  0  0  0  0
  7 29  1  0  0  0  0
  7 30  1  0  0  0  0
  8  9  2  0  0  0  0
  8 10  1  0  0  0  0
 10 11  1  0  0  0  0
 10 31  1  0  0  0  0
 11 18  1  0  0  0  0
 11 12  1  0  0  0  0
 11 13  1  0  0  0  0
 12 32  1  0  0  0  0
 12 33  1  0  0  0  0
 12 34  1  0  0  0  0
 13 14  1  0  0  0  0
 13 35  1  0  0  0  0
 13 36  1  0  0  0  0
 14 15  1  0  0  0  0
 14 37  1  0  0  0  0
 14 38  1  0  0  0  0
 15 16  1  0  0  0  0
 15 17  1  0  0  0  0
 15 39  1  0  0  0  0
 16 40  1  0  0  0  0
 16 41  1  0  0  0  0
 16 42  1  0  0  0  0
 17 18  1  0  0  0  0
 17 43  1  0  0  0  0
 17 44  1  0  0  0  0
 18 45  1  0  0  0  0
 18 46  1  0  0  0  0
 19 20  2  0  0  0  0
 19 21  1  0  0  0  0
 21 22  1  0  0  0  0
M  END
> <s_m_source_file>
AV-unprocessed.smi

> <i_m_source_file_index>
1072

> <i_lp_mmshare_version>
43012

> <i_f3d_flags>
0

> <s_epik_input>
W0NIM11jMW5jKFtDSDNdKWMoYyg9TylbbkhdMSlbQ0gyXUMoPU8pW05IXVtDQEBdMihbQ0gzXSlbQ0gyXVtDSDJdW0NAQEhdKFtDSDNdKVtDSDJdW0NIMl0y

> <s_epik_cmdline>
J2VwaWtfcHl0aG9uJywgJy1waCcsICc3LjAnLCAnLXRuJywgJzgnLCAnLW1hJywgJzIwMCcsICctbWV0YWxfYmluZGluZycsICctaW1hZScsICc8aW5maWxlLm1hZT4nLCAnLW9tYWUnLCAnPG91dGZpbGUubWFlPic=

> <r_lp_tautomer_probability>
0.839158

> <r_epik_Ionization_Penalty>
0.000352328

> <r_epik_Ionization_Penalty_Charging>
0.000314696

> <r_epik_Ionization_Penalty_Neutral>
3.76315e-05

> <r_epik_State_Penalty>
0.09125

> <r_epik_Charging_Adjusted_Penalty>
0.0915647

> <i_epik_Tot_Q>
0

> <i_epik_Tot_abs_Q>
0

> <r_epik_Metal_State_Penalty>
0.245598

> <b_epik_Metal_Only>
0

> <s_lp_Force_Field>
OPLS_2005

> <r_lp_Energy>
11.0611

> <b_lp_Chiralities_Consistent>
1

> <s_lp_Variant>
AV-unprocessed.smi:1072-1

> <Gold.Version>
5.8.1

> <Gold.Id.Protein>
6NUR|6NUR_protein|mol2

> <Gold.PLP.Fitness>
35.1648

> <Gold.PLP.PLP>
-29.2889

> <Gold.PLP.part.hbond>
-2.8893

> <Gold.PLP.part.metal>
0.0000

> <Gold.PLP.part.buried>
0.3082

> <Gold.PLP.part.nonpolar>
-26.3050

> <Gold.PLP.part.repulsive>
0.4892

> <Gold.PLP.ligand.clash>
0.0000

> <Gold.PLP.ligand.torsion>
0.4008

> <Gold.PLP.Chemscore.Hbond>
2.2243

> <Gold.PLP.Chemscore.CHOScore>
0.0000

> <Gold.PLP.Chemscore.Metal>
0.0000

> <Gold.Chemscore.Hbonds>
donor molecule, donor type, donor heavy atom, donor atom, acceptor molecule, acceptor atom, score
      L1  H    10    31       P1  7948  1.00
      L1  H    21    22       P1  8028  1.00
      P1  H  7989  7998       L1     3  0.10

> <Gold.PLP.Chemscore.Internal.Correction>
0.0048

> <Gold.Rescore>
     Score         DG    S(hbond)    S(metal)    S(lipo)     H(rot)  DE(clash)    DE(int)     intcor
     14.02     -15.43       1.80        0.00      65.88       1.47       1.03       0.38       ----

> <Gold.Chemscore.Fitness>
14.0204

> <Gold.Chemscore.DG>
-15.4341

> <Gold.Chemscore.ZeroCoef>
-5.4800

> <Gold.Chemscore.Hbond>
1.7985

> <Gold.Chemscore.Metal>
0.0000

> <Gold.Chemscore.Lipo>
65.8784

> <Gold.Chemscore.Internal_Hbond>
0.0000

> <Gold.Chemscore.DEClash>
1.0305

> <Gold.Chemscore.DEInternal>
0.3832

> <Gold.Chemscore.Rot>
1.4690

> <Gold.Chemscore.Internal.Correction>
   9.000000E+99

> <Gold.Chemscore.Hbonds>
donor molecule, donor type, donor heavy atom, donor atom, acceptor molecule, acceptor atom, score
      L1  H    10    31       P1  7948  0.94
      L1  H    21    22       P1  8028  0.90

> <Gold.Chemscore.Hbond.Weighted>
-6.0070

> <Gold.Chemscore.Metal.Weighted>
-0.0000

> <Gold.Chemscore.Lipo.Weighted>
-7.7078

> <Gold.Chemscore.Internal_Hbond.Weighted>
0.0000

> <Gold.Chemscore.DEClash.Weighted>
1.0305

> <Gold.Chemscore.DEInternal.Weighted>
0.3832

> <Gold.Chemscore.Rot.Weighted>
3.7607

> <Gold.Chemscore.Internal.Correction.Weighted>
   9.000000E+99

> <Gold.Protein.RotatedTorsions>
[ 6907 6896 6895 6894 ] final -166.61 input  -60.11 | X-H torsion
[ 7974 7965 7964 7962 ] final  155.47 input  175.53 | X-H torsion
[ 8008 7997 7996 7995 ] final   56.65 input   59.86 | X-H torsion
[ 10167 10162 10161 10158 ] final -178.64 input  -65.29 | X-H torsion
[ 10718 10713 10712 10709 ] final   90.74 input   66.30 | X-H torsion
[ 10763 10752 10751 10750 ] final  152.45 input  -60.55 | X-H torsion
[ 11005 11000 10999 10996 ] final   45.75 input  -57.11 | X-H torsion

> <Gold.Protein.ActiveResidues>
 VAL166  LYS551  ARG553  GLY616  TRP617  ASP618  TYR619  PRO620  LYS621  CYS622 
 ASP623  PHE694  ASN695  SER759  ASP760  ASP761  ALA762  ILE779  LEU786  VAL792 
 PHE793  MET794  SER795  GLU796  ALA797  LYS798  CYS799  TRP800  GLU811  SER814 

> <Gold.Protein.RotatedAtoms>
  151.4464  133.3629  159.2788 H   0  0  0  0  0  0  0  0  0  0  0  0  # atno 6907 bound_to 6896
  150.9121  134.8540  159.7443 H   0  0  0  0  0  0  0  0  0  0  0  0  # atno 6908 bound_to 6896
  152.4938  134.4395  159.9590 H   0  0  0  0  0  0  0  0  0  0  0  0  # atno 6909 bound_to 6896
  144.8023  139.7072  143.6177 H   0  0  0  0  0  0  0  0  0  0  0  0  # atno 7974 bound_to 7965
  155.5210  140.3479  155.4407 H   0  0  0  0  0  0  0  0  0  0  0  0  # atno 8008 bound_to 7997
  156.0784  140.1380  156.9769 H   0  0  0  0  0  0  0  0  0  0  0  0  # atno 8009 bound_to 7997
  154.4566  140.0951  156.6751 H   0  0  0  0  0  0  0  0  0  0  0  0  # atno 8010 bound_to 7997
  139.5423  144.2330  152.0919 H   0  0  0  0  0  0  0  0  0  0  0  0  # atno 10167 bound_to 10162
  157.6959  131.0382  150.3624 H   0  0  0  0  0  0  0  0  0  0  0  0  # atno 10718 bound_to 10713
  154.1202  135.2833  155.3210 H   0  0  0  0  0  0  0  0  0  0  0  0  # atno 10763 bound_to 10752
  154.6428  135.5396  153.7813 H   0  0  0  0  0  0  0  0  0  0  0  0  # atno 10764 bound_to 10752
  153.0315  135.6490  154.1356 H   0  0  0  0  0  0  0  0  0  0  0  0  # atno 10765 bound_to 10752
  140.1431  134.4557  155.8435 H   0  0  0  0  0  0  0  0  0  0  0  0  # atno 11005 bound_to 11000
  146.2307  139.5808  142.9557 LP  0  0  0  0  0  0  0  0  0  0  0  0  # atno 17320 bound_to 7965
  145.5523  141.0412  143.2271 LP  0  0  0  0  0  0  0  0  0  0  0  0  # atno 17321 bound_to 7965
  140.1811  144.4844  150.6528 LP  0  0  0  0  0  0  0  0  0  0  0  0  # atno 17342 bound_to 10162
  140.6657  143.2267  151.5747 LP  0  0  0  0  0  0  0  0  0  0  0  0  # atno 17343 bound_to 10162
  156.4058  130.3924  149.6926 LP  0  0  0  0  0  0  0  0  0  0  0  0  # atno 17370 bound_to 10713
  156.4228  130.7777  151.2794 LP  0  0  0  0  0  0  0  0  0  0  0  0  # atno 17371 bound_to 10713
  141.2189  133.6841  156.7284 LP  0  0  0  0  0  0  0  0  0  0  0  0  # atno 17394 bound_to 11000
  140.2697  134.8402  157.3836 LP  0  0  0  0  0  0  0  0  0  0  0  0  # atno 17395 bound_to 11000

$$$$
