AV-unprocessed.smi:49|AV-procd|sdf|476|dock6
  -GOLD-   2262016343D 1   1.00000     0.00000
 Structure written by MMmdl.
 27 28  0  0  0  0  0  0  0  0  1 V2000
  153.8748  141.9359  160.4728 C   0  0  0  0  0  0  0  0  0  0  0  0
  153.3004  143.2408  159.9100 C   0  0  0  0  0  0  0  0  0  0  0  0
  152.2597  142.9979  158.8676 C   0  0  0  0  0  0  0  0  0  0  0  0
  151.9372  141.7461  158.4233 N   0  0  0  0  0  0  0  0  0  0  0  0
  151.0231  142.0490  157.5054 C   0  0  0  0  0  0  0  0  0  0  0  0
  150.2881  141.0685  156.6448 C   0  0  1  0  0  0  0  0  0  0  0  0
  149.3275  141.7453  155.6562 C   0  0  0  0  0  0  0  0  0  0  0  0
  149.3124  140.7752  154.4838 C   0  0  1  0  0  0  0  0  0  0  0  0
  148.9182  141.3807  153.2711 O   0  0  0  0  0  0  0  0  0  0  0  0
  150.7610  140.2987  154.4512 C   0  0  0  0  0  0  0  0  0  0  0  0
  151.1764  140.2125  155.8486 N   0  0  0  0  0  0  0  0  0  0  0  0
  150.8304  143.3652  157.3965 N   0  0  0  0  0  0  0  0  0  0  0  0
  151.6316  144.0097  158.2708 N   0  0  0  0  0  0  0  0  0  0  0  0
  149.6994  140.4241  157.2990 H   0  0  0  0  0  0  0  0  0  0  0  0
  148.6494  139.9366  154.7020 H   0  0  0  0  0  0  0  0  0  0  0  0
  150.2011  143.8443  156.7686 H   0  0  0  0  0  0  0  0  0  0  0  0
  154.6346  142.1394  161.2273 H   0  0  0  0  0  0  0  0  0  0  0  0
  154.3373  141.3384  159.6867 H   0  0  0  0  0  0  0  0  0  0  0  0
  153.0953  141.3323  160.9386 H   0  0  0  0  0  0  0  0  0  0  0  0
  152.8643  143.8311  160.7167 H   0  0  0  0  0  0  0  0  0  0  0  0
  154.1020  143.8451  159.4835 H   0  0  0  0  0  0  0  0  0  0  0  0
  148.3410  141.9348  156.0802 H   0  0  0  0  0  0  0  0  0  0  0  0
  149.7403  142.7015  155.3279 H   0  0  0  0  0  0  0  0  0  0  0  0
  148.9105  140.7216  152.5941 H   0  0  0  0  0  0  0  0  0  0  0  0
  150.8804  139.3489  153.9296 H   0  0  0  0  0  0  0  0  0  0  0  0
  151.3788  141.0374  153.9388 H   0  0  0  0  0  0  0  0  0  0  0  0
  151.0622  139.2537  156.1605 H   0  0  0  0  0  0  0  0  0  0  0  0
  1  2  1  0  0  0  0
  1 17  1  0  0  0  0
  1 18  1  0  0  0  0
  1 19  1  0  0  0  0
  2 20  1  0  0  0  0
  2 21  1  0  0  0  0
  2  3  1  0  0  0  0
  3  4  1  0  0  0  0
  3 13  2  0  0  0  0
  4  5  2  0  0  0  0
  5  6  1  0  0  0  0
  5 12  1  0  0  0  0
  6 14  1  0  0  0  0
  6 11  1  0  0  0  0
  6  7  1  0  0  0  0
  7  8  1  0  0  0  0
  7 22  1  0  0  0  0
  7 23  1  0  0  0  0
  8 15  1  0  0  0  0
  8  9  1  0  0  0  0
  8 10  1  0  0  0  0
  9 24  1  0  0  0  0
 10 11  1  0  0  0  0
 10 25  1  0  0  0  0
 10 26  1  0  0  0  0
 11 27  1  0  0  0  0
 12 13  1  0  0  0  0
 12 16  1  0  0  0  0
M  END
> <s_m_source_file>
AV-unprocessed.smi

> <i_m_source_file_index>
49

> <i_lp_mmshare_version>
43012

> <i_f3d_flags>
0

> <s_epik_input>
W0NIM11bQ0gyXWMxbmMobltuSF0xKVtDQEBIXTJbQ0gyXVtDQEBIXShbT0hdKVtDSDJdW05IXTI=

> <s_epik_cmdline>
J2VwaWtfcHl0aG9uJywgJy1waCcsICc3LjAnLCAnLXRuJywgJzgnLCAnLW1hJywgJzIwMCcsICctbWV0YWxfYmluZGluZycsICctaW1hZScsICc8aW5maWxlLm1hZT4nLCAnLW9tYWUnLCAnPG91dGZpbGUubWFlPic=

> <r_epik_Ionization_Penalty>
1.31544

> <r_epik_Ionization_Penalty_Charging>
0

> <r_epik_Ionization_Penalty_Neutral>
1.31544

> <r_epik_State_Penalty>
2.06074

> <r_epik_Charging_Adjusted_Penalty>
2.06074

> <i_epik_Tot_Q>
0

> <i_epik_Tot_abs_Q>
0

> <r_epik_Metal_State_Penalty>
2.32913

> <b_epik_Metal_Only>
0

> <s_lp_Force_Field>
OPLS_2005

> <r_lp_Energy>
18.1426

> <b_lp_Chiralities_Consistent>
1

> <s_lp_Variant>
AV-unprocessed.smi:49-14

> <Gold.Version>
5.8.1

> <Gold.Id.Protein>
6NUR|6NUR_protein|mol2

> <Gold.PLP.Fitness>
35.1398

> <Gold.PLP.PLP>
-26.9540

> <Gold.PLP.part.hbond>
-3.2849

> <Gold.PLP.part.metal>
0.0000

> <Gold.PLP.part.buried>
-0.8694

> <Gold.PLP.part.nonpolar>
-22.7691

> <Gold.PLP.part.repulsive>
0.0938

> <Gold.PLP.ligand.clash>
0.0000

> <Gold.PLP.ligand.torsion>
0.0156

> <Gold.PLP.Chemscore.Hbond>
2.7360

> <Gold.PLP.Chemscore.CHOScore>
0.0000

> <Gold.PLP.Chemscore.Metal>
0.0000

> <Gold.Chemscore.Hbonds>
donor molecule, donor type, donor heavy atom, donor atom, acceptor molecule, acceptor atom, score
      L1  H     9    24       P1  7957  0.99
      L1  H    12    16       P1  8028  1.00
      P1  H  8011  8017       L1     9  0.57

> <Gold.PLP.Chemscore.Internal.Correction>
0.0090

> <Gold.Rescore>
     Score         DG    S(hbond)    S(metal)    S(lipo)     H(rot)  DE(clash)    DE(int)     intcor
     13.56     -14.62       2.38        0.00      50.75       1.86       1.00       0.05       ----

> <Gold.Chemscore.Fitness>
13.5641

> <Gold.Chemscore.DG>
-14.6151

> <Gold.Chemscore.ZeroCoef>
-5.4800

> <Gold.Chemscore.Hbond>
2.3798

> <Gold.Chemscore.Metal>
0.0000

> <Gold.Chemscore.Lipo>
50.7471

> <Gold.Chemscore.Internal_Hbond>
0.0000

> <Gold.Chemscore.DEClash>
0.9986

> <Gold.Chemscore.DEInternal>
0.0523

> <Gold.Chemscore.Rot>
1.8558

> <Gold.Chemscore.Internal.Correction>
   9.000000E+99

> <Gold.Chemscore.Hbonds>
donor molecule, donor type, donor heavy atom, donor atom, acceptor molecule, acceptor atom, score
      L1  H     9    24       P1  7957  0.93
      L1  H    12    16       P1  8028  1.00
      P1  H  8011  8017       L1     9  0.04

> <Gold.Chemscore.Hbond.Weighted>
-7.9484

> <Gold.Chemscore.Metal.Weighted>
-0.0000

> <Gold.Chemscore.Lipo.Weighted>
-5.9374

> <Gold.Chemscore.Internal_Hbond.Weighted>
0.0000

> <Gold.Chemscore.DEClash.Weighted>
0.9986

> <Gold.Chemscore.DEInternal.Weighted>
0.0523

> <Gold.Chemscore.Rot.Weighted>
4.7507

> <Gold.Chemscore.Internal.Correction.Weighted>
   9.000000E+99

> <Gold.Protein.RotatedTorsions>
[ 6907 6896 6895 6894 ] final -171.22 input  -60.11 | X-H torsion
[ 7974 7965 7964 7962 ] final   95.10 input  175.53 | X-H torsion
[ 8008 7997 7996 7995 ] final  -37.72 input   59.86 | X-H torsion
[ 10167 10162 10161 10158 ] final -145.82 input  -65.29 | X-H torsion
[ 10718 10713 10712 10709 ] final -108.22 input   66.30 | X-H torsion
[ 10763 10752 10751 10750 ] final   66.28 input  -60.55 | X-H torsion
[ 11005 11000 10999 10996 ] final  144.26 input  -57.11 | X-H torsion

> <Gold.Protein.ActiveResidues>
 VAL166  LYS551  ARG553  GLY616  TRP617  ASP618  TYR619  PRO620  LYS621  CYS622 
 ASP623  PHE694  ASN695  SER759  ASP760  ASP761  ALA762  ILE779  LEU786  VAL792 
 PHE793  MET794  SER795  GLU796  ALA797  LYS798  CYS799  TRP800  GLU811  SER814 

> <Gold.Protein.RotatedAtoms>
  151.5203  133.3468  159.2899 H   0  0  0  0  0  0  0  0  0  0  0  0  # atno 6907 bound_to 6896
  150.8656  134.8021  159.7127 H   0  0  0  0  0  0  0  0  0  0  0  0  # atno 6908 bound_to 6896
  152.4662  134.5079  159.9796 H   0  0  0  0  0  0  0  0  0  0  0  0  # atno 6909 bound_to 6896
  145.4567  139.2289  143.3010 H   0  0  0  0  0  0  0  0  0  0  0  0  # atno 7974 bound_to 7965
  154.4048  140.1596  156.2584 H   0  0  0  0  0  0  0  0  0  0  0  0  # atno 8008 bound_to 7997
  155.9058  140.3430  155.6039 H   0  0  0  0  0  0  0  0  0  0  0  0  # atno 8009 bound_to 7997
  155.7394  140.0790  157.2243 H   0  0  0  0  0  0  0  0  0  0  0  0  # atno 8010 bound_to 7997
  139.7770  143.8155  152.2633 H   0  0  0  0  0  0  0  0  0  0  0  0  # atno 10167 bound_to 10162
  156.0475  130.5702  150.7931 H   0  0  0  0  0  0  0  0  0  0  0  0  # atno 10718 bound_to 10713
  153.0133  135.5326  154.6799 H   0  0  0  0  0  0  0  0  0  0  0  0  # atno 10763 bound_to 10752
  154.5962  135.2863  155.0586 H   0  0  0  0  0  0  0  0  0  0  0  0  # atno 10764 bound_to 10752
  154.1660  135.6540  153.5050 H   0  0  0  0  0  0  0  0  0  0  0  0  # atno 10765 bound_to 10752
  140.0618  134.9200  157.1198 H   0  0  0  0  0  0  0  0  0  0  0  0  # atno 11005 bound_to 11000
  146.2474  140.5332  142.8908 LP  0  0  0  0  0  0  0  0  0  0  0  0  # atno 17320 bound_to 7965
  144.8028  140.6244  143.6467 LP  0  0  0  0  0  0  0  0  0  0  0  0  # atno 17321 bound_to 7965
  139.8207  144.7297  150.9577 LP  0  0  0  0  0  0  0  0  0  0  0  0  # atno 17342 bound_to 10162
  140.7817  143.4162  151.0914 LP  0  0  0  0  0  0  0  0  0  0  0  0  # atno 17343 bound_to 10162
  157.5366  131.0939  150.9884 LP  0  0  0  0  0  0  0  0  0  0  0  0  # atno 17370 bound_to 10713
  157.0177  130.5661  149.5328 LP  0  0  0  0  0  0  0  0  0  0  0  0  # atno 17371 bound_to 10713
  140.3758  134.2341  155.7174 LP  0  0  0  0  0  0  0  0  0  0  0  0  # atno 17394 bound_to 11000
  141.1976  133.8054  157.0618 LP  0  0  0  0  0  0  0  0  0  0  0  0  # atno 17395 bound_to 11000

$$$$
