AV-unprocessed.smi:148|AV-procd|sdf|1206|dock1
  -GOLD-   2262018373D 1   1.00000     0.00000
 Structure written by MMmdl.
 63 67  0  0  0  0  0  0  0  0  1 V2000
  149.1540  134.6625  158.4700 O   0  0  0  0  0  0  0  0  0  0  0  0
  148.8444  134.0589  157.2313 C   0  0  0  0  0  0  0  0  0  0  0  0
  149.1198  135.0212  156.0520 C   0  0  2  0  0  0  0  0  0  0  0  0
  148.1759  136.2519  156.0902 C   0  0  0  0  0  0  0  0  0  0  0  0
  148.7959  137.4156  156.6983 N   0  0  0  0  0  0  0  0  0  0  0  0
  148.8042  137.7457  158.0357 C   0  0  0  0  0  0  0  0  0  0  0  0
  149.4464  138.8421  158.3348 N   0  0  0  0  0  0  0  0  0  0  0  0
  149.9055  139.3049  157.1088 C   0  0  0  0  0  0  0  0  0  0  0  0
  150.6866  140.4185  156.7048 C   0  0  0  0  0  0  0  0  0  0  0  0
  151.1619  141.3156  157.5957 N   0  0  0  0  0  0  0  0  0  0  0  0
  150.9925  142.6746  157.0760 C   0  0  0  0  0  0  0  0  0  0  0  0
  151.2205  143.7235  158.1682 C   0  0  0  0  0  0  0  0  0  0  0  0
  152.6007  143.5259  158.7963 C   0  0  0  0  0  0  0  0  0  0  0  0
  152.7361  142.0898  159.3183 C   0  0  0  0  0  0  0  0  0  0  0  0
  152.4695  141.0222  158.2206 C   0  0  1  0  0  0  0  0  0  0  0  0
  152.5846  139.5777  158.8248 C   0  0  1  0  0  0  0  0  0  0  0  0
  152.6764  138.4020  157.8250 C   0  0  0  0  0  0  0  0  0  0  0  0
  153.3831  137.2455  158.5466 C   0  0  0  0  0  0  0  0  0  0  0  0
  153.8468  137.8040  159.8938 C   0  0  0  0  0  0  0  0  0  0  0  0
  153.8094  139.3236  159.7303 C   0  0  1  0  0  0  0  0  0  0  0  0
  155.0123  139.7362  159.1048 O   0  0  0  0  0  0  0  0  0  0  0  0
  150.9542  140.5662  155.3801 N   0  0  0  0  0  0  0  0  0  0  0  0
  150.4919  139.6675  154.5049 C   0  0  0  0  0  0  0  0  0  0  0  0
  149.7646  138.5720  154.7374 N   0  0  0  0  0  0  0  0  0  0  0  0
  149.4953  138.4283  156.0671 C   0  0  0  0  0  0  0  0  0  0  0  0
  149.1119  134.2814  154.6857 C   0  0  2  0  0  0  0  0  0  0  0  0
  147.7472  133.7834  154.2066 C   0  0  0  0  0  0  0  0  0  0  0  0
  148.0133  132.3516  153.7374 C   0  0  0  0  0  0  0  0  0  0  0  0
  149.4148  132.3058  153.5213 O   0  0  0  0  0  0  0  0  0  0  0  0
  150.0110  133.0440  154.5742 C   0  0  0  0  0  0  0  0  0  0  0  0
  148.4681  134.4547  159.0858 H   0  0  0  0  0  0  0  0  0  0  0  0
  149.4173  133.1376  157.1241 H   0  0  0  0  0  0  0  0  0  0  0  0
  147.7929  133.7754  157.2707 H   0  0  0  0  0  0  0  0  0  0  0  0
  150.1347  135.3984  156.1873 H   0  0  0  0  0  0  0  0  0  0  0  0
  147.8556  136.5392  155.0897 H   0  0  0  0  0  0  0  0  0  0  0  0
  147.2690  136.0241  156.6498 H   0  0  0  0  0  0  0  0  0  0  0  0
  148.3264  137.1369  158.7895 H   0  0  0  0  0  0  0  0  0  0  0  0
  151.6953  142.8420  156.2582 H   0  0  0  0  0  0  0  0  0  0  0  0
  149.9895  142.7954  156.6630 H   0  0  0  0  0  0  0  0  0  0  0  0
  151.1367  144.7266  157.7493 H   0  0  0  0  0  0  0  0  0  0  0  0
  150.4475  143.6360  158.9328 H   0  0  0  0  0  0  0  0  0  0  0  0
  153.3775  143.7249  158.0569 H   0  0  0  0  0  0  0  0  0  0  0  0
  152.7502  144.2381  159.6083 H   0  0  0  0  0  0  0  0  0  0  0  0
  153.7356  141.9854  159.7374 H   0  0  0  0  0  0  0  0  0  0  0  0
  152.0400  141.9426  160.1454 H   0  0  0  0  0  0  0  0  0  0  0  0
  153.2343  141.1361  157.4507 H   0  0  0  0  0  0  0  0  0  0  0  0
  151.7026  139.4101  159.4457 H   0  0  0  0  0  0  0  0  0  0  0  0
  151.7017  138.0737  157.4699 H   0  0  0  0  0  0  0  0  0  0  0  0
  153.2612  138.6952  156.9521 H   0  0  0  0  0  0  0  0  0  0  0  0
  152.7192  136.3916  158.6859 H   0  0  0  0  0  0  0  0  0  0  0  0
  154.2349  136.9039  157.9574 H   0  0  0  0  0  0  0  0  0  0  0  0
  153.1356  137.5097  160.6670 H   0  0  0  0  0  0  0  0  0  0  0  0
  154.8255  137.4269  160.1937 H   0  0  0  0  0  0  0  0  0  0  0  0
  153.7202  139.8187  160.6980 H   0  0  0  0  0  0  0  0  0  0  0  0
  155.6783  139.8313  159.7681 H   0  0  0  0  0  0  0  0  0  0  0  0
  150.7451  139.8496  153.4709 H   0  0  0  0  0  0  0  0  0  0  0  0
  149.4512  134.9801  153.9196 H   0  0  0  0  0  0  0  0  0  0  0  0
  146.9708  133.8114  154.9704 H   0  0  0  0  0  0  0  0  0  0  0  0
  147.3994  134.3991  153.3761 H   0  0  0  0  0  0  0  0  0  0  0  0
  147.7471  131.6366  154.5174 H   0  0  0  0  0  0  0  0  0  0  0  0
  147.4593  132.0942  152.8345 H   0  0  0  0  0  0  0  0  0  0  0  0
  151.0468  133.2974  154.3473 H   0  0  0  0  0  0  0  0  0  0  0  0
  149.9997  132.4329  155.4762 H   0  0  0  0  0  0  0  0  0  0  0  0
  1  2  1  0  0  0  0
  1 31  1  0  0  0  0
  2  3  1  0  0  0  0
  2 32  1  0  0  0  0
  2 33  1  0  0  0  0
  3  4  1  0  0  0  0
  3 26  1  0  0  0  0
  3 34  1  0  0  0  0
  4  5  1  0  0  0  0
  4 35  1  0  0  0  0
  4 36  1  0  0  0  0
  5 25  1  0  0  0  0
  5  6  1  0  0  0  0
  6  7  2  0  0  0  0
  6 37  1  0  0  0  0
  7  8  1  0  0  0  0
  8 25  2  0  0  0  0
  8  9  1  0  0  0  0
  9 10  1  0  0  0  0
  9 22  2  0  0  0  0
 10 15  1  0  0  0  0
 10 11  1  0  0  0  0
 11 12  1  0  0  0  0
 11 38  1  0  0  0  0
 11 39  1  0  0  0  0
 12 13  1  0  0  0  0
 12 40  1  0  0  0  0
 12 41  1  0  0  0  0
 13 14  1  0  0  0  0
 13 42  1  0  0  0  0
 13 43  1  0  0  0  0
 14 15  1  0  0  0  0
 14 44  1  0  0  0  0
 14 45  1  0  0  0  0
 15 16  1  0  0  0  0
 15 46  1  0  0  0  0
 16 20  1  0  0  0  0
 16 17  1  0  0  0  0
 16 47  1  0  0  0  0
 17 18  1  0  0  0  0
 17 48  1  0  0  0  0
 17 49  1  0  0  0  0
 18 19  1  0  0  0  0
 18 50  1  0  0  0  0
 18 51  1  0  0  0  0
 19 20  1  0  0  0  0
 19 52  1  0  0  0  0
 19 53  1  0  0  0  0
 20 21  1  0  0  0  0
 20 54  1  0  0  0  0
 21 55  1  0  0  0  0
 22 23  1  0  0  0  0
 23 24  2  0  0  0  0
 23 56  1  0  0  0  0
 24 25  1  0  0  0  0
 26 30  1  0  0  0  0
 26 27  1  0  0  0  0
 26 57  1  0  0  0  0
 27 28  1  0  0  0  0
 27 58  1  0  0  0  0
 27 59  1  0  0  0  0
 28 29  1  0  0  0  0
 28 60  1  0  0  0  0
 28 61  1  0  0  0  0
 29 30  1  0  0  0  0
 30 62  1  0  0  0  0
 30 63  1  0  0  0  0
M  END
> <s_m_source_file>
AV-unprocessed.smi

> <i_m_source_file_index>
148

> <i_lp_mmshare_version>
43012

> <i_f3d_flags>
0

> <s_epik_input>
W0NIMl0xT1tDSDJdW0NIMl1bQ0BIXTFbQ0BIXShbQ0gyXVtPSF0pW0NIMl1uKFtjSF1uMiljKGMyMyluW2NIXW5jM040W0NIMl1bQ0gyXVtDSDJdW0NIMl1bQ0BIXTRbQ0BASF01W0NIMl1bQ0gyXVtDSDJdW0NASF01W09IXQ==

> <s_epik_cmdline>
J2VwaWtfcHl0aG9uJywgJy1waCcsICc3LjAnLCAnLXRuJywgJzgnLCAnLW1hJywgJzIwMCcsICctbWV0YWxfYmluZGluZycsICctaW1hZScsICc8aW5maWxlLm1hZT4nLCAnLW9tYWUnLCAnPG91dGZpbGUubWFlPic=

> <r_lp_tautomer_probability>
1

> <r_epik_Ionization_Penalty>
0.00556303

> <r_epik_Ionization_Penalty_Charging>
0

> <r_epik_Ionization_Penalty_Neutral>
0.00556303

> <r_epik_State_Penalty>
0.00401767

> <r_epik_Charging_Adjusted_Penalty>
0.00401767

> <i_epik_Tot_Q>
0

> <i_epik_Tot_abs_Q>
0

> <r_epik_Metal_State_Penalty>
-0

> <b_epik_Metal_Only>
0

> <s_lp_Force_Field>
OPLS_2005

> <r_lp_Energy>
71.7906

> <b_lp_Chiralities_Consistent>
1

> <s_lp_Variant>
AV-unprocessed.smi:148-5

> <Gold.Version>
5.8.1

> <Gold.Id.Protein>
6NUR|6NUR_protein|mol2

> <Gold.PLP.Fitness>
44.4251

> <Gold.PLP.PLP>
-38.4657

> <Gold.PLP.part.hbond>
-3.0000

> <Gold.PLP.part.metal>
0.0000

> <Gold.PLP.part.buried>
-4.5000

> <Gold.PLP.part.nonpolar>
-30.9755

> <Gold.PLP.part.repulsive>
0.3575

> <Gold.PLP.ligand.clash>
0.0000

> <Gold.PLP.ligand.torsion>
1.8096

> <Gold.PLP.Chemscore.Hbond>
2.0000

> <Gold.PLP.Chemscore.CHOScore>
0.8954

> <Gold.PLP.Chemscore.Metal>
0.0000

> <Gold.Chemscore.Hbonds>
donor molecule, donor type, donor heavy atom, donor atom, acceptor molecule, acceptor atom, score
      P1  H  6896  6907       L1     1  1.00
      P1  H  7997  8009       L1    21  1.00
      L1  C    23    56       P1  7957  0.91

> <Gold.PLP.Chemscore.Internal.Correction>
0.8924

> <Gold.Rescore>
     Score         DG    S(hbond)    S(metal)    S(lipo)     H(rot)  DE(clash)    DE(int)     intcor
     13.43     -15.38       1.95        0.00     101.63       3.32       0.01       1.94       ----

> <Gold.Chemscore.Fitness>
13.4269

> <Gold.Chemscore.DG>
-15.3794

> <Gold.Chemscore.ZeroCoef>
-5.4800

> <Gold.Chemscore.Hbond>
1.9486

> <Gold.Chemscore.Metal>
0.0000

> <Gold.Chemscore.Lipo>
101.6332

> <Gold.Chemscore.Internal_Hbond>
0.0000

> <Gold.Chemscore.DEClash>
0.0080

> <Gold.Chemscore.DEInternal>
1.9444

> <Gold.Chemscore.Rot>
3.3203

> <Gold.Chemscore.Internal.Correction>
   9.000000E+99

> <Gold.Chemscore.Hbonds>
donor molecule, donor type, donor heavy atom, donor atom, acceptor molecule, acceptor atom, score
      P1  H  6896  6907       L1     1  0.34
      P1  H  7997  8009       L1    21  0.94

> <Gold.Chemscore.Hbond.Weighted>
-6.5083

> <Gold.Chemscore.Metal.Weighted>
-0.0000

> <Gold.Chemscore.Lipo.Weighted>
-11.8911

> <Gold.Chemscore.Internal_Hbond.Weighted>
0.0000

> <Gold.Chemscore.DEClash.Weighted>
0.0080

> <Gold.Chemscore.DEInternal.Weighted>
1.9444

> <Gold.Chemscore.Rot.Weighted>
8.5000

> <Gold.Chemscore.Internal.Correction.Weighted>
   9.000000E+99

> <Gold.Protein.RotatedTorsions>
[ 6907 6896 6895 6894 ] final  -96.65 input  -60.11 | X-H torsion
[ 7974 7965 7964 7962 ] final  -74.56 input  175.53 | X-H torsion
[ 8008 7997 7996 7995 ] final  100.18 input   59.86 | X-H torsion
[ 10167 10162 10161 10158 ] final -144.63 input  -65.29 | X-H torsion
[ 10718 10713 10712 10709 ] final -126.16 input   66.30 | X-H torsion
[ 10763 10752 10751 10750 ] final   49.63 input  -60.55 | X-H torsion
[ 11005 11000 10999 10996 ] final   -0.28 input  -57.11 | X-H torsion

> <Gold.Protein.ActiveResidues>
 VAL166  LYS551  ARG553  GLY616  TRP617  ASP618  TYR619  PRO620  LYS621  CYS622 
 ASP623  PHE694  ASN695  SER759  ASP760  ASP761  ALA762  ILE779  LEU786  VAL792 
 PHE793  MET794  SER795  GLU796  ALA797  LYS798  CYS799  TRP800  GLU811  SER814 

> <Gold.Protein.RotatedAtoms>
  150.6994  134.1471  159.4126 H   0  0  0  0  0  0  0  0  0  0  0  0  # atno 6907 bound_to 6896
  151.9454  135.0191  160.0548 H   0  0  0  0  0  0  0  0  0  0  0  0  # atno 6908 bound_to 6896
  152.2057  133.4839  159.5119 H   0  0  0  0  0  0  0  0  0  0  0  0  # atno 6909 bound_to 6896
  145.6376  140.9320  143.1053 H   0  0  0  0  0  0  0  0  0  0  0  0  # atno 7974 bound_to 7965
  156.1178  140.3217  155.8164 H   0  0  0  0  0  0  0  0  0  0  0  0  # atno 8008 bound_to 7997
  155.4559  140.0536  157.3013 H   0  0  0  0  0  0  0  0  0  0  0  0  # atno 8009 bound_to 7997
  154.4805  140.2051  155.9788 H   0  0  0  0  0  0  0  0  0  0  0  0  # atno 8010 bound_to 7997
  139.7881  143.8005  152.2647 H   0  0  0  0  0  0  0  0  0  0  0  0  # atno 10167 bound_to 10162
  156.1740  130.6687  151.0218 H   0  0  0  0  0  0  0  0  0  0  0  0  # atno 10718 bound_to 10713
  152.9786  135.5905  154.4121 H   0  0  0  0  0  0  0  0  0  0  0  0  # atno 10763 bound_to 10752
  154.3755  135.2767  155.2244 H   0  0  0  0  0  0  0  0  0  0  0  0  # atno 10764 bound_to 10752
  154.4180  135.6066  153.6047 H   0  0  0  0  0  0  0  0  0  0  0  0  # atno 10765 bound_to 10752
  140.6345  133.9545  155.8292 H   0  0  0  0  0  0  0  0  0  0  0  0  # atno 11005 bound_to 11000
  144.7170  139.8163  143.7395 LP  0  0  0  0  0  0  0  0  0  0  0  0  # atno 17320 bound_to 7965
  146.1307  139.4342  143.0170 LP  0  0  0  0  0  0  0  0  0  0  0  0  # atno 17321 bound_to 7965
  139.8088  144.7344  150.9725 LP  0  0  0  0  0  0  0  0  0  0  0  0  # atno 17342 bound_to 10162
  140.7820  143.4271  151.0751 LP  0  0  0  0  0  0  0  0  0  0  0  0  # atno 17343 bound_to 10162
  157.6823  131.0834  150.7337 LP  0  0  0  0  0  0  0  0  0  0  0  0  # atno 17370 bound_to 10713
  156.7395  130.4734  149.5481 LP  0  0  0  0  0  0  0  0  0  0  0  0  # atno 17371 bound_to 10713
  141.0651  134.0288  157.3604 LP  0  0  0  0  0  0  0  0  0  0  0  0  # atno 17394 bound_to 11000
  139.9103  135.0189  156.7664 LP  0  0  0  0  0  0  0  0  0  0  0  0  # atno 17395 bound_to 11000

$$$$
