AV-unprocessed.smi:952|AV-procd|sdf|4255|dock1
  -GOLD-   22720 2163D 1   1.00000     0.00000
 Structure written by MMmdl.
 35 35  0  0  0  0  0  0  0  0  1 V2000
  145.5787  132.2230  150.8698 C   0  0  0  0  0  0  0  0  0  0  0  0
  145.9772  133.1887  151.9906 C   0  0  0  0  0  0  0  0  0  0  0  0
  147.4529  133.0407  152.3961 C   0  0  0  0  0  0  0  0  0  0  0  0
  147.8383  134.0325  153.3933 N   0  0  0  0  0  0  0  0  0  0  0  0
  148.4446  133.7577  154.5579 C   0  0  0  0  0  0  0  0  0  0  0  0
  148.7263  132.6136  154.9186 O   0  0  0  0  0  0  0  0  0  0  0  0
  148.7587  134.9593  155.4573 C   0  0  0  0  0  0  0  0  0  0  0  0
  149.5144  135.9895  154.7512 N   0  0  0  0  0  0  0  0  0  0  0  0
  150.0557  137.0783  155.3210 C   0  0  0  0  0  0  0  0  0  0  0  0
  150.0331  137.2837  156.5354 O   0  0  0  0  0  0  0  0  0  0  0  0
  150.7002  138.0925  154.3647 C   0  0  2  0  0  0  0  0  0  0  0  0
  152.1939  138.3303  154.6683 C   0  0  0  0  0  0  0  0  0  0  0  0
  149.9242  139.3279  154.3628 N   0  0  0  0  0  0  0  0  0  0  0  0
  148.5694  139.4755  154.1422 C   0  0  0  0  0  0  0  0  0  0  0  0
  148.2685  140.7984  154.2948 C   0  0  0  0  0  0  0  0  0  0  0  0
  149.5173  141.3917  154.6290 C   0  0  0  0  0  0  0  0  0  0  0  0
  150.5025  140.5107  154.6778 N   0  0  0  0  0  0  0  0  0  0  0  0
  144.5291  132.3493  150.6036 H   0  0  0  0  0  0  0  0  0  0  0  0
  145.7231  131.1858  151.1733 H   0  0  0  0  0  0  0  0  0  0  0  0
  146.1727  132.3962  149.9720 H   0  0  0  0  0  0  0  0  0  0  0  0
  145.7820  134.2111  151.6639 H   0  0  0  0  0  0  0  0  0  0  0  0
  145.3393  133.0157  152.8582 H   0  0  0  0  0  0  0  0  0  0  0  0
  147.6231  132.0511  152.8209 H   0  0  0  0  0  0  0  0  0  0  0  0
  148.1004  133.1181  151.5209 H   0  0  0  0  0  0  0  0  0  0  0  0
  147.6386  134.9986  153.1779 H   0  0  0  0  0  0  0  0  0  0  0  0
  147.8383  135.3760  155.8707 H   0  0  0  0  0  0  0  0  0  0  0  0
  149.3541  134.6135  156.3023 H   0  0  0  0  0  0  0  0  0  0  0  0
  149.5748  135.9000  153.7474 H   0  0  0  0  0  0  0  0  0  0  0  0
  150.6412  137.6780  153.3569 H   0  0  0  0  0  0  0  0  0  0  0  0
  152.7601  137.4010  154.5998 H   0  0  0  0  0  0  0  0  0  0  0  0
  152.3524  138.7391  155.6671 H   0  0  0  0  0  0  0  0  0  0  0  0
  152.6279  139.0297  153.9532 H   0  0  0  0  0  0  0  0  0  0  0  0
  147.9372  138.6338  153.9004 H   0  0  0  0  0  0  0  0  0  0  0  0
  147.3021  141.2692  154.1921 H   0  0  0  0  0  0  0  0  0  0  0  0
  149.7343  142.4281  154.8421 H   0  0  0  0  0  0  0  0  0  0  0  0
  1  2  1  0  0  0  0
  1 18  1  0  0  0  0
  1 19  1  0  0  0  0
  1 20  1  0  0  0  0
  2  3  1  0  0  0  0
  2 21  1  0  0  0  0
  2 22  1  0  0  0  0
  3  4  1  0  0  0  0
  3 23  1  0  0  0  0
  3 24  1  0  0  0  0
  4  5  1  0  0  0  0
  4 25  1  0  0  0  0
  5  6  2  0  0  0  0
  5  7  1  0  0  0  0
  7  8  1  0  0  0  0
  7 26  1  0  0  0  0
  7 27  1  0  0  0  0
  8  9  1  0  0  0  0
  8 28  1  0  0  0  0
  9 10  2  0  0  0  0
  9 11  1  0  0  0  0
 11 12  1  0  0  0  0
 11 13  1  0  0  0  0
 11 29  1  0  0  0  0
 12 30  1  0  0  0  0
 12 31  1  0  0  0  0
 12 32  1  0  0  0  0
 13 17  1  0  0  0  0
 13 14  1  0  0  0  0
 14 15  2  0  0  0  0
 14 33  1  0  0  0  0
 15 16  1  0  0  0  0
 15 34  1  0  0  0  0
 16 17  2  0  0  0  0
 16 35  1  0  0  0  0
M  END
> <s_m_source_file>
AV-unprocessed.smi

> <i_m_source_file_index>
952

> <i_lp_mmshare_version>
43012

> <i_f3d_flags>
0

> <s_epik_input>
W0NIM11bQ0gyXVtDSDJdW05IXUMoPU8pW0NIMl1bTkhdQyg9TylbQ0BIXShbQ0gzXSluMVtjSF1bY0hdW2NIXW4x

> <s_epik_cmdline>
J2VwaWtfcHl0aG9uJywgJy1waCcsICc3LjAnLCAnLXRuJywgJzgnLCAnLW1hJywgJzIwMCcsICctbWV0YWxfYmluZGluZycsICctaW1hZScsICc8aW5maWxlLm1hZT4nLCAnLW9tYWUnLCAnPG91dGZpbGUubWFlPic=

> <r_lp_tautomer_probability>
1

> <r_epik_Ionization_Penalty>
2.62173e-05

> <r_epik_Ionization_Penalty_Charging>
0

> <r_epik_Ionization_Penalty_Neutral>
2.62173e-05

> <r_epik_State_Penalty>
-0

> <r_epik_Charging_Adjusted_Penalty>
0

> <i_epik_Tot_Q>
0

> <i_epik_Tot_abs_Q>
0

> <r_epik_Metal_State_Penalty>
-0

> <b_epik_Metal_Only>
0

> <s_lp_Force_Field>
OPLS_2005

> <r_lp_Energy>
2.54984

> <b_lp_Chiralities_Consistent>
1

> <s_lp_Variant>
AV-unprocessed.smi:952-1

> <Gold.Version>
5.8.1

> <Gold.Id.Protein>
6NUR|6NUR_protein|mol2

> <Gold.PLP.Fitness>
42.3547

> <Gold.PLP.PLP>
-32.3808

> <Gold.PLP.part.hbond>
-3.0000

> <Gold.PLP.part.metal>
0.0000

> <Gold.PLP.part.buried>
-2.4861

> <Gold.PLP.part.nonpolar>
-26.4374

> <Gold.PLP.part.repulsive>
0.1675

> <Gold.PLP.ligand.clash>
0.0000

> <Gold.PLP.ligand.torsion>
0.2037

> <Gold.PLP.Chemscore.Hbond>
2.4140

> <Gold.PLP.Chemscore.CHOScore>
1.0000

> <Gold.PLP.Chemscore.Metal>
0.0000

> <Gold.Chemscore.Hbonds>
donor molecule, donor type, donor heavy atom, donor atom, acceptor molecule, acceptor atom, score
      L1  H     4    25       P1  7948  0.24
      L1  H     8    28       P1  7948  1.00
      P1  H  7989  7998       L1    17  1.00
      L1  C    16    35       P1  8028  0.91

> <Gold.PLP.Chemscore.Internal.Correction>
0.1393

> <Gold.Rescore>
     Score         DG    S(hbond)    S(metal)    S(lipo)     H(rot)  DE(clash)    DE(int)     intcor
     12.37     -12.87       1.76        0.00      61.77       2.24       0.04       0.47       ----

> <Gold.Chemscore.Fitness>
12.3663

> <Gold.Chemscore.DG>
-12.8690

> <Gold.Chemscore.ZeroCoef>
-5.4800

> <Gold.Chemscore.Hbond>
1.7625

> <Gold.Chemscore.Metal>
0.0000

> <Gold.Chemscore.Lipo>
61.7723

> <Gold.Chemscore.Internal_Hbond>
0.0000

> <Gold.Chemscore.DEClash>
0.0370

> <Gold.Chemscore.DEInternal>
0.4658

> <Gold.Chemscore.Rot>
2.2364

> <Gold.Chemscore.Internal.Correction>
   9.000000E+99

> <Gold.Chemscore.Hbonds>
donor molecule, donor type, donor heavy atom, donor atom, acceptor molecule, acceptor atom, score
      L1  H     4    25       P1  7948  0.23
      L1  H     8    28       P1  7948  0.33
      P1  H  7989  7998       L1    17  0.46

> <Gold.Chemscore.Hbond.Weighted>
-5.8868

> <Gold.Chemscore.Metal.Weighted>
-0.0000

> <Gold.Chemscore.Lipo.Weighted>
-7.2274

> <Gold.Chemscore.Internal_Hbond.Weighted>
0.0000

> <Gold.Chemscore.DEClash.Weighted>
0.0370

> <Gold.Chemscore.DEInternal.Weighted>
0.4658

> <Gold.Chemscore.Rot.Weighted>
5.7251

> <Gold.Chemscore.Internal.Correction.Weighted>
   9.000000E+99

> <Gold.Protein.RotatedTorsions>
[ 6907 6896 6895 6894 ] final -141.45 input  -60.11 | X-H torsion
[ 7974 7965 7964 7962 ] final   65.27 input  175.53 | X-H torsion
[ 8008 7997 7996 7995 ] final -150.64 input   59.86 | X-H torsion
[ 10167 10162 10161 10158 ] final  -38.55 input  -65.29 | X-H torsion
[ 10718 10713 10712 10709 ] final    8.79 input   66.30 | X-H torsion
[ 10763 10752 10751 10750 ] final   40.71 input  -60.55 | X-H torsion
[ 11005 11000 10999 10996 ] final   -2.56 input  -57.11 | X-H torsion

> <Gold.Protein.ActiveResidues>
 VAL166  LYS551  ARG553  GLY616  TRP617  ASP618  TYR619  PRO620  LYS621  CYS622 
 ASP623  PHE694  ASN695  SER759  ASP760  ASP761  ALA762  ILE779  LEU786  VAL792 
 PHE793  MET794  SER795  GLU796  ALA797  LYS798  CYS799  TRP800  GLU811  SER814 

> <Gold.Protein.RotatedAtoms>
  151.0740  133.5443  159.2624 H   0  0  0  0  0  0  0  0  0  0  0  0  # atno 6907 bound_to 6896
  151.2372  135.0575  159.9021 H   0  0  0  0  0  0  0  0  0  0  0  0  # atno 6908 bound_to 6896
  152.5415  134.0520  159.8168 H   0  0  0  0  0  0  0  0  0  0  0  0  # atno 6909 bound_to 6896
  145.8404  139.3192  143.0935 H   0  0  0  0  0  0  0  0  0  0  0  0  # atno 7974 bound_to 7965
  155.6268  140.0687  157.2661 H   0  0  0  0  0  0  0  0  0  0  0  0  # atno 8008 bound_to 7997
  154.4215  140.1774  156.1478 H   0  0  0  0  0  0  0  0  0  0  0  0  # atno 8009 bound_to 7997
  155.9965  140.3340  155.6807 H   0  0  0  0  0  0  0  0  0  0  0  0  # atno 8010 bound_to 7997
  140.7089  143.3270  151.2656 H   0  0  0  0  0  0  0  0  0  0  0  0  # atno 10167 bound_to 10162
  156.9567  130.5917  149.5659 H   0  0  0  0  0  0  0  0  0  0  0  0  # atno 10718 bound_to 10713
  152.9928  135.6183  154.2671 H   0  0  0  0  0  0  0  0  0  0  0  0  # atno 10763 bound_to 10752
  154.2405  135.2789  155.2857 H   0  0  0  0  0  0  0  0  0  0  0  0  # atno 10764 bound_to 10752
  154.5373  135.5771  153.6867 H   0  0  0  0  0  0  0  0  0  0  0  0  # atno 10765 bound_to 10752
  140.6597  133.9331  155.8429 H   0  0  0  0  0  0  0  0  0  0  0  0  # atno 11005 bound_to 11000
  145.9471  140.8936  143.0278 LP  0  0  0  0  0  0  0  0  0  0  0  0  # atno 17320 bound_to 7965
  144.6734  140.1629  143.7421 LP  0  0  0  0  0  0  0  0  0  0  0  0  # atno 17321 bound_to 7965
  139.6741  143.9968  152.2771 LP  0  0  0  0  0  0  0  0  0  0  0  0  # atno 17342 bound_to 10162
  139.9576  144.6579  150.8110 LP  0  0  0  0  0  0  0  0  0  0  0  0  # atno 17343 bound_to 10162
  156.0339  130.5428  150.8605 LP  0  0  0  0  0  0  0  0  0  0  0  0  # atno 17370 bound_to 10713
  157.5685  131.0946  150.9453 LP  0  0  0  0  0  0  0  0  0  0  0  0  # atno 17371 bound_to 10713
  141.0474  134.0534  157.3826 LP  0  0  0  0  0  0  0  0  0  0  0  0  # atno 17394 bound_to 11000
  139.9017  135.0167  156.7300 LP  0  0  0  0  0  0  0  0  0  0  0  0  # atno 17395 bound_to 11000

$$$$
