AV-unprocessed.smi:2837|AV-procd|sdf|10920|dock9
  -GOLD-   2272015373D 1   1.00000     0.00000
 Structure written by MMmdl.
 32 34  0  0  0  0  0  0  0  0  1 V2000
  151.8432  145.4682  160.0920 F   0  0  0  0  0  0  0  0  0  0  0  0
  151.6729  144.6523  159.0228 C   0  0  0  0  0  0  0  0  0  0  0  0
  152.7910  144.7371  158.2627 F   0  0  0  0  0  0  0  0  0  0  0  0
  151.4906  143.3678  159.4295 O   0  0  0  0  0  0  0  0  0  0  0  0
  151.4080  142.3671  158.4877 C   0  0  0  0  0  0  0  0  0  0  0  0
  151.9682  141.0787  158.6562 C   0  0  0  0  0  0  0  0  0  0  0  0
  151.8375  140.1348  157.6196 C   0  0  0  0  0  0  0  0  0  0  0  0
  151.1590  140.5067  156.4410 C   0  0  0  0  0  0  0  0  0  0  0  0
  151.0355  139.5617  155.4122 N   0  0  0  0  0  0  0  0  0  0  0  0
  151.3649  138.1559  155.6208 C   0  0  2  0  0  0  0  0  0  0  0  0
  151.0836  137.2793  154.3935 C   0  0  0  0  0  0  0  0  0  0  0  0
  150.1454  136.2136  154.9734 C   0  0  1  0  0  0  0  0  0  0  0  0
  150.8626  135.2750  155.9539 C   0  0  0  0  0  0  0  0  0  0  0  0
  151.0504  136.1791  157.1716 C   0  0  0  0  0  0  0  0  0  0  0  0
  150.4552  137.5038  156.6759 C   0  0  2  0  0  0  0  0  0  0  0  0
  149.3951  137.0094  155.8732 O   0  0  0  0  0  0  0  0  0  0  0  0
  150.6308  141.7411  156.2684 N   0  0  0  0  0  0  0  0  0  0  0  0
  150.7579  142.6403  157.2672 C   0  0  0  0  0  0  0  0  0  0  0  0
  150.8349  145.0079  158.4229 H   0  0  0  0  0  0  0  0  0  0  0  0
  152.4970  140.8071  159.5575 H   0  0  0  0  0  0  0  0  0  0  0  0
  152.2565  139.1453  157.7302 H   0  0  0  0  0  0  0  0  0  0  0  0
  150.7263  139.8546  154.4966 H   0  0  0  0  0  0  0  0  0  0  0  0
  152.4069  138.0788  155.9348 H   0  0  0  0  0  0  0  0  0  0  0  0
  150.5755  137.8391  153.6069 H   0  0  0  0  0  0  0  0  0  0  0  0
  151.9910  136.8494  153.9686 H   0  0  0  0  0  0  0  0  0  0  0  0
  149.5460  135.6975  154.2231 H   0  0  0  0  0  0  0  0  0  0  0  0
  150.2339  134.4205  156.2066 H   0  0  0  0  0  0  0  0  0  0  0  0
  151.8055  134.9006  155.5535 H   0  0  0  0  0  0  0  0  0  0  0  0
  150.4849  135.7966  158.0222 H   0  0  0  0  0  0  0  0  0  0  0  0
  152.0942  136.2761  157.4720 H   0  0  0  0  0  0  0  0  0  0  0  0
  150.1442  138.1703  157.4816 H   0  0  0  0  0  0  0  0  0  0  0  0
  150.3228  143.6123  157.0878 H   0  0  0  0  0  0  0  0  0  0  0  0
  1  2  1  0  0  0  0
  2  3  1  0  0  0  0
  2  4  1  0  0  0  0
  2 19  1  0  0  0  0
  4  5  1  0  0  0  0
  5 18  1  0  0  0  0
  5  6  2  0  0  0  0
  6  7  1  0  0  0  0
  6 20  1  0  0  0  0
  7  8  2  0  0  0  0
  7 21  1  0  0  0  0
  8  9  1  0  0  0  0
  8 17  1  0  0  0  0
  9 10  1  0  0  0  0
  9 22  1  0  0  0  0
 10 15  1  0  0  0  0
 10 11  1  0  0  0  0
 10 23  1  0  0  0  0
 11 12  1  0  0  0  0
 11 24  1  0  0  0  0
 11 25  1  0  0  0  0
 12 16  1  0  0  0  0
 12 13  1  0  0  0  0
 12 26  1  0  0  0  0
 13 14  1  0  0  0  0
 13 27  1  0  0  0  0
 13 28  1  0  0  0  0
 14 15  1  0  0  0  0
 14 29  1  0  0  0  0
 14 30  1  0  0  0  0
 15 16  1  0  0  0  0
 15 31  1  0  0  0  0
 17 18  2  0  0  0  0
 18 32  1  0  0  0  0
M  END
> <s_m_source_file>
AV-unprocessed.smi

> <i_m_source_file_index>
2837

> <i_lp_mmshare_version>
43012

> <i_f3d_flags>
0

> <s_epik_input>
RltDSF0oRilPYzFbY0hdW2NIXWMobltjSF0xKVtOSF1bQ0BIXShbQ0gyXVtDQEBIXTIzKVtDQEBIXShPMylbQ0gyXVtDSDJdMg==

> <s_epik_cmdline>
J2VwaWtfcHl0aG9uJywgJy1waCcsICc3LjAnLCAnLXRuJywgJzgnLCAnLW1hJywgJzIwMCcsICctbWV0YWxfYmluZGluZycsICctaW1hZScsICc8aW5maWxlLm1hZT4nLCAnLW9tYWUnLCAnPG91dGZpbGUubWFlPic=

> <r_lp_tautomer_probability>
1

> <r_epik_Ionization_Penalty>
0.0124072

> <r_epik_Ionization_Penalty_Charging>
0

> <r_epik_Ionization_Penalty_Neutral>
0.0124072

> <r_epik_State_Penalty>
0.00959565

> <r_epik_Charging_Adjusted_Penalty>
0.00959565

> <i_epik_Tot_Q>
0

> <i_epik_Tot_abs_Q>
0

> <r_epik_Metal_State_Penalty>
9.67369e-06

> <b_epik_Metal_Only>
0

> <s_lp_Force_Field>
OPLS_2005

> <r_lp_Energy>
39.7079

> <b_lp_Chiralities_Consistent>
1

> <s_lp_Variant>
AV-unprocessed.smi:2837-1

> <Gold.Version>
5.8.1

> <Gold.Id.Protein>
6NUR|6NUR_protein|mol2

> <Gold.PLP.Fitness>
35.0628

> <Gold.PLP.PLP>
-32.7842

> <Gold.PLP.part.hbond>
0.0000

> <Gold.PLP.part.metal>
0.0000

> <Gold.PLP.part.buried>
-4.8493

> <Gold.PLP.part.nonpolar>
-29.0611

> <Gold.PLP.part.repulsive>
0.2536

> <Gold.PLP.ligand.clash>
0.0000

> <Gold.PLP.ligand.torsion>
0.3727

> <Gold.PLP.Chemscore.Hbond>
0.0000

> <Gold.PLP.Chemscore.CHOScore>
1.0000

> <Gold.PLP.Chemscore.Metal>
0.0000

> <Gold.Chemscore.Hbonds>
donor molecule, donor type, donor heavy atom, donor atom, acceptor molecule, acceptor atom, score
      L1  C    18    32       P1  8028  1.00

> <Gold.PLP.Chemscore.Internal.Correction>
0.0240

> <Gold.Rescore>
     Score         DG    S(hbond)    S(metal)    S(lipo)     H(rot)  DE(clash)    DE(int)     intcor
     10.29     -10.73       0.00        0.00      73.75       1.32       0.07       0.37       ----

> <Gold.Chemscore.Fitness>
10.2867

> <Gold.Chemscore.DG>
-10.7262

> <Gold.Chemscore.ZeroCoef>
-5.4800

> <Gold.Chemscore.Hbond>
0.0000

> <Gold.Chemscore.Metal>
0.0000

> <Gold.Chemscore.Lipo>
73.7495

> <Gold.Chemscore.Internal_Hbond>
0.0000

> <Gold.Chemscore.DEClash>
0.0742

> <Gold.Chemscore.DEInternal>
0.3653

> <Gold.Chemscore.Rot>
1.3213

> <Gold.Chemscore.Internal.Correction>
   9.000000E+99

> <Gold.Chemscore.Hbond.Weighted>
-0.0000

> <Gold.Chemscore.Metal.Weighted>
-0.0000

> <Gold.Chemscore.Lipo.Weighted>
-8.6287

> <Gold.Chemscore.Internal_Hbond.Weighted>
0.0000

> <Gold.Chemscore.DEClash.Weighted>
0.0742

> <Gold.Chemscore.DEInternal.Weighted>
0.3653

> <Gold.Chemscore.Rot.Weighted>
3.3825

> <Gold.Chemscore.Internal.Correction.Weighted>
   9.000000E+99

> <Gold.Protein.RotatedTorsions>
[ 6907 6896 6895 6894 ] final  150.05 input  -60.11 | X-H torsion
[ 7974 7965 7964 7962 ] final -138.34 input  175.53 | X-H torsion
[ 8008 7997 7996 7995 ] final   47.95 input   59.86 | X-H torsion
[ 10167 10162 10161 10158 ] final -159.88 input  -65.29 | X-H torsion
[ 10718 10713 10712 10709 ] final   72.29 input   66.30 | X-H torsion
[ 10763 10752 10751 10750 ] final  130.49 input  -60.55 | X-H torsion
[ 11005 11000 10999 10996 ] final   14.52 input  -57.11 | X-H torsion

> <Gold.Protein.ActiveResidues>
 VAL166  LYS551  ARG553  GLY616  TRP617  ASP618  TYR619  PRO620  LYS621  CYS622 
 ASP623  PHE694  ASN695  SER759  ASP760  ASP761  ALA762  ILE779  LEU786  VAL792 
 PHE793  MET794  SER795  GLU796  ALA797  LYS798  CYS799  TRP800  GLU811  SER814 

> <Gold.Protein.RotatedAtoms>
  152.1197  133.4346  159.4669 H   0  0  0  0  0  0  0  0  0  0  0  0  # atno 6907 bound_to 6896
  150.6871  134.2550  159.4535 H   0  0  0  0  0  0  0  0  0  0  0  0  # atno 6908 bound_to 6896
  152.0426  134.9702  160.0624 H   0  0  0  0  0  0  0  0  0  0  0  0  # atno 6909 bound_to 6896
  144.8766  140.6446  143.5233 H   0  0  0  0  0  0  0  0  0  0  0  0  # atno 7974 bound_to 7965
  155.3776  140.3427  155.4245 H   0  0  0  0  0  0  0  0  0  0  0  0  # atno 8008 bound_to 7997
  156.1628  140.1606  156.8616 H   0  0  0  0  0  0  0  0  0  0  0  0  # atno 8009 bound_to 7997
  154.5156  140.0779  156.8056 H   0  0  0  0  0  0  0  0  0  0  0  0  # atno 8010 bound_to 7997
  139.6581  143.9961  152.2207 H   0  0  0  0  0  0  0  0  0  0  0  0  # atno 10167 bound_to 10162
  157.6494  130.9571  150.0908 H   0  0  0  0  0  0  0  0  0  0  0  0  # atno 10718 bound_to 10713
  153.7589  135.3199  155.3334 H   0  0  0  0  0  0  0  0  0  0  0  0  # atno 10763 bound_to 10752
  154.8237  135.4585  154.0857 H   0  0  0  0  0  0  0  0  0  0  0  0  # atno 10764 bound_to 10752
  153.2082  135.6932  153.8229 H   0  0  0  0  0  0  0  0  0  0  0  0  # atno 10765 bound_to 10752
  140.4686  134.1054  155.7728 H   0  0  0  0  0  0  0  0  0  0  0  0  # atno 11005 bound_to 11000
  145.4031  139.1594  143.4167 LP  0  0  0  0  0  0  0  0  0  0  0  0  # atno 17320 bound_to 7965
  146.2967  140.4129  142.8719 LP  0  0  0  0  0  0  0  0  0  0  0  0  # atno 17321 bound_to 7965
  139.9693  144.6504  150.8004 LP  0  0  0  0  0  0  0  0  0  0  0  0  # atno 17342 bound_to 10162
  140.7568  143.3074  151.2929 LP  0  0  0  0  0  0  0  0  0  0  0  0  # atno 17343 bound_to 10162
  156.1858  130.3652  149.8975 LP  0  0  0  0  0  0  0  0  0  0  0  0  # atno 17370 bound_to 10713
  156.6916  130.8898  151.3589 LP  0  0  0  0  0  0  0  0  0  0  0  0  # atno 17371 bound_to 10713
  141.1587  133.8833  157.1906 LP  0  0  0  0  0  0  0  0  0  0  0  0  # atno 17394 bound_to 11000
  139.9899  135.0068  156.9951 LP  0  0  0  0  0  0  0  0  0  0  0  0  # atno 17395 bound_to 11000

$$$$
