AV-unprocessed.smi:2451|AV-procd|sdf|9679|dock4
  -GOLD-   2272013313D 1   1.00000     0.00000
 Structure written by MMmdl.
 37 38  0  0  0  0  0  0  0  0  2 V2000
  152.0943  143.7612  159.1442 C   0  0  0  0  0  0  0  0  0  0  0  0
  152.3180  142.3478  159.7152 C   0  0  2  0  0  0  0  0  0  0  0  0
  153.4514  142.4108  160.7688 C   0  0  0  0  0  0  0  0  0  0  0  0
  153.7086  141.0143  161.3592 C   0  0  0  0  0  0  0  0  0  0  0  0
  154.0258  139.9768  160.2620 C   0  0  0  0  0  0  0  0  0  0  0  0
  152.9152  139.8602  159.1900 C   0  0  2  0  0  0  0  0  0  0  0  0
  153.3648  138.9594  158.1367 N   0  5  0  0  0  0  0  0  0  0  0  0
  152.6775  137.4983  157.9787 S   0  0  0  0  0  0  0  0  0  0  0  0
  153.1566  136.7649  156.7950 O   0  0  0  0  0  0  0  0  0  0  0  0
  152.6459  136.7656  159.2549 O   0  0  0  0  0  0  0  0  0  0  0  0
  150.9271  137.9742  157.6299 C   0  0  0  0  0  0  0  0  0  0  0  0
  150.7471  138.3155  156.1752 C   0  0  0  0  0  0  0  0  0  0  0  0
  149.8567  137.7320  155.2309 C   0  0  0  0  0  0  0  0  0  0  0  0
  150.1181  138.4158  154.0792 C   0  0  0  0  0  0  0  0  0  0  0  0
  151.0928  139.3367  154.2843 O   0  0  0  0  0  0  0  0  0  0  0  0
  151.4908  139.2632  155.6239 N   0  0  0  0  0  0  0  0  0  0  0  0
  152.5806  141.2724  158.6002 C   0  0  1  0  0  0  0  0  0  0  0  0
  151.3956  141.2087  157.5997 C   0  0  0  0  0  0  0  0  0  0  0  0
  152.9256  144.0683  158.5091 H   0  0  0  0  0  0  0  0  0  0  0  0
  152.0010  144.4962  159.9440 H   0  0  0  0  0  0  0  0  0  0  0  0
  151.1789  143.8250  158.5575 H   0  0  0  0  0  0  0  0  0  0  0  0
  151.4021  142.0768  160.2450 H   0  0  0  0  0  0  0  0  0  0  0  0
  154.3665  142.7868  160.3091 H   0  0  0  0  0  0  0  0  0  0  0  0
  153.1932  143.1062  161.5680 H   0  0  0  0  0  0  0  0  0  0  0  0
  154.5419  141.0655  162.0606 H   0  0  0  0  0  0  0  0  0  0  0  0
  152.8443  140.6967  161.9462 H   0  0  0  0  0  0  0  0  0  0  0  0
  154.9679  140.2513  159.7845 H   0  0  0  0  0  0  0  0  0  0  0  0
  154.1954  139.0061  160.7291 H   0  0  0  0  0  0  0  0  0  0  0  0
  152.0136  139.4874  159.6786 H   0  0  0  0  0  0  0  0  0  0  0  0
  150.2987  137.1279  157.9069 H   0  0  0  0  0  0  0  0  0  0  0  0
  150.6537  138.8073  158.2767 H   0  0  0  0  0  0  0  0  0  0  0  0
  149.1354  136.9422  155.3803 H   0  0  0  0  0  0  0  0  0  0  0  0
  149.7162  138.3641  153.0783 H   0  0  0  0  0  0  0  0  0  0  0  0
  153.4570  141.6038  158.0402 H   0  0  0  0  0  0  0  0  0  0  0  0
  150.4544  140.9699  158.0980 H   0  0  0  0  0  0  0  0  0  0  0  0
  151.5442  140.4731  156.8069 H   0  0  0  0  0  0  0  0  0  0  0  0
  151.2579  142.1586  157.0854 H   0  0  0  0  0  0  0  0  0  0  0  0
  1  2  1  0  0  0  0
  1 19  1  0  0  0  0
  1 20  1  0  0  0  0
  1 21  1  0  0  0  0
  2 17  1  0  0  0  0
  2  3  1  0  0  0  0
  2 22  1  0  0  0  0
  3  4  1  0  0  0  0
  3 23  1  0  0  0  0
  3 24  1  0  0  0  0
  4  5  1  0  0  0  0
  4 25  1  0  0  0  0
  4 26  1  0  0  0  0
  5  6  1  0  0  0  0
  5 27  1  0  0  0  0
  5 28  1  0  0  0  0
  6  7  1  0  0  0  0
  6 17  1  0  0  0  0
  6 29  1  0  0  0  0
  7  8  1  0  0  0  0
  8  9  2  0  0  0  0
  8 10  2  0  0  0  0
  8 11  1  0  0  0  0
 11 12  1  0  0  0  0
 11 30  1  0  0  0  0
 11 31  1  0  0  0  0
 12 16  2  0  0  0  0
 12 13  1  0  0  0  0
 13 14  2  0  0  0  0
 13 32  1  0  0  0  0
 14 15  1  0  0  0  0
 14 33  1  0  0  0  0
 15 16  1  0  0  0  0
 17 18  1  0  0  0  0
 17 34  1  0  0  0  0
 18 35  1  0  0  0  0
 18 36  1  0  0  0  0
 18 37  1  0  0  0  0
M  CHG  1   7  -1
M  END
> <s_m_source_file>
AV-unprocessed.smi

> <i_m_source_file_index>
2451

> <i_lp_mmshare_version>
43012

> <i_f3d_flags>
0

> <s_epik_input>
W0NIM11bQ0BASF0xW0NIMl1bQ0gyXVtDSDJdW0NASF0oW0NASF0xW0NIM10pW05IXVMoPU8pKD1PKVtDSDJdYzJbY0hdW2NIXW9uMg==

> <s_epik_cmdline>
J2VwaWtfcHl0aG9uJywgJy1waCcsICc3LjAnLCAnLXRuJywgJzgnLCAnLW1hJywgJzIwMCcsICctbWV0YWxfYmluZGluZycsICctaW1hZScsICc8aW5maWxlLm1hZT4nLCAnLW9tYWUnLCAnPG91dGZpbGUubWFlPic=

> <r_lp_tautomer_probability>
1

> <r_epik_Ionization_Penalty>
5.22693

> <r_epik_Ionization_Penalty_Charging>
5.22693

> <r_epik_Ionization_Penalty_Neutral>
2.67702e-10

> <r_epik_State_Penalty>
5.22685

> <r_epik_Charging_Adjusted_Penalty>
10.4538

> <i_epik_Tot_Q>
-1

> <i_epik_Tot_abs_Q>
1

> <r_epik_Metal_State_Penalty>
1.28716

> <b_epik_Metal_Only>
1

> <s_lp_Force_Field>
OPLS_2005

> <r_lp_Energy>
12.9846

> <b_lp_Chiralities_Consistent>
1

> <s_lp_Variant>
AV-unprocessed.smi:2451-11

> <Gold.Version>
5.8.1

> <Gold.Id.Protein>
6NUR|6NUR_protein|mol2

> <Gold.PLP.Fitness>
50.0014

> <Gold.PLP.PLP>
-30.4329

> <Gold.PLP.part.hbond>
-4.0000

> <Gold.PLP.part.metal>
0.0000

> <Gold.PLP.part.buried>
-4.0785

> <Gold.PLP.part.nonpolar>
-23.1323

> <Gold.PLP.part.repulsive>
0.1564

> <Gold.PLP.ligand.clash>
0.0000

> <Gold.PLP.ligand.torsion>
1.0685

> <Gold.PLP.Chemscore.Hbond>
4.9753

> <Gold.PLP.Chemscore.CHOScore>
1.9286

> <Gold.PLP.Chemscore.Metal>
0.0000

> <Gold.Chemscore.Hbonds>
donor molecule, donor type, donor heavy atom, donor atom, acceptor molecule, acceptor atom, score
      P1  H  6896  6908       L1    10  0.99
      P1  H  7989  7998       L1    15  1.00
      P1  H  7997  8010       L1     7  2.00
      P1  H 10752 10765       L1     9  0.98
      L1  C    14    33       P1  7948  0.93
      L1  C    14    33       P1  7957  1.00

> <Gold.PLP.Chemscore.Internal.Correction>
0.9939

> <Gold.Rescore>
     Score         DG    S(hbond)    S(metal)    S(lipo)     H(rot)  DE(clash)    DE(int)     intcor
     20.88     -23.52       3.23        0.00      92.48       1.40       0.06       2.58       ----

> <Gold.Chemscore.Fitness>
20.8789

> <Gold.Chemscore.DG>
-23.5194

> <Gold.Chemscore.ZeroCoef>
-5.4800

> <Gold.Chemscore.Hbond>
3.2335

> <Gold.Chemscore.Metal>
0.0000

> <Gold.Chemscore.Lipo>
92.4779

> <Gold.Chemscore.Internal_Hbond>
0.0000

> <Gold.Chemscore.DEClash>
0.0580

> <Gold.Chemscore.DEInternal>
2.5825

> <Gold.Chemscore.Rot>
1.3986

> <Gold.Chemscore.Internal.Correction>
   9.000000E+99

> <Gold.Chemscore.Hbonds>
donor molecule, donor type, donor heavy atom, donor atom, acceptor molecule, acceptor atom, score
      P1  H  6896  6908       L1    10  0.92
      P1  H  7989  7998       L1    15  0.85
      P1  H  7997  8010       L1     7  0.43
      P1  H 10752 10765       L1     9  0.86

> <Gold.Chemscore.Hbond.Weighted>
-10.7998

> <Gold.Chemscore.Metal.Weighted>
-0.0000

> <Gold.Chemscore.Lipo.Weighted>
-10.8199

> <Gold.Chemscore.Internal_Hbond.Weighted>
0.0000

> <Gold.Chemscore.DEClash.Weighted>
0.0580

> <Gold.Chemscore.DEInternal.Weighted>
2.5825

> <Gold.Chemscore.Rot.Weighted>
3.5804

> <Gold.Chemscore.Internal.Correction.Weighted>
   9.000000E+99

> <Gold.Protein.RotatedTorsions>
[ 6907 6896 6895 6894 ] final -108.83 input  -60.11 | X-H torsion
[ 7974 7965 7964 7962 ] final   42.36 input  175.53 | X-H torsion
[ 8008 7997 7996 7995 ] final   19.09 input   59.86 | X-H torsion
[ 10167 10162 10161 10158 ] final -135.39 input  -65.29 | X-H torsion
[ 10718 10713 10712 10709 ] final   61.39 input   66.30 | X-H torsion
[ 10763 10752 10751 10750 ] final -123.17 input  -60.55 | X-H torsion
[ 11005 11000 10999 10996 ] final  -32.40 input  -57.11 | X-H torsion

> <Gold.Protein.ActiveResidues>
 VAL166  LYS551  ARG553  GLY616  TRP617  ASP618  TYR619  PRO620  LYS621  CYS622 
 ASP623  PHE694  ASN695  SER759  ASP760  ASP761  ALA762  ILE779  LEU786  VAL792 
 PHE793  MET794  SER795  GLU796  ALA797  LYS798  CYS799  TRP800  GLU811  SER814 

> <Gold.Protein.RotatedAtoms>
  150.7525  133.9619  159.3517 H   0  0  0  0  0  0  0  0  0  0  0  0  # atno 6907 bound_to 6896
  151.7545  135.0823  160.0345 H   0  0  0  0  0  0  0  0  0  0  0  0  # atno 6908 bound_to 6896
  152.3444  133.6068  159.5935 H   0  0  0  0  0  0  0  0  0  0  0  0  # atno 6909 bound_to 6896
  146.0746  139.5309  142.9575 H   0  0  0  0  0  0  0  0  0  0  0  0  # atno 7974 bound_to 7965
  154.9156  140.3020  155.5243 H   0  0  0  0  0  0  0  0  0  0  0  0  # atno 8008 bound_to 7997
  156.3012  140.2381  156.4137 H   0  0  0  0  0  0  0  0  0  0  0  0  # atno 8009 bound_to 7997
  154.8381  140.0415  157.1512 H   0  0  0  0  0  0  0  0  0  0  0  0  # atno 8010 bound_to 7997
  139.8784  143.6869  152.2630 H   0  0  0  0  0  0  0  0  0  0  0  0  # atno 10167 bound_to 10162
  157.5824  130.8992  149.9455 H   0  0  0  0  0  0  0  0  0  0  0  0  # atno 10718 bound_to 10713
  154.8703  135.4107  154.2901 H   0  0  0  0  0  0  0  0  0  0  0  0  # atno 10763 bound_to 10752
  153.3778  135.7010  153.6594 H   0  0  0  0  0  0  0  0  0  0  0  0  # atno 10764 bound_to 10752
  153.5429  135.3644  155.2698 H   0  0  0  0  0  0  0  0  0  0  0  0  # atno 10765 bound_to 10752
  140.9549  133.7199  156.1278 H   0  0  0  0  0  0  0  0  0  0  0  0  # atno 11005 bound_to 11000
  145.6329  141.0300  143.1853 LP  0  0  0  0  0  0  0  0  0  0  0  0  # atno 17320 bound_to 7965
  144.7253  139.7894  143.7367 LP  0  0  0  0  0  0  0  0  0  0  0  0  # atno 17321 bound_to 7965
  139.7218  144.7601  151.0942 LP  0  0  0  0  0  0  0  0  0  0  0  0  # atno 17342 bound_to 10162
  140.7749  143.5197  150.9551 LP  0  0  0  0  0  0  0  0  0  0  0  0  # atno 17343 bound_to 10162
  156.0871  130.3667  150.0467 LP  0  0  0  0  0  0  0  0  0  0  0  0  # atno 17370 bound_to 10713
  156.8603  130.9489  151.3618 LP  0  0  0  0  0  0  0  0  0  0  0  0  # atno 17371 bound_to 10713
  140.7550  134.4002  157.5535 LP  0  0  0  0  0  0  0  0  0  0  0  0  # atno 17394 bound_to 11000
  139.8859  134.8924  156.2616 LP  0  0  0  0  0  0  0  0  0  0  0  0  # atno 17395 bound_to 11000

$$$$
