AV-unprocessed.smi:1840|AV-procd|sdf|7489|dock7
  -GOLD-   22720 9193D 1   1.00000     0.00000
 Structure written by MMmdl.
 43 44  0  0  0  0  0  0  0  0  1 V2000
  147.3152  142.0338  154.8899 C   0  0  0  0  0  0  0  0  0  0  0  0
  148.5284  141.1626  155.2466 C   0  0  1  0  0  0  0  0  0  0  0  0
  148.9803  140.2994  154.0528 C   0  0  0  0  0  0  0  0  0  0  0  0
  150.1966  139.5585  154.3381 N   0  0  0  0  0  0  0  0  0  0  0  0
  150.4234  138.2034  154.2185 C   0  0  0  0  0  0  0  0  0  0  0  0
  151.7186  137.9743  154.5850 C   0  0  0  0  0  0  0  0  0  0  0  0
  152.2083  139.2678  154.9201 C   0  0  0  0  0  0  0  0  0  0  0  0
  151.2949  140.2137  154.7717 N   0  0  0  0  0  0  0  0  0  0  0  0
  149.6311  142.0118  155.6927 N   0  0  0  0  0  0  0  0  0  0  0  0
  150.1999  141.9754  156.9054 C   0  0  0  0  0  0  0  0  0  0  0  0
  149.8304  141.2399  157.8208 O   0  0  0  0  0  0  0  0  0  0  0  0
  151.2294  142.8302  156.9908 N   0  0  0  0  0  0  0  0  0  0  0  0
  152.0795  143.0339  158.1629 C   0  0  2  0  0  0  0  0  0  0  0  0
  152.5101  141.6560  158.7037 C   0  0  0  0  0  0  0  0  0  0  0  0
  153.3564  141.7840  159.9782 C   0  0  0  0  0  0  0  0  0  0  0  0
  152.6074  142.5790  161.0555 C   0  0  0  0  0  0  0  0  0  0  0  0
  152.1936  143.9615  160.5292 C   0  0  0  0  0  0  0  0  0  0  0  0
  151.3402  143.8602  159.2480 C   0  0  1  0  0  0  0  0  0  0  0  0
  150.9363  145.2631  158.7588 C   0  0  0  0  0  0  0  0  0  0  0  0
  146.4715  141.4188  154.5759 H   0  0  0  0  0  0  0  0  0  0  0  0
  147.5457  142.7233  154.0772 H   0  0  0  0  0  0  0  0  0  0  0  0
  146.9892  142.6247  155.7466 H   0  0  0  0  0  0  0  0  0  0  0  0
  148.2322  140.4900  156.0540 H   0  0  0  0  0  0  0  0  0  0  0  0
  148.1998  139.5844  153.7877 H   0  0  0  0  0  0  0  0  0  0  0  0
  149.1467  140.9192  153.1705 H   0  0  0  0  0  0  0  0  0  0  0  0
  149.6549  137.5240  153.8813 H   0  0  0  0  0  0  0  0  0  0  0  0
  152.2370  137.0276  154.6090 H   0  0  0  0  0  0  0  0  0  0  0  0
  153.1938  139.5459  155.2638 H   0  0  0  0  0  0  0  0  0  0  0  0
  150.0090  142.6556  155.0131 H   0  0  0  0  0  0  0  0  0  0  0  0
  151.4500  143.3840  156.1761 H   0  0  0  0  0  0  0  0  0  0  0  0
  152.9848  143.5733  157.8775 H   0  0  0  0  0  0  0  0  0  0  0  0
  151.6282  141.0499  158.9174 H   0  0  0  0  0  0  0  0  0  0  0  0
  153.0765  141.1176  157.9430 H   0  0  0  0  0  0  0  0  0  0  0  0
  153.6130  140.7940  160.3564 H   0  0  0  0  0  0  0  0  0  0  0  0
  154.2990  142.2806  159.7444 H   0  0  0  0  0  0  0  0  0  0  0  0
  151.7221  142.0260  161.3721 H   0  0  0  0  0  0  0  0  0  0  0  0
  153.2357  142.6902  161.9395 H   0  0  0  0  0  0  0  0  0  0  0  0
  151.6401  144.4921  161.3047 H   0  0  0  0  0  0  0  0  0  0  0  0
  153.0873  144.5544  160.3297 H   0  0  0  0  0  0  0  0  0  0  0  0
  150.4223  143.3305  159.5081 H   0  0  0  0  0  0  0  0  0  0  0  0
  151.8063  145.8318  158.4289 H   0  0  0  0  0  0  0  0  0  0  0  0
  150.4502  145.8304  159.5529 H   0  0  0  0  0  0  0  0  0  0  0  0
  150.2356  145.2142  157.9253 H   0  0  0  0  0  0  0  0  0  0  0  0
  1  2  1  0  0  0  0
  1 20  1  0  0  0  0
  1 21  1  0  0  0  0
  1 22  1  0  0  0  0
  2  3  1  0  0  0  0
  2  9  1  0  0  0  0
  2 23  1  0  0  0  0
  3  4  1  0  0  0  0
  3 24  1  0  0  0  0
  3 25  1  0  0  0  0
  4  8  1  0  0  0  0
  4  5  1  0  0  0  0
  5  6  2  0  0  0  0
  5 26  1  0  0  0  0
  6  7  1  0  0  0  0
  6 27  1  0  0  0  0
  7  8  2  0  0  0  0
  7 28  1  0  0  0  0
  9 10  1  0  0  0  0
  9 29  1  0  0  0  0
 10 11  2  0  0  0  0
 10 12  1  0  0  0  0
 12 13  1  0  0  0  0
 12 30  1  0  0  0  0
 13 18  1  0  0  0  0
 13 14  1  0  0  0  0
 13 31  1  0  0  0  0
 14 15  1  0  0  0  0
 14 32  1  0  0  0  0
 14 33  1  0  0  0  0
 15 16  1  0  0  0  0
 15 34  1  0  0  0  0
 15 35  1  0  0  0  0
 16 17  1  0  0  0  0
 16 36  1  0  0  0  0
 16 37  1  0  0  0  0
 17 18  1  0  0  0  0
 17 38  1  0  0  0  0
 17 39  1  0  0  0  0
 18 19  1  0  0  0  0
 18 40  1  0  0  0  0
 19 41  1  0  0  0  0
 19 42  1  0  0  0  0
 19 43  1  0  0  0  0
M  END
> <s_m_source_file>
AV-unprocessed.smi

> <i_m_source_file_index>
1840

> <i_lp_mmshare_version>
43012

> <i_f3d_flags>
0

> <s_epik_input>
bjFbY0hdW2NIXVtjSF1uMVtDSDJdW0NAQEhdKFtDSDNdKVtOSF1DKD1PKVtOSF1bQ0BASF0yW0NIMl1bQ0gyXVtDSDJdW0NIMl1bQ0BIXTJbQ0gzXQ==

> <s_epik_cmdline>
J2VwaWtfcHl0aG9uJywgJy1waCcsICc3LjAnLCAnLXRuJywgJzgnLCAnLW1hJywgJzIwMCcsICctbWV0YWxfYmluZGluZycsICctaW1hZScsICc8aW5maWxlLm1hZT4nLCAnLW9tYWUnLCAnPG91dGZpbGUubWFlPic=

> <r_lp_tautomer_probability>
1

> <r_epik_Ionization_Penalty>
7.38659e-05

> <r_epik_Ionization_Penalty_Charging>
0

> <r_epik_Ionization_Penalty_Neutral>
7.38659e-05

> <r_epik_State_Penalty>
-0

> <r_epik_Charging_Adjusted_Penalty>
0

> <i_epik_Tot_Q>
0

> <i_epik_Tot_abs_Q>
0

> <r_epik_Metal_State_Penalty>
-0

> <b_epik_Metal_Only>
0

> <s_lp_Force_Field>
OPLS_2005

> <r_lp_Energy>
8.744

> <b_lp_Chiralities_Consistent>
1

> <s_lp_Variant>
AV-unprocessed.smi:1840-2

> <Gold.Version>
5.8.1

> <Gold.Id.Protein>
6NUR|6NUR_protein|mol2

> <Gold.PLP.Fitness>
50.1157

> <Gold.PLP.PLP>
-44.5537

> <Gold.PLP.part.hbond>
-2.1026

> <Gold.PLP.part.metal>
0.0000

> <Gold.PLP.part.buried>
-2.1172

> <Gold.PLP.part.nonpolar>
-38.9396

> <Gold.PLP.part.repulsive>
0.2920

> <Gold.PLP.ligand.clash>
0.0000

> <Gold.PLP.ligand.torsion>
0.2277

> <Gold.PLP.Chemscore.Hbond>
1.0000

> <Gold.PLP.Chemscore.CHOScore>
1.0000

> <Gold.PLP.Chemscore.Metal>
0.0000

> <Gold.Chemscore.Hbonds>
donor molecule, donor type, donor heavy atom, donor atom, acceptor molecule, acceptor atom, score
      P1  H  7989  7998       L1     8  0.76
      L1  C     5    26       P1  7948  1.00

> <Gold.PLP.Chemscore.Internal.Correction>
0.0174

> <Gold.Rescore>
     Score         DG    S(hbond)    S(metal)    S(lipo)     H(rot)  DE(clash)    DE(int)     intcor
     15.31     -16.94       0.55        0.00     116.23       1.56       0.20       1.42       ----

> <Gold.Chemscore.Fitness>
15.3123

> <Gold.Chemscore.DG>
-16.9367

> <Gold.Chemscore.ZeroCoef>
-5.4800

> <Gold.Chemscore.Hbond>
0.5523

> <Gold.Chemscore.Metal>
0.0000

> <Gold.Chemscore.Lipo>
116.2342

> <Gold.Chemscore.Internal_Hbond>
0.0000

> <Gold.Chemscore.DEClash>
0.2031

> <Gold.Chemscore.DEInternal>
1.4213

> <Gold.Chemscore.Rot>
1.5576

> <Gold.Chemscore.Internal.Correction>
   9.000000E+99

> <Gold.Chemscore.Hbonds>
donor molecule, donor type, donor heavy atom, donor atom, acceptor molecule, acceptor atom, score
      L1  H     9    29       P1  8028  0.01
      P1  H  7989  7998       L1     8  0.07

> <Gold.Chemscore.Hbond.Weighted>
-1.8448

> <Gold.Chemscore.Metal.Weighted>
-0.0000

> <Gold.Chemscore.Lipo.Weighted>
-13.5994

> <Gold.Chemscore.Internal_Hbond.Weighted>
0.0000

> <Gold.Chemscore.DEClash.Weighted>
0.2031

> <Gold.Chemscore.DEInternal.Weighted>
1.4213

> <Gold.Chemscore.Rot.Weighted>
3.9875

> <Gold.Chemscore.Internal.Correction.Weighted>
   9.000000E+99

> <Gold.Protein.RotatedTorsions>
[ 6907 6896 6895 6894 ] final  144.26 input  -60.11 | X-H torsion
[ 7974 7965 7964 7962 ] final  136.04 input  175.53 | X-H torsion
[ 8008 7997 7996 7995 ] final -108.75 input   59.86 | X-H torsion
[ 10167 10162 10161 10158 ] final   54.35 input  -65.29 | X-H torsion
[ 10718 10713 10712 10709 ] final -139.45 input   66.30 | X-H torsion
[ 10763 10752 10751 10750 ] final  173.61 input  -60.55 | X-H torsion
[ 11005 11000 10999 10996 ] final  120.42 input  -57.11 | X-H torsion

> <Gold.Protein.ActiveResidues>
 VAL166  LYS551  ARG553  GLY616  TRP617  ASP618  TYR619  PRO620  LYS621  CYS622 
 ASP623  PHE694  ASN695  SER759  ASP760  ASP761  ALA762  ILE779  LEU786  VAL792 
 PHE793  MET794  SER795  GLU796  ALA797  LYS798  CYS799  TRP800  GLU811  SER814 

> <Gold.Protein.RotatedAtoms>
  152.1959  133.4806  159.5032 H   0  0  0  0  0  0  0  0  0  0  0  0  # atno 6907 bound_to 6896
  150.6960  134.1653  159.4201 H   0  0  0  0  0  0  0  0  0  0  0  0  # atno 6908 bound_to 6896
  151.9569  135.0142  160.0596 H   0  0  0  0  0  0  0  0  0  0  0  0  # atno 6909 bound_to 6896
  144.9603  139.4717  143.5482 H   0  0  0  0  0  0  0  0  0  0  0  0  # atno 7974 bound_to 7965
  154.9490  140.0401  157.2134 H   0  0  0  0  0  0  0  0  0  0  0  0  # atno 8008 bound_to 7997
  154.7997  140.2849  155.5909 H   0  0  0  0  0  0  0  0  0  0  0  0  # atno 8009 bound_to 7997
  156.2960  140.2557  156.2862 H   0  0  0  0  0  0  0  0  0  0  0  0  # atno 8010 bound_to 7997
  140.2311  144.3686  150.6414 H   0  0  0  0  0  0  0  0  0  0  0  0  # atno 10167 bound_to 10162
  156.3109  130.7481  151.1556 H   0  0  0  0  0  0  0  0  0  0  0  0  # atno 10718 bound_to 10713
  154.4425  135.2762  155.1838 H   0  0  0  0  0  0  0  0  0  0  0  0  # atno 10763 bound_to 10752
  154.3698  135.6111  153.5738 H   0  0  0  0  0  0  0  0  0  0  0  0  # atno 10764 bound_to 10752
  152.9842  135.5854  154.4755 H   0  0  0  0  0  0  0  0  0  0  0  0  # atno 10765 bound_to 10752
  139.9185  134.9634  156.7805 H   0  0  0  0  0  0  0  0  0  0  0  0  # atno 11005 bound_to 11000
  146.3351  139.8749  142.8834 LP  0  0  0  0  0  0  0  0  0  0  0  0  # atno 17320 bound_to 7965
  145.2709  141.0108  143.3772 LP  0  0  0  0  0  0  0  0  0  0  0  0  # atno 17321 bound_to 7965
  140.6184  143.2174  151.6744 LP  0  0  0  0  0  0  0  0  0  0  0  0  # atno 17342 bound_to 10162
  139.5110  144.3525  152.0639 LP  0  0  0  0  0  0  0  0  0  0  0  0  # atno 17343 bound_to 10162
  157.7390  131.0533  150.5256 LP  0  0  0  0  0  0  0  0  0  0  0  0  # atno 17370 bound_to 10713
  156.5395  130.4204  149.6161 LP  0  0  0  0  0  0  0  0  0  0  0  0  # atno 17371 bound_to 10713
  140.6548  133.9698  155.7774 LP  0  0  0  0  0  0  0  0  0  0  0  0  # atno 17394 bound_to 11000
  141.0683  134.0243  157.3562 LP  0  0  0  0  0  0  0  0  0  0  0  0  # atno 17395 bound_to 11000

$$$$
