AV-unprocessed.smi:1600|AV-procd|sdf|6427|dock2
  -GOLD-   22720 7 73D 1   1.00000     0.00000
 Structure written by MMmdl.
 46 47  0  0  0  0  0  0  0  0  2 V2000
  150.8420  141.9564  156.8081 C   0  0  0  0  0  0  0  0  0  0  0  0
  150.5532  140.8170  155.8758 C   0  0  0  0  0  0  0  0  0  0  0  0
  149.3250  140.5071  155.2230 C   0  0  0  0  0  0  0  0  0  0  0  0
  149.6367  139.3787  154.5145 C   0  0  0  0  0  0  0  0  0  0  0  0
  148.8434  138.6376  153.6960 N   0  0  0  0  0  0  0  0  0  0  0  0
  147.5751  138.8752  153.3201 C   0  0  0  0  0  0  0  0  0  0  0  0
  146.8692  139.7950  153.7324 O   0  0  0  0  0  0  0  0  0  0  0  0
  147.1675  137.9889  152.4003 N   0  0  0  0  0  0  0  0  0  0  0  0
  145.8621  137.9801  151.7394 C   0  0  0  0  0  0  0  0  0  0  0  0
  145.1080  136.6293  151.8446 C   0  0  2  0  0  0  0  0  0  0  0  0
  145.1193  136.0140  153.2525 C   0  0  0  0  0  0  0  0  0  0  0  0
  146.0744  134.8122  153.1826 C   0  0  0  0  0  0  0  0  0  0  0  0
  146.6497  134.7963  151.8185 N   0  3  1  0  0  0  0  0  0  0  0  0
  147.0913  133.4632  151.3230 C   0  0  0  0  0  0  0  0  0  0  0  0
  145.8907  132.5165  151.1392 C   0  0  0  0  0  0  0  0  0  0  0  0
  148.1147  132.8171  152.2757 C   0  0  0  0  0  0  0  0  0  0  0  0
  145.6865  135.5180  150.9620 C   0  0  0  0  0  0  0  0  0  0  0  0
  150.9587  139.0638  154.7382 N   0  0  0  0  0  0  0  0  0  0  0  0
  151.7488  137.9659  154.2159 C   0  0  0  0  0  0  0  0  0  0  0  0
  151.5206  139.9555  155.5825 N   0  0  0  0  0  0  0  0  0  0  0  0
  149.9649  142.5901  156.9398 H   0  0  0  0  0  0  0  0  0  0  0  0
  151.6486  142.5827  156.4261 H   0  0  0  0  0  0  0  0  0  0  0  0
  151.1381  141.5927  157.7924 H   0  0  0  0  0  0  0  0  0  0  0  0
  148.3865  141.0372  155.2823 H   0  0  0  0  0  0  0  0  0  0  0  0
  149.2846  137.8243  153.2923 H   0  0  0  0  0  0  0  0  0  0  0  0
  147.8129  137.2613  152.1284 H   0  0  0  0  0  0  0  0  0  0  0  0
  145.2617  138.7574  152.2130 H   0  0  0  0  0  0  0  0  0  0  0  0
  145.9612  138.2790  150.6945 H   0  0  0  0  0  0  0  0  0  0  0  0
  144.0783  136.8161  151.5368 H   0  0  0  0  0  0  0  0  0  0  0  0
  145.4250  136.7308  154.0157 H   0  0  0  0  0  0  0  0  0  0  0  0
  144.1191  135.6729  153.5230 H   0  0  0  0  0  0  0  0  0  0  0  0
  146.8659  134.8818  153.9295 H   0  0  0  0  0  0  0  0  0  0  0  0
  145.5171  133.8926  153.3690 H   0  0  0  0  0  0  0  0  0  0  0  0
  147.5710  133.6012  150.3528 H   0  0  0  0  0  0  0  0  0  0  0  0
  146.2174  131.5312  150.8050 H   0  0  0  0  0  0  0  0  0  0  0  0
  145.1888  132.8864  150.3919 H   0  0  0  0  0  0  0  0  0  0  0  0
  145.3450  132.3832  152.0744 H   0  0  0  0  0  0  0  0  0  0  0  0
  148.3848  131.8158  151.9386 H   0  0  0  0  0  0  0  0  0  0  0  0
  147.7151  132.7289  153.2870 H   0  0  0  0  0  0  0  0  0  0  0  0
  149.0406  133.3895  152.3288 H   0  0  0  0  0  0  0  0  0  0  0  0
  144.8896  134.8326  150.6681 H   0  0  0  0  0  0  0  0  0  0  0  0
  146.1419  135.9047  150.0503 H   0  0  0  0  0  0  0  0  0  0  0  0
  151.5435  137.8336  153.1533 H   0  0  0  0  0  0  0  0  0  0  0  0
  151.4934  137.0483  154.7463 H   0  0  0  0  0  0  0  0  0  0  0  0
  152.8134  138.1663  154.3442 H   0  0  0  0  0  0  0  0  0  0  0  0
  147.4708  135.3835  151.8533 H   0  0  0  0  0  0  0  0  0  0  0  0
  1  2  1  0  0  0  0
  1 21  1  0  0  0  0
  1 22  1  0  0  0  0
  1 23  1  0  0  0  0
  2 20  2  0  0  0  0
  2  3  1  0  0  0  0
  3  4  2  0  0  0  0
  3 24  1  0  0  0  0
  4  5  1  0  0  0  0
  4 18  1  0  0  0  0
  5  6  1  0  0  0  0
  5 25  1  0  0  0  0
  6  7  2  0  0  0  0
  6  8  1  0  0  0  0
  8  9  1  0  0  0  0
  8 26  1  0  0  0  0
  9 10  1  0  0  0  0
  9 27  1  0  0  0  0
  9 28  1  0  0  0  0
 10 17  1  0  0  0  0
 10 11  1  0  0  0  0
 10 29  1  0  0  0  0
 11 12  1  0  0  0  0
 11 30  1  0  0  0  0
 11 31  1  0  0  0  0
 12 13  1  0  0  0  0
 12 32  1  0  0  0  0
 12 33  1  0  0  0  0
 13 14  1  0  0  0  0
 13 17  1  0  0  0  0
 13 46  1  0  0  0  0
 14 15  1  0  0  0  0
 14 16  1  0  0  0  0
 14 34  1  0  0  0  0
 15 35  1  0  0  0  0
 15 36  1  0  0  0  0
 15 37  1  0  0  0  0
 16 38  1  0  0  0  0
 16 39  1  0  0  0  0
 16 40  1  0  0  0  0
 17 41  1  0  0  0  0
 17 42  1  0  0  0  0
 18 19  1  0  0  0  0
 18 20  1  0  0  0  0
 19 43  1  0  0  0  0
 19 44  1  0  0  0  0
 19 45  1  0  0  0  0
M  CHG  1  13   1
M  END
> <s_m_source_file>
AV-unprocessed.smi

> <i_m_source_file_index>
1600

> <i_lp_mmshare_version>
43012

> <i_f3d_flags>
0

> <s_epik_input>
W0NIM11jMVtjSF1jKG4objEpW0NIM10pW05IXUMoPU8pW05IXVtDSDJdW0NAQEhdMltDSDJdW0NIMl1OKFtDSDJdMilbQ0hdKFtDSDNdKVtDSDNd

> <s_epik_cmdline>
J2VwaWtfcHl0aG9uJywgJy1waCcsICc3LjAnLCAnLXRuJywgJzgnLCAnLW1hJywgJzIwMCcsICctbWV0YWxfYmluZGluZycsICctaW1hZScsICc8aW5maWxlLm1hZT4nLCAnLW9tYWUnLCAnPG91dGZpbGUubWFlPic=

> <r_lp_tautomer_probability>
1

> <r_epik_Ionization_Penalty>
0.000297652

> <r_epik_Ionization_Penalty_Charging>
0.000213653

> <r_epik_Ionization_Penalty_Neutral>
8.3999e-05

> <r_epik_State_Penalty>
-0

> <r_epik_Charging_Adjusted_Penalty>
0.000213653

> <i_epik_Tot_Q>
1

> <i_epik_Tot_abs_Q>
1

> <r_epik_Metal_State_Penalty>
-0

> <b_epik_Metal_Only>
0

> <s_lp_Force_Field>
OPLS_2005

> <r_lp_Energy>
33.9079

> <b_lp_Chiralities_Consistent>
1

> <s_lp_Variant>
AV-unprocessed.smi:1600-1

> <Gold.Version>
5.8.1

> <Gold.Id.Protein>
6NUR|6NUR_protein|mol2

> <Gold.PLP.Fitness>
48.1457

> <Gold.PLP.PLP>
-37.3150

> <Gold.PLP.part.hbond>
-5.0649

> <Gold.PLP.part.metal>
0.0000

> <Gold.PLP.part.buried>
1.5301

> <Gold.PLP.part.nonpolar>
-33.9966

> <Gold.PLP.part.repulsive>
0.3632

> <Gold.PLP.ligand.clash>
0.0000

> <Gold.PLP.ligand.torsion>
0.1341

> <Gold.PLP.Chemscore.Hbond>
3.6880

> <Gold.PLP.Chemscore.CHOScore>
0.0000

> <Gold.PLP.Chemscore.Metal>
0.0000

> <Gold.Chemscore.Hbonds>
donor molecule, donor type, donor heavy atom, donor atom, acceptor molecule, acceptor atom, score
      L1  H     5    25       P1  7948  0.63
      L1  H     8    26       P1  7948  1.00
      L1  H    13    46       P1  7948  2.00

> <Gold.PLP.Chemscore.Internal.Correction>
0.0351

> <Gold.Rescore>
     Score         DG    S(hbond)    S(metal)    S(lipo)     H(rot)  DE(clash)    DE(int)     intcor
     16.29     -17.91       2.41        0.00      68.76       1.44       0.34       1.28       ----

> <Gold.Chemscore.Fitness>
16.2921

> <Gold.Chemscore.DG>
-17.9092

> <Gold.Chemscore.ZeroCoef>
-5.4800

> <Gold.Chemscore.Hbond>
2.4142

> <Gold.Chemscore.Metal>
0.0000

> <Gold.Chemscore.Lipo>
68.7553

> <Gold.Chemscore.Internal_Hbond>
0.0000

> <Gold.Chemscore.DEClash>
0.3357

> <Gold.Chemscore.DEInternal>
1.2814

> <Gold.Chemscore.Rot>
1.4369

> <Gold.Chemscore.Internal.Correction>
   9.000000E+99

> <Gold.Chemscore.Hbonds>
donor molecule, donor type, donor heavy atom, donor atom, acceptor molecule, acceptor atom, score
      L1  H     5    25       P1  7948  0.61
      L1  H     8    26       P1  7948  0.94
      L1  H    13    46       P1  7948  0.98

> <Gold.Chemscore.Hbond.Weighted>
-8.0634

> <Gold.Chemscore.Metal.Weighted>
-0.0000

> <Gold.Chemscore.Lipo.Weighted>
-8.0444

> <Gold.Chemscore.Internal_Hbond.Weighted>
0.0000

> <Gold.Chemscore.DEClash.Weighted>
0.3357

> <Gold.Chemscore.DEInternal.Weighted>
1.2814

> <Gold.Chemscore.Rot.Weighted>
3.6785

> <Gold.Chemscore.Internal.Correction.Weighted>
   9.000000E+99

> <Gold.Protein.RotatedTorsions>
[ 6907 6896 6895 6894 ] final -110.18 input  -60.11 | X-H torsion
[ 7974 7965 7964 7962 ] final -143.43 input  175.53 | X-H torsion
[ 8008 7997 7996 7995 ] final   86.25 input   59.86 | X-H torsion
[ 10167 10162 10161 10158 ] final    8.98 input  -65.29 | X-H torsion
[ 10718 10713 10712 10709 ] final -123.34 input   66.30 | X-H torsion
[ 10763 10752 10751 10750 ] final  -64.22 input  -60.55 | X-H torsion
[ 11005 11000 10999 10996 ] final -104.26 input  -57.11 | X-H torsion

> <Gold.Protein.ActiveResidues>
 VAL166  LYS551  ARG553  GLY616  TRP617  ASP618  TYR619  PRO620  LYS621  CYS622 
 ASP623  PHE694  ASN695  SER759  ASP760  ASP761  ALA762  ILE779  LEU786  VAL792 
 PHE793  MET794  SER795  GLU796  ALA797  LYS798  CYS799  TRP800  GLU811  SER814 

> <Gold.Protein.RotatedAtoms>
  150.7609  133.9419  159.3458 H   0  0  0  0  0  0  0  0  0  0  0  0  # atno 6907 bound_to 6896
  151.7328  135.0869  160.0312 H   0  0  0  0  0  0  0  0  0  0  0  0  # atno 6908 bound_to 6896
  152.3579  133.6222  159.6028 H   0  0  0  0  0  0  0  0  0  0  0  0  # atno 6909 bound_to 6896
  144.8370  140.5835  143.5477 H   0  0  0  0  0  0  0  0  0  0  0  0  # atno 7974 bound_to 7965
  155.9603  140.3394  155.6485 H   0  0  0  0  0  0  0  0  0  0  0  0  # atno 8008 bound_to 7997
  155.6806  140.0737  157.2504 H   0  0  0  0  0  0  0  0  0  0  0  0  # atno 8009 bound_to 7997
  154.4142  140.1675  156.1966 H   0  0  0  0  0  0  0  0  0  0  0  0  # atno 8010 bound_to 7997
  140.6282  143.8053  150.7261 H   0  0  0  0  0  0  0  0  0  0  0  0  # atno 10167 bound_to 10162
  156.1494  130.6524  150.9891 H   0  0  0  0  0  0  0  0  0  0  0  0  # atno 10718 bound_to 10713
  154.3269  135.6185  153.5533 H   0  0  0  0  0  0  0  0  0  0  0  0  # atno 10763 bound_to 10752
  152.9815  135.5737  154.5006 H   0  0  0  0  0  0  0  0  0  0  0  0  # atno 10764 bound_to 10752
  154.4685  135.2858  155.1637 H   0  0  0  0  0  0  0  0  0  0  0  0  # atno 10765 bound_to 10752
  141.1108  133.8709  157.1589 H   0  0  0  0  0  0  0  0  0  0  0  0  # atno 11005 bound_to 11000
  145.4775  139.1498  143.3780 LP  0  0  0  0  0  0  0  0  0  0  0  0  # atno 17320 bound_to 7965
  146.2667  140.4910  142.8831 LP  0  0  0  0  0  0  0  0  0  0  0  0  # atno 17321 bound_to 7965
  140.1659  143.4236  152.2035 LP  0  0  0  0  0  0  0  0  0  0  0  0  # atno 17342 bound_to 10162
  139.5499  144.7329  151.4466 LP  0  0  0  0  0  0  0  0  0  0  0  0  # atno 17343 bound_to 10162
  157.6644  131.0874  150.7762 LP  0  0  0  0  0  0  0  0  0  0  0  0  # atno 17370 bound_to 10713
  156.7832  130.4866  149.5397 LP  0  0  0  0  0  0  0  0  0  0  0  0  # atno 17371 bound_to 10713
  140.0002  135.0031  157.0172 LP  0  0  0  0  0  0  0  0  0  0  0  0  # atno 17394 bound_to 11000
  140.4779  134.1319  155.7212 LP  0  0  0  0  0  0  0  0  0  0  0  0  # atno 17395 bound_to 11000

$$$$
