AV-unprocessed.smi:2090|AV-procd|sdf|8532|dock1
  -GOLD-   2272011253D 1   1.00000     0.00000
 Structure written by MMmdl.
 42 43  0  0  0  0  0  0  0  0  2 V2000
  151.6841  140.9300  156.1579 C   0  0  0  0  0  0  0  0  0  0  0  0
  151.5228  139.5330  155.6652 C   0  0  0  0  0  0  0  0  0  0  0  0
  150.4402  138.8154  155.2405 C   0  0  0  0  0  0  0  0  0  0  0  0
  151.0031  137.5543  154.9095 C   0  0  0  0  0  0  0  0  0  0  0  0
  150.1928  136.5046  154.4068 N   0  0  0  0  0  0  0  0  0  0  0  0
  149.8544  135.3636  155.0308 C   0  0  0  0  0  0  0  0  0  0  0  0
  150.1761  135.0595  156.1799 O   0  0  0  0  0  0  0  0  0  0  0  0
  149.1152  134.5722  154.2397 N   0  0  0  0  0  0  0  0  0  0  0  0
  148.6088  133.2585  154.6201 C   0  0  0  0  0  0  0  0  0  0  0  0
  148.9648  132.1909  153.5669 C   0  0  0  0  0  0  0  0  0  0  0  0
  147.9161  132.0472  152.5262 N   0  3  2  0  0  0  0  0  0  0  0  0
  147.4736  133.3620  151.9937 C   0  0  0  0  0  0  0  0  0  0  0  0
  146.4922  133.1873  150.8228 C   0  0  0  0  0  0  0  0  0  0  0  0
  145.2749  132.3447  151.2375 C   0  0  1  0  0  0  0  0  0  0  0  0
  144.2986  132.1416  150.0705 C   0  0  0  0  0  0  0  0  0  0  0  0
  145.7620  131.0051  151.8144 C   0  0  0  0  0  0  0  0  0  0  0  0
  146.7595  131.2213  152.9649 C   0  0  0  0  0  0  0  0  0  0  0  0
  152.3099  137.5047  155.1177 N   0  0  0  0  0  0  0  0  0  0  0  0
  152.6497  138.7726  155.6040 O   0  0  0  0  0  0  0  0  0  0  0  0
  150.7768  141.5099  155.9883 H   0  0  0  0  0  0  0  0  0  0  0  0
  152.5051  141.4297  155.6434 H   0  0  0  0  0  0  0  0  0  0  0  0
  151.8974  140.9399  157.2267 H   0  0  0  0  0  0  0  0  0  0  0  0
  149.4137  139.1446  155.1746 H   0  0  0  0  0  0  0  0  0  0  0  0
  149.8517  136.6280  153.4652 H   0  0  0  0  0  0  0  0  0  0  0  0
  148.8908  134.8988  153.3109 H   0  0  0  0  0  0  0  0  0  0  0  0
  149.0028  132.9776  155.5984 H   0  0  0  0  0  0  0  0  0  0  0  0
  147.5294  133.3495  154.7339 H   0  0  0  0  0  0  0  0  0  0  0  0
  149.9253  132.4125  153.0986 H   0  0  0  0  0  0  0  0  0  0  0  0
  149.0862  131.2336  154.0760 H   0  0  0  0  0  0  0  0  0  0  0  0
  147.0091  133.9423  152.7927 H   0  0  0  0  0  0  0  0  0  0  0  0
  148.3377  133.9317  151.6496 H   0  0  0  0  0  0  0  0  0  0  0  0
  146.1667  134.1661  150.4688 H   0  0  0  0  0  0  0  0  0  0  0  0
  147.0054  132.7119  149.9856 H   0  0  0  0  0  0  0  0  0  0  0  0
  144.7427  132.8807  152.0249 H   0  0  0  0  0  0  0  0  0  0  0  0
  144.7690  131.6046  149.2462 H   0  0  0  0  0  0  0  0  0  0  0  0
  143.9437  133.0978  149.6849 H   0  0  0  0  0  0  0  0  0  0  0  0
  143.4254  131.5694  150.3856 H   0  0  0  0  0  0  0  0  0  0  0  0
  144.9126  130.4213  152.1708 H   0  0  0  0  0  0  0  0  0  0  0  0
  146.2352  130.4132  151.0294 H   0  0  0  0  0  0  0  0  0  0  0  0
  147.0986  130.2493  153.3205 H   0  0  0  0  0  0  0  0  0  0  0  0
  146.2618  131.7079  153.8053 H   0  0  0  0  0  0  0  0  0  0  0  0
  148.3486  131.5640  151.7517 H   0  0  0  0  0  0  0  0  0  0  0  0
  1  2  1  0  0  0  0
  1 20  1  0  0  0  0
  1 21  1  0  0  0  0
  1 22  1  0  0  0  0
  2 19  1  0  0  0  0
  2  3  2  0  0  0  0
  3  4  1  0  0  0  0
  3 23  1  0  0  0  0
  4  5  1  0  0  0  0
  4 18  2  0  0  0  0
  5  6  1  0  0  0  0
  5 24  1  0  0  0  0
  6  7  2  0  0  0  0
  6  8  1  0  0  0  0
  8  9  1  0  0  0  0
  8 25  1  0  0  0  0
  9 10  1  0  0  0  0
  9 26  1  0  0  0  0
  9 27  1  0  0  0  0
 10 11  1  0  0  0  0
 10 28  1  0  0  0  0
 10 29  1  0  0  0  0
 11 17  1  0  0  0  0
 11 12  1  0  0  0  0
 11 42  1  0  0  0  0
 12 13  1  0  0  0  0
 12 30  1  0  0  0  0
 12 31  1  0  0  0  0
 13 14  1  0  0  0  0
 13 32  1  0  0  0  0
 13 33  1  0  0  0  0
 14 15  1  0  0  0  0
 14 16  1  0  0  0  0
 14 34  1  0  0  0  0
 15 35  1  0  0  0  0
 15 36  1  0  0  0  0
 15 37  1  0  0  0  0
 16 17  1  0  0  0  0
 16 38  1  0  0  0  0
 16 39  1  0  0  0  0
 17 40  1  0  0  0  0
 17 41  1  0  0  0  0
 18 19  1  0  0  0  0
M  CHG  1  11   1
M  END
> <s_m_source_file>
AV-unprocessed.smi

> <i_m_source_file_index>
2090

> <i_lp_mmshare_version>
43012

> <i_f3d_flags>
0

> <s_epik_input>
W0NIM11jMVtjSF1jKG5vMSlbTkhdQyg9TylbTkhdW0NIMl1bQ0gyXU4yW0NIMl1bQ0gyXVtDSF0oW0NIM10pW0NIMl1bQ0gyXTI=

> <s_epik_cmdline>
J2VwaWtfcHl0aG9uJywgJy1waCcsICc3LjAnLCAnLXRuJywgJzgnLCAnLW1hJywgJzIwMCcsICctbWV0YWxfYmluZGluZycsICctaW1hZScsICc8aW5maWxlLm1hZT4nLCAnLW9tYWUnLCAnPG91dGZpbGUubWFlPic=

> <r_epik_Ionization_Penalty>
0.00176265

> <r_epik_Ionization_Penalty_Charging>
0.00172695

> <r_epik_Ionization_Penalty_Neutral>
3.56992e-05

> <r_epik_State_Penalty>
0.00116803

> <r_epik_Charging_Adjusted_Penalty>
0.00289498

> <i_epik_Tot_Q>
1

> <i_epik_Tot_abs_Q>
1

> <r_epik_Metal_State_Penalty>
0.0215312

> <b_epik_Metal_Only>
0

> <s_lp_Force_Field>
OPLS_2005

> <r_lp_Energy>
12.7246

> <b_lp_Chiralities_Consistent>
1

> <s_lp_Variant>
AV-unprocessed.smi:2090-1

> <Gold.Version>
5.8.1

> <Gold.Id.Protein>
6NUR|6NUR_protein|mol2

> <Gold.PLP.Fitness>
47.0421

> <Gold.PLP.PLP>
-36.6649

> <Gold.PLP.part.hbond>
-5.2481

> <Gold.PLP.part.metal>
0.0000

> <Gold.PLP.part.buried>
-6.1883

> <Gold.PLP.part.nonpolar>
-26.0563

> <Gold.PLP.part.repulsive>
0.1611

> <Gold.PLP.ligand.clash>
0.0000

> <Gold.PLP.ligand.torsion>
1.0262

> <Gold.PLP.Chemscore.Hbond>
4.1270

> <Gold.PLP.Chemscore.CHOScore>
0.0000

> <Gold.PLP.Chemscore.Metal>
0.0000

> <Gold.Chemscore.Hbonds>
donor molecule, donor type, donor heavy atom, donor atom, acceptor molecule, acceptor atom, score
      L1  H     5    24       P1  7948  1.00
      L1  H     8    25       P1  7948  1.00
      L1  H    11    42       P1 10747  1.00
      P1  H  7997  8010       L1    19  0.44
      P1  H 10752 10765       L1    18  0.64

> <Gold.PLP.Chemscore.Internal.Correction>
0.0487

> <Gold.Rescore>
     Score         DG    S(hbond)    S(metal)    S(lipo)     H(rot)  DE(clash)    DE(int)     intcor
     20.75     -21.65       3.42        0.00      75.09       1.57       0.00       0.91       ----

> <Gold.Chemscore.Fitness>
20.7469

> <Gold.Chemscore.DG>
-21.6541

> <Gold.Chemscore.ZeroCoef>
-5.4800

> <Gold.Chemscore.Hbond>
3.4151

> <Gold.Chemscore.Metal>
0.0000

> <Gold.Chemscore.Lipo>
75.0937

> <Gold.Chemscore.Internal_Hbond>
0.0000

> <Gold.Chemscore.DEClash>
0.0000

> <Gold.Chemscore.DEInternal>
0.9072

> <Gold.Chemscore.Rot>
1.5697

> <Gold.Chemscore.Internal.Correction>
   9.000000E+99

> <Gold.Chemscore.Hbonds>
donor molecule, donor type, donor heavy atom, donor atom, acceptor molecule, acceptor atom, score
      L1  H     5    24       P1  7948  0.25
      L1  H     8    25       P1  7948  0.29
      L1  H    11    42       P1 10747  1.00
      P1  H  7997  8010       L1    19  0.24
      P1  H 10752 10765       L1    18  0.40

> <Gold.Chemscore.Hbond.Weighted>
-11.4066

> <Gold.Chemscore.Metal.Weighted>
-0.0000

> <Gold.Chemscore.Lipo.Weighted>
-8.7860

> <Gold.Chemscore.Internal_Hbond.Weighted>
0.0000

> <Gold.Chemscore.DEClash.Weighted>
0.0000

> <Gold.Chemscore.DEInternal.Weighted>
0.9072

> <Gold.Chemscore.Rot.Weighted>
4.0185

> <Gold.Chemscore.Internal.Correction.Weighted>
   9.000000E+99

> <Gold.Protein.RotatedTorsions>
[ 6907 6896 6895 6894 ] final   43.79 input  -60.11 | X-H torsion
[ 7974 7965 7964 7962 ] final   -5.92 input  175.53 | X-H torsion
[ 8008 7997 7996 7995 ] final   88.29 input   59.86 | X-H torsion
[ 10167 10162 10161 10158 ] final  154.22 input  -65.29 | X-H torsion
[ 10718 10713 10712 10709 ] final  -72.04 input   66.30 | X-H torsion
[ 10763 10752 10751 10750 ] final  175.66 input  -60.55 | X-H torsion
[ 11005 11000 10999 10996 ] final -149.86 input  -57.11 | X-H torsion

> <Gold.Protein.ActiveResidues>
 VAL166  LYS551  ARG553  GLY616  TRP617  ASP618  TYR619  PRO620  LYS621  CYS622 
 ASP623  PHE694  ASN695  SER759  ASP760  ASP761  ALA762  ILE779  LEU786  VAL792 
 PHE793  MET794  SER795  GLU796  ALA797  LYS798  CYS799  TRP800  GLU811  SER814 

> <Gold.Protein.RotatedAtoms>
  152.2246  134.8381  160.0481 H   0  0  0  0  0  0  0  0  0  0  0  0  # atno 6907 bound_to 6896
  151.9152  133.3566  159.3885 H   0  0  0  0  0  0  0  0  0  0  0  0  # atno 6908 bound_to 6896
  150.7009  134.4617  159.5428 H   0  0  0  0  0  0  0  0  0  0  0  0  # atno 6909 bound_to 6896
  146.2342  140.2093  142.8335 H   0  0  0  0  0  0  0  0  0  0  0  0  # atno 7974 bound_to 7965
  155.9859  140.3373  155.6707 H   0  0  0  0  0  0  0  0  0  0  0  0  # atno 8008 bound_to 7997
  155.6486  140.0703  157.2612 H   0  0  0  0  0  0  0  0  0  0  0  0  # atno 8009 bound_to 7997
  154.4205  140.1730  156.1637 H   0  0  0  0  0  0  0  0  0  0  0  0  # atno 8010 bound_to 7997
  139.4824  144.5205  151.7883 H   0  0  0  0  0  0  0  0  0  0  0  0  # atno 10167 bound_to 10162
  156.0337  130.4364  150.2533 H   0  0  0  0  0  0  0  0  0  0  0  0  # atno 10718 bound_to 10713
  154.4706  135.2771  155.1645 H   0  0  0  0  0  0  0  0  0  0  0  0  # atno 10763 bound_to 10752
  154.3396  135.6173  153.5593 H   0  0  0  0  0  0  0  0  0  0  0  0  # atno 10764 bound_to 10752
  152.9864  135.5785  154.5087 H   0  0  0  0  0  0  0  0  0  0  0  0  # atno 10765 bound_to 10752
  140.7463  134.3457  157.5136 H   0  0  0  0  0  0  0  0  0  0  0  0  # atno 11005 bound_to 11000
  144.9719  140.8377  143.5450 LP  0  0  0  0  0  0  0  0  0  0  0  0  # atno 17320 bound_to 7965
  145.2075  139.2221  143.5160 LP  0  0  0  0  0  0  0  0  0  0  0  0  # atno 17321 bound_to 7965
  140.4719  144.1574  150.5919 LP  0  0  0  0  0  0  0  0  0  0  0  0  # atno 17342 bound_to 10162
  140.4373  143.2542  151.9519 LP  0  0  0  0  0  0  0  0  0  0  0  0  # atno 17343 bound_to 10162
  157.0634  131.0096  151.3215 LP  0  0  0  0  0  0  0  0  0  0  0  0  # atno 17370 bound_to 10713
  157.5053  130.7905  149.7647 LP  0  0  0  0  0  0  0  0  0  0  0  0  # atno 17371 bound_to 10713
  139.8796  134.9113  156.3034 LP  0  0  0  0  0  0  0  0  0  0  0  0  # atno 17394 bound_to 11000
  140.9791  133.7279  156.0646 LP  0  0  0  0  0  0  0  0  0  0  0  0  # atno 17395 bound_to 11000

$$$$
