AV-unprocessed.smi:1603|AV-procd|sdf|6444|dock1
  -GOLD-   22720 7 93D 1   1.00000     0.00000
 Structure written by MMmdl.
 45 47  0  0  0  0  0  0  0  0  2 V2000
  151.9644  139.1229  157.0591 O   0  0  0  0  0  0  0  0  0  0  0  0
  152.1294  140.0661  157.8332 C   0  0  0  0  0  0  0  0  0  0  0  0
  152.8567  139.9547  159.1067 C   0  0  0  0  0  0  0  0  0  0  0  0
  153.4073  138.5863  159.4994 C   0  0  0  0  0  0  0  0  0  0  0  0
  154.0495  138.6296  160.6676 F   0  0  0  0  0  0  0  0  0  0  0  0
  152.4211  137.6956  159.6098 F   0  0  0  0  0  0  0  0  0  0  0  0
  154.2646  138.1470  158.5777 F   0  0  0  0  0  0  0  0  0  0  0  0
  153.0152  141.0452  159.8958 C   0  0  0  0  0  0  0  0  0  0  0  0
  152.4724  142.3265  159.4915 C   0  0  0  0  0  0  0  0  0  0  0  0
  152.6169  143.5748  160.3141 C   0  0  0  0  0  0  0  0  0  0  0  0
  152.0749  143.6792  161.7214 C   0  0  0  0  0  0  0  0  0  0  0  0
  151.4396  144.4757  160.6051 C   0  0  0  0  0  0  0  0  0  0  0  0
  151.8311  142.4205  158.3754 N   0  0  0  0  0  0  0  0  0  0  0  0
  151.6519  141.3168  157.5646 N   0  0  0  0  0  0  0  0  0  0  0  0
  150.9051  141.5975  156.3320 C   0  0  0  0  0  0  0  0  0  0  0  0
  149.3796  141.4766  156.5441 C   0  0  1  0  0  0  0  0  0  0  0  0
  148.9250  142.6348  157.2177 O   0  0  0  0  0  0  0  0  0  0  0  0
  148.6232  141.4083  155.2013 C   0  0  0  0  0  0  0  0  0  0  0  0
  147.3831  142.2262  155.1980 N   0  3  0  0  0  0  0  0  0  0  0  0
  146.8603  142.4570  153.8301 C   0  0  0  0  0  0  0  0  0  0  0  0
  145.6154  143.3589  153.8743 C   0  0  0  0  0  0  0  0  0  0  0  0
  144.6286  142.7685  154.7109 O   0  0  0  0  0  0  0  0  0  0  0  0
  145.0857  142.6213  156.0495 C   0  0  0  0  0  0  0  0  0  0  0  0
  146.3127  141.6942  156.0778 C   0  0  0  0  0  0  0  0  0  0  0  0
  153.5459  140.9833  160.8340 H   0  0  0  0  0  0  0  0  0  0  0  0
  153.5738  144.0556  160.1192 H   0  0  0  0  0  0  0  0  0  0  0  0
  151.5051  142.8420  162.1202 H   0  0  0  0  0  0  0  0  0  0  0  0
  152.6726  144.2240  162.4491 H   0  0  0  0  0  0  0  0  0  0  0  0
  151.6147  145.5495  160.5906 H   0  0  0  0  0  0  0  0  0  0  0  0
  150.4563  144.1591  160.2619 H   0  0  0  0  0  0  0  0  0  0  0  0
  151.1727  142.5658  155.9041 H   0  0  0  0  0  0  0  0  0  0  0  0
  151.2222  140.8714  155.5808 H   0  0  0  0  0  0  0  0  0  0  0  0
  149.1617  140.5962  157.1484 H   0  0  0  0  0  0  0  0  0  0  0  0
  148.6120  143.2544  156.5748 H   0  0  0  0  0  0  0  0  0  0  0  0
  149.2913  141.7528  154.4097 H   0  0  0  0  0  0  0  0  0  0  0  0
  148.3679  140.3764  154.9551 H   0  0  0  0  0  0  0  0  0  0  0  0
  147.6282  142.9250  153.2131 H   0  0  0  0  0  0  0  0  0  0  0  0
  146.6134  141.5009  153.3657 H   0  0  0  0  0  0  0  0  0  0  0  0
  145.8684  144.3566  154.2373 H   0  0  0  0  0  0  0  0  0  0  0  0
  145.2030  143.4797  152.8724 H   0  0  0  0  0  0  0  0  0  0  0  0
  145.3245  143.5973  156.4754 H   0  0  0  0  0  0  0  0  0  0  0  0
  144.2820  142.1992  156.6529 H   0  0  0  0  0  0  0  0  0  0  0  0
  146.0292  140.6938  155.7470 H   0  0  0  0  0  0  0  0  0  0  0  0
  146.6677  141.6023  157.1034 H   0  0  0  0  0  0  0  0  0  0  0  0
  147.6422  143.1340  155.5584 H   0  0  0  0  0  0  0  0  0  0  0  0
  1  2  2  0  0  0  0
  2 14  1  0  0  0  0
  2  3  1  0  0  0  0
  3  4  1  0  0  0  0
  3  8  2  0  0  0  0
  4  5  1  0  0  0  0
  4  6  1  0  0  0  0
  4  7  1  0  0  0  0
  8  9  1  0  0  0  0
  8 25  1  0  0  0  0
  9 10  1  0  0  0  0
  9 13  2  0  0  0  0
 10 12  1  0  0  0  0
 10 11  1  0  0  0  0
 10 26  1  0  0  0  0
 11 12  1  0  0  0  0
 11 27  1  0  0  0  0
 11 28  1  0  0  0  0
 12 29  1  0  0  0  0
 12 30  1  0  0  0  0
 13 14  1  0  0  0  0
 14 15  1  0  0  0  0
 15 16  1  0  0  0  0
 15 31  1  0  0  0  0
 15 32  1  0  0  0  0
 16 17  1  0  0  0  0
 16 18  1  0  0  0  0
 16 33  1  0  0  0  0
 17 34  1  0  0  0  0
 18 19  1  0  0  0  0
 18 35  1  0  0  0  0
 18 36  1  0  0  0  0
 19 24  1  0  0  0  0
 19 20  1  0  0  0  0
 19 45  1  0  0  0  0
 20 21  1  0  0  0  0
 20 37  1  0  0  0  0
 20 38  1  0  0  0  0
 21 22  1  0  0  0  0
 21 39  1  0  0  0  0
 21 40  1  0  0  0  0
 22 23  1  0  0  0  0
 23 24  1  0  0  0  0
 23 41  1  0  0  0  0
 23 42  1  0  0  0  0
 24 43  1  0  0  0  0
 24 44  1  0  0  0  0
M  CHG  1  19   1
M  END
> <s_m_source_file>
AV-unprocessed.smi

> <i_m_source_file_index>
1603

> <i_lp_mmshare_version>
43012

> <i_f3d_flags>
0

> <s_epik_input>
Tz1jMWMoQyhGKShGKUYpW2NIXWMoW0NIXTJbQ0gyXVtDSDJdMilubjFbQ0gyXVtDQEhdKFtPSF0pW0NIMl1OM1tDSDJdW0NIMl1PW0NIMl1bQ0gyXTM=

> <s_epik_cmdline>
J2VwaWtfcHl0aG9uJywgJy1waCcsICc3LjAnLCAnLXRuJywgJzgnLCAnLW1hJywgJzIwMCcsICctbWV0YWxfYmluZGluZycsICctaW1hZScsICc8aW5maWxlLm1hZT4nLCAnLW9tYWUnLCAnPG91dGZpbGUubWFlPic=

> <r_lp_tautomer_probability>
1

> <r_epik_Ionization_Penalty>
0.373533

> <r_epik_Ionization_Penalty_Charging>
0.373533

> <r_epik_Ionization_Penalty_Neutral>
6.58334e-07

> <r_epik_State_Penalty>
0.37113

> <r_epik_Charging_Adjusted_Penalty>
0.744662

> <i_epik_Tot_Q>
1

> <i_epik_Tot_abs_Q>
1

> <r_epik_Metal_State_Penalty>
0.37113

> <b_epik_Metal_Only>
0

> <s_lp_Force_Field>
OPLS_2005

> <r_lp_Energy>
42.0637

> <b_lp_Chiralities_Consistent>
1

> <s_lp_Variant>
AV-unprocessed.smi:1603-2

> <Gold.Version>
5.8.1

> <Gold.Id.Protein>
6NUR|6NUR_protein|mol2

> <Gold.PLP.Fitness>
54.2210

> <Gold.PLP.PLP>
-47.5126

> <Gold.PLP.part.hbond>
-1.9527

> <Gold.PLP.part.metal>
0.0000

> <Gold.PLP.part.buried>
-8.0079

> <Gold.PLP.part.nonpolar>
-37.7709

> <Gold.PLP.part.repulsive>
0.2997

> <Gold.PLP.ligand.clash>
0.4094

> <Gold.PLP.ligand.torsion>
1.2812

> <Gold.PLP.Chemscore.Hbond>
3.0000

> <Gold.PLP.Chemscore.CHOScore>
0.0000

> <Gold.PLP.Chemscore.Metal>
0.0000

> <Gold.Chemscore.Hbonds>
donor molecule, donor type, donor heavy atom, donor atom, acceptor molecule, acceptor atom, score
      L1  H    17    34       P1  8028  0.98
      L1  H    19    45       P1  8028  2.00

> <Gold.PLP.Chemscore.Internal.Correction>
0.6801

> <Gold.Rescore>
     Score         DG    S(hbond)    S(metal)    S(lipo)     H(rot)  DE(clash)    DE(int)     intcor
     13.33     -17.84       1.81        0.00     108.93       2.52       0.20       4.32       ----

> <Gold.Chemscore.Fitness>
13.3283

> <Gold.Chemscore.DG>
-17.8444

> <Gold.Chemscore.ZeroCoef>
-5.4800

> <Gold.Chemscore.Hbond>
1.8147

> <Gold.Chemscore.Metal>
0.0000

> <Gold.Chemscore.Lipo>
108.9267

> <Gold.Chemscore.Internal_Hbond>
0.0000

> <Gold.Chemscore.DEClash>
0.1976

> <Gold.Chemscore.DEInternal>
4.3184

> <Gold.Chemscore.Rot>
2.5160

> <Gold.Chemscore.Internal.Correction>
   9.000000E+99

> <Gold.Chemscore.Hbonds>
donor molecule, donor type, donor heavy atom, donor atom, acceptor molecule, acceptor atom, score
      L1  H    17    34       P1  8028  0.69
      L1  H    19    45       P1  8028  0.28

> <Gold.Chemscore.Hbond.Weighted>
-6.0610

> <Gold.Chemscore.Metal.Weighted>
-0.0000

> <Gold.Chemscore.Lipo.Weighted>
-12.7444

> <Gold.Chemscore.Internal_Hbond.Weighted>
0.0000

> <Gold.Chemscore.DEClash.Weighted>
0.1976

> <Gold.Chemscore.DEInternal.Weighted>
4.3184

> <Gold.Chemscore.Rot.Weighted>
6.4411

> <Gold.Chemscore.Internal.Correction.Weighted>
   9.000000E+99

> <Gold.Protein.RotatedTorsions>
[ 6907 6896 6895 6894 ] final -136.84 input  -60.11 | X-H torsion
[ 7974 7965 7964 7962 ] final  -28.00 input  175.53 | X-H torsion
[ 8008 7997 7996 7995 ] final  -46.62 input   59.86 | X-H torsion
[ 10167 10162 10161 10158 ] final  104.25 input  -65.29 | X-H torsion
[ 10718 10713 10712 10709 ] final  -96.24 input   66.30 | X-H torsion
[ 10763 10752 10751 10750 ] final -133.44 input  -60.55 | X-H torsion
[ 11005 11000 10999 10996 ] final -128.31 input  -57.11 | X-H torsion

> <Gold.Protein.ActiveResidues>
 VAL166  LYS551  ARG553  GLY616  TRP617  ASP618  TYR619  PRO620  LYS621  CYS622 
 ASP623  PHE694  ASN695  SER759  ASP760  ASP761  ALA762  ILE779  LEU786  VAL792 
 PHE793  MET794  SER795  GLU796  ALA797  LYS798  CYS799  TRP800  GLU811  SER814 

> <Gold.Protein.RotatedAtoms>
  151.0151  133.5929  159.2677 H   0  0  0  0  0  0  0  0  0  0  0  0  # atno 6907 bound_to 6896
  151.3066  135.0782  159.9267 H   0  0  0  0  0  0  0  0  0  0  0  0  # atno 6908 bound_to 6896
  152.5309  133.9823  159.7866 H   0  0  0  0  0  0  0  0  0  0  0  0  # atno 6909 bound_to 6896
  146.1319  140.5225  142.8690 H   0  0  0  0  0  0  0  0  0  0  0  0  # atno 7974 bound_to 7965
  154.4009  140.1367  156.4041 H   0  0  0  0  0  0  0  0  0  0  0  0  # atno 8008 bound_to 7997
  155.7796  140.3482  155.5270 H   0  0  0  0  0  0  0  0  0  0  0  0  # atno 8009 bound_to 7997
  155.8687  140.0968  157.1555 H   0  0  0  0  0  0  0  0  0  0  0  0  # atno 8010 bound_to 7997
  139.7193  144.7061  151.0898 H   0  0  0  0  0  0  0  0  0  0  0  0  # atno 10167 bound_to 10162
  156.0058  130.5143  150.6197 H   0  0  0  0  0  0  0  0  0  0  0  0  # atno 10718 bound_to 10713
  154.8732  135.3766  154.4572 H   0  0  0  0  0  0  0  0  0  0  0  0  # atno 10763 bound_to 10752
  153.5244  135.7028  153.5720 H   0  0  0  0  0  0  0  0  0  0  0  0  # atno 10764 bound_to 10752
  153.3953  135.3962  155.1916 H   0  0  0  0  0  0  0  0  0  0  0  0  # atno 10765 bound_to 10752
  140.9527  134.1044  157.4047 H   0  0  0  0  0  0  0  0  0  0  0  0  # atno 11005 bound_to 11000
  144.7699  140.5614  143.6677 LP  0  0  0  0  0  0  0  0  0  0  0  0  # atno 17320 bound_to 7965
  145.5242  139.1476  143.3535 LP  0  0  0  0  0  0  0  0  0  0  0  0  # atno 17321 bound_to 7965
  140.7750  143.5187  150.9563 LP  0  0  0  0  0  0  0  0  0  0  0  0  # atno 17342 bound_to 10162
  139.8874  143.6996  152.3149 LP  0  0  0  0  0  0  0  0  0  0  0  0  # atno 17343 bound_to 10162
  157.4014  131.0810  151.1305 LP  0  0  0  0  0  0  0  0  0  0  0  0  # atno 17370 bound_to 10713
  157.1965  130.6375  149.5723 LP  0  0  0  0  0  0  0  0  0  0  0  0  # atno 17371 bound_to 10713
  139.8852  135.0070  156.6421 LP  0  0  0  0  0  0  0  0  0  0  0  0  # atno 17394 bound_to 11000
  140.7580  133.8841  155.8397 LP  0  0  0  0  0  0  0  0  0  0  0  0  # atno 17395 bound_to 11000

$$$$
