AV-unprocessed.smi:290|AV-procd|sdf|2230|dock6
  -GOLD-   2262022 93D 1   1.00000     0.00000
 Structure written by MMmdl.
 59 62  0  0  0  0  0  0  0  0  2 V2000
  150.8949  140.5170  157.4178 C   0  0  0  0  0  0  0  0  0  0  0  0
  151.2074  140.4920  155.9137 C   0  0  1  0  0  0  0  0  0  0  0  0
  152.4668  139.8277  155.7989 O   0  0  0  0  0  0  0  0  0  0  0  0
  152.4640  138.9678  154.6730 C   0  0  0  0  0  0  0  0  0  0  0  0
  151.0304  138.4618  154.6367 C   0  0  0  0  0  0  0  0  0  0  0  0
  150.2259  139.7053  154.9948 C   0  0  2  0  0  0  0  0  0  0  0  0
  150.0615  140.4470  153.7978 O   0  0  0  0  0  0  0  0  0  0  0  0
  148.8147  139.3459  155.5404 C   0  0  0  0  0  0  0  0  0  0  0  0
  148.2953  138.0353  155.1605 N   0  0  0  0  0  0  0  0  0  0  0  0
  148.5829  136.8123  155.7286 C   0  0  0  0  0  0  0  0  0  0  0  0
  147.9576  135.7924  155.2077 N   0  0  0  0  0  0  0  0  0  0  0  0
  147.1545  136.3511  154.2218 C   0  0  0  0  0  0  0  0  0  0  0  0
  146.2190  135.8225  153.2859 C   0  0  0  0  0  0  0  0  0  0  0  0
  145.9484  134.4942  153.1810 N   0  0  0  0  0  0  0  0  0  0  0  0
  146.9667  133.5727  153.6811 C   0  0  0  0  0  0  0  0  0  0  0  0
  146.9614  132.3632  152.7404 C   0  0  0  0  0  0  0  0  0  0  0  0
  145.5655  132.4253  152.1113 C   0  0  2  0  0  0  0  0  0  0  0  0
  145.3882  131.6623  150.8423 N   0  3  2  0  0  0  0  0  0  0  0  0
  146.3571  132.0831  149.8027 C   0  0  0  0  0  0  0  0  0  0  0  0
  143.9937  131.5828  150.3268 C   0  0  0  0  0  0  0  0  0  0  0  0
  143.7156  132.6572  149.2633 C   0  0  0  0  0  0  0  0  0  0  0  0
  142.5575  132.3211  148.5279 O   0  0  0  0  0  0  0  0  0  0  0  0
  145.3082  133.9339  151.9909 C   0  0  1  0  0  0  0  0  0  0  0  0
  143.8112  134.2813  151.9040 C   0  0  0  0  0  0  0  0  0  0  0  0
  145.5871  136.7087  152.4713 N   0  0  0  0  0  0  0  0  0  0  0  0
  145.8504  138.0154  152.5572 C   0  0  0  0  0  0  0  0  0  0  0  0
  146.6997  138.6423  153.3720 N   0  0  0  0  0  0  0  0  0  0  0  0
  147.3386  137.7625  154.1954 C   0  0  0  0  0  0  0  0  0  0  0  0
  144.8556  132.0357  152.8443 H   0  0  0  0  0  0  0  0  0  0  0  0
  145.8154  134.3323  151.1132 H   0  0  0  0  0  0  0  0  0  0  0  0
  150.0431  141.1560  157.6407 H   0  0  0  0  0  0  0  0  0  0  0  0
  151.7390  140.9205  157.9773 H   0  0  0  0  0  0  0  0  0  0  0  0
  150.6924  139.5179  157.8042 H   0  0  0  0  0  0  0  0  0  0  0  0
  151.3254  141.5197  155.5649 H   0  0  0  0  0  0  0  0  0  0  0  0
  152.7037  139.5386  153.7747 H   0  0  0  0  0  0  0  0  0  0  0  0
  153.1942  138.1651  154.7779 H   0  0  0  0  0  0  0  0  0  0  0  0
  150.7565  138.0195  153.6777 H   0  0  0  0  0  0  0  0  0  0  0  0
  150.9048  137.6958  155.4034 H   0  0  0  0  0  0  0  0  0  0  0  0
  149.5576  139.9277  153.1898 H   0  0  0  0  0  0  0  0  0  0  0  0
  148.8168  139.3952  156.6301 H   0  0  0  0  0  0  0  0  0  0  0  0
  148.0995  140.1025  155.2166 H   0  0  0  0  0  0  0  0  0  0  0  0
  149.2725  136.6868  156.5494 H   0  0  0  0  0  0  0  0  0  0  0  0
  147.9572  134.0286  153.7256 H   0  0  0  0  0  0  0  0  0  0  0  0
  146.6915  133.2683  154.6915 H   0  0  0  0  0  0  0  0  0  0  0  0
  147.7463  132.4952  151.9959 H   0  0  0  0  0  0  0  0  0  0  0  0
  147.1516  131.4256  153.2634 H   0  0  0  0  0  0  0  0  0  0  0  0
  146.1771  133.1138  149.4943 H   0  0  0  0  0  0  0  0  0  0  0  0
  146.2914  131.4491  148.9191 H   0  0  0  0  0  0  0  0  0  0  0  0
  147.3798  132.0130  150.1745 H   0  0  0  0  0  0  0  0  0  0  0  0
  143.7810  130.6091  149.8880 H   0  0  0  0  0  0  0  0  0  0  0  0
  143.2948  131.6901  151.1577 H   0  0  0  0  0  0  0  0  0  0  0  0
  143.5478  133.6223  149.7424 H   0  0  0  0  0  0  0  0  0  0  0  0
  144.5573  132.7835  148.5828 H   0  0  0  0  0  0  0  0  0  0  0  0
  141.9232  133.0157  148.6248 H   0  0  0  0  0  0  0  0  0  0  0  0
  143.3547  133.8173  151.0294 H   0  0  0  0  0  0  0  0  0  0  0  0
  143.6492  135.3557  151.8219 H   0  0  0  0  0  0  0  0  0  0  0  0
  143.2714  133.9330  152.7851 H   0  0  0  0  0  0  0  0  0  0  0  0
  145.3049  138.6492  151.8734 H   0  0  0  0  0  0  0  0  0  0  0  0
  145.6392  130.7124  151.0789 H   0  0  0  0  0  0  0  0  0  0  0  0
  1  2  1  0  0  0  0
  1 31  1  0  0  0  0
  1 32  1  0  0  0  0
  1 33  1  0  0  0  0
  2  6  1  0  0  0  0
  2  3  1  0  0  0  0
  2 34  1  0  0  0  0
  3  4  1  0  0  0  0
  4  5  1  0  0  0  0
  4 35  1  0  0  0  0
  4 36  1  0  0  0  0
  5  6  1  0  0  0  0
  5 37  1  0  0  0  0
  5 38  1  0  0  0  0
  6  7  1  0  0  0  0
  6  8  1  0  0  0  0
  7 39  1  0  0  0  0
  8  9  1  0  0  0  0
  8 40  1  0  0  0  0
  8 41  1  0  0  0  0
  9 28  1  0  0  0  0
  9 10  1  0  0  0  0
 10 11  2  0  0  0  0
 10 42  1  0  0  0  0
 11 12  1  0  0  0  0
 12 28  2  0  0  0  0
 12 13  1  0  0  0  0
 13 14  1  0  0  0  0
 13 25  2  0  0  0  0
 14 23  1  0  0  0  0
 14 15  1  0  0  0  0
 15 16  1  0  0  0  0
 15 43  1  0  0  0  0
 15 44  1  0  0  0  0
 16 17  1  0  0  0  0
 16 45  1  0  0  0  0
 16 46  1  0  0  0  0
 17 29  1  0  0  0  0
 17 18  1  0  0  0  0
 17 23  1  0  0  0  0
 18 19  1  0  0  0  0
 18 20  1  0  0  0  0
 18 59  1  0  0  0  0
 19 47  1  0  0  0  0
 19 48  1  0  0  0  0
 19 49  1  0  0  0  0
 20 21  1  0  0  0  0
 20 50  1  0  0  0  0
 20 51  1  0  0  0  0
 21 22  1  0  0  0  0
 21 52  1  0  0  0  0
 21 53  1  0  0  0  0
 22 54  1  0  0  0  0
 23 30  1  0  0  0  0
 23 24  1  0  0  0  0
 24 55  1  0  0  0  0
 24 56  1  0  0  0  0
 24 57  1  0  0  0  0
 25 26  1  0  0  0  0
 26 27  2  0  0  0  0
 26 58  1  0  0  0  0
 27 28  1  0  0  0  0
M  CHG  1  18   1
M  END
> <s_m_source_file>
AV-unprocessed.smi

> <i_m_source_file_index>
290

> <i_lp_mmshare_version>
43012

> <i_f3d_flags>
0

> <s_epik_input>
W0NIMl0xW0NIMl1PW0NAQEhdKFtDSDNdKVtDQEBdMShbT0hdKVtDSDJdbihbY0hdbjIpYyhjMjMpbltjSF1uYzNONFtDSDJdW0NIMl1bQ0BIXShbQ0BIXTRbQ0gzXSlOKFtDSDNdKVtDSDJdW0NIMl1bT0hd

> <s_epik_cmdline>
J2VwaWtfcHl0aG9uJywgJy1waCcsICc3LjAnLCAnLXRuJywgJzgnLCAnLW1hJywgJzIwMCcsICctbWV0YWxfYmluZGluZycsICctaW1hZScsICc8aW5maWxlLm1hZT4nLCAnLW9tYWUnLCAnPG91dGZpbGUubWFlPic=

> <r_lp_tautomer_probability>
1

> <r_epik_Ionization_Penalty>
0.0036983

> <r_epik_Ionization_Penalty_Charging>
0.0032725

> <r_epik_Ionization_Penalty_Neutral>
0.000425798

> <r_epik_State_Penalty>
-0

> <r_epik_Charging_Adjusted_Penalty>
0.0032725

> <i_epik_Tot_Q>
1

> <i_epik_Tot_abs_Q>
1

> <r_epik_Metal_State_Penalty>
-0

> <b_epik_Metal_Only>
0

> <s_lp_Force_Field>
OPLS_2005

> <r_lp_Energy>
62.8721

> <b_lp_Chiralities_Consistent>
1

> <s_lp_Variant>
AV-unprocessed.smi:290-16

> <Gold.Version>
5.8.1

> <Gold.Id.Protein>
6NUR|6NUR_protein|mol2

> <Gold.PLP.Fitness>
52.2422

> <Gold.PLP.PLP>
-39.8758

> <Gold.PLP.part.hbond>
-5.7717

> <Gold.PLP.part.metal>
0.0000

> <Gold.PLP.part.buried>
1.1654

> <Gold.PLP.part.nonpolar>
-34.2507

> <Gold.PLP.part.repulsive>
0.6502

> <Gold.PLP.ligand.clash>
0.0000

> <Gold.PLP.ligand.torsion>
2.0850

> <Gold.PLP.Chemscore.Hbond>
3.3709

> <Gold.PLP.Chemscore.CHOScore>
1.9555

> <Gold.PLP.Chemscore.Metal>
0.0000

> <Gold.Chemscore.Hbonds>
donor molecule, donor type, donor heavy atom, donor atom, acceptor molecule, acceptor atom, score
      L1  H     7    39       P1  7957  0.52
      L1  H    22    54       P1 10186  1.00
      P1  H  7989  7998       L1     7  0.67
      P1  H  7997  8009       L1     3  1.00
      P1  H 10785 10796       L1    22  0.16
      L1  C    26    58       P1 10171  1.00
      L1  C    26    58       P1 10175  0.96

> <Gold.PLP.Chemscore.Internal.Correction>
0.5574

> <Gold.Rescore>
     Score         DG    S(hbond)    S(metal)    S(lipo)     H(rot)  DE(clash)    DE(int)     intcor
     12.70     -17.27       2.99        0.00      95.68       3.67       0.38       4.19       ----

> <Gold.Chemscore.Fitness>
12.6971

> <Gold.Chemscore.DG>
-17.2722

> <Gold.Chemscore.ZeroCoef>
-5.4800

> <Gold.Chemscore.Hbond>
2.9888

> <Gold.Chemscore.Metal>
0.0000

> <Gold.Chemscore.Lipo>
95.6762

> <Gold.Chemscore.Internal_Hbond>
0.0000

> <Gold.Chemscore.DEClash>
0.3815

> <Gold.Chemscore.DEInternal>
4.1937

> <Gold.Chemscore.Rot>
3.6658

> <Gold.Chemscore.Internal.Correction>
   9.000000E+99

> <Gold.Chemscore.Hbonds>
donor molecule, donor type, donor heavy atom, donor atom, acceptor molecule, acceptor atom, score
      L1  H     7    39       P1  7957  0.50
      L1  H    22    54       P1 10186  0.99
      P1  H  7989  7998       L1     7  0.23
      P1  H  7997  8009       L1     3  0.29

> <Gold.Chemscore.Hbond.Weighted>
-9.9825

> <Gold.Chemscore.Metal.Weighted>
-0.0000

> <Gold.Chemscore.Lipo.Weighted>
-11.1941

> <Gold.Chemscore.Internal_Hbond.Weighted>
0.0000

> <Gold.Chemscore.DEClash.Weighted>
0.3815

> <Gold.Chemscore.DEInternal.Weighted>
4.1937

> <Gold.Chemscore.Rot.Weighted>
9.3844

> <Gold.Chemscore.Internal.Correction.Weighted>
   9.000000E+99

> <Gold.Protein.RotatedTorsions>
[ 6907 6896 6895 6894 ] final  103.24 input  -60.11 | X-H torsion
[ 7974 7965 7964 7962 ] final   -1.74 input  175.53 | X-H torsion
[ 8008 7997 7996 7995 ] final -141.67 input   59.86 | X-H torsion
[ 10167 10162 10161 10158 ] final   94.10 input  -65.29 | X-H torsion
[ 10718 10713 10712 10709 ] final  151.37 input   66.30 | X-H torsion
[ 10763 10752 10751 10750 ] final   18.11 input  -60.55 | X-H torsion
[ 11005 11000 10999 10996 ] final   25.89 input  -57.11 | X-H torsion

> <Gold.Protein.ActiveResidues>
 VAL166  LYS551  ARG553  GLY616  TRP617  ASP618  TYR619  PRO620  LYS621  CYS622 
 ASP623  PHE694  ASN695  SER759  ASP760  ASP761  ALA762  ILE779  LEU786  VAL792 
 PHE793  MET794  SER795  GLU796  ALA797  LYS798  CYS799  TRP800  GLU811  SER814 

> <Gold.Protein.RotatedAtoms>
  152.5301  133.9855  159.7826 H   0  0  0  0  0  0  0  0  0  0  0  0  # atno 6907 bound_to 6896
  151.0101  133.5965  159.2691 H   0  0  0  0  0  0  0  0  0  0  0  0  # atno 6908 bound_to 6896
  151.3043  135.0784  159.9303 H   0  0  0  0  0  0  0  0  0  0  0  0  # atno 6909 bound_to 6896
  146.2413  140.1466  142.8334 H   0  0  0  0  0  0  0  0  0  0  0  0  # atno 7974 bound_to 7965
  155.4817  140.0561  157.2966 H   0  0  0  0  0  0  0  0  0  0  0  0  # atno 8008 bound_to 7997
  154.4658  140.2017  156.0075 H   0  0  0  0  0  0  0  0  0  0  0  0  # atno 8009 bound_to 7997
  156.0971  140.3225  155.7897 H   0  0  0  0  0  0  0  0  0  0  0  0  # atno 8010 bound_to 7997
  139.8116  144.6771  150.9633 H   0  0  0  0  0  0  0  0  0  0  0  0  # atno 10167 bound_to 10162
  157.2716  131.0818  151.1595 H   0  0  0  0  0  0  0  0  0  0  0  0  # atno 10718 bound_to 10713
  153.1279  135.6733  153.9227 H   0  0  0  0  0  0  0  0  0  0  0  0  # atno 10763 bound_to 10752
  153.8723  135.3068  155.3443 H   0  0  0  0  0  0  0  0  0  0  0  0  # atno 10764 bound_to 10752
  154.7681  135.4954  153.9675 H   0  0  0  0  0  0  0  0  0  0  0  0  # atno 10765 bound_to 10752
  140.3430  134.2312  155.7688 H   0  0  0  0  0  0  0  0  0  0  0  0  # atno 11005 bound_to 11000
  145.0202  140.8787  143.5171 LP  0  0  0  0  0  0  0  0  0  0  0  0  # atno 17320 bound_to 7965
  145.1513  139.2512  143.5439 LP  0  0  0  0  0  0  0  0  0  0  0  0  # atno 17321 bound_to 7965
  140.7817  143.4180  151.0887 LP  0  0  0  0  0  0  0  0  0  0  0  0  # atno 17342 bound_to 10162
  139.7846  143.8306  152.3143 LP  0  0  0  0  0  0  0  0  0  0  0  0  # atno 17343 bound_to 10162
  157.3065  130.6868  149.6192 LP  0  0  0  0  0  0  0  0  0  0  0  0  # atno 17370 bound_to 10713
  155.9663  130.4376  150.5184 LP  0  0  0  0  0  0  0  0  0  0  0  0  # atno 17371 bound_to 10713
  141.2033  133.7915  157.0345 LP  0  0  0  0  0  0  0  0  0  0  0  0  # atno 17394 bound_to 11000
  140.0765  134.9672  157.1555 LP  0  0  0  0  0  0  0  0  0  0  0  0  # atno 17395 bound_to 11000

$$$$
