AV-unprocessed.smi:2061|AV-procd|sdf|8383|dock5
  -GOLD-   2272011 63D 1   1.00000     0.00000
 Structure written by MMmdl.
 45 46  0  0  0  0  0  0  0  0  3 V2000
  149.4092  140.8120  154.9303 C   0  0  0  0  0  0  0  0  0  0  0  0
  150.1462  139.5198  154.8405 C   0  0  0  0  0  0  0  0  0  0  0  0
  149.7789  138.2230  155.0633 C   0  0  0  0  0  0  0  0  0  0  0  0
  150.9722  137.4973  154.7969 C   0  0  0  0  0  0  0  0  0  0  0  0
  151.1174  136.1649  154.8658 N   0  5  0  0  0  0  0  0  0  0  0  0
  150.0612  135.3796  155.1757 C   0  0  0  0  0  0  0  0  0  0  0  0
  149.9079  134.7332  156.2148 O   0  0  0  0  0  0  0  0  0  0  0  0
  149.1180  135.3451  154.2237 N   0  0  0  0  0  0  0  0  0  0  0  0
  147.8660  134.5986  154.2961 C   0  0  0  0  0  0  0  0  0  0  0  0
  147.6937  133.5938  153.1277 C   0  0  1  0  0  0  0  0  0  0  0  0
  148.0867  132.1686  153.5863 C   0  0  0  0  0  0  0  0  0  0  0  0
  146.3034  133.6920  152.5767 N   0  3  1  0  0  0  0  0  0  0  0  0
  145.9403  135.0878  152.2119 C   0  0  0  0  0  0  0  0  0  0  0  0
  144.4683  135.1978  151.7734 C   0  0  2  0  0  0  0  0  0  0  0  0
  143.4672  135.0723  152.9359 C   0  0  0  0  0  0  0  0  0  0  0  0
  144.2028  134.2734  150.7210 O   0  0  0  0  0  0  0  0  0  0  0  0
  144.5023  132.9176  151.0346 C   0  0  1  0  0  0  0  0  0  0  0  0
  144.1684  132.0676  149.8035 C   0  0  0  0  0  0  0  0  0  0  0  0
  145.9821  132.7867  151.4411 C   0  0  0  0  0  0  0  0  0  0  0  0
  151.9705  138.2830  154.4295 N   0  0  0  0  0  0  0  0  0  0  0  0
  151.4504  139.5824  154.4602 O   0  0  0  0  0  0  0  0  0  0  0  0
  149.0433  141.1156  153.9494 H   0  0  0  0  0  0  0  0  0  0  0  0
  150.0556  141.6031  155.3112 H   0  0  0  0  0  0  0  0  0  0  0  0
  148.5530  140.7245  155.5995 H   0  0  0  0  0  0  0  0  0  0  0  0
  148.8127  137.8518  155.3703 H   0  0  0  0  0  0  0  0  0  0  0  0
  149.2841  135.8853  153.3871 H   0  0  0  0  0  0  0  0  0  0  0  0
  147.8535  134.0626  155.2456 H   0  0  0  0  0  0  0  0  0  0  0  0
  147.0448  135.3131  154.3469 H   0  0  0  0  0  0  0  0  0  0  0  0
  148.3834  133.8613  152.3254 H   0  0  0  0  0  0  0  0  0  0  0  0
  149.0969  132.1428  153.9946 H   0  0  0  0  0  0  0  0  0  0  0  0
  148.0855  131.4581  152.7598 H   0  0  0  0  0  0  0  0  0  0  0  0
  147.4141  131.7977  154.3603 H   0  0  0  0  0  0  0  0  0  0  0  0
  146.1188  135.7756  153.0370 H   0  0  0  0  0  0  0  0  0  0  0  0
  146.5847  135.4167  151.3947 H   0  0  0  0  0  0  0  0  0  0  0  0
  144.3254  136.1895  151.3429 H   0  0  0  0  0  0  0  0  0  0  0  0
  143.6133  135.8755  153.6588 H   0  0  0  0  0  0  0  0  0  0  0  0
  143.5723  134.1313  153.4750 H   0  0  0  0  0  0  0  0  0  0  0  0
  142.4411  135.1388  152.5738 H   0  0  0  0  0  0  0  0  0  0  0  0
  143.8679  132.5824  151.8553 H   0  0  0  0  0  0  0  0  0  0  0  0
  144.3683  131.0118  149.9878 H   0  0  0  0  0  0  0  0  0  0  0  0
  144.7586  132.3745  148.9395 H   0  0  0  0  0  0  0  0  0  0  0  0
  143.1153  132.1640  149.5382 H   0  0  0  0  0  0  0  0  0  0  0  0
  146.6337  133.0153  150.5959 H   0  0  0  0  0  0  0  0  0  0  0  0
  146.1517  131.7459  151.7150 H   0  0  0  0  0  0  0  0  0  0  0  0
  145.6890  133.4148  153.3289 H   0  0  0  0  0  0  0  0  0  0  0  0
  1  2  1  0  0  0  0
  1 22  1  0  0  0  0
  1 23  1  0  0  0  0
  1 24  1  0  0  0  0
  2 21  1  0  0  0  0
  2  3  2  0  0  0  0
  3  4  1  0  0  0  0
  3 25  1  0  0  0  0
  4  5  1  0  0  0  0
  4 20  2  0  0  0  0
  5  6  1  0  0  0  0
  6  7  2  0  0  0  0
  6  8  1  0  0  0  0
  8  9  1  0  0  0  0
  8 26  1  0  0  0  0
  9 10  1  0  0  0  0
  9 27  1  0  0  0  0
  9 28  1  0  0  0  0
 10 11  1  0  0  0  0
 10 12  1  0  0  0  0
 10 29  1  0  0  0  0
 11 30  1  0  0  0  0
 11 31  1  0  0  0  0
 11 32  1  0  0  0  0
 12 19  1  0  0  0  0
 12 13  1  0  0  0  0
 12 45  1  0  0  0  0
 13 14  1  0  0  0  0
 13 33  1  0  0  0  0
 13 34  1  0  0  0  0
 14 15  1  0  0  0  0
 14 16  1  0  0  0  0
 14 35  1  0  0  0  0
 15 36  1  0  0  0  0
 15 37  1  0  0  0  0
 15 38  1  0  0  0  0
 16 17  1  0  0  0  0
 17 18  1  0  0  0  0
 17 19  1  0  0  0  0
 17 39  1  0  0  0  0
 18 40  1  0  0  0  0
 18 41  1  0  0  0  0
 18 42  1  0  0  0  0
 19 43  1  0  0  0  0
 19 44  1  0  0  0  0
 20 21  1  0  0  0  0
M  CHG  1   5  -1
M  CHG  1  12   1
M  END
> <s_m_source_file>
AV-unprocessed.smi

> <i_m_source_file_index>
2061

> <i_lp_mmshare_version>
43012

> <i_f3d_flags>
0

> <s_epik_input>
W0NIM11jMVtjSF1jKG5vMSlbTkhdQyg9TylbTkhdW0NIMl1bQ0BIXShbQ0gzXSlOMltDSDJdW0NAQEhdKFtDSDNdKU9bQ0BASF0oW0NIM10pW0NIMl0y

> <s_epik_cmdline>
J2VwaWtfcHl0aG9uJywgJy1waCcsICc3LjAnLCAnLXRuJywgJzgnLCAnLW1hJywgJzIwMCcsICctbWV0YWxfYmluZGluZycsICctaW1hZScsICc8aW5maWxlLm1hZT4nLCAnLW9tYWUnLCAnPG91dGZpbGUubWFlPic=

> <r_epik_Ionization_Penalty>
6.73511

> <r_epik_Ionization_Penalty_Charging>
6.73502

> <r_epik_Ionization_Penalty_Neutral>
9.50841e-05

> <r_epik_State_Penalty>
6.93549

> <r_epik_Charging_Adjusted_Penalty>
13.6705

> <i_epik_Tot_Q>
0

> <i_epik_Tot_abs_Q>
2

> <r_epik_Metal_State_Penalty>
2.87211

> <b_epik_Metal_Only>
1

> <s_lp_Force_Field>
OPLS_2005

> <r_lp_Energy>
11.2328

> <b_lp_Chiralities_Consistent>
1

> <s_lp_Variant>
AV-unprocessed.smi:2061-24

> <Gold.Version>
5.8.1

> <Gold.Id.Protein>
6NUR|6NUR_protein|mol2

> <Gold.PLP.Fitness>
42.1121

> <Gold.PLP.PLP>
-32.5589

> <Gold.PLP.part.hbond>
-3.0000

> <Gold.PLP.part.metal>
0.0000

> <Gold.PLP.part.buried>
-3.7752

> <Gold.PLP.part.nonpolar>
-26.2647

> <Gold.PLP.part.repulsive>
0.5447

> <Gold.PLP.ligand.clash>
0.0000

> <Gold.PLP.ligand.torsion>
1.2680

> <Gold.PLP.Chemscore.Hbond>
4.0000

> <Gold.PLP.Chemscore.CHOScore>
0.0000

> <Gold.PLP.Chemscore.Metal>
0.0000

> <Gold.Chemscore.Hbonds>
donor molecule, donor type, donor heavy atom, donor atom, acceptor molecule, acceptor atom, score
      L1  H     8    26       P1  7948  1.00
      P1  H  7989  7998       L1    21  1.00
      P1  H 10752 10765       L1     5  2.00

> <Gold.PLP.Chemscore.Internal.Correction>
0.0891

> <Gold.Rescore>
     Score         DG    S(hbond)    S(metal)    S(lipo)     H(rot)  DE(clash)    DE(int)     intcor
     16.51     -17.93       2.60        0.00      66.08       1.56       0.07       1.35       ----

> <Gold.Chemscore.Fitness>
16.5129

> <Gold.Chemscore.DG>
-17.9277

> <Gold.Chemscore.ZeroCoef>
-5.4800

> <Gold.Chemscore.Hbond>
2.6040

> <Gold.Chemscore.Metal>
0.0000

> <Gold.Chemscore.Lipo>
66.0791

> <Gold.Chemscore.Internal_Hbond>
0.0000

> <Gold.Chemscore.DEClash>
0.0659

> <Gold.Chemscore.DEInternal>
1.3489

> <Gold.Chemscore.Rot>
1.5550

> <Gold.Chemscore.Internal.Correction>
   9.000000E+99

> <Gold.Chemscore.Hbonds>
donor molecule, donor type, donor heavy atom, donor atom, acceptor molecule, acceptor atom, score
      L1  H     8    26       P1  7948  0.56
      P1  H  7989  7998       L1    21  0.69
      P1  H 10752 10765       L1     5  0.82

> <Gold.Chemscore.Hbond.Weighted>
-8.6973

> <Gold.Chemscore.Metal.Weighted>
-0.0000

> <Gold.Chemscore.Lipo.Weighted>
-7.7313

> <Gold.Chemscore.Internal_Hbond.Weighted>
0.0000

> <Gold.Chemscore.DEClash.Weighted>
0.0659

> <Gold.Chemscore.DEInternal.Weighted>
1.3489

> <Gold.Chemscore.Rot.Weighted>
3.9809

> <Gold.Chemscore.Internal.Correction.Weighted>
   9.000000E+99

> <Gold.Protein.RotatedTorsions>
[ 6907 6896 6895 6894 ] final -100.41 input  -60.11 | X-H torsion
[ 7974 7965 7964 7962 ] final   55.15 input  175.53 | X-H torsion
[ 8008 7997 7996 7995 ] final  169.60 input   59.86 | X-H torsion
[ 10167 10162 10161 10158 ] final  137.27 input  -65.29 | X-H torsion
[ 10718 10713 10712 10709 ] final  154.31 input   66.30 | X-H torsion
[ 10763 10752 10751 10750 ] final  173.11 input  -60.55 | X-H torsion
[ 11005 11000 10999 10996 ] final  136.44 input  -57.11 | X-H torsion

> <Gold.Protein.ActiveResidues>
 VAL166  LYS551  ARG553  GLY616  TRP617  ASP618  TYR619  PRO620  LYS621  CYS622 
 ASP623  PHE694  ASN695  SER759  ASP760  ASP761  ALA762  ILE779  LEU786  VAL792 
 PHE793  MET794  SER795  GLU796  ALA797  LYS798  CYS799  TRP800  GLU811  SER814 

> <Gold.Protein.RotatedAtoms>
  150.7115  134.0891  159.3925 H   0  0  0  0  0  0  0  0  0  0  0  0  # atno 6907 bound_to 6896
  151.8876  135.0427  160.0504 H   0  0  0  0  0  0  0  0  0  0  0  0  # atno 6908 bound_to 6896
  152.2517  133.5185  159.5366 H   0  0  0  0  0  0  0  0  0  0  0  0  # atno 6909 bound_to 6896
  145.9535  139.3993  143.0292 H   0  0  0  0  0  0  0  0  0  0  0  0  # atno 7974 bound_to 7965
  156.1443  140.1560  156.8872 H   0  0  0  0  0  0  0  0  0  0  0  0  # atno 8008 bound_to 7997
  154.5014  140.0824  156.7843 H   0  0  0  0  0  0  0  0  0  0  0  0  # atno 8009 bound_to 7997
  155.4019  140.3415  155.4260 H   0  0  0  0  0  0  0  0  0  0  0  0  # atno 8010 bound_to 7997
  139.5150  144.6419  151.5545 H   0  0  0  0  0  0  0  0  0  0  0  0  # atno 10167 bound_to 10162
  157.2333  131.0743  151.1839 H   0  0  0  0  0  0  0  0  0  0  0  0  # atno 10718 bound_to 10713
  154.4355  135.2761  155.1883 H   0  0  0  0  0  0  0  0  0  0  0  0  # atno 10763 bound_to 10752
  154.3771  135.6096  153.5774 H   0  0  0  0  0  0  0  0  0  0  0  0  # atno 10764 bound_to 10752
  152.9838  135.5871  154.4674 H   0  0  0  0  0  0  0  0  0  0  0  0  # atno 10765 bound_to 10752
  140.0046  134.9464  157.0148 H   0  0  0  0  0  0  0  0  0  0  0  0  # atno 11005 bound_to 11000
  145.8139  140.9712  143.0934 LP  0  0  0  0  0  0  0  0  0  0  0  0  # atno 17320 bound_to 7965
  144.6800  139.9956  143.7484 LP  0  0  0  0  0  0  0  0  0  0  0  0  # atno 17321 bound_to 7965
  140.6189  143.9296  150.6510 LP  0  0  0  0  0  0  0  0  0  0  0  0  # atno 17342 bound_to 10162
  140.2563  143.3556  152.1362 LP  0  0  0  0  0  0  0  0  0  0  0  0  # atno 17343 bound_to 10162
  157.3455  130.7055  149.6408 LP  0  0  0  0  0  0  0  0  0  0  0  0  # atno 17370 bound_to 10713
  155.9674  130.4267  150.4713 LP  0  0  0  0  0  0  0  0  0  0  0  0  # atno 17371 bound_to 10713
  140.4664  134.1431  155.7197 LP  0  0  0  0  0  0  0  0  0  0  0  0  # atno 17394 bound_to 11000
  141.1668  133.8688  157.1692 LP  0  0  0  0  0  0  0  0  0  0  0  0  # atno 17395 bound_to 11000

$$$$
