AV-unprocessed.smi:50|AV-procd|sdf|492|dock10
  -GOLD-   2262016353D 1   1.00000     0.00000
 Structure written by MMmdl.
 44 45  0  0  0  0  0  0  0  0  2 V2000
  152.0126  145.2570  160.3258 C   0  0  0  0  0  0  0  0  0  0  0  0
  151.8289  143.8450  159.7357 C   0  0  0  0  0  0  0  0  0  0  0  0
  153.1786  143.3416  159.1903 C   0  0  0  0  0  0  0  0  0  0  0  0
  150.7128  143.7971  158.6561 C   0  0  1  0  0  0  0  0  0  0  0  0
  151.1519  144.4100  157.3884 N   0  3  0  0  0  0  0  0  0  0  0  0
  150.2522  142.3763  158.2927 C   0  0  0  0  0  0  0  0  0  0  0  0
  149.1381  141.9164  158.5476 O   0  0  0  0  0  0  0  0  0  0  0  0
  151.2502  141.7016  157.6965 O   0  0  0  0  0  0  0  0  0  0  0  0
  150.9841  140.4491  157.0849 C   0  0  0  0  0  0  0  0  0  0  0  0
  149.7392  140.5637  156.2011 C   0  0  0  0  0  0  0  0  0  0  0  0
  150.1396  140.5062  154.8415 O   0  0  0  0  0  0  0  0  0  0  0  0
  149.4493  139.5509  154.1045 C   0  0  0  0  0  0  0  0  0  0  0  0
  149.8001  138.2381  154.6178 N   0  0  0  0  0  0  0  0  0  0  0  0
  150.7409  137.3489  154.1570 C   0  0  0  0  0  0  0  0  0  0  0  0
  150.8062  136.2423  154.8435 N   0  0  0  0  0  0  0  0  0  0  0  0
  149.8335  136.3934  155.8271 C   0  0  0  0  0  0  0  0  0  0  0  0
  149.4334  135.5005  156.8778 C   0  0  0  0  0  0  0  0  0  0  0  0
  149.8807  134.3867  157.1429 O   0  0  0  0  0  0  0  0  0  0  0  0
  148.3983  136.0328  157.6571 N   0  0  0  0  0  0  0  0  0  0  0  0
  147.8212  137.2823  157.4431 C   0  0  0  0  0  0  0  0  0  0  0  0
  146.8368  137.6423  158.2771 N   0  0  0  0  0  0  0  0  0  0  0  0
  148.1931  138.1050  156.4779 N   0  0  0  0  0  0  0  0  0  0  0  0
  149.2051  137.6166  155.6951 C   0  0  0  0  0  0  0  0  0  0  0  0
  149.8552  144.3665  159.0163 H   0  0  0  0  0  0  0  0  0  0  0  0
  148.0598  135.4615  158.4173 H   0  0  0  0  0  0  0  0  0  0  0  0
  152.2683  145.9790  159.5496 H   0  0  0  0  0  0  0  0  0  0  0  0
  152.8132  145.2711  161.0660 H   0  0  0  0  0  0  0  0  0  0  0  0
  151.1133  145.6142  160.8270 H   0  0  0  0  0  0  0  0  0  0  0  0
  151.5477  143.1814  160.5553 H   0  0  0  0  0  0  0  0  0  0  0  0
  153.5082  143.9376  158.3384 H   0  0  0  0  0  0  0  0  0  0  0  0
  153.1266  142.3009  158.8706 H   0  0  0  0  0  0  0  0  0  0  0  0
  153.9556  143.4001  159.9534 H   0  0  0  0  0  0  0  0  0  0  0  0
  150.3462  144.5844  156.8049 H   0  0  0  0  0  0  0  0  0  0  0  0
  151.7819  143.7798  156.9128 H   0  0  0  0  0  0  0  0  0  0  0  0
  151.8435  140.1633  156.4770 H   0  0  0  0  0  0  0  0  0  0  0  0
  150.8423  139.6726  157.8383 H   0  0  0  0  0  0  0  0  0  0  0  0
  149.0239  139.7734  156.4349 H   0  0  0  0  0  0  0  0  0  0  0  0
  149.2489  141.5188  156.3945 H   0  0  0  0  0  0  0  0  0  0  0  0
  148.3727  139.6987  154.2098 H   0  0  0  0  0  0  0  0  0  0  0  0
  149.7282  139.5939  153.0505 H   0  0  0  0  0  0  0  0  0  0  0  0
  151.3750  137.5428  153.3040 H   0  0  0  0  0  0  0  0  0  0  0  0
  146.5513  137.0144  159.0148 H   0  0  0  0  0  0  0  0  0  0  0  0
  146.3816  138.5375  158.1727 H   0  0  0  0  0  0  0  0  0  0  0  0
  151.6260  145.2808  157.5804 H   0  0  0  0  0  0  0  0  0  0  0  0
  1  2  1  0  0  0  0
  1 26  1  0  0  0  0
  1 27  1  0  0  0  0
  1 28  1  0  0  0  0
  2  3  1  0  0  0  0
  2  4  1  0  0  0  0
  2 29  1  0  0  0  0
  3 30  1  0  0  0  0
  3 31  1  0  0  0  0
  3 32  1  0  0  0  0
  4 24  1  0  0  0  0
  4  5  1  0  0  0  0
  4  6  1  0  0  0  0
  5 33  1  0  0  0  0
  5 34  1  0  0  0  0
  5 44  1  0  0  0  0
  6  7  2  0  0  0  0
  6  8  1  0  0  0  0
  8  9  1  0  0  0  0
  9 10  1  0  0  0  0
  9 35  1  0  0  0  0
  9 36  1  0  0  0  0
 10 11  1  0  0  0  0
 10 37  1  0  0  0  0
 10 38  1  0  0  0  0
 11 12  1  0  0  0  0
 12 13  1  0  0  0  0
 12 39  1  0  0  0  0
 12 40  1  0  0  0  0
 13 23  1  0  0  0  0
 13 14  1  0  0  0  0
 14 15  2  0  0  0  0
 14 41  1  0  0  0  0
 15 16  1  0  0  0  0
 16 23  2  0  0  0  0
 16 17  1  0  0  0  0
 17 18  2  0  0  0  0
 17 19  1  0  0  0  0
 19 25  1  0  0  0  0
 19 20  1  0  0  0  0
 20 21  1  0  0  0  0
 20 22  2  0  0  0  0
 21 42  1  0  0  0  0
 21 43  1  0  0  0  0
 22 23  1  0  0  0  0
M  CHG  1   5   1
M  END
> <s_m_source_file>
AV-unprocessed.smi

> <i_m_source_file_index>
50

> <i_lp_mmshare_version>
43012

> <i_f3d_flags>
0

> <s_epik_input>
W0NIM11bQ0hdKFtDSDNdKVtDQEhdKFtOSDJdKUMoPU8pT1tDSDJdW0NIMl1PW0NIMl1uKFtjSF1uMSljKGMxMiluYyhbTkgyXSlbbkhdYzI9Tw==

> <s_epik_cmdline>
J2VwaWtfcHl0aG9uJywgJy1waCcsICc3LjAnLCAnLXRuJywgJzgnLCAnLW1hJywgJzIwMCcsICctbWV0YWxfYmluZGluZycsICctaW1hZScsICc8aW5maWxlLm1hZT4nLCAnLW9tYWUnLCAnPG91dGZpbGUubWFlPic=

> <r_lp_tautomer_probability>
0.99994

> <r_epik_Ionization_Penalty>
0.217551

> <r_epik_Ionization_Penalty_Charging>
0.217477

> <r_epik_Ionization_Penalty_Neutral>
7.42487e-05

> <r_epik_State_Penalty>
0.206211

> <r_epik_Charging_Adjusted_Penalty>
0.423688

> <i_epik_Tot_Q>
1

> <i_epik_Tot_abs_Q>
1

> <r_epik_Metal_State_Penalty>
0.526339

> <b_epik_Metal_Only>
0

> <s_epik_Chemistry_Notes>
This compound has an ester and may undergo hydrolysis at high or low pH. This compound contains an acetal/aminal-like group ( X-CH(R)-Y where X, Y are N, S, or O) that may be acid/base labile, releasing an aldehyde.

> <s_lp_Force_Field>
OPLS_2005

> <r_lp_Energy>
7.49642

> <b_lp_Chiralities_Consistent>
1

> <s_lp_Variant>
AV-unprocessed.smi:50-2

> <Gold.Version>
5.8.1

> <Gold.Id.Protein>
6NUR|6NUR_protein|mol2

> <Gold.PLP.Fitness>
46.3047

> <Gold.PLP.PLP>
-32.2904

> <Gold.PLP.part.hbond>
-4.0000

> <Gold.PLP.part.metal>
0.0000

> <Gold.PLP.part.buried>
-4.3919

> <Gold.PLP.part.nonpolar>
-25.4605

> <Gold.PLP.part.repulsive>
0.5093

> <Gold.PLP.ligand.clash>
0.0000

> <Gold.PLP.ligand.torsion>
1.4249

> <Gold.PLP.Chemscore.Hbond>
4.8320

> <Gold.PLP.Chemscore.CHOScore>
0.7166

> <Gold.PLP.Chemscore.Metal>
0.0000

> <Gold.Chemscore.Hbonds>
donor molecule, donor type, donor heavy atom, donor atom, acceptor molecule, acceptor atom, score
      L1  H     5    33       P1  8028  2.00
      P1  H  6896  6907       L1    18  0.20
      P1  H  7989  7998       L1    11  0.84
      P1  H 10752 10763       L1    15  0.09
      L1  C    14    41       P1  7949  0.72

> <Gold.PLP.Chemscore.Internal.Correction>
0.2183

> <Gold.Rescore>
     Score         DG    S(hbond)    S(metal)    S(lipo)     H(rot)  DE(clash)    DE(int)     intcor
      6.89     -10.02       2.90        0.00      62.25       4.86       0.01       3.12       ----

> <Gold.Chemscore.Fitness>
6.8901

> <Gold.Chemscore.DG>
-10.0199

> <Gold.Chemscore.ZeroCoef>
-5.4800

> <Gold.Chemscore.Hbond>
2.9016

> <Gold.Chemscore.Metal>
0.0000

> <Gold.Chemscore.Lipo>
62.2466

> <Gold.Chemscore.Internal_Hbond>
0.0000

> <Gold.Chemscore.DEClash>
0.0052

> <Gold.Chemscore.DEInternal>
3.1245

> <Gold.Chemscore.Rot>
4.8571

> <Gold.Chemscore.Internal.Correction>
   9.000000E+99

> <Gold.Chemscore.Hbonds>
donor molecule, donor type, donor heavy atom, donor atom, acceptor molecule, acceptor atom, score
      L1  H     5    33       P1  8028  0.85
      P1  H  6896  6907       L1    18  0.19
      P1  H  7989  7998       L1    11  0.15
      P1  H 10752 10763       L1    15  0.09

> <Gold.Chemscore.Hbond.Weighted>
-9.6913

> <Gold.Chemscore.Metal.Weighted>
-0.0000

> <Gold.Chemscore.Lipo.Weighted>
-7.2829

> <Gold.Chemscore.Internal_Hbond.Weighted>
0.0000

> <Gold.Chemscore.DEClash.Weighted>
0.0052

> <Gold.Chemscore.DEInternal.Weighted>
3.1245

> <Gold.Chemscore.Rot.Weighted>
12.4343

> <Gold.Chemscore.Internal.Correction.Weighted>
   9.000000E+99

> <Gold.Protein.RotatedTorsions>
[ 6907 6896 6895 6894 ] final -106.14 input  -60.11 | X-H torsion
[ 7974 7965 7964 7962 ] final   -3.36 input  175.53 | X-H torsion
[ 8008 7997 7996 7995 ] final -139.74 input   59.86 | X-H torsion
[ 10167 10162 10161 10158 ] final -111.28 input  -65.29 | X-H torsion
[ 10718 10713 10712 10709 ] final  -96.56 input   66.30 | X-H torsion
[ 10763 10752 10751 10750 ] final   84.15 input  -60.55 | X-H torsion
[ 11005 11000 10999 10996 ] final  -15.20 input  -57.11 | X-H torsion

> <Gold.Protein.ActiveResidues>
 VAL166  LYS551  ARG553  GLY616  TRP617  ASP618  TYR619  PRO620  LYS621  CYS622 
 ASP623  PHE694  ASN695  SER759  ASP760  ASP761  ALA762  ILE779  LEU786  VAL792 
 PHE793  MET794  SER795  GLU796  ALA797  LYS798  CYS799  TRP800  GLU811  SER814 

> <Gold.Protein.RotatedAtoms>
  150.7373  134.0021  159.3641 H   0  0  0  0  0  0  0  0  0  0  0  0  # atno 6907 bound_to 6896
  151.7976  135.0716  160.0405 H   0  0  0  0  0  0  0  0  0  0  0  0  # atno 6908 bound_to 6896
  152.3164  133.5770  159.5751 H   0  0  0  0  0  0  0  0  0  0  0  0  # atno 6909 bound_to 6896
  146.2391  140.1709  142.8332 H   0  0  0  0  0  0  0  0  0  0  0  0  # atno 7974 bound_to 7965
  155.4498  140.0538  157.3002 H   0  0  0  0  0  0  0  0  0  0  0  0  # atno 8008 bound_to 7997
  154.4782  140.2070  155.9783 H   0  0  0  0  0  0  0  0  0  0  0  0  # atno 8009 bound_to 7997
  156.1165  140.3195  155.8151 H   0  0  0  0  0  0  0  0  0  0  0  0  # atno 8010 bound_to 7997
  140.1353  143.4326  152.1600 H   0  0  0  0  0  0  0  0  0  0  0  0  # atno 10167 bound_to 10162
  156.0065  130.5156  150.6244 H   0  0  0  0  0  0  0  0  0  0  0  0  # atno 10718 bound_to 10713
  153.1356  135.4665  154.9416 H   0  0  0  0  0  0  0  0  0  0  0  0  # atno 10763 bound_to 10752
  154.7702  135.3156  154.8206 H   0  0  0  0  0  0  0  0  0  0  0  0  # atno 10764 bound_to 10752
  153.8740  135.6901  153.4826 H   0  0  0  0  0  0  0  0  0  0  0  0  # atno 10765 bound_to 10752
  140.7942  133.8264  155.9408 H   0  0  0  0  0  0  0  0  0  0  0  0  # atno 11005 bound_to 11000
  145.0012  140.8633  143.5280 LP  0  0  0  0  0  0  0  0  0  0  0  0  # atno 17320 bound_to 7965
  145.1729  139.2394  143.5332 LP  0  0  0  0  0  0  0  0  0  0  0  0  # atno 17321 bound_to 7965
  139.5499  144.7329  151.4467 LP  0  0  0  0  0  0  0  0  0  0  0  0  # atno 17342 bound_to 10162
  140.6793  143.8118  150.7100 LP  0  0  0  0  0  0  0  0  0  0  0  0  # atno 17343 bound_to 10162
  157.4053  131.0816  151.1271 LP  0  0  0  0  0  0  0  0  0  0  0  0  # atno 17370 bound_to 10713
  157.1919  130.6356  149.5707 LP  0  0  0  0  0  0  0  0  0  0  0  0  # atno 17371 bound_to 10713
  140.9359  134.1962  157.4831 LP  0  0  0  0  0  0  0  0  0  0  0  0  # atno 17394 bound_to 11000
  139.8728  134.9852  156.5272 LP  0  0  0  0  0  0  0  0  0  0  0  0  # atno 17395 bound_to 11000

$$$$
