AV-unprocessed.smi:2734|AV-procd|sdf|10537|dock3
  -GOLD-   2272014583D 1   1.00000     0.00000
 Structure written by MMmdl.
 40 42  0  0  0  0  0  0  0  0  1 V2000
  152.8189  143.3705  161.6849 C   0  0  0  0  0  0  0  0  0  0  0  0
  152.2922  142.9240  160.3324 C   0  0  0  0  0  0  0  0  0  0  0  0
  152.7920  141.7327  159.7597 C   0  0  0  0  0  0  0  0  0  0  0  0
  152.3273  141.2818  158.5047 C   0  0  0  0  0  0  0  0  0  0  0  0
  152.6712  140.1614  157.7681 N   0  0  0  0  0  0  0  0  0  0  0  0
  151.8966  140.2980  156.6954 C   0  0  0  0  0  0  0  0  0  0  0  0
  151.0910  141.3766  156.6502 N   0  0  0  0  0  0  0  0  0  0  0  0
  150.1654  141.7382  155.5917 C   0  0  0  0  0  0  0  0  0  0  0  0
  149.8267  140.5482  154.6741 C   0  0  2  0  0  0  0  0  0  0  0  0
  149.2819  141.0281  153.4597 O   0  0  0  0  0  0  0  0  0  0  0  0
  148.8274  139.5832  155.3315 C   0  0  0  0  0  0  0  0  0  0  0  0
  148.5373  138.1022  154.3152 S   0  0  0  0  0  0  0  0  0  0  0  0
  149.7218  137.0064  155.0337 C   0  0  0  0  0  0  0  0  0  0  0  0
  149.4638  135.8931  155.7108 N   0  0  0  0  0  0  0  0  0  0  0  0
  150.7132  135.4128  156.0540 N   0  0  0  0  0  0  0  0  0  0  0  0
  151.6560  136.1919  155.6101 N   0  0  0  0  0  0  0  0  0  0  0  0
  151.0430  137.2098  154.9587 N   0  0  0  0  0  0  0  0  0  0  0  0
  151.8101  138.2699  154.3356 C   0  0  0  0  0  0  0  0  0  0  0  0
  151.3422  142.0627  157.8327 C   0  0  0  0  0  0  0  0  0  0  0  0
  150.8374  143.2499  158.3915 C   0  0  0  0  0  0  0  0  0  0  0  0
  151.3112  143.6851  159.6469 C   0  0  0  0  0  0  0  0  0  0  0  0
  150.7576  144.9668  160.2440 C   0  0  0  0  0  0  0  0  0  0  0  0
  153.5760  142.6836  162.0643 H   0  0  0  0  0  0  0  0  0  0  0  0
  152.0097  143.4124  162.4144 H   0  0  0  0  0  0  0  0  0  0  0  0
  153.2719  144.3592  161.6118 H   0  0  0  0  0  0  0  0  0  0  0  0
  153.5387  141.1523  160.2814 H   0  0  0  0  0  0  0  0  0  0  0  0
  151.9135  139.5709  155.8966 H   0  0  0  0  0  0  0  0  0  0  0  0
  149.2581  142.1274  156.0550 H   0  0  0  0  0  0  0  0  0  0  0  0
  150.5961  142.5571  155.0133 H   0  0  0  0  0  0  0  0  0  0  0  0
  150.7440  140.0055  154.4418 H   0  0  0  0  0  0  0  0  0  0  0  0
  149.2502  140.3125  152.8429 H   0  0  0  0  0  0  0  0  0  0  0  0
  149.2139  139.2625  156.2997 H   0  0  0  0  0  0  0  0  0  0  0  0
  147.8784  140.0889  155.5150 H   0  0  0  0  0  0  0  0  0  0  0  0
  151.6032  139.2147  154.8381 H   0  0  0  0  0  0  0  0  0  0  0  0
  151.5324  138.3556  153.2848 H   0  0  0  0  0  0  0  0  0  0  0  0
  152.8783  138.0599  154.4022 H   0  0  0  0  0  0  0  0  0  0  0  0
  150.0905  143.8190  157.8580 H   0  0  0  0  0  0  0  0  0  0  0  0
  150.0064  145.4165  159.5940 H   0  0  0  0  0  0  0  0  0  0  0  0
  151.5547  145.6961  160.3889 H   0  0  0  0  0  0  0  0  0  0  0  0
  150.2894  144.7679  161.2082 H   0  0  0  0  0  0  0  0  0  0  0  0
  1  2  1  0  0  0  0
  1 23  1  0  0  0  0
  1 24  1  0  0  0  0
  1 25  1  0  0  0  0
  2 21  1  0  0  0  0
  2  3  2  0  0  0  0
  3  4  1  0  0  0  0
  3 26  1  0  0  0  0
  4 19  2  0  0  0  0
  4  5  1  0  0  0  0
  5  6  2  0  0  0  0
  6  7  1  0  0  0  0
  6 27  1  0  0  0  0
  7  8  1  0  0  0  0
  7 19  1  0  0  0  0
  8  9  1  0  0  0  0
  8 28  1  0  0  0  0
  8 29  1  0  0  0  0
  9 10  1  0  0  0  0
  9 11  1  0  0  0  0
  9 30  1  0  0  0  0
 10 31  1  0  0  0  0
 11 12  1  0  0  0  0
 11 32  1  0  0  0  0
 11 33  1  0  0  0  0
 12 13  1  0  0  0  0
 13 17  1  0  0  0  0
 13 14  2  0  0  0  0
 14 15  1  0  0  0  0
 15 16  2  0  0  0  0
 16 17  1  0  0  0  0
 17 18  1  0  0  0  0
 18 34  1  0  0  0  0
 18 35  1  0  0  0  0
 18 36  1  0  0  0  0
 19 20  1  0  0  0  0
 20 21  2  0  0  0  0
 20 37  1  0  0  0  0
 21 22  1  0  0  0  0
 22 38  1  0  0  0  0
 22 39  1  0  0  0  0
 22 40  1  0  0  0  0
M  END
> <s_m_source_file>
AV-unprocessed.smi

> <i_m_source_file_index>
2734

> <i_lp_mmshare_version>
43012

> <i_f3d_flags>
0

> <s_epik_input>
W0NIM11jKFtjSF0xKWMoW0NIM10pW2NIXWMoYzEyKW4oW2NIXW4yKVtDSDJdW0NASF0oW09IXSlbQ0gyXVNjM25ubm4zW0NIM10=

> <s_epik_cmdline>
J2VwaWtfcHl0aG9uJywgJy1waCcsICc3LjAnLCAnLXRuJywgJzgnLCAnLW1hJywgJzIwMCcsICctbWV0YWxfYmluZGluZycsICctaW1hZScsICc8aW5maWxlLm1hZT4nLCAnLW9tYWUnLCAnPG91dGZpbGUubWFlPic=

> <r_lp_tautomer_probability>
1

> <r_epik_Ionization_Penalty>
0.105517

> <r_epik_Ionization_Penalty_Charging>
0

> <r_epik_Ionization_Penalty_Neutral>
0.105517

> <r_epik_State_Penalty>
0.0953887

> <r_epik_Charging_Adjusted_Penalty>
0.0953887

> <i_epik_Tot_Q>
0

> <i_epik_Tot_abs_Q>
0

> <r_epik_Metal_State_Penalty>
0.0808533

> <b_epik_Metal_Only>
0

> <s_lp_Force_Field>
OPLS_2005

> <r_lp_Energy>
9.5145

> <b_lp_Chiralities_Consistent>
1

> <s_lp_Variant>
AV-unprocessed.smi:2734-1

> <Gold.Version>
5.8.1

> <Gold.Id.Protein>
6NUR|6NUR_protein|mol2

> <Gold.PLP.Fitness>
53.5661

> <Gold.PLP.PLP>
-43.6624

> <Gold.PLP.part.hbond>
-5.0000

> <Gold.PLP.part.metal>
0.0000

> <Gold.PLP.part.buried>
-4.8823

> <Gold.PLP.part.nonpolar>
-33.6354

> <Gold.PLP.part.repulsive>
0.1781

> <Gold.PLP.ligand.clash>
0.0000

> <Gold.PLP.ligand.torsion>
0.6637

> <Gold.PLP.Chemscore.Hbond>
3.7360

> <Gold.PLP.Chemscore.CHOScore>
0.0000

> <Gold.PLP.Chemscore.Metal>
0.0000

> <Gold.Chemscore.Hbonds>
donor molecule, donor type, donor heavy atom, donor atom, acceptor molecule, acceptor atom, score
      L1  H    10    31       P1  7957  0.75
      P1  H  7997  8009       L1     5  0.95
      P1  H  8011  8017       L1    10  1.00
      P1  H 10752 10763       L1    16  1.00

> <Gold.PLP.Chemscore.Internal.Correction>
0.0231

> <Gold.Rescore>
     Score         DG    S(hbond)    S(metal)    S(lipo)     H(rot)  DE(clash)    DE(int)     intcor
     18.98     -20.16       2.69        0.00     110.92       2.85       0.42       0.76       ----

> <Gold.Chemscore.Fitness>
18.9813

> <Gold.Chemscore.DG>
-20.1560

> <Gold.Chemscore.ZeroCoef>
-5.4800

> <Gold.Chemscore.Hbond>
2.6894

> <Gold.Chemscore.Metal>
0.0000

> <Gold.Chemscore.Lipo>
110.9158

> <Gold.Chemscore.Internal_Hbond>
0.0000

> <Gold.Chemscore.DEClash>
0.4179

> <Gold.Chemscore.DEInternal>
0.7568

> <Gold.Chemscore.Rot>
2.8452

> <Gold.Chemscore.Internal.Correction>
   9.000000E+99

> <Gold.Chemscore.Hbonds>
donor molecule, donor type, donor heavy atom, donor atom, acceptor molecule, acceptor atom, score
      L1  H    10    31       P1  7957  0.76
      P1  H  7997  8009       L1     5  0.19
      P1  H  8011  8017       L1    10  0.25
      P1  H 10752 10763       L1    16  0.58

> <Gold.Chemscore.Hbond.Weighted>
-8.9826

> <Gold.Chemscore.Metal.Weighted>
-0.0000

> <Gold.Chemscore.Lipo.Weighted>
-12.9771

> <Gold.Chemscore.Internal_Hbond.Weighted>
0.0000

> <Gold.Chemscore.DEClash.Weighted>
0.4179

> <Gold.Chemscore.DEInternal.Weighted>
0.7568

> <Gold.Chemscore.Rot.Weighted>
7.2837

> <Gold.Chemscore.Internal.Correction.Weighted>
   9.000000E+99

> <Gold.Protein.RotatedTorsions>
[ 6907 6896 6895 6894 ] final  101.58 input  -60.11 | X-H torsion
[ 7974 7965 7964 7962 ] final  166.08 input  175.53 | X-H torsion
[ 8008 7997 7996 7995 ] final  167.27 input   59.86 | X-H torsion
[ 10167 10162 10161 10158 ] final -117.56 input  -65.29 | X-H torsion
[ 10718 10713 10712 10709 ] final  117.70 input   66.30 | X-H torsion
[ 10763 10752 10751 10750 ] final   56.41 input  -60.55 | X-H torsion
[ 11005 11000 10999 10996 ] final   92.78 input  -57.11 | X-H torsion

> <Gold.Protein.ActiveResidues>
 VAL166  LYS551  ARG553  GLY616  TRP617  ASP618  TYR619  PRO620  LYS621  CYS622 
 ASP623  PHE694  ASN695  SER759  ASP760  ASP761  ALA762  ILE779  LEU786  VAL792 
 PHE793  MET794  SER795  GLU796  ALA797  LYS798  CYS799  TRP800  GLU811  SER814 

> <Gold.Protein.RotatedAtoms>
  152.5346  134.0105  159.7935 H   0  0  0  0  0  0  0  0  0  0  0  0  # atno 6907 bound_to 6896
  151.0308  133.5784  159.2668 H   0  0  0  0  0  0  0  0  0  0  0  0  # atno 6908 bound_to 6896
  151.2790  135.0715  159.9216 H   0  0  0  0  0  0  0  0  0  0  0  0  # atno 6909 bound_to 6896
  144.7476  139.8563  143.6377 H   0  0  0  0  0  0  0  0  0  0  0  0  # atno 7974 bound_to 7965
  156.1648  140.1621  156.8550 H   0  0  0  0  0  0  0  0  0  0  0  0  # atno 8008 bound_to 7997
  154.5196  140.0781  156.8182 H   0  0  0  0  0  0  0  0  0  0  0  0  # atno 8009 bound_to 7997
  155.3634  140.3396  155.4243 H   0  0  0  0  0  0  0  0  0  0  0  0  # atno 8010 bound_to 7997
  140.0670  143.4913  152.2001 H   0  0  0  0  0  0  0  0  0  0  0  0  # atno 10167 bound_to 10162
  157.6079  131.1040  150.7652 H   0  0  0  0  0  0  0  0  0  0  0  0  # atno 10718 bound_to 10713
  152.9831  135.5677  154.5224 H   0  0  0  0  0  0  0  0  0  0  0  0  # atno 10763 bound_to 10752
  154.4710  135.2785  155.1645 H   0  0  0  0  0  0  0  0  0  0  0  0  # atno 10764 bound_to 10752
  154.3193  135.6272  153.5554 H   0  0  0  0  0  0  0  0  0  0  0  0  # atno 10765 bound_to 10752
  139.8819  134.8752  156.3622 H   0  0  0  0  0  0  0  0  0  0  0  0  # atno 11005 bound_to 11000
  146.1380  139.4430  143.0127 LP  0  0  0  0  0  0  0  0  0  0  0  0  # atno 17320 bound_to 7965
  145.7062  141.0120  143.1478 LP  0  0  0  0  0  0  0  0  0  0  0  0  # atno 17321 bound_to 7965
  139.5859  144.7530  151.3522 LP  0  0  0  0  0  0  0  0  0  0  0  0  # atno 17342 bound_to 10162
  140.7144  143.7305  150.7627 LP  0  0  0  0  0  0  0  0  0  0  0  0  # atno 17343 bound_to 10162
  156.8036  130.4929  149.5366 LP  0  0  0  0  0  0  0  0  0  0  0  0  # atno 17370 bound_to 10713
  156.1171  130.6083  151.0138 LP  0  0  0  0  0  0  0  0  0  0  0  0  # atno 17371 bound_to 10713
  140.9522  133.7444  156.0287 LP  0  0  0  0  0  0  0  0  0  0  0  0  # atno 17394 bound_to 11000
  140.8092  134.3419  157.5417 LP  0  0  0  0  0  0  0  0  0  0  0  0  # atno 17395 bound_to 11000

$$$$
