AV-unprocessed.smi:3202|AV-procd|sdf|12248|dock3
  -GOLD-   2272018 83D 1   1.00000     0.00000
 Structure written by MMmdl.
 43 44  0  0  0  0  0  0  0  0  2 V2000
  145.6005  142.2687  154.6012 C   0  0  0  0  0  0  0  0  0  0  0  0
  146.9799  141.6788  154.6028 C   0  0  0  0  0  0  0  0  0  0  0  0
  147.9425  141.6938  155.6543 C   0  0  0  0  0  0  0  0  0  0  0  0
  149.0201  141.0323  155.1357 C   0  0  0  0  0  0  0  0  0  0  0  0
  150.3585  140.7178  155.7217 C   0  0  0  0  0  0  0  0  0  0  0  0
  150.4540  140.9586  157.2407 C   0  0  1  0  0  0  0  0  0  0  0  0
  151.0945  139.7798  157.9914 C   0  0  0  0  0  0  0  0  0  0  0  0
  151.2304  142.1910  157.5024 N   0  3  0  0  0  0  0  0  0  0  0  0
  151.4358  142.5260  158.9297 C   0  0  1  0  0  0  0  0  0  0  0  0
  152.6584  141.8286  159.5436 C   0  0  0  0  0  0  0  0  0  0  0  0
  153.1159  142.7349  160.6937 C   0  0  0  0  0  0  0  0  0  0  0  0
  152.2733  144.0150  160.5963 C   0  0  0  0  0  0  0  0  0  0  0  0
  151.6656  144.0317  159.1819 C   0  0  0  0  0  0  0  0  0  0  0  0
  152.6690  144.6615  158.1875 C   0  0  0  0  0  0  0  0  0  0  0  0
  150.3452  144.8241  159.1525 C   0  0  0  0  0  0  0  0  0  0  0  0
  148.6661  140.6650  153.8573 N   0  0  0  0  0  0  0  0  0  0  0  0
  147.4229  141.0553  153.5214 N   0  0  0  0  0  0  0  0  0  0  0  0
  149.2518  140.1552  153.2109 H   0  0  0  0  0  0  0  0  0  0  0  0
  145.3344  142.6521  155.5866 H   0  0  0  0  0  0  0  0  0  0  0  0
  144.8531  141.5253  154.3225 H   0  0  0  0  0  0  0  0  0  0  0  0
  145.5295  143.0959  153.8947 H   0  0  0  0  0  0  0  0  0  0  0  0
  147.8549  142.1306  156.6382 H   0  0  0  0  0  0  0  0  0  0  0  0
  151.1162  141.3152  155.2127 H   0  0  0  0  0  0  0  0  0  0  0  0
  150.6047  139.6780  155.5030 H   0  0  0  0  0  0  0  0  0  0  0  0
  149.4409  141.0802  157.6271 H   0  0  0  0  0  0  0  0  0  0  0  0
  150.5108  138.8662  157.8756 H   0  0  0  0  0  0  0  0  0  0  0  0
  151.1590  139.9862  159.0604 H   0  0  0  0  0  0  0  0  0  0  0  0
  152.1034  139.5787  157.6297 H   0  0  0  0  0  0  0  0  0  0  0  0
  152.1369  142.1009  157.0663 H   0  0  0  0  0  0  0  0  0  0  0  0
  150.5485  142.2176  159.4866 H   0  0  0  0  0  0  0  0  0  0  0  0
  152.4247  140.8203  159.8869 H   0  0  0  0  0  0  0  0  0  0  0  0
  153.4604  141.7424  158.8089 H   0  0  0  0  0  0  0  0  0  0  0  0
  152.9790  142.2535  161.6624 H   0  0  0  0  0  0  0  0  0  0  0  0
  154.1775  142.9627  160.5910 H   0  0  0  0  0  0  0  0  0  0  0  0
  151.4780  143.9631  161.3416 H   0  0  0  0  0  0  0  0  0  0  0  0
  152.8550  144.9104  160.8195 H   0  0  0  0  0  0  0  0  0  0  0  0
  152.8972  145.6919  158.4627 H   0  0  0  0  0  0  0  0  0  0  0  0
  152.2706  144.6841  157.1728 H   0  0  0  0  0  0  0  0  0  0  0  0
  153.6142  144.1191  158.1581 H   0  0  0  0  0  0  0  0  0  0  0  0
  150.5082  145.8706  159.4130 H   0  0  0  0  0  0  0  0  0  0  0  0
  149.6174  144.4217  159.8580 H   0  0  0  0  0  0  0  0  0  0  0  0
  149.8898  144.7981  158.1622 H   0  0  0  0  0  0  0  0  0  0  0  0
  150.7446  142.9611  157.0653 H   0  0  0  0  0  0  0  0  0  0  0  0
  1 19  1  0  0  0  0
  1 20  1  0  0  0  0
  1 21  1  0  0  0  0
  1  2  1  0  0  0  0
  2 17  2  0  0  0  0
  2  3  1  0  0  0  0
  3  4  2  0  0  0  0
  3 22  1  0  0  0  0
  4 16  1  0  0  0  0
  4  5  1  0  0  0  0
  5  6  1  0  0  0  0
  5 23  1  0  0  0  0
  5 24  1  0  0  0  0
  6  7  1  0  0  0  0
  6  8  1  0  0  0  0
  6 25  1  0  0  0  0
  7 26  1  0  0  0  0
  7 27  1  0  0  0  0
  7 28  1  0  0  0  0
  8  9  1  0  0  0  0
  8 29  1  0  0  0  0
  8 43  1  0  0  0  0
  9 13  1  0  0  0  0
  9 10  1  0  0  0  0
  9 30  1  0  0  0  0
 10 11  1  0  0  0  0
 10 31  1  0  0  0  0
 10 32  1  0  0  0  0
 11 12  1  0  0  0  0
 11 33  1  0  0  0  0
 11 34  1  0  0  0  0
 12 13  1  0  0  0  0
 12 35  1  0  0  0  0
 12 36  1  0  0  0  0
 13 14  1  0  0  0  0
 13 15  1  0  0  0  0
 14 37  1  0  0  0  0
 14 38  1  0  0  0  0
 14 39  1  0  0  0  0
 15 40  1  0  0  0  0
 15 41  1  0  0  0  0
 15 42  1  0  0  0  0
 16 17  1  0  0  0  0
 16 18  1  0  0  0  0
M  CHG  1   8   1
M  END
> <s_m_source_file>
AV-unprocessed.smi

> <i_m_source_file_index>
3202

> <i_lp_mmshare_version>
43012

> <i_f3d_flags>
0

> <s_epik_input>
W0NIM11jMVtjSF1jKG5bbkhdMSlbQ0gyXVtDQEhdKFtDSDNdKVtOSF1bQ0BASF0oQzIoW0NIM10pW0NIM10pW0NIMl1bQ0gyXVtDSDJdMg==

> <s_epik_cmdline>
J2VwaWtfcHl0aG9uJywgJy1waCcsICc3LjAnLCAnLXRuJywgJzgnLCAnLW1hJywgJzIwMCcsICctbWV0YWxfYmluZGluZycsICctaW1hZScsICc8aW5maWxlLm1hZT4nLCAnLW9tYWUnLCAnPG91dGZpbGUubWFlPic=

> <r_lp_tautomer_probability>
0.5

> <r_epik_Ionization_Penalty>
0.000449684

> <r_epik_Ionization_Penalty_Charging>
0.000404963

> <r_epik_Ionization_Penalty_Neutral>
4.47208e-05

> <r_epik_State_Penalty>
0.41068

> <r_epik_Charging_Adjusted_Penalty>
0.411085

> <i_epik_Tot_Q>
1

> <i_epik_Tot_abs_Q>
1

> <r_epik_Metal_State_Penalty>
0.410687

> <b_epik_Metal_Only>
0

> <s_lp_Force_Field>
OPLS_2005

> <r_lp_Energy>
32.3918

> <b_lp_Chiralities_Consistent>
1

> <s_lp_Variant>
AV-unprocessed.smi:3202-8

> <Gold.Version>
5.8.1

> <Gold.Id.Protein>
6NUR|6NUR_protein|mol2

> <Gold.PLP.Fitness>
40.7956

> <Gold.PLP.PLP>
-40.3727

> <Gold.PLP.part.hbond>
-1.0000

> <Gold.PLP.part.metal>
0.0000

> <Gold.PLP.part.buried>
-2.9653

> <Gold.PLP.part.nonpolar>
-37.1505

> <Gold.PLP.part.repulsive>
0.4183

> <Gold.PLP.ligand.clash>
0.0000

> <Gold.PLP.ligand.torsion>
1.0872

> <Gold.PLP.Chemscore.Hbond>
0.8480

> <Gold.PLP.Chemscore.CHOScore>
0.0000

> <Gold.PLP.Chemscore.Metal>
0.0000

> <Gold.Chemscore.Hbonds>
donor molecule, donor type, donor heavy atom, donor atom, acceptor molecule, acceptor atom, score
      L1  H    16    18       P1  7957  0.68

> <Gold.PLP.Chemscore.Internal.Correction>
0.0532

> <Gold.Rescore>
     Score         DG    S(hbond)    S(metal)    S(lipo)     H(rot)  DE(clash)    DE(int)     intcor
     16.93     -18.76       0.98        0.00     117.31       1.46       0.40       1.43       ----

> <Gold.Chemscore.Fitness>
16.9345

> <Gold.Chemscore.DG>
-18.7576

> <Gold.Chemscore.ZeroCoef>
-5.4800

> <Gold.Chemscore.Hbond>
0.9846

> <Gold.Chemscore.Metal>
0.0000

> <Gold.Chemscore.Lipo>
117.3125

> <Gold.Chemscore.Internal_Hbond>
0.0000

> <Gold.Chemscore.DEClash>
0.3967

> <Gold.Chemscore.DEInternal>
1.4263

> <Gold.Chemscore.Rot>
1.4596

> <Gold.Chemscore.Internal.Correction>
   9.000000E+99

> <Gold.Chemscore.Hbonds>
donor molecule, donor type, donor heavy atom, donor atom, acceptor molecule, acceptor atom, score
      L1  H    16    18       P1  7957  0.65

> <Gold.Chemscore.Hbond.Weighted>
-3.2885

> <Gold.Chemscore.Metal.Weighted>
-0.0000

> <Gold.Chemscore.Lipo.Weighted>
-13.7256

> <Gold.Chemscore.Internal_Hbond.Weighted>
0.0000

> <Gold.Chemscore.DEClash.Weighted>
0.3967

> <Gold.Chemscore.DEInternal.Weighted>
1.4263

> <Gold.Chemscore.Rot.Weighted>
3.7365

> <Gold.Chemscore.Internal.Correction.Weighted>
   9.000000E+99

> <Gold.Protein.RotatedTorsions>
[ 6907 6896 6895 6894 ] final -112.00 input  -60.11 | X-H torsion
[ 7974 7965 7964 7962 ] final  111.64 input  175.53 | X-H torsion
[ 8008 7997 7996 7995 ] final   74.78 input   59.86 | X-H torsion
[ 10167 10162 10161 10158 ] final   -2.07 input  -65.29 | X-H torsion
[ 10718 10713 10712 10709 ] final  153.19 input   66.30 | X-H torsion
[ 10763 10752 10751 10750 ] final   47.61 input  -60.55 | X-H torsion
[ 11005 11000 10999 10996 ] final   25.90 input  -57.11 | X-H torsion

> <Gold.Protein.ActiveResidues>
 VAL166  LYS551  ARG553  GLY616  TRP617  ASP618  TYR619  PRO620  LYS621  CYS622 
 ASP623  PHE694  ASN695  SER759  ASP760  ASP761  ALA762  ILE779  LEU786  VAL792 
 PHE793  MET794  SER795  GLU796  ALA797  LYS798  CYS799  TRP800  GLU811  SER814 

> <Gold.Protein.RotatedAtoms>
  150.7728  133.9153  159.3381 H   0  0  0  0  0  0  0  0  0  0  0  0  # atno 6907 bound_to 6896
  151.7035  135.0924  160.0264 H   0  0  0  0  0  0  0  0  0  0  0  0  # atno 6908 bound_to 6896
  152.3753  133.6435  159.6154 H   0  0  0  0  0  0  0  0  0  0  0  0  # atno 6909 bound_to 6896
  145.2397  139.2784  143.4124 H   0  0  0  0  0  0  0  0  0  0  0  0  # atno 7974 bound_to 7965
  155.8034  140.3475  155.5415 H   0  0  0  0  0  0  0  0  0  0  0  0  # atno 8008 bound_to 7997
  155.8515  140.0957  157.1692 H   0  0  0  0  0  0  0  0  0  0  0  0  # atno 8009 bound_to 7997
  154.4008  140.1375  156.3837 H   0  0  0  0  0  0  0  0  0  0  0  0  # atno 8010 bound_to 7997
  140.6836  143.6700  150.8193 H   0  0  0  0  0  0  0  0  0  0  0  0  # atno 10167 bound_to 10162
  157.2480  131.0773  151.1748 H   0  0  0  0  0  0  0  0  0  0  0  0  # atno 10718 bound_to 10713
  152.9798  135.5970  154.3791 H   0  0  0  0  0  0  0  0  0  0  0  0  # atno 10763 bound_to 10752
  154.3457  135.2767  155.2400 H   0  0  0  0  0  0  0  0  0  0  0  0  # atno 10764 bound_to 10752
  154.4462  135.6001  153.6216 H   0  0  0  0  0  0  0  0  0  0  0  0  # atno 10765 bound_to 10752
  140.3428  134.2314  155.7688 H   0  0  0  0  0  0  0  0  0  0  0  0  # atno 11005 bound_to 11000
  146.3332  140.2756  142.8608 LP  0  0  0  0  0  0  0  0  0  0  0  0  # atno 17320 bound_to 7965
  144.9601  140.8266  143.5519 LP  0  0  0  0  0  0  0  0  0  0  0  0  # atno 17321 bound_to 7965
  140.0404  143.5352  152.2720 LP  0  0  0  0  0  0  0  0  0  0  0  0  # atno 17342 bound_to 10162
  139.6177  144.7623  151.2809 LP  0  0  0  0  0  0  0  0  0  0  0  0  # atno 17343 bound_to 10162
  157.3308  130.6984  149.6323 LP  0  0  0  0  0  0  0  0  0  0  0  0  # atno 17370 bound_to 10713
  155.9667  130.4308  150.4892 LP  0  0  0  0  0  0  0  0  0  0  0  0  # atno 17371 bound_to 10713
  141.2034  133.7914  157.0342 LP  0  0  0  0  0  0  0  0  0  0  0  0  # atno 17394 bound_to 11000
  140.0767  134.9671  157.1557 LP  0  0  0  0  0  0  0  0  0  0  0  0  # atno 17395 bound_to 11000

$$$$
