AV-unprocessed.smi:2697|AV-procd|sdf|10416|dock3
  -GOLD-   2272014453D 1   1.00000     0.00000
 Structure written by MMmdl.
 32 33  0  0  0  0  0  0  0  0  2 V2000
  152.4945  143.7924  162.8222 C   0  0  0  0  0  0  0  0  0  0  0  0
  152.8296  142.8992  161.7341 N   0  0  0  0  0  0  0  0  0  0  0  0
  153.7236  141.8496  161.7315 C   0  0  0  0  0  0  0  0  0  0  0  0
  153.6798  141.3314  160.4701 C   0  0  0  0  0  0  0  0  0  0  0  0
  154.5222  140.2052  159.9495 C   0  0  0  0  0  0  0  0  0  0  0  0
  155.4550  139.7471  160.7883 N   0  0  0  0  0  0  0  0  0  0  0  0
  154.3332  139.7189  158.8366 O   0  0  0  0  0  0  0  0  0  0  0  0
  152.7367  142.1189  159.7452 C   0  0  0  0  0  0  0  0  0  0  0  0
  152.2841  142.0264  158.3054 C   0  0  1  0  0  0  0  0  0  0  0  0
  151.7681  140.6189  157.9463 C   0  0  0  0  0  0  0  0  0  0  0  0
  151.3136  140.5744  156.4789 C   0  0  0  0  0  0  0  0  0  0  0  0
  150.2825  141.6782  156.1880 C   0  0  0  0  0  0  0  0  0  0  0  0
  150.8209  143.0080  156.5487 N   0  3  0  0  0  0  0  0  0  0  0  0
  151.2319  143.1014  157.9669 C   0  0  0  0  0  0  0  0  0  0  0  0
  152.2349  143.0676  160.5292 N   0  0  0  0  0  0  0  0  0  0  0  0
  152.9241  143.4245  163.7544 H   0  0  0  0  0  0  0  0  0  0  0  0
  151.4113  143.8550  162.9326 H   0  0  0  0  0  0  0  0  0  0  0  0
  152.8922  144.7865  162.6167 H   0  0  0  0  0  0  0  0  0  0  0  0
  154.3037  141.5778  162.6013 H   0  0  0  0  0  0  0  0  0  0  0  0
  156.0611  138.9906  160.5059 H   0  0  0  0  0  0  0  0  0  0  0  0
  155.5522  140.1613  161.7042 H   0  0  0  0  0  0  0  0  0  0  0  0
  153.1407  142.2065  157.6576 H   0  0  0  0  0  0  0  0  0  0  0  0
  152.5475  139.8756  158.1175 H   0  0  0  0  0  0  0  0  0  0  0  0
  150.9307  140.3481  158.5909 H   0  0  0  0  0  0  0  0  0  0  0  0
  152.1772  140.6974  155.8239 H   0  0  0  0  0  0  0  0  0  0  0  0
  150.8887  139.5966  156.2498 H   0  0  0  0  0  0  0  0  0  0  0  0
  150.0164  141.6777  155.1309 H   0  0  0  0  0  0  0  0  0  0  0  0
  149.3643  141.4986  156.7487 H   0  0  0  0  0  0  0  0  0  0  0  0
  151.6271  143.1956  155.9695 H   0  0  0  0  0  0  0  0  0  0  0  0
  150.3498  142.9919  158.5995 H   0  0  0  0  0  0  0  0  0  0  0  0
  151.6351  144.0976  158.1508 H   0  0  0  0  0  0  0  0  0  0  0  0
  150.1175  143.7091  156.3649 H   0  0  0  0  0  0  0  0  0  0  0  0
  1  2  1  0  0  0  0
  1 16  1  0  0  0  0
  1 17  1  0  0  0  0
  1 18  1  0  0  0  0
  2 15  1  0  0  0  0
  2  3  1  0  0  0  0
  3  4  2  0  0  0  0
  3 19  1  0  0  0  0
  4  5  1  0  0  0  0
  4  8  1  0  0  0  0
  5  6  1  0  0  0  0
  5  7  2  0  0  0  0
  6 20  1  0  0  0  0
  6 21  1  0  0  0  0
  8  9  1  0  0  0  0
  8 15  2  0  0  0  0
  9 14  1  0  0  0  0
  9 10  1  0  0  0  0
  9 22  1  0  0  0  0
 10 11  1  0  0  0  0
 10 23  1  0  0  0  0
 10 24  1  0  0  0  0
 11 12  1  0  0  0  0
 11 25  1  0  0  0  0
 11 26  1  0  0  0  0
 12 13  1  0  0  0  0
 12 27  1  0  0  0  0
 12 28  1  0  0  0  0
 13 14  1  0  0  0  0
 13 29  1  0  0  0  0
 13 32  1  0  0  0  0
 14 30  1  0  0  0  0
 14 31  1  0  0  0  0
M  CHG  1  13   1
M  END
> <s_m_source_file>
AV-unprocessed.smi

> <i_m_source_file_index>
2697

> <i_lp_mmshare_version>
43012

> <i_f3d_flags>
0

> <s_epik_input>
W0NIM11uMVtjSF1jKEMoPU8pW05IMl0pYyhuMSlbQ0BASF0yW0NIMl1bQ0gyXVtDSDJdW05IXVtDSDJdMg==

> <s_epik_cmdline>
J2VwaWtfcHl0aG9uJywgJy1waCcsICc3LjAnLCAnLXRuJywgJzgnLCAnLW1hJywgJzIwMCcsICctbWV0YWxfYmluZGluZycsICctaW1hZScsICc8aW5maWxlLm1hZT4nLCAnLW9tYWUnLCAnPG91dGZpbGUubWFlPic=

> <r_lp_tautomer_probability>
1

> <r_epik_Ionization_Penalty>
0.000158942

> <r_epik_Ionization_Penalty_Charging>
0.000157527

> <r_epik_Ionization_Penalty_Neutral>
1.41498e-06

> <r_epik_State_Penalty>
-0

> <r_epik_Charging_Adjusted_Penalty>
0.000157527

> <i_epik_Tot_Q>
1

> <i_epik_Tot_abs_Q>
1

> <r_epik_Metal_State_Penalty>
-0

> <b_epik_Metal_Only>
0

> <s_lp_Force_Field>
OPLS_2005

> <r_lp_Energy>
9.94433

> <b_lp_Chiralities_Consistent>
1

> <s_lp_Variant>
AV-unprocessed.smi:2697-2

> <Gold.Version>
5.8.1

> <Gold.Id.Protein>
6NUR|6NUR_protein|mol2

> <Gold.PLP.Fitness>
42.7726

> <Gold.PLP.PLP>
-33.8683

> <Gold.PLP.part.hbond>
-2.0000

> <Gold.PLP.part.metal>
0.0000

> <Gold.PLP.part.buried>
-2.3900

> <Gold.PLP.part.nonpolar>
-29.3273

> <Gold.PLP.part.repulsive>
0.1394

> <Gold.PLP.ligand.clash>
0.0000

> <Gold.PLP.ligand.torsion>
0.0647

> <Gold.PLP.Chemscore.Hbond>
3.0000

> <Gold.PLP.Chemscore.CHOScore>
0.0000

> <Gold.PLP.Chemscore.Metal>
0.0000

> <Gold.Chemscore.Hbonds>
donor molecule, donor type, donor heavy atom, donor atom, acceptor molecule, acceptor atom, score
      L1  H    13    32       P1  8028  2.00
      P1  H  7997  8010       L1     7  1.00

> <Gold.PLP.Chemscore.Internal.Correction>
0.0337

> <Gold.Rescore>
     Score         DG    S(hbond)    S(metal)    S(lipo)     H(rot)  DE(clash)    DE(int)     intcor
     18.66     -18.97       1.99        0.00      80.28       1.00       0.21       0.11       ----

> <Gold.Chemscore.Fitness>
18.6567

> <Gold.Chemscore.DG>
-18.9740

> <Gold.Chemscore.ZeroCoef>
-5.4800

> <Gold.Chemscore.Hbond>
1.9944

> <Gold.Chemscore.Metal>
0.0000

> <Gold.Chemscore.Lipo>
80.2786

> <Gold.Chemscore.Internal_Hbond>
0.0000

> <Gold.Chemscore.DEClash>
0.2091

> <Gold.Chemscore.DEInternal>
0.1082

> <Gold.Chemscore.Rot>
1.0000

> <Gold.Chemscore.Internal.Correction>
   9.000000E+99

> <Gold.Chemscore.Hbonds>
donor molecule, donor type, donor heavy atom, donor atom, acceptor molecule, acceptor atom, score
      L1  H    13    32       P1  8028  1.00
      P1  H  7997  8010       L1     7  1.00

> <Gold.Chemscore.Hbond.Weighted>
-6.6614

> <Gold.Chemscore.Metal.Weighted>
-0.0000

> <Gold.Chemscore.Lipo.Weighted>
-9.3926

> <Gold.Chemscore.Internal_Hbond.Weighted>
0.0000

> <Gold.Chemscore.DEClash.Weighted>
0.2091

> <Gold.Chemscore.DEInternal.Weighted>
0.1082

> <Gold.Chemscore.Rot.Weighted>
2.5600

> <Gold.Chemscore.Internal.Correction.Weighted>
   9.000000E+99

> <Gold.Protein.RotatedTorsions>
[ 6907 6896 6895 6894 ] final -173.06 input  -60.11 | X-H torsion
[ 7974 7965 7964 7962 ] final  -24.17 input  175.53 | X-H torsion
[ 8008 7997 7996 7995 ] final    4.37 input   59.86 | X-H torsion
[ 10167 10162 10161 10158 ] final   81.93 input  -65.29 | X-H torsion
[ 10718 10713 10712 10709 ] final -163.26 input   66.30 | X-H torsion
[ 10763 10752 10751 10750 ] final  105.90 input  -60.55 | X-H torsion
[ 11005 11000 10999 10996 ] final   -3.69 input  -57.11 | X-H torsion

> <Gold.Protein.ActiveResidues>
 VAL166  LYS551  ARG553  GLY616  TRP617  ASP618  TYR619  PRO620  LYS621  CYS622 
 ASP623  PHE694  ASN695  SER759  ASP760  ASP761  ALA762  ILE779  LEU786  VAL792 
 PHE793  MET794  SER795  GLU796  ALA797  LYS798  CYS799  TRP800  GLU811  SER814 

> <Gold.Protein.RotatedAtoms>
  151.5501  133.3419  159.2951 H   0  0  0  0  0  0  0  0  0  0  0  0  # atno 6907 bound_to 6896
  150.8484  134.7803  159.7000 H   0  0  0  0  0  0  0  0  0  0  0  0  # atno 6908 bound_to 6896
  152.4536  134.5348  159.9873 H   0  0  0  0  0  0  0  0  0  0  0  0  # atno 6909 bound_to 6896
  146.1571  140.4716  142.8587 H   0  0  0  0  0  0  0  0  0  0  0  0  # atno 7974 bound_to 7965
  154.7151  140.2700  155.6593 H   0  0  0  0  0  0  0  0  0  0  0  0  # atno 8008 bound_to 7997
  156.2807  140.2745  156.1729 H   0  0  0  0  0  0  0  0  0  0  0  0  # atno 8009 bound_to 7997
  155.0582  140.0371  157.2557 H   0  0  0  0  0  0  0  0  0  0  0  0  # atno 8010 bound_to 7997
  139.9341  144.6132  150.8315 H   0  0  0  0  0  0  0  0  0  0  0  0  # atno 10167 bound_to 10162
  156.6222  130.8895  151.2960 H   0  0  0  0  0  0  0  0  0  0  0  0  # atno 10718 bound_to 10713
  153.3856  135.3895  155.1887 H   0  0  0  0  0  0  0  0  0  0  0  0  # atno 10763 bound_to 10752
  154.8713  135.3736  154.4802 H   0  0  0  0  0  0  0  0  0  0  0  0  # atno 10764 bound_to 10752
  153.5283  135.7086  153.5757 H   0  0  0  0  0  0  0  0  0  0  0  0  # atno 10765 bound_to 10752
  140.6721  133.9227  155.8501 H   0  0  0  0  0  0  0  0  0  0  0  0  # atno 11005 bound_to 11000
  144.7977  140.6155  143.6499 LP  0  0  0  0  0  0  0  0  0  0  0  0  # atno 17320 bound_to 7965
  145.4682  139.1506  143.3829 LP  0  0  0  0  0  0  0  0  0  0  0  0  # atno 17321 bound_to 7965
  140.7629  143.3210  151.2622 LP  0  0  0  0  0  0  0  0  0  0  0  0  # atno 17342 bound_to 10162
  139.6758  143.9941  152.2780 LP  0  0  0  0  0  0  0  0  0  0  0  0  # atno 17343 bound_to 10162
  157.7224  130.9576  150.1494 LP  0  0  0  0  0  0  0  0  0  0  0  0  # atno 17370 bound_to 10713
  156.2302  130.3681  149.8454 LP  0  0  0  0  0  0  0  0  0  0  0  0  # atno 17371 bound_to 10713
  141.0384  134.0657  157.3932 LP  0  0  0  0  0  0  0  0  0  0  0  0  # atno 17394 bound_to 11000
  139.8978  135.0152  156.7119 LP  0  0  0  0  0  0  0  0  0  0  0  0  # atno 17395 bound_to 11000

$$$$
