AV-unprocessed.smi:158|AV-procd|sdf|1331|dock7
  -GOLD-   2262019 23D 1   1.00000     0.00000
 Structure written by MMmdl.
 31 33  0  0  0  0  0  0  0  0  1 V2000
  144.3680  141.8303  154.9862 N   0  0  0  0  0  0  0  0  0  0  0  0
  145.5381  141.9666  155.6256 C   0  0  0  0  0  0  0  0  0  0  0  0
  145.5512  142.6135  156.8141 N   0  0  0  0  0  0  0  0  0  0  0  0
  146.6988  142.7686  157.4849 C   0  0  0  0  0  0  0  0  0  0  0  0
  146.6050  143.6053  158.9893 Cl  0  0  0  0  0  0  0  0  0  0  0  0
  147.9134  142.3471  157.1195 N   0  0  0  0  0  0  0  0  0  0  0  0
  147.9084  141.6950  155.9215 C   0  0  0  0  0  0  0  0  0  0  0  0
  146.7605  141.4644  155.1159 C   0  0  0  0  0  0  0  0  0  0  0  0
  147.1174  140.7709  153.9684 N   0  0  0  0  0  0  0  0  0  0  0  0
  148.4063  140.6028  154.0934 C   0  0  0  0  0  0  0  0  0  0  0  0
  148.9673  141.1286  155.2370 N   0  0  0  0  0  0  0  0  0  0  0  0
  150.4136  141.0868  155.6267 C   0  0  2  0  0  0  0  0  0  0  0  0
  151.1126  140.2966  154.7075 O   0  0  0  0  0  0  0  0  0  0  0  0
  151.8191  139.2586  155.3869 C   0  0  2  0  0  0  0  0  0  0  0  0
  151.9646  138.0316  154.4718 C   0  0  0  0  0  0  0  0  0  0  0  0
  150.7237  137.7025  153.8840 O   0  0  0  0  0  0  0  0  0  0  0  0
  150.9904  139.0301  156.6534 C   0  0  1  0  0  0  0  0  0  0  0  0
  151.7092  138.4132  157.7024 O   0  0  0  0  0  0  0  0  0  0  0  0
  150.5777  140.4473  157.0095 C   0  0  1  0  0  0  0  0  0  0  0  0
  151.5629  141.0943  157.6374 F   0  0  0  0  0  0  0  0  0  0  0  0
  150.7368  142.1278  155.5829 H   0  0  0  0  0  0  0  0  0  0  0  0
  152.8025  139.6558  155.6463 H   0  0  0  0  0  0  0  0  0  0  0  0
  150.1066  138.4328  156.4304 H   0  0  0  0  0  0  0  0  0  0  0  0
  149.6752  140.5187  157.6180 H   0  0  0  0  0  0  0  0  0  0  0  0
  144.3338  141.3505  154.0981 H   0  0  0  0  0  0  0  0  0  0  0  0
  143.5235  142.2046  155.3940 H   0  0  0  0  0  0  0  0  0  0  0  0
  148.9903  140.0875  153.3446 H   0  0  0  0  0  0  0  0  0  0  0  0
  152.7036  138.2029  153.6896 H   0  0  0  0  0  0  0  0  0  0  0  0
  152.3032  137.1729  155.0518 H   0  0  0  0  0  0  0  0  0  0  0  0
  150.8867  137.1926  153.1051 H   0  0  0  0  0  0  0  0  0  0  0  0
  151.1182  138.2780  158.4280 H   0  0  0  0  0  0  0  0  0  0  0  0
  1  2  1  0  0  0  0
  1 25  1  0  0  0  0
  1 26  1  0  0  0  0
  2  8  1  0  0  0  0
  2  3  2  0  0  0  0
  3  4  1  0  0  0  0
  4  5  1  0  0  0  0
  4  6  2  0  0  0  0
  6  7  1  0  0  0  0
  7 11  1  0  0  0  0
  7  8  2  0  0  0  0
  8  9  1  0  0  0  0
  9 10  2  0  0  0  0
 10 11  1  0  0  0  0
 10 27  1  0  0  0  0
 11 12  1  0  0  0  0
 12 21  1  0  0  0  0
 12 19  1  0  0  0  0
 12 13  1  0  0  0  0
 13 14  1  0  0  0  0
 14 22  1  0  0  0  0
 14 15  1  0  0  0  0
 14 17  1  0  0  0  0
 15 16  1  0  0  0  0
 15 28  1  0  0  0  0
 15 29  1  0  0  0  0
 16 30  1  0  0  0  0
 17 23  1  0  0  0  0
 17 18  1  0  0  0  0
 17 19  1  0  0  0  0
 18 31  1  0  0  0  0
 19 24  1  0  0  0  0
 19 20  1  0  0  0  0
M  END
> <s_m_source_file>
AV-unprocessed.smi

> <i_m_source_file_index>
158

> <i_lp_mmshare_version>
43012

> <i_f3d_flags>
0

> <s_epik_input>
Q2xjKG4xKW5jKFtOSDJdKWMoYzEyKW5bY0hdbjJbQ0BASF0zT1tDQEhdKFtDSDJdW09IXSlbQ0BASF0oW09IXSlbQ0BASF0zRg==

> <s_epik_cmdline>
J2VwaWtfcHl0aG9uJywgJy1waCcsICc3LjAnLCAnLXRuJywgJzgnLCAnLW1hJywgJzIwMCcsICctbWV0YWxfYmluZGluZycsICctaW1hZScsICc8aW5maWxlLm1hZT4nLCAnLW9tYWUnLCAnPG91dGZpbGUubWFlPic=

> <r_lp_tautomer_probability>
1

> <r_epik_Ionization_Penalty>
6.51543e-05

> <r_epik_Ionization_Penalty_Charging>
0

> <r_epik_Ionization_Penalty_Neutral>
6.51543e-05

> <r_epik_State_Penalty>
-0

> <r_epik_Charging_Adjusted_Penalty>
0

> <i_epik_Tot_Q>
0

> <i_epik_Tot_abs_Q>
0

> <r_epik_Metal_State_Penalty>
-0

> <b_epik_Metal_Only>
0

> <s_epik_Chemistry_Notes>
This compound contains an acetal/aminal-like group ( X-CH(R)-Y where X, Y are N, S, or O) that may be acid/base labile, releasing an aldehyde.

> <s_lp_Force_Field>
OPLS_2005

> <r_lp_Energy>
33.8646

> <b_lp_Chiralities_Consistent>
1

> <s_lp_Variant>
AV-unprocessed.smi:158-9

> <Gold.Version>
5.8.1

> <Gold.Id.Protein>
6NUR|6NUR_protein|mol2

> <Gold.PLP.Fitness>
39.8303

> <Gold.PLP.PLP>
-28.7890

> <Gold.PLP.part.hbond>
-3.4641

> <Gold.PLP.part.metal>
0.0000

> <Gold.PLP.part.buried>
-4.1435

> <Gold.PLP.part.nonpolar>
-21.2518

> <Gold.PLP.part.repulsive>
0.7762

> <Gold.PLP.ligand.clash>
0.0000

> <Gold.PLP.ligand.torsion>
0.1039

> <Gold.PLP.Chemscore.Hbond>
2.7475

> <Gold.PLP.Chemscore.CHOScore>
1.0000

> <Gold.PLP.Chemscore.Metal>
0.0000

> <Gold.Chemscore.Hbonds>
donor molecule, donor type, donor heavy atom, donor atom, acceptor molecule, acceptor atom, score
      L1  H     1    25       P1 10175  1.00
      L1  H    16    30       P1  7949  0.89
      P1  H  7989  7998       L1    13  0.76
      L1  C    10    27       P1  7957  1.00

> <Gold.PLP.Chemscore.Internal.Correction>
0.0065

> <Gold.Rescore>
     Score         DG    S(hbond)    S(metal)    S(lipo)     H(rot)  DE(clash)    DE(int)     intcor
      9.32      -9.49       2.53        0.00      30.36       3.12       0.05       0.12       ----

> <Gold.Chemscore.Fitness>
9.3206

> <Gold.Chemscore.DG>
-9.4865

> <Gold.Chemscore.ZeroCoef>
-5.4800

> <Gold.Chemscore.Hbond>
2.5298

> <Gold.Chemscore.Metal>
0.0000

> <Gold.Chemscore.Lipo>
30.3584

> <Gold.Chemscore.Internal_Hbond>
0.0000

> <Gold.Chemscore.DEClash>
0.0509

> <Gold.Chemscore.DEInternal>
0.1151

> <Gold.Chemscore.Rot>
3.1230

> <Gold.Chemscore.Internal.Correction>
   9.000000E+99

> <Gold.Chemscore.Hbonds>
donor molecule, donor type, donor heavy atom, donor atom, acceptor molecule, acceptor atom, score
      L1  H     1    25       P1 10175  0.44
      L1  H    16    30       P1  7949  0.17
      P1  H  7989  7998       L1    13  0.72

> <Gold.Chemscore.Hbond.Weighted>
-8.4496

> <Gold.Chemscore.Metal.Weighted>
-0.0000

> <Gold.Chemscore.Lipo.Weighted>
-3.5519

> <Gold.Chemscore.Internal_Hbond.Weighted>
0.0000

> <Gold.Chemscore.DEClash.Weighted>
0.0509

> <Gold.Chemscore.DEInternal.Weighted>
0.1151

> <Gold.Chemscore.Rot.Weighted>
7.9950

> <Gold.Chemscore.Internal.Correction.Weighted>
   9.000000E+99

> <Gold.Protein.RotatedTorsions>
[ 6907 6896 6895 6894 ] final    9.91 input  -60.11 | X-H torsion
[ 7974 7965 7964 7962 ] final   32.91 input  175.53 | X-H torsion
[ 8008 7997 7996 7995 ] final   85.36 input   59.86 | X-H torsion
[ 10167 10162 10161 10158 ] final -166.97 input  -65.29 | X-H torsion
[ 10718 10713 10712 10709 ] final  177.58 input   66.30 | X-H torsion
[ 10763 10752 10751 10750 ] final -110.64 input  -60.55 | X-H torsion
[ 11005 11000 10999 10996 ] final   38.29 input  -57.11 | X-H torsion

> <Gold.Protein.ActiveResidues>
 VAL166  LYS551  ARG553  GLY616  TRP617  ASP618  TYR619  PRO620  LYS621  CYS622 
 ASP623  PHE694  ASN695  SER759  ASP760  ASP761  ALA762  ILE779  LEU786  VAL792 
 PHE793  MET794  SER795  GLU796  ALA797  LYS798  CYS799  TRP800  GLU811  SER814 

> <Gold.Protein.RotatedAtoms>
  151.7298  135.0877  160.0297 H   0  0  0  0  0  0  0  0  0  0  0  0  # atno 6907 bound_to 6896
  152.3548  133.6220  159.5980 H   0  0  0  0  0  0  0  0  0  0  0  0  # atno 6908 bound_to 6896
  150.7564  133.9433  159.3504 H   0  0  0  0  0  0  0  0  0  0  0  0  # atno 6909 bound_to 6896
  146.1456  139.6465  142.9134 H   0  0  0  0  0  0  0  0  0  0  0  0  # atno 7974 bound_to 7965
  155.9490  140.3402  155.6391 H   0  0  0  0  0  0  0  0  0  0  0  0  # atno 8008 bound_to 7997
  155.6944  140.0753  157.2453 H   0  0  0  0  0  0  0  0  0  0  0  0  # atno 8009 bound_to 7997
  154.4118  140.1651  156.2109 H   0  0  0  0  0  0  0  0  0  0  0  0  # atno 8010 bound_to 7997
  139.6080  144.0874  152.1812 H   0  0  0  0  0  0  0  0  0  0  0  0  # atno 10167 bound_to 10162
  156.9033  130.9886  151.3032 H   0  0  0  0  0  0  0  0  0  0  0  0  # atno 10718 bound_to 10713
  154.8259  135.4556  154.0917 H   0  0  0  0  0  0  0  0  0  0  0  0  # atno 10763 bound_to 10752
  153.2232  135.6896  153.7982 H   0  0  0  0  0  0  0  0  0  0  0  0  # atno 10764 bound_to 10752
  153.7392  135.3315  155.3277 H   0  0  0  0  0  0  0  0  0  0  0  0  # atno 10765 bound_to 10752
  140.2141  134.3720  155.8035 H   0  0  0  0  0  0  0  0  0  0  0  0  # atno 11005 bound_to 11000
  145.4946  141.0438  143.2574 LP  0  0  0  0  0  0  0  0  0  0  0  0  # atno 17320 bound_to 7965
  144.7842  139.6462  143.7141 LP  0  0  0  0  0  0  0  0  0  0  0  0  # atno 17321 bound_to 7965
  140.0485  144.5951  150.7354 LP  0  0  0  0  0  0  0  0  0  0  0  0  # atno 17342 bound_to 10162
  140.7298  143.2677  151.3991 LP  0  0  0  0  0  0  0  0  0  0  0  0  # atno 17343 bound_to 10162
  157.6013  130.8514  149.8806 LP  0  0  0  0  0  0  0  0  0  0  0  0  # atno 17370 bound_to 10713
  156.0571  130.3706  150.1065 LP  0  0  0  0  0  0  0  0  0  0  0  0  # atno 17371 bound_to 10713
  141.2225  133.7158  156.8466 LP  0  0  0  0  0  0  0  0  0  0  0  0  # atno 17394 bound_to 11000
  140.1920  134.8959  157.3071 LP  0  0  0  0  0  0  0  0  0  0  0  0  # atno 17395 bound_to 11000

$$$$
