AV-unprocessed.smi:634|AV-procd|sdf|3134|dock10
  -GOLD-   22720 0 63D 1   1.00000     0.00000
 Structure written by MMmdl.
 33 34  0  0  0  0  0  0  0  0  1 V2000
  146.9345  129.5911  152.6133 C   0  0  0  0  0  0  0  0  0  0  0  0
  147.5663  130.8149  153.1828 C   0  0  0  0  0  0  0  0  0  0  0  0
  147.3591  132.1504  152.9793 C   0  0  0  0  0  0  0  0  0  0  0  0
  148.3079  132.7570  153.8449 C   0  0  0  0  0  0  0  0  0  0  0  0
  148.4159  134.1687  153.9330 N   0  0  0  0  0  0  0  0  0  0  0  0
  148.4539  134.9198  155.0469 C   0  0  0  0  0  0  0  0  0  0  0  0
  148.4153  134.4799  156.1960 O   0  0  0  0  0  0  0  0  0  0  0  0
  148.5409  136.2263  154.7454 N   0  0  0  0  0  0  0  0  0  0  0  0
  148.6022  137.3711  155.6655 C   0  0  2  0  0  0  0  0  0  0  0  0
  147.2769  137.5087  156.4453 C   0  0  0  0  0  0  0  0  0  0  0  0
  148.8374  138.6364  154.8053 C   0  0  0  0  0  0  0  0  0  0  0  0
  150.3022  138.6910  154.3556 C   0  0  0  0  0  0  0  0  0  0  0  0
  151.2635  137.9515  155.7242 S   0  0  0  0  0  0  0  0  0  0  0  0
  152.0839  136.8534  155.1911 O   0  0  0  0  0  0  0  0  0  0  0  0
  151.8632  139.0199  156.5377 O   0  0  0  0  0  0  0  0  0  0  0  0
  149.8179  137.2607  156.6172 C   0  0  0  0  0  0  0  0  0  0  0  0
  149.0290  131.8719  154.5160 N   0  0  0  0  0  0  0  0  0  0  0  0
  148.5578  130.6230  154.0946 O   0  0  0  0  0  0  0  0  0  0  0  0
  145.9912  129.8317  152.1226 H   0  0  0  0  0  0  0  0  0  0  0  0
  146.7304  128.8599  153.3955 H   0  0  0  0  0  0  0  0  0  0  0  0
  147.5899  129.1257  151.8774 H   0  0  0  0  0  0  0  0  0  0  0  0
  146.6431  132.6145  152.3172 H   0  0  0  0  0  0  0  0  0  0  0  0
  148.4616  134.6594  153.0525 H   0  0  0  0  0  0  0  0  0  0  0  0
  148.5677  136.4613  153.7639 H   0  0  0  0  0  0  0  0  0  0  0  0
  147.2681  138.4134  157.0539 H   0  0  0  0  0  0  0  0  0  0  0  0
  147.1114  136.6710  157.1227 H   0  0  0  0  0  0  0  0  0  0  0  0
  146.4232  137.5622  155.7689 H   0  0  0  0  0  0  0  0  0  0  0  0
  148.1574  138.6897  153.9541 H   0  0  0  0  0  0  0  0  0  0  0  0
  148.6402  139.5215  155.4116 H   0  0  0  0  0  0  0  0  0  0  0  0
  150.4598  138.0828  153.4649 H   0  0  0  0  0  0  0  0  0  0  0  0
  150.6502  139.7038  154.1530 H   0  0  0  0  0  0  0  0  0  0  0  0
  149.6662  137.8772  157.5037 H   0  0  0  0  0  0  0  0  0  0  0  0
  150.0395  136.2494  156.9572 H   0  0  0  0  0  0  0  0  0  0  0  0
  1  2  1  0  0  0  0
  1 19  1  0  0  0  0
  1 20  1  0  0  0  0
  1 21  1  0  0  0  0
  2 18  1  0  0  0  0
  2  3  2  0  0  0  0
  3  4  1  0  0  0  0
  3 22  1  0  0  0  0
  4  5  1  0  0  0  0
  4 17  2  0  0  0  0
  5  6  1  0  0  0  0
  5 23  1  0  0  0  0
  6  7  2  0  0  0  0
  6  8  1  0  0  0  0
  8  9  1  0  0  0  0
  8 24  1  0  0  0  0
  9 16  1  0  0  0  0
  9 10  1  0  0  0  0
  9 11  1  0  0  0  0
 10 25  1  0  0  0  0
 10 26  1  0  0  0  0
 10 27  1  0  0  0  0
 11 12  1  0  0  0  0
 11 28  1  0  0  0  0
 11 29  1  0  0  0  0
 12 13  1  0  0  0  0
 12 30  1  0  0  0  0
 12 31  1  0  0  0  0
 13 14  2  0  0  0  0
 13 15  2  0  0  0  0
 13 16  1  0  0  0  0
 16 32  1  0  0  0  0
 16 33  1  0  0  0  0
 17 18  1  0  0  0  0
M  END
> <s_m_source_file>
AV-unprocessed.smi

> <i_m_source_file_index>
634

> <i_lp_mmshare_version>
43012

> <i_f3d_flags>
0

> <s_epik_input>
W0NIM11jMVtjSF1jKG5vMSlbTkhdQyg9TylbTkhdW0NAQF0yKFtDSDNdKVtDSDJdW0NIMl1TKD1PKSg9TylbQ0gyXTI=

> <s_epik_cmdline>
J2VwaWtfcHl0aG9uJywgJy1waCcsICc3LjAnLCAnLXRuJywgJzgnLCAnLW1hJywgJzIwMCcsICctbWV0YWxfYmluZGluZycsICctaW1hZScsICc8aW5maWxlLm1hZT4nLCAnLW9tYWUnLCAnPG91dGZpbGUubWFlPic=

> <r_lp_tautomer_probability>
1

> <r_epik_Ionization_Penalty>
3.87281e-05

> <r_epik_Ionization_Penalty_Charging>
0

> <r_epik_Ionization_Penalty_Neutral>
3.87281e-05

> <r_epik_State_Penalty>
-0

> <r_epik_Charging_Adjusted_Penalty>
0

> <i_epik_Tot_Q>
0

> <i_epik_Tot_abs_Q>
0

> <r_epik_Metal_State_Penalty>
0.0249287

> <b_epik_Metal_Only>
0

> <s_lp_Force_Field>
OPLS_2005

> <r_lp_Energy>
3.31823

> <b_lp_Chiralities_Consistent>
1

> <s_lp_Variant>
AV-unprocessed.smi:634-2

> <Gold.Version>
5.8.1

> <Gold.Id.Protein>
6NUR|6NUR_protein|mol2

> <Gold.PLP.Fitness>
27.9938

> <Gold.PLP.PLP>
-20.2532

> <Gold.PLP.part.hbond>
-2.6423

> <Gold.PLP.part.metal>
0.0000

> <Gold.PLP.part.buried>
-4.3333

> <Gold.PLP.part.nonpolar>
-14.0830

> <Gold.PLP.part.repulsive>
0.2286

> <Gold.PLP.ligand.clash>
0.0000

> <Gold.PLP.ligand.torsion>
0.4566

> <Gold.PLP.Chemscore.Hbond>
2.8800

> <Gold.PLP.Chemscore.CHOScore>
0.0000

> <Gold.PLP.Chemscore.Metal>
0.0000

> <Gold.Chemscore.Hbonds>
donor molecule, donor type, donor heavy atom, donor atom, acceptor molecule, acceptor atom, score
      L1  H     5    23       P1  7948  1.00
      L1  H     8    24       P1  7948  1.00
      P1  H 10752 10763       L1    14  0.86

> <Gold.PLP.Chemscore.Internal.Correction>
0.0139

> <Gold.Rescore>
     Score         DG    S(hbond)    S(metal)    S(lipo)     H(rot)  DE(clash)    DE(int)     intcor
     15.09     -15.47       2.56        0.00      34.29       1.00       0.00       0.38       ----

> <Gold.Chemscore.Fitness>
15.0887

> <Gold.Chemscore.DG>
-15.4719

> <Gold.Chemscore.ZeroCoef>
-5.4800

> <Gold.Chemscore.Hbond>
2.5569

> <Gold.Chemscore.Metal>
0.0000

> <Gold.Chemscore.Lipo>
34.2884

> <Gold.Chemscore.Internal_Hbond>
0.0000

> <Gold.Chemscore.DEClash>
0.0000

> <Gold.Chemscore.DEInternal>
0.3832

> <Gold.Chemscore.Rot>
1.0000

> <Gold.Chemscore.Internal.Correction>
   9.000000E+99

> <Gold.Chemscore.Hbonds>
donor molecule, donor type, donor heavy atom, donor atom, acceptor molecule, acceptor atom, score
      L1  H     5    23       P1  7948  0.42
      L1  H     8    24       P1  7948  0.98
      P1  H 10752 10763       L1    14  0.85

> <Gold.Chemscore.Hbond.Weighted>
-8.5401

> <Gold.Chemscore.Metal.Weighted>
-0.0000

> <Gold.Chemscore.Lipo.Weighted>
-4.0117

> <Gold.Chemscore.Internal_Hbond.Weighted>
0.0000

> <Gold.Chemscore.DEClash.Weighted>
0.0000

> <Gold.Chemscore.DEInternal.Weighted>
0.3832

> <Gold.Chemscore.Rot.Weighted>
2.5600

> <Gold.Chemscore.Internal.Correction.Weighted>
   9.000000E+99

> <Gold.Protein.RotatedTorsions>
[ 6907 6896 6895 6894 ] final  146.47 input  -60.11 | X-H torsion
[ 7974 7965 7964 7962 ] final   46.58 input  175.53 | X-H torsion
[ 8008 7997 7996 7995 ] final  166.12 input   59.86 | X-H torsion
[ 10167 10162 10161 10158 ] final -142.27 input  -65.29 | X-H torsion
[ 10718 10713 10712 10709 ] final  -64.34 input   66.30 | X-H torsion
[ 10763 10752 10751 10750 ] final   49.25 input  -60.55 | X-H torsion
[ 11005 11000 10999 10996 ] final  -25.56 input  -57.11 | X-H torsion

> <Gold.Protein.ActiveResidues>
 VAL166  LYS551  ARG553  GLY616  TRP617  ASP618  TYR619  PRO620  LYS621  CYS622 
 ASP623  PHE694  ASN695  SER759  ASP760  ASP761  ALA762  ILE779  LEU786  VAL792 
 PHE793  MET794  SER795  GLU796  ALA797  LYS798  CYS799  TRP800  GLU811  SER814 

> <Gold.Protein.RotatedAtoms>
  152.1674  133.4621  159.4891 H   0  0  0  0  0  0  0  0  0  0  0  0  # atno 6907 bound_to 6896
  150.6915  134.1996  159.4326 H   0  0  0  0  0  0  0  0  0  0  0  0  # atno 6908 bound_to 6896
  151.9901  134.9983  160.0612 H   0  0  0  0  0  0  0  0  0  0  0  0  # atno 6909 bound_to 6896
  146.0377  139.4841  142.9798 H   0  0  0  0  0  0  0  0  0  0  0  0  # atno 7974 bound_to 7965
  156.1744  140.1652  156.8388 H   0  0  0  0  0  0  0  0  0  0  0  0  # atno 8008 bound_to 7997
  154.5291  140.0761  156.8347 H   0  0  0  0  0  0  0  0  0  0  0  0  # atno 8009 bound_to 7997
  155.3443  140.3386  155.4241 H   0  0  0  0  0  0  0  0  0  0  0  0  # atno 8010 bound_to 7997
  139.8105  143.7709  152.2663 H   0  0  0  0  0  0  0  0  0  0  0  0  # atno 10167 bound_to 10162
  156.0735  130.4232  150.1406 H   0  0  0  0  0  0  0  0  0  0  0  0  # atno 10718 bound_to 10713
  152.9787  135.5917  154.4059 H   0  0  0  0  0  0  0  0  0  0  0  0  # atno 10763 bound_to 10752
  154.3699  135.2767  155.2274 H   0  0  0  0  0  0  0  0  0  0  0  0  # atno 10764 bound_to 10752
  154.4234  135.6053  153.6078 H   0  0  0  0  0  0  0  0  0  0  0  0  # atno 10765 bound_to 10752
  140.8948  133.7563  156.0468 H   0  0  0  0  0  0  0  0  0  0  0  0  # atno 11005 bound_to 11000
  145.6937  141.0157  143.1541 LP  0  0  0  0  0  0  0  0  0  0  0  0  # atno 17320 bound_to 7965
  144.7059  139.8563  143.7430 LP  0  0  0  0  0  0  0  0  0  0  0  0  # atno 17321 bound_to 7965
  139.7857  144.7428  151.0025 LP  0  0  0  0  0  0  0  0  0  0  0  0  # atno 17342 bound_to 10162
  140.7818  143.4495  151.0434 LP  0  0  0  0  0  0  0  0  0  0  0  0  # atno 17343 bound_to 10162
  156.9452  130.9757  151.3509 LP  0  0  0  0  0  0  0  0  0  0  0  0  # atno 17370 bound_to 10713
  157.5819  130.8382  149.8534 LP  0  0  0  0  0  0  0  0  0  0  0  0  # atno 17371 bound_to 10713
  140.8302  134.3187  157.5351 LP  0  0  0  0  0  0  0  0  0  0  0  0  # atno 17394 bound_to 11000
  139.8734  134.9359  156.3645 LP  0  0  0  0  0  0  0  0  0  0  0  0  # atno 17395 bound_to 11000

$$$$
