AV-unprocessed.smi:560|AV-procd|sdf|2932|dock6
  -GOLD-   2262023423D 1   1.00000     0.00000
 Structure written by MMmdl.
 41 42  0  0  0  0  0  0  0  0  3 V2000
  150.0733  141.1325  157.4894 C   0  0  0  0  0  0  0  0  0  0  0  0
  151.4251  140.4269  157.2756 C   0  0  2  0  0  0  0  0  0  0  0  0
  151.2893  138.8998  157.1772 C   0  0  0  0  0  0  0  0  0  0  0  0
  152.0871  138.1589  157.7532 O   0  0  0  0  0  0  0  0  0  0  0  0
  150.2720  138.4421  156.4302 N   0  0  0  0  0  0  0  0  0  0  0  0
  149.9825  137.0353  156.1709 C   0  0  2  0  0  0  0  0  0  0  0  0
  150.9908  136.4751  155.1551 C   0  0  0  0  0  0  0  0  0  0  0  0
  150.6676  135.0151  154.7972 C   0  0  0  0  0  0  0  0  0  0  0  0
  149.2783  134.8842  154.2814 N   0  3  1  0  0  0  0  0  0  0  0  0
  148.9581  133.5172  153.7965 C   0  0  0  0  0  0  0  0  0  0  0  0
  147.5012  133.4373  153.3288 C   0  0  0  0  0  0  0  0  0  0  0  0
  147.2277  134.3189  152.3459 N   0  5  0  0  0  0  0  0  0  0  0  0
  146.7400  132.6243  153.8480 O   0  0  0  0  0  0  0  0  0  0  0  0
  148.2810  135.3856  155.2599 C   0  0  0  0  0  0  0  0  0  0  0  0
  148.5530  136.8534  155.6280 C   0  0  0  0  0  0  0  0  0  0  0  0
  152.3720  140.7792  158.3253 N   0  0  0  0  0  0  0  0  0  0  0  0
  152.2056  141.6481  159.3865 C   0  0  0  0  0  0  0  0  0  0  0  0
  153.3664  141.6436  160.1050 C   0  0  0  0  0  0  0  0  0  0  0  0
  154.1975  140.7311  159.3979 C   0  0  0  0  0  0  0  0  0  0  0  0
  153.6000  140.2146  158.3361 N   0  0  0  0  0  0  0  0  0  0  0  0
  149.3654  140.8782  156.6998 H   0  0  0  0  0  0  0  0  0  0  0  0
  150.1965  142.2159  157.4806 H   0  0  0  0  0  0  0  0  0  0  0  0
  149.6190  140.8616  158.4433 H   0  0  0  0  0  0  0  0  0  0  0  0
  151.8265  140.7795  156.3232 H   0  0  0  0  0  0  0  0  0  0  0  0
  149.6672  139.1217  155.9906 H   0  0  0  0  0  0  0  0  0  0  0  0
  150.0859  136.4751  157.1025 H   0  0  0  0  0  0  0  0  0  0  0  0
  150.9799  137.0795  154.2466 H   0  0  0  0  0  0  0  0  0  0  0  0
  152.0029  136.5397  155.5565 H   0  0  0  0  0  0  0  0  0  0  0  0
  151.3815  134.6665  154.0506 H   0  0  0  0  0  0  0  0  0  0  0  0
  150.7929  134.3780  155.6741 H   0  0  0  0  0  0  0  0  0  0  0  0
  149.6371  133.2296  152.9920 H   0  0  0  0  0  0  0  0  0  0  0  0
  149.0970  132.7861  154.5953 H   0  0  0  0  0  0  0  0  0  0  0  0
  147.8997  135.0692  152.1470 H   0  0  0  0  0  0  0  0  0  0  0  0
  147.2785  135.3046  154.8379 H   0  0  0  0  0  0  0  0  0  0  0  0
  148.3014  134.7608  156.1544 H   0  0  0  0  0  0  0  0  0  0  0  0
  147.8215  137.1844  156.3660 H   0  0  0  0  0  0  0  0  0  0  0  0
  148.4082  137.4804  154.7470 H   0  0  0  0  0  0  0  0  0  0  0  0
  151.2838  142.1901  159.5403 H   0  0  0  0  0  0  0  0  0  0  0  0
  153.5881  142.2072  160.9990 H   0  0  0  0  0  0  0  0  0  0  0  0
  155.2099  140.4300  159.6236 H   0  0  0  0  0  0  0  0  0  0  0  0
  149.2073  135.4805  153.4686 H   0  0  0  0  0  0  0  0  0  0  0  0
  1  2  1  0  0  0  0
  1 21  1  0  0  0  0
  1 22  1  0  0  0  0
  1 23  1  0  0  0  0
  2  3  1  0  0  0  0
  2 16  1  0  0  0  0
  2 24  1  0  0  0  0
  3  4  2  0  0  0  0
  3  5  1  0  0  0  0
  5  6  1  0  0  0  0
  5 25  1  0  0  0  0
  6 15  1  0  0  0  0
  6  7  1  0  0  0  0
  6 26  1  0  0  0  0
  7  8  1  0  0  0  0
  7 27  1  0  0  0  0
  7 28  1  0  0  0  0
  8  9  1  0  0  0  0
  8 29  1  0  0  0  0
  8 30  1  0  0  0  0
  9 10  1  0  0  0  0
  9 14  1  0  0  0  0
  9 41  1  0  0  0  0
 10 11  1  0  0  0  0
 10 31  1  0  0  0  0
 10 32  1  0  0  0  0
 11 12  1  0  0  0  0
 11 13  2  0  0  0  0
 12 33  1  0  0  0  0
 14 15  1  0  0  0  0
 14 34  1  0  0  0  0
 14 35  1  0  0  0  0
 15 36  1  0  0  0  0
 15 37  1  0  0  0  0
 16 20  1  0  0  0  0
 16 17  1  0  0  0  0
 17 18  2  0  0  0  0
 17 38  1  0  0  0  0
 18 19  1  0  0  0  0
 18 39  1  0  0  0  0
 19 20  2  0  0  0  0
 19 40  1  0  0  0  0
M  CHG  1   9   1
M  CHG  1  12  -1
M  END
> <s_m_source_file>
AV-unprocessed.smi

> <i_m_source_file_index>
560

> <i_lp_mmshare_version>
43012

> <i_f3d_flags>
0

> <s_epik_input>
bjFbY0hdW2NIXVtjSF1uMVtDQEhdKFtDSDNdKUMoPU8pW05IXVtDSF0yW0NIMl1bQ0gyXU4oW0NIMl1bQ0gyXTIpW0NIMl1DKD1PKVtOSDJd

> <s_epik_cmdline>
J2VwaWtfcHl0aG9uJywgJy1waCcsICc3LjAnLCAnLXRuJywgJzgnLCAnLW1hJywgJzIwMCcsICctbWV0YWxfYmluZGluZycsICctaW1hZScsICc8aW5maWxlLm1hZT4nLCAnLW9tYWUnLCAnPG91dGZpbGUubWFlPic=

> <r_lp_tautomer_probability>
1

> <r_epik_Ionization_Penalty>
5.71084

> <r_epik_Ionization_Penalty_Charging>
5.71081

> <r_epik_Ionization_Penalty_Neutral>
3.04611e-05

> <r_epik_State_Penalty>
6.71277

> <r_epik_Charging_Adjusted_Penalty>
12.4236

> <i_epik_Tot_Q>
0

> <i_epik_Tot_abs_Q>
2

> <r_epik_Metal_State_Penalty>
2.67562

> <b_epik_Metal_Only>
1

> <s_lp_Force_Field>
OPLS_2005

> <r_lp_Energy>
10.6989

> <b_lp_Chiralities_Consistent>
1

> <s_lp_Variant>
AV-unprocessed.smi:560-7

> <Gold.Version>
5.8.1

> <Gold.Id.Protein>
6NUR|6NUR_protein|mol2

> <Gold.PLP.Fitness>
37.5268

> <Gold.PLP.PLP>
-26.8103

> <Gold.PLP.part.hbond>
-3.0000

> <Gold.PLP.part.metal>
0.0000

> <Gold.PLP.part.buried>
-3.5493

> <Gold.PLP.part.nonpolar>
-19.9769

> <Gold.PLP.part.repulsive>
0.1009

> <Gold.PLP.ligand.clash>
0.0000

> <Gold.PLP.ligand.torsion>
0.6496

> <Gold.PLP.Chemscore.Hbond>
3.9760

> <Gold.PLP.Chemscore.CHOScore>
0.0000

> <Gold.PLP.Chemscore.Metal>
0.0000

> <Gold.Chemscore.Hbonds>
donor molecule, donor type, donor heavy atom, donor atom, acceptor molecule, acceptor atom, score
      L1  H     9    41       P1  7948  2.00
      L1  H    12    33       P1  7948  1.00
      P1  H  7997  8010       L1    20  0.91

> <Gold.PLP.Chemscore.Internal.Correction>
0.0876

> <Gold.Rescore>
     Score         DG    S(hbond)    S(metal)    S(lipo)     H(rot)  DE(clash)    DE(int)     intcor
     12.70     -14.88       2.80        0.00      54.61       2.47       0.00       2.18       ----

> <Gold.Chemscore.Fitness>
12.7015

> <Gold.Chemscore.DG>
-14.8832

> <Gold.Chemscore.ZeroCoef>
-5.4800

> <Gold.Chemscore.Hbond>
2.7980

> <Gold.Chemscore.Metal>
0.0000

> <Gold.Chemscore.Lipo>
54.6141

> <Gold.Chemscore.Internal_Hbond>
0.0000

> <Gold.Chemscore.DEClash>
0.0000

> <Gold.Chemscore.DEInternal>
2.1817

> <Gold.Chemscore.Rot>
2.4734

> <Gold.Chemscore.Internal.Correction>
   9.000000E+99

> <Gold.Chemscore.Hbonds>
donor molecule, donor type, donor heavy atom, donor atom, acceptor molecule, acceptor atom, score
      L1  H     9    41       P1  7948  0.45
      L1  H    12    33       P1  7948  0.78
      P1  H  7997  8010       L1    20  0.73

> <Gold.Chemscore.Hbond.Weighted>
-9.3452

> <Gold.Chemscore.Metal.Weighted>
-0.0000

> <Gold.Chemscore.Lipo.Weighted>
-6.3899

> <Gold.Chemscore.Internal_Hbond.Weighted>
0.0000

> <Gold.Chemscore.DEClash.Weighted>
0.0000

> <Gold.Chemscore.DEInternal.Weighted>
2.1817

> <Gold.Chemscore.Rot.Weighted>
6.3318

> <Gold.Chemscore.Internal.Correction.Weighted>
   9.000000E+99

> <Gold.Protein.RotatedTorsions>
[ 6907 6896 6895 6894 ] final   64.90 input  -60.11 | X-H torsion
[ 7974 7965 7964 7962 ] final  148.42 input  175.53 | X-H torsion
[ 8008 7997 7996 7995 ] final   32.00 input   59.86 | X-H torsion
[ 10167 10162 10161 10158 ] final  -63.09 input  -65.29 | X-H torsion
[ 10718 10713 10712 10709 ] final  -76.58 input   66.30 | X-H torsion
[ 10763 10752 10751 10750 ] final  137.64 input  -60.55 | X-H torsion
[ 11005 11000 10999 10996 ] final   36.13 input  -57.11 | X-H torsion

> <Gold.Protein.ActiveResidues>
 VAL166  LYS551  ARG553  GLY616  TRP617  ASP618  TYR619  PRO620  LYS621  CYS622 
 ASP623  PHE694  ASN695  SER759  ASP760  ASP761  ALA762  ILE779  LEU786  VAL792 
 PHE793  MET794  SER795  GLU796  ALA797  LYS798  CYS799  TRP800  GLU811  SER814 

> <Gold.Protein.RotatedAtoms>
  152.4367  134.5672  159.9910 H   0  0  0  0  0  0  0  0  0  0  0  0  # atno 6907 bound_to 6896
  151.5780  133.3375  159.3011 H   0  0  0  0  0  0  0  0  0  0  0  0  # atno 6908 bound_to 6896
  150.8266  134.7535  159.6883 H   0  0  0  0  0  0  0  0  0  0  0  0  # atno 6909 bound_to 6896
  144.8515  139.6152  143.5971 H   0  0  0  0  0  0  0  0  0  0  0  0  # atno 7974 bound_to 7965
  155.1155  140.3243  155.4510 H   0  0  0  0  0  0  0  0  0  0  0  0  # atno 8008 bound_to 7997
  156.2678  140.2036  156.6226 H   0  0  0  0  0  0  0  0  0  0  0  0  # atno 8009 bound_to 7997
  154.6723  140.0535  157.0166 H   0  0  0  0  0  0  0  0  0  0  0  0  # atno 8010 bound_to 7997
  140.5894  143.2339  151.6171 H   0  0  0  0  0  0  0  0  0  0  0  0  # atno 10167 bound_to 10162
  156.0170  130.4469  150.3215 H   0  0  0  0  0  0  0  0  0  0  0  0  # atno 10718 bound_to 10713
  153.8765  135.3049  155.3444 H   0  0  0  0  0  0  0  0  0  0  0  0  # atno 10763 bound_to 10752
  154.7781  135.4850  153.9790 H   0  0  0  0  0  0  0  0  0  0  0  0  # atno 10764 bound_to 10752
  153.1376  135.6817  153.9174 H   0  0  0  0  0  0  0  0  0  0  0  0  # atno 10765 bound_to 10752
  140.2356  134.3475  155.7946 H   0  0  0  0  0  0  0  0  0  0  0  0  # atno 11005 bound_to 11000
  146.2788  139.6824  142.9243 LP  0  0  0  0  0  0  0  0  0  0  0  0  # atno 17320 bound_to 7965
  145.4491  141.0427  143.2815 LP  0  0  0  0  0  0  0  0  0  0  0  0  # atno 17321 bound_to 7965
  139.5218  144.3181  152.0934 LP  0  0  0  0  0  0  0  0  0  0  0  0  # atno 17342 bound_to 10162
  140.2344  144.4335  150.6286 LP  0  0  0  0  0  0  0  0  0  0  0  0  # atno 17343 bound_to 10162
  157.1315  131.0273  151.2967 LP  0  0  0  0  0  0  0  0  0  0  0  0  # atno 17370 bound_to 10713
  157.4546  130.7618  149.7181 LP  0  0  0  0  0  0  0  0  0  0  0  0  # atno 17371 bound_to 10713
  141.2214  133.7270  156.8803 LP  0  0  0  0  0  0  0  0  0  0  0  0  # atno 17394 bound_to 11000
  140.1705  134.9103  157.2827 LP  0  0  0  0  0  0  0  0  0  0  0  0  # atno 17395 bound_to 11000

$$$$
