AV-unprocessed.smi:2345|AV-procd|sdf|9363|dock5
  -GOLD-   2272012583D 1   1.00000     0.00000
 Structure written by MMmdl.
 37 38  0  0  0  0  0  0  0  0  1 V2000
  151.2471  137.8527  154.1578 C   0  0  0  0  0  0  0  0  0  0  0  0
  149.8738  138.5226  154.0649 C   0  0  0  0  0  0  0  0  0  0  0  0
  149.7707  139.9744  155.1471 S   0  0  0  0  0  0  0  0  0  0  0  0
  148.0569  140.5098  154.8291 C   0  0  2  0  0  0  0  0  0  0  0  0
  147.8851  141.2672  153.5127 C   0  0  0  0  0  0  0  0  0  0  0  0
  146.5248  141.9459  153.6601 C   0  0  0  0  0  0  0  0  0  0  0  0
  146.3909  142.2821  155.1512 C   0  0  0  0  0  0  0  0  0  0  0  0
  147.4573  141.4494  155.8967 C   0  0  2  0  0  0  0  0  0  0  0  0
  148.4715  142.3181  156.4948 N   0  0  0  0  0  0  0  0  0  0  0  0
  149.3906  141.9312  157.3898 C   0  0  0  0  0  0  0  0  0  0  0  0
  149.4617  140.7894  157.8444 O   0  0  0  0  0  0  0  0  0  0  0  0
  150.1950  142.9498  157.7348 N   0  0  0  0  0  0  0  0  0  0  0  0
  151.2607  142.9164  158.6702 C   0  0  0  0  0  0  0  0  0  0  0  0
  151.7992  141.6615  159.0216 C   0  0  0  0  0  0  0  0  0  0  0  0
  152.8434  141.6140  159.9666 C   0  0  0  0  0  0  0  0  0  0  0  0
  153.3495  142.7105  160.5694 N   0  0  0  0  0  0  0  0  0  0  0  0
  152.8140  143.9084  160.2502 C   0  0  0  0  0  0  0  0  0  0  0  0
  151.7671  144.0689  159.3201 C   0  0  0  0  0  0  0  0  0  0  0  0
  151.2529  145.3016  159.0933 F   0  0  0  0  0  0  0  0  0  0  0  0
  151.2996  136.9819  153.5041 H   0  0  0  0  0  0  0  0  0  0  0  0
  151.4536  137.5188  155.1750 H   0  0  0  0  0  0  0  0  0  0  0  0
  152.0404  138.5397  153.8617 H   0  0  0  0  0  0  0  0  0  0  0  0
  149.6793  138.8270  153.0367 H   0  0  0  0  0  0  0  0  0  0  0  0
  149.0941  137.8143  154.3458 H   0  0  0  0  0  0  0  0  0  0  0  0
  147.4360  139.6133  154.7895 H   0  0  0  0  0  0  0  0  0  0  0  0
  148.6665  142.0214  153.4090 H   0  0  0  0  0  0  0  0  0  0  0  0
  147.9277  140.6158  152.6397 H   0  0  0  0  0  0  0  0  0  0  0  0
  146.4299  142.8264  153.0240 H   0  0  0  0  0  0  0  0  0  0  0  0
  145.7381  141.2471  153.3725 H   0  0  0  0  0  0  0  0  0  0  0  0
  146.5341  143.3521  155.3090 H   0  0  0  0  0  0  0  0  0  0  0  0
  145.3882  142.0436  155.5071 H   0  0  0  0  0  0  0  0  0  0  0  0
  146.9976  140.8513  156.6858 H   0  0  0  0  0  0  0  0  0  0  0  0
  148.4868  143.2770  156.1791 H   0  0  0  0  0  0  0  0  0  0  0  0
  149.9468  143.8610  157.3792 H   0  0  0  0  0  0  0  0  0  0  0  0
  151.4299  140.7520  158.5706 H   0  0  0  0  0  0  0  0  0  0  0  0
  153.2818  140.6681  160.2480 H   0  0  0  0  0  0  0  0  0  0  0  0
  153.2246  144.7660  160.7623 H   0  0  0  0  0  0  0  0  0  0  0  0
  1  2  1  0  0  0  0
  1 20  1  0  0  0  0
  1 21  1  0  0  0  0
  1 22  1  0  0  0  0
  2  3  1  0  0  0  0
  2 23  1  0  0  0  0
  2 24  1  0  0  0  0
  3  4  1  0  0  0  0
  4  8  1  0  0  0  0
  4  5  1  0  0  0  0
  4 25  1  0  0  0  0
  5  6  1  0  0  0  0
  5 26  1  0  0  0  0
  5 27  1  0  0  0  0
  6  7  1  0  0  0  0
  6 28  1  0  0  0  0
  6 29  1  0  0  0  0
  7  8  1  0  0  0  0
  7 30  1  0  0  0  0
  7 31  1  0  0  0  0
  8  9  1  0  0  0  0
  8 32  1  0  0  0  0
  9 10  1  0  0  0  0
  9 33  1  0  0  0  0
 10 11  2  0  0  0  0
 10 12  1  0  0  0  0
 12 13  1  0  0  0  0
 12 34  1  0  0  0  0
 13 18  1  0  0  0  0
 13 14  2  0  0  0  0
 14 15  1  0  0  0  0
 14 35  1  0  0  0  0
 15 16  2  0  0  0  0
 15 36  1  0  0  0  0
 16 17  1  0  0  0  0
 17 18  2  0  0  0  0
 17 37  1  0  0  0  0
 18 19  1  0  0  0  0
M  END
> <s_m_source_file>
AV-unprocessed.smi

> <i_m_source_file_index>
2345

> <i_lp_mmshare_version>
43012

> <i_f3d_flags>
0

> <s_epik_input>
W0NIM11bQ0gyXVNbQ0BASF0xW0NIMl1bQ0gyXVtDSDJdW0NASF0xW05IXUMoPU8pW05IXWMyW2NIXVtjSF1uW2NIXWMyRg==

> <s_epik_cmdline>
J2VwaWtfcHl0aG9uJywgJy1waCcsICc3LjAnLCAnLXRuJywgJzgnLCAnLW1hJywgJzIwMCcsICctbWV0YWxfYmluZGluZycsICctaW1hZScsICc8aW5maWxlLm1hZT4nLCAnLW9tYWUnLCAnPG91dGZpbGUubWFlPic=

> <r_epik_Ionization_Penalty>
0.00333745

> <r_epik_Ionization_Penalty_Charging>
0

> <r_epik_Ionization_Penalty_Neutral>
0.00333745

> <r_epik_State_Penalty>
0.00233401

> <r_epik_Charging_Adjusted_Penalty>
0.00233401

> <i_epik_Tot_Q>
0

> <i_epik_Tot_abs_Q>
0

> <r_epik_Metal_State_Penalty>
-0

> <b_epik_Metal_Only>
0

> <s_lp_Force_Field>
OPLS_2005

> <r_lp_Energy>
24.389

> <b_lp_Chiralities_Consistent>
1

> <s_lp_Variant>
AV-unprocessed.smi:2345-3

> <Gold.Version>
5.8.1

> <Gold.Id.Protein>
6NUR|6NUR_protein|mol2

> <Gold.PLP.Fitness>
41.8837

> <Gold.PLP.PLP>
-38.0324

> <Gold.PLP.part.hbond>
-2.0000

> <Gold.PLP.part.metal>
0.0000

> <Gold.PLP.part.buried>
-5.2231

> <Gold.PLP.part.nonpolar>
-31.2695

> <Gold.PLP.part.repulsive>
0.0738

> <Gold.PLP.ligand.clash>
0.0000

> <Gold.PLP.ligand.torsion>
0.4141

> <Gold.PLP.Chemscore.Hbond>
1.5070

> <Gold.PLP.Chemscore.CHOScore>
0.0000

> <Gold.PLP.Chemscore.Metal>
0.0000

> <Gold.Chemscore.Hbonds>
donor molecule, donor type, donor heavy atom, donor atom, acceptor molecule, acceptor atom, score
      L1  H     9    33       P1  8028  1.00
      L1  H    12    34       P1  8028  0.51

> <Gold.PLP.Chemscore.Internal.Correction>
0.1587

> <Gold.Rescore>
     Score         DG    S(hbond)    S(metal)    S(lipo)     H(rot)  DE(clash)    DE(int)     intcor
     17.53     -19.71       1.89        0.00      97.17       1.35       0.13       2.05       ----

> <Gold.Chemscore.Fitness>
17.5273

> <Gold.Chemscore.DG>
-19.7117

> <Gold.Chemscore.ZeroCoef>
-5.4800

> <Gold.Chemscore.Hbond>
1.8900

> <Gold.Chemscore.Metal>
0.0000

> <Gold.Chemscore.Lipo>
97.1678

> <Gold.Chemscore.Internal_Hbond>
0.0000

> <Gold.Chemscore.DEClash>
0.1312

> <Gold.Chemscore.DEInternal>
2.0532

> <Gold.Chemscore.Rot>
1.3475

> <Gold.Chemscore.Internal.Correction>
   9.000000E+99

> <Gold.Chemscore.Hbonds>
donor molecule, donor type, donor heavy atom, donor atom, acceptor molecule, acceptor atom, score
      L1  H     9    33       P1  8028  0.83
      L1  H    12    34       P1  8028  0.40

> <Gold.Chemscore.Hbond.Weighted>
-6.3127

> <Gold.Chemscore.Metal.Weighted>
-0.0000

> <Gold.Chemscore.Lipo.Weighted>
-11.3686

> <Gold.Chemscore.Internal_Hbond.Weighted>
0.0000

> <Gold.Chemscore.DEClash.Weighted>
0.1312

> <Gold.Chemscore.DEInternal.Weighted>
2.0532

> <Gold.Chemscore.Rot.Weighted>
3.4496

> <Gold.Chemscore.Internal.Correction.Weighted>
   9.000000E+99

> <Gold.Protein.RotatedTorsions>
[ 6907 6896 6895 6894 ] final   56.90 input  -60.11 | X-H torsion
[ 7974 7965 7964 7962 ] final  -12.32 input  175.53 | X-H torsion
[ 8008 7997 7996 7995 ] final   77.70 input   59.86 | X-H torsion
[ 10167 10162 10161 10158 ] final -146.18 input  -65.29 | X-H torsion
[ 10718 10713 10712 10709 ] final -118.09 input   66.30 | X-H torsion
[ 10763 10752 10751 10750 ] final   66.59 input  -60.55 | X-H torsion
[ 11005 11000 10999 10996 ] final  170.50 input  -57.11 | X-H torsion

> <Gold.Protein.ActiveResidues>
 VAL166  LYS551  ARG553  GLY616  TRP617  ASP618  TYR619  PRO620  LYS621  CYS622 
 ASP623  PHE694  ASN695  SER759  ASP760  ASP761  ALA762  ILE779  LEU786  VAL792 
 PHE793  MET794  SER795  GLU796  ALA797  LYS798  CYS799  TRP800  GLU811  SER814 

> <Gold.Protein.RotatedAtoms>
  152.3680  134.6775  160.0185 H   0  0  0  0  0  0  0  0  0  0  0  0  # atno 6907 bound_to 6896
  151.7077  133.3306  159.3291 H   0  0  0  0  0  0  0  0  0  0  0  0  # atno 6908 bound_to 6896
  150.7653  134.6494  159.6325 H   0  0  0  0  0  0  0  0  0  0  0  0  # atno 6909 bound_to 6896
  146.2156  140.3040  142.8377 H   0  0  0  0  0  0  0  0  0  0  0  0  # atno 7974 bound_to 7965
  155.8453  140.3460  155.5658 H   0  0  0  0  0  0  0  0  0  0  0  0  # atno 8008 bound_to 7997
  155.8096  140.0897  157.1931 H   0  0  0  0  0  0  0  0  0  0  0  0  # atno 8009 bound_to 7997
  154.4006  140.1450  156.3359 H   0  0  0  0  0  0  0  0  0  0  0  0  # atno 8010 bound_to 7997
  139.7737  143.8200  152.2628 H   0  0  0  0  0  0  0  0  0  0  0  0  # atno 10167 bound_to 10162
  156.1081  130.6226  150.9246 H   0  0  0  0  0  0  0  0  0  0  0  0  # atno 10718 bound_to 10713
  153.0147  135.5315  154.6848 H   0  0  0  0  0  0  0  0  0  0  0  0  # atno 10763 bound_to 10752
  154.5998  135.2867  155.0549 H   0  0  0  0  0  0  0  0  0  0  0  0  # atno 10764 bound_to 10752
  154.1611  135.6547  153.5038 H   0  0  0  0  0  0  0  0  0  0  0  0  # atno 10765 bound_to 10752
  140.3090  134.7532  157.3976 H   0  0  0  0  0  0  0  0  0  0  0  0  # atno 11005 bound_to 11000
  144.9036  140.7673  143.5851 LP  0  0  0  0  0  0  0  0  0  0  0  0  # atno 17320 bound_to 7965
  145.2967  139.1864  143.4711 LP  0  0  0  0  0  0  0  0  0  0  0  0  # atno 17321 bound_to 7965
  139.8242  144.7282  150.9533 LP  0  0  0  0  0  0  0  0  0  0  0  0  # atno 17342 bound_to 10162
  140.7815  143.4130  151.0962 LP  0  0  0  0  0  0  0  0  0  0  0  0  # atno 17343 bound_to 10162
  157.6259  131.0925  150.8534 LP  0  0  0  0  0  0  0  0  0  0  0  0  # atno 17370 bound_to 10713
  156.8650  130.5126  149.5301 LP  0  0  0  0  0  0  0  0  0  0  0  0  # atno 17371 bound_to 10713
  140.1041  134.5433  155.8325 LP  0  0  0  0  0  0  0  0  0  0  0  0  # atno 17394 bound_to 11000
  141.2112  133.6704  156.6566 LP  0  0  0  0  0  0  0  0  0  0  0  0  # atno 17395 bound_to 11000

$$$$
