AV-unprocessed.smi:749|AV-procd|sdf|3587|dock7
  -GOLD-   22720 0583D 1   1.00000     0.00000
 Structure written by MMmdl.
 42 43  0  0  0  0  0  0  0  0  2 V2000
  151.1954  141.7512  156.9492 C   0  0  0  0  0  0  0  0  0  0  0  0
  151.8348  142.2437  158.1702 N   0  0  0  0  0  0  0  0  0  0  0  0
  152.5543  141.2220  158.9464 C   0  0  0  0  0  0  0  0  0  0  0  0
  153.5123  141.7935  160.0057 C   0  0  2  0  0  0  0  0  0  0  0  0
  153.9319  140.7290  160.9119 N   0  0  0  0  0  0  0  0  0  0  0  0
  154.5979  139.6062  160.5772 C   0  0  0  0  0  0  0  0  0  0  0  0
  154.9068  139.4257  159.4000 O   0  0  0  0  0  0  0  0  0  0  0  0
  154.8960  138.7256  161.5695 N   0  5  0  0  0  0  0  0  0  0  0  0
  154.7489  137.3963  161.4303 C   0  0  0  0  0  0  0  0  0  0  0  0
  155.1499  136.4108  162.3721 C   0  0  0  0  0  0  0  0  0  0  0  0
  154.7968  135.2335  161.7716 C   0  0  0  0  0  0  0  0  0  0  0  0
  154.9284  133.7898  162.1687 C   0  0  0  0  0  0  0  0  0  0  0  0
  154.4933  132.8621  161.0167 C   0  0  0  0  0  0  0  0  0  0  0  0
  154.0365  133.4982  163.3899 C   0  0  0  0  0  0  0  0  0  0  0  0
  156.3933  133.4710  162.5218 C   0  0  0  0  0  0  0  0  0  0  0  0
  154.2175  135.4865  160.5649 O   0  0  0  0  0  0  0  0  0  0  0  0
  154.1838  136.8701  160.3578 N   0  0  0  0  0  0  0  0  0  0  0  0
  152.8152  142.9214  160.7738 C   0  0  0  0  0  0  0  0  0  0  0  0
  152.3915  144.0401  159.8148 C   0  0  0  0  0  0  0  0  0  0  0  0
  151.6788  143.5350  158.5508 C   0  0  0  0  0  0  0  0  0  0  0  0
  151.0083  144.3395  157.9027 O   0  0  0  0  0  0  0  0  0  0  0  0
  151.6020  142.2595  156.0739 H   0  0  0  0  0  0  0  0  0  0  0  0
  150.1191  141.9272  156.9773 H   0  0  0  0  0  0  0  0  0  0  0  0
  151.3454  140.6800  156.8088 H   0  0  0  0  0  0  0  0  0  0  0  0
  151.8024  140.5955  159.4298 H   0  0  0  0  0  0  0  0  0  0  0  0
  153.1151  140.5706  158.2746 H   0  0  0  0  0  0  0  0  0  0  0  0
  154.3881  142.1977  159.4942 H   0  0  0  0  0  0  0  0  0  0  0  0
  153.6990  140.8501  161.8867 H   0  0  0  0  0  0  0  0  0  0  0  0
  155.6287  136.5491  163.3298 H   0  0  0  0  0  0  0  0  0  0  0  0
  154.5890  131.8115  161.2932 H   0  0  0  0  0  0  0  0  0  0  0  0
  155.1020  133.0215  160.1258 H   0  0  0  0  0  0  0  0  0  0  0  0
  153.4524  133.0324  160.7390 H   0  0  0  0  0  0  0  0  0  0  0  0
  152.9891  133.7125  163.1739 H   0  0  0  0  0  0  0  0  0  0  0  0
  154.3241  134.1056  164.2489 H   0  0  0  0  0  0  0  0  0  0  0  0
  154.1036  132.4526  163.6923 H   0  0  0  0  0  0  0  0  0  0  0  0
  156.5168  132.4251  162.8052 H   0  0  0  0  0  0  0  0  0  0  0  0
  156.7446  134.0783  163.3568 H   0  0  0  0  0  0  0  0  0  0  0  0
  157.0546  133.6635  161.6760 H   0  0  0  0  0  0  0  0  0  0  0  0
  151.9416  142.5331  161.2995 H   0  0  0  0  0  0  0  0  0  0  0  0
  153.4788  143.3306  161.5365 H   0  0  0  0  0  0  0  0  0  0  0  0
  151.7475  144.7497  160.3352 H   0  0  0  0  0  0  0  0  0  0  0  0
  153.2735  144.5963  159.4953 H   0  0  0  0  0  0  0  0  0  0  0  0
  1  2  1  0  0  0  0
  1 22  1  0  0  0  0
  1 23  1  0  0  0  0
  1 24  1  0  0  0  0
  2 20  1  0  0  0  0
  2  3  1  0  0  0  0
  3  4  1  0  0  0  0
  3 25  1  0  0  0  0
  3 26  1  0  0  0  0
  4  5  1  0  0  0  0
  4 18  1  0  0  0  0
  4 27  1  0  0  0  0
  5  6  1  0  0  0  0
  5 28  1  0  0  0  0
  6  7  2  0  0  0  0
  6  8  1  0  0  0  0
  8  9  1  0  0  0  0
  9 17  2  0  0  0  0
  9 10  1  0  0  0  0
 10 11  2  0  0  0  0
 10 29  1  0  0  0  0
 11 12  1  0  0  0  0
 11 16  1  0  0  0  0
 12 13  1  0  0  0  0
 12 14  1  0  0  0  0
 12 15  1  0  0  0  0
 13 30  1  0  0  0  0
 13 31  1  0  0  0  0
 13 32  1  0  0  0  0
 14 33  1  0  0  0  0
 14 34  1  0  0  0  0
 14 35  1  0  0  0  0
 15 36  1  0  0  0  0
 15 37  1  0  0  0  0
 15 38  1  0  0  0  0
 16 17  1  0  0  0  0
 18 19  1  0  0  0  0
 18 39  1  0  0  0  0
 18 40  1  0  0  0  0
 19 20  1  0  0  0  0
 19 41  1  0  0  0  0
 19 42  1  0  0  0  0
 20 21  2  0  0  0  0
M  CHG  1   8  -1
M  END
> <s_m_source_file>
AV-unprocessed.smi

> <i_m_source_file_index>
749

> <i_lp_mmshare_version>
43012

> <i_f3d_flags>
0

> <s_epik_input>
Tz1DMVtDSDJdW0NIMl1bQ0BASF0oW0NIMl1OMVtDSDNdKVtOSF1DKD1PKVtOSF1jMltjSF1jKG9uMilDKFtDSDNdKShbQ0gzXSlbQ0gzXQ==

> <s_epik_cmdline>
J2VwaWtfcHl0aG9uJywgJy1waCcsICc3LjAnLCAnLXRuJywgJzgnLCAnLW1hJywgJzIwMCcsICctbWV0YWxfYmluZGluZycsICctaW1hZScsICc8aW5maWxlLm1hZT4nLCAnLW9tYWUnLCAnPG91dGZpbGUubWFlPic=

> <r_lp_tautomer_probability>
1

> <r_epik_Ionization_Penalty>
6.47858

> <r_epik_Ionization_Penalty_Charging>
6.47844

> <r_epik_Ionization_Penalty_Neutral>
0.000138814

> <r_epik_State_Penalty>
6.47843

> <r_epik_Charging_Adjusted_Penalty>
12.9569

> <i_epik_Tot_Q>
-1

> <i_epik_Tot_abs_Q>
1

> <r_epik_Metal_State_Penalty>
2.40644

> <b_epik_Metal_Only>
1

> <s_lp_Force_Field>
OPLS_2005

> <r_lp_Energy>
10.0372

> <b_lp_Chiralities_Consistent>
1

> <s_lp_Variant>
AV-unprocessed.smi:749-4

> <Gold.Version>
5.8.1

> <Gold.Id.Protein>
6NUR|6NUR_protein|mol2

> <Gold.PLP.Fitness>
37.7260

> <Gold.PLP.PLP>
-32.6572

> <Gold.PLP.part.hbond>
-2.0000

> <Gold.PLP.part.metal>
0.0000

> <Gold.PLP.part.buried>
-5.3367

> <Gold.PLP.part.nonpolar>
-26.2150

> <Gold.PLP.part.repulsive>
0.2018

> <Gold.PLP.ligand.clash>
0.0000

> <Gold.PLP.ligand.torsion>
0.4768

> <Gold.PLP.Chemscore.Hbond>
2.0000

> <Gold.PLP.Chemscore.CHOScore>
0.0000

> <Gold.PLP.Chemscore.Metal>
0.0000

> <Gold.Chemscore.Hbonds>
donor molecule, donor type, donor heavy atom, donor atom, acceptor molecule, acceptor atom, score
      P1  H  6896  6908       L1    16  1.00
      P1  H  7997  8010       L1     7  0.70

> <Gold.PLP.Chemscore.Internal.Correction>
0.0224

> <Gold.Rescore>
     Score         DG    S(hbond)    S(metal)    S(lipo)     H(rot)  DE(clash)    DE(int)     intcor
     14.34     -17.26       1.93        0.00      72.24       1.22       0.01       2.91       ----

> <Gold.Chemscore.Fitness>
14.3363

> <Gold.Chemscore.DG>
-17.2633

> <Gold.Chemscore.ZeroCoef>
-5.4800

> <Gold.Chemscore.Hbond>
1.9325

> <Gold.Chemscore.Metal>
0.0000

> <Gold.Chemscore.Lipo>
72.2363

> <Gold.Chemscore.Internal_Hbond>
0.0000

> <Gold.Chemscore.DEClash>
0.0149

> <Gold.Chemscore.DEInternal>
2.9121

> <Gold.Chemscore.Rot>
1.2198

> <Gold.Chemscore.Internal.Correction>
   9.000000E+99

> <Gold.Chemscore.Hbonds>
donor molecule, donor type, donor heavy atom, donor atom, acceptor molecule, acceptor atom, score
      P1  H  6896  6908       L1    16  0.80
      P1  H  7997  8010       L1     7  0.69

> <Gold.Chemscore.Hbond.Weighted>
-6.4544

> <Gold.Chemscore.Metal.Weighted>
-0.0000

> <Gold.Chemscore.Lipo.Weighted>
-8.4517

> <Gold.Chemscore.Internal_Hbond.Weighted>
0.0000

> <Gold.Chemscore.DEClash.Weighted>
0.0149

> <Gold.Chemscore.DEInternal.Weighted>
2.9121

> <Gold.Chemscore.Rot.Weighted>
3.1228

> <Gold.Chemscore.Internal.Correction.Weighted>
   9.000000E+99

> <Gold.Protein.RotatedTorsions>
[ 6907 6896 6895 6894 ] final  -53.98 input  -60.11 | X-H torsion
[ 7974 7965 7964 7962 ] final  -70.33 input  175.53 | X-H torsion
[ 8008 7997 7996 7995 ] final   -9.42 input   59.86 | X-H torsion
[ 10167 10162 10161 10158 ] final  150.00 input  -65.29 | X-H torsion
[ 10718 10713 10712 10709 ] final -150.74 input   66.30 | X-H torsion
[ 10763 10752 10751 10750 ] final   34.94 input  -60.55 | X-H torsion
[ 11005 11000 10999 10996 ] final  136.31 input  -57.11 | X-H torsion

> <Gold.Protein.ActiveResidues>
 VAL166  LYS551  ARG553  GLY616  TRP617  ASP618  TYR619  PRO620  LYS621  CYS622 
 ASP623  PHE694  ASN695  SER759  ASP760  ASP761  ALA762  ILE779  LEU786  VAL792 
 PHE793  MET794  SER795  GLU796  ALA797  LYS798  CYS799  TRP800  GLU811  SER814 

> <Gold.Protein.RotatedAtoms>
  150.8379  134.7659  159.6907 H   0  0  0  0  0  0  0  0  0  0  0  0  # atno 6907 bound_to 6896
  152.4472  134.5467  159.9864 H   0  0  0  0  0  0  0  0  0  0  0  0  # atno 6908 bound_to 6896
  151.5613  133.3365  159.3007 H   0  0  0  0  0  0  0  0  0  0  0  0  # atno 6909 bound_to 6896
  145.6923  140.9148  143.0775 H   0  0  0  0  0  0  0  0  0  0  0  0  # atno 7974 bound_to 7965
  154.5649  140.2355  155.8279 H   0  0  0  0  0  0  0  0  0  0  0  0  # atno 8008 bound_to 7997
  156.2060  140.3039  155.9586 H   0  0  0  0  0  0  0  0  0  0  0  0  # atno 8009 bound_to 7997
  155.2820  140.0423  157.3007 H   0  0  0  0  0  0  0  0  0  0  0  0  # atno 8010 bound_to 7997
  139.4855  144.5557  151.7322 H   0  0  0  0  0  0  0  0  0  0  0  0  # atno 10167 bound_to 10162
  156.4501  130.8164  151.2394 H   0  0  0  0  0  0  0  0  0  0  0  0  # atno 10718 bound_to 10713
  153.0141  135.6347  154.1748 H   0  0  0  0  0  0  0  0  0  0  0  0  # atno 10763 bound_to 10752
  154.1488  135.2830  155.3143 H   0  0  0  0  0  0  0  0  0  0  0  0  # atno 10764 bound_to 10752
  154.6069  135.5569  153.7493 H   0  0  0  0  0  0  0  0  0  0  0  0  # atno 10765 bound_to 10752
  140.0037  134.9468  157.0129 H   0  0  0  0  0  0  0  0  0  0  0  0  # atno 11005 bound_to 11000
  144.6993  139.8838  143.7449 LP  0  0  0  0  0  0  0  0  0  0  0  0  # atno 17320 bound_to 7965
  146.0871  139.3860  143.0429 LP  0  0  0  0  0  0  0  0  0  0  0  0  # atno 17321 bound_to 7965
  140.5118  144.1013  150.5997 LP  0  0  0  0  0  0  0  0  0  0  0  0  # atno 17342 bound_to 10162
  140.3941  143.2737  152.0025 LP  0  0  0  0  0  0  0  0  0  0  0  0  # atno 17343 bound_to 10162
  157.7503  131.0140  150.3448 LP  0  0  0  0  0  0  0  0  0  0  0  0  # atno 17370 bound_to 10713
  156.3825  130.3883  149.7091 LP  0  0  0  0  0  0  0  0  0  0  0  0  # atno 17371 bound_to 10713
  140.4680  134.1416  155.7199 LP  0  0  0  0  0  0  0  0  0  0  0  0  # atno 17394 bound_to 11000
  141.1661  133.8700  157.1710 LP  0  0  0  0  0  0  0  0  0  0  0  0  # atno 17395 bound_to 11000

$$$$
