AV-unprocessed.smi:2175|AV-procd|sdf|8843|dock3
  -GOLD-   2272012 33D 1   1.00000     0.00000
 Structure written by MMmdl.
 34 35  0  0  0  0  0  0  0  0  1 V2000
  146.3570  137.9706  152.2916 C   0  0  0  0  0  0  0  0  0  0  0  0
  147.0776  139.1071  152.9854 C   0  0  0  0  0  0  0  0  0  0  0  0
  146.5301  140.2437  153.2658 N   0  0  0  0  0  0  0  0  0  0  0  0
  147.2998  141.2217  153.9111 C   0  0  0  0  0  0  0  0  0  0  0  0
  146.5857  142.5292  154.2079 C   0  0  0  0  0  0  0  0  0  0  0  0
  148.6043  140.9994  154.2470 C   0  0  0  0  0  0  0  0  0  0  0  0
  149.4677  142.0457  154.9504 C   0  0  0  0  0  0  0  0  0  0  0  0
  150.0108  141.6425  156.3236 C   0  0  0  0  0  0  0  0  0  0  0  0
  150.3266  140.4735  156.5464 O   0  0  0  0  0  0  0  0  0  0  0  0
  150.1163  142.6214  157.2349 N   0  0  0  0  0  0  0  0  0  0  0  0
  150.6042  142.4469  158.5966 C   0  0  0  0  0  0  0  0  0  0  0  0
  151.4961  143.5646  159.1022 C   0  0  0  0  0  0  0  0  0  0  0  0
  151.1099  145.0130  158.9148 C   0  0  0  0  0  0  0  0  0  0  0  0
  152.2621  144.4318  158.1310 C   0  0  0  0  0  0  0  0  0  0  0  0
  149.2197  139.6982  153.9212 C   0  0  0  0  0  0  0  0  0  0  0  0
  150.3849  139.3944  154.1727 O   0  0  0  0  0  0  0  0  0  0  0  0
  148.4039  138.8166  153.3008 N   0  0  0  0  0  0  0  0  0  0  0  0
  148.7783  137.9116  153.0561 H   0  0  0  0  0  0  0  0  0  0  0  0
  146.0029  138.2935  151.3124 H   0  0  0  0  0  0  0  0  0  0  0  0
  145.4955  137.6572  152.8815 H   0  0  0  0  0  0  0  0  0  0  0  0
  147.0073  137.1059  152.1514 H   0  0  0  0  0  0  0  0  0  0  0  0
  146.5302  142.6991  155.2832 H   0  0  0  0  0  0  0  0  0  0  0  0
  145.5670  142.5215  153.8181 H   0  0  0  0  0  0  0  0  0  0  0  0
  147.1104  143.3672  153.7493 H   0  0  0  0  0  0  0  0  0  0  0  0
  150.3037  142.2974  154.2970 H   0  0  0  0  0  0  0  0  0  0  0  0
  148.9183  142.9804  155.0660 H   0  0  0  0  0  0  0  0  0  0  0  0
  149.8338  143.5530  156.9667 H   0  0  0  0  0  0  0  0  0  0  0  0
  149.7586  142.3393  159.2777 H   0  0  0  0  0  0  0  0  0  0  0  0
  151.1510  141.5045  158.6412 H   0  0  0  0  0  0  0  0  0  0  0  0
  152.0222  143.3237  160.0242 H   0  0  0  0  0  0  0  0  0  0  0  0
  150.1910  145.2275  158.3728 H   0  0  0  0  0  0  0  0  0  0  0  0
  151.3465  145.7025  159.7225 H   0  0  0  0  0  0  0  0  0  0  0  0
  153.2672  144.7372  158.4144 H   0  0  0  0  0  0  0  0  0  0  0  0
  152.1094  144.2596  157.0673 H   0  0  0  0  0  0  0  0  0  0  0  0
  1  2  1  0  0  0  0
  1 19  1  0  0  0  0
  1 20  1  0  0  0  0
  1 21  1  0  0  0  0
  2 17  1  0  0  0  0
  2  3  2  0  0  0  0
  3  4  1  0  0  0  0
  4  5  1  0  0  0  0
  4  6  2  0  0  0  0
  5 22  1  0  0  0  0
  5 23  1  0  0  0  0
  5 24  1  0  0  0  0
  6  7  1  0  0  0  0
  6 15  1  0  0  0  0
  7  8  1  0  0  0  0
  7 25  1  0  0  0  0
  7 26  1  0  0  0  0
  8  9  2  0  0  0  0
  8 10  1  0  0  0  0
 10 11  1  0  0  0  0
 10 27  1  0  0  0  0
 11 12  1  0  0  0  0
 11 28  1  0  0  0  0
 11 29  1  0  0  0  0
 12 14  1  0  0  0  0
 12 13  1  0  0  0  0
 12 30  1  0  0  0  0
 13 14  1  0  0  0  0
 13 31  1  0  0  0  0
 13 32  1  0  0  0  0
 14 33  1  0  0  0  0
 14 34  1  0  0  0  0
 15 16  2  0  0  0  0
 15 17  1  0  0  0  0
 17 18  1  0  0  0  0
M  END
> <s_m_source_file>
AV-unprocessed.smi

> <i_m_source_file_index>
2175

> <i_lp_mmshare_version>
43012

> <i_f3d_flags>
0

> <s_epik_input>
W0NIM11jMW5jKFtDSDNdKWMoYyg9TylbbkhdMSlbQ0gyXUMoPU8pW05IXVtDSDJdW0NIXTJbQ0gyXVtDSDJdMg==

> <s_epik_cmdline>
J2VwaWtfcHl0aG9uJywgJy1waCcsICc3LjAnLCAnLXRuJywgJzgnLCAnLW1hJywgJzIwMCcsICctbWV0YWxfYmluZGluZycsICctaW1hZScsICc8aW5maWxlLm1hZT4nLCAnLW9tYWUnLCAnPG91dGZpbGUubWFlPic=

> <r_lp_tautomer_probability>
0.839158

> <r_epik_Ionization_Penalty>
0.000395354

> <r_epik_Ionization_Penalty_Charging>
0.00036358

> <r_epik_Ionization_Penalty_Neutral>
3.17744e-05

> <r_epik_State_Penalty>
0.047122

> <r_epik_Charging_Adjusted_Penalty>
0.0474856

> <i_epik_Tot_Q>
0

> <i_epik_Tot_abs_Q>
0

> <r_epik_Metal_State_Penalty>
0.225273

> <b_epik_Metal_Only>
0

> <s_lp_Force_Field>
OPLS_2005

> <r_lp_Energy>
14.3429

> <b_lp_Chiralities_Consistent>
1

> <s_lp_Variant>
AV-unprocessed.smi:2175-1

> <Gold.Version>
5.8.1

> <Gold.Id.Protein>
6NUR|6NUR_protein|mol2

> <Gold.PLP.Fitness>
43.1581

> <Gold.PLP.PLP>
-35.4153

> <Gold.PLP.part.hbond>
-4.0000

> <Gold.PLP.part.metal>
0.0000

> <Gold.PLP.part.buried>
2.1683

> <Gold.PLP.part.nonpolar>
-34.7384

> <Gold.PLP.part.repulsive>
1.2349

> <Gold.PLP.ligand.clash>
0.0000

> <Gold.PLP.ligand.torsion>
0.7796

> <Gold.PLP.Chemscore.Hbond>
2.9188

> <Gold.PLP.Chemscore.CHOScore>
0.0000

> <Gold.PLP.Chemscore.Metal>
0.0000

> <Gold.Chemscore.Hbonds>
donor molecule, donor type, donor heavy atom, donor atom, acceptor molecule, acceptor atom, score
      L1  H    10    27       P1  8028  0.98
      L1  H    17    18       P1  7948  0.96
      P1  H  7989  7998       L1    16  0.98

> <Gold.PLP.Chemscore.Internal.Correction>
0.5457

> <Gold.Rescore>
     Score         DG    S(hbond)    S(metal)    S(lipo)     H(rot)  DE(clash)    DE(int)     intcor
     13.61     -19.78       2.78        0.00      81.04       1.75       3.39       2.78       ----

> <Gold.Chemscore.Fitness>
13.6134

> <Gold.Chemscore.DG>
-19.7784

> <Gold.Chemscore.ZeroCoef>
-5.4800

> <Gold.Chemscore.Hbond>
2.7832

> <Gold.Chemscore.Metal>
0.0000

> <Gold.Chemscore.Lipo>
81.0393

> <Gold.Chemscore.Internal_Hbond>
0.0000

> <Gold.Chemscore.DEClash>
3.3874

> <Gold.Chemscore.DEInternal>
2.7775

> <Gold.Chemscore.Rot>
1.7497

> <Gold.Chemscore.Internal.Correction>
   9.000000E+99

> <Gold.Chemscore.Hbonds>
donor molecule, donor type, donor heavy atom, donor atom, acceptor molecule, acceptor atom, score
      L1  H    10    27       P1  8028  0.90
      L1  H    17    18       P1  7948  0.89
      P1  H  7989  7998       L1    16  0.64

> <Gold.Chemscore.Hbond.Weighted>
-9.2959

> <Gold.Chemscore.Metal.Weighted>
-0.0000

> <Gold.Chemscore.Lipo.Weighted>
-9.4816

> <Gold.Chemscore.Internal_Hbond.Weighted>
0.0000

> <Gold.Chemscore.DEClash.Weighted>
3.3874

> <Gold.Chemscore.DEInternal.Weighted>
2.7775

> <Gold.Chemscore.Rot.Weighted>
4.4791

> <Gold.Chemscore.Internal.Correction.Weighted>
   9.000000E+99

> <Gold.Protein.RotatedTorsions>
[ 6907 6896 6895 6894 ] final  -20.87 input  -60.11 | X-H torsion
[ 7974 7965 7964 7962 ] final  -47.68 input  175.53 | X-H torsion
[ 8008 7997 7996 7995 ] final   68.86 input   59.86 | X-H torsion
[ 10167 10162 10161 10158 ] final -167.59 input  -65.29 | X-H torsion
[ 10718 10713 10712 10709 ] final -119.69 input   66.30 | X-H torsion
[ 10763 10752 10751 10750 ] final   59.08 input  -60.55 | X-H torsion
[ 11005 11000 10999 10996 ] final  134.28 input  -57.11 | X-H torsion

> <Gold.Protein.ActiveResidues>
 VAL166  LYS551  ARG553  GLY616  TRP617  ASP618  TYR619  PRO620  LYS621  CYS622 
 ASP623  PHE694  ASN695  SER759  ASP760  ASP761  ALA762  ILE779  LEU786  VAL792 
 PHE793  MET794  SER795  GLU796  ALA797  LYS798  CYS799  TRP800  GLU811  SER814 

> <Gold.Protein.RotatedAtoms>
  151.2418  135.0591  159.9027 H   0  0  0  0  0  0  0  0  0  0  0  0  # atno 6907 bound_to 6896
  152.5392  134.0426  159.8084 H   0  0  0  0  0  0  0  0  0  0  0  0  # atno 6908 bound_to 6896
  151.0621  133.5487  159.2665 H   0  0  0  0  0  0  0  0  0  0  0  0  # atno 6909 bound_to 6896
  145.9591  140.7497  142.9466 H   0  0  0  0  0  0  0  0  0  0  0  0  # atno 7974 bound_to 7965
  155.7148  140.3494  155.4990 H   0  0  0  0  0  0  0  0  0  0  0  0  # atno 8008 bound_to 7997
  155.9323  140.1086  157.1144 H   0  0  0  0  0  0  0  0  0  0  0  0  # atno 8009 bound_to 7997
  154.4087  140.1229  156.4805 H   0  0  0  0  0  0  0  0  0  0  0  0  # atno 8010 bound_to 7997
  139.6039  144.0953  152.1773 H   0  0  0  0  0  0  0  0  0  0  0  0  # atno 10167 bound_to 10162
  156.1200  130.6316  150.9447 H   0  0  0  0  0  0  0  0  0  0  0  0  # atno 10718 bound_to 10713
  152.9886  135.5584  154.5656 H   0  0  0  0  0  0  0  0  0  0  0  0  # atno 10763 bound_to 10752
  154.5066  135.2800  155.1379 H   0  0  0  0  0  0  0  0  0  0  0  0  # atno 10764 bound_to 10752
  154.2788  135.6349  153.5391 H   0  0  0  0  0  0  0  0  0  0  0  0  # atno 10765 bound_to 10752
  139.9904  134.9517  156.9844 H   0  0  0  0  0  0  0  0  0  0  0  0  # atno 11005 bound_to 11000
  144.6811  140.2561  143.7325 LP  0  0  0  0  0  0  0  0  0  0  0  0  # atno 17320 bound_to 7965
  145.8064  139.1985  143.2018 LP  0  0  0  0  0  0  0  0  0  0  0  0  # atno 17321 bound_to 7965
  140.0555  144.5898  150.7303 LP  0  0  0  0  0  0  0  0  0  0  0  0  # atno 17342 bound_to 10162
  140.7270  143.2647  151.4084 LP  0  0  0  0  0  0  0  0  0  0  0  0  # atno 17343 bound_to 10162
  157.6384  131.0913  150.8302 LP  0  0  0  0  0  0  0  0  0  0  0  0  # atno 17370 bound_to 10713
  156.8400  130.5045  149.5322 LP  0  0  0  0  0  0  0  0  0  0  0  0  # atno 17371 bound_to 10713
  140.4919  134.1185  155.7234 LP  0  0  0  0  0  0  0  0  0  0  0  0  # atno 17394 bound_to 11000
  141.1561  133.8879  157.1973 LP  0  0  0  0  0  0  0  0  0  0  0  0  # atno 17395 bound_to 11000

$$$$
