AV-unprocessed.smi:2795|AV-procd|sdf|10780|dock5
  -GOLD-   2272015213D 1   1.00000     0.00000
 Structure written by MMmdl.
 36 37  0  0  0  0  0  0  0  0  1 V2000
  152.6852  142.7868  161.1132 C   0  0  0  0  0  0  0  0  0  0  0  0
  151.9584  143.7759  160.3429 N   0  0  0  0  0  0  0  0  0  0  0  0
  151.6049  145.0052  160.7422 C   0  0  0  0  0  0  0  0  0  0  0  0
  150.9415  145.7081  159.8343 N   0  0  0  0  0  0  0  0  0  0  0  0
  150.8602  144.8461  158.7440 C   0  0  0  0  0  0  0  0  0  0  0  0
  151.4805  143.6508  159.0414 C   0  0  0  0  0  0  0  0  0  0  0  0
  151.6669  142.4107  158.2219 C   0  0  0  0  0  0  0  0  0  0  0  0
  151.6183  142.6421  156.7009 C   0  0  0  0  0  0  0  0  0  0  0  0
  150.3323  142.2449  156.1397 N   0  0  0  0  0  0  0  0  0  0  0  0
  150.1090  141.1195  155.4436 C   0  0  0  0  0  0  0  0  0  0  0  0
  150.9919  140.3012  155.1842 O   0  0  0  0  0  0  0  0  0  0  0  0
  148.6721  140.8857  154.9659 C   0  0  2  0  0  0  0  0  0  0  0  0
  148.5385  139.5681  154.1719 C   0  0  0  0  0  0  0  0  0  0  0  0
  147.1130  139.4114  153.6318 C   0  0  0  0  0  0  0  0  0  0  0  0
  146.7228  140.6643  152.8409 C   0  0  0  0  0  0  0  0  0  0  0  0
  146.9481  141.9253  153.6904 C   0  0  0  0  0  0  0  0  0  0  0  0
  148.3012  141.9823  154.1328 O   0  0  0  0  0  0  0  0  0  0  0  0
  152.9960  143.2066  162.0706 H   0  0  0  0  0  0  0  0  0  0  0  0
  153.5712  142.4686  160.5632 H   0  0  0  0  0  0  0  0  0  0  0  0
  152.0467  141.9221  161.2955 H   0  0  0  0  0  0  0  0  0  0  0  0
  151.8388  145.3953  161.7220 H   0  0  0  0  0  0  0  0  0  0  0  0
  150.3639  145.1517  157.8347 H   0  0  0  0  0  0  0  0  0  0  0  0
  152.6214  141.9557  158.4884 H   0  0  0  0  0  0  0  0  0  0  0  0
  150.8995  141.6861  158.4970 H   0  0  0  0  0  0  0  0  0  0  0  0
  151.7678  143.6994  156.4804 H   0  0  0  0  0  0  0  0  0  0  0  0
  152.4247  142.1013  156.2024 H   0  0  0  0  0  0  0  0  0  0  0  0
  149.5524  142.8662  156.2992 H   0  0  0  0  0  0  0  0  0  0  0  0
  148.0087  140.8585  155.8331 H   0  0  0  0  0  0  0  0  0  0  0  0
  149.2401  139.5563  153.3360 H   0  0  0  0  0  0  0  0  0  0  0  0
  148.7913  138.7161  154.8041 H   0  0  0  0  0  0  0  0  0  0  0  0
  147.0401  138.5245  153.0018 H   0  0  0  0  0  0  0  0  0  0  0  0
  146.4187  139.2672  154.4607 H   0  0  0  0  0  0  0  0  0  0  0  0
  147.3233  140.7259  151.9325 H   0  0  0  0  0  0  0  0  0  0  0  0
  145.6813  140.6020  152.5244 H   0  0  0  0  0  0  0  0  0  0  0  0
  146.7336  142.8167  153.1007 H   0  0  0  0  0  0  0  0  0  0  0  0
  146.2739  141.9417  154.5480 H   0  0  0  0  0  0  0  0  0  0  0  0
  1  2  1  0  0  0  0
  1 18  1  0  0  0  0
  1 19  1  0  0  0  0
  1 20  1  0  0  0  0
  2  6  1  0  0  0  0
  2  3  1  0  0  0  0
  3  4  2  0  0  0  0
  3 21  1  0  0  0  0
  4  5  1  0  0  0  0
  5  6  2  0  0  0  0
  5 22  1  0  0  0  0
  6  7  1  0  0  0  0
  7  8  1  0  0  0  0
  7 23  1  0  0  0  0
  7 24  1  0  0  0  0
  8  9  1  0  0  0  0
  8 25  1  0  0  0  0
  8 26  1  0  0  0  0
  9 10  1  0  0  0  0
  9 27  1  0  0  0  0
 10 11  2  0  0  0  0
 10 12  1  0  0  0  0
 12 17  1  0  0  0  0
 12 13  1  0  0  0  0
 12 28  1  0  0  0  0
 13 14  1  0  0  0  0
 13 29  1  0  0  0  0
 13 30  1  0  0  0  0
 14 15  1  0  0  0  0
 14 31  1  0  0  0  0
 14 32  1  0  0  0  0
 15 16  1  0  0  0  0
 15 33  1  0  0  0  0
 15 34  1  0  0  0  0
 16 17  1  0  0  0  0
 16 35  1  0  0  0  0
 16 36  1  0  0  0  0
M  END
> <s_m_source_file>
AV-unprocessed.smi

> <i_m_source_file_index>
2795

> <i_lp_mmshare_version>
43012

> <i_f3d_flags>
0

> <s_epik_input>
W0NIM11uMVtjSF1uW2NIXWMxW0NIMl1bQ0gyXVtOSF1DKD1PKVtDQEBIXTJbQ0gyXVtDSDJdW0NIMl1bQ0gyXU8y

> <s_epik_cmdline>
J2VwaWtfcHl0aG9uJywgJy1waCcsICc3LjAnLCAnLXRuJywgJzgnLCAnLW1hJywgJzIwMCcsICctbWV0YWxfYmluZGluZycsICctaW1hZScsICc8aW5maWxlLm1hZT4nLCAnLW9tYWUnLCAnPG91dGZpbGUubWFlPic=

> <r_lp_tautomer_probability>
1

> <r_epik_Ionization_Penalty>
0.870864

> <r_epik_Ionization_Penalty_Charging>
0.870864

> <r_epik_Ionization_Penalty_Neutral>
4.06047e-08

> <r_epik_State_Penalty>
0.90819

> <r_epik_Charging_Adjusted_Penalty>
1.77905

> <i_epik_Tot_Q>
0

> <i_epik_Tot_abs_Q>
0

> <r_epik_Metal_State_Penalty>
0.360563

> <b_epik_Metal_Only>
0

> <s_lp_Force_Field>
OPLS_2005

> <r_lp_Energy>
9.35516

> <b_lp_Chiralities_Consistent>
1

> <s_lp_Variant>
AV-unprocessed.smi:2795-3

> <Gold.Version>
5.8.1

> <Gold.Id.Protein>
6NUR|6NUR_protein|mol2

> <Gold.PLP.Fitness>
42.3871

> <Gold.PLP.PLP>
-35.6921

> <Gold.PLP.part.hbond>
-5.0000

> <Gold.PLP.part.metal>
0.0000

> <Gold.PLP.part.buried>
-4.2054

> <Gold.PLP.part.nonpolar>
-27.1938

> <Gold.PLP.part.repulsive>
0.5442

> <Gold.PLP.ligand.clash>
0.0000

> <Gold.PLP.ligand.torsion>
0.7466

> <Gold.PLP.Chemscore.Hbond>
2.0745

> <Gold.PLP.Chemscore.CHOScore>
0.6533

> <Gold.PLP.Chemscore.Metal>
0.0000

> <Gold.Chemscore.Hbonds>
donor molecule, donor type, donor heavy atom, donor atom, acceptor molecule, acceptor atom, score
      L1  H     9    27       P1  8028  0.69
      P1  H  7989  7998       L1    11  1.00
      P1  H  8011  8017       L1    17  0.07
      L1  C     5    22       P1  8028  0.42
      L1  C     5    22       P1  8029  0.38

> <Gold.PLP.Chemscore.Internal.Correction>
0.0047

> <Gold.Rescore>
     Score         DG    S(hbond)    S(metal)    S(lipo)     H(rot)  DE(clash)    DE(int)     intcor
     13.04     -15.95       1.52        0.00      84.63       1.76       2.40       0.50       ----

> <Gold.Chemscore.Fitness>
13.0419

> <Gold.Chemscore.DG>
-15.9487

> <Gold.Chemscore.ZeroCoef>
-5.4800

> <Gold.Chemscore.Hbond>
1.5176

> <Gold.Chemscore.Metal>
0.0000

> <Gold.Chemscore.Lipo>
84.6318

> <Gold.Chemscore.Internal_Hbond>
0.0000

> <Gold.Chemscore.DEClash>
2.4024

> <Gold.Chemscore.DEInternal>
0.5044

> <Gold.Chemscore.Rot>
1.7585

> <Gold.Chemscore.Internal.Correction>
   9.000000E+99

> <Gold.Chemscore.Hbonds>
donor molecule, donor type, donor heavy atom, donor atom, acceptor molecule, acceptor atom, score
      L1  H     9    27       P1  8028  0.68
      P1  H  7989  7998       L1    11  0.39
      P1  H  8011  8017       L1    17  0.05

> <Gold.Chemscore.Hbond.Weighted>
-5.0686

> <Gold.Chemscore.Metal.Weighted>
-0.0000

> <Gold.Chemscore.Lipo.Weighted>
-9.9019

> <Gold.Chemscore.Internal_Hbond.Weighted>
0.0000

> <Gold.Chemscore.DEClash.Weighted>
2.4024

> <Gold.Chemscore.DEInternal.Weighted>
0.5044

> <Gold.Chemscore.Rot.Weighted>
4.5018

> <Gold.Chemscore.Internal.Correction.Weighted>
   9.000000E+99

> <Gold.Protein.RotatedTorsions>
[ 6907 6896 6895 6894 ] final -140.58 input  -60.11 | X-H torsion
[ 7974 7965 7964 7962 ] final -137.30 input  175.53 | X-H torsion
[ 8008 7997 7996 7995 ] final   99.42 input   59.86 | X-H torsion
[ 10167 10162 10161 10158 ] final  -76.79 input  -65.29 | X-H torsion
[ 10718 10713 10712 10709 ] final   -7.85 input   66.30 | X-H torsion
[ 10763 10752 10751 10750 ] final   81.43 input  -60.55 | X-H torsion
[ 11005 11000 10999 10996 ] final   86.89 input  -57.11 | X-H torsion

> <Gold.Protein.ActiveResidues>
 VAL166  LYS551  ARG553  GLY616  TRP617  ASP618  TYR619  PRO620  LYS621  CYS622 
 ASP623  PHE694  ASN695  SER759  ASP760  ASP761  ALA762  ILE779  LEU786  VAL792 
 PHE793  MET794  SER795  GLU796  ALA797  LYS798  CYS799  TRP800  GLU811  SER814 

> <Gold.Protein.RotatedAtoms>
  151.0626  133.5532  159.2632 H   0  0  0  0  0  0  0  0  0  0  0  0  # atno 6907 bound_to 6896
  151.2501  135.0618  159.9068 H   0  0  0  0  0  0  0  0  0  0  0  0  # atno 6908 bound_to 6896
  152.5400  134.0388  159.8112 H   0  0  0  0  0  0  0  0  0  0  0  0  # atno 6909 bound_to 6896
  144.8853  140.6566  143.5180 H   0  0  0  0  0  0  0  0  0  0  0  0  # atno 7974 bound_to 7965
  156.1103  140.3229  155.8063 H   0  0  0  0  0  0  0  0  0  0  0  0  # atno 8008 bound_to 7997
  155.4684  140.0545  157.3000 H   0  0  0  0  0  0  0  0  0  0  0  0  # atno 8009 bound_to 7997
  154.4755  140.2030  155.9902 H   0  0  0  0  0  0  0  0  0  0  0  0  # atno 8010 bound_to 7997
  140.4827  143.2398  151.8033 H   0  0  0  0  0  0  0  0  0  0  0  0  # atno 10167 bound_to 10162
  156.7112  130.5122  149.5891 H   0  0  0  0  0  0  0  0  0  0  0  0  # atno 10718 bound_to 10713
  153.1116  135.4766  154.9044 H   0  0  0  0  0  0  0  0  0  0  0  0  # atno 10763 bound_to 10752
  154.7486  135.3100  154.8601 H   0  0  0  0  0  0  0  0  0  0  0  0  # atno 10764 bound_to 10752
  153.9189  135.6857  153.4802 H   0  0  0  0  0  0  0  0  0  0  0  0  # atno 10765 bound_to 10752
  139.8933  134.8385  156.2783 H   0  0  0  0  0  0  0  0  0  0  0  0  # atno 11005 bound_to 11000
  145.3880  139.1622  143.4245 LP  0  0  0  0  0  0  0  0  0  0  0  0  # atno 17320 bound_to 7965
  146.3021  140.3966  142.8700 LP  0  0  0  0  0  0  0  0  0  0  0  0  # atno 17321 bound_to 7965
  139.4836  144.4752  151.9376 LP  0  0  0  0  0  0  0  0  0  0  0  0  # atno 17342 bound_to 10162
  140.3838  144.2703  150.5906 LP  0  0  0  0  0  0  0  0  0  0  0  0  # atno 17343 bound_to 10162
  156.1660  130.6405  151.0778 LP  0  0  0  0  0  0  0  0  0  0  0  0  # atno 17370 bound_to 10713
  157.6935  131.0802  150.7037 LP  0  0  0  0  0  0  0  0  0  0  0  0  # atno 17371 bound_to 10713
  141.0055  133.7126  156.1028 LP  0  0  0  0  0  0  0  0  0  0  0  0  # atno 17394 bound_to 11000
  140.7439  134.4120  157.5551 LP  0  0  0  0  0  0  0  0  0  0  0  0  # atno 17395 bound_to 11000

$$$$
