AV-unprocessed.smi:1228|AV-procd|sdf|5148|dock1
  -GOLD-   22720 4213D 1   1.00000     0.00000
 Structure written by MMmdl.
 44 46  0  0  0  0  0  0  0  0  2 V2000
  150.9487  141.0567  156.5201 C   0  0  0  0  0  0  0  0  0  0  0  0
  149.9350  140.5682  155.5281 C   0  0  0  0  0  0  0  0  0  0  0  0
  149.7909  139.2539  154.9960 C   0  0  0  0  0  0  0  0  0  0  0  0
  148.7218  139.3862  154.1525 C   0  0  0  0  0  0  0  0  0  0  0  0
  148.1269  138.4457  153.3714 N   0  0  0  0  0  0  0  0  0  0  0  0
  146.8154  138.2297  153.1690 C   0  0  0  0  0  0  0  0  0  0  0  0
  145.8975  138.8619  153.6920 O   0  0  0  0  0  0  0  0  0  0  0  0
  146.6171  137.2159  152.3134 N   0  0  0  0  0  0  0  0  0  0  0  0
  145.3111  136.7301  151.8769 C   0  0  2  0  0  0  0  0  0  0  0  0
  144.6700  135.8348  152.9536 C   0  0  0  0  0  0  0  0  0  0  0  0
  143.3381  135.2380  152.4607 C   0  0  0  0  0  0  0  0  0  0  0  0
  143.4937  134.5028  151.1792 N   0  3  2  0  0  0  0  0  0  0  0  0
  144.1530  133.1850  151.3350 C   0  0  0  0  0  0  0  0  0  0  0  0
  144.8137  132.6861  150.0712 C   0  0  0  0  0  0  0  0  0  0  0  0
  143.5047  132.0833  150.5294 C   0  0  0  0  0  0  0  0  0  0  0  0
  144.1069  135.3465  150.1209 C   0  0  0  0  0  0  0  0  0  0  0  0
  145.4562  135.9439  150.5636 C   0  0  0  0  0  0  0  0  0  0  0  0
  148.2777  140.6890  154.1980 N   0  0  0  0  0  0  0  0  0  0  0  0
  147.1783  141.3123  153.4876 C   0  0  0  0  0  0  0  0  0  0  0  0
  149.0328  141.4172  155.0488 N   0  0  0  0  0  0  0  0  0  0  0  0
  151.5353  140.2306  156.9228 H   0  0  0  0  0  0  0  0  0  0  0  0
  150.4682  141.5612  157.3588 H   0  0  0  0  0  0  0  0  0  0  0  0
  151.6408  141.7607  156.0579 H   0  0  0  0  0  0  0  0  0  0  0  0
  150.3827  138.3772  155.2123 H   0  0  0  0  0  0  0  0  0  0  0  0
  148.7611  137.8305  152.8838 H   0  0  0  0  0  0  0  0  0  0  0  0
  147.4283  136.7508  151.9323 H   0  0  0  0  0  0  0  0  0  0  0  0
  144.6569  137.5840  151.6902 H   0  0  0  0  0  0  0  0  0  0  0  0
  145.3561  135.0325  153.2285 H   0  0  0  0  0  0  0  0  0  0  0  0
  144.4945  136.4090  153.8641 H   0  0  0  0  0  0  0  0  0  0  0  0
  142.9125  134.5796  153.2188 H   0  0  0  0  0  0  0  0  0  0  0  0
  142.6144  136.0401  152.3104 H   0  0  0  0  0  0  0  0  0  0  0  0
  144.5915  132.9661  152.3065 H   0  0  0  0  0  0  0  0  0  0  0  0
  144.7906  133.3245  149.1897 H   0  0  0  0  0  0  0  0  0  0  0  0
  145.7081  132.0758  150.1789 H   0  0  0  0  0  0  0  0  0  0  0  0
  143.5365  131.0763  150.9403 H   0  0  0  0  0  0  0  0  0  0  0  0
  142.6136  132.3211  149.9511 H   0  0  0  0  0  0  0  0  0  0  0  0
  144.2299  134.7662  149.2057 H   0  0  0  0  0  0  0  0  0  0  0  0
  143.4137  136.1539  149.8811 H   0  0  0  0  0  0  0  0  0  0  0  0
  145.8399  136.5977  149.7795 H   0  0  0  0  0  0  0  0  0  0  0  0
  146.1919  135.1473  150.6826 H   0  0  0  0  0  0  0  0  0  0  0  0
  147.3462  141.2347  152.4131 H   0  0  0  0  0  0  0  0  0  0  0  0
  147.0943  142.3659  153.7576 H   0  0  0  0  0  0  0  0  0  0  0  0
  146.2455  140.8076  153.7408 H   0  0  0  0  0  0  0  0  0  0  0  0
  142.5577  134.2938  150.8619 H   0  0  0  0  0  0  0  0  0  0  0  0
  1  2  1  0  0  0  0
  1 21  1  0  0  0  0
  1 22  1  0  0  0  0
  1 23  1  0  0  0  0
  2 20  2  0  0  0  0
  2  3  1  0  0  0  0
  3  4  2  0  0  0  0
  3 24  1  0  0  0  0
  4  5  1  0  0  0  0
  4 18  1  0  0  0  0
  5  6  1  0  0  0  0
  5 25  1  0  0  0  0
  6  7  2  0  0  0  0
  6  8  1  0  0  0  0
  8  9  1  0  0  0  0
  8 26  1  0  0  0  0
  9 17  1  0  0  0  0
  9 10  1  0  0  0  0
  9 27  1  0  0  0  0
 10 11  1  0  0  0  0
 10 28  1  0  0  0  0
 10 29  1  0  0  0  0
 11 12  1  0  0  0  0
 11 30  1  0  0  0  0
 11 31  1  0  0  0  0
 12 13  1  0  0  0  0
 12 16  1  0  0  0  0
 12 44  1  0  0  0  0
 13 15  1  0  0  0  0
 13 14  1  0  0  0  0
 13 32  1  0  0  0  0
 14 15  1  0  0  0  0
 14 33  1  0  0  0  0
 14 34  1  0  0  0  0
 15 35  1  0  0  0  0
 15 36  1  0  0  0  0
 16 17  1  0  0  0  0
 16 37  1  0  0  0  0
 16 38  1  0  0  0  0
 17 39  1  0  0  0  0
 17 40  1  0  0  0  0
 18 19  1  0  0  0  0
 18 20  1  0  0  0  0
 19 41  1  0  0  0  0
 19 42  1  0  0  0  0
 19 43  1  0  0  0  0
M  CHG  1  12   1
M  END
> <s_m_source_file>
AV-unprocessed.smi

> <i_m_source_file_index>
1228

> <i_lp_mmshare_version>
43012

> <i_f3d_flags>
0

> <s_epik_input>
W0NIM11jMVtjSF1jKG4objEpW0NIM10pW05IXUMoPU8pW05IXVtDSF0yW0NIMl1bQ0gyXU4oW0NIMl1bQ0gyXTIpW0NIXTNbQ0gyXVtDSDJdMw==

> <s_epik_cmdline>
J2VwaWtfcHl0aG9uJywgJy1waCcsICc3LjAnLCAnLXRuJywgJzgnLCAnLW1hJywgJzIwMCcsICctbWV0YWxfYmluZGluZycsICctaW1hZScsICc8aW5maWxlLm1hZT4nLCAnLW9tYWUnLCAnPG91dGZpbGUubWFlPic=

> <r_lp_tautomer_probability>
1

> <r_epik_Ionization_Penalty>
0.11882

> <r_epik_Ionization_Penalty_Charging>
0.11874

> <r_epik_Ionization_Penalty_Neutral>
8.03064e-05

> <r_epik_State_Penalty>
0.108313

> <r_epik_Charging_Adjusted_Penalty>
0.227053

> <i_epik_Tot_Q>
1

> <i_epik_Tot_abs_Q>
1

> <r_epik_Metal_State_Penalty>
0.108316

> <b_epik_Metal_Only>
0

> <s_lp_Force_Field>
OPLS_2005

> <r_lp_Energy>
29.8379

> <b_lp_Chiralities_Consistent>
1

> <s_lp_Variant>
AV-unprocessed.smi:1228-2

> <Gold.Version>
5.8.1

> <Gold.Id.Protein>
6NUR|6NUR_protein|mol2

> <Gold.PLP.Fitness>
44.7258

> <Gold.PLP.PLP>
-34.6227

> <Gold.PLP.part.hbond>
-3.8801

> <Gold.PLP.part.metal>
0.0000

> <Gold.PLP.part.buried>
-2.7289

> <Gold.PLP.part.nonpolar>
-30.4356

> <Gold.PLP.part.repulsive>
1.0526

> <Gold.PLP.ligand.clash>
0.0000

> <Gold.PLP.ligand.torsion>
1.4762

> <Gold.PLP.Chemscore.Hbond>
3.9265

> <Gold.PLP.Chemscore.CHOScore>
0.0000

> <Gold.PLP.Chemscore.Metal>
0.0000

> <Gold.Chemscore.Hbonds>
donor molecule, donor type, donor heavy atom, donor atom, acceptor molecule, acceptor atom, score
      L1  H     5    25       P1  7948  0.96
      L1  H     8    26       P1  7948  1.00
      L1  H    12    44       P1 10186  2.00

> <Gold.PLP.Chemscore.Internal.Correction>
1.2758

> <Gold.Rescore>
     Score         DG    S(hbond)    S(metal)    S(lipo)     H(rot)  DE(clash)    DE(int)     intcor
     16.88     -19.86       2.44        0.00      79.80       1.21       0.25       2.72       ----

> <Gold.Chemscore.Fitness>
16.8818

> <Gold.Chemscore.DG>
-19.8573

> <Gold.Chemscore.ZeroCoef>
-5.4800

> <Gold.Chemscore.Hbond>
2.4365

> <Gold.Chemscore.Metal>
0.0000

> <Gold.Chemscore.Lipo>
79.7981

> <Gold.Chemscore.Internal_Hbond>
0.0000

> <Gold.Chemscore.DEClash>
0.2533

> <Gold.Chemscore.DEInternal>
2.7222

> <Gold.Chemscore.Rot>
1.2097

> <Gold.Chemscore.Internal.Correction>
   9.000000E+99

> <Gold.Chemscore.Hbonds>
donor molecule, donor type, donor heavy atom, donor atom, acceptor molecule, acceptor atom, score
      L1  H     5    25       P1  7948  0.92
      L1  H     8    26       P1  7948  0.98
      L1  H    12    44       P1 10186  0.27

> <Gold.Chemscore.Hbond.Weighted>
-8.1378

> <Gold.Chemscore.Metal.Weighted>
-0.0000

> <Gold.Chemscore.Lipo.Weighted>
-9.3364

> <Gold.Chemscore.Internal_Hbond.Weighted>
0.0000

> <Gold.Chemscore.DEClash.Weighted>
0.2533

> <Gold.Chemscore.DEInternal.Weighted>
2.7222

> <Gold.Chemscore.Rot.Weighted>
3.0969

> <Gold.Chemscore.Internal.Correction.Weighted>
   9.000000E+99

> <Gold.Protein.RotatedTorsions>
[ 6907 6896 6895 6894 ] final -174.49 input  -60.11 | X-H torsion
[ 7974 7965 7964 7962 ] final -103.57 input  175.53 | X-H torsion
[ 8008 7997 7996 7995 ] final -102.33 input   59.86 | X-H torsion
[ 10167 10162 10161 10158 ] final   16.25 input  -65.29 | X-H torsion
[ 10718 10713 10712 10709 ] final  148.33 input   66.30 | X-H torsion
[ 10763 10752 10751 10750 ] final  143.61 input  -60.55 | X-H torsion
[ 11005 11000 10999 10996 ] final    4.92 input  -57.11 | X-H torsion

> <Gold.Protein.ActiveResidues>
 VAL166  LYS551  ARG553  GLY616  TRP617  ASP618  TYR619  PRO620  LYS621  CYS622 
 ASP623  PHE694  ASN695  SER759  ASP760  ASP761  ALA762  ILE779  LEU786  VAL792 
 PHE793  MET794  SER795  GLU796  ALA797  LYS798  CYS799  TRP800  GLU811  SER814 

> <Gold.Protein.RotatedAtoms>
  151.5732  133.3387  159.2993 H   0  0  0  0  0  0  0  0  0  0  0  0  # atno 6907 bound_to 6896
  150.8356  134.7630  159.6901 H   0  0  0  0  0  0  0  0  0  0  0  0  # atno 6908 bound_to 6896
  152.4433  134.5554  159.9930 H   0  0  0  0  0  0  0  0  0  0  0  0  # atno 6909 bound_to 6896
  145.2543  140.9248  143.3077 H   0  0  0  0  0  0  0  0  0  0  0  0  # atno 7974 bound_to 7965
  154.8551  140.0429  157.1629 H   0  0  0  0  0  0  0  0  0  0  0  0  # atno 8008 bound_to 7997
  154.8900  140.2985  155.5355 H   0  0  0  0  0  0  0  0  0  0  0  0  # atno 8009 bound_to 7997
  156.2997  140.2395  156.3915 H   0  0  0  0  0  0  0  0  0  0  0  0  # atno 8010 bound_to 7997
  140.5810  143.8980  150.6790 H   0  0  0  0  0  0  0  0  0  0  0  0  # atno 10167 bound_to 10162
  157.3100  131.0886  151.1324 H   0  0  0  0  0  0  0  0  0  0  0  0  # atno 10718 bound_to 10713
  153.9753  135.2946  155.3424 H   0  0  0  0  0  0  0  0  0  0  0  0  # atno 10763 bound_to 10752
  154.7300  135.5072  153.8951 H   0  0  0  0  0  0  0  0  0  0  0  0  # atno 10764 bound_to 10752
  153.0880  135.6699  154.0023 H   0  0  0  0  0  0  0  0  0  0  0  0  # atno 10765 bound_to 10752
  140.5765  134.0053  155.8030 H   0  0  0  0  0  0  0  0  0  0  0  0  # atno 11005 bound_to 11000
  144.9475  139.4119  143.6418 LP  0  0  0  0  0  0  0  0  0  0  0  0  # atno 17320 bound_to 7965
  146.3294  139.8466  142.8880 LP  0  0  0  0  0  0  0  0  0  0  0  0  # atno 17321 bound_to 7965
  140.2480  143.3614  152.1430 LP  0  0  0  0  0  0  0  0  0  0  0  0  # atno 17342 bound_to 10162
  139.5170  144.6985  151.5561 LP  0  0  0  0  0  0  0  0  0  0  0  0  # atno 17343 bound_to 10162
  157.2649  130.6677  149.5992 LP  0  0  0  0  0  0  0  0  0  0  0  0  # atno 17370 bound_to 10713
  155.9677  130.4497  150.5668 LP  0  0  0  0  0  0  0  0  0  0  0  0  # atno 17371 bound_to 10713
  141.1023  133.9748  157.3057 LP  0  0  0  0  0  0  0  0  0  0  0  0  # atno 17394 bound_to 11000
  139.9337  135.0198  156.8485 LP  0  0  0  0  0  0  0  0  0  0  0  0  # atno 17395 bound_to 11000

$$$$
