AV-unprocessed.smi:1749|AV-procd|sdf|7047|dock5
  -GOLD-   22720 8263D 1   1.00000     0.00000
 Structure written by MMmdl.
 32 33  0  0  0  0  0  0  0  0  1 V2000
  152.0318  141.8524  158.9906 C   0  0  0  0  0  0  0  0  0  0  0  0
  151.1752  141.0110  158.0342 C   0  0  1  0  0  0  0  0  0  0  0  0
  150.9082  141.7567  156.7128 C   0  0  0  0  0  0  0  0  0  0  0  0
  150.0545  140.9158  155.7505 C   0  0  0  0  0  0  0  0  0  0  0  0
  150.6982  139.5440  155.4830 C   0  0  0  0  0  0  0  0  0  0  0  0
  150.9886  138.7758  156.7865 C   0  0  2  0  0  0  0  0  0  0  0  0
  149.7362  138.3515  157.4072 N   0  0  0  0  0  0  0  0  0  0  0  0
  149.6130  137.6843  158.5662 C   0  0  0  0  0  0  0  0  0  0  0  0
  150.5806  137.3021  159.2218 O   0  0  0  0  0  0  0  0  0  0  0  0
  148.3507  137.4421  158.9794 N   0  0  0  0  0  0  0  0  0  0  0  0
  147.8524  136.7748  160.1363 C   0  0  0  0  0  0  0  0  0  0  0  0
  147.7294  137.3442  161.3469 N   0  0  0  0  0  0  0  0  0  0  0  0
  147.2391  136.4572  162.2952 N   0  0  0  0  0  0  0  0  0  0  0  0
  147.0230  135.2487  161.7690 C   0  0  0  0  0  0  0  0  0  0  0  0
  147.3987  135.0776  160.0632 S   0  0  0  0  0  0  0  0  0  0  0  0
  151.8241  139.6382  157.7571 C   0  0  0  0  0  0  0  0  0  0  0  0
  153.0128  142.0632  158.5641 H   0  0  0  0  0  0  0  0  0  0  0  0
  152.1847  141.3347  159.9379 H   0  0  0  0  0  0  0  0  0  0  0  0
  151.5520  142.8064  159.2106 H   0  0  0  0  0  0  0  0  0  0  0  0
  150.2152  140.8419  158.5245 H   0  0  0  0  0  0  0  0  0  0  0  0
  150.4050  142.7032  156.9133 H   0  0  0  0  0  0  0  0  0  0  0  0
  151.8552  142.0068  156.2326 H   0  0  0  0  0  0  0  0  0  0  0  0
  149.0562  140.7817  156.1691 H   0  0  0  0  0  0  0  0  0  0  0  0
  149.9217  141.4509  154.8100 H   0  0  0  0  0  0  0  0  0  0  0  0
  150.0575  138.9511  154.8291 H   0  0  0  0  0  0  0  0  0  0  0  0
  151.6325  139.6905  154.9394 H   0  0  0  0  0  0  0  0  0  0  0  0
  151.5620  137.8835  156.5284 H   0  0  0  0  0  0  0  0  0  0  0  0
  148.8863  138.6215  156.9324 H   0  0  0  0  0  0  0  0  0  0  0  0
  147.6358  137.7325  158.3282 H   0  0  0  0  0  0  0  0  0  0  0  0
  146.6430  134.4514  162.3902 H   0  0  0  0  0  0  0  0  0  0  0  0
  152.8162  139.7901  157.3297 H   0  0  0  0  0  0  0  0  0  0  0  0
  151.9813  139.1021  158.6940 H   0  0  0  0  0  0  0  0  0  0  0  0
  1  2  1  0  0  0  0
  1 17  1  0  0  0  0
  1 18  1  0  0  0  0
  1 19  1  0  0  0  0
  2 16  1  0  0  0  0
  2  3  1  0  0  0  0
  2 20  1  0  0  0  0
  3  4  1  0  0  0  0
  3 21  1  0  0  0  0
  3 22  1  0  0  0  0
  4  5  1  0  0  0  0
  4 23  1  0  0  0  0
  4 24  1  0  0  0  0
  5  6  1  0  0  0  0
  5 25  1  0  0  0  0
  5 26  1  0  0  0  0
  6  7  1  0  0  0  0
  6 16  1  0  0  0  0
  6 27  1  0  0  0  0
  7  8  1  0  0  0  0
  7 28  1  0  0  0  0
  8  9  2  0  0  0  0
  8 10  1  0  0  0  0
 10 11  1  0  0  0  0
 10 29  1  0  0  0  0
 11 15  1  0  0  0  0
 11 12  2  0  0  0  0
 12 13  1  0  0  0  0
 13 14  2  0  0  0  0
 14 15  1  0  0  0  0
 14 30  1  0  0  0  0
 16 31  1  0  0  0  0
 16 32  1  0  0  0  0
M  END
> <s_m_source_file>
AV-unprocessed.smi

> <i_m_source_file_index>
1749

> <i_lp_mmshare_version>
43012

> <i_f3d_flags>
0

> <s_epik_input>
W0NIM11bQ0BASF0xW0NIMl1bQ0gyXVtDSDJdW0NASF0oW0NIMl0xKVtOSF1DKD1PKVtOSF1jMm5uW2NIXXMy

> <s_epik_cmdline>
J2VwaWtfcHl0aG9uJywgJy1waCcsICc3LjAnLCAnLXRuJywgJzgnLCAnLW1hJywgJzIwMCcsICctbWV0YWxfYmluZGluZycsICctaW1hZScsICc8aW5maWxlLm1hZT4nLCAnLW9tYWUnLCAnPG91dGZpbGUubWFlPic=

> <r_lp_tautomer_probability>
1

> <r_epik_Ionization_Penalty>
0.000318591

> <r_epik_Ionization_Penalty_Charging>
0

> <r_epik_Ionization_Penalty_Neutral>
0.000318591

> <r_epik_State_Penalty>
-0

> <r_epik_Charging_Adjusted_Penalty>
0

> <i_epik_Tot_Q>
0

> <i_epik_Tot_abs_Q>
0

> <r_epik_Metal_State_Penalty>
0.169791

> <b_epik_Metal_Only>
0

> <s_lp_Force_Field>
OPLS_2005

> <r_lp_Energy>
10.2473

> <b_lp_Chiralities_Consistent>
1

> <s_lp_Variant>
AV-unprocessed.smi:1749-4

> <Gold.Version>
5.8.1

> <Gold.Id.Protein>
6NUR|6NUR_protein|mol2

> <Gold.PLP.Fitness>
33.0768

> <Gold.PLP.PLP>
-26.1720

> <Gold.PLP.part.hbond>
-2.9674

> <Gold.PLP.part.metal>
0.0000

> <Gold.PLP.part.buried>
-4.6154

> <Gold.PLP.part.nonpolar>
-18.8358

> <Gold.PLP.part.repulsive>
0.2097

> <Gold.PLP.ligand.clash>
0.0000

> <Gold.PLP.ligand.torsion>
0.7491

> <Gold.PLP.Chemscore.Hbond>
2.7993

> <Gold.PLP.Chemscore.CHOScore>
0.0000

> <Gold.PLP.Chemscore.Metal>
0.0000

> <Gold.Chemscore.Hbonds>
donor molecule, donor type, donor heavy atom, donor atom, acceptor molecule, acceptor atom, score
      P1  H  6896  6908       L1     9  0.15
      P1  H  6931  6943       L1    12  0.91
      P1  H  6934  6947       L1    12  0.77

> <Gold.PLP.Chemscore.Internal.Correction>
0.0054

> <Gold.Rescore>
     Score         DG    S(hbond)    S(metal)    S(lipo)     H(rot)  DE(clash)    DE(int)     intcor
     16.31     -17.88       2.58        0.00      54.18       1.00       0.08       1.48       ----

> <Gold.Chemscore.Fitness>
16.3113

> <Gold.Chemscore.DG>
-17.8773

> <Gold.Chemscore.ZeroCoef>
-5.4800

> <Gold.Chemscore.Hbond>
2.5803

> <Gold.Chemscore.Metal>
0.0000

> <Gold.Chemscore.Lipo>
54.1813

> <Gold.Chemscore.Internal_Hbond>
0.0000

> <Gold.Chemscore.DEClash>
0.0824

> <Gold.Chemscore.DEInternal>
1.4836

> <Gold.Chemscore.Rot>
1.0000

> <Gold.Chemscore.Internal.Correction>
   9.000000E+99

> <Gold.Chemscore.Hbonds>
donor molecule, donor type, donor heavy atom, donor atom, acceptor molecule, acceptor atom, score
      P1  H  6896  6908       L1     9  0.16
      P1  H  6931  6943       L1    12  0.72
      P1  H  6934  6947       L1    12  0.30

> <Gold.Chemscore.Hbond.Weighted>
-8.6181

> <Gold.Chemscore.Metal.Weighted>
-0.0000

> <Gold.Chemscore.Lipo.Weighted>
-6.3392

> <Gold.Chemscore.Internal_Hbond.Weighted>
0.0000

> <Gold.Chemscore.DEClash.Weighted>
0.0824

> <Gold.Chemscore.DEInternal.Weighted>
1.4836

> <Gold.Chemscore.Rot.Weighted>
2.5600

> <Gold.Chemscore.Internal.Correction.Weighted>
   9.000000E+99

> <Gold.Protein.RotatedTorsions>
[ 6907 6896 6895 6894 ] final -137.34 input  -60.11 | X-H torsion
[ 7974 7965 7964 7962 ] final  -65.00 input  175.53 | X-H torsion
[ 8008 7997 7996 7995 ] final   31.66 input   59.86 | X-H torsion
[ 10167 10162 10161 10158 ] final  119.01 input  -65.29 | X-H torsion
[ 10718 10713 10712 10709 ] final  124.12 input   66.30 | X-H torsion
[ 10763 10752 10751 10750 ] final  128.29 input  -60.55 | X-H torsion
[ 11005 11000 10999 10996 ] final  -39.36 input  -57.11 | X-H torsion

> <Gold.Protein.ActiveResidues>
 VAL166  LYS551  ARG553  GLY616  TRP617  ASP618  TYR619  PRO620  LYS621  CYS622 
 ASP623  PHE694  ASN695  SER759  ASP760  ASP761  ALA762  ILE779  LEU786  VAL792 
 PHE793  MET794  SER795  GLU796  ALA797  LYS798  CYS799  TRP800  GLU811  SER814 

> <Gold.Protein.RotatedAtoms>
  151.0212  133.5875  159.2670 H   0  0  0  0  0  0  0  0  0  0  0  0  # atno 6907 bound_to 6896
  151.2991  135.0762  159.9242 H   0  0  0  0  0  0  0  0  0  0  0  0  # atno 6908 bound_to 6896
  152.5323  133.9897  159.7899 H   0  0  0  0  0  0  0  0  0  0  0  0  # atno 6909 bound_to 6896
  145.7597  140.8867  143.0436 H   0  0  0  0  0  0  0  0  0  0  0  0  # atno 7974 bound_to 7965
  155.1100  140.3238  155.4524 H   0  0  0  0  0  0  0  0  0  0  0  0  # atno 8008 bound_to 7997
  156.2693  140.2046  156.6172 H   0  0  0  0  0  0  0  0  0  0  0  0  # atno 8009 bound_to 7997
  154.6763  140.0531  157.0206 H   0  0  0  0  0  0  0  0  0  0  0  0  # atno 8010 bound_to 7997
  139.6074  144.7073  151.2922 H   0  0  0  0  0  0  0  0  0  0  0  0  # atno 10167 bound_to 10162
  157.5610  131.1089  150.8537 H   0  0  0  0  0  0  0  0  0  0  0  0  # atno 10718 bound_to 10713
  153.7232  135.3250  155.3271 H   0  0  0  0  0  0  0  0  0  0  0  0  # atno 10763 bound_to 10752
  154.8349  135.4504  154.1196 H   0  0  0  0  0  0  0  0  0  0  0  0  # atno 10764 bound_to 10752
  153.2323  135.6961  153.7956 H   0  0  0  0  0  0  0  0  0  0  0  0  # atno 10765 bound_to 10752
  141.0096  133.6914  156.2176 H   0  0  0  0  0  0  0  0  0  0  0  0  # atno 11005 bound_to 11000
  144.6833  139.9706  143.7482 LP  0  0  0  0  0  0  0  0  0  0  0  0  # atno 17320 bound_to 7965
  146.0276  139.3306  143.0775 LP  0  0  0  0  0  0  0  0  0  0  0  0  # atno 17321 bound_to 7965
  140.7294  143.6907  150.7924 LP  0  0  0  0  0  0  0  0  0  0  0  0  # atno 17342 bound_to 10162
  140.0495  143.5264  152.2680 LP  0  0  0  0  0  0  0  0  0  0  0  0  # atno 17343 bound_to 10162
  156.9035  130.5255  149.5282 LP  0  0  0  0  0  0  0  0  0  0  0  0  # atno 17370 bound_to 10713
  156.0663  130.5705  150.9295 LP  0  0  0  0  0  0  0  0  0  0  0  0  # atno 17371 bound_to 10713
  140.6756  134.4822  157.5588 LP  0  0  0  0  0  0  0  0  0  0  0  0  # atno 17394 bound_to 11000
  139.9082  134.8402  156.1625 LP  0  0  0  0  0  0  0  0  0  0  0  0  # atno 17395 bound_to 11000

$$$$
