AV-unprocessed.smi:655|AV-procd|sdf|3217|dock5
  -GOLD-   22720 0153D 1   1.00000     0.00000
 Structure written by MMmdl.
 34 35  0  0  0  0  0  0  0  0  2 V2000
  153.4630  142.5059  160.5921 C   0  0  0  0  0  0  0  0  0  0  0  0
  152.0699  142.5062  159.9469 C   0  0  2  0  0  0  0  0  0  0  0  0
  151.7709  141.1655  159.2528 C   0  0  0  0  0  0  0  0  0  0  0  0
  150.3794  141.1582  158.5925 C   0  0  0  0  0  0  0  0  0  0  0  0
  150.1834  142.3267  157.5956 C   0  0  2  0  0  0  0  0  0  0  0  0
  148.8033  142.4063  157.2931 O   0  0  0  0  0  0  0  0  0  0  0  0
  150.9507  142.1852  156.2458 C   0  0  0  0  0  0  0  0  0  0  0  0
  150.9922  140.8155  155.6945 N   0  0  0  0  0  0  0  0  0  0  0  0
  151.8707  139.9051  156.3099 C   0  0  0  0  0  0  0  0  0  0  0  0
  151.9915  138.6287  155.8974 C   0  0  0  0  0  0  0  0  0  0  0  0
  153.0850  137.5403  156.6750 Cl  0  0  0  0  0  0  0  0  0  0  0  0
  151.1667  138.1917  154.7740 C   0  0  0  0  0  0  0  0  0  0  0  0
  151.2638  137.0377  154.3591 O   0  0  0  0  0  0  0  0  0  0  0  0
  150.3081  139.1013  154.2286 N   0  5  0  0  0  0  0  0  0  0  0  0
  150.1905  140.3913  154.6705 C   0  0  0  0  0  0  0  0  0  0  0  0
  149.3855  141.1772  154.1734 O   0  0  0  0  0  0  0  0  0  0  0  0
  150.5200  143.6650  158.2963 C   0  0  0  0  0  0  0  0  0  0  0  0
  151.9129  143.6681  158.9498 C   0  0  0  0  0  0  0  0  0  0  0  0
  154.2453  142.3651  159.8454 H   0  0  0  0  0  0  0  0  0  0  0  0
  153.5559  141.7050  161.3262 H   0  0  0  0  0  0  0  0  0  0  0  0
  153.6584  143.4477  161.1053 H   0  0  0  0  0  0  0  0  0  0  0  0
  151.3379  142.6441  160.7440 H   0  0  0  0  0  0  0  0  0  0  0  0
  152.5406  140.9682  158.5090 H   0  0  0  0  0  0  0  0  0  0  0  0
  151.8318  140.3512  159.9753 H   0  0  0  0  0  0  0  0  0  0  0  0
  150.1954  140.1972  158.1125 H   0  0  0  0  0  0  0  0  0  0  0  0
  149.6328  141.2349  159.3847 H   0  0  0  0  0  0  0  0  0  0  0  0
  148.6126  143.2880  157.0111 H   0  0  0  0  0  0  0  0  0  0  0  0
  150.4991  142.8449  155.5029 H   0  0  0  0  0  0  0  0  0  0  0  0
  151.9642  142.5710  156.3565 H   0  0  0  0  0  0  0  0  0  0  0  0
  152.4377  140.3069  157.1369 H   0  0  0  0  0  0  0  0  0  0  0  0
  150.4414  144.4932  157.5908 H   0  0  0  0  0  0  0  0  0  0  0  0
  149.7818  143.8652  159.0750 H   0  0  0  0  0  0  0  0  0  0  0  0
  152.0686  144.6181  159.4619 H   0  0  0  0  0  0  0  0  0  0  0  0
  152.6857  143.6079  158.1832 H   0  0  0  0  0  0  0  0  0  0  0  0
  1  2  1  0  0  0  0
  1 19  1  0  0  0  0
  1 20  1  0  0  0  0
  1 21  1  0  0  0  0
  2 18  1  0  0  0  0
  2  3  1  0  0  0  0
  2 22  1  0  0  0  0
  3  4  1  0  0  0  0
  3 23  1  0  0  0  0
  3 24  1  0  0  0  0
  4  5  1  0  0  0  0
  4 25  1  0  0  0  0
  4 26  1  0  0  0  0
  5  6  1  0  0  0  0
  5  7  1  0  0  0  0
  5 17  1  0  0  0  0
  6 27  1  0  0  0  0
  7  8  1  0  0  0  0
  7 28  1  0  0  0  0
  7 29  1  0  0  0  0
  8 15  1  0  0  0  0
  8  9  1  0  0  0  0
  9 10  2  0  0  0  0
  9 30  1  0  0  0  0
 10 11  1  0  0  0  0
 10 12  1  0  0  0  0
 12 13  2  0  0  0  0
 12 14  1  0  0  0  0
 14 15  1  0  0  0  0
 15 16  2  0  0  0  0
 17 18  1  0  0  0  0
 17 31  1  0  0  0  0
 17 32  1  0  0  0  0
 18 33  1  0  0  0  0
 18 34  1  0  0  0  0
M  CHG  1  14  -1
M  END
> <s_m_source_file>
AV-unprocessed.smi

> <i_m_source_file_index>
655

> <i_lp_mmshare_version>
43012

> <i_f3d_flags>
0

> <s_epik_input>
W0NIMl0xW0NIMl1bQ0BIXShbQ0gzXSlbQ0gyXVtDSDJdW0NAQF0xKFtPSF0pW0NIMl1uMltjSF1jKENsKWMoPU8pW25IXWMyPU8=

> <s_epik_cmdline>
J2VwaWtfcHl0aG9uJywgJy1waCcsICc3LjAnLCAnLXRuJywgJzgnLCAnLW1hJywgJzIwMCcsICctbWV0YWxfYmluZGluZycsICctaW1hZScsICc8aW5maWxlLm1hZT4nLCAnLW9tYWUnLCAnPG91dGZpbGUubWFlPic=

> <r_epik_Ionization_Penalty>
2.34257

> <r_epik_Ionization_Penalty_Charging>
1.00552e-07

> <r_epik_Ionization_Penalty_Neutral>
2.34257

> <r_epik_State_Penalty>
2.4963

> <r_epik_Charging_Adjusted_Penalty>
2.4963

> <i_epik_Tot_Q>
-1

> <i_epik_Tot_abs_Q>
1

> <r_epik_Metal_State_Penalty>
0.0381881

> <b_epik_Metal_Only>
0

> <s_lp_Force_Field>
OPLS_2005

> <r_lp_Energy>
26.7084

> <b_lp_Chiralities_Consistent>
1

> <s_lp_Variant>
AV-unprocessed.smi:655-4

> <Gold.Version>
5.8.1

> <Gold.Id.Protein>
6NUR|6NUR_protein|mol2

> <Gold.PLP.Fitness>
40.1750

> <Gold.PLP.PLP>
-33.9665

> <Gold.PLP.part.hbond>
-4.1785

> <Gold.PLP.part.metal>
0.0000

> <Gold.PLP.part.buried>
-1.3207

> <Gold.PLP.part.nonpolar>
-29.6631

> <Gold.PLP.part.repulsive>
0.9277

> <Gold.PLP.ligand.clash>
0.0000

> <Gold.PLP.ligand.torsion>
0.5008

> <Gold.PLP.Chemscore.Hbond>
2.3770

> <Gold.PLP.Chemscore.CHOScore>
0.0000

> <Gold.PLP.Chemscore.Metal>
0.0000

> <Gold.Chemscore.Hbonds>
donor molecule, donor type, donor heavy atom, donor atom, acceptor molecule, acceptor atom, score
      L1  H     6    27       P1  8028  0.98
      P1  H  8011  8017       L1    16  0.34
      P1  H 10752 10764       L1    13  0.65

> <Gold.PLP.Chemscore.Internal.Correction>
0.0791

> <Gold.Rescore>
     Score         DG    S(hbond)    S(metal)    S(lipo)     H(rot)  DE(clash)    DE(int)     intcor
     15.68     -18.73       2.26        0.00      88.23       1.81       1.85       1.21       ----

> <Gold.Chemscore.Fitness>
15.6831

> <Gold.Chemscore.DG>
-18.7345

> <Gold.Chemscore.ZeroCoef>
-5.4800

> <Gold.Chemscore.Hbond>
2.2646

> <Gold.Chemscore.Metal>
0.0000

> <Gold.Chemscore.Lipo>
88.2256

> <Gold.Chemscore.Internal_Hbond>
0.0000

> <Gold.Chemscore.DEClash>
1.8460

> <Gold.Chemscore.DEInternal>
1.2055

> <Gold.Chemscore.Rot>
1.8092

> <Gold.Chemscore.Internal.Correction>
   9.000000E+99

> <Gold.Chemscore.Hbonds>
donor molecule, donor type, donor heavy atom, donor atom, acceptor molecule, acceptor atom, score
      L1  H     6    27       P1  8028  0.36
      P1  H  8011  8017       L1    16  0.34
      P1  H 10752 10764       L1    13  0.65

> <Gold.Chemscore.Hbond.Weighted>
-7.5637

> <Gold.Chemscore.Metal.Weighted>
-0.0000

> <Gold.Chemscore.Lipo.Weighted>
-10.3224

> <Gold.Chemscore.Internal_Hbond.Weighted>
0.0000

> <Gold.Chemscore.DEClash.Weighted>
1.8460

> <Gold.Chemscore.DEInternal.Weighted>
1.2055

> <Gold.Chemscore.Rot.Weighted>
4.6316

> <Gold.Chemscore.Internal.Correction.Weighted>
   9.000000E+99

> <Gold.Protein.RotatedTorsions>
[ 6907 6896 6895 6894 ] final  -22.48 input  -60.11 | X-H torsion
[ 7974 7965 7964 7962 ] final  165.06 input  175.53 | X-H torsion
[ 8008 7997 7996 7995 ] final  -66.01 input   59.86 | X-H torsion
[ 10167 10162 10161 10158 ] final   18.86 input  -65.29 | X-H torsion
[ 10718 10713 10712 10709 ] final  -49.66 input   66.30 | X-H torsion
[ 10763 10752 10751 10750 ] final  -73.36 input  -60.55 | X-H torsion
[ 11005 11000 10999 10996 ] final   86.72 input  -57.11 | X-H torsion

> <Gold.Protein.ActiveResidues>
 VAL166  LYS551  ARG553  GLY616  TRP617  ASP618  TYR619  PRO620  LYS621  CYS622 
 ASP623  PHE694  ASN695  SER759  ASP760  ASP761  ALA762  ILE779  LEU786  VAL792 
 PHE793  MET794  SER795  GLU796  ALA797  LYS798  CYS799  TRP800  GLU811  SER814 

> <Gold.Protein.RotatedAtoms>
  151.2180  135.0507  159.8937 H   0  0  0  0  0  0  0  0  0  0  0  0  # atno 6907 bound_to 6896
  152.5418  134.0672  159.8188 H   0  0  0  0  0  0  0  0  0  0  0  0  # atno 6908 bound_to 6896
  151.0834  133.5324  159.2651 H   0  0  0  0  0  0  0  0  0  0  0  0  # atno 6909 bound_to 6896
  144.7518  139.8416  143.6363 H   0  0  0  0  0  0  0  0  0  0  0  0  # atno 7974 bound_to 7965
  154.4708  140.0921  156.7138 H   0  0  0  0  0  0  0  0  0  0  0  0  # atno 8008 bound_to 7997
  155.4731  140.3465  155.4310 H   0  0  0  0  0  0  0  0  0  0  0  0  # atno 8009 bound_to 7997
  156.1035  140.1428  156.9424 H   0  0  0  0  0  0  0  0  0  0  0  0  # atno 8010 bound_to 7997
  140.5622  143.9316  150.6651 H   0  0  0  0  0  0  0  0  0  0  0  0  # atno 10167 bound_to 10162
  156.1872  130.4152  149.9422 H   0  0  0  0  0  0  0  0  0  0  0  0  # atno 10718 bound_to 10713
  154.4584  135.5900  153.6238 H   0  0  0  0  0  0  0  0  0  0  0  0  # atno 10763 bound_to 10752
  152.9820  135.6038  154.3518 H   0  0  0  0  0  0  0  0  0  0  0  0  # atno 10764 bound_to 10752
  154.3387  135.2842  155.2413 H   0  0  0  0  0  0  0  0  0  0  0  0  # atno 10765 bound_to 10752
  139.8937  134.8374  156.2759 H   0  0  0  0  0  0  0  0  0  0  0  0  # atno 11005 bound_to 11000
  146.1479  139.4553  143.0067 LP  0  0  0  0  0  0  0  0  0  0  0  0  # atno 17320 bound_to 7965
  145.6916  141.0162  143.1552 LP  0  0  0  0  0  0  0  0  0  0  0  0  # atno 17321 bound_to 7965
  140.2770  143.3416  152.1186 LP  0  0  0  0  0  0  0  0  0  0  0  0  # atno 17342 bound_to 10162
  139.5075  144.6834  151.5950 LP  0  0  0  0  0  0  0  0  0  0  0  0  # atno 17343 bound_to 10162
  156.7174  130.8993  151.3615 LP  0  0  0  0  0  0  0  0  0  0  0  0  # atno 17370 bound_to 10713
  157.6906  130.9230  150.0504 LP  0  0  0  0  0  0  0  0  0  0  0  0  # atno 17371 bound_to 10713
  141.0070  133.7118  156.1050 LP  0  0  0  0  0  0  0  0  0  0  0  0  # atno 17394 bound_to 11000
  140.7420  134.4140  157.5553 LP  0  0  0  0  0  0  0  0  0  0  0  0  # atno 17395 bound_to 11000

$$$$
