AV-unprocessed.smi:48|AV-procd|sdf|457|dock2
  -GOLD-   2262016323D 1   1.00000     0.00000
 Structure written by MMmdl.
 30 32  0  0  0  0  0  0  0  0  1 V2000
  151.0611  137.9782  153.6800 O   0  0  0  0  0  0  0  0  0  0  0  0
  150.0245  138.0008  154.6378 C   0  0  0  0  0  0  0  0  0  0  0  0
  150.0781  139.3146  155.4361 C   0  0  1  0  0  0  0  0  0  0  0  0
  151.4140  139.7877  155.5645 O   0  0  0  0  0  0  0  0  0  0  0  0
  151.4067  141.1475  155.8825 C   0  0  2  0  0  0  0  0  0  0  0  0
  151.6971  141.2949  157.3461 N   0  0  0  0  0  0  0  0  0  0  0  0
  151.8904  140.3419  158.2836 C   0  0  0  0  0  0  0  0  0  0  0  0
  152.1332  140.7484  159.5294 N   0  0  0  0  0  0  0  0  0  0  0  0
  152.1016  142.1254  159.3824 C   0  0  0  0  0  0  0  0  0  0  0  0
  152.2776  143.1950  160.2934 C   0  0  0  0  0  0  0  0  0  0  0  0
  152.6031  142.8973  161.9618 Cl  0  0  0  0  0  0  0  0  0  0  0  0
  152.1847  144.4630  159.8250 N   0  0  0  0  0  0  0  0  0  0  0  0
  151.9311  144.6655  158.5258 C   0  0  0  0  0  0  0  0  0  0  0  0
  151.7429  143.7642  157.5547 N   0  0  0  0  0  0  0  0  0  0  0  0
  151.8370  142.4879  158.0318 C   0  0  0  0  0  0  0  0  0  0  0  0
  150.0148  141.7026  155.4917 C   0  0  2  0  0  0  0  0  0  0  0  0
  149.2208  142.1051  156.5953 O   0  0  0  0  0  0  0  0  0  0  0  0
  149.3655  140.5121  154.7952 C   0  0  1  0  0  0  0  0  0  0  0  0
  149.6062  140.5620  153.4005 O   0  0  0  0  0  0  0  0  0  0  0  0
  149.6555  139.1631  156.4313 H   0  0  0  0  0  0  0  0  0  0  0  0
  152.2355  141.6534  155.3858 H   0  0  0  0  0  0  0  0  0  0  0  0
  150.1340  142.5572  154.8242 H   0  0  0  0  0  0  0  0  0  0  0  0
  148.2859  140.4724  154.9477 H   0  0  0  0  0  0  0  0  0  0  0  0
  150.9410  137.2229  153.1247 H   0  0  0  0  0  0  0  0  0  0  0  0
  149.0573  137.8685  154.1515 H   0  0  0  0  0  0  0  0  0  0  0  0
  150.1759  137.1497  155.3024 H   0  0  0  0  0  0  0  0  0  0  0  0
  151.8507  139.2895  158.0437 H   0  0  0  0  0  0  0  0  0  0  0  0
  151.8707  145.6993  158.2191 H   0  0  0  0  0  0  0  0  0  0  0  0
  148.9269  142.9907  156.4461 H   0  0  0  0  0  0  0  0  0  0  0  0
  149.0007  139.9791  152.9687 H   0  0  0  0  0  0  0  0  0  0  0  0
  1  2  1  0  0  0  0
  1 24  1  0  0  0  0
  2  3  1  0  0  0  0
  2 25  1  0  0  0  0
  2 26  1  0  0  0  0
  3 20  1  0  0  0  0
  3 18  1  0  0  0  0
  3  4  1  0  0  0  0
  4  5  1  0  0  0  0
  5 21  1  0  0  0  0
  5  6  1  0  0  0  0
  5 16  1  0  0  0  0
  6 15  1  0  0  0  0
  6  7  1  0  0  0  0
  7  8  2  0  0  0  0
  7 27  1  0  0  0  0
  8  9  1  0  0  0  0
  9 15  2  0  0  0  0
  9 10  1  0  0  0  0
 10 11  1  0  0  0  0
 10 12  2  0  0  0  0
 12 13  1  0  0  0  0
 13 14  2  0  0  0  0
 13 28  1  0  0  0  0
 14 15  1  0  0  0  0
 16 22  1  0  0  0  0
 16 17  1  0  0  0  0
 16 18  1  0  0  0  0
 17 29  1  0  0  0  0
 18 23  1  0  0  0  0
 18 19  1  0  0  0  0
 19 30  1  0  0  0  0
M  END
> <s_m_source_file>
AV-unprocessed.smi

> <i_m_source_file_index>
48

> <i_lp_mmshare_version>
43012

> <i_f3d_flags>
0

> <s_epik_input>
W09IXVtDSDJdW0NASF0xT1tDQEhdKFtDQEhdKFtPSF0pW0NAQEhdMVtPSF0pbihbY0hdbjIpYyhjMjMpbltjSF1uYzNDbA==

> <s_epik_cmdline>
J2VwaWtfcHl0aG9uJywgJy1waCcsICc3LjAnLCAnLXRuJywgJzgnLCAnLW1hJywgJzIwMCcsICctbWV0YWxfYmluZGluZycsICctaW1hZScsICc8aW5maWxlLm1hZT4nLCAnLW9tYWUnLCAnPG91dGZpbGUubWFlPic=

> <r_lp_tautomer_probability>
1

> <r_epik_Ionization_Penalty>
3.45505e-06

> <r_epik_Ionization_Penalty_Charging>
0

> <r_epik_Ionization_Penalty_Neutral>
3.45505e-06

> <r_epik_State_Penalty>
-0

> <r_epik_Charging_Adjusted_Penalty>
0

> <i_epik_Tot_Q>
0

> <i_epik_Tot_abs_Q>
0

> <r_epik_Metal_State_Penalty>
-0

> <b_epik_Metal_Only>
0

> <s_epik_Chemistry_Notes>
This compound contains an acetal/aminal-like group ( X-CH(R)-Y where X, Y are N, S, or O) that may be acid/base labile, releasing an aldehyde.

> <s_lp_Force_Field>
OPLS_2005

> <r_lp_Energy>
36.8105

> <b_lp_Chiralities_Consistent>
1

> <s_lp_Variant>
AV-unprocessed.smi:48-11

> <Gold.Version>
5.8.1

> <Gold.Id.Protein>
6NUR|6NUR_protein|mol2

> <Gold.PLP.Fitness>
45.6462

> <Gold.PLP.PLP>
-37.1413

> <Gold.PLP.part.hbond>
-4.3000

> <Gold.PLP.part.metal>
0.0000

> <Gold.PLP.part.buried>
-5.0807

> <Gold.PLP.part.nonpolar>
-25.8424

> <Gold.PLP.part.repulsive>
0.1520

> <Gold.PLP.ligand.clash>
0.0000

> <Gold.PLP.ligand.torsion>
0.3379

> <Gold.PLP.Chemscore.Hbond>
3.0403

> <Gold.PLP.Chemscore.CHOScore>
0.0000

> <Gold.PLP.Chemscore.Metal>
0.0000

> <Gold.Chemscore.Hbonds>
donor molecule, donor type, donor heavy atom, donor atom, acceptor molecule, acceptor atom, score
      L1  H     1    24       P1  7949  0.88
      L1  H    17    29       P1  8028  1.00
      L1  H    19    30       P1  7957  0.05
      P1  H  7989  7998       L1    19  0.38
      P1  H  8011  8017       L1    19  0.71

> <Gold.PLP.Chemscore.Internal.Correction>
0.0599

> <Gold.Rescore>
     Score         DG    S(hbond)    S(metal)    S(lipo)     H(rot)  DE(clash)    DE(int)     intcor
      7.96     -10.40       2.27        0.00      60.54       3.80       1.08       1.35       ----

> <Gold.Chemscore.Fitness>
7.9619

> <Gold.Chemscore.DG>
-10.3963

> <Gold.Chemscore.ZeroCoef>
-5.4800

> <Gold.Chemscore.Hbond>
2.2652

> <Gold.Chemscore.Metal>
0.0000

> <Gold.Chemscore.Lipo>
60.5365

> <Gold.Chemscore.Internal_Hbond>
0.0000

> <Gold.Chemscore.DEClash>
1.0829

> <Gold.Chemscore.DEInternal>
1.3515

> <Gold.Chemscore.Rot>
3.8017

> <Gold.Chemscore.Internal.Correction>
   9.000000E+99

> <Gold.Chemscore.Hbonds>
donor molecule, donor type, donor heavy atom, donor atom, acceptor molecule, acceptor atom, score
      L1  H     1    24       P1  7949  0.19
      L1  H    17    29       P1  8028  0.98
      L1  H    19    30       P1  7957  0.08
      P1  H  7989  7998       L1    19  0.08
      P1  H  8011  8017       L1    19  0.55

> <Gold.Chemscore.Hbond.Weighted>
-7.5659

> <Gold.Chemscore.Metal.Weighted>
-0.0000

> <Gold.Chemscore.Lipo.Weighted>
-7.0828

> <Gold.Chemscore.Internal_Hbond.Weighted>
0.0000

> <Gold.Chemscore.DEClash.Weighted>
1.0829

> <Gold.Chemscore.DEInternal.Weighted>
1.3515

> <Gold.Chemscore.Rot.Weighted>
9.7324

> <Gold.Chemscore.Internal.Correction.Weighted>
   9.000000E+99

> <Gold.Protein.RotatedTorsions>
[ 6907 6896 6895 6894 ] final    4.15 input  -60.11 | X-H torsion
[ 7974 7965 7964 7962 ] final    6.80 input  175.53 | X-H torsion
[ 8008 7997 7996 7995 ] final  -47.07 input   59.86 | X-H torsion
[ 10167 10162 10161 10158 ] final  113.02 input  -65.29 | X-H torsion
[ 10718 10713 10712 10709 ] final   84.67 input   66.30 | X-H torsion
[ 10763 10752 10751 10750 ] final    4.40 input  -60.55 | X-H torsion
[ 11005 11000 10999 10996 ] final -155.80 input  -57.11 | X-H torsion

> <Gold.Protein.ActiveResidues>
 VAL166  LYS551  ARG553  GLY616  TRP617  ASP618  TYR619  PRO620  LYS621  CYS622 
 ASP623  PHE694  ASN695  SER759  ASP760  ASP761  ALA762  ILE779  LEU786  VAL792 
 PHE793  MET794  SER795  GLU796  ALA797  LYS798  CYS799  TRP800  GLU811  SER814 

> <Gold.Protein.RotatedAtoms>
  151.6367  135.1017  160.0132 H   0  0  0  0  0  0  0  0  0  0  0  0  # atno 6907 bound_to 6896
  152.4077  133.6910  159.6379 H   0  0  0  0  0  0  0  0  0  0  0  0  # atno 6908 bound_to 6896
  150.7970  133.8597  159.3269 H   0  0  0  0  0  0  0  0  0  0  0  0  # atno 6909 bound_to 6896
  146.2432  140.0179  142.8400 H   0  0  0  0  0  0  0  0  0  0  0  0  # atno 7974 bound_to 7965
  154.4013  140.1355  156.4115 H   0  0  0  0  0  0  0  0  0  0  0  0  # atno 8008 bound_to 7997
  155.7729  140.3483  155.5236 H   0  0  0  0  0  0  0  0  0  0  0  0  # atno 8009 bound_to 7997
  155.8749  140.0978  157.1515 H   0  0  0  0  0  0  0  0  0  0  0  0  # atno 8010 bound_to 7997
  139.6492  144.7128  151.2082 H   0  0  0  0  0  0  0  0  0  0  0  0  # atno 10167 bound_to 10162
  157.6902  131.0143  150.2707 H   0  0  0  0  0  0  0  0  0  0  0  0  # atno 10718 bound_to 10713
  153.2717  135.6933  153.7474 H   0  0  0  0  0  0  0  0  0  0  0  0  # atno 10763 bound_to 10752
  153.6495  135.3379  155.3096 H   0  0  0  0  0  0  0  0  0  0  0  0  # atno 10764 bound_to 10752
  154.8466  135.4451  154.1742 H   0  0  0  0  0  0  0  0  0  0  0  0  # atno 10765 bound_to 10752
  140.6825  134.4129  157.5225 H   0  0  0  0  0  0  0  0  0  0  0  0  # atno 11005 bound_to 11000
  145.1267  140.9494  143.4568 LP  0  0  0  0  0  0  0  0  0  0  0  0  # atno 17320 bound_to 7965
  145.0427  139.3246  143.5968 LP  0  0  0  0  0  0  0  0  0  0  0  0  # atno 17321 bound_to 7965
  140.7529  143.6179  150.8542 LP  0  0  0  0  0  0  0  0  0  0  0  0  # atno 17342 bound_to 10162
  139.9825  143.5935  152.2938 LP  0  0  0  0  0  0  0  0  0  0  0  0  # atno 17343 bound_to 10162
  156.3270  130.3794  149.7524 LP  0  0  0  0  0  0  0  0  0  0  0  0  # atno 17370 bound_to 10713
  156.5076  130.8157  151.3156 LP  0  0  0  0  0  0  0  0  0  0  0  0  # atno 17371 bound_to 10713
  139.8947  134.8699  156.2163 LP  0  0  0  0  0  0  0  0  0  0  0  0  # atno 17394 bound_to 11000
  141.0306  133.6991  156.1424 LP  0  0  0  0  0  0  0  0  0  0  0  0  # atno 17395 bound_to 11000

$$$$
