AV-unprocessed.smi:3279|AV-procd|sdf|12550|dock2
  -GOLD-   2272018463D 1   1.00000     0.00000
 Structure written by MMmdl.
 36 36  0  0  0  0  0  0  0  0  1 V2000
  146.4870  142.1146  153.5729 C   0  0  0  0  0  0  0  0  0  0  0  0
  147.2467  140.8380  153.9749 C   0  0  2  0  0  0  0  0  0  0  0  0
  148.7693  141.0435  154.1280 C   0  0  0  0  0  0  0  0  0  0  0  0
  149.1388  141.5600  155.4429 N   0  0  0  0  0  0  0  0  0  0  0  0
  150.3133  141.3585  156.0607 C   0  0  0  0  0  0  0  0  0  0  0  0
  151.2437  140.7236  155.5650 O   0  0  0  0  0  0  0  0  0  0  0  0
  150.4644  141.9839  157.4447 C   0  0  0  0  0  0  0  0  0  0  0  0
  151.2510  143.1651  157.3200 O   0  0  0  0  0  0  0  0  0  0  0  0
  151.7738  143.7576  158.5117 C   0  0  0  0  0  0  0  0  0  0  0  0
  152.6772  144.9574  158.1656 C   0  0  0  0  0  0  0  0  0  0  0  0
  152.5247  142.7248  159.3764 C   0  0  0  0  0  0  0  0  0  0  0  0
  150.5305  144.2524  159.2680 C   0  0  0  0  0  0  0  0  0  0  0  0
  146.9512  139.7199  153.0230 C   0  0  0  0  0  0  0  0  0  0  0  0
  146.2671  138.6141  153.2923 N   0  0  0  0  0  0  0  0  0  0  0  0
  146.2810  137.9180  152.0947 N   0  0  0  0  0  0  0  0  0  0  0  0
  146.9335  138.5693  151.1737 N   0  0  0  0  0  0  0  0  0  0  0  0
  147.3626  139.7130  151.7529 N   0  0  0  0  0  0  0  0  0  0  0  0
  147.9022  140.4150  151.2673 H   0  0  0  0  0  0  0  0  0  0  0  0
  145.4175  141.9203  153.4856 H   0  0  0  0  0  0  0  0  0  0  0  0
  146.8348  142.4954  152.6122 H   0  0  0  0  0  0  0  0  0  0  0  0
  146.6107  142.9075  154.3098 H   0  0  0  0  0  0  0  0  0  0  0  0
  146.8624  140.5335  154.9497 H   0  0  0  0  0  0  0  0  0  0  0  0
  149.2769  140.0856  154.0091 H   0  0  0  0  0  0  0  0  0  0  0  0
  149.1510  141.6867  153.3331 H   0  0  0  0  0  0  0  0  0  0  0  0
  148.4379  142.0954  155.9349 H   0  0  0  0  0  0  0  0  0  0  0  0
  149.4748  142.2101  157.8421 H   0  0  0  0  0  0  0  0  0  0  0  0
  150.9329  141.2526  158.1026 H   0  0  0  0  0  0  0  0  0  0  0  0
  152.9612  145.5044  159.0654 H   0  0  0  0  0  0  0  0  0  0  0  0
  152.1670  145.6568  157.5028 H   0  0  0  0  0  0  0  0  0  0  0  0
  153.6017  144.6496  157.6778 H   0  0  0  0  0  0  0  0  0  0  0  0
  153.4509  142.3933  158.9068 H   0  0  0  0  0  0  0  0  0  0  0  0
  151.9097  141.8437  159.5625 H   0  0  0  0  0  0  0  0  0  0  0  0
  152.7945  143.1480  160.3446 H   0  0  0  0  0  0  0  0  0  0  0  0
  150.8015  144.7395  160.2053 H   0  0  0  0  0  0  0  0  0  0  0  0
  149.8603  143.4262  159.5080 H   0  0  0  0  0  0  0  0  0  0  0  0
  149.9652  144.9712  158.6735 H   0  0  0  0  0  0  0  0  0  0  0  0
  1  2  1  0  0  0  0
  1 19  1  0  0  0  0
  1 20  1  0  0  0  0
  1 21  1  0  0  0  0
  2  3  1  0  0  0  0
  2 13  1  0  0  0  0
  2 22  1  0  0  0  0
  3  4  1  0  0  0  0
  3 23  1  0  0  0  0
  3 24  1  0  0  0  0
  4  5  1  0  0  0  0
  4 25  1  0  0  0  0
  5  6  2  0  0  0  0
  5  7  1  0  0  0  0
  7  8  1  0  0  0  0
  7 26  1  0  0  0  0
  7 27  1  0  0  0  0
  8  9  1  0  0  0  0
  9 10  1  0  0  0  0
  9 11  1  0  0  0  0
  9 12  1  0  0  0  0
 10 28  1  0  0  0  0
 10 29  1  0  0  0  0
 10 30  1  0  0  0  0
 11 31  1  0  0  0  0
 11 32  1  0  0  0  0
 11 33  1  0  0  0  0
 12 34  1  0  0  0  0
 12 35  1  0  0  0  0
 12 36  1  0  0  0  0
 13 17  1  0  0  0  0
 13 14  2  0  0  0  0
 14 15  1  0  0  0  0
 15 16  2  0  0  0  0
 16 17  1  0  0  0  0
 17 18  1  0  0  0  0
M  END
> <s_m_source_file>
AV-unprocessed.smi

> <i_m_source_file_index>
3279

> <i_lp_mmshare_version>
43012

> <i_f3d_flags>
0

> <s_epik_input>
W25IXTFubm5jMVtDQEhdKFtDSDNdKVtDSDJdW05IXUMoPU8pW0NIMl1PQyhbQ0gzXSkoW0NIM10pW0NIM10=

> <s_epik_cmdline>
J2VwaWtfcHl0aG9uJywgJy1waCcsICc3LjAnLCAnLXRuJywgJzgnLCAnLW1hJywgJzIwMCcsICctbWV0YWxfYmluZGluZycsICctaW1hZScsICc8aW5maWxlLm1hZT4nLCAnLW9tYWUnLCAnPG91dGZpbGUubWFlPic=

> <r_lp_tautomer_probability>
0.3

> <r_epik_Ionization_Penalty>
1.45055

> <r_epik_Ionization_Penalty_Charging>
0

> <r_epik_Ionization_Penalty_Neutral>
1.45055

> <r_epik_State_Penalty>
2.31845

> <r_epik_Charging_Adjusted_Penalty>
2.31845

> <i_epik_Tot_Q>
0

> <i_epik_Tot_abs_Q>
0

> <r_epik_Metal_State_Penalty>
2.36898

> <b_epik_Metal_Only>
0

> <s_lp_Force_Field>
OPLS_2005

> <r_lp_Energy>
6.97201

> <b_lp_Chiralities_Consistent>
1

> <s_lp_Variant>
AV-unprocessed.smi:3279-3

> <Gold.Version>
5.8.1

> <Gold.Id.Protein>
6NUR|6NUR_protein|mol2

> <Gold.PLP.Fitness>
39.2157

> <Gold.PLP.PLP>
-34.8577

> <Gold.PLP.part.hbond>
-3.0519

> <Gold.PLP.part.metal>
0.0000

> <Gold.PLP.part.buried>
-7.3241

> <Gold.PLP.part.nonpolar>
-26.6181

> <Gold.PLP.part.repulsive>
1.9369

> <Gold.PLP.ligand.clash>
0.0000

> <Gold.PLP.ligand.torsion>
0.8807

> <Gold.PLP.Chemscore.Hbond>
2.0000

> <Gold.PLP.Chemscore.CHOScore>
0.0000

> <Gold.PLP.Chemscore.Metal>
0.0000

> <Gold.Chemscore.Hbonds>
donor molecule, donor type, donor heavy atom, donor atom, acceptor molecule, acceptor atom, score
      L1  H    17    18       P1  7957  0.30
      P1  H  7954  7966       L1    16  1.00
      P1  H  7989  7998       L1     6  0.64

> <Gold.PLP.Chemscore.Internal.Correction>
0.1194

> <Gold.Rescore>
     Score         DG    S(hbond)    S(metal)    S(lipo)     H(rot)  DE(clash)    DE(int)     intcor
     12.20     -13.38       1.81        0.00      75.18       2.71       0.15       1.04       ----

> <Gold.Chemscore.Fitness>
12.1986

> <Gold.Chemscore.DG>
-13.3833

> <Gold.Chemscore.ZeroCoef>
-5.4800

> <Gold.Chemscore.Hbond>
1.8093

> <Gold.Chemscore.Metal>
0.0000

> <Gold.Chemscore.Lipo>
75.1817

> <Gold.Chemscore.Internal_Hbond>
0.0000

> <Gold.Chemscore.DEClash>
0.1487

> <Gold.Chemscore.DEInternal>
1.0360

> <Gold.Chemscore.Rot>
2.7094

> <Gold.Chemscore.Internal.Correction>
   9.000000E+99

> <Gold.Chemscore.Hbonds>
donor molecule, donor type, donor heavy atom, donor atom, acceptor molecule, acceptor atom, score
      L1  H    17    18       P1  7957  0.30
      P1  H  7954  7966       L1    16  0.83
      P1  H  7989  7998       L1     6  0.62

> <Gold.Chemscore.Hbond.Weighted>
-6.0430

> <Gold.Chemscore.Metal.Weighted>
-0.0000

> <Gold.Chemscore.Lipo.Weighted>
-8.7963

> <Gold.Chemscore.Internal_Hbond.Weighted>
0.0000

> <Gold.Chemscore.DEClash.Weighted>
0.1487

> <Gold.Chemscore.DEInternal.Weighted>
1.0360

> <Gold.Chemscore.Rot.Weighted>
6.9360

> <Gold.Chemscore.Internal.Correction.Weighted>
   9.000000E+99

> <Gold.Protein.RotatedTorsions>
[ 6907 6896 6895 6894 ] final -119.23 input  -60.11 | X-H torsion
[ 7974 7965 7964 7962 ] final   15.94 input  175.53 | X-H torsion
[ 8008 7997 7996 7995 ] final  -67.20 input   59.86 | X-H torsion
[ 10167 10162 10161 10158 ] final  -37.27 input  -65.29 | X-H torsion
[ 10718 10713 10712 10709 ] final  151.09 input   66.30 | X-H torsion
[ 10763 10752 10751 10750 ] final   48.57 input  -60.55 | X-H torsion
[ 11005 11000 10999 10996 ] final  -70.62 input  -57.11 | X-H torsion

> <Gold.Protein.ActiveResidues>
 VAL166  LYS551  ARG553  GLY616  TRP617  ASP618  TYR619  PRO620  LYS621  CYS622 
 ASP623  PHE694  ASN695  SER759  ASP760  ASP761  ALA762  ILE779  LEU786  VAL792 
 PHE793  MET794  SER795  GLU796  ALA797  LYS798  CYS799  TRP800  GLU811  SER814 

> <Gold.Protein.RotatedAtoms>
  150.8287  133.8127  159.3107 H   0  0  0  0  0  0  0  0  0  0  0  0  # atno 6907 bound_to 6896
  151.5863  135.1054  160.0038 H   0  0  0  0  0  0  0  0  0  0  0  0  # atno 6908 bound_to 6896
  152.4369  133.7336  159.6658 H   0  0  0  0  0  0  0  0  0  0  0  0  # atno 6909 bound_to 6896
  146.2264  139.8821  142.8569 H   0  0  0  0  0  0  0  0  0  0  0  0  # atno 7974 bound_to 7965
  154.4784  140.0897  156.7318 H   0  0  0  0  0  0  0  0  0  0  0  0  # atno 8008 bound_to 7997
  155.4535  140.3458  155.4285 H   0  0  0  0  0  0  0  0  0  0  0  0  # atno 8009 bound_to 7997
  156.1153  140.1459  156.9269 H   0  0  0  0  0  0  0  0  0  0  0  0  # atno 8010 bound_to 7997
  140.7122  143.3353  151.2477 H   0  0  0  0  0  0  0  0  0  0  0  0  # atno 10167 bound_to 10162
  157.2752  131.0824  151.1571 H   0  0  0  0  0  0  0  0  0  0  0  0  # atno 10718 bound_to 10713
  152.9791  135.5940  154.3947 H   0  0  0  0  0  0  0  0  0  0  0  0  # atno 10763 bound_to 10752
  154.3599  135.2767  155.2328 H   0  0  0  0  0  0  0  0  0  0  0  0  # atno 10764 bound_to 10752
  154.4330  135.6032  153.6135 H   0  0  0  0  0  0  0  0  0  0  0  0  # atno 10765 bound_to 10752
  141.1577  133.6795  156.6781 H   0  0  0  0  0  0  0  0  0  0  0  0  # atno 11005 bound_to 11000
  145.2502  141.0041  143.3885 LP  0  0  0  0  0  0  0  0  0  0  0  0  # atno 17320 bound_to 7965
  144.9380  139.4221  143.6462 LP  0  0  0  0  0  0  0  0  0  0  0  0  # atno 17321 bound_to 7965
  139.6846  143.9796  152.2827 LP  0  0  0  0  0  0  0  0  0  0  0  0  # atno 17342 bound_to 10162
  139.9437  144.6665  150.8241 LP  0  0  0  0  0  0  0  0  0  0  0  0  # atno 17343 bound_to 10162
  157.3027  130.6851  149.6173 LP  0  0  0  0  0  0  0  0  0  0  0  0  # atno 17370 bound_to 10713
  155.9663  130.4387  150.5228 LP  0  0  0  0  0  0  0  0  0  0  0  0  # atno 17371 bound_to 10713
  140.3123  134.8076  157.4186 LP  0  0  0  0  0  0  0  0  0  0  0  0  # atno 17394 bound_to 11000
  140.1168  134.5273  155.8218 LP  0  0  0  0  0  0  0  0  0  0  0  0  # atno 17395 bound_to 11000

$$$$
