AV-unprocessed.smi:1664|AV-procd|sdf|6668|dock5
  -GOLD-   22720 7383D 1   1.00000     0.00000
 Structure written by MMmdl.
 35 36  0  0  0  0  0  0  0  0  3 V2000
  145.4901  135.6104  161.6208 C   0  0  0  0  0  0  0  0  0  0  0  0
  147.0176  135.4181  161.7031 C   0  0  2  0  0  0  0  0  0  0  0  0
  147.5874  136.4420  162.6037 C   0  0  0  0  0  0  0  0  0  0  0  0
  148.0334  137.2445  163.3087 N   0  0  0  0  0  0  0  0  0  0  0  0
  147.5929  135.5342  160.3621 N   0  0  0  0  0  0  0  0  0  0  0  0
  147.6389  136.6252  159.5751 C   0  0  0  0  0  0  0  0  0  0  0  0
  147.1684  137.7116  159.9079 O   0  0  0  0  0  0  0  0  0  0  0  0
  148.3146  136.4989  158.1986 C   0  0  0  0  0  0  0  0  0  0  0  0
  149.5163  137.3338  158.0155 N   0  0  0  0  0  0  0  0  0  0  0  0
  149.6372  138.0166  156.7891 C   0  0  0  0  0  0  0  0  0  0  0  0
  150.6890  138.8121  156.5127 C   0  0  0  0  0  0  0  0  0  0  0  0
  150.7904  139.5155  155.2530 N   0  3  0  0  0  0  0  0  0  0  0  0
  149.8882  139.3847  154.4320 O   0  0  0  0  0  0  0  0  0  0  0  0
  151.7733  140.2196  155.0415 O   0  5  0  0  0  0  0  0  0  0  0  0
  151.7166  138.9471  157.5270 C   0  0  0  0  0  0  0  0  0  0  0  0
  151.6037  138.3017  158.7047 C   0  0  0  0  0  0  0  0  0  0  0  0
  150.4525  137.4452  159.0072 C   0  0  0  0  0  0  0  0  0  0  0  0
  150.3329  136.8696  160.0885 O   0  0  0  0  0  0  0  0  0  0  0  0
  147.3004  134.0270  162.2661 C   0  0  0  0  0  0  0  0  0  0  0  0
  147.6254  132.8413  161.3849 C   0  0  0  0  0  0  0  0  0  0  0  0
  146.3195  132.8821  162.1482 C   0  0  0  0  0  0  0  0  0  0  0  0
  145.0253  135.4689  162.5969 H   0  0  0  0  0  0  0  0  0  0  0  0
  145.0352  134.8959  160.9333 H   0  0  0  0  0  0  0  0  0  0  0  0
  145.2227  136.6116  161.2824 H   0  0  0  0  0  0  0  0  0  0  0  0
  148.0116  134.6921  159.9951 H   0  0  0  0  0  0  0  0  0  0  0  0
  148.5512  135.4475  158.0261 H   0  0  0  0  0  0  0  0  0  0  0  0
  147.5724  136.7443  157.4373 H   0  0  0  0  0  0  0  0  0  0  0  0
  148.8165  137.8550  156.1045 H   0  0  0  0  0  0  0  0  0  0  0  0
  152.5839  139.5660  157.3500 H   0  0  0  0  0  0  0  0  0  0  0  0
  152.3807  138.4168  159.4462 H   0  0  0  0  0  0  0  0  0  0  0  0
  147.8519  134.0616  163.2045 H   0  0  0  0  0  0  0  0  0  0  0  0
  147.5810  132.9714  160.3057 H   0  0  0  0  0  0  0  0  0  0  0  0
  148.3903  132.1517  161.7361 H   0  0  0  0  0  0  0  0  0  0  0  0
  146.2192  132.2201  163.0059 H   0  0  0  0  0  0  0  0  0  0  0  0
  145.4068  133.0391  161.5773 H   0  0  0  0  0  0  0  0  0  0  0  0
  1  2  1  0  0  0  0
  1 22  1  0  0  0  0
  1 23  1  0  0  0  0
  1 24  1  0  0  0  0
  2  3  1  0  0  0  0
  2  5  1  0  0  0  0
  2 19  1  0  0  0  0
  3  4  3  0  0  0  0
  5  6  1  0  0  0  0
  5 25  1  0  0  0  0
  6  7  2  0  0  0  0
  6  8  1  0  0  0  0
  8  9  1  0  0  0  0
  8 26  1  0  0  0  0
  8 27  1  0  0  0  0
  9 17  1  0  0  0  0
  9 10  1  0  0  0  0
 10 11  2  0  0  0  0
 10 28  1  0  0  0  0
 11 12  1  0  0  0  0
 11 15  1  0  0  0  0
 12 13  2  0  0  0  0
 12 14  1  0  0  0  0
 15 16  2  0  0  0  0
 15 29  1  0  0  0  0
 16 17  1  0  0  0  0
 16 30  1  0  0  0  0
 17 18  2  0  0  0  0
 19 21  1  0  0  0  0
 19 20  1  0  0  0  0
 19 31  1  0  0  0  0
 20 21  1  0  0  0  0
 20 32  1  0  0  0  0
 20 33  1  0  0  0  0
 21 34  1  0  0  0  0
 21 35  1  0  0  0  0
M  CHG  1  12   1
M  CHG  1  14  -1
M  END
> <s_m_source_file>
AV-unprocessed.smi

> <i_m_source_file_index>
1664

> <i_lp_mmshare_version>
43012

> <i_f3d_flags>
0

> <s_epik_input>
W0NIMl0xW0NIMl1bQ0hdMVtDQF0oW0NIM10pKEMjTilbTkhdQyg9TylbQ0gyXW4yW2NIXWMoW04rXSg9TylbTy1dKVtjSF1bY0hdYzI9Tw==

> <s_epik_cmdline>
J2VwaWtfcHl0aG9uJywgJy1waCcsICc3LjAnLCAnLXRuJywgJzgnLCAnLW1hJywgJzIwMCcsICctbWV0YWxfYmluZGluZycsICctaW1hZScsICc8aW5maWxlLm1hZT4nLCAnLW9tYWUnLCAnPG91dGZpbGUubWFlPic=

> <r_lp_tautomer_probability>
1

> <r_epik_Ionization_Penalty>
4.65324e-07

> <r_epik_Ionization_Penalty_Charging>
6.17383e-11

> <r_epik_Ionization_Penalty_Neutral>
4.65262e-07

> <r_epik_State_Penalty>
-0

> <r_epik_Charging_Adjusted_Penalty>
6.17383e-11

> <i_epik_Tot_Q>
0

> <i_epik_Tot_abs_Q>
2

> <r_epik_Metal_State_Penalty>
-0

> <b_epik_Metal_Only>
0

> <s_lp_Force_Field>
OPLS_2005

> <r_lp_Energy>
24.1204

> <b_lp_Chiralities_Consistent>
1

> <s_lp_Variant>
AV-unprocessed.smi:1664-2

> <Gold.Version>
5.8.1

> <Gold.Id.Protein>
6NUR|6NUR_protein|mol2

> <Gold.PLP.Fitness>
40.3233

> <Gold.PLP.PLP>
-32.5676

> <Gold.PLP.part.hbond>
-4.8908

> <Gold.PLP.part.metal>
0.0000

> <Gold.PLP.part.buried>
-5.3634

> <Gold.PLP.part.nonpolar>
-22.9246

> <Gold.PLP.part.repulsive>
0.3301

> <Gold.PLP.ligand.clash>
0.0000

> <Gold.PLP.ligand.torsion>
1.7826

> <Gold.PLP.Chemscore.Hbond>
3.2672

> <Gold.PLP.Chemscore.CHOScore>
0.0000

> <Gold.PLP.Chemscore.Metal>
0.0000

> <Gold.Chemscore.Hbonds>
donor molecule, donor type, donor heavy atom, donor atom, acceptor molecule, acceptor atom, score
      P1  H  6896  6907       L1    18  1.00
      P1  H  6931  6943       L1     4  0.49
      P1  H  6934  6947       L1     7  0.93
      P1  H  7989  7998       L1    14  0.90

> <Gold.PLP.Chemscore.Internal.Correction>
1.5191

> <Gold.Rescore>
     Score         DG    S(hbond)    S(metal)    S(lipo)     H(rot)  DE(clash)    DE(int)     intcor
     14.22     -17.47       3.30        0.00      50.51       1.94       0.00       3.24       ----

> <Gold.Chemscore.Fitness>
14.2229

> <Gold.Chemscore.DG>
-17.4652

> <Gold.Chemscore.ZeroCoef>
-5.4800

> <Gold.Chemscore.Hbond>
3.3048

> <Gold.Chemscore.Metal>
0.0000

> <Gold.Chemscore.Lipo>
50.5131

> <Gold.Chemscore.Internal_Hbond>
0.0000

> <Gold.Chemscore.DEClash>
0.0038

> <Gold.Chemscore.DEInternal>
3.2385

> <Gold.Chemscore.Rot>
1.9386

> <Gold.Chemscore.Internal.Correction>
   9.000000E+99

> <Gold.Chemscore.Hbonds>
donor molecule, donor type, donor heavy atom, donor atom, acceptor molecule, acceptor atom, score
      P1  H  6896  6907       L1    18  0.58
      P1  H  6931  6943       L1     4  0.10
      P1  H  6934  6947       L1     7  0.91
      P1  H  7989  7998       L1    14  0.60

> <Gold.Chemscore.Hbond.Weighted>
-11.0379

> <Gold.Chemscore.Metal.Weighted>
-0.0000

> <Gold.Chemscore.Lipo.Weighted>
-5.9100

> <Gold.Chemscore.Internal_Hbond.Weighted>
0.0000

> <Gold.Chemscore.DEClash.Weighted>
0.0038

> <Gold.Chemscore.DEInternal.Weighted>
3.2385

> <Gold.Chemscore.Rot.Weighted>
4.9627

> <Gold.Chemscore.Internal.Correction.Weighted>
   9.000000E+99

> <Gold.Protein.RotatedTorsions>
[ 6907 6896 6895 6894 ] final  -12.21 input  -60.11 | X-H torsion
[ 7974 7965 7964 7962 ] final   67.64 input  175.53 | X-H torsion
[ 8008 7997 7996 7995 ] final    6.98 input   59.86 | X-H torsion
[ 10167 10162 10161 10158 ] final   51.77 input  -65.29 | X-H torsion
[ 10718 10713 10712 10709 ] final    7.05 input   66.30 | X-H torsion
[ 10763 10752 10751 10750 ] final   94.07 input  -60.55 | X-H torsion
[ 11005 11000 10999 10996 ] final  145.52 input  -57.11 | X-H torsion

> <Gold.Protein.ActiveResidues>
 VAL166  LYS551  ARG553  GLY616  TRP617  ASP618  TYR619  PRO620  LYS621  CYS622 
 ASP623  PHE694  ASN695  SER759  ASP760  ASP761  ALA762  ILE779  LEU786  VAL792 
 PHE793  MET794  SER795  GLU796  ALA797  LYS798  CYS799  TRP800  GLU811  SER814 

> <Gold.Protein.RotatedAtoms>
  151.3741  135.0928  159.9474 H   0  0  0  0  0  0  0  0  0  0  0  0  # atno 6907 bound_to 6896
  152.5127  133.9136  159.7510 H   0  0  0  0  0  0  0  0  0  0  0  0  # atno 6908 bound_to 6896
  150.9556  133.6446  159.2793 H   0  0  0  0  0  0  0  0  0  0  0  0  # atno 6909 bound_to 6896
  145.8122  139.3038  143.1092 H   0  0  0  0  0  0  0  0  0  0  0  0  # atno 7974 bound_to 7965
  154.7479  140.2761  155.6317 H   0  0  0  0  0  0  0  0  0  0  0  0  # atno 8008 bound_to 7997
  156.2889  140.2684  156.2151 H   0  0  0  0  0  0  0  0  0  0  0  0  # atno 8009 bound_to 7997
  155.0174  140.0371  157.2413 H   0  0  0  0  0  0  0  0  0  0  0  0  # atno 8010 bound_to 7997
  140.2584  144.3401  150.6326 H   0  0  0  0  0  0  0  0  0  0  0  0  # atno 10167 bound_to 10162
  156.9312  130.5826  149.5649 H   0  0  0  0  0  0  0  0  0  0  0  0  # atno 10718 bound_to 10713
  153.2375  135.4302  155.0662 H   0  0  0  0  0  0  0  0  0  0  0  0  # atno 10763 bound_to 10752
  154.8325  135.3394  154.6698 H   0  0  0  0  0  0  0  0  0  0  0  0  # atno 10764 bound_to 10752
  153.7122  135.7022  153.5091 H   0  0  0  0  0  0  0  0  0  0  0  0  # atno 10765 bound_to 10752
  140.0719  134.9147  157.1359 H   0  0  0  0  0  0  0  0  0  0  0  0  # atno 11005 bound_to 11000
  145.9765  140.8718  143.0136 LP  0  0  0  0  0  0  0  0  0  0  0  0  # atno 17320 bound_to 7965
  144.6756  140.2020  143.7386 LP  0  0  0  0  0  0  0  0  0  0  0  0  # atno 17321 bound_to 7965
  140.5986  143.2167  151.7117 LP  0  0  0  0  0  0  0  0  0  0  0  0  # atno 17342 bound_to 10162
  139.5024  144.3829  152.0358 LP  0  0  0  0  0  0  0  0  0  0  0  0  # atno 17343 bound_to 10162
  156.0446  130.5524  150.8852 LP  0  0  0  0  0  0  0  0  0  0  0  0  # atno 17370 bound_to 10713
  157.5846  131.0946  150.9217 LP  0  0  0  0  0  0  0  0  0  0  0  0  # atno 17371 bound_to 10713
  140.3615  134.2489  155.7186 LP  0  0  0  0  0  0  0  0  0  0  0  0  # atno 17394 bound_to 11000
  141.2015  133.7961  157.0438 LP  0  0  0  0  0  0  0  0  0  0  0  0  # atno 17395 bound_to 11000

$$$$
