AV-unprocessed.smi:2147|AV-procd|sdf|8745|dock9
  -GOLD-   2272011523D 1   1.00000     0.00000
 Structure written by MMmdl.
 42 44  0  0  0  0  0  0  0  0  2 V2000
  151.2327  142.2263  157.5509 C   0  0  0  0  0  0  0  0  0  0  0  0
  151.5095  140.8083  157.0543 C   0  0  0  0  0  0  0  0  0  0  0  0
  152.4834  140.2048  157.5035 O   0  0  0  0  0  0  0  0  0  0  0  0
  150.5750  140.2289  156.0476 C   0  0  0  0  0  0  0  0  0  0  0  0
  151.0061  139.2894  155.0826 C   0  0  0  0  0  0  0  0  0  0  0  0
  150.0984  138.7635  154.1432 C   0  0  0  0  0  0  0  0  0  0  0  0
  148.7463  139.1591  154.1411 C   0  0  0  0  0  0  0  0  0  0  0  0
  147.9304  138.5997  153.1811 O   0  0  0  0  0  0  0  0  0  0  0  0
  146.5236  138.6679  153.3723 C   0  0  0  0  0  0  0  0  0  0  0  0
  145.8335  137.8007  152.3092 C   0  0  1  0  0  0  0  0  0  0  0  0
  146.5014  137.9853  151.0765 O   0  0  0  0  0  0  0  0  0  0  0  0
  145.8354  136.3042  152.6813 C   0  0  0  0  0  0  0  0  0  0  0  0
  145.1104  135.4729  151.7117 N   0  0  0  0  0  0  0  0  0  0  0  0
  143.9783  135.7404  151.0058 C   0  0  0  0  0  0  0  0  0  0  0  0
  143.7035  134.6476  150.2406 N   0  3  0  0  0  0  0  0  0  0  0  0
  144.6732  133.6673  150.4627 C   0  0  0  0  0  0  0  0  0  0  0  0
  144.8216  132.3930  149.9239 C   0  0  0  0  0  0  0  0  0  0  0  0
  145.9302  131.6429  150.3692 C   0  0  0  0  0  0  0  0  0  0  0  0
  146.8389  132.1643  151.3135 C   0  0  0  0  0  0  0  0  0  0  0  0
  146.6787  133.4579  151.8533 C   0  0  0  0  0  0  0  0  0  0  0  0
  145.5806  134.1919  151.4073 C   0  0  0  0  0  0  0  0  0  0  0  0
  148.3120  140.0957  155.1109 C   0  0  0  0  0  0  0  0  0  0  0  0
  149.2182  140.6225  156.0512 C   0  0  0  0  0  0  0  0  0  0  0  0
  150.2468  142.2843  158.0123 H   0  0  0  0  0  0  0  0  0  0  0  0
  151.2779  142.9356  156.7245 H   0  0  0  0  0  0  0  0  0  0  0  0
  151.9742  142.5214  158.2939 H   0  0  0  0  0  0  0  0  0  0  0  0
  152.0322  138.9560  155.0421 H   0  0  0  0  0  0  0  0  0  0  0  0
  150.4468  138.0484  153.4124 H   0  0  0  0  0  0  0  0  0  0  0  0
  146.2773  138.2962  154.3686 H   0  0  0  0  0  0  0  0  0  0  0  0
  146.1698  139.6978  153.2984 H   0  0  0  0  0  0  0  0  0  0  0  0
  144.8077  138.1472  152.1797 H   0  0  0  0  0  0  0  0  0  0  0  0
  145.8668  138.2509  150.4283 H   0  0  0  0  0  0  0  0  0  0  0  0
  146.8586  135.9290  152.7305 H   0  0  0  0  0  0  0  0  0  0  0  0
  145.3996  136.1433  153.6683 H   0  0  0  0  0  0  0  0  0  0  0  0
  143.4009  136.6525  151.0493 H   0  0  0  0  0  0  0  0  0  0  0  0
  144.1268  131.9909  149.2013 H   0  0  0  0  0  0  0  0  0  0  0  0
  146.0863  130.6478  149.9788 H   0  0  0  0  0  0  0  0  0  0  0  0
  147.6759  131.5592  151.6306 H   0  0  0  0  0  0  0  0  0  0  0  0
  147.3782  133.8489  152.5773 H   0  0  0  0  0  0  0  0  0  0  0  0
  147.2863  140.4286  155.1559 H   0  0  0  0  0  0  0  0  0  0  0  0
  148.8557  141.3365  156.7770 H   0  0  0  0  0  0  0  0  0  0  0  0
  142.9103  134.5782  149.6161 H   0  0  0  0  0  0  0  0  0  0  0  0
  1  2  1  0  0  0  0
  1 24  1  0  0  0  0
  1 25  1  0  0  0  0
  1 26  1  0  0  0  0
  2  3  2  0  0  0  0
  2  4  1  0  0  0  0
  4 23  1  0  0  0  0
  4  5  2  0  0  0  0
  5  6  1  0  0  0  0
  5 27  1  0  0  0  0
  6  7  2  0  0  0  0
  6 28  1  0  0  0  0
  7  8  1  0  0  0  0
  7 22  1  0  0  0  0
  8  9  1  0  0  0  0
  9 10  1  0  0  0  0
  9 29  1  0  0  0  0
  9 30  1  0  0  0  0
 10 11  1  0  0  0  0
 10 12  1  0  0  0  0
 10 31  1  0  0  0  0
 11 32  1  0  0  0  0
 12 13  1  0  0  0  0
 12 33  1  0  0  0  0
 12 34  1  0  0  0  0
 13 21  1  0  0  0  0
 13 14  1  0  0  0  0
 14 15  2  0  0  0  0
 14 35  1  0  0  0  0
 15 16  1  0  0  0  0
 15 42  1  0  0  0  0
 16 21  2  0  0  0  0
 16 17  1  0  0  0  0
 17 18  2  0  0  0  0
 17 36  1  0  0  0  0
 18 19  1  0  0  0  0
 18 37  1  0  0  0  0
 19 20  2  0  0  0  0
 19 38  1  0  0  0  0
 20 21  1  0  0  0  0
 20 39  1  0  0  0  0
 22 23  2  0  0  0  0
 22 40  1  0  0  0  0
 23 41  1  0  0  0  0
M  CHG  1  15   1
M  END
> <s_m_source_file>
AV-unprocessed.smi

> <i_m_source_file_index>
2147

> <i_lp_mmshare_version>
43012

> <i_f3d_flags>
0

> <s_epik_input>
W0NIM11DKD1PKWMxW2NIXVtjSF1jKFtjSF1bY0hdMSlPW0NIMl1bQ0BIXShbT0hdKVtDSDJdbihbY0hdbjIpYyhjMjMpW2NIXVtjSF1bY0hdW2NIXTM=

> <s_epik_cmdline>
J2VwaWtfcHl0aG9uJywgJy1waCcsICc3LjAnLCAnLXRuJywgJzgnLCAnLW1hJywgJzIwMCcsICctbWV0YWxfYmluZGluZycsICctaW1hZScsICc8aW5maWxlLm1hZT4nLCAnLW9tYWUnLCAnPG91dGZpbGUubWFlPic=

> <r_lp_tautomer_probability>
0.99995

> <r_epik_Ionization_Penalty>
1.40272

> <r_epik_Ionization_Penalty_Charging>
1.40272

> <r_epik_Ionization_Penalty_Neutral>
2.3993e-06

> <r_epik_State_Penalty>
1.48501

> <r_epik_Charging_Adjusted_Penalty>
2.88772

> <i_epik_Tot_Q>
1

> <i_epik_Tot_abs_Q>
1

> <r_epik_Metal_State_Penalty>
5.5274

> <b_epik_Metal_Only>
0

> <s_lp_Force_Field>
OPLS_2005

> <r_lp_Energy>
26.1974

> <b_lp_Chiralities_Consistent>
1

> <s_lp_Variant>
AV-unprocessed.smi:2147-4

> <Gold.Version>
5.8.1

> <Gold.Id.Protein>
6NUR|6NUR_protein|mol2

> <Gold.PLP.Fitness>
53.5431

> <Gold.PLP.PLP>
-38.9663

> <Gold.PLP.part.hbond>
-4.9143

> <Gold.PLP.part.metal>
0.0000

> <Gold.PLP.part.buried>
-2.7321

> <Gold.PLP.part.nonpolar>
-34.9525

> <Gold.PLP.part.repulsive>
3.0376

> <Gold.PLP.ligand.clash>
0.0000

> <Gold.PLP.ligand.torsion>
1.1700

> <Gold.PLP.Chemscore.Hbond>
4.6758

> <Gold.PLP.Chemscore.CHOScore>
0.9225

> <Gold.PLP.Chemscore.Metal>
0.0000

> <Gold.Chemscore.Hbonds>
donor molecule, donor type, donor heavy atom, donor atom, acceptor molecule, acceptor atom, score
      L1  H    11    32       P1 10171  0.83
      L1  H    15    42       P1 10186  1.76
      P1  H  7954  7966       L1    11  0.93
      P1  H  7997  8008       L1     3  0.89
      L1  C    14    35       P1 10171  0.90

> <Gold.PLP.Chemscore.Internal.Correction>
0.1219

> <Gold.Rescore>
     Score         DG    S(hbond)    S(metal)    S(lipo)     H(rot)  DE(clash)    DE(int)     intcor
     18.87     -22.65       3.26        0.00     108.18       2.48       2.99       0.79       ----

> <Gold.Chemscore.Fitness>
18.8727

> <Gold.Chemscore.DG>
-22.6536

> <Gold.Chemscore.ZeroCoef>
-5.4800

> <Gold.Chemscore.Hbond>
3.2562

> <Gold.Chemscore.Metal>
0.0000

> <Gold.Chemscore.Lipo>
108.1832

> <Gold.Chemscore.Internal_Hbond>
0.0000

> <Gold.Chemscore.DEClash>
2.9949

> <Gold.Chemscore.DEInternal>
0.7860

> <Gold.Chemscore.Rot>
2.4842

> <Gold.Chemscore.Internal.Correction>
   9.000000E+99

> <Gold.Chemscore.Hbonds>
donor molecule, donor type, donor heavy atom, donor atom, acceptor molecule, acceptor atom, score
      L1  H    11    32       P1 10171  0.80
      L1  H    15    42       P1 10186  0.81
      P1  H  7954  7966       L1    11  0.20
      P1  H  7997  8008       L1     3  0.82

> <Gold.Chemscore.Hbond.Weighted>
-10.8756

> <Gold.Chemscore.Metal.Weighted>
-0.0000

> <Gold.Chemscore.Lipo.Weighted>
-12.6574

> <Gold.Chemscore.Internal_Hbond.Weighted>
0.0000

> <Gold.Chemscore.DEClash.Weighted>
2.9949

> <Gold.Chemscore.DEInternal.Weighted>
0.7860

> <Gold.Chemscore.Rot.Weighted>
6.3594

> <Gold.Chemscore.Internal.Correction.Weighted>
   9.000000E+99

> <Gold.Protein.RotatedTorsions>
[ 6907 6896 6895 6894 ] final  138.19 input  -60.11 | X-H torsion
[ 7974 7965 7964 7962 ] final -159.67 input  175.53 | X-H torsion
[ 8008 7997 7996 7995 ] final  -62.07 input   59.86 | X-H torsion
[ 10167 10162 10161 10158 ] final  -12.74 input  -65.29 | X-H torsion
[ 10718 10713 10712 10709 ] final  131.29 input   66.30 | X-H torsion
[ 10763 10752 10751 10750 ] final  133.67 input  -60.55 | X-H torsion
[ 11005 11000 10999 10996 ] final   31.41 input  -57.11 | X-H torsion

> <Gold.Protein.ActiveResidues>
 VAL166  LYS551  ARG553  GLY616  TRP617  ASP618  TYR619  PRO620  LYS621  CYS622 
 ASP623  PHE694  ASN695  SER759  ASP760  ASP761  ALA762  ILE779  LEU786  VAL792 
 PHE793  MET794  SER795  GLU796  ALA797  LYS798  CYS799  TRP800  GLU811  SER814 

> <Gold.Protein.RotatedAtoms>
  152.2694  133.5369  159.5429 H   0  0  0  0  0  0  0  0  0  0  0  0  # atno 6907 bound_to 6896
  150.7154  134.0719  159.3876 H   0  0  0  0  0  0  0  0  0  0  0  0  # atno 6908 bound_to 6896
  151.8634  135.0516  160.0522 H   0  0  0  0  0  0  0  0  0  0  0  0  # atno 6909 bound_to 6896
  144.7456  140.3652  143.6087 H   0  0  0  0  0  0  0  0  0  0  0  0  # atno 7974 bound_to 7965
  154.4480  140.1004  156.6530 H   0  0  0  0  0  0  0  0  0  0  0  0  # atno 8008 bound_to 7997
  155.5376  140.3483  155.4421 H   0  0  0  0  0  0  0  0  0  0  0  0  # atno 8009 bound_to 7997
  156.0620  140.1328  156.9919 H   0  0  0  0  0  0  0  0  0  0  0  0  # atno 8010 bound_to 7997
  140.7168  143.5500  150.9312 H   0  0  0  0  0  0  0  0  0  0  0  0  # atno 10167 bound_to 10162
  157.4981  131.1093  150.9465 H   0  0  0  0  0  0  0  0  0  0  0  0  # atno 10718 bound_to 10713
  153.8110  135.3129  155.3400 H   0  0  0  0  0  0  0  0  0  0  0  0  # atno 10763 bound_to 10752
  154.8051  135.4702  154.0375 H   0  0  0  0  0  0  0  0  0  0  0  0  # atno 10764 bound_to 10752
  153.1754  135.6884  153.8639 H   0  0  0  0  0  0  0  0  0  0  0  0  # atno 10765 bound_to 10752
  140.2842  134.2938  155.7792 H   0  0  0  0  0  0  0  0  0  0  0  0  # atno 11005 bound_to 11000
  145.7135  139.1691  143.2525 LP  0  0  0  0  0  0  0  0  0  0  0  0  # atno 17320 bound_to 7965
  146.1329  140.7161  142.9403 LP  0  0  0  0  0  0  0  0  0  0  0  0  # atno 17321 bound_to 7965
  139.9224  143.6590  152.3094 LP  0  0  0  0  0  0  0  0  0  0  0  0  # atno 17342 bound_to 10162
  139.7011  144.7635  151.1271 LP  0  0  0  0  0  0  0  0  0  0  0  0  # atno 17343 bound_to 10162
  157.0144  130.5649  149.5324 LP  0  0  0  0  0  0  0  0  0  0  0  0  # atno 17370 bound_to 10713
  156.0213  130.5307  150.8282 LP  0  0  0  0  0  0  0  0  0  0  0  0  # atno 17371 bound_to 10713
  141.2157  133.7544  156.9526 LP  0  0  0  0  0  0  0  0  0  0  0  0  # atno 17394 bound_to 11000
  140.1255  134.9389  157.2264 LP  0  0  0  0  0  0  0  0  0  0  0  0  # atno 17395 bound_to 11000

$$$$
