AV-unprocessed.smi:833|AV-procd|sdf|3883|dock2
  -GOLD-   22720 1333D 1   1.00000     0.00000
 Structure written by MMmdl.
 40 41  0  0  0  0  0  0  0  0  2 V2000
  153.6381  136.6390  161.6759 C   0  0  0  0  0  0  0  0  0  0  0  0
  153.6772  137.8545  162.6113 C   0  0  1  0  0  0  0  0  0  0  0  0
  154.3584  137.4622  163.7854 O   0  0  0  0  0  0  0  0  0  0  0  0
  154.4223  139.0450  161.9765 C   0  0  0  0  0  0  0  0  0  0  0  0
  153.6652  139.6384  160.8786 N   0  0  0  0  0  0  0  0  0  0  0  0
  153.4048  140.9460  160.7420 C   0  0  0  0  0  0  0  0  0  0  0  0
  153.7838  141.8046  161.5386 O   0  0  0  0  0  0  0  0  0  0  0  0
  152.7048  141.1911  159.6222 N   0  0  0  0  0  0  0  0  0  0  0  0
  152.2813  142.4553  159.1251 C   0  0  0  0  0  0  0  0  0  0  0  0
  152.7350  143.6603  159.7203 C   0  0  0  0  0  0  0  0  0  0  0  0
  152.2463  144.8983  159.2623 C   0  0  0  0  0  0  0  0  0  0  0  0
  151.2983  144.9127  158.2251 C   0  0  0  0  0  0  0  0  0  0  0  0
  150.8777  143.7491  157.6873 N   0  3  0  0  0  0  0  0  0  0  0  0
  151.3208  142.5268  158.0745 C   0  0  0  0  0  0  0  0  0  0  0  0
  150.7980  141.3939  157.4098 N   0  0  0  0  0  0  0  0  0  0  0  0
  149.6774  141.5322  156.4865 C   0  0  0  0  0  0  0  0  0  0  0  0
  149.6343  140.2161  155.7154 C   0  0  0  0  0  0  0  0  0  0  0  0
  151.1121  139.8556  155.5993 C   0  0  0  0  0  0  0  0  0  0  0  0
  151.7193  140.3802  156.9050 C   0  0  0  0  0  0  0  0  0  0  0  0
  153.1010  136.8715  160.7560 H   0  0  0  0  0  0  0  0  0  0  0  0
  153.1313  135.7958  162.1467 H   0  0  0  0  0  0  0  0  0  0  0  0
  154.6426  136.3142  161.4015 H   0  0  0  0  0  0  0  0  0  0  0  0
  152.6543  138.1309  162.8700 H   0  0  0  0  0  0  0  0  0  0  0  0
  153.7936  136.8920  164.2839 H   0  0  0  0  0  0  0  0  0  0  0  0
  154.6363  139.8114  162.7226 H   0  0  0  0  0  0  0  0  0  0  0  0
  155.3915  138.7181  161.5957 H   0  0  0  0  0  0  0  0  0  0  0  0
  153.3148  139.0037  160.1762 H   0  0  0  0  0  0  0  0  0  0  0  0
  152.5508  140.4042  159.0088 H   0  0  0  0  0  0  0  0  0  0  0  0
  153.4363  143.6516  160.5412 H   0  0  0  0  0  0  0  0  0  0  0  0
  152.5845  145.8215  159.7100 H   0  0  0  0  0  0  0  0  0  0  0  0
  150.8627  145.8121  157.8144 H   0  0  0  0  0  0  0  0  0  0  0  0
  148.7440  141.7209  157.0175 H   0  0  0  0  0  0  0  0  0  0  0  0
  149.8530  142.3562  155.7936 H   0  0  0  0  0  0  0  0  0  0  0  0
  149.1105  139.4575  156.2989 H   0  0  0  0  0  0  0  0  0  0  0  0
  149.1375  140.3052  154.7489 H   0  0  0  0  0  0  0  0  0  0  0  0
  151.2801  138.7884  155.4520 H   0  0  0  0  0  0  0  0  0  0  0  0
  151.5514  140.3839  154.7520 H   0  0  0  0  0  0  0  0  0  0  0  0
  152.7221  140.7781  156.7434 H   0  0  0  0  0  0  0  0  0  0  0  0
  151.7874  139.5730  157.6347 H   0  0  0  0  0  0  0  0  0  0  0  0
  150.1883  143.7931  156.9367 H   0  0  0  0  0  0  0  0  0  0  0  0
  1  2  1  0  0  0  0
  1 20  1  0  0  0  0
  1 21  1  0  0  0  0
  1 22  1  0  0  0  0
  2  3  1  0  0  0  0
  2  4  1  0  0  0  0
  2 23  1  0  0  0  0
  3 24  1  0  0  0  0
  4  5  1  0  0  0  0
  4 25  1  0  0  0  0
  4 26  1  0  0  0  0
  5  6  1  0  0  0  0
  5 27  1  0  0  0  0
  6  7  2  0  0  0  0
  6  8  1  0  0  0  0
  8  9  1  0  0  0  0
  8 28  1  0  0  0  0
  9 14  1  0  0  0  0
  9 10  2  0  0  0  0
 10 11  1  0  0  0  0
 10 29  1  0  0  0  0
 11 12  2  0  0  0  0
 11 30  1  0  0  0  0
 12 13  1  0  0  0  0
 12 31  1  0  0  0  0
 13 14  2  0  0  0  0
 13 40  1  0  0  0  0
 14 15  1  0  0  0  0
 15 19  1  0  0  0  0
 15 16  1  0  0  0  0
 16 17  1  0  0  0  0
 16 32  1  0  0  0  0
 16 33  1  0  0  0  0
 17 18  1  0  0  0  0
 17 34  1  0  0  0  0
 17 35  1  0  0  0  0
 18 19  1  0  0  0  0
 18 36  1  0  0  0  0
 18 37  1  0  0  0  0
 19 38  1  0  0  0  0
 19 39  1  0  0  0  0
M  CHG  1  13   1
M  END
> <s_m_source_file>
AV-unprocessed.smi

> <i_m_source_file_index>
833

> <i_lp_mmshare_version>
43012

> <i_f3d_flags>
0

> <s_epik_input>
W0NIM11bQ0BIXShbT0hdKVtDSDJdW05IXUMoPU8pW05IXWMxW2NIXVtjSF1bY0hdbmMxTjJbQ0gyXVtDSDJdW0NIMl1bQ0gyXTI=

> <s_epik_cmdline>
J2VwaWtfcHl0aG9uJywgJy1waCcsICc3LjAnLCAnLXRuJywgJzgnLCAnLW1hJywgJzIwMCcsICctbWV0YWxfYmluZGluZycsICctaW1hZScsICc8aW5maWxlLm1hZT4nLCAnLW9tYWUnLCAnPG91dGZpbGUubWFlPic=

> <r_lp_tautomer_probability>
0.999994

> <r_epik_Ionization_Penalty>
1.11387

> <r_epik_Ionization_Penalty_Charging>
1.11385

> <r_epik_Ionization_Penalty_Neutral>
1.95796e-05

> <r_epik_State_Penalty>
1.17209

> <r_epik_Charging_Adjusted_Penalty>
2.28594

> <i_epik_Tot_Q>
1

> <i_epik_Tot_abs_Q>
1

> <r_epik_Metal_State_Penalty>
1.25763

> <b_epik_Metal_Only>
0

> <s_lp_Force_Field>
OPLS_2005

> <r_lp_Energy>
38.2358

> <b_lp_Chiralities_Consistent>
1

> <s_lp_Variant>
AV-unprocessed.smi:833-4

> <Gold.Version>
5.8.1

> <Gold.Id.Protein>
6NUR|6NUR_protein|mol2

> <Gold.PLP.Fitness>
43.5184

> <Gold.PLP.PLP>
-37.7522

> <Gold.PLP.part.hbond>
-1.3645

> <Gold.PLP.part.metal>
0.0000

> <Gold.PLP.part.buried>
-5.3934

> <Gold.PLP.part.nonpolar>
-31.3423

> <Gold.PLP.part.repulsive>
0.1967

> <Gold.PLP.ligand.clash>
0.0000

> <Gold.PLP.ligand.torsion>
0.3085

> <Gold.PLP.Chemscore.Hbond>
2.0000

> <Gold.PLP.Chemscore.CHOScore>
0.0000

> <Gold.PLP.Chemscore.Metal>
0.0000

> <Gold.Chemscore.Hbonds>
donor molecule, donor type, donor heavy atom, donor atom, acceptor molecule, acceptor atom, score
      L1  H    13    40       P1  8028  1.98

> <Gold.PLP.Chemscore.Internal.Correction>
0.3832

> <Gold.Rescore>
     Score         DG    S(hbond)    S(metal)    S(lipo)     H(rot)  DE(clash)    DE(int)     intcor
     12.66     -14.41       0.98        0.00      93.67       2.06       0.04       1.71       ----

> <Gold.Chemscore.Fitness>
12.6626

> <Gold.Chemscore.DG>
-14.4144

> <Gold.Chemscore.ZeroCoef>
-5.4800

> <Gold.Chemscore.Hbond>
0.9755

> <Gold.Chemscore.Metal>
0.0000

> <Gold.Chemscore.Lipo>
93.6686

> <Gold.Chemscore.Internal_Hbond>
0.0000

> <Gold.Chemscore.DEClash>
0.0402

> <Gold.Chemscore.DEInternal>
1.7115

> <Gold.Chemscore.Rot>
2.0637

> <Gold.Chemscore.Internal.Correction>
   9.000000E+99

> <Gold.Chemscore.Hbonds>
donor molecule, donor type, donor heavy atom, donor atom, acceptor molecule, acceptor atom, score
      L1  H    13    40       P1  8028  0.91

> <Gold.Chemscore.Hbond.Weighted>
-3.2583

> <Gold.Chemscore.Metal.Weighted>
-0.0000

> <Gold.Chemscore.Lipo.Weighted>
-10.9592

> <Gold.Chemscore.Internal_Hbond.Weighted>
0.0000

> <Gold.Chemscore.DEClash.Weighted>
0.0402

> <Gold.Chemscore.DEInternal.Weighted>
1.7115

> <Gold.Chemscore.Rot.Weighted>
5.2832

> <Gold.Chemscore.Internal.Correction.Weighted>
   9.000000E+99

> <Gold.Protein.RotatedTorsions>
[ 6907 6896 6895 6894 ] final  165.83 input  -60.11 | X-H torsion
[ 7974 7965 7964 7962 ] final  148.80 input  175.53 | X-H torsion
[ 8008 7997 7996 7995 ] final  147.00 input   59.86 | X-H torsion
[ 10167 10162 10161 10158 ] final  -18.51 input  -65.29 | X-H torsion
[ 10718 10713 10712 10709 ] final  -41.81 input   66.30 | X-H torsion
[ 10763 10752 10751 10750 ] final -158.84 input  -60.55 | X-H torsion
[ 11005 11000 10999 10996 ] final  121.94 input  -57.11 | X-H torsion

> <Gold.Protein.ActiveResidues>
 VAL166  LYS551  ARG553  GLY616  TRP617  ASP618  TYR619  PRO620  LYS621  CYS622 
 ASP623  PHE694  ASN695  SER759  ASP760  ASP761  ALA762  ILE779  LEU786  VAL792 
 PHE793  MET794  SER795  GLU796  ALA797  LYS798  CYS799  TRP800  GLU811  SER814 

> <Gold.Protein.RotatedAtoms>
  151.8883  133.3510  159.3789 H   0  0  0  0  0  0  0  0  0  0  0  0  # atno 6907 bound_to 6896
  150.7109  134.4949  159.5543 H   0  0  0  0  0  0  0  0  0  0  0  0  # atno 6908 bound_to 6896
  152.2514  134.8129  160.0496 H   0  0  0  0  0  0  0  0  0  0  0  0  # atno 6909 bound_to 6896
  144.8486  139.6199  143.5984 H   0  0  0  0  0  0  0  0  0  0  0  0  # atno 7974 bound_to 7965
  156.2838  140.2167  156.5467 H   0  0  0  0  0  0  0  0  0  0  0  0  # atno 8008 bound_to 7997
  154.7325  140.0494  157.0761 H   0  0  0  0  0  0  0  0  0  0  0  0  # atno 8009 bound_to 7997
  155.0335  140.3137  155.4753 H   0  0  0  0  0  0  0  0  0  0  0  0  # atno 8010 bound_to 7997
  140.7259  143.4910  150.9992 H   0  0  0  0  0  0  0  0  0  0  0  0  # atno 10167 bound_to 10162
  156.2663  130.4202  149.8486 H   0  0  0  0  0  0  0  0  0  0  0  0  # atno 10718 bound_to 10713
  154.7524  135.3096  154.8533 H   0  0  0  0  0  0  0  0  0  0  0  0  # atno 10763 bound_to 10752
  153.9317  135.6784  153.4749 H   0  0  0  0  0  0  0  0  0  0  0  0  # atno 10764 bound_to 10752
  153.1120  135.4862  154.8980 H   0  0  0  0  0  0  0  0  0  0  0  0  # atno 10765 bound_to 10752
  139.9247  134.9640  156.8034 H   0  0  0  0  0  0  0  0  0  0  0  0  # atno 11005 bound_to 11000
  146.2766  139.6768  142.9259 LP  0  0  0  0  0  0  0  0  0  0  0  0  # atno 17320 bound_to 7965
  145.4545  141.0430  143.2786 LP  0  0  0  0  0  0  0  0  0  0  0  0  # atno 17321 bound_to 7965
  139.8614  143.7310  152.3173 LP  0  0  0  0  0  0  0  0  0  0  0  0  # atno 17342 bound_to 10162
  139.7526  144.7530  151.0483 LP  0  0  0  0  0  0  0  0  0  0  0  0  # atno 17343 bound_to 10162
  156.5984  130.8536  151.3425 LP  0  0  0  0  0  0  0  0  0  0  0  0  # atno 17370 bound_to 10713
  157.7268  130.9635  150.1673 LP  0  0  0  0  0  0  0  0  0  0  0  0  # atno 17371 bound_to 10713
  140.6371  133.9853  155.7689 LP  0  0  0  0  0  0  0  0  0  0  0  0  # atno 17394 bound_to 11000
  141.0796  134.0083  157.3406 LP  0  0  0  0  0  0  0  0  0  0  0  0  # atno 17395 bound_to 11000

$$$$
