AV-unprocessed.smi:1576|AV-procd|sdf|6343|dock3
  -GOLD-   22720 6563D 1   1.00000     0.00000
 Structure written by MMmdl.
 45 47  0  0  0  0  0  0  0  0  1 V2000
  150.7785  135.4150  156.5484 O   0  0  0  0  0  0  0  0  0  0  0  0
  150.3304  135.8604  155.4924 C   0  0  0  0  0  0  0  0  0  0  0  0
  150.3314  137.1544  155.1298 N   0  0  0  0  0  0  0  0  0  0  0  0
  150.7540  138.2845  155.8805 C   0  0  0  0  0  0  0  0  0  0  0  0
  151.0327  139.4755  155.1828 C   0  0  0  0  0  0  0  0  0  0  0  0
  151.4296  140.6186  155.9017 C   0  0  0  0  0  0  0  0  0  0  0  0
  151.5311  140.5463  157.3106 C   0  0  0  0  0  0  0  0  0  0  0  0
  151.9253  141.6815  158.0513 N   0  0  0  0  0  0  0  0  0  0  0  0
  151.2936  142.9619  157.7212 C   0  0  0  0  0  0  0  0  0  0  0  0
  152.0784  144.1404  158.3221 C   0  0  0  0  0  0  0  0  0  0  0  0
  152.2810  143.9548  159.8330 C   0  0  0  0  0  0  0  0  0  0  0  0
  152.9515  142.6009  160.1106 C   0  0  0  0  0  0  0  0  0  0  0  0
  152.1536  141.4474  159.4787 C   0  0  0  0  0  0  0  0  0  0  0  0
  151.2466  139.4048  157.9839 N   0  0  0  0  0  0  0  0  0  0  0  0
  150.8696  138.3096  157.2907 C   0  0  0  0  0  0  0  0  0  0  0  0
  149.7932  135.0903  154.5356 N   0  0  0  0  0  0  0  0  0  0  0  0
  149.6432  133.6382  154.6066 C   0  0  2  0  0  0  0  0  0  0  0  0
  149.1531  133.0730  153.2563 C   0  0  0  0  0  0  0  0  0  0  0  0
  147.6422  133.3076  153.1305 C   0  0  0  0  0  0  0  0  0  0  0  0
  146.9778  133.2442  154.8373 S   0  0  0  0  0  0  0  0  0  0  0  0
  146.2634  134.4991  155.1172 O   0  0  0  0  0  0  0  0  0  0  0  0
  146.3380  131.9405  155.0700 O   0  0  0  0  0  0  0  0  0  0  0  0
  148.6068  133.2690  155.6791 C   0  0  0  0  0  0  0  0  0  0  0  0
  150.0170  137.3523  154.1911 H   0  0  0  0  0  0  0  0  0  0  0  0
  150.9433  139.5172  154.1070 H   0  0  0  0  0  0  0  0  0  0  0  0
  151.6345  141.5366  155.3710 H   0  0  0  0  0  0  0  0  0  0  0  0
  151.2389  143.0864  156.6388 H   0  0  0  0  0  0  0  0  0  0  0  0
  150.2703  142.9639  158.0990 H   0  0  0  0  0  0  0  0  0  0  0  0
  153.0493  144.2199  157.8309 H   0  0  0  0  0  0  0  0  0  0  0  0
  151.5542  145.0759  158.1251 H   0  0  0  0  0  0  0  0  0  0  0  0
  152.8879  144.7667  160.2352 H   0  0  0  0  0  0  0  0  0  0  0  0
  151.3175  144.0006  160.3421 H   0  0  0  0  0  0  0  0  0  0  0  0
  153.9653  142.6057  159.7077 H   0  0  0  0  0  0  0  0  0  0  0  0
  153.0457  142.4434  161.1853 H   0  0  0  0  0  0  0  0  0  0  0  0
  151.1860  141.3522  159.9731 H   0  0  0  0  0  0  0  0  0  0  0  0
  152.6851  140.5131  159.6536 H   0  0  0  0  0  0  0  0  0  0  0  0
  150.6375  137.4508  157.9006 H   0  0  0  0  0  0  0  0  0  0  0  0
  149.4603  135.5405  153.6954 H   0  0  0  0  0  0  0  0  0  0  0  0
  150.6072  133.1999  154.8718 H   0  0  0  0  0  0  0  0  0  0  0  0
  149.6977  133.4858  152.4064 H   0  0  0  0  0  0  0  0  0  0  0  0
  149.3368  131.9980  153.2480 H   0  0  0  0  0  0  0  0  0  0  0  0
  147.4381  134.2992  152.7263 H   0  0  0  0  0  0  0  0  0  0  0  0
  147.1462  132.5666  152.5035 H   0  0  0  0  0  0  0  0  0  0  0  0
  148.7966  132.2644  156.0583 H   0  0  0  0  0  0  0  0  0  0  0  0
  148.5867  133.9537  156.5275 H   0  0  0  0  0  0  0  0  0  0  0  0
  1  2  2  0  0  0  0
  2  3  1  0  0  0  0
  2 16  1  0  0  0  0
  3  4  1  0  0  0  0
  3 24  1  0  0  0  0
  4 15  1  0  0  0  0
  4  5  2  0  0  0  0
  5  6  1  0  0  0  0
  5 25  1  0  0  0  0
  6  7  2  0  0  0  0
  6 26  1  0  0  0  0
  7  8  1  0  0  0  0
  7 14  1  0  0  0  0
  8 13  1  0  0  0  0
  8  9  1  0  0  0  0
  9 10  1  0  0  0  0
  9 27  1  0  0  0  0
  9 28  1  0  0  0  0
 10 11  1  0  0  0  0
 10 29  1  0  0  0  0
 10 30  1  0  0  0  0
 11 12  1  0  0  0  0
 11 31  1  0  0  0  0
 11 32  1  0  0  0  0
 12 13  1  0  0  0  0
 12 33  1  0  0  0  0
 12 34  1  0  0  0  0
 13 35  1  0  0  0  0
 13 36  1  0  0  0  0
 14 15  2  0  0  0  0
 15 37  1  0  0  0  0
 16 17  1  0  0  0  0
 16 38  1  0  0  0  0
 17 23  1  0  0  0  0
 17 18  1  0  0  0  0
 17 39  1  0  0  0  0
 18 19  1  0  0  0  0
 18 40  1  0  0  0  0
 18 41  1  0  0  0  0
 19 20  1  0  0  0  0
 19 42  1  0  0  0  0
 19 43  1  0  0  0  0
 20 21  2  0  0  0  0
 20 22  2  0  0  0  0
 20 23  1  0  0  0  0
 23 44  1  0  0  0  0
 23 45  1  0  0  0  0
M  END
> <s_m_source_file>
AV-unprocessed.smi

> <i_m_source_file_index>
1576

> <i_lp_mmshare_version>
43012

> <i_f3d_flags>
0

> <s_epik_input>
Tz1TMSg9TylbQ0gyXVtDSDJdW0NASF0oW0NIMl0xKVtOSF1DKD1PKVtOSF1jMltjSF1bY0hdYyhuW2NIXTIpTjNbQ0gyXVtDSDJdW0NIMl1bQ0gyXVtDSDJdMw==

> <s_epik_cmdline>
J2VwaWtfcHl0aG9uJywgJy1waCcsICc3LjAnLCAnLXRuJywgJzgnLCAnLW1hJywgJzIwMCcsICctbWV0YWxfYmluZGluZycsICctaW1hZScsICc8aW5maWxlLm1hZT4nLCAnLW9tYWUnLCAnPG91dGZpbGUubWFlPic=

> <r_lp_tautomer_probability>
1

> <r_epik_Ionization_Penalty>
0.0900267

> <r_epik_Ionization_Penalty_Charging>
0

> <r_epik_Ionization_Penalty_Neutral>
0.0900267

> <r_epik_State_Penalty>
0.0748882

> <r_epik_Charging_Adjusted_Penalty>
0.0748882

> <i_epik_Tot_Q>
0

> <i_epik_Tot_abs_Q>
0

> <r_epik_Metal_State_Penalty>
0.0662821

> <b_epik_Metal_Only>
0

> <s_lp_Force_Field>
OPLS_2005

> <r_lp_Energy>
21.2293

> <b_lp_Chiralities_Consistent>
1

> <s_lp_Variant>
AV-unprocessed.smi:1576-1

> <Gold.Version>
5.8.1

> <Gold.Id.Protein>
6NUR|6NUR_protein|mol2

> <Gold.PLP.Fitness>
40.7089

> <Gold.PLP.PLP>
-38.0017

> <Gold.PLP.part.hbond>
-1.0000

> <Gold.PLP.part.metal>
0.0000

> <Gold.PLP.part.buried>
-4.7673

> <Gold.PLP.part.nonpolar>
-32.3834

> <Gold.PLP.part.repulsive>
0.2698

> <Gold.PLP.ligand.clash>
0.0000

> <Gold.PLP.ligand.torsion>
0.3561

> <Gold.PLP.Chemscore.Hbond>
1.0000

> <Gold.PLP.Chemscore.CHOScore>
0.0000

> <Gold.PLP.Chemscore.Metal>
0.0000

> <Gold.Chemscore.Hbonds>
donor molecule, donor type, donor heavy atom, donor atom, acceptor molecule, acceptor atom, score
      L1  H    16    38       P1  7948  1.00

> <Gold.PLP.Chemscore.Internal.Correction>
0.4193

> <Gold.Rescore>
     Score         DG    S(hbond)    S(metal)    S(lipo)     H(rot)  DE(clash)    DE(int)     intcor
     15.12     -16.56       0.90        0.00      96.16       1.24       0.01       1.43       ----

> <Gold.Chemscore.Fitness>
15.1172

> <Gold.Chemscore.DG>
-16.5567

> <Gold.Chemscore.ZeroCoef>
-5.4800

> <Gold.Chemscore.Hbond>
0.8958

> <Gold.Chemscore.Metal>
0.0000

> <Gold.Chemscore.Lipo>
96.1561

> <Gold.Chemscore.Internal_Hbond>
0.0000

> <Gold.Chemscore.DEClash>
0.0117

> <Gold.Chemscore.DEInternal>
1.4278

> <Gold.Chemscore.Rot>
1.2366

> <Gold.Chemscore.Internal.Correction>
   9.000000E+99

> <Gold.Chemscore.Hbonds>
donor molecule, donor type, donor heavy atom, donor atom, acceptor molecule, acceptor atom, score
      L1  H    16    38       P1  7948  0.25

> <Gold.Chemscore.Hbond.Weighted>
-2.9921

> <Gold.Chemscore.Metal.Weighted>
-0.0000

> <Gold.Chemscore.Lipo.Weighted>
-11.2503

> <Gold.Chemscore.Internal_Hbond.Weighted>
0.0000

> <Gold.Chemscore.DEClash.Weighted>
0.0117

> <Gold.Chemscore.DEInternal.Weighted>
1.4278

> <Gold.Chemscore.Rot.Weighted>
3.1657

> <Gold.Chemscore.Internal.Correction.Weighted>
   9.000000E+99

> <Gold.Protein.RotatedTorsions>
[ 6907 6896 6895 6894 ] final  165.65 input  -60.11 | X-H torsion
[ 7974 7965 7964 7962 ] final    5.02 input  175.53 | X-H torsion
[ 8008 7997 7996 7995 ] final  -67.83 input   59.86 | X-H torsion
[ 10167 10162 10161 10158 ] final -134.01 input  -65.29 | X-H torsion
[ 10718 10713 10712 10709 ] final   64.77 input   66.30 | X-H torsion
[ 10763 10752 10751 10750 ] final   79.66 input  -60.55 | X-H torsion
[ 11005 11000 10999 10996 ] final   15.96 input  -57.11 | X-H torsion

> <Gold.Protein.ActiveResidues>
 VAL166  LYS551  ARG553  GLY616  TRP617  ASP618  TYR619  PRO620  LYS621  CYS622 
 ASP623  PHE694  ASN695  SER759  ASP760  ASP761  ALA762  ILE779  LEU786  VAL792 
 PHE793  MET794  SER795  GLU796  ALA797  LYS798  CYS799  TRP800  GLU811  SER814 

> <Gold.Protein.RotatedAtoms>
  151.8911  133.3516  159.3798 H   0  0  0  0  0  0  0  0  0  0  0  0  # atno 6907 bound_to 6896
  150.7103  134.4923  159.5531 H   0  0  0  0  0  0  0  0  0  0  0  0  # atno 6908 bound_to 6896
  152.2493  134.8149  160.0499 H   0  0  0  0  0  0  0  0  0  0  0  0  # atno 6909 bound_to 6896
  146.2442  140.0446  142.8379 H   0  0  0  0  0  0  0  0  0  0  0  0  # atno 7974 bound_to 7965
  154.4826  140.0885  156.7413 H   0  0  0  0  0  0  0  0  0  0  0  0  # atno 8008 bound_to 7997
  155.4431  140.3454  155.4274 H   0  0  0  0  0  0  0  0  0  0  0  0  # atno 8009 bound_to 7997
  156.1214  140.1475  156.9187 H   0  0  0  0  0  0  0  0  0  0  0  0  # atno 8010 bound_to 7997
  139.8924  143.6706  152.2610 H   0  0  0  0  0  0  0  0  0  0  0  0  # atno 10167 bound_to 10162
  157.6062  130.9178  149.9889 H   0  0  0  0  0  0  0  0  0  0  0  0  # atno 10718 bound_to 10713
  153.0970  135.4831  154.8797 H   0  0  0  0  0  0  0  0  0  0  0  0  # atno 10763 bound_to 10752
  154.7336  135.3066  154.8852 H   0  0  0  0  0  0  0  0  0  0  0  0  # atno 10764 bound_to 10752
  153.9480  135.6826  153.4797 H   0  0  0  0  0  0  0  0  0  0  0  0  # atno 10765 bound_to 10752
  140.4525  134.1210  155.7704 H   0  0  0  0  0  0  0  0  0  0  0  0  # atno 11005 bound_to 11000
  145.1038  140.9362  143.4697 LP  0  0  0  0  0  0  0  0  0  0  0  0  # atno 17320 bound_to 7965
  145.0645  139.3079  143.5863 LP  0  0  0  0  0  0  0  0  0  0  0  0  # atno 17321 bound_to 7965
  139.7098  144.7622  151.1131 LP  0  0  0  0  0  0  0  0  0  0  0  0  # atno 17342 bound_to 10162
  140.7724  143.5346  150.9383 LP  0  0  0  0  0  0  0  0  0  0  0  0  # atno 17343 bound_to 10162
  156.1149  130.3648  149.9986 LP  0  0  0  0  0  0  0  0  0  0  0  0  # atno 17370 bound_to 10713
  156.8077  130.9313  151.3645 LP  0  0  0  0  0  0  0  0  0  0  0  0  # atno 17371 bound_to 10713
  141.1658  133.8706  157.1719 LP  0  0  0  0  0  0  0  0  0  0  0  0  # atno 17394 bound_to 11000
  139.9997  135.0032  157.0163 LP  0  0  0  0  0  0  0  0  0  0  0  0  # atno 17395 bound_to 11000

$$$$
