AV-unprocessed.smi:2095|AV-procd|sdf|8561|dock6
  -GOLD-   2272011283D 1   1.00000     0.00000
 Structure written by MMmdl.
 42 43  0  0  0  0  0  0  0  0  2 V2000
  143.5387  132.6649  148.8355 C   0  0  0  0  0  0  0  0  0  0  0  0
  144.2663  132.7437  150.1848 C   0  0  1  0  0  0  0  0  0  0  0  0
  145.4273  131.7366  150.2590 C   0  0  0  0  0  0  0  0  0  0  0  0
  146.1529  131.8556  151.6059 C   0  0  0  0  0  0  0  0  0  0  0  0
  146.6208  133.2984  151.8500 C   0  0  0  0  0  0  0  0  0  0  0  0
  145.4707  134.2407  151.7834 N   0  3  1  0  0  0  0  0  0  0  0  0
  145.7589  135.6350  152.2293 C   0  0  1  0  0  0  0  0  0  0  0  0
  144.5114  136.5244  152.0683 C   0  0  0  0  0  0  0  0  0  0  0  0
  146.3630  135.7082  153.6549 C   0  0  0  0  0  0  0  0  0  0  0  0
  147.8167  135.5881  153.6461 N   0  0  0  0  0  0  0  0  0  0  0  0
  148.5288  134.8197  154.4855 C   0  0  0  0  0  0  0  0  0  0  0  0
  148.0175  134.1245  155.3629 O   0  0  0  0  0  0  0  0  0  0  0  0
  150.0471  134.8243  154.3012 C   0  0  0  0  0  0  0  0  0  0  0  0
  150.7191  135.3483  155.4755 N   0  0  0  0  0  0  0  0  0  0  0  0
  150.2437  135.7211  156.6657 C   0  0  0  0  0  0  0  0  0  0  0  0
  151.2077  136.1600  157.4606 N   0  0  0  0  0  0  0  0  0  0  0  0
  152.3432  136.0358  156.6775 N   0  0  0  0  0  0  0  0  0  0  0  0
  152.0598  135.5543  155.4986 N   0  0  0  0  0  0  0  0  0  0  0  0
  144.7762  134.1710  150.4697 C   0  0  0  0  0  0  0  0  0  0  0  0
  144.2045  132.9185  148.0098 H   0  0  0  0  0  0  0  0  0  0  0  0
  142.6928  133.3523  148.8046 H   0  0  0  0  0  0  0  0  0  0  0  0
  143.1529  131.6609  148.6557 H   0  0  0  0  0  0  0  0  0  0  0  0
  143.5449  132.4833  150.9609 H   0  0  0  0  0  0  0  0  0  0  0  0
  145.0560  130.7196  150.1271 H   0  0  0  0  0  0  0  0  0  0  0  0
  146.1316  131.9191  149.4459 H   0  0  0  0  0  0  0  0  0  0  0  0
  145.4870  131.5441  152.4118 H   0  0  0  0  0  0  0  0  0  0  0  0
  147.0067  131.1775  151.6295 H   0  0  0  0  0  0  0  0  0  0  0  0
  147.1051  133.3548  152.8243 H   0  0  0  0  0  0  0  0  0  0  0  0
  147.3701  133.5673  151.1046 H   0  0  0  0  0  0  0  0  0  0  0  0
  146.4957  136.0366  151.5321 H   0  0  0  0  0  0  0  0  0  0  0  0
  144.7531  137.5768  152.2193 H   0  0  0  0  0  0  0  0  0  0  0  0
  143.7297  136.2656  152.7822 H   0  0  0  0  0  0  0  0  0  0  0  0
  144.0918  136.4334  151.0659 H   0  0  0  0  0  0  0  0  0  0  0  0
  146.1259  136.6640  154.1222 H   0  0  0  0  0  0  0  0  0  0  0  0
  145.9421  134.9369  154.3011 H   0  0  0  0  0  0  0  0  0  0  0  0
  148.3180  136.1306  152.9568 H   0  0  0  0  0  0  0  0  0  0  0  0
  150.4053  133.8105  154.1170 H   0  0  0  0  0  0  0  0  0  0  0  0
  150.3149  135.4244  153.4303 H   0  0  0  0  0  0  0  0  0  0  0  0
  149.2015  135.6752  156.9454 H   0  0  0  0  0  0  0  0  0  0  0  0
  145.4504  134.4957  149.6761 H   0  0  0  0  0  0  0  0  0  0  0  0
  143.9293  134.8587  150.4655 H   0  0  0  0  0  0  0  0  0  0  0  0
  144.7960  133.8928  152.4497 H   0  0  0  0  0  0  0  0  0  0  0  0
  1  2  1  0  0  0  0
  1 20  1  0  0  0  0
  1 21  1  0  0  0  0
  1 22  1  0  0  0  0
  2 19  1  0  0  0  0
  2  3  1  0  0  0  0
  2 23  1  0  0  0  0
  3  4  1  0  0  0  0
  3 24  1  0  0  0  0
  3 25  1  0  0  0  0
  4  5  1  0  0  0  0
  4 26  1  0  0  0  0
  4 27  1  0  0  0  0
  5  6  1  0  0  0  0
  5 28  1  0  0  0  0
  5 29  1  0  0  0  0
  6  7  1  0  0  0  0
  6 19  1  0  0  0  0
  6 42  1  0  0  0  0
  7  8  1  0  0  0  0
  7  9  1  0  0  0  0
  7 30  1  0  0  0  0
  8 31  1  0  0  0  0
  8 32  1  0  0  0  0
  8 33  1  0  0  0  0
  9 10  1  0  0  0  0
  9 34  1  0  0  0  0
  9 35  1  0  0  0  0
 10 11  1  0  0  0  0
 10 36  1  0  0  0  0
 11 12  2  0  0  0  0
 11 13  1  0  0  0  0
 13 14  1  0  0  0  0
 13 37  1  0  0  0  0
 13 38  1  0  0  0  0
 14 18  1  0  0  0  0
 14 15  1  0  0  0  0
 15 16  2  0  0  0  0
 15 39  1  0  0  0  0
 16 17  1  0  0  0  0
 17 18  2  0  0  0  0
 19 40  1  0  0  0  0
 19 41  1  0  0  0  0
M  CHG  1   6   1
M  END
> <s_m_source_file>
AV-unprocessed.smi

> <i_m_source_file_index>
2095

> <i_lp_mmshare_version>
43012

> <i_f3d_flags>
0

> <s_epik_input>
W0NIM11bQ0BASF0xW0NIMl1bQ0gyXVtDSDJdTihbQ0gyXTEpW0NASF0oW0NIM10pW0NIMl1bTkhdQyg9TylbQ0gyXW4yW2NIXW5ubjI=

> <s_epik_cmdline>
J2VwaWtfcHl0aG9uJywgJy1waCcsICc3LjAnLCAnLXRuJywgJzgnLCAnLW1hJywgJzIwMCcsICctbWV0YWxfYmluZGluZycsICctaW1hZScsICc8aW5maWxlLm1hZT4nLCAnLW9tYWUnLCAnPG91dGZpbGUubWFlPic=

> <r_lp_tautomer_probability>
1

> <r_epik_Ionization_Penalty>
0.00268321

> <r_epik_Ionization_Penalty_Charging>
0.00267875

> <r_epik_Ionization_Penalty_Neutral>
4.46125e-06

> <r_epik_State_Penalty>
0.00186642

> <r_epik_Charging_Adjusted_Penalty>
0.00454517

> <i_epik_Tot_Q>
1

> <i_epik_Tot_abs_Q>
1

> <r_epik_Metal_State_Penalty>
-0

> <b_epik_Metal_Only>
0

> <s_lp_Force_Field>
OPLS_2005

> <r_lp_Energy>
22.3019

> <b_lp_Chiralities_Consistent>
1

> <s_lp_Variant>
AV-unprocessed.smi:2095-8

> <Gold.Version>
5.8.1

> <Gold.Id.Protein>
6NUR|6NUR_protein|mol2

> <Gold.PLP.Fitness>
37.2761

> <Gold.PLP.PLP>
-30.3158

> <Gold.PLP.part.hbond>
-3.8981

> <Gold.PLP.part.metal>
0.0000

> <Gold.PLP.part.buried>
-2.9142

> <Gold.PLP.part.nonpolar>
-23.0783

> <Gold.PLP.part.repulsive>
0.0346

> <Gold.PLP.ligand.clash>
0.0000

> <Gold.PLP.ligand.torsion>
0.5802

> <Gold.PLP.Chemscore.Hbond>
2.6720

> <Gold.PLP.Chemscore.CHOScore>
0.0000

> <Gold.PLP.Chemscore.Metal>
0.0000

> <Gold.Chemscore.Hbonds>
donor molecule, donor type, donor heavy atom, donor atom, acceptor molecule, acceptor atom, score
      L1  H    10    36       P1  7948  0.34
      P1  H 10752 10764       L1    18  0.03

> <Gold.PLP.Chemscore.Internal.Correction>
0.1046

> <Gold.Rescore>
     Score         DG    S(hbond)    S(metal)    S(lipo)     H(rot)  DE(clash)    DE(int)     intcor
     13.07     -14.56       2.23        0.00      71.94       2.64       0.10       1.39       ----

> <Gold.Chemscore.Fitness>
13.0705

> <Gold.Chemscore.DG>
-14.5609

> <Gold.Chemscore.ZeroCoef>
-5.4800

> <Gold.Chemscore.Hbond>
2.2251

> <Gold.Chemscore.Metal>
0.0000

> <Gold.Chemscore.Lipo>
71.9450

> <Gold.Chemscore.Internal_Hbond>
0.0000

> <Gold.Chemscore.DEClash>
0.0966

> <Gold.Chemscore.DEInternal>
1.3938

> <Gold.Chemscore.Rot>
2.6439

> <Gold.Chemscore.Internal.Correction>
   9.000000E+99

> <Gold.Chemscore.Hbonds>
donor molecule, donor type, donor heavy atom, donor atom, acceptor molecule, acceptor atom, score
      L1  H    10    36       P1  7948  0.33
      P1  H 10752 10764       L1    18  0.06

> <Gold.Chemscore.Hbond.Weighted>
-7.4318

> <Gold.Chemscore.Metal.Weighted>
-0.0000

> <Gold.Chemscore.Lipo.Weighted>
-8.4176

> <Gold.Chemscore.Internal_Hbond.Weighted>
0.0000

> <Gold.Chemscore.DEClash.Weighted>
0.0966

> <Gold.Chemscore.DEInternal.Weighted>
1.3938

> <Gold.Chemscore.Rot.Weighted>
6.7685

> <Gold.Chemscore.Internal.Correction.Weighted>
   9.000000E+99

> <Gold.Protein.RotatedTorsions>
[ 6907 6896 6895 6894 ] final  -47.60 input  -60.11 | X-H torsion
[ 7974 7965 7964 7962 ] final -122.13 input  175.53 | X-H torsion
[ 8008 7997 7996 7995 ] final  110.35 input   59.86 | X-H torsion
[ 10167 10162 10161 10158 ] final  138.06 input  -65.29 | X-H torsion
[ 10718 10713 10712 10709 ] final  102.66 input   66.30 | X-H torsion
[ 10763 10752 10751 10750 ] final  -43.13 input  -60.55 | X-H torsion
[ 11005 11000 10999 10996 ] final   57.76 input  -57.11 | X-H torsion

> <Gold.Protein.ActiveResidues>
 VAL166  LYS551  ARG553  GLY616  TRP617  ASP618  TYR619  PRO620  LYS621  CYS622 
 ASP623  PHE694  ASN695  SER759  ASP760  ASP761  ALA762  ILE779  LEU786  VAL792 
 PHE793  MET794  SER795  GLU796  ALA797  LYS798  CYS799  TRP800  GLU811  SER814 

> <Gold.Protein.RotatedAtoms>
  150.8991  134.8402  159.7347 H   0  0  0  0  0  0  0  0  0  0  0  0  # atno 6907 bound_to 6896
  152.4882  134.4529  159.9590 H   0  0  0  0  0  0  0  0  0  0  0  0  # atno 6908 bound_to 6896
  151.4583  133.3560  159.2840 H   0  0  0  0  0  0  0  0  0  0  0  0  # atno 6909 bound_to 6896
  145.0328  140.8082  143.4313 H   0  0  0  0  0  0  0  0  0  0  0  0  # atno 7974 bound_to 7965
  156.2047  140.3040  155.9601 H   0  0  0  0  0  0  0  0  0  0  0  0  # atno 8008 bound_to 7997
  155.2871  140.0440  157.3037 H   0  0  0  0  0  0  0  0  0  0  0  0  # atno 8009 bound_to 7997
  154.5617  140.2322  155.8334 H   0  0  0  0  0  0  0  0  0  0  0  0  # atno 8010 bound_to 7997
  139.5123  144.6374  151.5659 H   0  0  0  0  0  0  0  0  0  0  0  0  # atno 10167 bound_to 10162
  157.6795  131.0759  150.5438 H   0  0  0  0  0  0  0  0  0  0  0  0  # atno 10718 bound_to 10713
  153.9904  135.6706  153.4754 H   0  0  0  0  0  0  0  0  0  0  0  0  # atno 10763 bound_to 10752
  153.0707  135.4975  154.8296 H   0  0  0  0  0  0  0  0  0  0  0  0  # atno 10764 bound_to 10752
  154.7112  135.3098  154.9156 H   0  0  0  0  0  0  0  0  0  0  0  0  # atno 10765 bound_to 10752
  140.0428  134.5849  155.9360 H   0  0  0  0  0  0  0  0  0  0  0  0  # atno 11005 bound_to 11000
  145.1748  139.2384  143.5323 LP  0  0  0  0  0  0  0  0  0  0  0  0  # atno 17320 bound_to 7965
  146.3500  140.1508  142.8592 LP  0  0  0  0  0  0  0  0  0  0  0  0  # atno 17321 bound_to 7965
  140.6129  143.9403  150.6466 LP  0  0  0  0  0  0  0  0  0  0  0  0  # atno 17342 bound_to 10162
  140.2652  143.3495  152.1288 LP  0  0  0  0  0  0  0  0  0  0  0  0  # atno 17343 bound_to 10162
  156.5744  130.4288  149.6005 LP  0  0  0  0  0  0  0  0  0  0  0  0  # atno 17370 bound_to 10713
  156.2713  130.7018  151.1817 LP  0  0  0  0  0  0  0  0  0  0  0  0  # atno 17371 bound_to 10713
  141.1892  133.6564  156.5356 LP  0  0  0  0  0  0  0  0  0  0  0  0  # atno 17394 bound_to 11000
  140.4042  134.7330  157.4797 LP  0  0  0  0  0  0  0  0  0  0  0  0  # atno 17395 bound_to 11000

$$$$
