AV-unprocessed.smi:2297|AV-procd|sdf|9222|dock2
  -GOLD-   2272012443D 1   1.00000     0.00000
 Structure written by MMmdl.
 44 45  0  0  0  0  0  0  0  0  1 V2000
  152.2147  145.3341  158.9126 C   0  0  0  0  0  0  0  0  0  0  0  0
  152.2725  143.8215  158.9692 C   0  0  0  0  0  0  0  0  0  0  0  0
  153.0877  143.1748  159.9194 C   0  0  0  0  0  0  0  0  0  0  0  0
  153.1376  141.7681  159.9662 C   0  0  0  0  0  0  0  0  0  0  0  0
  154.0175  141.0797  160.9893 C   0  0  0  0  0  0  0  0  0  0  0  0
  152.3684  141.0103  159.0598 C   0  0  0  0  0  0  0  0  0  0  0  0
  151.5478  141.6415  158.1029 C   0  0  0  0  0  0  0  0  0  0  0  0
  150.8312  140.8219  157.2579 O   0  0  0  0  0  0  0  0  0  0  0  0
  149.9744  141.4270  156.2965 C   0  0  0  0  0  0  0  0  0  0  0  0
  149.6607  140.4310  155.1670 C   0  0  2  0  0  0  0  0  0  0  0  0
  150.8886  139.9247  154.6833 O   0  0  0  0  0  0  0  0  0  0  0  0
  148.8440  141.0598  154.0155 C   0  0  0  0  0  0  0  0  0  0  0  0
  147.4749  141.4086  154.4296 N   0  0  0  0  0  0  0  0  0  0  0  0
  147.0821  142.7409  154.2223 C   0  0  0  0  0  0  0  0  0  0  0  0
  145.9022  143.1591  154.5460 N   0  0  0  0  0  0  0  0  0  0  0  0
  144.9831  142.2767  155.1212 C   0  0  0  0  0  0  0  0  0  0  0  0
  143.6316  142.8733  155.4716 C   0  0  0  0  0  0  0  0  0  0  0  0
  145.3004  140.9722  155.3453 C   0  0  0  0  0  0  0  0  0  0  0  0
  144.3438  139.9670  155.9746 C   0  0  0  0  0  0  0  0  0  0  0  0
  146.6360  140.4794  154.9723 C   0  0  0  0  0  0  0  0  0  0  0  0
  146.9845  139.3078  155.1311 O   0  0  0  0  0  0  0  0  0  0  0  0
  151.5070  143.0581  158.0645 C   0  0  0  0  0  0  0  0  0  0  0  0
  152.7727  145.7857  159.7335 H   0  0  0  0  0  0  0  0  0  0  0  0
  151.1816  145.6766  158.9761 H   0  0  0  0  0  0  0  0  0  0  0  0
  152.6385  145.6922  157.9741 H   0  0  0  0  0  0  0  0  0  0  0  0
  153.6768  143.7559  160.6141 H   0  0  0  0  0  0  0  0  0  0  0  0
  153.9411  139.9945  160.9153 H   0  0  0  0  0  0  0  0  0  0  0  0
  153.7259  141.3733  161.9979 H   0  0  0  0  0  0  0  0  0  0  0  0
  155.0606  141.3585  160.8383 H   0  0  0  0  0  0  0  0  0  0  0  0
  152.4045  139.9312  159.0944 H   0  0  0  0  0  0  0  0  0  0  0  0
  149.0516  141.7825  156.7587 H   0  0  0  0  0  0  0  0  0  0  0  0
  150.4821  142.2910  155.8648 H   0  0  0  0  0  0  0  0  0  0  0  0
  149.1170  139.5941  155.6070 H   0  0  0  0  0  0  0  0  0  0  0  0
  151.4450  139.7274  155.4211 H   0  0  0  0  0  0  0  0  0  0  0  0
  149.3412  141.9708  153.6769 H   0  0  0  0  0  0  0  0  0  0  0  0
  148.8558  140.4090  153.1384 H   0  0  0  0  0  0  0  0  0  0  0  0
  147.8355  143.3884  153.7704 H   0  0  0  0  0  0  0  0  0  0  0  0
  143.4519  142.8057  156.5448 H   0  0  0  0  0  0  0  0  0  0  0  0
  142.8334  142.3447  154.9498 H   0  0  0  0  0  0  0  0  0  0  0  0
  143.5752  143.9249  155.1883 H   0  0  0  0  0  0  0  0  0  0  0  0
  144.1751  139.1305  155.2955 H   0  0  0  0  0  0  0  0  0  0  0  0
  143.3717  140.3924  156.2178 H   0  0  0  0  0  0  0  0  0  0  0  0
  144.7690  139.5722  156.8981 H   0  0  0  0  0  0  0  0  0  0  0  0
  150.8938  143.5830  157.3478 H   0  0  0  0  0  0  0  0  0  0  0  0
  1  2  1  0  0  0  0
  1 23  1  0  0  0  0
  1 24  1  0  0  0  0
  1 25  1  0  0  0  0
  2 22  1  0  0  0  0
  2  3  2  0  0  0  0
  3  4  1  0  0  0  0
  3 26  1  0  0  0  0
  4  5  1  0  0  0  0
  4  6  2  0  0  0  0
  5 27  1  0  0  0  0
  5 28  1  0  0  0  0
  5 29  1  0  0  0  0
  6  7  1  0  0  0  0
  6 30  1  0  0  0  0
  7  8  1  0  0  0  0
  7 22  2  0  0  0  0
  8  9  1  0  0  0  0
  9 10  1  0  0  0  0
  9 31  1  0  0  0  0
  9 32  1  0  0  0  0
 10 11  1  0  0  0  0
 10 12  1  0  0  0  0
 10 33  1  0  0  0  0
 11 34  1  0  0  0  0
 12 13  1  0  0  0  0
 12 35  1  0  0  0  0
 12 36  1  0  0  0  0
 13 20  1  0  0  0  0
 13 14  1  0  0  0  0
 14 15  2  0  0  0  0
 14 37  1  0  0  0  0
 15 16  1  0  0  0  0
 16 17  1  0  0  0  0
 16 18  2  0  0  0  0
 17 38  1  0  0  0  0
 17 39  1  0  0  0  0
 17 40  1  0  0  0  0
 18 19  1  0  0  0  0
 18 20  1  0  0  0  0
 19 41  1  0  0  0  0
 19 42  1  0  0  0  0
 19 43  1  0  0  0  0
 20 21  2  0  0  0  0
 22 44  1  0  0  0  0
M  END
> <s_m_source_file>
AV-unprocessed.smi

> <i_m_source_file_index>
2297

> <i_lp_mmshare_version>
43012

> <i_f3d_flags>
0

> <s_epik_input>
W0NIM11jMVtjSF1jKFtDSDNdKVtjSF1jKFtjSF0xKU9bQ0gyXVtDQEhdKFtPSF0pW0NIMl1uMltjSF1uYyhbQ0gzXSljKFtDSDNdKWMyPU8=

> <s_epik_cmdline>
J2VwaWtfcHl0aG9uJywgJy1waCcsICc3LjAnLCAnLXRuJywgJzgnLCAnLW1hJywgJzIwMCcsICctbWV0YWxfYmluZGluZycsICctaW1hZScsICc8aW5maWxlLm1hZT4nLCAnLW9tYWUnLCAnPG91dGZpbGUubWFlPic=

> <r_lp_tautomer_probability>
1

> <r_epik_Ionization_Penalty>
3.72236e-05

> <r_epik_Ionization_Penalty_Charging>
8.38864e-08

> <r_epik_Ionization_Penalty_Neutral>
3.71397e-05

> <r_epik_State_Penalty>
-0

> <r_epik_Charging_Adjusted_Penalty>
8.38864e-08

> <i_epik_Tot_Q>
0

> <i_epik_Tot_abs_Q>
0

> <r_epik_Metal_State_Penalty>
-0

> <b_epik_Metal_Only>
0

> <s_lp_Force_Field>
OPLS_2005

> <r_lp_Energy>
24.6499

> <b_lp_Chiralities_Consistent>
1

> <s_lp_Variant>
AV-unprocessed.smi:2297-1

> <Gold.Version>
5.8.1

> <Gold.Id.Protein>
6NUR|6NUR_protein|mol2

> <Gold.PLP.Fitness>
48.0288

> <Gold.PLP.PLP>
-43.6510

> <Gold.PLP.part.hbond>
-1.0000

> <Gold.PLP.part.metal>
0.0000

> <Gold.PLP.part.buried>
-3.1440

> <Gold.PLP.part.nonpolar>
-39.8027

> <Gold.PLP.part.repulsive>
0.2730

> <Gold.PLP.ligand.clash>
0.0000

> <Gold.PLP.ligand.torsion>
0.1752

> <Gold.PLP.Chemscore.Hbond>
1.0000

> <Gold.PLP.Chemscore.CHOScore>
0.5424

> <Gold.PLP.Chemscore.Metal>
0.0000

> <Gold.Chemscore.Hbonds>
donor molecule, donor type, donor heavy atom, donor atom, acceptor molecule, acceptor atom, score
      P1  H  7989  7998       L1    11  1.00
      L1  C    14    37       P1  8028  0.55

> <Gold.PLP.Chemscore.Internal.Correction>
0.1010

> <Gold.Rescore>
     Score         DG    S(hbond)    S(metal)    S(lipo)     H(rot)  DE(clash)    DE(int)     intcor
     14.64     -16.15       0.92        0.00     115.68       2.32       0.06       1.45       ----

> <Gold.Chemscore.Fitness>
14.6443

> <Gold.Chemscore.DG>
-16.1527

> <Gold.Chemscore.ZeroCoef>
-5.4800

> <Gold.Chemscore.Hbond>
0.9242

> <Gold.Chemscore.Metal>
0.0000

> <Gold.Chemscore.Lipo>
115.6766

> <Gold.Chemscore.Internal_Hbond>
0.0000

> <Gold.Chemscore.DEClash>
0.0589

> <Gold.Chemscore.DEInternal>
1.4495

> <Gold.Chemscore.Rot>
2.3236

> <Gold.Chemscore.Internal.Correction>
   9.000000E+99

> <Gold.Chemscore.Hbonds>
donor molecule, donor type, donor heavy atom, donor atom, acceptor molecule, acceptor atom, score
      P1  H  7989  7998       L1    11  0.80

> <Gold.Chemscore.Hbond.Weighted>
-3.0869

> <Gold.Chemscore.Metal.Weighted>
-0.0000

> <Gold.Chemscore.Lipo.Weighted>
-13.5342

> <Gold.Chemscore.Internal_Hbond.Weighted>
0.0000

> <Gold.Chemscore.DEClash.Weighted>
0.0589

> <Gold.Chemscore.DEInternal.Weighted>
1.4495

> <Gold.Chemscore.Rot.Weighted>
5.9484

> <Gold.Chemscore.Internal.Correction.Weighted>
   9.000000E+99

> <Gold.Protein.RotatedTorsions>
[ 6907 6896 6895 6894 ] final  131.46 input  -60.11 | X-H torsion
[ 7974 7965 7964 7962 ] final -130.35 input  175.53 | X-H torsion
[ 8008 7997 7996 7995 ] final  -27.96 input   59.86 | X-H torsion
[ 10167 10162 10161 10158 ] final  152.42 input  -65.29 | X-H torsion
[ 10718 10713 10712 10709 ] final  165.50 input   66.30 | X-H torsion
[ 10763 10752 10751 10750 ] final  -17.14 input  -60.55 | X-H torsion
[ 11005 11000 10999 10996 ] final   76.76 input  -57.11 | X-H torsion

> <Gold.Protein.ActiveResidues>
 VAL166  LYS551  ARG553  GLY616  TRP617  ASP618  TYR619  PRO620  LYS621  CYS622 
 ASP623  PHE694  ASN695  SER759  ASP760  ASP761  ALA762  ILE779  LEU786  VAL792 
 PHE793  MET794  SER795  GLU796  ALA797  LYS798  CYS799  TRP800  GLU811  SER814 

> <Gold.Protein.RotatedAtoms>
  152.3424  133.6082  159.5885 H   0  0  0  0  0  0  0  0  0  0  0  0  # atno 6907 bound_to 6896
  150.7486  133.9702  159.3552 H   0  0  0  0  0  0  0  0  0  0  0  0  # atno 6908 bound_to 6896
  151.7565  135.0821  160.0390 H   0  0  0  0  0  0  0  0  0  0  0  0  # atno 6909 bound_to 6896
  144.9483  140.7316  143.4803 H   0  0  0  0  0  0  0  0  0  0  0  0  # atno 7974 bound_to 7965
  154.4353  140.1858  156.1014 H   0  0  0  0  0  0  0  0  0  0  0  0  # atno 8008 bound_to 7997
  156.0289  140.3332  155.7092 H   0  0  0  0  0  0  0  0  0  0  0  0  # atno 8009 bound_to 7997
  155.5868  140.0627  157.2760 H   0  0  0  0  0  0  0  0  0  0  0  0  # atno 8010 bound_to 7997
  139.4833  144.5359  151.7645 H   0  0  0  0  0  0  0  0  0  0  0  0  # atno 10167 bound_to 10162
  157.0793  131.0387  151.2581 H   0  0  0  0  0  0  0  0  0  0  0  0  # atno 10718 bound_to 10713
  153.5693  135.7008  153.5512 H   0  0  0  0  0  0  0  0  0  0  0  0  # atno 10763 bound_to 10752
  153.3359  135.4034  155.1532 H   0  0  0  0  0  0  0  0  0  0  0  0  # atno 10764 bound_to 10752
  154.8635  135.3730  154.5215 H   0  0  0  0  0  0  0  0  0  0  0  0  # atno 10765 bound_to 10752
  139.9284  134.7628  156.1437 H   0  0  0  0  0  0  0  0  0  0  0  0  # atno 11005 bound_to 11000
  145.2883  139.1893  143.4754 LP  0  0  0  0  0  0  0  0  0  0  0  0  # atno 17320 bound_to 7965
  146.3312  140.2856  142.8612 LP  0  0  0  0  0  0  0  0  0  0  0  0  # atno 17321 bound_to 7965
  140.4892  144.1335  150.5947 LP  0  0  0  0  0  0  0  0  0  0  0  0  # atno 17342 bound_to 10162
  140.4190  143.2620  151.9739 LP  0  0  0  0  0  0  0  0  0  0  0  0  # atno 17343 bound_to 10162
  157.4814  130.7767  149.7417 LP  0  0  0  0  0  0  0  0  0  0  0  0  # atno 17370 bound_to 10713
  155.9928  130.3928  150.2926 LP  0  0  0  0  0  0  0  0  0  0  0  0  # atno 17371 bound_to 10713
  141.0857  133.6735  156.2430 LP  0  0  0  0  0  0  0  0  0  0  0  0  # atno 17394 bound_to 11000
  140.6271  134.5302  157.5555 LP  0  0  0  0  0  0  0  0  0  0  0  0  # atno 17395 bound_to 11000

$$$$
