AV-unprocessed.smi:281|AV-procd|sdf|2103|dock2
  -GOLD-   2262021393D 1   1.00000     0.00000
 Structure written by MMmdl.
 55 59  0  0  0  0  0  0  0  0  1 V2000
  147.4208  142.1682  154.1908 C   0  0  0  0  0  0  0  0  0  0  0  0
  147.9756  140.7434  154.2841 C   0  0  2  0  0  0  0  0  0  0  0  0
  146.8786  139.7193  154.6127 C   0  0  0  0  0  0  0  0  0  0  0  0
  147.4725  138.4015  154.7934 N   0  0  0  0  0  0  0  0  0  0  0  0
  146.5958  137.3659  154.7628 C   0  0  0  0  0  0  0  0  0  0  0  0
  146.2958  136.6948  155.9073 N   0  0  0  0  0  0  0  0  0  0  0  0
  145.4268  135.6803  155.8880 C   0  0  0  0  0  0  0  0  0  0  0  0
  144.7580  135.1747  154.8505 N   0  0  0  0  0  0  0  0  0  0  0  0
  145.0642  135.8330  153.6960 C   0  0  0  0  0  0  0  0  0  0  0  0
  145.9599  136.9320  153.5650 C   0  0  0  0  0  0  0  0  0  0  0  0
  146.0165  137.3387  152.2370 N   0  0  0  0  0  0  0  0  0  0  0  0
  145.1937  136.5346  151.6216 C   0  0  0  0  0  0  0  0  0  0  0  0
  144.5898  135.5884  152.4186 N   0  0  0  0  0  0  0  0  0  0  0  0
  143.6397  134.5692  151.9970 C   0  0  0  0  0  0  0  0  0  0  0  0
  144.2847  133.2045  151.6423 C   0  0  2  0  0  0  0  0  0  0  0  0
  144.8314  132.6257  152.8129 O   0  0  0  0  0  0  0  0  0  0  0  0
  145.3739  133.2829  150.5691 C   0  0  0  0  0  0  0  0  0  0  0  0
  144.6477  132.8397  149.3073 C   0  0  0  0  0  0  0  0  0  0  0  0
  143.8111  131.8039  149.7890 O   0  0  0  0  0  0  0  0  0  0  0  0
  143.2549  132.2366  151.0241 C   0  0  0  0  0  0  0  0  0  0  0  0
  148.5209  138.3844  155.8095 C   0  0  0  0  0  0  0  0  0  0  0  0
  149.6007  139.4527  155.5195 C   0  0  2  0  0  0  0  0  0  0  0  0
  150.5120  139.0987  154.3352 C   0  0  0  0  0  0  0  0  0  0  0  0
  151.8449  138.7367  154.9766 C   0  0  0  0  0  0  0  0  0  0  0  0
  151.8869  139.5951  156.1008 O   0  0  0  0  0  0  0  0  0  0  0  0
  150.5998  139.5486  156.6983 C   0  0  1  0  0  0  0  0  0  0  0  0
  150.4048  140.7360  157.6523 C   0  0  0  0  0  0  0  0  0  0  0  0
  148.9686  140.7220  155.3099 O   0  0  0  0  0  0  0  0  0  0  0  0
  146.6616  142.2436  153.4120 H   0  0  0  0  0  0  0  0  0  0  0  0
  148.2126  142.8789  153.9528 H   0  0  0  0  0  0  0  0  0  0  0  0
  146.9675  142.4777  155.1329 H   0  0  0  0  0  0  0  0  0  0  0  0
  148.4282  140.4906  153.3246 H   0  0  0  0  0  0  0  0  0  0  0  0
  146.3619  140.0020  155.5310 H   0  0  0  0  0  0  0  0  0  0  0  0
  146.1327  139.7180  153.8189 H   0  0  0  0  0  0  0  0  0  0  0  0
  145.2422  135.2047  156.8399 H   0  0  0  0  0  0  0  0  0  0  0  0
  145.0094  136.6062  150.5594 H   0  0  0  0  0  0  0  0  0  0  0  0
  142.9074  134.4398  152.7952 H   0  0  0  0  0  0  0  0  0  0  0  0
  143.0876  134.9561  151.1395 H   0  0  0  0  0  0  0  0  0  0  0  0
  144.1223  132.4063  153.3978 H   0  0  0  0  0  0  0  0  0  0  0  0
  145.8355  134.2630  150.4610 H   0  0  0  0  0  0  0  0  0  0  0  0
  146.1742  132.5707  150.7772 H   0  0  0  0  0  0  0  0  0  0  0  0
  144.0409  133.6485  148.8967 H   0  0  0  0  0  0  0  0  0  0  0  0
  145.3259  132.4840  148.5316 H   0  0  0  0  0  0  0  0  0  0  0  0
  143.0277  131.3805  151.6610 H   0  0  0  0  0  0  0  0  0  0  0  0
  142.3121  132.7443  150.8152 H   0  0  0  0  0  0  0  0  0  0  0  0
  148.0670  138.5770  156.7829 H   0  0  0  0  0  0  0  0  0  0  0  0
  148.9810  137.3961  155.8591 H   0  0  0  0  0  0  0  0  0  0  0  0
  150.1217  138.2984  153.7057 H   0  0  0  0  0  0  0  0  0  0  0  0
  150.6643  139.9725  153.7005 H   0  0  0  0  0  0  0  0  0  0  0  0
  151.8552  137.6955  155.3031 H   0  0  0  0  0  0  0  0  0  0  0  0
  152.6924  138.9003  154.3108 H   0  0  0  0  0  0  0  0  0  0  0  0
  150.5624  138.6266  157.2818 H   0  0  0  0  0  0  0  0  0  0  0  0
  149.4104  140.7192  158.0993 H   0  0  0  0  0  0  0  0  0  0  0  0
  150.5274  141.6885  157.1358 H   0  0  0  0  0  0  0  0  0  0  0  0
  151.1337  140.7048  158.4621 H   0  0  0  0  0  0  0  0  0  0  0  0
  1  2  1  0  0  0  0
  1 29  1  0  0  0  0
  1 30  1  0  0  0  0
  1 31  1  0  0  0  0
  2 28  1  0  0  0  0
  2  3  1  0  0  0  0
  2 32  1  0  0  0  0
  3  4  1  0  0  0  0
  3 33  1  0  0  0  0
  3 34  1  0  0  0  0
  4  5  1  0  0  0  0
  4 21  1  0  0  0  0
  5 10  1  0  0  0  0
  5  6  2  0  0  0  0
  6  7  1  0  0  0  0
  7  8  2  0  0  0  0
  7 35  1  0  0  0  0
  8  9  1  0  0  0  0
  9 13  1  0  0  0  0
  9 10  2  0  0  0  0
 10 11  1  0  0  0  0
 11 12  2  0  0  0  0
 12 13  1  0  0  0  0
 12 36  1  0  0  0  0
 13 14  1  0  0  0  0
 14 15  1  0  0  0  0
 14 37  1  0  0  0  0
 14 38  1  0  0  0  0
 15 20  1  0  0  0  0
 15 16  1  0  0  0  0
 15 17  1  0  0  0  0
 16 39  1  0  0  0  0
 17 18  1  0  0  0  0
 17 40  1  0  0  0  0
 17 41  1  0  0  0  0
 18 19  1  0  0  0  0
 18 42  1  0  0  0  0
 18 43  1  0  0  0  0
 19 20  1  0  0  0  0
 20 44  1  0  0  0  0
 20 45  1  0  0  0  0
 21 22  1  0  0  0  0
 21 46  1  0  0  0  0
 21 47  1  0  0  0  0
 22 26  1  0  0  0  0
 22 23  1  0  0  0  0
 22 28  1  0  0  0  0
 23 24  1  0  0  0  0
 23 48  1  0  0  0  0
 23 49  1  0  0  0  0
 24 25  1  0  0  0  0
 24 50  1  0  0  0  0
 24 51  1  0  0  0  0
 25 26  1  0  0  0  0
 26 27  1  0  0  0  0
 26 52  1  0  0  0  0
 27 53  1  0  0  0  0
 27 54  1  0  0  0  0
 27 55  1  0  0  0  0
M  END
> <s_m_source_file>
AV-unprocessed.smi

> <i_m_source_file_index>
281

> <i_lp_mmshare_version>
43012

> <i_f3d_flags>
0

> <s_epik_input>
W0NIM11bQ0BASF0xT1tDSDJdW0NIMl1bQ0BAXTEyW0NIMl1OKFtDSDJdW0NASF0oTzIpW0NIM10pYyhuW2NIXW4zKWMoYzM0KW5bY0hdbjRbQ0gyXVtDQEBdNShbT0hdKVtDSDJdW0NIMl1PW0NIMl01

> <s_epik_cmdline>
J2VwaWtfcHl0aG9uJywgJy1waCcsICc3LjAnLCAnLXRuJywgJzgnLCAnLW1hJywgJzIwMCcsICctbWV0YWxfYmluZGluZycsICctaW1hZScsICc8aW5maWxlLm1hZT4nLCAnLW9tYWUnLCAnPG91dGZpbGUubWFlPic=

> <r_lp_tautomer_probability>
1

> <r_epik_Ionization_Penalty>
0.00571331

> <r_epik_Ionization_Penalty_Charging>
0

> <r_epik_Ionization_Penalty_Neutral>
0.00571331

> <r_epik_State_Penalty>
0.00399586

> <r_epik_Charging_Adjusted_Penalty>
0.00399586

> <i_epik_Tot_Q>
0

> <i_epik_Tot_abs_Q>
0

> <r_epik_Metal_State_Penalty>
-0

> <b_epik_Metal_Only>
0

> <s_lp_Force_Field>
OPLS_2005

> <r_lp_Energy>
53.0608

> <b_lp_Chiralities_Consistent>
1

> <s_lp_Variant>
AV-unprocessed.smi:281-3

> <Gold.Version>
5.8.1

> <Gold.Id.Protein>
6NUR|6NUR_protein|mol2

> <Gold.PLP.Fitness>
38.1582

> <Gold.PLP.PLP>
-32.4090

> <Gold.PLP.part.hbond>
-2.0000

> <Gold.PLP.part.metal>
0.0000

> <Gold.PLP.part.buried>
-5.4382

> <Gold.PLP.part.nonpolar>
-27.5595

> <Gold.PLP.part.repulsive>
0.7207

> <Gold.PLP.ligand.clash>
0.0000

> <Gold.PLP.ligand.torsion>
0.8930

> <Gold.PLP.Chemscore.Hbond>
1.7051

> <Gold.PLP.Chemscore.CHOScore>
0.7059

> <Gold.PLP.Chemscore.Metal>
0.0000

> <Gold.Chemscore.Hbonds>
donor molecule, donor type, donor heavy atom, donor atom, acceptor molecule, acceptor atom, score
      L1  H    16    39       P1 10957  0.72
      P1  H 10785 10796       L1    19  0.80
      L1  C    12    36       P1 10171  0.74

> <Gold.PLP.Chemscore.Internal.Correction>
0.3020

> <Gold.Rescore>
     Score         DG    S(hbond)    S(metal)    S(lipo)     H(rot)  DE(clash)    DE(int)     intcor
     12.76     -13.78       0.94        0.00      89.80       2.09       0.15       0.87       ----

> <Gold.Chemscore.Fitness>
12.7589

> <Gold.Chemscore.DG>
-13.7754

> <Gold.Chemscore.ZeroCoef>
-5.4800

> <Gold.Chemscore.Hbond>
0.9418

> <Gold.Chemscore.Metal>
0.0000

> <Gold.Chemscore.Lipo>
89.8045

> <Gold.Chemscore.Internal_Hbond>
0.0000

> <Gold.Chemscore.DEClash>
0.1469

> <Gold.Chemscore.DEInternal>
0.8696

> <Gold.Chemscore.Rot>
2.0927

> <Gold.Chemscore.Internal.Correction>
   9.000000E+99

> <Gold.Chemscore.Hbonds>
donor molecule, donor type, donor heavy atom, donor atom, acceptor molecule, acceptor atom, score
      L1  H    16    39       P1 10957  0.12
      P1  H 10785 10796       L1    19  0.76

> <Gold.Chemscore.Hbond.Weighted>
-3.1456

> <Gold.Chemscore.Metal.Weighted>
-0.0000

> <Gold.Chemscore.Lipo.Weighted>
-10.5071

> <Gold.Chemscore.Internal_Hbond.Weighted>
0.0000

> <Gold.Chemscore.DEClash.Weighted>
0.1469

> <Gold.Chemscore.DEInternal.Weighted>
0.8696

> <Gold.Chemscore.Rot.Weighted>
5.3573

> <Gold.Chemscore.Internal.Correction.Weighted>
   9.000000E+99

> <Gold.Protein.RotatedTorsions>
[ 6907 6896 6895 6894 ] final   23.79 input  -60.11 | X-H torsion
[ 7974 7965 7964 7962 ] final  -72.93 input  175.53 | X-H torsion
[ 8008 7997 7996 7995 ] final -106.76 input   59.86 | X-H torsion
[ 10167 10162 10161 10158 ] final -126.27 input  -65.29 | X-H torsion
[ 10718 10713 10712 10709 ] final  -97.87 input   66.30 | X-H torsion
[ 10763 10752 10751 10750 ] final   11.76 input  -60.55 | X-H torsion
[ 11005 11000 10999 10996 ] final -115.63 input  -57.11 | X-H torsion

> <Gold.Protein.ActiveResidues>
 VAL166  LYS551  ARG553  GLY616  TRP617  ASP618  TYR619  PRO620  LYS621  CYS622 
 ASP623  PHE694  ASN695  SER759  ASP760  ASP761  ALA762  ILE779  LEU786  VAL792 
 PHE793  MET794  SER795  GLU796  ALA797  LYS798  CYS799  TRP800  GLU811  SER814 

> <Gold.Protein.RotatedAtoms>
  151.9477  135.0184  160.0539 H   0  0  0  0  0  0  0  0  0  0  0  0  # atno 6907 bound_to 6896
  152.1981  133.4816  159.5052 H   0  0  0  0  0  0  0  0  0  0  0  0  # atno 6908 bound_to 6896
  150.6949  134.1543  159.4195 H   0  0  0  0  0  0  0  0  0  0  0  0  # atno 6909 bound_to 6896
  145.6588  140.9259  143.0945 H   0  0  0  0  0  0  0  0  0  0  0  0  # atno 7974 bound_to 7965
  154.9193  140.0408  157.1989 H   0  0  0  0  0  0  0  0  0  0  0  0  # atno 8008 bound_to 7997
  154.8270  140.2893  155.5727 H   0  0  0  0  0  0  0  0  0  0  0  0  # atno 8009 bound_to 7997
  156.2984  140.2508  156.3188 H   0  0  0  0  0  0  0  0  0  0  0  0  # atno 8010 bound_to 7997
  139.9732  143.5823  152.2405 H   0  0  0  0  0  0  0  0  0  0  0  0  # atno 10167 bound_to 10162
  156.0094  130.5213  150.6439 H   0  0  0  0  0  0  0  0  0  0  0  0  # atno 10718 bound_to 10713
  153.1893  135.6840  153.8374 H   0  0  0  0  0  0  0  0  0  0  0  0  # atno 10763 bound_to 10752
  153.7679  135.3200  155.3348 H   0  0  0  0  0  0  0  0  0  0  0  0  # atno 10764 bound_to 10752
  154.8107  135.4719  154.0608 H   0  0  0  0  0  0  0  0  0  0  0  0  # atno 10765 bound_to 10752
  141.0475  133.9740  157.2893 H   0  0  0  0  0  0  0  0  0  0  0  0  # atno 11005 bound_to 11000
  144.7096  139.8421  143.7419 LP  0  0  0  0  0  0  0  0  0  0  0  0  # atno 17320 bound_to 7965
  146.1143  139.4151  143.0268 LP  0  0  0  0  0  0  0  0  0  0  0  0  # atno 17321 bound_to 7965
  139.6465  144.7658  151.2233 LP  0  0  0  0  0  0  0  0  0  0  0  0  # atno 17342 bound_to 10162
  140.7515  143.6230  150.8495 LP  0  0  0  0  0  0  0  0  0  0  0  0  # atno 17343 bound_to 10162
  157.4213  131.0837  151.1128 LP  0  0  0  0  0  0  0  0  0  0  0  0  # atno 17370 bound_to 10713
  157.1729  130.6275  149.5646 LP  0  0  0  0  0  0  0  0  0  0  0  0  # atno 17371 bound_to 10713
  139.9323  135.0199  156.8442 LP  0  0  0  0  0  0  0  0  0  0  0  0  # atno 17394 bound_to 11000
  140.6119  134.0075  155.7580 LP  0  0  0  0  0  0  0  0  0  0  0  0  # atno 17395 bound_to 11000

$$$$
