AV-unprocessed.smi:2510|AV-procd|sdf|9880|dock3
  -GOLD-   2272013513D 1   1.00000     0.00000
 Structure written by MMmdl.
 48 49  0  0  0  0  0  0  0  0  1 V2000
  147.2006  141.6624  153.8350 C   0  0  0  0  0  0  0  0  0  0  0  0
  148.6283  141.3453  154.3176 C   0  0  0  0  0  0  0  0  0  0  0  0
  148.7980  140.1081  155.2473 C   0  0  0  0  0  0  0  0  0  0  0  0
  147.9143  140.2721  156.4991 C   0  0  0  0  0  0  0  0  0  0  0  0
  147.8185  141.7100  157.0333 C   0  0  0  0  0  0  0  0  0  0  0  0
  148.7466  138.6983  154.5923 C   0  0  1  0  0  0  0  0  0  0  0  0
  147.9932  138.6061  153.3470 N   0  0  0  0  0  0  0  0  0  0  0  0
  146.8018  138.0026  153.2225 C   0  0  0  0  0  0  0  0  0  0  0  0
  146.2063  137.4750  154.1616 O   0  0  0  0  0  0  0  0  0  0  0  0
  146.1824  137.9987  151.8251 C   0  0  0  0  0  0  0  0  0  0  0  0
  145.6135  136.6555  151.4998 C   0  0  0  0  0  0  0  0  0  0  0  0
  145.8029  135.4318  152.0784 C   0  0  0  0  0  0  0  0  0  0  0  0
  144.9852  134.5488  151.3141 C   0  0  0  0  0  0  0  0  0  0  0  0
  144.7992  133.0707  151.4941 C   0  0  0  0  0  0  0  0  0  0  0  0
  144.3393  135.1733  150.3407 N   0  0  0  0  0  0  0  0  0  0  0  0
  144.7273  136.4560  150.4649 N   0  0  0  0  0  0  0  0  0  0  0  0
  150.2591  138.7619  154.3543 C   0  0  2  0  0  0  0  0  0  0  0  0
  151.0621  137.4684  154.4028 C   0  0  0  0  0  0  0  0  0  0  0  0
  150.2710  139.7220  155.5536 C   0  0  1  0  0  0  0  0  0  0  0  0
  151.1653  140.8196  155.4396 O   0  0  0  0  0  0  0  0  0  0  0  0
  151.0391  141.7580  156.4931 C   0  0  0  0  0  0  0  0  0  0  0  0
  144.3854  137.1746  149.8428 H   0  0  0  0  0  0  0  0  0  0  0  0
  147.2192  142.4816  153.1162 H   0  0  0  0  0  0  0  0  0  0  0  0
  146.5552  141.9770  154.6543 H   0  0  0  0  0  0  0  0  0  0  0  0
  146.7282  140.8151  153.3437 H   0  0  0  0  0  0  0  0  0  0  0  0
  149.2554  141.2348  153.4331 H   0  0  0  0  0  0  0  0  0  0  0  0
  149.0145  142.2370  154.8119 H   0  0  0  0  0  0  0  0  0  0  0  0
  146.9145  139.8759  156.3245 H   0  0  0  0  0  0  0  0  0  0  0  0
  148.3126  139.6535  157.3041 H   0  0  0  0  0  0  0  0  0  0  0  0
  147.2472  141.7359  157.9613 H   0  0  0  0  0  0  0  0  0  0  0  0
  147.3191  142.3733  156.3278 H   0  0  0  0  0  0  0  0  0  0  0  0
  148.8058  142.1225  157.2424 H   0  0  0  0  0  0  0  0  0  0  0  0
  148.5006  137.9143  155.3134 H   0  0  0  0  0  0  0  0  0  0  0  0
  148.4102  139.0206  152.5264 H   0  0  0  0  0  0  0  0  0  0  0  0
  145.3977  138.7547  151.7823 H   0  0  0  0  0  0  0  0  0  0  0  0
  146.9294  138.2859  151.0836 H   0  0  0  0  0  0  0  0  0  0  0  0
  146.4354  135.2007  152.9228 H   0  0  0  0  0  0  0  0  0  0  0  0
  145.2074  132.7361  152.4479 H   0  0  0  0  0  0  0  0  0  0  0  0
  145.3032  132.5137  150.7042 H   0  0  0  0  0  0  0  0  0  0  0  0
  143.7434  132.7990  151.4731 H   0  0  0  0  0  0  0  0  0  0  0  0
  150.4773  139.3151  153.4390 H   0  0  0  0  0  0  0  0  0  0  0  0
  150.9146  136.9429  155.3466 H   0  0  0  0  0  0  0  0  0  0  0  0
  152.1298  137.6555  154.2918 H   0  0  0  0  0  0  0  0  0  0  0  0
  150.7641  136.7926  153.6010 H   0  0  0  0  0  0  0  0  0  0  0  0
  150.3667  139.1985  156.5084 H   0  0  0  0  0  0  0  0  0  0  0  0
  151.7109  142.5972  156.3141 H   0  0  0  0  0  0  0  0  0  0  0  0
  151.3069  141.3168  157.4528 H   0  0  0  0  0  0  0  0  0  0  0  0
  150.0226  142.1485  156.5556 H   0  0  0  0  0  0  0  0  0  0  0  0
  1  2  1  0  0  0  0
  1 23  1  0  0  0  0
  1 24  1  0  0  0  0
  1 25  1  0  0  0  0
  2  3  1  0  0  0  0
  2 26  1  0  0  0  0
  2 27  1  0  0  0  0
  3 19  1  0  0  0  0
  3  4  1  0  0  0  0
  3  6  1  0  0  0  0
  4  5  1  0  0  0  0
  4 28  1  0  0  0  0
  4 29  1  0  0  0  0
  5 30  1  0  0  0  0
  5 31  1  0  0  0  0
  5 32  1  0  0  0  0
  6  7  1  0  0  0  0
  6 17  1  0  0  0  0
  6 33  1  0  0  0  0
  7  8  1  0  0  0  0
  7 34  1  0  0  0  0
  8  9  2  0  0  0  0
  8 10  1  0  0  0  0
 10 35  1  0  0  0  0
 10 36  1  0  0  0  0
 10 11  1  0  0  0  0
 11 16  1  0  0  0  0
 11 12  2  0  0  0  0
 12 13  1  0  0  0  0
 12 37  1  0  0  0  0
 13 14  1  0  0  0  0
 13 15  2  0  0  0  0
 14 38  1  0  0  0  0
 14 39  1  0  0  0  0
 14 40  1  0  0  0  0
 15 16  1  0  0  0  0
 16 22  1  0  0  0  0
 17 18  1  0  0  0  0
 17 19  1  0  0  0  0
 17 41  1  0  0  0  0
 18 42  1  0  0  0  0
 18 43  1  0  0  0  0
 18 44  1  0  0  0  0
 19 20  1  0  0  0  0
 19 45  1  0  0  0  0
 20 21  1  0  0  0  0
 21 46  1  0  0  0  0
 21 47  1  0  0  0  0
 21 48  1  0  0  0  0
M  END
> <s_m_source_file>
AV-unprocessed.smi

> <i_m_source_file_index>
2510

> <i_lp_mmshare_version>
43012

> <i_f3d_flags>
0

> <s_epik_input>
W0NIM11PW0NAQEhdMVtDQEhdKFtDSDNdKVtDQEBIXShDMShbQ0gyXVtDSDNdKVtDSDJdW0NIM10pW05IXUMoPU8pW0NIMl1jMltjSF1jKFtDSDNdKVtuSF1uMg==

> <s_epik_cmdline>
J2VwaWtfcHl0aG9uJywgJy1waCcsICc3LjAnLCAnLXRuJywgJzgnLCAnLW1hJywgJzIwMCcsICctbWV0YWxfYmluZGluZycsICctaW1hZScsICc8aW5maWxlLm1hZT4nLCAnLW9tYWUnLCAnPG91dGZpbGUubWFlPic=

> <r_lp_tautomer_probability>
0.5

> <r_epik_Ionization_Penalty>
0.000134763

> <r_epik_Ionization_Penalty_Charging>
0

> <r_epik_Ionization_Penalty_Neutral>
0.000134763

> <r_epik_State_Penalty>
0.41068

> <r_epik_Charging_Adjusted_Penalty>
0.41068

> <i_epik_Tot_Q>
0

> <i_epik_Tot_abs_Q>
0

> <r_epik_Metal_State_Penalty>
0.410661

> <b_epik_Metal_Only>
0

> <s_lp_Force_Field>
OPLS_2005

> <r_lp_Energy>
25.8263

> <b_lp_Chiralities_Consistent>
1

> <s_lp_Variant>
AV-unprocessed.smi:2510-11

> <Gold.Version>
5.8.1

> <Gold.Id.Protein>
6NUR|6NUR_protein|mol2

> <Gold.PLP.Fitness>
40.6906

> <Gold.PLP.PLP>
-34.5985

> <Gold.PLP.part.hbond>
-3.6077

> <Gold.PLP.part.metal>
0.0000

> <Gold.PLP.part.buried>
-1.6014

> <Gold.PLP.part.nonpolar>
-30.5348

> <Gold.PLP.part.repulsive>
0.5249

> <Gold.PLP.ligand.clash>
0.0000

> <Gold.PLP.ligand.torsion>
1.1547

> <Gold.PLP.Chemscore.Hbond>
2.5913

> <Gold.PLP.Chemscore.CHOScore>
0.0000

> <Gold.PLP.Chemscore.Metal>
0.0000

> <Gold.Chemscore.Hbonds>
donor molecule, donor type, donor heavy atom, donor atom, acceptor molecule, acceptor atom, score
      L1  H     7    34       P1  7957  0.91
      L1  H    16    22       P1 10171  0.79
      P1  H  7989  7998       L1    20  0.75

> <Gold.PLP.Chemscore.Internal.Correction>
0.6278

> <Gold.Rescore>
     Score         DG    S(hbond)    S(metal)    S(lipo)     H(rot)  DE(clash)    DE(int)     intcor
     15.03     -17.94       2.10        0.00      86.07       1.81       0.31       2.60       ----

> <Gold.Chemscore.Fitness>
15.0281

> <Gold.Chemscore.DG>
-17.9420

> <Gold.Chemscore.ZeroCoef>
-5.4800

> <Gold.Chemscore.Hbond>
2.1036

> <Gold.Chemscore.Metal>
0.0000

> <Gold.Chemscore.Lipo>
86.0701

> <Gold.Chemscore.Internal_Hbond>
0.0000

> <Gold.Chemscore.DEClash>
0.3095

> <Gold.Chemscore.DEInternal>
2.6044

> <Gold.Chemscore.Rot>
1.8102

> <Gold.Chemscore.Internal.Correction>
   9.000000E+99

> <Gold.Chemscore.Hbonds>
donor molecule, donor type, donor heavy atom, donor atom, acceptor molecule, acceptor atom, score
      L1  H     7    34       P1  7957  0.87
      L1  H    16    22       P1 10171  0.75
      P1  H  7989  7998       L1    20  0.37

> <Gold.Chemscore.Hbond.Weighted>
-7.0259

> <Gold.Chemscore.Metal.Weighted>
-0.0000

> <Gold.Chemscore.Lipo.Weighted>
-10.0702

> <Gold.Chemscore.Internal_Hbond.Weighted>
0.0000

> <Gold.Chemscore.DEClash.Weighted>
0.3095

> <Gold.Chemscore.DEInternal.Weighted>
2.6044

> <Gold.Chemscore.Rot.Weighted>
4.6341

> <Gold.Chemscore.Internal.Correction.Weighted>
   9.000000E+99

> <Gold.Protein.RotatedTorsions>
[ 6907 6896 6895 6894 ] final  118.67 input  -60.11 | X-H torsion
[ 7974 7965 7964 7962 ] final  173.80 input  175.53 | X-H torsion
[ 8008 7997 7996 7995 ] final   71.49 input   59.86 | X-H torsion
[ 10167 10162 10161 10158 ] final   24.88 input  -65.29 | X-H torsion
[ 10718 10713 10712 10709 ] final  -34.29 input   66.30 | X-H torsion
[ 10763 10752 10751 10750 ] final   74.53 input  -60.55 | X-H torsion
[ 11005 11000 10999 10996 ] final -136.24 input  -57.11 | X-H torsion

> <Gold.Protein.ActiveResidues>
 VAL166  LYS551  ARG553  GLY616  TRP617  ASP618  TYR619  PRO620  LYS621  CYS622 
 ASP623  PHE694  ASN695  SER759  ASP760  ASP761  ALA762  ILE779  LEU786  VAL792 
 PHE793  MET794  SER795  GLU796  ALA797  LYS798  CYS799  TRP800  GLU811  SER814 

> <Gold.Protein.RotatedAtoms>
  152.4527  133.7660  159.6772 H   0  0  0  0  0  0  0  0  0  0  0  0  # atno 6907 bound_to 6896
  150.8443  133.7876  159.3055 H   0  0  0  0  0  0  0  0  0  0  0  0  # atno 6908 bound_to 6896
  151.5491  135.1070  159.9997 H   0  0  0  0  0  0  0  0  0  0  0  0  # atno 6909 bound_to 6896
  144.7235  139.9702  143.6437 H   0  0  0  0  0  0  0  0  0  0  0  0  # atno 7974 bound_to 7965
  155.7546  140.3488  155.5167 H   0  0  0  0  0  0  0  0  0  0  0  0  # atno 8008 bound_to 7997
  155.8972  140.1028  157.1397 H   0  0  0  0  0  0  0  0  0  0  0  0  # atno 8009 bound_to 7997
  154.4040  140.1293  156.4377 H   0  0  0  0  0  0  0  0  0  0  0  0  # atno 8010 bound_to 7997
  140.5152  144.0095  150.6390 H   0  0  0  0  0  0  0  0  0  0  0  0  # atno 10167 bound_to 10162
  156.3523  130.4310  149.7693 H   0  0  0  0  0  0  0  0  0  0  0  0  # atno 10718 bound_to 10713
  153.0593  135.5022  154.8056 H   0  0  0  0  0  0  0  0  0  0  0  0  # atno 10763 bound_to 10752
  154.6857  135.2976  154.9552 H   0  0  0  0  0  0  0  0  0  0  0  0  # atno 10764 bound_to 10752
  154.0324  135.6728  153.4834 H   0  0  0  0  0  0  0  0  0  0  0  0  # atno 10765 bound_to 10752
  140.8823  134.1916  157.4583 H   0  0  0  0  0  0  0  0  0  0  0  0  # atno 11005 bound_to 11000
  146.0569  139.3565  143.0605 LP  0  0  0  0  0  0  0  0  0  0  0  0  # atno 17320 bound_to 7965
  145.8143  140.9710  143.0932 LP  0  0  0  0  0  0  0  0  0  0  0  0  # atno 17321 bound_to 7965
  140.3428  143.3009  152.0570 LP  0  0  0  0  0  0  0  0  0  0  0  0  # atno 17342 bound_to 10162
  139.4907  144.6430  151.6837 LP  0  0  0  0  0  0  0  0  0  0  0  0  # atno 17343 bound_to 10162
  156.4889  130.8076  151.3086 LP  0  0  0  0  0  0  0  0  0  0  0  0  # atno 17370 bound_to 10713
  157.7463  130.9982  150.2843 LP  0  0  0  0  0  0  0  0  0  0  0  0  # atno 17371 bound_to 10713
  139.8721  134.9823  156.5150 LP  0  0  0  0  0  0  0  0  0  0  0  0  # atno 17394 bound_to 11000
  140.8446  133.8179  155.9108 LP  0  0  0  0  0  0  0  0  0  0  0  0  # atno 17395 bound_to 11000

$$$$
