AV-unprocessed.smi:2567|AV-procd|sdf|10080|dock4
  -GOLD-   2272014103D 1   1.00000     0.00000
 Structure written by MMmdl.
 33 34  0  0  0  0  0  0  0  0  1 V2000
  151.9936  144.4098  157.5436 C   0  0  0  0  0  0  0  0  0  0  0  0
  151.3341  143.1606  158.1598 C   0  0  0  0  0  0  0  0  0  0  0  0
  152.1756  142.6619  159.3503 C   0  0  0  0  0  0  0  0  0  0  0  0
  149.9417  143.5696  158.6901 C   0  0  0  0  0  0  0  0  0  0  0  0
  151.2368  142.0713  157.1182 C   0  0  0  0  0  0  0  0  0  0  0  0
  150.5414  142.1947  155.9821 N   0  0  0  0  0  0  0  0  0  0  0  0
  150.6220  141.0507  155.2717 N   0  0  0  0  0  0  0  0  0  0  0  0
  151.3952  140.2956  156.0494 C   0  0  0  0  0  0  0  0  0  0  0  0
  151.7231  138.8853  155.6687 C   0  0  2  0  0  0  0  0  0  0  0  0
  151.2697  138.5519  154.2338 C   0  0  0  0  0  0  0  0  0  0  0  0
  151.5164  137.1410  153.9393 N   0  0  0  0  0  0  0  0  0  0  0  0
  150.8834  136.2758  154.9338 C   0  0  0  0  0  0  0  0  0  0  0  0
  151.3388  136.6652  156.3520 C   0  0  0  0  0  0  0  0  0  0  0  0
  151.0416  138.0368  156.5901 O   0  0  0  0  0  0  0  0  0  0  0  0
  151.7946  140.8676  157.2266 N   0  0  0  0  0  0  0  0  0  0  0  0
  152.0699  145.2192  158.2703 H   0  0  0  0  0  0  0  0  0  0  0  0
  151.4190  144.7822  156.6946 H   0  0  0  0  0  0  0  0  0  0  0  0
  153.0026  144.1969  157.1885 H   0  0  0  0  0  0  0  0  0  0  0  0
  153.1877  142.3971  159.0419 H   0  0  0  0  0  0  0  0  0  0  0  0
  151.7298  141.7773  159.8066 H   0  0  0  0  0  0  0  0  0  0  0  0
  152.2608  143.4246  160.1251 H   0  0  0  0  0  0  0  0  0  0  0  0
  150.0186  144.3628  159.4347 H   0  0  0  0  0  0  0  0  0  0  0  0
  149.4303  142.7313  159.1648 H   0  0  0  0  0  0  0  0  0  0  0  0
  149.3011  143.9399  157.8889 H   0  0  0  0  0  0  0  0  0  0  0  0
  152.8003  138.7360  155.7683 H   0  0  0  0  0  0  0  0  0  0  0  0
  150.2068  138.7711  154.1227 H   0  0  0  0  0  0  0  0  0  0  0  0
  151.7963  139.1818  153.5164 H   0  0  0  0  0  0  0  0  0  0  0  0
  149.7983  136.3609  154.8629 H   0  0  0  0  0  0  0  0  0  0  0  0
  151.1300  135.2329  154.7337 H   0  0  0  0  0  0  0  0  0  0  0  0
  150.8173  136.0588  157.0926 H   0  0  0  0  0  0  0  0  0  0  0  0
  152.4060  136.4807  156.4845 H   0  0  0  0  0  0  0  0  0  0  0  0
  151.1563  136.9186  153.0167 H   0  0  0  0  0  0  0  0  0  0  0  0
  150.0177  143.0001  155.6708 H   0  0  0  0  0  0  0  0  0  0  0  0
  1  2  1  0  0  0  0
  1 16  1  0  0  0  0
  1 17  1  0  0  0  0
  1 18  1  0  0  0  0
  2  3  1  0  0  0  0
  2  4  1  0  0  0  0
  2  5  1  0  0  0  0
  3 19  1  0  0  0  0
  3 20  1  0  0  0  0
  3 21  1  0  0  0  0
  4 22  1  0  0  0  0
  4 23  1  0  0  0  0
  4 24  1  0  0  0  0
  5 15  2  0  0  0  0
  5  6  1  0  0  0  0
  6  7  1  0  0  0  0
  6 33  1  0  0  0  0
  7  8  2  0  0  0  0
  8  9  1  0  0  0  0
  8 15  1  0  0  0  0
  9 14  1  0  0  0  0
  9 10  1  0  0  0  0
  9 25  1  0  0  0  0
 10 11  1  0  0  0  0
 10 26  1  0  0  0  0
 10 27  1  0  0  0  0
 11 12  1  0  0  0  0
 11 32  1  0  0  0  0
 12 13  1  0  0  0  0
 12 28  1  0  0  0  0
 12 29  1  0  0  0  0
 13 14  1  0  0  0  0
 13 30  1  0  0  0  0
 13 31  1  0  0  0  0
M  END
> <s_m_source_file>
AV-unprocessed.smi

> <i_m_source_file_index>
2567

> <i_lp_mmshare_version>
43012

> <i_f3d_flags>
0

> <s_epik_input>
W0NIM11DKFtDSDNdKShbQ0gzXSljMW5bbkhdYyhuMSlbQ0BASF0yW0NIMl1bTkhdW0NIMl1bQ0gyXU8y

> <s_epik_cmdline>
J2VwaWtfcHl0aG9uJywgJy1waCcsICc3LjAnLCAnLXRuJywgJzgnLCAnLW1hJywgJzIwMCcsICctbWV0YWxfYmluZGluZycsICctaW1hZScsICc8aW5maWxlLm1hZT4nLCAnLW9tYWUnLCAnPG91dGZpbGUubWFlPic=

> <r_lp_tautomer_probability>
0.948284

> <r_epik_Ionization_Penalty>
1.10045

> <r_epik_Ionization_Penalty_Charging>
0

> <r_epik_Ionization_Penalty_Neutral>
1.10045

> <r_epik_State_Penalty>
1.2625

> <r_epik_Charging_Adjusted_Penalty>
1.2625

> <i_epik_Tot_Q>
0

> <i_epik_Tot_abs_Q>
0

> <r_epik_Metal_State_Penalty>
1.57133

> <b_epik_Metal_Only>
0

> <s_lp_Force_Field>
OPLS_2005

> <r_lp_Energy>
14.8987

> <b_lp_Chiralities_Consistent>
1

> <s_lp_Variant>
AV-unprocessed.smi:2567-5

> <Gold.Version>
5.8.1

> <Gold.Id.Protein>
6NUR|6NUR_protein|mol2

> <Gold.PLP.Fitness>
36.6570

> <Gold.PLP.PLP>
-28.3858

> <Gold.PLP.part.hbond>
-3.8414

> <Gold.PLP.part.metal>
0.0000

> <Gold.PLP.part.buried>
-3.6211

> <Gold.PLP.part.nonpolar>
-20.4187

> <Gold.PLP.part.repulsive>
0.2046

> <Gold.PLP.ligand.clash>
0.0000

> <Gold.PLP.ligand.torsion>
0.1191

> <Gold.PLP.Chemscore.Hbond>
2.8299

> <Gold.PLP.Chemscore.CHOScore>
0.0000

> <Gold.PLP.Chemscore.Metal>
0.0000

> <Gold.Chemscore.Hbonds>
donor molecule, donor type, donor heavy atom, donor atom, acceptor molecule, acceptor atom, score
      L1  H     6    33       P1  8028  0.94
      L1  H    11    32       P1  7949  1.00
      P1  H  7989  7998       L1     7  0.68
      P1  H 10752 10764       L1    11  0.16

> <Gold.PLP.Chemscore.Internal.Correction>
0.0195

> <Gold.Rescore>
     Score         DG    S(hbond)    S(metal)    S(lipo)     H(rot)  DE(clash)    DE(int)     intcor
     16.47     -16.84       2.08        0.00      65.05       1.25       0.12       0.25       ----

> <Gold.Chemscore.Fitness>
16.4730

> <Gold.Chemscore.DG>
-16.8439

> <Gold.Chemscore.ZeroCoef>
-5.4800

> <Gold.Chemscore.Hbond>
2.0778

> <Gold.Chemscore.Metal>
0.0000

> <Gold.Chemscore.Lipo>
65.0534

> <Gold.Chemscore.Internal_Hbond>
0.0000

> <Gold.Chemscore.DEClash>
0.1226

> <Gold.Chemscore.DEInternal>
0.2484

> <Gold.Chemscore.Rot>
1.2450

> <Gold.Chemscore.Internal.Correction>
   9.000000E+99

> <Gold.Chemscore.Hbonds>
donor molecule, donor type, donor heavy atom, donor atom, acceptor molecule, acceptor atom, score
      L1  H     6    33       P1  8028  0.90
      L1  H    11    32       P1  7949  0.48
      P1  H  7989  7998       L1     7  0.16

> <Gold.Chemscore.Hbond.Weighted>
-6.9399

> <Gold.Chemscore.Metal.Weighted>
-0.0000

> <Gold.Chemscore.Lipo.Weighted>
-7.6112

> <Gold.Chemscore.Internal_Hbond.Weighted>
0.0000

> <Gold.Chemscore.DEClash.Weighted>
0.1226

> <Gold.Chemscore.DEInternal.Weighted>
0.2484

> <Gold.Chemscore.Rot.Weighted>
3.1872

> <Gold.Chemscore.Internal.Correction.Weighted>
   9.000000E+99

> <Gold.Protein.RotatedTorsions>
[ 6907 6896 6895 6894 ] final   26.86 input  -60.11 | X-H torsion
[ 7974 7965 7964 7962 ] final  -52.23 input  175.53 | X-H torsion
[ 8008 7997 7996 7995 ] final  -86.16 input   59.86 | X-H torsion
[ 10167 10162 10161 10158 ] final  106.97 input  -65.29 | X-H torsion
[ 10718 10713 10712 10709 ] final  118.67 input   66.30 | X-H torsion
[ 10763 10752 10751 10750 ] final -100.17 input  -60.55 | X-H torsion
[ 11005 11000 10999 10996 ] final   91.42 input  -57.11 | X-H torsion

> <Gold.Protein.ActiveResidues>
 VAL166  LYS551  ARG553  GLY616  TRP617  ASP618  TYR619  PRO620  LYS621  CYS622 
 ASP623  PHE694  ASN695  SER759  ASP760  ASP761  ALA762  ILE779  LEU786  VAL792 
 PHE793  MET794  SER795  GLU796  ALA797  LYS798  CYS799  TRP800  GLU811  SER814 

> <Gold.Protein.RotatedAtoms>
  151.9937  134.9965  160.0562 H   0  0  0  0  0  0  0  0  0  0  0  0  # atno 6907 bound_to 6896
  152.1584  133.4561  159.4857 H   0  0  0  0  0  0  0  0  0  0  0  0  # atno 6908 bound_to 6896
  150.6884  134.2020  159.4369 H   0  0  0  0  0  0  0  0  0  0  0  0  # atno 6909 bound_to 6896
  145.9102  140.7921  142.9699 H   0  0  0  0  0  0  0  0  0  0  0  0  # atno 7974 bound_to 7965
  154.6488  140.0582  156.9932 H   0  0  0  0  0  0  0  0  0  0  0  0  # atno 8008 bound_to 7997
  155.1403  140.3265  155.4435 H   0  0  0  0  0  0  0  0  0  0  0  0  # atno 8009 bound_to 7997
  156.2566  140.1965  156.6519 H   0  0  0  0  0  0  0  0  0  0  0  0  # atno 8010 bound_to 7997
  139.6965  144.7100  151.1258 H   0  0  0  0  0  0  0  0  0  0  0  0  # atno 10167 bound_to 10162
  157.6014  131.1050  150.7789 H   0  0  0  0  0  0  0  0  0  0  0  0  # atno 10718 bound_to 10713
  154.7557  135.4945  153.9371 H   0  0  0  0  0  0  0  0  0  0  0  0  # atno 10763 bound_to 10752
  153.1194  135.6728  153.9370 H   0  0  0  0  0  0  0  0  0  0  0  0  # atno 10764 bound_to 10752
  153.9107  135.3099  155.3427 H   0  0  0  0  0  0  0  0  0  0  0  0  # atno 10765 bound_to 10752
  139.8839  134.8673  156.3426 H   0  0  0  0  0  0  0  0  0  0  0  0  # atno 11005 bound_to 11000
  144.6742  140.1814  143.7405 LP  0  0  0  0  0  0  0  0  0  0  0  0  # atno 17320 bound_to 7965
  145.8681  139.2257  143.1677 LP  0  0  0  0  0  0  0  0  0  0  0  0  # atno 17321 bound_to 7965
  140.7698  143.5484  150.9232 LP  0  0  0  0  0  0  0  0  0  0  0  0  # atno 17342 bound_to 10162
  139.9164  143.6658  152.3105 LP  0  0  0  0  0  0  0  0  0  0  0  0  # atno 17343 bound_to 10162
  156.8187  130.4976  149.5346 LP  0  0  0  0  0  0  0  0  0  0  0  0  # atno 17370 bound_to 10713
  156.1089  130.6025  151.0015 LP  0  0  0  0  0  0  0  0  0  0  0  0  # atno 17371 bound_to 10713
  140.9648  133.7365  156.0452 LP  0  0  0  0  0  0  0  0  0  0  0  0  # atno 17394 bound_to 11000
  140.7944  134.3580  157.5456 LP  0  0  0  0  0  0  0  0  0  0  0  0  # atno 17395 bound_to 11000

$$$$
