AV-unprocessed.smi:2622|AV-procd|sdf|10227|dock1
  -GOLD-   2272014233D 1   1.00000     0.00000
 Structure written by MMmdl.
 26 27  0  0  0  0  0  0  0  0  2 V2000
  151.7459  139.1797  159.1476 O   0  0  0  0  0  0  0  0  0  0  0  0
  152.6837  139.9785  158.9269 C   0  0  0  0  0  0  0  0  0  0  0  0
  153.8726  139.5899  158.9196 O   0  5  0  0  0  0  0  0  0  0  0  0
  152.3430  141.4329  158.6681 C   0  0  0  0  0  0  0  0  0  0  0  0
  152.8284  142.4150  159.5664 C   0  0  0  0  0  0  0  0  0  0  0  0
  152.5309  143.7731  159.3561 C   0  0  0  0  0  0  0  0  0  0  0  0
  151.7490  144.1162  158.2424 C   0  0  0  0  0  0  0  0  0  0  0  0
  151.2738  143.2063  157.3710 N   0  0  0  0  0  0  0  0  0  0  0  0
  151.5557  141.8932  157.5659 C   0  0  0  0  0  0  0  0  0  0  0  0
  151.0157  141.0174  156.6087 N   0  0  0  0  0  0  0  0  0  0  0  0
  150.1493  141.6588  155.6291 C   0  0  0  0  0  0  0  0  0  0  0  0
  149.4665  140.5892  154.7596 C   0  0  0  0  0  0  0  0  0  0  0  0
  150.4556  139.7577  154.1577 O   0  0  0  0  0  0  0  0  0  0  0  0
  151.2468  139.0783  155.1298 C   0  0  0  0  0  0  0  0  0  0  0  0
  151.9804  140.1061  156.0082 C   0  0  0  0  0  0  0  0  0  0  0  0
  153.4298  142.1437  160.4218 H   0  0  0  0  0  0  0  0  0  0  0  0
  152.8942  144.5316  160.0333 H   0  0  0  0  0  0  0  0  0  0  0  0
  151.4976  145.1477  158.0450 H   0  0  0  0  0  0  0  0  0  0  0  0
  149.3989  142.2640  156.1392 H   0  0  0  0  0  0  0  0  0  0  0  0
  150.7367  142.3293  155.0004 H   0  0  0  0  0  0  0  0  0  0  0  0
  148.7814  139.9842  155.3561 H   0  0  0  0  0  0  0  0  0  0  0  0
  148.8746  141.0628  153.9764 H   0  0  0  0  0  0  0  0  0  0  0  0
  150.6156  138.4282  155.7381 H   0  0  0  0  0  0  0  0  0  0  0  0
  151.9659  138.4379  154.6193 H   0  0  0  0  0  0  0  0  0  0  0  0
  152.6938  140.6683  155.4044 H   0  0  0  0  0  0  0  0  0  0  0  0
  152.5448  139.5973  156.7907 H   0  0  0  0  0  0  0  0  0  0  0  0
  1  2  2  0  0  0  0
  2  3  1  0  0  0  0
  2  4  1  0  0  0  0
  4  9  1  0  0  0  0
  4  5  2  0  0  0  0
  5  6  1  0  0  0  0
  5 16  1  0  0  0  0
  6  7  2  0  0  0  0
  6 17  1  0  0  0  0
  7  8  1  0  0  0  0
  7 18  1  0  0  0  0
  8  9  2  0  0  0  0
  9 10  1  0  0  0  0
 10 15  1  0  0  0  0
 10 11  1  0  0  0  0
 11 12  1  0  0  0  0
 11 19  1  0  0  0  0
 11 20  1  0  0  0  0
 12 13  1  0  0  0  0
 12 21  1  0  0  0  0
 12 22  1  0  0  0  0
 13 14  1  0  0  0  0
 14 15  1  0  0  0  0
 14 23  1  0  0  0  0
 14 24  1  0  0  0  0
 15 25  1  0  0  0  0
 15 26  1  0  0  0  0
M  CHG  1   3  -1
M  END
> <s_m_source_file>
AV-unprocessed.smi

> <i_m_source_file_index>
2622

> <i_lp_mmshare_version>
43012

> <i_f3d_flags>
0

> <s_epik_input>
Tz1DKFtPSF0pYzFbY0hdW2NIXVtjSF1uYzFOMltDSDJdW0NIMl1PW0NIMl1bQ0gyXTI=

> <s_epik_cmdline>
J2VwaWtfcHl0aG9uJywgJy1waCcsICc3LjAnLCAnLXRuJywgJzgnLCAnLW1hJywgJzIwMCcsICctbWV0YWxfYmluZGluZycsICctaW1hZScsICc8aW5maWxlLm1hZT4nLCAnLW9tYWUnLCAnPG91dGZpbGUubWFlPic=

> <r_epik_Ionization_Penalty>
0.0087984

> <r_epik_Ionization_Penalty_Charging>
0.000175699

> <r_epik_Ionization_Penalty_Neutral>
0.0086227

> <r_epik_State_Penalty>
0.00645777

> <r_epik_Charging_Adjusted_Penalty>
0.00663347

> <i_epik_Tot_Q>
-1

> <i_epik_Tot_abs_Q>
1

> <r_epik_Metal_State_Penalty>
6.49305e-06

> <b_epik_Metal_Only>
0

> <s_lp_Force_Field>
OPLS_2005

> <r_lp_Energy>
24.8518

> <b_lp_Chiralities_Consistent>
1

> <s_lp_Variant>
AV-unprocessed.smi:2622-1

> <Gold.Version>
5.8.1

> <Gold.Id.Protein>
6NUR|6NUR_protein|mol2

> <Gold.PLP.Fitness>
38.7352

> <Gold.PLP.PLP>
-32.0858

> <Gold.PLP.part.hbond>
-2.0000

> <Gold.PLP.part.metal>
0.0000

> <Gold.PLP.part.buried>
-4.6803

> <Gold.PLP.part.nonpolar>
-26.0932

> <Gold.PLP.part.repulsive>
0.7397

> <Gold.PLP.ligand.clash>
0.0000

> <Gold.PLP.ligand.torsion>
1.2586

> <Gold.PLP.Chemscore.Hbond>
3.0000

> <Gold.PLP.Chemscore.CHOScore>
0.0000

> <Gold.PLP.Chemscore.Metal>
0.0000

> <Gold.Chemscore.Hbonds>
donor molecule, donor type, donor heavy atom, donor atom, acceptor molecule, acceptor atom, score
      P1  H  7989  7998       L1    13  1.00
      P1  H  7997  8010       L1     3  2.00

> <Gold.PLP.Chemscore.Internal.Correction>
0.1667

> <Gold.Rescore>
     Score         DG    S(hbond)    S(metal)    S(lipo)     H(rot)  DE(clash)    DE(int)     intcor
     13.03     -15.71       1.17        0.00      75.81       1.00       0.09       2.58       ----

> <Gold.Chemscore.Fitness>
13.0332

> <Gold.Chemscore.DG>
-15.7060

> <Gold.Chemscore.ZeroCoef>
-5.4800

> <Gold.Chemscore.Hbond>
1.1727

> <Gold.Chemscore.Metal>
0.0000

> <Gold.Chemscore.Lipo>
75.8055

> <Gold.Chemscore.Internal_Hbond>
0.0000

> <Gold.Chemscore.DEClash>
0.0895

> <Gold.Chemscore.DEInternal>
2.5833

> <Gold.Chemscore.Rot>
1.0000

> <Gold.Chemscore.Internal.Correction>
   9.000000E+99

> <Gold.Chemscore.Hbonds>
donor molecule, donor type, donor heavy atom, donor atom, acceptor molecule, acceptor atom, score
      P1  H  7989  7998       L1    13  0.15
      P1  H  7997  8010       L1     3  0.66

> <Gold.Chemscore.Hbond.Weighted>
-3.9168

> <Gold.Chemscore.Metal.Weighted>
-0.0000

> <Gold.Chemscore.Lipo.Weighted>
-8.8692

> <Gold.Chemscore.Internal_Hbond.Weighted>
0.0000

> <Gold.Chemscore.DEClash.Weighted>
0.0895

> <Gold.Chemscore.DEInternal.Weighted>
2.5833

> <Gold.Chemscore.Rot.Weighted>
2.5600

> <Gold.Chemscore.Internal.Correction.Weighted>
   9.000000E+99

> <Gold.Protein.RotatedTorsions>
[ 6907 6896 6895 6894 ] final   80.07 input  -60.11 | X-H torsion
[ 7974 7965 7964 7962 ] final   35.46 input  175.53 | X-H torsion
[ 8008 7997 7996 7995 ] final   26.51 input   59.86 | X-H torsion
[ 10167 10162 10161 10158 ] final -124.09 input  -65.29 | X-H torsion
[ 10718 10713 10712 10709 ] final    1.06 input   66.30 | X-H torsion
[ 10763 10752 10751 10750 ] final   41.39 input  -60.55 | X-H torsion
[ 11005 11000 10999 10996 ] final  164.51 input  -57.11 | X-H torsion

> <Gold.Protein.ActiveResidues>
 VAL166  LYS551  ARG553  GLY616  TRP617  ASP618  TYR619  PRO620  LYS621  CYS622 
 ASP623  PHE694  ASN695  SER759  ASP760  ASP761  ALA762  ILE779  LEU786  VAL792 
 PHE793  MET794  SER795  GLU796  ALA797  LYS798  CYS799  TRP800  GLU811  SER814 

> <Gold.Protein.RotatedAtoms>
  152.5222  134.3413  159.9218 H   0  0  0  0  0  0  0  0  0  0  0  0  # atno 6907 bound_to 6896
  151.3363  133.3974  159.2675 H   0  0  0  0  0  0  0  0  0  0  0  0  # atno 6908 bound_to 6896
  150.9839  134.9207  159.7918 H   0  0  0  0  0  0  0  0  0  0  0  0  # atno 6909 bound_to 6896
  146.1282  139.6140  142.9244 H   0  0  0  0  0  0  0  0  0  0  0  0  # atno 7974 bound_to 7965
  155.0283  140.3155  155.4767 H   0  0  0  0  0  0  0  0  0  0  0  0  # atno 8008 bound_to 7997
  156.2879  140.2185  156.5346 H   0  0  0  0  0  0  0  0  0  0  0  0  # atno 8009 bound_to 7997
  154.7392  140.0475  157.0783 H   0  0  0  0  0  0  0  0  0  0  0  0  # atno 8010 bound_to 7997
  139.9965  143.5586  152.2321 H   0  0  0  0  0  0  0  0  0  0  0  0  # atno 10167 bound_to 10162
  156.8426  130.5526  149.5676 H   0  0  0  0  0  0  0  0  0  0  0  0  # atno 10718 bound_to 10713
  152.9909  135.6163  154.2780 H   0  0  0  0  0  0  0  0  0  0  0  0  # atno 10763 bound_to 10752
  154.2511  135.2785  155.2818 H   0  0  0  0  0  0  0  0  0  0  0  0  # atno 10764 bound_to 10752
  154.5287  135.5794  153.6798 H   0  0  0  0  0  0  0  0  0  0  0  0  # atno 10765 bound_to 10752
  140.2467  134.8009  157.3463 H   0  0  0  0  0  0  0  0  0  0  0  0  # atno 11005 bound_to 11000
  145.5320  141.0426  143.2378 LP  0  0  0  0  0  0  0  0  0  0  0  0  # atno 17320 bound_to 7965
  144.7663  139.6837  143.7213 LP  0  0  0  0  0  0  0  0  0  0  0  0  # atno 17321 bound_to 7965
  139.6302  144.7643  151.2551 LP  0  0  0  0  0  0  0  0  0  0  0  0  # atno 17342 bound_to 10162
  140.7435  143.6492  150.8264 LP  0  0  0  0  0  0  0  0  0  0  0  0  # atno 17343 bound_to 10162
  156.0872  130.5867  150.9669 LP  0  0  0  0  0  0  0  0  0  0  0  0  # atno 17370 bound_to 10713
  157.6347  131.0917  150.8371 LP  0  0  0  0  0  0  0  0  0  0  0  0  # atno 17371 bound_to 10713
  140.1599  134.4742  155.7902 LP  0  0  0  0  0  0  0  0  0  0  0  0  # atno 17394 bound_to 11000
  141.2205  133.6897  156.7525 LP  0  0  0  0  0  0  0  0  0  0  0  0  # atno 17395 bound_to 11000

$$$$
