AV-unprocessed.smi:694|AV-procd|sdf|3379|dock2
  -GOLD-   22720 0363D 1   1.00000     0.00000
 Structure written by MMmdl.
 43 44  0  0  0  0  0  0  0  0  2 V2000
  151.5945  145.6411  160.1399 C   0  0  0  0  0  0  0  0  0  0  0  0
  152.2319  144.6168  159.3199 N   0  0  0  0  0  0  0  0  0  0  0  0
  152.3568  144.7990  157.8797 C   0  0  0  0  0  0  0  0  0  0  0  0
  152.7398  143.4479  159.9271 C   0  0  0  0  0  0  0  0  0  0  0  0
  153.1504  142.3074  159.1944 C   0  0  0  0  0  0  0  0  0  0  0  0
  153.6480  141.1774  159.8757 C   0  0  0  0  0  0  0  0  0  0  0  0
  153.7421  141.1892  161.2828 C   0  0  0  0  0  0  0  0  0  0  0  0
  154.2400  140.0213  161.9229 N   0  0  0  0  0  0  0  0  0  0  0  0
  154.4928  138.8135  161.3893 C   0  0  0  0  0  0  0  0  0  0  0  0
  154.3062  138.5029  160.2132 O   0  0  0  0  0  0  0  0  0  0  0  0
  154.9614  137.9634  162.3142 N   0  0  0  0  0  0  0  0  0  0  0  0
  155.3107  136.5651  162.0789 C   0  0  0  0  0  0  0  0  0  0  0  0
  154.4420  135.6078  162.9188 C   0  0  1  0  0  0  0  0  0  0  0  0
  154.6636  134.1171  162.6211 C   0  0  0  0  0  0  0  0  0  0  0  0
  154.2697  133.3607  163.8988 C   0  0  0  0  0  0  0  0  0  0  0  0
  154.0799  134.4224  164.9900 C   0  0  0  0  0  0  0  0  0  0  0  0
  154.7040  135.7006  164.4252 C   0  0  2  0  0  0  0  0  0  0  0  0
  154.1261  136.8547  164.9991 O   0  0  0  0  0  0  0  0  0  0  0  0
  153.3095  142.3482  161.9704 C   0  0  0  0  0  0  0  0  0  0  0  0
  152.8386  143.4077  161.2783 N   0  3  0  0  0  0  0  0  0  0  0  0
  150.7153  145.2363  160.6425 H   0  0  0  0  0  0  0  0  0  0  0  0
  151.2723  146.4902  159.5366 H   0  0  0  0  0  0  0  0  0  0  0  0
  152.2864  146.0135  160.8958 H   0  0  0  0  0  0  0  0  0  0  0  0
  153.4061  144.8024  157.5832 H   0  0  0  0  0  0  0  0  0  0  0  0
  151.9176  145.7441  157.5598 H   0  0  0  0  0  0  0  0  0  0  0  0
  151.8454  143.9973  157.3463 H   0  0  0  0  0  0  0  0  0  0  0  0
  153.0920  142.2787  158.1166 H   0  0  0  0  0  0  0  0  0  0  0  0
  153.9598  140.3084  159.3149 H   0  0  0  0  0  0  0  0  0  0  0  0
  154.3818  140.1011  162.9193 H   0  0  0  0  0  0  0  0  0  0  0  0
  155.0790  138.3039  163.2573 H   0  0  0  0  0  0  0  0  0  0  0  0
  155.2416  136.3157  161.0187 H   0  0  0  0  0  0  0  0  0  0  0  0
  156.3591  136.4378  162.3503 H   0  0  0  0  0  0  0  0  0  0  0  0
  153.3887  135.8328  162.7388 H   0  0  0  0  0  0  0  0  0  0  0  0
  154.0948  133.7836  161.7527 H   0  0  0  0  0  0  0  0  0  0  0  0
  155.7175  133.9315  162.4101 H   0  0  0  0  0  0  0  0  0  0  0  0
  153.3509  132.7913  163.7550 H   0  0  0  0  0  0  0  0  0  0  0  0
  155.0518  132.6524  164.1742 H   0  0  0  0  0  0  0  0  0  0  0  0
  153.0117  134.5706  165.1580 H   0  0  0  0  0  0  0  0  0  0  0  0
  154.5233  134.1286  165.9420 H   0  0  0  0  0  0  0  0  0  0  0  0
  155.7781  135.6994  164.6180 H   0  0  0  0  0  0  0  0  0  0  0  0
  154.3211  136.8596  165.9239 H   0  0  0  0  0  0  0  0  0  0  0  0
  153.3081  142.4751  163.0424 H   0  0  0  0  0  0  0  0  0  0  0  0
  152.5373  144.2268  161.8067 H   0  0  0  0  0  0  0  0  0  0  0  0
  1  2  1  0  0  0  0
  1 21  1  0  0  0  0
  1 22  1  0  0  0  0
  1 23  1  0  0  0  0
  2  3  1  0  0  0  0
  2  4  1  0  0  0  0
  3 24  1  0  0  0  0
  3 25  1  0  0  0  0
  3 26  1  0  0  0  0
  4 20  1  0  0  0  0
  4  5  2  0  0  0  0
  5  6  1  0  0  0  0
  5 27  1  0  0  0  0
  6  7  2  0  0  0  0
  6 28  1  0  0  0  0
  7  8  1  0  0  0  0
  7 19  1  0  0  0  0
  8  9  1  0  0  0  0
  8 29  1  0  0  0  0
  9 10  2  0  0  0  0
  9 11  1  0  0  0  0
 11 12  1  0  0  0  0
 11 30  1  0  0  0  0
 12 13  1  0  0  0  0
 12 31  1  0  0  0  0
 12 32  1  0  0  0  0
 13 17  1  0  0  0  0
 13 14  1  0  0  0  0
 13 33  1  0  0  0  0
 14 15  1  0  0  0  0
 14 34  1  0  0  0  0
 14 35  1  0  0  0  0
 15 16  1  0  0  0  0
 15 36  1  0  0  0  0
 15 37  1  0  0  0  0
 16 17  1  0  0  0  0
 16 38  1  0  0  0  0
 16 39  1  0  0  0  0
 17 18  1  0  0  0  0
 17 40  1  0  0  0  0
 18 41  1  0  0  0  0
 19 20  2  0  0  0  0
 19 42  1  0  0  0  0
 20 43  1  0  0  0  0
M  CHG  1  20   1
M  END
> <s_m_source_file>
AV-unprocessed.smi

> <i_m_source_file_index>
694

> <i_lp_mmshare_version>
43012

> <i_f3d_flags>
0

> <s_epik_input>
W0NIM11OKFtDSDNdKWMxW2NIXVtjSF1jKFtjSF1uMSlbTkhdQyg9TylbTkhdW0NIMl1bQ0BASF0yW0NIMl1bQ0gyXVtDSDJdW0NASF0yW09IXQ==

> <s_epik_cmdline>
J2VwaWtfcHl0aG9uJywgJy1waCcsICc3LjAnLCAnLXRuJywgJzgnLCAnLW1hJywgJzIwMCcsICctbWV0YWxfYmluZGluZycsICctaW1hZScsICc8aW5maWxlLm1hZT4nLCAnLW9tYWUnLCAnPG91dGZpbGUubWFlPic=

> <r_lp_tautomer_probability>
0.999994

> <r_epik_Ionization_Penalty>
0.266135

> <r_epik_Ionization_Penalty_Charging>
0.266113

> <r_epik_Ionization_Penalty_Neutral>
2.14137e-05

> <r_epik_State_Penalty>
0.258052

> <r_epik_Charging_Adjusted_Penalty>
0.524165

> <i_epik_Tot_Q>
1

> <i_epik_Tot_abs_Q>
1

> <r_epik_Metal_State_Penalty>
0.544313

> <b_epik_Metal_Only>
0

> <s_lp_Force_Field>
OPLS_2005

> <r_lp_Energy>
30.8894

> <b_lp_Chiralities_Consistent>
1

> <s_lp_Variant>
AV-unprocessed.smi:694-4

> <Gold.Version>
5.8.1

> <Gold.Id.Protein>
6NUR|6NUR_protein|mol2

> <Gold.PLP.Fitness>
46.7713

> <Gold.PLP.PLP>
-46.9740

> <Gold.PLP.part.hbond>
-0.9917

> <Gold.PLP.part.metal>
0.0000

> <Gold.PLP.part.buried>
-5.7439

> <Gold.PLP.part.nonpolar>
-39.7204

> <Gold.PLP.part.repulsive>
0.0576

> <Gold.PLP.ligand.clash>
0.0000

> <Gold.PLP.ligand.torsion>
0.1099

> <Gold.PLP.Chemscore.Hbond>
0.0000

> <Gold.PLP.Chemscore.CHOScore>
0.0000

> <Gold.PLP.Chemscore.Metal>
0.0000

> <Gold.PLP.Chemscore.Internal.Correction>
0.0170

> <Gold.Rescore>
     Score         DG    S(hbond)    S(metal)    S(lipo)     H(rot)  DE(clash)    DE(int)     intcor
     11.29     -13.93       0.00        0.00     110.48       1.75       0.24       2.39       ----

> <Gold.Chemscore.Fitness>
11.2917

> <Gold.Chemscore.DG>
-13.9295

> <Gold.Chemscore.ZeroCoef>
-5.4800

> <Gold.Chemscore.Hbond>
0.0000

> <Gold.Chemscore.Metal>
0.0000

> <Gold.Chemscore.Lipo>
110.4755

> <Gold.Chemscore.Internal_Hbond>
0.0000

> <Gold.Chemscore.DEClash>
0.2438

> <Gold.Chemscore.DEInternal>
2.3940

> <Gold.Chemscore.Rot>
1.7485

> <Gold.Chemscore.Internal.Correction>
   9.000000E+99

> <Gold.Chemscore.Hbond.Weighted>
-0.0000

> <Gold.Chemscore.Metal.Weighted>
-0.0000

> <Gold.Chemscore.Lipo.Weighted>
-12.9256

> <Gold.Chemscore.Internal_Hbond.Weighted>
0.0000

> <Gold.Chemscore.DEClash.Weighted>
0.2438

> <Gold.Chemscore.DEInternal.Weighted>
2.3940

> <Gold.Chemscore.Rot.Weighted>
4.4762

> <Gold.Chemscore.Internal.Correction.Weighted>
   9.000000E+99

> <Gold.Protein.RotatedTorsions>
[ 6907 6896 6895 6894 ] final  -73.52 input  -60.11 | X-H torsion
[ 7974 7965 7964 7962 ] final -178.64 input  175.53 | X-H torsion
[ 8008 7997 7996 7995 ] final   11.02 input   59.86 | X-H torsion
[ 10167 10162 10161 10158 ] final   78.41 input  -65.29 | X-H torsion
[ 10718 10713 10712 10709 ] final -166.55 input   66.30 | X-H torsion
[ 10763 10752 10751 10750 ] final   37.18 input  -60.55 | X-H torsion
[ 11005 11000 10999 10996 ] final -156.06 input  -57.11 | X-H torsion

> <Gold.Protein.ActiveResidues>
 VAL166  LYS551  ARG553  GLY616  TRP617  ASP618  TYR619  PRO620  LYS621  CYS622 
 ASP623  PHE694  ASN695  SER759  ASP760  ASP761  ALA762  ILE779  LEU786  VAL792 
 PHE793  MET794  SER795  GLU796  ALA797  LYS798  CYS799  TRP800  GLU811  SER814 

> <Gold.Protein.RotatedAtoms>
  150.7127  134.5004  159.5558 H   0  0  0  0  0  0  0  0  0  0  0  0  # atno 6907 bound_to 6896
  152.2602  134.8039  160.0441 H   0  0  0  0  0  0  0  0  0  0  0  0  # atno 6908 bound_to 6896
  151.8755  133.3449  159.3786 H   0  0  0  0  0  0  0  0  0  0  0  0  # atno 6909 bound_to 6896
  144.7132  140.0838  143.6424 H   0  0  0  0  0  0  0  0  0  0  0  0  # atno 7974 bound_to 7965
  154.8013  140.2852  155.5919 H   0  0  0  0  0  0  0  0  0  0  0  0  # atno 8008 bound_to 7997
  156.2977  140.2586  156.2811 H   0  0  0  0  0  0  0  0  0  0  0  0  # atno 8009 bound_to 7997
  154.9555  140.0378  157.2154 H   0  0  0  0  0  0  0  0  0  0  0  0  # atno 8010 bound_to 7997
  139.9713  144.5893  150.7983 H   0  0  0  0  0  0  0  0  0  0  0  0  # atno 10167 bound_to 10162
  156.6695  130.9078  151.3041 H   0  0  0  0  0  0  0  0  0  0  0  0  # atno 10718 bound_to 10713
  153.0047  135.6285  154.2103 H   0  0  0  0  0  0  0  0  0  0  0  0  # atno 10763 bound_to 10752
  154.1847  135.2811  155.3043 H   0  0  0  0  0  0  0  0  0  0  0  0  # atno 10764 bound_to 10752
  154.5807  135.5648  153.7242 H   0  0  0  0  0  0  0  0  0  0  0  0  # atno 10765 bound_to 10752
  140.6797  134.4158  157.5227 H   0  0  0  0  0  0  0  0  0  0  0  0  # atno 11005 bound_to 11000
  145.9679  139.2848  143.1116 LP  0  0  0  0  0  0  0  0  0  0  0  0  # atno 17320 bound_to 7965
  145.9149  140.9155  143.0435 LP  0  0  0  0  0  0  0  0  0  0  0  0  # atno 17321 bound_to 7965
  140.7521  143.2984  151.3144 LP  0  0  0  0  0  0  0  0  0  0  0  0  # atno 17342 bound_to 10162
  139.6479  144.0416  152.2605 LP  0  0  0  0  0  0  0  0  0  0  0  0  # atno 17343 bound_to 10162
  157.7082  130.9409  150.1000 LP  0  0  0  0  0  0  0  0  0  0  0  0  # atno 17370 bound_to 10713
  156.1949  130.3657  149.8862 LP  0  0  0  0  0  0  0  0  0  0  0  0  # atno 17371 bound_to 10713
  139.8955  134.8680  156.2126 LP  0  0  0  0  0  0  0  0  0  0  0  0  # atno 17394 bound_to 11000
  141.0327  133.6980  156.1459 LP  0  0  0  0  0  0  0  0  0  0  0  0  # atno 17395 bound_to 11000

$$$$
