AV-unprocessed.smi:2382|AV-procd|sdf|9459|dock3
  -GOLD-   2272013 83D 1   1.00000     0.00000
 Structure written by MMmdl.
 38 39  0  0  0  0  0  0  0  0  2 V2000
  151.2121  138.6015  154.5488 C   0  0  0  0  0  0  0  0  0  0  0  0
  149.9165  139.2435  154.1816 C   0  0  0  0  0  0  0  0  0  0  0  0
  148.9695  138.6704  153.3913 N   0  3  0  0  0  0  0  0  0  0  0  0
  147.9225  139.4966  153.2497 N   0  0  0  0  0  0  0  0  0  0  0  0
  146.7865  139.0677  152.4336 C   0  0  0  0  0  0  0  0  0  0  0  0
  148.1342  140.6490  153.9470 C   0  0  0  0  0  0  0  0  0  0  0  0
  147.1714  141.7887  154.0198 C   0  0  0  0  0  0  0  0  0  0  0  0
  149.3974  140.4948  154.5315 C   0  0  0  0  0  0  0  0  0  0  0  0
  150.0905  141.5020  155.4011 C   0  0  0  0  0  0  0  0  0  0  0  0
  149.4016  141.6543  156.7671 C   0  0  0  0  0  0  0  0  0  0  0  0
  149.9588  142.7655  157.5281 N   0  0  0  0  0  0  0  0  0  0  0  0
  150.7185  142.6372  158.6274 C   0  0  0  0  0  0  0  0  0  0  0  0
  151.0520  141.5524  159.1038 O   0  0  0  0  0  0  0  0  0  0  0  0
  151.1331  143.8140  159.1227 N   0  0  0  0  0  0  0  0  0  0  0  0
  152.1996  144.1563  160.0581 C   0  0  0  0  0  0  0  0  0  0  0  0
  151.8689  145.6165  159.7557 C   0  0  0  0  0  0  0  0  0  0  0  0
  151.0585  145.1503  158.5475 C   0  0  0  0  0  0  0  0  0  0  0  0
  151.3973  138.7101  155.6179 H   0  0  0  0  0  0  0  0  0  0  0  0
  152.0311  139.0723  154.0046 H   0  0  0  0  0  0  0  0  0  0  0  0
  151.1971  137.5385  154.3062 H   0  0  0  0  0  0  0  0  0  0  0  0
  146.3590  139.9332  151.9264 H   0  0  0  0  0  0  0  0  0  0  0  0
  146.0348  138.6149  153.0809 H   0  0  0  0  0  0  0  0  0  0  0  0
  147.1153  138.3419  151.6882 H   0  0  0  0  0  0  0  0  0  0  0  0
  147.3651  142.4002  154.9010 H   0  0  0  0  0  0  0  0  0  0  0  0
  146.1471  141.4201  154.0803 H   0  0  0  0  0  0  0  0  0  0  0  0
  147.2660  142.4156  153.1332 H   0  0  0  0  0  0  0  0  0  0  0  0
  151.1312  141.2085  155.5438 H   0  0  0  0  0  0  0  0  0  0  0  0
  150.1269  142.4703  154.9004 H   0  0  0  0  0  0  0  0  0  0  0  0
  148.3354  141.8360  156.6300 H   0  0  0  0  0  0  0  0  0  0  0  0
  149.4875  140.7321  157.3444 H   0  0  0  0  0  0  0  0  0  0  0  0
  149.7540  143.6979  157.1991 H   0  0  0  0  0  0  0  0  0  0  0  0
  152.0104  143.8696  161.0932 H   0  0  0  0  0  0  0  0  0  0  0  0
  153.1928  143.8528  159.7232 H   0  0  0  0  0  0  0  0  0  0  0  0
  151.2512  146.0798  160.5269 H   0  0  0  0  0  0  0  0  0  0  0  0
  152.7342  146.2317  159.5069 H   0  0  0  0  0  0  0  0  0  0  0  0
  151.5875  145.2505  157.5986 H   0  0  0  0  0  0  0  0  0  0  0  0
  150.0536  145.5717  158.5020 H   0  0  0  0  0  0  0  0  0  0  0  0
  148.9848  137.7624  152.9438 H   0  0  0  0  0  0  0  0  0  0  0  0
  1  2  1  0  0  0  0
  1 18  1  0  0  0  0
  1 19  1  0  0  0  0
  1 20  1  0  0  0  0
  2  8  1  0  0  0  0
  2  3  2  0  0  0  0
  3  4  1  0  0  0  0
  3 38  1  0  0  0  0
  4  5  1  0  0  0  0
  4  6  1  0  0  0  0
  5 21  1  0  0  0  0
  5 22  1  0  0  0  0
  5 23  1  0  0  0  0
  6  7  1  0  0  0  0
  6  8  2  0  0  0  0
  7 24  1  0  0  0  0
  7 25  1  0  0  0  0
  7 26  1  0  0  0  0
  8  9  1  0  0  0  0
  9 10  1  0  0  0  0
  9 27  1  0  0  0  0
  9 28  1  0  0  0  0
 10 11  1  0  0  0  0
 10 29  1  0  0  0  0
 10 30  1  0  0  0  0
 11 12  1  0  0  0  0
 11 31  1  0  0  0  0
 12 13  2  0  0  0  0
 12 14  1  0  0  0  0
 14 17  1  0  0  0  0
 14 15  1  0  0  0  0
 15 16  1  0  0  0  0
 15 32  1  0  0  0  0
 15 33  1  0  0  0  0
 16 17  1  0  0  0  0
 16 34  1  0  0  0  0
 16 35  1  0  0  0  0
 17 36  1  0  0  0  0
 17 37  1  0  0  0  0
M  CHG  1   3   1
M  END
> <s_m_source_file>
AV-unprocessed.smi

> <i_m_source_file_index>
2382

> <i_lp_mmshare_version>
43012

> <i_f3d_flags>
0

> <s_epik_input>
W0NIM11jMW5uKFtDSDNdKWMoW0NIM10pYzFbQ0gyXVtDSDJdW05IXUMoPU8pTjJbQ0gyXVtDSDJdW0NIMl0y

> <s_epik_cmdline>
J2VwaWtfcHl0aG9uJywgJy1waCcsICc3LjAnLCAnLXRuJywgJzgnLCAnLW1hJywgJzIwMCcsICctbWV0YWxfYmluZGluZycsICctaW1hZScsICc8aW5maWxlLm1hZT4nLCAnLW9tYWUnLCAnPG91dGZpbGUubWFlPic=

> <r_lp_tautomer_probability>
1

> <r_epik_Ionization_Penalty>
2.28506

> <r_epik_Ionization_Penalty_Charging>
2.285

> <r_epik_Ionization_Penalty_Neutral>
5.95173e-05

> <r_epik_State_Penalty>
2.43458

> <r_epik_Charging_Adjusted_Penalty>
4.71958

> <i_epik_Tot_Q>
1

> <i_epik_Tot_abs_Q>
1

> <r_epik_Metal_State_Penalty>
2.44703

> <b_epik_Metal_Only>
0

> <s_lp_Force_Field>
OPLS_2005

> <r_lp_Energy>
26.6321

> <b_lp_Chiralities_Consistent>
1

> <s_lp_Variant>
AV-unprocessed.smi:2382-2

> <Gold.Version>
5.8.1

> <Gold.Id.Protein>
6NUR|6NUR_protein|mol2

> <Gold.PLP.Fitness>
50.3208

> <Gold.PLP.PLP>
-42.0162

> <Gold.PLP.part.hbond>
-3.3304

> <Gold.PLP.part.metal>
0.0000

> <Gold.PLP.part.buried>
-0.2549

> <Gold.PLP.part.nonpolar>
-37.4932

> <Gold.PLP.part.repulsive>
0.0980

> <Gold.PLP.ligand.clash>
0.0000

> <Gold.PLP.ligand.torsion>
0.2457

> <Gold.PLP.Chemscore.Hbond>
2.8723

> <Gold.PLP.Chemscore.CHOScore>
0.0000

> <Gold.PLP.Chemscore.Metal>
0.0000

> <Gold.Chemscore.Hbonds>
donor molecule, donor type, donor heavy atom, donor atom, acceptor molecule, acceptor atom, score
      L1  H     3    38       P1  7948  2.00
      L1  H    11    31       P1  8028  0.88

> <Gold.PLP.Chemscore.Internal.Correction>
0.1790

> <Gold.Rescore>
     Score         DG    S(hbond)    S(metal)    S(lipo)     H(rot)  DE(clash)    DE(int)     intcor
     18.16     -18.83       1.81        0.00      94.11       1.45       0.41       0.26       ----

> <Gold.Chemscore.Fitness>
18.1608

> <Gold.Chemscore.DG>
-18.8250

> <Gold.Chemscore.ZeroCoef>
-5.4800

> <Gold.Chemscore.Hbond>
1.8066

> <Gold.Chemscore.Metal>
0.0000

> <Gold.Chemscore.Lipo>
94.1089

> <Gold.Chemscore.Internal_Hbond>
0.0000

> <Gold.Chemscore.DEClash>
0.4076

> <Gold.Chemscore.DEInternal>
0.2566

> <Gold.Chemscore.Rot>
1.4453

> <Gold.Chemscore.Internal.Correction>
   9.000000E+99

> <Gold.Chemscore.Hbonds>
donor molecule, donor type, donor heavy atom, donor atom, acceptor molecule, acceptor atom, score
      L1  H     3    38       P1  7948  1.00
      L1  H    11    31       P1  8028  0.71

> <Gold.Chemscore.Hbond.Weighted>
-6.0342

> <Gold.Chemscore.Metal.Weighted>
-0.0000

> <Gold.Chemscore.Lipo.Weighted>
-11.0107

> <Gold.Chemscore.Internal_Hbond.Weighted>
0.0000

> <Gold.Chemscore.DEClash.Weighted>
0.4076

> <Gold.Chemscore.DEInternal.Weighted>
0.2566

> <Gold.Chemscore.Rot.Weighted>
3.6999

> <Gold.Chemscore.Internal.Correction.Weighted>
   9.000000E+99

> <Gold.Protein.RotatedTorsions>
[ 6907 6896 6895 6894 ] final  134.92 input  -60.11 | X-H torsion
[ 7974 7965 7964 7962 ] final  -67.99 input  175.53 | X-H torsion
[ 8008 7997 7996 7995 ] final   31.39 input   59.86 | X-H torsion
[ 10167 10162 10161 10158 ] final  -76.04 input  -65.29 | X-H torsion
[ 10718 10713 10712 10709 ] final   88.23 input   66.30 | X-H torsion
[ 10763 10752 10751 10750 ] final  142.60 input  -60.55 | X-H torsion
[ 11005 11000 10999 10996 ] final   60.44 input  -57.11 | X-H torsion

> <Gold.Protein.ActiveResidues>
 VAL166  LYS551  ARG553  GLY616  TRP617  ASP618  TYR619  PRO620  LYS621  CYS622 
 ASP623  PHE694  ASN695  SER759  ASP760  ASP761  ALA762  ILE779  LEU786  VAL792 
 PHE793  MET794  SER795  GLU796  ALA797  LYS798  CYS799  TRP800  GLU811  SER814 

> <Gold.Protein.RotatedAtoms>
  152.3060  133.5704  159.5649 H   0  0  0  0  0  0  0  0  0  0  0  0  # atno 6907 bound_to 6896
  150.7300  134.0222  159.3714 H   0  0  0  0  0  0  0  0  0  0  0  0  # atno 6908 bound_to 6896
  151.8118  135.0679  160.0465 H   0  0  0  0  0  0  0  0  0  0  0  0  # atno 6909 bound_to 6896
  145.7221  140.9034  143.0624 H   0  0  0  0  0  0  0  0  0  0  0  0  # atno 7974 bound_to 7965
  155.1056  140.3234  155.4535 H   0  0  0  0  0  0  0  0  0  0  0  0  # atno 8008 bound_to 7997
  156.2705  140.2053  156.6129 H   0  0  0  0  0  0  0  0  0  0  0  0  # atno 8009 bound_to 7997
  154.6795  140.0528  157.0238 H   0  0  0  0  0  0  0  0  0  0  0  0  # atno 8010 bound_to 7997
  140.4891  143.2384  151.7936 H   0  0  0  0  0  0  0  0  0  0  0  0  # atno 10167 bound_to 10162
  157.6947  131.0287  150.3243 H   0  0  0  0  0  0  0  0  0  0  0  0  # atno 10718 bound_to 10713
  153.9585  135.2962  155.3435 H   0  0  0  0  0  0  0  0  0  0  0  0  # atno 10763 bound_to 10752
  154.7387  135.5034  153.9089 H   0  0  0  0  0  0  0  0  0  0  0  0  # atno 10764 bound_to 10752
  153.0958  135.6720  153.9875 H   0  0  0  0  0  0  0  0  0  0  0  0  # atno 10765 bound_to 10752
  140.0231  134.6123  155.9611 H   0  0  0  0  0  0  0  0  0  0  0  0  # atno 11005 bound_to 11000
  144.6914  139.9217  143.7468 LP  0  0  0  0  0  0  0  0  0  0  0  0  # atno 17320 bound_to 7965
  146.0616  139.3609  143.0578 LP  0  0  0  0  0  0  0  0  0  0  0  0  # atno 17321 bound_to 7965
  139.4848  144.4673  151.9469 LP  0  0  0  0  0  0  0  0  0  0  0  0  # atno 17342 bound_to 10162
  140.3759  144.2797  150.5914 LP  0  0  0  0  0  0  0  0  0  0  0  0  # atno 17343 bound_to 10162
  156.3726  130.3866  149.7163 LP  0  0  0  0  0  0  0  0  0  0  0  0  # atno 17370 bound_to 10713
  156.4573  130.7935  151.2956 LP  0  0  0  0  0  0  0  0  0  0  0  0  # atno 17371 bound_to 10713
  141.1786  133.6543  156.4929 LP  0  0  0  0  0  0  0  0  0  0  0  0  # atno 17394 bound_to 11000
  140.4352  134.7065  157.4963 LP  0  0  0  0  0  0  0  0  0  0  0  0  # atno 17395 bound_to 11000

$$$$
