AV-unprocessed.smi:236|AV-procd|sdf|1812|dock2
  -GOLD-   2262020393D 1   1.00000     0.00000
 Structure written by MMmdl.
 58 62  0  0  0  0  0  0  0  0  1 V2000
  143.8049  134.2058  162.3317 C   0  0  0  0  0  0  0  0  0  0  0  0
  145.0278  134.9839  162.8392 C   0  0  1  0  0  0  0  0  0  0  0  0
  146.1356  134.1102  163.0404 O   0  0  0  0  0  0  0  0  0  0  0  0
  147.3557  134.7928  162.7648 C   0  0  0  0  0  0  0  0  0  0  0  0
  146.9671  136.2441  162.4967 C   0  0  0  0  0  0  0  0  0  0  0  0
  145.5562  136.1135  161.9351 C   0  0  2  0  0  0  0  0  0  0  0  0
  144.8519  137.3150  162.1855 O   0  0  0  0  0  0  0  0  0  0  0  0
  145.5088  135.7833  160.4172 C   0  0  0  0  0  0  0  0  0  0  0  0
  146.5515  136.4317  159.6377 N   0  0  0  0  0  0  0  0  0  0  0  0
  147.8941  136.1266  159.6417 C   0  0  0  0  0  0  0  0  0  0  0  0
  148.6343  136.8600  158.8562 N   0  0  0  0  0  0  0  0  0  0  0  0
  147.7309  137.7237  158.2482 C   0  0  0  0  0  0  0  0  0  0  0  0
  147.8435  138.7748  157.2943 C   0  0  0  0  0  0  0  0  0  0  0  0
  148.9992  139.1966  156.7397 N   0  0  0  0  0  0  0  0  0  0  0  0
  149.1669  138.7497  155.3639 C   0  0  0  0  0  0  0  0  0  0  0  0
  150.5713  139.1214  154.8621 C   0  0  0  0  0  0  0  0  0  0  0  0
  150.7767  140.5216  155.0235 O   0  0  0  0  0  0  0  0  0  0  0  0
  150.7039  140.9303  156.3886 C   0  0  1  0  0  0  0  0  0  0  0  0
  151.0128  142.4312  156.4542 C   0  0  0  0  0  0  0  0  0  0  0  0
  151.3274  142.7802  157.7920 O   0  0  0  0  0  0  0  0  0  0  0  0
  151.6373  144.1549  157.9395 C   0  0  0  0  0  0  0  0  0  0  0  0
  152.1507  144.3988  159.3424 C   0  0  0  0  0  0  0  0  0  0  0  0
  151.2049  144.4334  160.5219 C   0  0  0  0  0  0  0  0  0  0  0  0
  151.8543  145.7060  160.0421 C   0  0  0  0  0  0  0  0  0  0  0  0
  149.2905  140.6142  156.9154 C   0  0  0  0  0  0  0  0  0  0  0  0
  146.7127  139.4261  156.9281 N   0  0  0  0  0  0  0  0  0  0  0  0
  145.5367  139.0695  157.4534 C   0  0  0  0  0  0  0  0  0  0  0  0
  145.2766  138.1136  158.3483 N   0  0  0  0  0  0  0  0  0  0  0  0
  146.4152  137.4635  158.7253 C   0  0  0  0  0  0  0  0  0  0  0  0
  142.9640  134.8748  162.1471 H   0  0  0  0  0  0  0  0  0  0  0  0
  143.4859  133.4691  163.0690 H   0  0  0  0  0  0  0  0  0  0  0  0
  144.0211  133.6689  161.4082 H   0  0  0  0  0  0  0  0  0  0  0  0
  144.7892  135.4008  163.8197 H   0  0  0  0  0  0  0  0  0  0  0  0
  148.0588  134.7000  163.5927 H   0  0  0  0  0  0  0  0  0  0  0  0
  147.8135  134.3475  161.8809 H   0  0  0  0  0  0  0  0  0  0  0  0
  146.9460  136.7822  163.4462 H   0  0  0  0  0  0  0  0  0  0  0  0
  147.6723  136.7652  161.8509 H   0  0  0  0  0  0  0  0  0  0  0  0
  144.7494  137.4136  163.1201 H   0  0  0  0  0  0  0  0  0  0  0  0
  145.5934  134.7076  160.2607 H   0  0  0  0  0  0  0  0  0  0  0  0
  144.5473  136.0758  159.9938 H   0  0  0  0  0  0  0  0  0  0  0  0
  148.3117  135.3446  160.2593 H   0  0  0  0  0  0  0  0  0  0  0  0
  149.0212  137.6707  155.3001 H   0  0  0  0  0  0  0  0  0  0  0  0
  148.4104  139.2169  154.7318 H   0  0  0  0  0  0  0  0  0  0  0  0
  151.3383  138.5651  155.4035 H   0  0  0  0  0  0  0  0  0  0  0  0
  150.6743  138.8646  153.8080 H   0  0  0  0  0  0  0  0  0  0  0  0
  151.4433  140.3856  156.9789 H   0  0  0  0  0  0  0  0  0  0  0  0
  151.8355  142.6797  155.7818 H   0  0  0  0  0  0  0  0  0  0  0  0
  150.1413  143.0042  156.1335 H   0  0  0  0  0  0  0  0  0  0  0  0
  152.4103  144.4459  157.2271 H   0  0  0  0  0  0  0  0  0  0  0  0
  150.7573  144.7724  157.7523 H   0  0  0  0  0  0  0  0  0  0  0  0
  153.1402  143.9840  159.5264 H   0  0  0  0  0  0  0  0  0  0  0  0
  150.1423  144.3064  160.3248 H   0  0  0  0  0  0  0  0  0  0  0  0
  151.5578  144.0109  161.4604 H   0  0  0  0  0  0  0  0  0  0  0  0
  152.6412  146.1338  160.6596 H   0  0  0  0  0  0  0  0  0  0  0  0
  151.2232  146.4266  159.5256 H   0  0  0  0  0  0  0  0  0  0  0  0
  148.5589  141.2174  156.3774 H   0  0  0  0  0  0  0  0  0  0  0  0
  149.2137  140.8771  157.9713 H   0  0  0  0  0  0  0  0  0  0  0  0
  144.6821  139.6331  157.1094 H   0  0  0  0  0  0  0  0  0  0  0  0
  1  2  1  0  0  0  0
  1 30  1  0  0  0  0
  1 31  1  0  0  0  0
  1 32  1  0  0  0  0
  2  6  1  0  0  0  0
  2  3  1  0  0  0  0
  2 33  1  0  0  0  0
  3  4  1  0  0  0  0
  4  5  1  0  0  0  0
  4 34  1  0  0  0  0
  4 35  1  0  0  0  0
  5  6  1  0  0  0  0
  5 36  1  0  0  0  0
  5 37  1  0  0  0  0
  6  7  1  0  0  0  0
  6  8  1  0  0  0  0
  7 38  1  0  0  0  0
  8  9  1  0  0  0  0
  8 39  1  0  0  0  0
  8 40  1  0  0  0  0
  9 29  1  0  0  0  0
  9 10  1  0  0  0  0
 10 11  2  0  0  0  0
 10 41  1  0  0  0  0
 11 12  1  0  0  0  0
 12 29  2  0  0  0  0
 12 13  1  0  0  0  0
 13 14  1  0  0  0  0
 13 26  2  0  0  0  0
 14 25  1  0  0  0  0
 14 15  1  0  0  0  0
 15 16  1  0  0  0  0
 15 42  1  0  0  0  0
 15 43  1  0  0  0  0
 16 17  1  0  0  0  0
 16 44  1  0  0  0  0
 16 45  1  0  0  0  0
 17 18  1  0  0  0  0
 18 19  1  0  0  0  0
 18 25  1  0  0  0  0
 18 46  1  0  0  0  0
 19 20  1  0  0  0  0
 19 47  1  0  0  0  0
 19 48  1  0  0  0  0
 20 21  1  0  0  0  0
 21 22  1  0  0  0  0
 21 49  1  0  0  0  0
 21 50  1  0  0  0  0
 22 24  1  0  0  0  0
 22 23  1  0  0  0  0
 22 51  1  0  0  0  0
 23 24  1  0  0  0  0
 23 52  1  0  0  0  0
 23 53  1  0  0  0  0
 24 54  1  0  0  0  0
 24 55  1  0  0  0  0
 25 56  1  0  0  0  0
 25 57  1  0  0  0  0
 26 27  1  0  0  0  0
 27 28  2  0  0  0  0
 27 58  1  0  0  0  0
 28 29  1  0  0  0  0
M  END
> <s_m_source_file>
AV-unprocessed.smi

> <i_m_source_file_index>
236

> <i_lp_mmshare_version>
43012

> <i_f3d_flags>
0

> <s_epik_input>
W0NIMl0xW0NIMl1PW0NAQEhdKFtDSDNdKVtDQEBdMShbT0hdKVtDSDJdbihbY0hdbjIpYyhjMjMpbltjSF1uYzNONFtDSDJdW0NIMl1PW0NASF0oW0NIMl00KVtDSDJdT1tDSDJdW0NIXTVbQ0gyXVtDSDJdNQ==

> <s_epik_cmdline>
J2VwaWtfcHl0aG9uJywgJy1waCcsICc3LjAnLCAnLXRuJywgJzgnLCAnLW1hJywgJzIwMCcsICctbWV0YWxfYmluZGluZycsICctaW1hZScsICc8aW5maWxlLm1hZT4nLCAnLW9tYWUnLCAnPG91dGZpbGUubWFlPic=

> <r_lp_tautomer_probability>
1

> <r_epik_Ionization_Penalty>
7.21838e-05

> <r_epik_Ionization_Penalty_Charging>
0

> <r_epik_Ionization_Penalty_Neutral>
7.21838e-05

> <r_epik_State_Penalty>
-0

> <r_epik_Charging_Adjusted_Penalty>
0

> <i_epik_Tot_Q>
0

> <i_epik_Tot_abs_Q>
0

> <r_epik_Metal_State_Penalty>
-0

> <b_epik_Metal_Only>
0

> <s_lp_Force_Field>
OPLS_2005

> <r_lp_Energy>
49.6686

> <b_lp_Chiralities_Consistent>
1

> <s_lp_Variant>
AV-unprocessed.smi:236-4

> <Gold.Version>
5.8.1

> <Gold.Id.Protein>
6NUR|6NUR_protein|mol2

> <Gold.PLP.Fitness>
48.5388

> <Gold.PLP.PLP>
-47.2069

> <Gold.PLP.part.hbond>
-2.0000

> <Gold.PLP.part.metal>
0.0000

> <Gold.PLP.part.buried>
-8.7608

> <Gold.PLP.part.nonpolar>
-36.9580

> <Gold.PLP.part.repulsive>
0.1636

> <Gold.PLP.ligand.clash>
0.0000

> <Gold.PLP.ligand.torsion>
1.2405

> <Gold.PLP.Chemscore.Hbond>
1.0000

> <Gold.PLP.Chemscore.CHOScore>
0.0000

> <Gold.PLP.Chemscore.Metal>
0.0000

> <Gold.Chemscore.Hbonds>
donor molecule, donor type, donor heavy atom, donor atom, acceptor molecule, acceptor atom, score
      P1  H  7989  7998       L1    17  1.00

> <Gold.PLP.Chemscore.Internal.Correction>
0.8129

> <Gold.Rescore>
     Score         DG    S(hbond)    S(metal)    S(lipo)     H(rot)  DE(clash)    DE(int)     intcor
     12.60     -14.95       0.88        0.00     118.64       2.87       0.10       2.25       ----

> <Gold.Chemscore.Fitness>
12.6046

> <Gold.Chemscore.DG>
-14.9519

> <Gold.Chemscore.ZeroCoef>
-5.4800

> <Gold.Chemscore.Hbond>
0.8763

> <Gold.Chemscore.Metal>
0.0000

> <Gold.Chemscore.Lipo>
118.6399

> <Gold.Chemscore.Internal_Hbond>
0.0000

> <Gold.Chemscore.DEClash>
0.0982

> <Gold.Chemscore.DEInternal>
2.2491

> <Gold.Chemscore.Rot>
2.8655

> <Gold.Chemscore.Internal.Correction>
   9.000000E+99

> <Gold.Chemscore.Hbonds>
donor molecule, donor type, donor heavy atom, donor atom, acceptor molecule, acceptor atom, score
      P1  H  7989  7998       L1    17  0.24

> <Gold.Chemscore.Hbond.Weighted>
-2.9268

> <Gold.Chemscore.Metal.Weighted>
-0.0000

> <Gold.Chemscore.Lipo.Weighted>
-13.8809

> <Gold.Chemscore.Internal_Hbond.Weighted>
0.0000

> <Gold.Chemscore.DEClash.Weighted>
0.0982

> <Gold.Chemscore.DEInternal.Weighted>
2.2491

> <Gold.Chemscore.Rot.Weighted>
7.3358

> <Gold.Chemscore.Internal.Correction.Weighted>
   9.000000E+99

> <Gold.Protein.RotatedTorsions>
[ 6907 6896 6895 6894 ] final  145.18 input  -60.11 | X-H torsion
[ 7974 7965 7964 7962 ] final  -81.22 input  175.53 | X-H torsion
[ 8008 7997 7996 7995 ] final  -48.60 input   59.86 | X-H torsion
[ 10167 10162 10161 10158 ] final  -71.40 input  -65.29 | X-H torsion
[ 10718 10713 10712 10709 ] final   45.35 input   66.30 | X-H torsion
[ 10763 10752 10751 10750 ] final  174.12 input  -60.55 | X-H torsion
[ 11005 11000 10999 10996 ] final -146.38 input  -57.11 | X-H torsion

> <Gold.Protein.ActiveResidues>
 VAL166  LYS551  ARG553  GLY616  TRP617  ASP618  TYR619  PRO620  LYS621  CYS622 
 ASP623  PHE694  ASN695  SER759  ASP760  ASP761  ALA762  ILE779  LEU786  VAL792 
 PHE793  MET794  SER795  GLU796  ALA797  LYS798  CYS799  TRP800  GLU811  SER814 

> <Gold.Protein.RotatedAtoms>
  152.1841  133.4727  159.4973 H   0  0  0  0  0  0  0  0  0  0  0  0  # atno 6907 bound_to 6896
  150.6939  134.1796  159.4252 H   0  0  0  0  0  0  0  0  0  0  0  0  # atno 6908 bound_to 6896
  151.9708  135.0077  160.0603 H   0  0  0  0  0  0  0  0  0  0  0  0  # atno 6909 bound_to 6896
  145.5495  140.9498  143.1507 H   0  0  0  0  0  0  0  0  0  0  0  0  # atno 7974 bound_to 7965
  154.4031  140.1317  156.4366 H   0  0  0  0  0  0  0  0  0  0  0  0  # atno 8008 bound_to 7997
  155.7499  140.3488  155.5125 H   0  0  0  0  0  0  0  0  0  0  0  0  # atno 8009 bound_to 7997
  155.8959  140.1011  157.1375 H   0  0  0  0  0  0  0  0  0  0  0  0  # atno 8010 bound_to 7997
  140.5276  143.2325  151.7319 H   0  0  0  0  0  0  0  0  0  0  0  0  # atno 10167 bound_to 10162
  157.4366  130.8056  149.7654 H   0  0  0  0  0  0  0  0  0  0  0  0  # atno 10718 bound_to 10713
  154.4495  135.2764  155.1791 H   0  0  0  0  0  0  0  0  0  0  0  0  # atno 10763 bound_to 10752
  154.3624  135.6126  153.5701 H   0  0  0  0  0  0  0  0  0  0  0  0  # atno 10764 bound_to 10752
  152.9846  135.5837  154.4837 H   0  0  0  0  0  0  0  0  0  0  0  0  # atno 10765 bound_to 10752
  140.7825  134.3062  157.5040 H   0  0  0  0  0  0  0  0  0  0  0  0  # atno 11005 bound_to 11000
  144.7536  139.7130  143.7263 LP  0  0  0  0  0  0  0  0  0  0  0  0  # atno 17320 bound_to 7965
  146.1926  139.5175  142.9795 LP  0  0  0  0  0  0  0  0  0  0  0  0  # atno 17321 bound_to 7965
  139.4943  144.4162  152.0027 LP  0  0  0  0  0  0  0  0  0  0  0  0  # atno 17342 bound_to 10162
  140.3262  144.3370  150.5998 LP  0  0  0  0  0  0  0  0  0  0  0  0  # atno 17343 bound_to 10162
  155.9933  130.3925  150.2907 LP  0  0  0  0  0  0  0  0  0  0  0  0  # atno 17370 bound_to 10713
  157.1068  131.0210  151.3064 LP  0  0  0  0  0  0  0  0  0  0  0  0  # atno 17371 bound_to 10713
  139.8741  134.9327  156.3561 LP  0  0  0  0  0  0  0  0  0  0  0  0  # atno 17394 bound_to 11000
  140.9468  133.7477  156.0219 LP  0  0  0  0  0  0  0  0  0  0  0  0  # atno 17395 bound_to 11000

$$$$
