AV-unprocessed.smi:160|AV-procd|sdf|1362|dock4
  -GOLD-   2262019 73D 1   1.00000     0.00000
 Structure written by MMmdl.
 28 29  0  0  0  0  0  0  0  0  2 V2000
  150.2071  132.6016  158.1280 N   0  5  0  0  0  0  0  0  0  0  0  0
  149.4828  133.3343  157.2541 C   0  0  0  0  0  0  0  0  0  0  0  0
  148.4015  133.0169  156.7597 O   0  0  0  0  0  0  0  0  0  0  0  0
  150.1041  134.6591  156.8799 C   0  0  0  0  0  0  0  0  0  0  0  0
  151.3135  135.0330  157.3988 N   0  0  0  0  0  0  0  0  0  0  0  0
  151.4403  136.2151  156.8115 C   0  0  0  0  0  0  0  0  0  0  0  0
  150.4165  136.5460  156.0197 N   0  0  0  0  0  0  0  0  0  0  0  0
  150.1999  137.7748  155.1936 C   0  0  1  0  0  0  0  0  0  0  0  0
  150.1595  138.8662  156.0631 O   0  0  0  0  0  0  0  0  0  0  0  0
  151.0036  139.9126  155.5885 C   0  0  1  0  0  0  0  0  0  0  0  0
  151.4859  140.8004  156.7494 C   0  0  0  0  0  0  0  0  0  0  0  0
  150.3859  141.4318  157.3695 O   0  0  0  0  0  0  0  0  0  0  0  0
  152.1065  139.1807  154.8105 C   0  0  1  0  0  0  0  0  0  0  0  0
  153.1372  138.7397  155.6775 O   0  0  0  0  0  0  0  0  0  0  0  0
  151.3333  138.0296  154.1789 C   0  0  1  0  0  0  0  0  0  0  0  0
  152.1448  136.9124  153.8549 O   0  0  0  0  0  0  0  0  0  0  0  0
  149.5248  135.5255  156.0429 N   0  0  0  0  0  0  0  0  0  0  0  0
  149.2306  137.6163  154.7195 H   0  0  0  0  0  0  0  0  0  0  0  0
  150.4323  140.5084  154.8739 H   0  0  0  0  0  0  0  0  0  0  0  0
  152.5581  139.8205  154.0519 H   0  0  0  0  0  0  0  0  0  0  0  0
  150.8616  138.3873  153.2626 H   0  0  0  0  0  0  0  0  0  0  0  0
  150.4865  131.6519  157.8547 H   0  0  0  0  0  0  0  0  0  0  0  0
  152.2959  136.8558  156.9656 H   0  0  0  0  0  0  0  0  0  0  0  0
  152.0529  140.2229  157.4805 H   0  0  0  0  0  0  0  0  0  0  0  0
  152.1422  141.5865  156.3749 H   0  0  0  0  0  0  0  0  0  0  0  0
  149.8075  141.7533  156.6951 H   0  0  0  0  0  0  0  0  0  0  0  0
  152.7570  138.5550  156.5231 H   0  0  0  0  0  0  0  0  0  0  0  0
  152.0540  136.7308  152.9322 H   0  0  0  0  0  0  0  0  0  0  0  0
  1  2  1  0  0  0  0
  1 22  1  0  0  0  0
  2  3  2  0  0  0  0
  2  4  1  0  0  0  0
  4 17  2  0  0  0  0
  4  5  1  0  0  0  0
  5  6  2  0  0  0  0
  6  7  1  0  0  0  0
  6 23  1  0  0  0  0
  7  8  1  0  0  0  0
  7 17  1  0  0  0  0
  8 18  1  0  0  0  0
  8 15  1  0  0  0  0
  8  9  1  0  0  0  0
  9 10  1  0  0  0  0
 10 19  1  0  0  0  0
 10 11  1  0  0  0  0
 10 13  1  0  0  0  0
 11 12  1  0  0  0  0
 11 24  1  0  0  0  0
 11 25  1  0  0  0  0
 12 26  1  0  0  0  0
 13 20  1  0  0  0  0
 13 14  1  0  0  0  0
 13 15  1  0  0  0  0
 14 27  1  0  0  0  0
 15 21  1  0  0  0  0
 15 16  1  0  0  0  0
 16 28  1  0  0  0  0
M  CHG  1   1  -1
M  END
> <s_m_source_file>
AV-unprocessed.smi

> <i_m_source_file_index>
160

> <i_lp_mmshare_version>
43012

> <i_f3d_flags>
0

> <s_epik_input>
W05IMl1DKD1PKWMxbltjSF1uKG4xKVtDQEBIXTJPW0NASF0oW0NIMl1bT0hdKVtDQEBIXShbT0hdKVtDQEhdMltPSF0=

> <s_epik_cmdline>
J2VwaWtfcHl0aG9uJywgJy1waCcsICc3LjAnLCAnLXRuJywgJzgnLCAnLW1hJywgJzIwMCcsICctbWV0YWxfYmluZGluZycsICctaW1hZScsICc8aW5maWxlLm1hZT4nLCAnLW9tYWUnLCAnPG91dGZpbGUubWFlPic=

> <r_lp_tautomer_probability>
1

> <r_epik_Ionization_Penalty>
6.6993

> <r_epik_Ionization_Penalty_Charging>
6.6993

> <r_epik_Ionization_Penalty_Neutral>
6.01698e-06

> <r_epik_State_Penalty>
6.69929

> <r_epik_Charging_Adjusted_Penalty>
13.3986

> <i_epik_Tot_Q>
-1

> <i_epik_Tot_abs_Q>
1

> <r_epik_Metal_State_Penalty>
2.62798

> <b_epik_Metal_Only>
1

> <s_epik_Chemistry_Notes>
This compound contains an acetal/aminal-like group ( X-CH(R)-Y where X, Y are N, S, or O) that may be acid/base labile, releasing an aldehyde.

> <s_lp_Force_Field>
OPLS_2005

> <r_lp_Energy>
51.4857

> <b_lp_Chiralities_Consistent>
1

> <s_lp_Variant>
AV-unprocessed.smi:160-20

> <Gold.Version>
5.8.1

> <Gold.Id.Protein>
6NUR|6NUR_protein|mol2

> <Gold.PLP.Fitness>
37.2609

> <Gold.PLP.PLP>
-22.2998

> <Gold.PLP.part.hbond>
-4.8522

> <Gold.PLP.part.metal>
0.0000

> <Gold.PLP.part.buried>
-3.7076

> <Gold.PLP.part.nonpolar>
-13.9639

> <Gold.PLP.part.repulsive>
0.0520

> <Gold.PLP.ligand.clash>
0.0000

> <Gold.PLP.ligand.torsion>
0.0097

> <Gold.PLP.Chemscore.Hbond>
4.9920

> <Gold.PLP.Chemscore.CHOScore>
0.0000

> <Gold.PLP.Chemscore.Metal>
0.0000

> <Gold.Chemscore.Hbonds>
donor molecule, donor type, donor heavy atom, donor atom, acceptor molecule, acceptor atom, score
      L1  H    16    28       P1  7949  1.00
      P1  H  6896  6907       L1     1  2.00
      P1  H  7997  8008       L1    14  1.00
      P1  H 10752 10763       L1    16  0.88

> <Gold.PLP.Chemscore.Internal.Correction>
0.0045

> <Gold.Rescore>
     Score         DG    S(hbond)    S(metal)    S(lipo)     H(rot)  DE(clash)    DE(int)     intcor
      8.51      -8.67       3.02        0.00      29.44       4.04       0.03       0.14       ----

> <Gold.Chemscore.Fitness>
8.5067

> <Gold.Chemscore.DG>
-8.6750

> <Gold.Chemscore.ZeroCoef>
-5.4800

> <Gold.Chemscore.Hbond>
3.0222

> <Gold.Chemscore.Metal>
0.0000

> <Gold.Chemscore.Lipo>
29.4358

> <Gold.Chemscore.Internal_Hbond>
0.0000

> <Gold.Chemscore.DEClash>
0.0310

> <Gold.Chemscore.DEInternal>
0.1374

> <Gold.Chemscore.Rot>
4.0403

> <Gold.Chemscore.Internal.Correction>
   9.000000E+99

> <Gold.Chemscore.Hbonds>
donor molecule, donor type, donor heavy atom, donor atom, acceptor molecule, acceptor atom, score
      L1  H    16    28       P1  7949  0.97
      P1  H  6896  6907       L1     1  0.89
      P1  H  7997  8008       L1    14  0.31
      P1  H 10752 10763       L1    16  0.16

> <Gold.Chemscore.Hbond.Weighted>
-10.0941

> <Gold.Chemscore.Metal.Weighted>
-0.0000

> <Gold.Chemscore.Lipo.Weighted>
-3.4440

> <Gold.Chemscore.Internal_Hbond.Weighted>
0.0000

> <Gold.Chemscore.DEClash.Weighted>
0.0310

> <Gold.Chemscore.DEInternal.Weighted>
0.1374

> <Gold.Chemscore.Rot.Weighted>
10.3431

> <Gold.Chemscore.Internal.Correction.Weighted>
   9.000000E+99

> <Gold.Protein.RotatedTorsions>
[ 6907 6896 6895 6894 ] final -143.92 input  -60.11 | X-H torsion
[ 7974 7965 7964 7962 ] final -133.19 input  175.53 | X-H torsion
[ 8008 7997 7996 7995 ] final  -25.61 input   59.86 | X-H torsion
[ 10167 10162 10161 10158 ] final -177.07 input  -65.29 | X-H torsion
[ 10718 10713 10712 10709 ] final   83.03 input   66.30 | X-H torsion
[ 10763 10752 10751 10750 ] final   39.62 input  -60.55 | X-H torsion
[ 11005 11000 10999 10996 ] final -145.36 input  -57.11 | X-H torsion

> <Gold.Protein.ActiveResidues>
 VAL166  LYS551  ARG553  GLY616  TRP617  ASP618  TYR619  PRO620  LYS621  CYS622 
 ASP623  PHE694  ASN695  SER759  ASP760  ASP761  ALA762  ILE779  LEU786  VAL792 
 PHE793  MET794  SER795  GLU796  ALA797  LYS798  CYS799  TRP800  GLU811  SER814 

> <Gold.Protein.RotatedAtoms>
  151.1069  133.5201  159.2607 H   0  0  0  0  0  0  0  0  0  0  0  0  # atno 6907 bound_to 6896
  151.2010  135.0442  159.8882 H   0  0  0  0  0  0  0  0  0  0  0  0  # atno 6908 bound_to 6896
  152.5447  134.0898  159.8325 H   0  0  0  0  0  0  0  0  0  0  0  0  # atno 6909 bound_to 6896
  144.9216  140.7021  143.4962 H   0  0  0  0  0  0  0  0  0  0  0  0  # atno 7974 bound_to 7965
  154.4467  140.1922  156.0646 H   0  0  0  0  0  0  0  0  0  0  0  0  # atno 8008 bound_to 7997
  156.0557  140.3303  155.7376 H   0  0  0  0  0  0  0  0  0  0  0  0  # atno 8009 bound_to 7997
  155.5489  140.0593  157.2845 H   0  0  0  0  0  0  0  0  0  0  0  0  # atno 8010 bound_to 7997
  139.5498  144.2139  152.1056 H   0  0  0  0  0  0  0  0  0  0  0  0  # atno 10167 bound_to 10162
  157.6870  131.0073  150.2463 H   0  0  0  0  0  0  0  0  0  0  0  0  # atno 10718 bound_to 10713
  152.9961  135.6215  154.2494 H   0  0  0  0  0  0  0  0  0  0  0  0  # atno 10763 bound_to 10752
  154.2233  135.2795  155.2918 H   0  0  0  0  0  0  0  0  0  0  0  0  # atno 10764 bound_to 10752
  154.5510  135.5733  153.6980 H   0  0  0  0  0  0  0  0  0  0  0  0  # atno 10765 bound_to 10752
  140.7930  134.2946  157.5006 H   0  0  0  0  0  0  0  0  0  0  0  0  # atno 11005 bound_to 11000
  145.3287  139.1766  143.4548 LP  0  0  0  0  0  0  0  0  0  0  0  0  # atno 17320 bound_to 7965
  146.3207  140.3314  142.8640 LP  0  0  0  0  0  0  0  0  0  0  0  0  # atno 17321 bound_to 7965
  140.1632  144.5006  150.6621 LP  0  0  0  0  0  0  0  0  0  0  0  0  # atno 17342 bound_to 10162
  140.6757  143.2304  151.5512 LP  0  0  0  0  0  0  0  0  0  0  0  0  # atno 17343 bound_to 10162
  156.3068  130.3766  149.7699 LP  0  0  0  0  0  0  0  0  0  0  0  0  # atno 17370 bound_to 10713
  156.5312  130.8258  151.3237 LP  0  0  0  0  0  0  0  0  0  0  0  0  # atno 17371 bound_to 10713
  139.8729  134.9386  156.3718 LP  0  0  0  0  0  0  0  0  0  0  0  0  # atno 17394 bound_to 11000
  140.9370  133.7540  156.0098 LP  0  0  0  0  0  0  0  0  0  0  0  0  # atno 17395 bound_to 11000

$$$$
