AV-unprocessed.smi:2330|AV-procd|sdf|9311|dock6
  -GOLD-   2272012533D 1   1.00000     0.00000
 Structure written by MMmdl.
 42 43  0  0  0  0  0  0  0  0  1 V2000
  154.1672  141.9701  160.9337 C   0  0  0  0  0  0  0  0  0  0  0  0
  153.2163  142.2124  159.7531 C   0  0  2  0  0  0  0  0  0  0  0  0
  152.6466  143.6438  159.7721 C   0  0  0  0  0  0  0  0  0  0  0  0
  151.6924  143.8905  158.5919 C   0  0  0  0  0  0  0  0  0  0  0  0
  150.5558  142.8514  158.5561 C   0  0  1  0  0  0  0  0  0  0  0  0
  149.7275  143.0566  157.3721 N   0  0  0  0  0  0  0  0  0  0  0  0
  148.8442  142.1804  156.8746 C   0  0  0  0  0  0  0  0  0  0  0  0
  148.6058  141.0773  157.3662 O   0  0  0  0  0  0  0  0  0  0  0  0
  148.2645  142.6457  155.7603 N   0  0  0  0  0  0  0  0  0  0  0  0
  147.3305  141.8968  154.9245 C   0  0  0  0  0  0  0  0  0  0  0  0
  148.0407  140.9041  153.9774 C   0  0  1  0  0  0  0  0  0  0  0  0
  149.2886  140.2670  154.6046 C   0  0  0  0  0  0  0  0  0  0  0  0
  147.1140  139.8799  153.3941 C   0  0  0  0  0  0  0  0  0  0  0  0
  146.7513  139.8528  152.1076 N   0  0  0  0  0  0  0  0  0  0  0  0
  145.9025  138.7832  151.8128 C   0  0  0  0  0  0  0  0  0  0  0  0
  145.6237  137.9907  152.8971 C   0  0  0  0  0  0  0  0  0  0  0  0
  146.4203  138.5631  154.3367 S   0  0  0  0  0  0  0  0  0  0  0  0
  151.1216  141.4197  158.5455 C   0  0  0  0  0  0  0  0  0  0  0  0
  152.0715  141.1816  159.7301 C   0  0  0  0  0  0  0  0  0  0  0  0
  153.6513  142.0820  161.8878 H   0  0  0  0  0  0  0  0  0  0  0  0
  154.9984  142.6758  160.9192 H   0  0  0  0  0  0  0  0  0  0  0  0
  154.5886  140.9651  160.8985 H   0  0  0  0  0  0  0  0  0  0  0  0
  153.7953  142.0924  158.8362 H   0  0  0  0  0  0  0  0  0  0  0  0
  152.1152  143.8172  160.7090 H   0  0  0  0  0  0  0  0  0  0  0  0
  153.4597  144.3698  159.7405 H   0  0  0  0  0  0  0  0  0  0  0  0
  151.2771  144.8967  158.6606 H   0  0  0  0  0  0  0  0  0  0  0  0
  152.2571  143.8526  157.6592 H   0  0  0  0  0  0  0  0  0  0  0  0
  149.9524  142.9662  159.4586 H   0  0  0  0  0  0  0  0  0  0  0  0
  149.8468  143.9327  156.8852 H   0  0  0  0  0  0  0  0  0  0  0  0
  148.5233  143.5666  155.4378 H   0  0  0  0  0  0  0  0  0  0  0  0
  146.5979  141.3793  155.5462 H   0  0  0  0  0  0  0  0  0  0  0  0
  146.7732  142.6257  154.3353 H   0  0  0  0  0  0  0  0  0  0  0  0
  148.4023  141.4917  153.1327 H   0  0  0  0  0  0  0  0  0  0  0  0
  149.8226  139.6533  153.8784 H   0  0  0  0  0  0  0  0  0  0  0  0
  149.0266  139.6307  155.4504 H   0  0  0  0  0  0  0  0  0  0  0  0
  149.9798  141.0295  154.9645 H   0  0  0  0  0  0  0  0  0  0  0  0
  145.5442  138.6597  150.8017 H   0  0  0  0  0  0  0  0  0  0  0  0
  145.0015  137.1090  152.9362 H   0  0  0  0  0  0  0  0  0  0  0  0
  150.3059  140.6963  158.5783 H   0  0  0  0  0  0  0  0  0  0  0  0
  151.6574  141.2388  157.6124 H   0  0  0  0  0  0  0  0  0  0  0  0
  152.4786  140.1717  159.6725 H   0  0  0  0  0  0  0  0  0  0  0  0
  151.5084  141.2340  160.6630 H   0  0  0  0  0  0  0  0  0  0  0  0
  1  2  1  0  0  0  0
  1 20  1  0  0  0  0
  1 21  1  0  0  0  0
  1 22  1  0  0  0  0
  2 19  1  0  0  0  0
  2  3  1  0  0  0  0
  2 23  1  0  0  0  0
  3  4  1  0  0  0  0
  3 24  1  0  0  0  0
  3 25  1  0  0  0  0
  4  5  1  0  0  0  0
  4 26  1  0  0  0  0
  4 27  1  0  0  0  0
  5  6  1  0  0  0  0
  5 18  1  0  0  0  0
  5 28  1  0  0  0  0
  6  7  1  0  0  0  0
  6 29  1  0  0  0  0
  7  8  2  0  0  0  0
  7  9  1  0  0  0  0
  9 10  1  0  0  0  0
  9 30  1  0  0  0  0
 10 11  1  0  0  0  0
 10 31  1  0  0  0  0
 10 32  1  0  0  0  0
 11 12  1  0  0  0  0
 11 13  1  0  0  0  0
 11 33  1  0  0  0  0
 12 34  1  0  0  0  0
 12 35  1  0  0  0  0
 12 36  1  0  0  0  0
 13 17  1  0  0  0  0
 13 14  2  0  0  0  0
 14 15  1  0  0  0  0
 15 16  2  0  0  0  0
 15 37  1  0  0  0  0
 16 17  1  0  0  0  0
 16 38  1  0  0  0  0
 18 19  1  0  0  0  0
 18 39  1  0  0  0  0
 18 40  1  0  0  0  0
 19 41  1  0  0  0  0
 19 42  1  0  0  0  0
M  END
> <s_m_source_file>
AV-unprocessed.smi

> <i_m_source_file_index>
2330

> <i_lp_mmshare_version>
43012

> <i_f3d_flags>
0

> <s_epik_input>
W0NIM11bQ0BASF0xW0NIMl1bQ0gyXVtDQEhdKFtDSDJdW0NIMl0xKVtOSF1DKD1PKVtOSF1bQ0gyXVtDQEhdKFtDSDNdKWMybltjSF1bY0hdczI=

> <s_epik_cmdline>
J2VwaWtfcHl0aG9uJywgJy1waCcsICc3LjAnLCAnLXRuJywgJzgnLCAnLW1hJywgJzIwMCcsICctbWV0YWxfYmluZGluZycsICctaW1hZScsICc8aW5maWxlLm1hZT4nLCAnLW9tYWUnLCAnPG91dGZpbGUubWFlPic=

> <r_lp_tautomer_probability>
1

> <r_epik_Ionization_Penalty>
0.000331107

> <r_epik_Ionization_Penalty_Charging>
0

> <r_epik_Ionization_Penalty_Neutral>
0.000331107

> <r_epik_State_Penalty>
-0

> <r_epik_Charging_Adjusted_Penalty>
0

> <i_epik_Tot_Q>
0

> <i_epik_Tot_abs_Q>
0

> <r_epik_Metal_State_Penalty>
-0

> <b_epik_Metal_Only>
0

> <s_lp_Force_Field>
OPLS_2005

> <r_lp_Energy>
-1.29202

> <b_lp_Chiralities_Consistent>
1

> <s_lp_Variant>
AV-unprocessed.smi:2330-2

> <Gold.Version>
5.8.1

> <Gold.Id.Protein>
6NUR|6NUR_protein|mol2

> <Gold.PLP.Fitness>
42.2083

> <Gold.PLP.PLP>
-34.6322

> <Gold.PLP.part.hbond>
-2.0000

> <Gold.PLP.part.metal>
0.0000

> <Gold.PLP.part.buried>
-1.2657

> <Gold.PLP.part.nonpolar>
-32.2334

> <Gold.PLP.part.repulsive>
1.4604

> <Gold.PLP.ligand.clash>
0.0000

> <Gold.PLP.ligand.torsion>
0.6591

> <Gold.PLP.Chemscore.Hbond>
1.9920

> <Gold.PLP.Chemscore.CHOScore>
0.9349

> <Gold.PLP.Chemscore.Metal>
0.0000

> <Gold.Chemscore.Hbonds>
donor molecule, donor type, donor heavy atom, donor atom, acceptor molecule, acceptor atom, score
      L1  H     6    29       P1  8028  0.66
      L1  H     9    30       P1  8028  0.19
      L1  C    15    37       P1 10171  0.75

> <Gold.PLP.Chemscore.Internal.Correction>
0.1137

> <Gold.Rescore>
     Score         DG    S(hbond)    S(metal)    S(lipo)     H(rot)  DE(clash)    DE(int)     intcor
     15.87     -20.47       1.86        0.00     106.86       1.45       0.90       3.70       ----

> <Gold.Chemscore.Fitness>
15.8701

> <Gold.Chemscore.DG>
-20.4690

> <Gold.Chemscore.ZeroCoef>
-5.4800

> <Gold.Chemscore.Hbond>
1.8586

> <Gold.Chemscore.Metal>
0.0000

> <Gold.Chemscore.Lipo>
106.8588

> <Gold.Chemscore.Internal_Hbond>
0.0000

> <Gold.Chemscore.DEClash>
0.8968

> <Gold.Chemscore.DEInternal>
3.7021

> <Gold.Chemscore.Rot>
1.4536

> <Gold.Chemscore.Internal.Correction>
   9.000000E+99

> <Gold.Chemscore.Hbonds>
donor molecule, donor type, donor heavy atom, donor atom, acceptor molecule, acceptor atom, score
      L1  H     6    29       P1  8028  0.63
      L1  H     9    30       P1  8028  0.20

> <Gold.Chemscore.Hbond.Weighted>
-6.2077

> <Gold.Chemscore.Metal.Weighted>
-0.0000

> <Gold.Chemscore.Lipo.Weighted>
-12.5025

> <Gold.Chemscore.Internal_Hbond.Weighted>
0.0000

> <Gold.Chemscore.DEClash.Weighted>
0.8968

> <Gold.Chemscore.DEInternal.Weighted>
3.7021

> <Gold.Chemscore.Rot.Weighted>
3.7212

> <Gold.Chemscore.Internal.Correction.Weighted>
   9.000000E+99

> <Gold.Protein.RotatedTorsions>
[ 6907 6896 6895 6894 ] final -152.55 input  -60.11 | X-H torsion
[ 7974 7965 7964 7962 ] final   25.58 input  175.53 | X-H torsion
[ 8008 7997 7996 7995 ] final  -87.39 input   59.86 | X-H torsion
[ 10167 10162 10161 10158 ] final  -24.33 input  -65.29 | X-H torsion
[ 10718 10713 10712 10709 ] final -143.15 input   66.30 | X-H torsion
[ 10763 10752 10751 10750 ] final   13.76 input  -60.55 | X-H torsion
[ 11005 11000 10999 10996 ] final -137.22 input  -57.11 | X-H torsion

> <Gold.Protein.ActiveResidues>
 VAL166  LYS551  ARG553  GLY616  TRP617  ASP618  TYR619  PRO620  LYS621  CYS622 
 ASP623  PHE694  ASN695  SER759  ASP760  ASP761  ALA762  ILE779  LEU786  VAL792 
 PHE793  MET794  SER795  GLU796  ALA797  LYS798  CYS799  TRP800  GLU811  SER814 

> <Gold.Protein.RotatedAtoms>
  151.2295  133.4458  159.2603 H   0  0  0  0  0  0  0  0  0  0  0  0  # atno 6907 bound_to 6896
  151.0808  134.9857  159.8365 H   0  0  0  0  0  0  0  0  0  0  0  0  # atno 6908 bound_to 6896
  152.5424  134.2234  159.8849 H   0  0  0  0  0  0  0  0  0  0  0  0  # atno 6909 bound_to 6896
  146.1881  139.7447  142.8851 H   0  0  0  0  0  0  0  0  0  0  0  0  # atno 7974 bound_to 7965
  154.6627  140.0566  157.0080 H   0  0  0  0  0  0  0  0  0  0  0  0  # atno 8008 bound_to 7997
  155.1204  140.3247  155.4480 H   0  0  0  0  0  0  0  0  0  0  0  0  # atno 8009 bound_to 7997
  156.2625  140.1998  156.6326 H   0  0  0  0  0  0  0  0  0  0  0  0  # atno 8010 bound_to 7997
  140.7288  143.4363  151.0725 H   0  0  0  0  0  0  0  0  0  0  0  0  # atno 10167 bound_to 10162
  156.3545  130.7705  151.1863 H   0  0  0  0  0  0  0  0  0  0  0  0  # atno 10718 bound_to 10713
  153.1689  135.6809  153.8636 H   0  0  0  0  0  0  0  0  0  0  0  0  # atno 10763 bound_to 10752
  153.8007  135.3156  155.3391 H   0  0  0  0  0  0  0  0  0  0  0  0  # atno 10764 bound_to 10752
  154.7984  135.4793  154.0308 H   0  0  0  0  0  0  0  0  0  0  0  0  # atno 10765 bound_to 10752
  140.8731  134.2026  157.4638 H   0  0  0  0  0  0  0  0  0  0  0  0  # atno 11005 bound_to 11000
  145.3876  141.0367  143.3142 LP  0  0  0  0  0  0  0  0  0  0  0  0  # atno 17320 bound_to 7965
  144.8435  139.5433  143.6889 LP  0  0  0  0  0  0  0  0  0  0  0  0  # atno 17321 bound_to 7965
  139.8025  143.8064  152.3164 LP  0  0  0  0  0  0  0  0  0  0  0  0  # atno 17342 bound_to 10162
  139.8085  144.7345  150.9729 LP  0  0  0  0  0  0  0  0  0  0  0  0  # atno 17343 bound_to 10162
  157.7465  131.0418  150.4663 LP  0  0  0  0  0  0  0  0  0  0  0  0  # atno 17370 bound_to 10713
  156.4864  130.4085  149.6432 LP  0  0  0  0  0  0  0  0  0  0  0  0  # atno 17371 bound_to 10713
  139.8713  134.9783  156.4993 LP  0  0  0  0  0  0  0  0  0  0  0  0  # atno 17394 bound_to 11000
  140.8550  133.8103  155.9206 LP  0  0  0  0  0  0  0  0  0  0  0  0  # atno 17395 bound_to 11000

$$$$
