AV-unprocessed.smi:514|AV-procd|sdf|2776|dock5
  -GOLD-   2262023243D 1   1.00000     0.00000
 Structure written by MMmdl.
 46 48  0  0  0  0  0  0  0  0  2 V2000
  149.8447  131.7504  154.3786 C   0  0  0  0  0  0  0  0  0  0  0  0
  148.9077  132.5234  153.4485 C   0  0  0  0  0  0  0  0  0  0  0  0
  148.1984  133.4780  154.2177 O   0  0  0  0  0  0  0  0  0  0  0  0
  149.0152  134.5276  154.7049 C   0  0  0  0  0  0  0  0  0  0  0  0
  148.1509  135.6644  155.2896 C   0  0  0  0  0  0  0  0  0  0  0  0
  148.8414  136.9534  155.3196 N   0  0  0  0  0  0  0  0  0  0  0  0
  148.4877  138.1505  154.7589 C   0  0  0  0  0  0  0  0  0  0  0  0
  147.3366  138.3575  153.9789 N   0  0  0  0  0  0  0  0  0  0  0  0
  147.1139  139.5836  153.2068 C   0  0  0  0  0  0  0  0  0  0  0  0
  146.8283  139.2792  151.7247 C   0  0  0  0  0  0  0  0  0  0  0  0
  145.6670  138.3768  151.5928 N   0  3  0  0  0  0  0  0  0  0  0  0
  145.7954  137.1669  152.4293 C   0  0  0  0  0  0  0  0  0  0  0  0
  146.1164  137.5524  153.8852 C   0  0  0  0  0  0  0  0  0  0  0  0
  149.3730  139.1299  154.9713 N   0  0  0  0  0  0  0  0  0  0  0  0
  150.3704  138.5199  155.7096 C   0  0  0  0  0  0  0  0  0  0  0  0
  150.0866  137.2095  155.9078 C   0  0  0  0  0  0  0  0  0  0  0  0
  151.0141  136.3117  156.6176 C   0  0  0  0  0  0  0  0  0  0  0  0
  150.8232  135.1062  156.7591 O   0  0  0  0  0  0  0  0  0  0  0  0
  152.1117  136.9466  157.0951 N   0  0  0  0  0  0  0  0  0  0  0  0
  152.4375  138.2667  156.9518 C   0  0  0  0  0  0  0  0  0  0  0  0
  153.4686  138.7031  157.4629 O   0  0  0  0  0  0  0  0  0  0  0  0
  151.5815  139.0574  156.2287 N   0  0  0  0  0  0  0  0  0  0  0  0
  151.8714  140.4768  156.0155 C   0  0  0  0  0  0  0  0  0  0  0  0
  152.7675  136.3784  157.6109 H   0  0  0  0  0  0  0  0  0  0  0  0
  150.4117  131.0005  153.8267 H   0  0  0  0  0  0  0  0  0  0  0  0
  149.2834  131.2386  155.1607 H   0  0  0  0  0  0  0  0  0  0  0  0
  150.5563  132.4203  154.8617 H   0  0  0  0  0  0  0  0  0  0  0  0
  149.4832  133.0214  152.6672 H   0  0  0  0  0  0  0  0  0  0  0  0
  148.2131  131.8359  152.9641 H   0  0  0  0  0  0  0  0  0  0  0  0
  149.6858  134.1471  155.4766 H   0  0  0  0  0  0  0  0  0  0  0  0
  149.6373  134.8874  153.8866 H   0  0  0  0  0  0  0  0  0  0  0  0
  147.2388  135.7710  154.7042 H   0  0  0  0  0  0  0  0  0  0  0  0
  147.7997  135.4127  156.2873 H   0  0  0  0  0  0  0  0  0  0  0  0
  146.2840  140.1391  153.6461 H   0  0  0  0  0  0  0  0  0  0  0  0
  147.9834  140.2382  153.2686 H   0  0  0  0  0  0  0  0  0  0  0  0
  146.6312  140.2002  151.1758 H   0  0  0  0  0  0  0  0  0  0  0  0
  147.6988  138.8108  151.2635 H   0  0  0  0  0  0  0  0  0  0  0  0
  144.8435  138.8797  151.8911 H   0  0  0  0  0  0  0  0  0  0  0  0
  144.8668  136.5980  152.3806 H   0  0  0  0  0  0  0  0  0  0  0  0
  146.5820  136.5324  152.0194 H   0  0  0  0  0  0  0  0  0  0  0  0
  146.1718  136.6641  154.5017 H   0  0  0  0  0  0  0  0  0  0  0  0
  145.2891  138.1309  154.2989 H   0  0  0  0  0  0  0  0  0  0  0  0
  151.4892  141.0647  156.8503 H   0  0  0  0  0  0  0  0  0  0  0  0
  151.4069  140.8481  155.1019 H   0  0  0  0  0  0  0  0  0  0  0  0
  152.9408  140.6711  155.9228 H   0  0  0  0  0  0  0  0  0  0  0  0
  145.5554  138.1088  150.6254 H   0  0  0  0  0  0  0  0  0  0  0  0
  1  2  1  0  0  0  0
  1 25  1  0  0  0  0
  1 26  1  0  0  0  0
  1 27  1  0  0  0  0
  2  3  1  0  0  0  0
  2 28  1  0  0  0  0
  2 29  1  0  0  0  0
  3  4  1  0  0  0  0
  4  5  1  0  0  0  0
  4 30  1  0  0  0  0
  4 31  1  0  0  0  0
  5  6  1  0  0  0  0
  5 32  1  0  0  0  0
  5 33  1  0  0  0  0
  6 16  1  0  0  0  0
  6  7  1  0  0  0  0
  7  8  1  0  0  0  0
  7 14  2  0  0  0  0
  8 13  1  0  0  0  0
  8  9  1  0  0  0  0
  9 10  1  0  0  0  0
  9 34  1  0  0  0  0
  9 35  1  0  0  0  0
 10 11  1  0  0  0  0
 10 36  1  0  0  0  0
 10 37  1  0  0  0  0
 11 12  1  0  0  0  0
 11 38  1  0  0  0  0
 11 46  1  0  0  0  0
 12 13  1  0  0  0  0
 12 39  1  0  0  0  0
 12 40  1  0  0  0  0
 13 41  1  0  0  0  0
 13 42  1  0  0  0  0
 14 15  1  0  0  0  0
 15 22  1  0  0  0  0
 15 16  2  0  0  0  0
 16 17  1  0  0  0  0
 17 18  2  0  0  0  0
 17 19  1  0  0  0  0
 19 24  1  0  0  0  0
 19 20  1  0  0  0  0
 20 21  2  0  0  0  0
 20 22  1  0  0  0  0
 22 23  1  0  0  0  0
 23 43  1  0  0  0  0
 23 44  1  0  0  0  0
 23 45  1  0  0  0  0
M  CHG  1  11   1
M  END
> <s_m_source_file>
AV-unprocessed.smi

> <i_m_source_file_index>
514

> <i_lp_mmshare_version>
43012

> <i_f3d_flags>
0

> <s_epik_input>
W0NIM11uMWMoPU8pW25IXWMoPU8pYyhjMTIpbihbQ0gyXVtDSDJdT1tDSDJdW0NIM10pYyhuMilOM1tDSDJdW0NIMl1bTkhdW0NIMl1bQ0gyXTM=

> <s_epik_cmdline>
J2VwaWtfcHl0aG9uJywgJy1waCcsICc3LjAnLCAnLXRuJywgJzgnLCAnLW1hJywgJzIwMCcsICctbWV0YWxfYmluZGluZycsICctaW1hZScsICc8aW5maWxlLm1hZT4nLCAnLW9tYWUnLCAnPG91dGZpbGUubWFlPic=

> <r_epik_Ionization_Penalty>
0.00860326

> <r_epik_Ionization_Penalty_Charging>
0.00860166

> <r_epik_Ionization_Penalty_Neutral>
1.60107e-06

> <r_epik_State_Penalty>
0.00646614

> <r_epik_Charging_Adjusted_Penalty>
0.0150678

> <i_epik_Tot_Q>
1

> <i_epik_Tot_abs_Q>
1

> <r_epik_Metal_State_Penalty>
0.0342529

> <b_epik_Metal_Only>
0

> <s_lp_Force_Field>
OPLS_2005

> <r_lp_Energy>
46.1071

> <b_lp_Chiralities_Consistent>
1

> <s_lp_Variant>
AV-unprocessed.smi:514-1

> <Gold.Version>
5.8.1

> <Gold.Id.Protein>
6NUR|6NUR_protein|mol2

> <Gold.PLP.Fitness>
38.2847

> <Gold.PLP.PLP>
-28.8091

> <Gold.PLP.part.hbond>
-2.8855

> <Gold.PLP.part.metal>
0.0000

> <Gold.PLP.part.buried>
-2.7795

> <Gold.PLP.part.nonpolar>
-22.4753

> <Gold.PLP.part.repulsive>
0.3808

> <Gold.PLP.ligand.clash>
0.0000

> <Gold.PLP.ligand.torsion>
0.2794

> <Gold.PLP.Chemscore.Hbond>
3.3360

> <Gold.PLP.Chemscore.CHOScore>
0.0000

> <Gold.PLP.Chemscore.Metal>
0.0000

> <Gold.Chemscore.Hbonds>
donor molecule, donor type, donor heavy atom, donor atom, acceptor molecule, acceptor atom, score
      L1  H    11    38       P1 10175  1.98
      L1  H    11    46       P1 10171  0.32
      P1  H  7997  8010       L1    21  1.00

> <Gold.PLP.Chemscore.Internal.Correction>
0.0265

> <Gold.Rescore>
     Score         DG    S(hbond)    S(metal)    S(lipo)     H(rot)  DE(clash)    DE(int)     intcor
     14.29     -16.00       2.60        0.00      53.91       1.75       0.23       1.48       ----

> <Gold.Chemscore.Fitness>
14.2941

> <Gold.Chemscore.DG>
-16.0049

> <Gold.Chemscore.ZeroCoef>
-5.4800

> <Gold.Chemscore.Hbond>
2.6011

> <Gold.Chemscore.Metal>
0.0000

> <Gold.Chemscore.Lipo>
53.9085

> <Gold.Chemscore.Internal_Hbond>
0.0000

> <Gold.Chemscore.DEClash>
0.2348

> <Gold.Chemscore.DEInternal>
1.4760

> <Gold.Chemscore.Rot>
1.7461

> <Gold.Chemscore.Internal.Correction>
   9.000000E+99

> <Gold.Chemscore.Hbonds>
donor molecule, donor type, donor heavy atom, donor atom, acceptor molecule, acceptor atom, score
      L1  H    11    38       P1 10175  0.92
      L1  H    11    46       P1 10171  0.32
      P1  H  7997  8010       L1    21  0.97

> <Gold.Chemscore.Hbond.Weighted>
-8.6877

> <Gold.Chemscore.Metal.Weighted>
-0.0000

> <Gold.Chemscore.Lipo.Weighted>
-6.3073

> <Gold.Chemscore.Internal_Hbond.Weighted>
0.0000

> <Gold.Chemscore.DEClash.Weighted>
0.2348

> <Gold.Chemscore.DEInternal.Weighted>
1.4760

> <Gold.Chemscore.Rot.Weighted>
4.4701

> <Gold.Chemscore.Internal.Correction.Weighted>
   9.000000E+99

> <Gold.Protein.RotatedTorsions>
[ 6907 6896 6895 6894 ] final  -76.92 input  -60.11 | X-H torsion
[ 7974 7965 7964 7962 ] final  -50.41 input  175.53 | X-H torsion
[ 8008 7997 7996 7995 ] final   54.19 input   59.86 | X-H torsion
[ 10167 10162 10161 10158 ] final    9.28 input  -65.29 | X-H torsion
[ 10718 10713 10712 10709 ] final  179.73 input   66.30 | X-H torsion
[ 10763 10752 10751 10750 ] final   23.26 input  -60.55 | X-H torsion
[ 11005 11000 10999 10996 ] final -173.63 input  -57.11 | X-H torsion

> <Gold.Protein.ActiveResidues>
 VAL166  LYS551  ARG553  GLY616  TRP617  ASP618  TYR619  PRO620  LYS621  CYS622 
 ASP623  PHE694  ASN695  SER759  ASP760  ASP761  ALA762  ILE779  LEU786  VAL792 
 PHE793  MET794  SER795  GLU796  ALA797  LYS798  CYS799  TRP800  GLU811  SER814 

> <Gold.Protein.RotatedAtoms>
  150.7013  134.4499  159.5331 H   0  0  0  0  0  0  0  0  0  0  0  0  # atno 6907 bound_to 6896
  152.2194  134.8425  160.0497 H   0  0  0  0  0  0  0  0  0  0  0  0  # atno 6908 bound_to 6896
  151.9281  133.3568  159.3957 H   0  0  0  0  0  0  0  0  0  0  0  0  # atno 6909 bound_to 6896
  145.9301  140.7757  142.9604 H   0  0  0  0  0  0  0  0  0  0  0  0  # atno 7974 bound_to 7965
  155.4807  140.3468  155.4339 H   0  0  0  0  0  0  0  0  0  0  0  0  # atno 8008 bound_to 7997
  156.1041  140.1443  156.9456 H   0  0  0  0  0  0  0  0  0  0  0  0  # atno 8009 bound_to 7997
  154.4713  140.0900  156.7129 H   0  0  0  0  0  0  0  0  0  0  0  0  # atno 8010 bound_to 7997
  140.6264  143.8090  150.7239 H   0  0  0  0  0  0  0  0  0  0  0  0  # atno 10167 bound_to 10162
  156.8715  130.9785  151.3073 H   0  0  0  0  0  0  0  0  0  0  0  0  # atno 10718 bound_to 10713
  153.0852  135.6631  153.9963 H   0  0  0  0  0  0  0  0  0  0  0  0  # atno 10763 bound_to 10752
  153.9575  135.2977  155.3437 H   0  0  0  0  0  0  0  0  0  0  0  0  # atno 10764 bound_to 10752
  154.7259  135.5144  153.8958 H   0  0  0  0  0  0  0  0  0  0  0  0  # atno 10765 bound_to 10752
  140.4835  134.6052  157.4928 H   0  0  0  0  0  0  0  0  0  0  0  0  # atno 11005 bound_to 11000
  144.6763  140.2113  143.7376 LP  0  0  0  0  0  0  0  0  0  0  0  0  # atno 17320 bound_to 7965
  145.8437  139.2142  143.1812 LP  0  0  0  0  0  0  0  0  0  0  0  0  # atno 17321 bound_to 7965
  140.1692  143.4209  152.2013 LP  0  0  0  0  0  0  0  0  0  0  0  0  # atno 17342 bound_to 10162
  139.5484  144.7318  151.4510 LP  0  0  0  0  0  0  0  0  0  0  0  0  # atno 17343 bound_to 10162
  157.6193  130.8643  149.9081 LP  0  0  0  0  0  0  0  0  0  0  0  0  # atno 17370 bound_to 10713
  156.0724  130.3683  150.0748 LP  0  0  0  0  0  0  0  0  0  0  0  0  # atno 17371 bound_to 10713
  139.9812  134.7134  155.9856 LP  0  0  0  0  0  0  0  0  0  0  0  0  # atno 17394 bound_to 11000
  141.1519  133.6547  156.4041 LP  0  0  0  0  0  0  0  0  0  0  0  0  # atno 17395 bound_to 11000

$$$$
