AV-unprocessed.smi:33|AV-procd|sdf|202|dock8
  -GOLD-   2262015483D 1   1.00000     0.00000
 Structure written by MMmdl.
 67 72  0  0  0  0  0  0  0  0  1 V2000
  154.4149  140.1977  159.3472 O   0  0  0  0  0  0  0  0  0  0  0  0
  153.2992  140.6151  159.0293 C   0  0  0  0  0  0  0  0  0  0  0  0
  152.4475  139.9359  158.2361 O   0  0  0  0  0  0  0  0  0  0  0  0
  152.7488  138.6039  157.8519 C   0  0  0  0  0  0  0  0  0  0  0  0
  151.8901  138.2067  156.6459 C   0  0  1  0  0  0  0  0  0  0  0  0
  150.5149  138.3915  156.9461 O   0  0  0  0  0  0  0  0  0  0  0  0
  149.7932  138.4463  155.7548 C   0  0  2  0  0  0  0  0  0  0  0  0
  149.3278  137.0521  155.4444 N   0  0  0  0  0  0  0  0  0  0  0  0
  149.8934  136.0857  154.6347 C   0  0  0  0  0  0  0  0  0  0  0  0
  149.2598  134.9447  154.5950 N   0  0  0  0  0  0  0  0  0  0  0  0
  148.1912  135.1253  155.4619 C   0  0  0  0  0  0  0  0  0  0  0  0
  147.1211  134.2990  155.8988 C   0  0  0  0  0  0  0  0  0  0  0  0
  146.9480  133.0302  155.4608 N   0  0  0  0  0  0  0  0  0  0  0  0
  147.3101  132.7415  154.0645 C   0  0  0  0  0  0  0  0  0  0  0  0
  147.3271  133.6586  153.2410 O   0  0  0  0  0  0  0  0  0  0  0  0
  147.6000  131.3344  153.6230 C   0  0  0  0  0  0  0  0  0  0  0  0
  146.7144  130.6752  152.7421 C   0  0  0  0  0  0  0  0  0  0  0  0
  146.9829  129.3597  152.3170 C   0  0  0  0  0  0  0  0  0  0  0  0
  148.1476  128.7013  152.7551 C   0  0  0  0  0  0  0  0  0  0  0  0
  149.0503  129.3633  153.6090 C   0  0  0  0  0  0  0  0  0  0  0  0
  148.7830  130.6791  154.0339 C   0  0  0  0  0  0  0  0  0  0  0  0
  146.4101  132.0618  156.4270 C   0  0  0  0  0  0  0  0  0  0  0  0
  145.7974  131.0727  156.0203 O   0  0  0  0  0  0  0  0  0  0  0  0
  146.5637  132.2930  157.9033 C   0  0  0  0  0  0  0  0  0  0  0  0
  145.5129  131.9571  158.7849 C   0  0  0  0  0  0  0  0  0  0  0  0
  145.6578  132.1591  160.1711 C   0  0  0  0  0  0  0  0  0  0  0  0
  146.8609  132.6787  160.6859 C   0  0  0  0  0  0  0  0  0  0  0  0
  147.9233  132.9877  159.8152 C   0  0  0  0  0  0  0  0  0  0  0  0
  147.7784  132.7886  158.4287 C   0  0  0  0  0  0  0  0  0  0  0  0
  146.2409  134.8155  156.7951 N   0  0  0  0  0  0  0  0  0  0  0  0
  146.3993  136.0680  157.2335 C   0  0  0  0  0  0  0  0  0  0  0  0
  147.3442  136.9540  156.9084 N   0  0  0  0  0  0  0  0  0  0  0  0
  148.2302  136.4368  156.0081 C   0  0  0  0  0  0  0  0  0  0  0  0
  150.7498  138.9857  154.6723 C   0  0  1  0  0  0  0  0  0  0  0  0
  150.3500  140.2514  154.1880 O   0  0  0  0  0  0  0  0  0  0  0  0
  152.0805  139.0912  155.4129 C   0  0  2  0  0  0  0  0  0  0  0  0
  153.0938  138.6688  154.6559 F   0  0  0  0  0  0  0  0  0  0  0  0
  152.7538  141.9278  159.4806 C   0  0  0  0  0  0  0  0  0  0  0  0
  152.8395  142.2795  160.8480 C   0  0  0  0  0  0  0  0  0  0  0  0
  152.3366  143.5132  161.3047 C   0  0  0  0  0  0  0  0  0  0  0  0
  151.7410  144.4104  160.3994 C   0  0  0  0  0  0  0  0  0  0  0  0
  151.6482  144.0720  159.0366 C   0  0  0  0  0  0  0  0  0  0  0  0
  152.1512  142.8386  158.5777 C   0  0  0  0  0  0  0  0  0  0  0  0
  153.8048  138.5395  157.5857 H   0  0  0  0  0  0  0  0  0  0  0  0
  152.5791  137.9200  158.6847 H   0  0  0  0  0  0  0  0  0  0  0  0
  152.0567  137.1575  156.3997 H   0  0  0  0  0  0  0  0  0  0  0  0
  148.8799  139.0317  155.8695 H   0  0  0  0  0  0  0  0  0  0  0  0
  150.7973  136.2451  154.0653 H   0  0  0  0  0  0  0  0  0  0  0  0
  145.8166  131.1701  152.4005 H   0  0  0  0  0  0  0  0  0  0  0  0
  146.2947  128.8559  151.6541 H   0  0  0  0  0  0  0  0  0  0  0  0
  148.3517  127.6917  152.4304 H   0  0  0  0  0  0  0  0  0  0  0  0
  149.9485  128.8620  153.9382 H   0  0  0  0  0  0  0  0  0  0  0  0
  149.4850  131.1779  154.6865 H   0  0  0  0  0  0  0  0  0  0  0  0
  144.5855  131.5580  158.4002 H   0  0  0  0  0  0  0  0  0  0  0  0
  144.8457  131.9145  160.8397 H   0  0  0  0  0  0  0  0  0  0  0  0
  146.9712  132.8326  161.7492 H   0  0  0  0  0  0  0  0  0  0  0  0
  148.8502  133.3762  160.2104 H   0  0  0  0  0  0  0  0  0  0  0  0
  148.6018  133.0246  157.7698 H   0  0  0  0  0  0  0  0  0  0  0  0
  145.6640  136.4094  157.9471 H   0  0  0  0  0  0  0  0  0  0  0  0
  150.8079  138.3000  153.8273 H   0  0  0  0  0  0  0  0  0  0  0  0
  149.4115  140.2472  154.0755 H   0  0  0  0  0  0  0  0  0  0  0  0
  152.2880  140.1207  155.7101 H   0  0  0  0  0  0  0  0  0  0  0  0
  153.2932  141.6075  161.5622 H   0  0  0  0  0  0  0  0  0  0  0  0
  152.4086  143.7706  162.3513 H   0  0  0  0  0  0  0  0  0  0  0  0
  151.3557  145.3565  160.7501 H   0  0  0  0  0  0  0  0  0  0  0  0
  151.1902  144.7599  158.3412 H   0  0  0  0  0  0  0  0  0  0  0  0
  152.0636  142.6099  157.5255 H   0  0  0  0  0  0  0  0  0  0  0  0
  1  2  2  0  0  0  0
  2  3  1  0  0  0  0
  2 38  1  0  0  0  0
  3  4  1  0  0  0  0
  4  5  1  0  0  0  0
  4 44  1  0  0  0  0
  4 45  1  0  0  0  0
  5 36  1  0  0  0  0
  5  6  1  0  0  0  0
  5 46  1  0  0  0  0
  6  7  1  0  0  0  0
  7  8  1  0  0  0  0
  7 34  1  0  0  0  0
  7 47  1  0  0  0  0
  8 33  1  0  0  0  0
  8  9  1  0  0  0  0
  9 10  2  0  0  0  0
  9 48  1  0  0  0  0
 10 11  1  0  0  0  0
 11 33  2  0  0  0  0
 11 12  1  0  0  0  0
 12 13  1  0  0  0  0
 12 30  2  0  0  0  0
 13 14  1  0  0  0  0
 13 22  1  0  0  0  0
 14 15  2  0  0  0  0
 14 16  1  0  0  0  0
 16 21  1  0  0  0  0
 16 17  2  0  0  0  0
 17 18  1  0  0  0  0
 17 49  1  0  0  0  0
 18 19  2  0  0  0  0
 18 50  1  0  0  0  0
 19 20  1  0  0  0  0
 19 51  1  0  0  0  0
 20 21  2  0  0  0  0
 20 52  1  0  0  0  0
 21 53  1  0  0  0  0
 22 23  2  0  0  0  0
 22 24  1  0  0  0  0
 24 29  1  0  0  0  0
 24 25  2  0  0  0  0
 25 26  1  0  0  0  0
 25 54  1  0  0  0  0
 26 27  2  0  0  0  0
 26 55  1  0  0  0  0
 27 28  1  0  0  0  0
 27 56  1  0  0  0  0
 28 29  2  0  0  0  0
 28 57  1  0  0  0  0
 29 58  1  0  0  0  0
 30 31  1  0  0  0  0
 31 32  2  0  0  0  0
 31 59  1  0  0  0  0
 32 33  1  0  0  0  0
 34 35  1  0  0  0  0
 34 36  1  0  0  0  0
 34 60  1  0  0  0  0
 35 61  1  0  0  0  0
 36 37  1  0  0  0  0
 36 62  1  0  0  0  0
 38 43  1  0  0  0  0
 38 39  2  0  0  0  0
 39 40  1  0  0  0  0
 39 63  1  0  0  0  0
 40 41  2  0  0  0  0
 40 64  1  0  0  0  0
 41 42  1  0  0  0  0
 41 65  1  0  0  0  0
 42 43  2  0  0  0  0
 42 66  1  0  0  0  0
 43 67  1  0  0  0  0
M  END
> <s_m_source_file>
AV-unprocessed.smi

> <i_m_source_file_index>
33

> <i_lp_mmshare_version>
43012

> <i_f3d_flags>
0

> <s_epik_input>
W2NIXTFbY0hdW2NIXVtjSF1bY0hdYzFDKD1PKU9bQ0gyXVtDQEBIXTJPW0NASF0oW0NAQEhdKFtPSF0pW0NAQEhdMkYpbihbY0hdbjMpYyhjMzQpbltjSF1uYzROKEMoPU8pYzVbY0hdW2NIXVtjSF1bY0hdW2NIXTUpQyg9TyljNltjSF1bY0hdW2NIXVtjSF1bY0hdNg==

> <s_epik_cmdline>
J2VwaWtfcHl0aG9uJywgJy1waCcsICc3LjAnLCAnLXRuJywgJzgnLCAnLW1hJywgJzIwMCcsICctbWV0YWxfYmluZGluZycsICctaW1hZScsICc8aW5maWxlLm1hZT4nLCAnLW9tYWUnLCAnPG91dGZpbGUubWFlPic=

> <r_lp_tautomer_probability>
1

> <r_epik_Ionization_Penalty>
0.00067664

> <r_epik_Ionization_Penalty_Charging>
0

> <r_epik_Ionization_Penalty_Neutral>
0.00067664

> <r_epik_State_Penalty>
0.000428095

> <r_epik_Charging_Adjusted_Penalty>
0.000428095

> <i_epik_Tot_Q>
0

> <i_epik_Tot_abs_Q>
0

> <r_epik_Metal_State_Penalty>
-0

> <b_epik_Metal_Only>
0

> <s_epik_Chemistry_Notes>
This compound has an ester and may undergo hydrolysis at high or low pH. This compound contains an acetal/aminal-like group ( X-CH(R)-Y where X, Y are N, S, or O) that may be acid/base labile, releasing an aldehyde.

> <s_lp_Force_Field>
OPLS_2005

> <r_lp_Energy>
69.1038

> <b_lp_Chiralities_Consistent>
1

> <s_lp_Variant>
AV-unprocessed.smi:33-4

> <Gold.Version>
5.8.1

> <Gold.Id.Protein>
6NUR|6NUR_protein|mol2

> <Gold.PLP.Fitness>
56.7176

> <Gold.PLP.PLP>
-54.7940

> <Gold.PLP.part.hbond>
-2.7493

> <Gold.PLP.part.metal>
0.0000

> <Gold.PLP.part.buried>
-5.0814

> <Gold.PLP.part.nonpolar>
-46.8963

> <Gold.PLP.part.repulsive>
0.7025

> <Gold.PLP.ligand.clash>
0.0000

> <Gold.PLP.ligand.torsion>
4.4032

> <Gold.PLP.Chemscore.Hbond>
1.7306

> <Gold.PLP.Chemscore.CHOScore>
0.6022

> <Gold.PLP.Chemscore.Metal>
0.0000

> <Gold.Chemscore.Hbonds>
donor molecule, donor type, donor heavy atom, donor atom, acceptor molecule, acceptor atom, score
      P1  H  7989  7998       L1    35  1.00
      P1  H  7997  8009       L1     1  0.53
      L1  C     9    48       P1  7948  0.01
      L1  C     9    48       P1  7949  0.60

> <Gold.PLP.Chemscore.Internal.Correction>
3.7316

> <Gold.Rescore>
     Score         DG    S(hbond)    S(metal)    S(lipo)     H(rot)  DE(clash)    DE(int)     intcor
      7.90     -19.26       0.93        0.00     146.51       2.52       0.07      11.29       ----

> <Gold.Chemscore.Fitness>
7.9036

> <Gold.Chemscore.DG>
-19.2580

> <Gold.Chemscore.ZeroCoef>
-5.4800

> <Gold.Chemscore.Hbond>
0.9279

> <Gold.Chemscore.Metal>
0.0000

> <Gold.Chemscore.Lipo>
146.5145

> <Gold.Chemscore.Internal_Hbond>
0.0000

> <Gold.Chemscore.DEClash>
0.0662

> <Gold.Chemscore.DEInternal>
11.2883

> <Gold.Chemscore.Rot>
2.5247

> <Gold.Chemscore.Internal.Correction>
   9.000000E+99

> <Gold.Chemscore.Hbonds>
donor molecule, donor type, donor heavy atom, donor atom, acceptor molecule, acceptor atom, score
      P1  H  7989  7998       L1    35  0.51
      P1  H  7997  8009       L1     1  0.12

> <Gold.Chemscore.Hbond.Weighted>
-3.0991

> <Gold.Chemscore.Metal.Weighted>
-0.0000

> <Gold.Chemscore.Lipo.Weighted>
-17.1422

> <Gold.Chemscore.Internal_Hbond.Weighted>
0.0000

> <Gold.Chemscore.DEClash.Weighted>
0.0662

> <Gold.Chemscore.DEInternal.Weighted>
11.2883

> <Gold.Chemscore.Rot.Weighted>
6.4633

> <Gold.Chemscore.Internal.Correction.Weighted>
   9.000000E+99

> <Gold.Protein.RotatedTorsions>
[ 6907 6896 6895 6894 ] final -174.64 input  -60.11 | X-H torsion
[ 7974 7965 7964 7962 ] final -150.96 input  175.53 | X-H torsion
[ 8008 7997 7996 7995 ] final  109.22 input   59.86 | X-H torsion
[ 10167 10162 10161 10158 ] final   21.86 input  -65.29 | X-H torsion
[ 10718 10713 10712 10709 ] final  158.09 input   66.30 | X-H torsion
[ 10763 10752 10751 10750 ] final -120.19 input  -60.55 | X-H torsion
[ 11005 11000 10999 10996 ] final -136.82 input  -57.11 | X-H torsion

> <Gold.Protein.ActiveResidues>
 VAL166  LYS551  ARG553  GLY616  TRP617  ASP618  TYR619  PRO620  LYS621  CYS622 
 ASP623  PHE694  ASN695  SER759  ASP760  ASP761  ALA762  ILE779  LEU786  VAL792 
 PHE793  MET794  SER795  GLU796  ALA797  LYS798  CYS799  TRP800  GLU811  SER814 

> <Gold.Protein.RotatedAtoms>
  151.5756  133.3384  159.2997 H   0  0  0  0  0  0  0  0  0  0  0  0  # atno 6907 bound_to 6896
  150.8342  134.7612  159.6891 H   0  0  0  0  0  0  0  0  0  0  0  0  # atno 6908 bound_to 6896
  152.4421  134.5575  159.9936 H   0  0  0  0  0  0  0  0  0  0  0  0  # atno 6909 bound_to 6896
  144.7877  140.4861  143.5794 H   0  0  0  0  0  0  0  0  0  0  0  0  # atno 7974 bound_to 7965
  156.1963  140.3062  155.9434 H   0  0  0  0  0  0  0  0  0  0  0  0  # atno 8008 bound_to 7997
  155.3058  140.0448  157.3049 H   0  0  0  0  0  0  0  0  0  0  0  0  # atno 8009 bound_to 7997
  154.5514  140.2292  155.8488 H   0  0  0  0  0  0  0  0  0  0  0  0  # atno 8010 bound_to 7997
  140.5394  143.9704  150.6510 H   0  0  0  0  0  0  0  0  0  0  0  0  # atno 10167 bound_to 10162
  157.1827  131.0636  151.2123 H   0  0  0  0  0  0  0  0  0  0  0  0  # atno 10718 bound_to 10713
  154.8637  135.4212  154.2420 H   0  0  0  0  0  0  0  0  0  0  0  0  # atno 10763 bound_to 10752
  153.3383  135.6992  153.6894 H   0  0  0  0  0  0  0  0  0  0  0  0  # atno 10764 bound_to 10752
  153.5883  135.3559  155.2874 H   0  0  0  0  0  0  0  0  0  0  0  0  # atno 10765 bound_to 10752
  140.8769  134.1981  157.4616 H   0  0  0  0  0  0  0  0  0  0  0  0  # atno 11005 bound_to 11000
  145.5877  139.1493  143.3199 LP  0  0  0  0  0  0  0  0  0  0  0  0  # atno 17320 bound_to 7965
  146.2116  140.6005  142.9057 LP  0  0  0  0  0  0  0  0  0  0  0  0  # atno 17321 bound_to 7965
  140.3100  143.3204  152.0888 LP  0  0  0  0  0  0  0  0  0  0  0  0  # atno 17342 bound_to 10162
  139.4983  144.6642  151.6394 LP  0  0  0  0  0  0  0  0  0  0  0  0  # atno 17343 bound_to 10162
  157.3937  130.7296  149.6716 LP  0  0  0  0  0  0  0  0  0  0  0  0  # atno 17370 bound_to 10713
  155.9722  130.4139  150.4107 LP  0  0  0  0  0  0  0  0  0  0  0  0  # atno 17371 bound_to 10713
  139.8716  134.9800  156.5057 LP  0  0  0  0  0  0  0  0  0  0  0  0  # atno 17394 bound_to 11000
  140.8507  133.8134  155.9166 LP  0  0  0  0  0  0  0  0  0  0  0  0  # atno 17395 bound_to 11000

$$$$
