AV-unprocessed.smi:2735|AV-procd|sdf|10543|dock2
  -GOLD-   2272014593D 1   1.00000     0.00000
 Structure written by MMmdl.
 42 42  0  0  0  0  0  0  0  0  2 V2000
  151.5487  144.4965  158.2355 C   0  0  0  0  0  0  0  0  0  0  0  0
  152.0827  143.7305  159.4095 C   0  0  0  0  0  0  0  0  0  0  0  0
  152.1688  144.1440  160.7672 C   0  0  0  0  0  0  0  0  0  0  0  0
  152.7145  143.0709  161.4133 C   0  0  0  0  0  0  0  0  0  0  0  0
  153.0285  142.8884  162.8625 C   0  0  0  0  0  0  0  0  0  0  0  0
  152.9444  142.0941  160.4571 N   0  0  0  0  0  0  0  0  0  0  0  0
  153.4545  140.7331  160.6353 C   0  0  2  0  0  0  0  0  0  0  0  0
  154.7854  140.7122  161.4159 C   0  0  0  0  0  0  0  0  0  0  0  0
  153.5399  140.0159  159.2764 C   0  0  0  0  0  0  0  0  0  0  0  0
  154.6042  139.9452  158.6606 O   0  0  0  0  0  0  0  0  0  0  0  0
  152.3905  139.4953  158.8195 N   0  0  0  0  0  0  0  0  0  0  0  0
  152.1943  138.8310  157.5341 C   0  0  2  0  0  0  0  0  0  0  0  0
  150.7872  139.1936  156.9997 C   0  0  0  0  0  0  0  0  0  0  0  0
  150.7531  139.7655  155.5619 C   0  0  0  0  0  0  0  0  0  0  0  0
  149.5126  140.6491  155.3622 C   0  0  0  0  0  0  0  0  0  0  0  0
  150.8136  138.6689  154.4856 C   0  0  0  0  0  0  0  0  0  0  0  0
  152.2645  137.3072  157.7237 C   0  0  0  0  0  0  0  0  0  0  0  0
  152.0690  136.8718  158.8793 O   0  0  0  0  0  0  0  0  0  0  0  0
  152.5185  136.6032  156.7196 O   0  5  0  0  0  0  0  0  0  0  0  0
  152.5436  142.5049  159.2309 N   0  0  0  0  0  0  0  0  0  0  0  0
  152.9591  139.1401  156.8197 H   0  0  0  0  0  0  0  0  0  0  0  0
  151.0453  145.4088  158.5564 H   0  0  0  0  0  0  0  0  0  0  0  0
  150.8284  143.9024  157.6722 H   0  0  0  0  0  0  0  0  0  0  0  0
  152.3521  144.7813  157.5557 H   0  0  0  0  0  0  0  0  0  0  0  0
  151.8648  145.0838  161.2036 H   0  0  0  0  0  0  0  0  0  0  0  0
  152.7581  143.7762  163.4341 H   0  0  0  0  0  0  0  0  0  0  0  0
  154.0933  142.7078  163.0103 H   0  0  0  0  0  0  0  0  0  0  0  0
  152.4784  142.0446  163.2783 H   0  0  0  0  0  0  0  0  0  0  0  0
  152.7295  140.1804  161.2330 H   0  0  0  0  0  0  0  0  0  0  0  0
  155.1076  139.6896  161.6163 H   0  0  0  0  0  0  0  0  0  0  0  0
  154.6789  141.2137  162.3781 H   0  0  0  0  0  0  0  0  0  0  0  0
  155.5883  141.2103  160.8707 H   0  0  0  0  0  0  0  0  0  0  0  0
  151.5718  139.5833  159.4031 H   0  0  0  0  0  0  0  0  0  0  0  0
  150.1510  138.3078  157.0423 H   0  0  0  0  0  0  0  0  0  0  0  0
  150.3239  139.9231  157.6669 H   0  0  0  0  0  0  0  0  0  0  0  0
  151.6214  140.4106  155.4226 H   0  0  0  0  0  0  0  0  0  0  0  0
  148.5937  140.0732  155.4764 H   0  0  0  0  0  0  0  0  0  0  0  0
  149.5042  141.0972  154.3682 H   0  0  0  0  0  0  0  0  0  0  0  0
  149.4885  141.4627  156.0878 H   0  0  0  0  0  0  0  0  0  0  0  0
  149.9983  137.9542  154.6008 H   0  0  0  0  0  0  0  0  0  0  0  0
  151.7526  138.1172  154.5292 H   0  0  0  0  0  0  0  0  0  0  0  0
  150.7426  139.0977  153.4858 H   0  0  0  0  0  0  0  0  0  0  0  0
  1  2  1  0  0  0  0
  1 22  1  0  0  0  0
  1 23  1  0  0  0  0
  1 24  1  0  0  0  0
  2 20  2  0  0  0  0
  2  3  1  0  0  0  0
  3  4  2  0  0  0  0
  3 25  1  0  0  0  0
  4  5  1  0  0  0  0
  4  6  1  0  0  0  0
  5 26  1  0  0  0  0
  5 27  1  0  0  0  0
  5 28  1  0  0  0  0
  6  7  1  0  0  0  0
  6 20  1  0  0  0  0
  7  8  1  0  0  0  0
  7  9  1  0  0  0  0
  7 29  1  0  0  0  0
  8 30  1  0  0  0  0
  8 31  1  0  0  0  0
  8 32  1  0  0  0  0
  9 10  2  0  0  0  0
  9 11  1  0  0  0  0
 11 12  1  0  0  0  0
 11 33  1  0  0  0  0
 12 21  1  0  0  0  0
 12 13  1  0  0  0  0
 12 17  1  0  0  0  0
 13 14  1  0  0  0  0
 13 34  1  0  0  0  0
 13 35  1  0  0  0  0
 14 15  1  0  0  0  0
 14 16  1  0  0  0  0
 14 36  1  0  0  0  0
 15 37  1  0  0  0  0
 15 38  1  0  0  0  0
 15 39  1  0  0  0  0
 16 40  1  0  0  0  0
 16 41  1  0  0  0  0
 16 42  1  0  0  0  0
 17 18  2  0  0  0  0
 17 19  1  0  0  0  0
M  CHG  1  19  -1
M  END
> <s_m_source_file>
AV-unprocessed.smi

> <i_m_source_file_index>
2735

> <i_lp_mmshare_version>
43012

> <i_f3d_flags>
0

> <s_epik_input>
W0NIM11jMVtjSF1jKFtDSDNdKW4objEpW0NASF0oW0NIM10pQyg9TylbTkhdW0NASF0oQyg9TylbT0hdKVtDSDJdW0NIXShbQ0gzXSlbQ0gzXQ==

> <s_epik_cmdline>
J2VwaWtfcHl0aG9uJywgJy1waCcsICc3LjAnLCAnLXRuJywgJzgnLCAnLW1hJywgJzIwMCcsICctbWV0YWxfYmluZGluZycsICctaW1hZScsICc8aW5maWxlLm1hZT4nLCAnLW9tYWUnLCAnPG91dGZpbGUubWFlPic=

> <r_lp_tautomer_probability>
1

> <r_epik_Ionization_Penalty>
0.0012303

> <r_epik_Ionization_Penalty_Charging>
0.000186407

> <r_epik_Ionization_Penalty_Neutral>
0.0010439

> <r_epik_State_Penalty>
-0

> <r_epik_Charging_Adjusted_Penalty>
0.000186407

> <i_epik_Tot_Q>
-1

> <i_epik_Tot_abs_Q>
1

> <r_epik_Metal_State_Penalty>
-0

> <b_epik_Metal_Only>
0

> <s_lp_Force_Field>
OPLS_2005

> <r_lp_Energy>
6.45659

> <b_lp_Chiralities_Consistent>
1

> <s_lp_Variant>
AV-unprocessed.smi:2735-3

> <Gold.Version>
5.8.1

> <Gold.Id.Protein>
6NUR|6NUR_protein|mol2

> <Gold.PLP.Fitness>
53.9269

> <Gold.PLP.PLP>
-45.1502

> <Gold.PLP.part.hbond>
-2.7615

> <Gold.PLP.part.metal>
0.0000

> <Gold.PLP.part.buried>
-3.5146

> <Gold.PLP.part.nonpolar>
-38.1629

> <Gold.PLP.part.repulsive>
0.0923

> <Gold.PLP.ligand.clash>
0.0000

> <Gold.PLP.ligand.torsion>
2.6818

> <Gold.PLP.Chemscore.Hbond>
4.6465

> <Gold.PLP.Chemscore.CHOScore>
0.0000

> <Gold.PLP.Chemscore.Metal>
0.0000

> <Gold.Chemscore.Hbonds>
donor molecule, donor type, donor heavy atom, donor atom, acceptor molecule, acceptor atom, score
      P1  H  6896  6907       L1    18  1.33
      P1  H  7997  8010       L1    10  0.74
      P1  H 10752 10763       L1    19  1.66

> <Gold.PLP.Chemscore.Internal.Correction>
0.2008

> <Gold.Rescore>
     Score         DG    S(hbond)    S(metal)    S(lipo)     H(rot)  DE(clash)    DE(int)     intcor
     19.12     -21.68       2.69        0.00     110.79       2.24       0.02       2.54       ----

> <Gold.Chemscore.Fitness>
19.1189

> <Gold.Chemscore.DG>
-21.6812

> <Gold.Chemscore.ZeroCoef>
-5.4800

> <Gold.Chemscore.Hbond>
2.6856

> <Gold.Chemscore.Metal>
0.0000

> <Gold.Chemscore.Lipo>
110.7914

> <Gold.Chemscore.Internal_Hbond>
0.0000

> <Gold.Chemscore.DEClash>
0.0212

> <Gold.Chemscore.DEInternal>
2.5411

> <Gold.Chemscore.Rot>
2.2388

> <Gold.Chemscore.Internal.Correction>
   9.000000E+99

> <Gold.Chemscore.Hbonds>
donor molecule, donor type, donor heavy atom, donor atom, acceptor molecule, acceptor atom, score
      P1  H  6896  6907       L1    18  0.65
      P1  H  7997  8010       L1    10  0.73
      P1  H 10752 10763       L1    19  0.77

> <Gold.Chemscore.Hbond.Weighted>
-8.9699

> <Gold.Chemscore.Metal.Weighted>
-0.0000

> <Gold.Chemscore.Lipo.Weighted>
-12.9626

> <Gold.Chemscore.Internal_Hbond.Weighted>
0.0000

> <Gold.Chemscore.DEClash.Weighted>
0.0212

> <Gold.Chemscore.DEInternal.Weighted>
2.5411

> <Gold.Chemscore.Rot.Weighted>
5.7314

> <Gold.Chemscore.Internal.Correction.Weighted>
   9.000000E+99

> <Gold.Protein.RotatedTorsions>
[ 6907 6896 6895 6894 ] final   -8.83 input  -60.11 | X-H torsion
[ 7974 7965 7964 7962 ] final -133.86 input  175.53 | X-H torsion
[ 8008 7997 7996 7995 ] final   20.53 input   59.86 | X-H torsion
[ 10167 10162 10161 10158 ] final  144.64 input  -65.29 | X-H torsion
[ 10718 10713 10712 10709 ] final  166.12 input   66.30 | X-H torsion
[ 10763 10752 10751 10750 ] final  117.27 input  -60.55 | X-H torsion
[ 11005 11000 10999 10996 ] final -149.41 input  -57.11 | X-H torsion

> <Gold.Protein.ActiveResidues>
 VAL166  LYS551  ARG553  GLY616  TRP617  ASP618  TYR619  PRO620  LYS621  CYS622 
 ASP623  PHE694  ASN695  SER759  ASP760  ASP761  ALA762  ILE779  LEU786  VAL792 
 PHE793  MET794  SER795  GLU796  ALA797  LYS798  CYS799  TRP800  GLU811  SER814 

> <Gold.Protein.RotatedAtoms>
  151.4274  135.1005  159.9631 H   0  0  0  0  0  0  0  0  0  0  0  0  # atno 6907 bound_to 6896
  152.4968  133.8650  159.7280 H   0  0  0  0  0  0  0  0  0  0  0  0  # atno 6908 bound_to 6896
  150.9180  133.6858  159.2866 H   0  0  0  0  0  0  0  0  0  0  0  0  # atno 6909 bound_to 6896
  144.9155  140.6949  143.4998 H   0  0  0  0  0  0  0  0  0  0  0  0  # atno 7974 bound_to 7965
  154.9370  140.3048  155.5139 H   0  0  0  0  0  0  0  0  0  0  0  0  # atno 8008 bound_to 7997
  156.2999  140.2343  156.4373 H   0  0  0  0  0  0  0  0  0  0  0  0  # atno 8009 bound_to 7997
  154.8182  140.0425  157.1380 H   0  0  0  0  0  0  0  0  0  0  0  0  # atno 8010 bound_to 7997
  139.4942  144.5957  151.6587 H   0  0  0  0  0  0  0  0  0  0  0  0  # atno 10167 bound_to 10162
  157.0704  131.0364  151.2614 H   0  0  0  0  0  0  0  0  0  0  0  0  # atno 10718 bound_to 10713
  153.5498  135.3542  155.2754 H   0  0  0  0  0  0  0  0  0  0  0  0  # atno 10763 bound_to 10752
  154.8708  135.4111  154.2950 H   0  0  0  0  0  0  0  0  0  0  0  0  # atno 10764 bound_to 10752
  153.3674  135.7062  153.6733 H   0  0  0  0  0  0  0  0  0  0  0  0  # atno 10765 bound_to 10752
  140.7511  134.3406  157.5125 H   0  0  0  0  0  0  0  0  0  0  0  0  # atno 11005 bound_to 11000
  145.3383  139.1739  143.4499 LP  0  0  0  0  0  0  0  0  0  0  0  0  # atno 17320 bound_to 7965
  146.3179  140.3421  142.8649 LP  0  0  0  0  0  0  0  0  0  0  0  0  # atno 17321 bound_to 7965
  140.5595  144.0292  150.6163 LP  0  0  0  0  0  0  0  0  0  0  0  0  # atno 17342 bound_to 10162
  140.3373  143.3041  152.0624 LP  0  0  0  0  0  0  0  0  0  0  0  0  # atno 17343 bound_to 10162
  157.4883  130.7806  149.7482 LP  0  0  0  0  0  0  0  0  0  0  0  0  # atno 17370 bound_to 10713
  155.9952  130.3913  150.2828 LP  0  0  0  0  0  0  0  0  0  0  0  0  # atno 17371 bound_to 10713
  139.8787  134.9142  156.3102 LP  0  0  0  0  0  0  0  0  0  0  0  0  # atno 17394 bound_to 11000
  140.9750  133.7303  156.0589 LP  0  0  0  0  0  0  0  0  0  0  0  0  # atno 17395 bound_to 11000

$$$$
