AV-unprocessed.smi:2424|AV-procd|sdf|9567|dock9
  -GOLD-   2272013203D 1   1.00000     0.00000
 Structure written by MMmdl.
 49 50  0  0  0  0  0  0  0  0  2 V2000
  150.6290  139.4988  154.7180 C   0  0  0  0  0  0  0  0  0  0  0  0
  149.3464  138.9607  154.0634 C   0  0  0  0  0  0  0  0  0  0  0  0
  148.0335  139.2792  154.8266 C   0  0  0  0  0  0  0  0  0  0  0  0
  147.9859  140.8008  155.1120 C   0  0  0  0  0  0  0  0  0  0  0  0
  147.7667  141.6959  153.8806 C   0  0  0  0  0  0  0  0  0  0  0  0
  146.7044  138.7066  154.2512 C   0  0  1  0  0  0  0  0  0  0  0  0
  146.8903  137.5116  153.4255 N   0  0  0  0  0  0  0  0  0  0  0  0
  145.9122  136.7141  152.9781 C   0  0  0  0  0  0  0  0  0  0  0  0
  144.7219  136.8918  153.2359 O   0  0  0  0  0  0  0  0  0  0  0  0
  146.4172  135.7265  152.2183 N   0  0  0  0  0  0  0  0  0  0  0  0
  145.7402  134.6807  151.5786 C   0  0  0  0  0  0  0  0  0  0  0  0
  144.3989  134.4671  151.8231 C   0  0  0  0  0  0  0  0  0  0  0  0
  143.5838  133.5209  151.3088 N   0  5  0  0  0  0  0  0  0  0  0  0
  144.1125  132.6319  150.4199 C   0  0  0  0  0  0  0  0  0  0  0  0
  143.4326  131.7389  149.9153 O   0  0  0  0  0  0  0  0  0  0  0  0
  145.5391  132.7507  150.0568 C   0  0  0  0  0  0  0  0  0  0  0  0
  146.1217  131.7678  149.0557 C   0  0  0  0  0  0  0  0  0  0  0  0
  146.2946  133.7280  150.6172 C   0  0  0  0  0  0  0  0  0  0  0  0
  146.2593  138.3514  155.6802 C   0  0  1  0  0  0  0  0  0  0  0  0
  145.4077  137.1146  155.9596 C   0  0  0  0  0  0  0  0  0  0  0  0
  147.7456  138.4084  156.0805 C   0  0  1  0  0  0  0  0  0  0  0  0
  148.3817  137.1368  156.0056 O   0  0  0  0  0  0  0  0  0  0  0  0
  148.1137  136.3124  157.1270 C   0  0  0  0  0  0  0  0  0  0  0  0
  151.5088  139.1244  154.1944 H   0  0  0  0  0  0  0  0  0  0  0  0
  150.7074  139.1838  155.7587 H   0  0  0  0  0  0  0  0  0  0  0  0
  150.6786  140.5867  154.6871 H   0  0  0  0  0  0  0  0  0  0  0  0
  149.2895  139.3090  153.0327 H   0  0  0  0  0  0  0  0  0  0  0  0
  149.4805  137.8831  153.9717 H   0  0  0  0  0  0  0  0  0  0  0  0
  147.1790  141.0184  155.8115 H   0  0  0  0  0  0  0  0  0  0  0  0
  148.8846  141.1254  155.6357 H   0  0  0  0  0  0  0  0  0  0  0  0
  147.6212  142.7325  154.1852 H   0  0  0  0  0  0  0  0  0  0  0  0
  146.8860  141.3944  153.3141 H   0  0  0  0  0  0  0  0  0  0  0  0
  148.6235  141.6794  153.2078 H   0  0  0  0  0  0  0  0  0  0  0  0
  146.0622  139.4644  153.8004 H   0  0  0  0  0  0  0  0  0  0  0  0
  147.8398  137.2876  153.1653 H   0  0  0  0  0  0  0  0  0  0  0  0
  147.4170  135.7319  152.0786 H   0  0  0  0  0  0  0  0  0  0  0  0
  143.9084  135.1565  152.5439 H   0  0  0  0  0  0  0  0  0  0  0  0
  147.1752  131.9729  148.8635 H   0  0  0  0  0  0  0  0  0  0  0  0
  145.5885  131.8292  148.1066 H   0  0  0  0  0  0  0  0  0  0  0  0
  146.0400  130.7476  149.4320 H   0  0  0  0  0  0  0  0  0  0  0  0
  147.3295  133.7883  150.3223 H   0  0  0  0  0  0  0  0  0  0  0  0
  145.7601  139.2255  156.1014 H   0  0  0  0  0  0  0  0  0  0  0  0
  145.8950  136.1977  155.6275 H   0  0  0  0  0  0  0  0  0  0  0  0
  144.4475  137.1779  155.4474 H   0  0  0  0  0  0  0  0  0  0  0  0
  145.2039  137.0107  157.0251 H   0  0  0  0  0  0  0  0  0  0  0  0
  147.9397  138.9354  157.0168 H   0  0  0  0  0  0  0  0  0  0  0  0
  148.5903  135.3422  156.9886 H   0  0  0  0  0  0  0  0  0  0  0  0
  147.0446  136.1466  157.2594 H   0  0  0  0  0  0  0  0  0  0  0  0
  148.5131  136.7553  158.0401 H   0  0  0  0  0  0  0  0  0  0  0  0
  1  2  1  0  0  0  0
  1 24  1  0  0  0  0
  1 25  1  0  0  0  0
  1 26  1  0  0  0  0
  2  3  1  0  0  0  0
  2 27  1  0  0  0  0
  2 28  1  0  0  0  0
  3 21  1  0  0  0  0
  3  4  1  0  0  0  0
  3  6  1  0  0  0  0
  4  5  1  0  0  0  0
  4 29  1  0  0  0  0
  4 30  1  0  0  0  0
  5 31  1  0  0  0  0
  5 32  1  0  0  0  0
  5 33  1  0  0  0  0
  6  7  1  0  0  0  0
  6 19  1  0  0  0  0
  6 34  1  0  0  0  0
  7  8  1  0  0  0  0
  7 35  1  0  0  0  0
  8  9  2  0  0  0  0
  8 10  1  0  0  0  0
 10 11  1  0  0  0  0
 10 36  1  0  0  0  0
 11 18  1  0  0  0  0
 11 12  2  0  0  0  0
 12 13  1  0  0  0  0
 12 37  1  0  0  0  0
 13 14  1  0  0  0  0
 14 15  2  0  0  0  0
 14 16  1  0  0  0  0
 16 17  1  0  0  0  0
 16 18  2  0  0  0  0
 17 38  1  0  0  0  0
 17 39  1  0  0  0  0
 17 40  1  0  0  0  0
 18 41  1  0  0  0  0
 19 20  1  0  0  0  0
 19 21  1  0  0  0  0
 19 42  1  0  0  0  0
 20 43  1  0  0  0  0
 20 44  1  0  0  0  0
 20 45  1  0  0  0  0
 21 22  1  0  0  0  0
 21 46  1  0  0  0  0
 22 23  1  0  0  0  0
 23 47  1  0  0  0  0
 23 48  1  0  0  0  0
 23 49  1  0  0  0  0
M  CHG  1  13  -1
M  END
> <s_m_source_file>
AV-unprocessed.smi

> <i_m_source_file_index>
2424

> <i_lp_mmshare_version>
43012

> <i_f3d_flags>
0

> <s_epik_input>
W0NIM11PW0NAQEhdMVtDQEhdKFtDSDNdKVtDQEBIXShDMShbQ0gyXVtDSDNdKVtDSDJdW0NIM10pW05IXUMoPU8pW05IXWMyW2NIXVtuSF1jKD1PKWMoW0NIM10pW2NIXTI=

> <s_epik_cmdline>
J2VwaWtfcHl0aG9uJywgJy1waCcsICc3LjAnLCAnLXRuJywgJzgnLCAnLW1hJywgJzIwMCcsICctbWV0YWxfYmluZGluZycsICctaW1hZScsICc8aW5maWxlLm1hZT4nLCAnLW9tYWUnLCAnPG91dGZpbGUubWFlPic=

> <r_lp_tautomer_probability>
1

> <r_epik_Ionization_Penalty>
7.6122

> <r_epik_Ionization_Penalty_Charging>
1.53843

> <r_epik_Ionization_Penalty_Neutral>
6.07377

> <r_epik_State_Penalty>
6.07371

> <r_epik_Charging_Adjusted_Penalty>
7.61214

> <i_epik_Tot_Q>
-1

> <i_epik_Tot_abs_Q>
1

> <r_epik_Metal_State_Penalty>
2.02136

> <b_epik_Metal_Only>
1

> <s_lp_Force_Field>
OPLS_2005

> <r_lp_Energy>
42.7103

> <b_lp_Chiralities_Consistent>
1

> <s_lp_Variant>
AV-unprocessed.smi:2424-9

> <Gold.Version>
5.8.1

> <Gold.Id.Protein>
6NUR|6NUR_protein|mol2

> <Gold.PLP.Fitness>
37.3581

> <Gold.PLP.PLP>
-28.9897

> <Gold.PLP.part.hbond>
-3.0000

> <Gold.PLP.part.metal>
0.0000

> <Gold.PLP.part.buried>
-2.5716

> <Gold.PLP.part.nonpolar>
-23.0933

> <Gold.PLP.part.repulsive>
1.4841

> <Gold.PLP.ligand.clash>
0.0000

> <Gold.PLP.ligand.torsion>
0.4277

> <Gold.PLP.Chemscore.Hbond>
2.8640

> <Gold.PLP.Chemscore.CHOScore>
0.0000

> <Gold.PLP.Chemscore.Metal>
0.0000

> <Gold.Chemscore.Hbonds>
donor molecule, donor type, donor heavy atom, donor atom, acceptor molecule, acceptor atom, score
      L1  H     7    35       P1  7948  0.88
      L1  H    10    36       P1  7948  1.00
      P1  H 10785 10796       L1    15  1.00

> <Gold.PLP.Chemscore.Internal.Correction>
0.6318

> <Gold.Rescore>
     Score         DG    S(hbond)    S(metal)    S(lipo)     H(rot)  DE(clash)    DE(int)     intcor
     14.89     -19.39       2.71        0.00      74.69       1.52       0.37       4.13       ----

> <Gold.Chemscore.Fitness>
14.8900

> <Gold.Chemscore.DG>
-19.3854

> <Gold.Chemscore.ZeroCoef>
-5.4800

> <Gold.Chemscore.Hbond>
2.7122

> <Gold.Chemscore.Metal>
0.0000

> <Gold.Chemscore.Lipo>
74.6912

> <Gold.Chemscore.Internal_Hbond>
0.0000

> <Gold.Chemscore.DEClash>
0.3685

> <Gold.Chemscore.DEInternal>
4.1268

> <Gold.Chemscore.Rot>
1.5204

> <Gold.Chemscore.Internal.Correction>
   9.000000E+99

> <Gold.Chemscore.Hbonds>
donor molecule, donor type, donor heavy atom, donor atom, acceptor molecule, acceptor atom, score
      L1  H     7    35       P1  7948  0.82
      L1  H    10    36       P1  7948  0.98
      P1  H 10785 10796       L1    15  0.93

> <Gold.Chemscore.Hbond.Weighted>
-9.0587

> <Gold.Chemscore.Metal.Weighted>
-0.0000

> <Gold.Chemscore.Lipo.Weighted>
-8.7389

> <Gold.Chemscore.Internal_Hbond.Weighted>
0.0000

> <Gold.Chemscore.DEClash.Weighted>
0.3685

> <Gold.Chemscore.DEInternal.Weighted>
4.1268

> <Gold.Chemscore.Rot.Weighted>
3.8922

> <Gold.Chemscore.Internal.Correction.Weighted>
   9.000000E+99

> <Gold.Protein.RotatedTorsions>
[ 6907 6896 6895 6894 ] final   -8.81 input  -60.11 | X-H torsion
[ 7974 7965 7964 7962 ] final    9.09 input  175.53 | X-H torsion
[ 8008 7997 7996 7995 ] final  -52.98 input   59.86 | X-H torsion
[ 10167 10162 10161 10158 ] final  -46.68 input  -65.29 | X-H torsion
[ 10718 10713 10712 10709 ] final  -41.20 input   66.30 | X-H torsion
[ 10763 10752 10751 10750 ] final   55.53 input  -60.55 | X-H torsion
[ 11005 11000 10999 10996 ] final   48.79 input  -57.11 | X-H torsion

> <Gold.Protein.ActiveResidues>
 VAL166  LYS551  ARG553  GLY616  TRP617  ASP618  TYR619  PRO620  LYS621  CYS622 
 ASP623  PHE694  ASN695  SER759  ASP760  ASP761  ALA762  ILE779  LEU786  VAL792 
 PHE793  MET794  SER795  GLU796  ALA797  LYS798  CYS799  TRP800  GLU811  SER814 

> <Gold.Protein.RotatedAtoms>
  151.4277  135.1006  159.9632 H   0  0  0  0  0  0  0  0  0  0  0  0  # atno 6907 bound_to 6896
  152.4967  133.8647  159.7278 H   0  0  0  0  0  0  0  0  0  0  0  0  # atno 6908 bound_to 6896
  150.9178  133.6860  159.2867 H   0  0  0  0  0  0  0  0  0  0  0  0  # atno 6909 bound_to 6896
  146.2408  139.9836  142.8433 H   0  0  0  0  0  0  0  0  0  0  0  0  # atno 7974 bound_to 7965
  154.4121  140.1211  156.5080 H   0  0  0  0  0  0  0  0  0  0  0  0  # atno 8008 bound_to 7997
  155.6828  140.3496  155.4843 H   0  0  0  0  0  0  0  0  0  0  0  0  # atno 8009 bound_to 7997
  155.9536  140.1109  157.0945 H   0  0  0  0  0  0  0  0  0  0  0  0  # atno 8010 bound_to 7997
  140.6807  143.2819  151.3818 H   0  0  0  0  0  0  0  0  0  0  0  0  # atno 10167 bound_to 10162
  156.2730  130.4208  149.8418 H   0  0  0  0  0  0  0  0  0  0  0  0  # atno 10718 bound_to 10713
  152.9818  135.5707  154.5082 H   0  0  0  0  0  0  0  0  0  0  0  0  # atno 10763 bound_to 10752
  154.4590  135.2781  155.1728 H   0  0  0  0  0  0  0  0  0  0  0  0  # atno 10764 bound_to 10752
  154.3324  135.6246  153.5611 H   0  0  0  0  0  0  0  0  0  0  0  0  # atno 10765 bound_to 10752
  140.1160  134.4892  155.8637 H   0  0  0  0  0  0  0  0  0  0  0  0  # atno 11005 bound_to 11000
  145.1569  140.9652  143.4400 LP  0  0  0  0  0  0  0  0  0  0  0  0  # atno 17320 bound_to 7965
  145.0152  139.3473  143.6100 LP  0  0  0  0  0  0  0  0  0  0  0  0  # atno 17321 bound_to 7965
  139.6128  144.1064  152.2316 LP  0  0  0  0  0  0  0  0  0  0  0  0  # atno 17342 bound_to 10162
  140.0483  144.5953  150.7356 LP  0  0  0  0  0  0  0  0  0  0  0  0  # atno 17343 bound_to 10162
  156.5893  130.8499  151.3404 LP  0  0  0  0  0  0  0  0  0  0  0  0  # atno 17370 bound_to 10713
  157.7290  130.9665  150.1767 LP  0  0  0  0  0  0  0  0  0  0  0  0  # atno 17371 bound_to 10713
  141.2141  133.6743  156.6796 LP  0  0  0  0  0  0  0  0  0  0  0  0  # atno 17394 bound_to 11000
  140.3028  134.8149  157.4112 LP  0  0  0  0  0  0  0  0  0  0  0  0  # atno 17395 bound_to 11000

$$$$
