AV-unprocessed.smi:1965|AV-procd|sdf|7936|dock1
  -GOLD-   2272010103D 1   1.00000     0.00000
 Structure written by MMmdl.
 37 39  0  0  0  0  0  0  0  0  2 V2000
  150.2778  134.5388  155.7914 O   0  0  0  0  0  0  0  0  0  0  0  0
  149.7755  134.9740  154.7570 C   0  0  0  0  0  0  0  0  0  0  0  0
  150.0964  136.1971  154.2853 N   0  0  0  0  0  0  0  0  0  0  0  0
  150.9871  137.1910  154.7847 C   0  0  0  0  0  0  0  0  0  0  0  0
  152.0604  136.9489  155.5489 N   0  0  0  0  0  0  0  0  0  0  0  0
  152.7581  138.1178  155.8639 C   0  0  0  0  0  0  0  0  0  0  0  0
  152.2047  139.2500  155.3205 C   0  0  0  0  0  0  0  0  0  0  0  0
  150.7785  138.8902  154.3849 S   0  0  0  0  0  0  0  0  0  0  0  0
  148.8839  134.2771  154.0327 N   0  0  0  0  0  0  0  0  0  0  0  0
  148.3480  132.9610  154.3722 C   0  0  2  0  0  0  0  0  0  0  0  0
  149.3983  131.8390  154.2561 C   0  0  0  0  0  0  0  0  0  0  0  0
  148.6543  130.6766  153.5907 C   0  0  0  0  0  0  0  0  0  0  0  0
  147.6995  131.3592  152.7102 N   0  3  1  0  0  0  0  0  0  0  0  0
  146.6290  130.5629  152.0768 C   0  0  0  0  0  0  0  0  0  0  0  0
  145.8821  131.4631  151.0692 C   0  0  0  0  0  0  0  0  0  0  0  0
  145.4011  132.7852  151.7091 C   0  0  0  0  0  0  0  0  0  0  0  0
  146.5396  133.5039  152.4649 C   0  0  0  0  0  0  0  0  0  0  0  0
  147.1821  132.5181  153.4575 C   0  0  2  0  0  0  0  0  0  0  0  0
  149.6899  136.4190  153.3879 H   0  0  0  0  0  0  0  0  0  0  0  0
  153.6421  138.0523  156.4811 H   0  0  0  0  0  0  0  0  0  0  0  0
  152.5501  140.2693  155.4110 H   0  0  0  0  0  0  0  0  0  0  0  0
  148.5276  134.7117  153.1931 H   0  0  0  0  0  0  0  0  0  0  0  0
  147.9879  132.9758  155.4028 H   0  0  0  0  0  0  0  0  0  0  0  0
  150.2209  132.1541  153.6120 H   0  0  0  0  0  0  0  0  0  0  0  0
  149.8251  131.5617  155.2204 H   0  0  0  0  0  0  0  0  0  0  0  0
  149.3181  130.0120  153.0370 H   0  0  0  0  0  0  0  0  0  0  0  0
  148.1150  130.0891  154.3352 H   0  0  0  0  0  0  0  0  0  0  0  0
  147.0630  129.7039  151.5641 H   0  0  0  0  0  0  0  0  0  0  0  0
  145.9469  130.1778  152.8362 H   0  0  0  0  0  0  0  0  0  0  0  0
  146.5483  131.6949  150.2370 H   0  0  0  0  0  0  0  0  0  0  0  0
  145.0356  130.9243  150.6417 H   0  0  0  0  0  0  0  0  0  0  0  0
  144.9863  133.4421  150.9440 H   0  0  0  0  0  0  0  0  0  0  0  0
  144.5879  132.5717  152.4037 H   0  0  0  0  0  0  0  0  0  0  0  0
  147.2840  133.8715  151.7572 H   0  0  0  0  0  0  0  0  0  0  0  0
  146.1429  134.3731  152.9902 H   0  0  0  0  0  0  0  0  0  0  0  0
  146.3954  132.1535  154.1219 H   0  0  0  0  0  0  0  0  0  0  0  0
  148.2557  131.7399  151.9578 H   0  0  0  0  0  0  0  0  0  0  0  0
  1  2  2  0  0  0  0
  2  3  1  0  0  0  0
  2  9  1  0  0  0  0
  3  4  1  0  0  0  0
  3 19  1  0  0  0  0
  4  8  1  0  0  0  0
  4  5  2  0  0  0  0
  5  6  1  0  0  0  0
  6  7  2  0  0  0  0
  6 20  1  0  0  0  0
  7  8  1  0  0  0  0
  7 21  1  0  0  0  0
  9 10  1  0  0  0  0
  9 22  1  0  0  0  0
 10 18  1  0  0  0  0
 10 11  1  0  0  0  0
 10 23  1  0  0  0  0
 11 12  1  0  0  0  0
 11 24  1  0  0  0  0
 11 25  1  0  0  0  0
 12 13  1  0  0  0  0
 12 26  1  0  0  0  0
 12 27  1  0  0  0  0
 13 18  1  0  0  0  0
 13 14  1  0  0  0  0
 13 37  1  0  0  0  0
 14 15  1  0  0  0  0
 14 28  1  0  0  0  0
 14 29  1  0  0  0  0
 15 16  1  0  0  0  0
 15 30  1  0  0  0  0
 15 31  1  0  0  0  0
 16 17  1  0  0  0  0
 16 32  1  0  0  0  0
 16 33  1  0  0  0  0
 17 18  1  0  0  0  0
 17 34  1  0  0  0  0
 17 35  1  0  0  0  0
 18 36  1  0  0  0  0
M  CHG  1  13   1
M  END
> <s_m_source_file>
AV-unprocessed.smi

> <i_m_source_file_index>
1965

> <i_lp_mmshare_version>
43012

> <i_f3d_flags>
0

> <s_epik_input>
czFbY0hdW2NIXW5jMVtOSF1DKD1PKVtOSF1bQ0BIXShbQ0gyXVtDSDJdMilbQ0BASF0oTjIzKVtDSDJdW0NIMl1bQ0gyXVtDSDJdMw==

> <s_epik_cmdline>
J2VwaWtfcHl0aG9uJywgJy1waCcsICc3LjAnLCAnLXRuJywgJzgnLCAnLW1hJywgJzIwMCcsICctbWV0YWxfYmluZGluZycsICctaW1hZScsICc8aW5maWxlLm1hZT4nLCAnLW9tYWUnLCAnPG91dGZpbGUubWFlPic=

> <r_lp_tautomer_probability>
1

> <r_epik_Ionization_Penalty>
0.00125962

> <r_epik_Ionization_Penalty_Charging>
0.00107044

> <r_epik_Ionization_Penalty_Neutral>
0.000189176

> <r_epik_State_Penalty>
-0

> <r_epik_Charging_Adjusted_Penalty>
0.00107044

> <i_epik_Tot_Q>
1

> <i_epik_Tot_abs_Q>
1

> <r_epik_Metal_State_Penalty>
0.0179285

> <b_epik_Metal_Only>
0

> <s_lp_Force_Field>
OPLS_2005

> <r_lp_Energy>
42.3256

> <b_lp_Chiralities_Consistent>
1

> <s_lp_Variant>
AV-unprocessed.smi:1965-5

> <Gold.Version>
5.8.1

> <Gold.Id.Protein>
6NUR|6NUR_protein|mol2

> <Gold.PLP.Fitness>
41.9576

> <Gold.PLP.PLP>
-32.0507

> <Gold.PLP.part.hbond>
-5.0000

> <Gold.PLP.part.metal>
0.0000

> <Gold.PLP.part.buried>
-0.8759

> <Gold.PLP.part.nonpolar>
-26.4318

> <Gold.PLP.part.repulsive>
0.1499

> <Gold.PLP.ligand.clash>
0.0000

> <Gold.PLP.ligand.torsion>
0.2194

> <Gold.PLP.Chemscore.Hbond>
3.4480

> <Gold.PLP.Chemscore.CHOScore>
0.0000

> <Gold.PLP.Chemscore.Metal>
0.0000

> <Gold.Chemscore.Hbonds>
donor molecule, donor type, donor heavy atom, donor atom, acceptor molecule, acceptor atom, score
      L1  H     3    19       P1  7948  1.00
      L1  H     9    22       P1  7948  0.82
      L1  H    13    37       P1 10747  0.61
      P1  H 10752 10763       L1     5  0.99

> <Gold.PLP.Chemscore.Internal.Correction>
0.0016

> <Gold.Rescore>
     Score         DG    S(hbond)    S(metal)    S(lipo)     H(rot)  DE(clash)    DE(int)     intcor
     16.44     -17.77       1.95        0.00      71.20       1.00       0.08       1.25       ----

> <Gold.Chemscore.Fitness>
16.4396

> <Gold.Chemscore.DG>
-17.7664

> <Gold.Chemscore.ZeroCoef>
-5.4800

> <Gold.Chemscore.Hbond>
1.9510

> <Gold.Chemscore.Metal>
0.0000

> <Gold.Chemscore.Lipo>
71.1968

> <Gold.Chemscore.Internal_Hbond>
0.0000

> <Gold.Chemscore.DEClash>
0.0766

> <Gold.Chemscore.DEInternal>
1.2502

> <Gold.Chemscore.Rot>
1.0000

> <Gold.Chemscore.Internal.Correction>
   9.000000E+99

> <Gold.Chemscore.Hbonds>
donor molecule, donor type, donor heavy atom, donor atom, acceptor molecule, acceptor atom, score
      L1  H     3    19       P1  7948  0.35
      L1  H     9    22       P1  7948  0.38
      L1  H    13    37       P1 10747  0.58
      P1  H 10752 10763       L1     5  0.54

> <Gold.Chemscore.Hbond.Weighted>
-6.5164

> <Gold.Chemscore.Metal.Weighted>
-0.0000

> <Gold.Chemscore.Lipo.Weighted>
-8.3300

> <Gold.Chemscore.Internal_Hbond.Weighted>
0.0000

> <Gold.Chemscore.DEClash.Weighted>
0.0766

> <Gold.Chemscore.DEInternal.Weighted>
1.2502

> <Gold.Chemscore.Rot.Weighted>
2.5600

> <Gold.Chemscore.Internal.Correction.Weighted>
   9.000000E+99

> <Gold.Protein.RotatedTorsions>
[ 6907 6896 6895 6894 ] final  156.28 input  -60.11 | X-H torsion
[ 7974 7965 7964 7962 ] final  114.64 input  175.53 | X-H torsion
[ 8008 7997 7996 7995 ] final  103.58 input   59.86 | X-H torsion
[ 10167 10162 10161 10158 ] final   28.21 input  -65.29 | X-H torsion
[ 10718 10713 10712 10709 ] final  -97.71 input   66.30 | X-H torsion
[ 10763 10752 10751 10750 ] final   69.74 input  -60.55 | X-H torsion
[ 11005 11000 10999 10996 ] final  162.83 input  -57.11 | X-H torsion

> <Gold.Protein.ActiveResidues>
 VAL166  LYS551  ARG553  GLY616  TRP617  ASP618  TYR619  PRO620  LYS621  CYS622 
 ASP623  PHE694  ASN695  SER759  ASP760  ASP761  ALA762  ILE779  LEU786  VAL792 
 PHE793  MET794  SER795  GLU796  ALA797  LYS798  CYS799  TRP800  GLU811  SER814 

> <Gold.Protein.RotatedAtoms>
  152.0319  133.3941  159.4300 H   0  0  0  0  0  0  0  0  0  0  0  0  # atno 6907 bound_to 6896
  150.6881  134.3511  159.4918 H   0  0  0  0  0  0  0  0  0  0  0  0  # atno 6908 bound_to 6896
  152.1298  134.9143  160.0610 H   0  0  0  0  0  0  0  0  0  0  0  0  # atno 6909 bound_to 6896
  145.2019  139.2948  143.4314 H   0  0  0  0  0  0  0  0  0  0  0  0  # atno 7974 bound_to 7965
  156.1496  140.3162  155.8627 H   0  0  0  0  0  0  0  0  0  0  0  0  # atno 8008 bound_to 7997
  155.3996  140.0499  157.3054 H   0  0  0  0  0  0  0  0  0  0  0  0  # atno 8009 bound_to 7997
  154.5047  140.2142  155.9287 H   0  0  0  0  0  0  0  0  0  0  0  0  # atno 8010 bound_to 7997
  140.4872  144.0523  150.6284 H   0  0  0  0  0  0  0  0  0  0  0  0  # atno 10167 bound_to 10162
  156.0090  130.5206  150.6414 H   0  0  0  0  0  0  0  0  0  0  0  0  # atno 10718 bound_to 10713
  153.0303  135.5199  154.7334 H   0  0  0  0  0  0  0  0  0  0  0  0  # atno 10763 bound_to 10752
  154.6355  135.2905  155.0168 H   0  0  0  0  0  0  0  0  0  0  0  0  # atno 10764 bound_to 10752
  154.1105  135.6623  153.4936 H   0  0  0  0  0  0  0  0  0  0  0  0  # atno 10765 bound_to 10752
  140.2296  134.8134  157.3304 H   0  0  0  0  0  0  0  0  0  0  0  0  # atno 11005 bound_to 11000
  146.3416  140.2267  142.8592 LP  0  0  0  0  0  0  0  0  0  0  0  0  # atno 17320 bound_to 7965
  144.9939  140.8572  143.5322 LP  0  0  0  0  0  0  0  0  0  0  0  0  # atno 17321 bound_to 7965
  140.3782  143.2817  152.0200 LP  0  0  0  0  0  0  0  0  0  0  0  0  # atno 17342 bound_to 10162
  139.4844  144.6176  151.7317 LP  0  0  0  0  0  0  0  0  0  0  0  0  # atno 17343 bound_to 10162
  157.4194  131.0834  151.1146 LP  0  0  0  0  0  0  0  0  0  0  0  0  # atno 17370 bound_to 10713
  157.1753  130.6285  149.5654 LP  0  0  0  0  0  0  0  0  0  0  0  0  # atno 17371 bound_to 10713
  140.1764  134.4544  155.7799 LP  0  0  0  0  0  0  0  0  0  0  0  0  # atno 17394 bound_to 11000
  141.2218  133.6964  156.7794 LP  0  0  0  0  0  0  0  0  0  0  0  0  # atno 17395 bound_to 11000

$$$$
