AV-unprocessed.smi:3335|AV-procd|sdf|12837|dock2
  -GOLD-   2272019223D 1   1.00000     0.00000
 Structure written by MMmdl.
 47 48  0  0  0  0  0  0  0  0  2 V2000
  151.2083  142.5243  158.6812 C   0  0  0  0  0  0  0  0  0  0  0  0
  151.0224  141.6365  157.4849 C   0  0  0  0  0  0  0  0  0  0  0  0
  151.8254  140.5328  157.0815 C   0  0  0  0  0  0  0  0  0  0  0  0
  151.3950  139.9663  155.9664 N   0  0  0  0  0  0  0  0  0  0  0  0
  150.2930  140.6728  155.6259 N   0  0  0  0  0  0  0  0  0  0  0  0
  149.5614  140.3699  154.4001 C   0  0  2  0  0  0  0  0  0  0  0  0
  148.4868  141.4337  154.0889 C   0  0  0  0  0  0  0  0  0  0  0  0
  149.0303  138.9146  154.4224 C   0  0  2  0  0  0  0  0  0  0  0  0
  150.1422  137.8817  154.6791 C   0  0  0  0  0  0  0  0  0  0  0  0
  148.2870  138.5979  153.1771 N   0  3  0  0  0  0  0  0  0  0  0  0
  146.8254  138.4017  153.3236 C   0  0  2  0  0  0  0  0  0  0  0  0
  146.2709  139.4181  154.3337 C   0  0  0  0  0  0  0  0  0  0  0  0
  146.4957  136.9690  153.7902 C   0  0  0  0  0  0  0  0  0  0  0  0
  146.7671  136.6443  154.9471 O   0  0  0  0  0  0  0  0  0  0  0  0
  145.9084  136.1103  152.9297 N   0  0  0  0  0  0  0  0  0  0  0  0
  145.5291  134.7255  153.2096 C   0  0  0  0  0  0  0  0  0  0  0  0
  145.1227  134.1251  151.8638 C   0  0  0  0  0  0  0  0  0  0  0  0
  144.6866  135.3259  151.0370 C   0  0  0  0  0  0  0  0  0  0  0  0
  145.5551  136.4707  151.5575 C   0  0  0  0  0  0  0  0  0  0  0  0
  150.0559  141.6949  156.5214 C   0  0  0  0  0  0  0  0  0  0  0  0
  151.9066  142.0951  159.4000 H   0  0  0  0  0  0  0  0  0  0  0  0
  150.2690  142.6926  159.2080 H   0  0  0  0  0  0  0  0  0  0  0  0
  151.5990  143.5019  158.3981 H   0  0  0  0  0  0  0  0  0  0  0  0
  152.7087  140.1344  157.5587 H   0  0  0  0  0  0  0  0  0  0  0  0
  150.2949  140.4309  153.5946 H   0  0  0  0  0  0  0  0  0  0  0  0
  148.0505  141.2832  153.1018 H   0  0  0  0  0  0  0  0  0  0  0  0
  148.9200  142.4345  154.0962 H   0  0  0  0  0  0  0  0  0  0  0  0
  147.6738  141.4215  154.8154 H   0  0  0  0  0  0  0  0  0  0  0  0
  148.3358  138.8531  155.2617 H   0  0  0  0  0  0  0  0  0  0  0  0
  150.7180  138.1398  155.5683 H   0  0  0  0  0  0  0  0  0  0  0  0
  150.8356  137.8172  153.8407 H   0  0  0  0  0  0  0  0  0  0  0  0
  149.7326  136.8850  154.8411 H   0  0  0  0  0  0  0  0  0  0  0  0
  148.4196  139.3648  152.5316 H   0  0  0  0  0  0  0  0  0  0  0  0
  146.3692  138.6071  152.3565 H   0  0  0  0  0  0  0  0  0  0  0  0
  145.1914  139.3163  154.4513 H   0  0  0  0  0  0  0  0  0  0  0  0
  146.4669  140.4397  154.0072 H   0  0  0  0  0  0  0  0  0  0  0  0
  146.7241  139.2935  155.3183 H   0  0  0  0  0  0  0  0  0  0  0  0
  146.3407  134.1543  153.6618 H   0  0  0  0  0  0  0  0  0  0  0  0
  144.6812  134.7206  153.8963 H   0  0  0  0  0  0  0  0  0  0  0  0
  145.9886  133.6556  151.3953 H   0  0  0  0  0  0  0  0  0  0  0  0
  144.3425  133.3689  151.9564 H   0  0  0  0  0  0  0  0  0  0  0  0
  144.7977  135.1650  149.9643 H   0  0  0  0  0  0  0  0  0  0  0  0
  143.6364  135.5441  151.2357 H   0  0  0  0  0  0  0  0  0  0  0  0
  145.0267  137.4240  151.5041 H   0  0  0  0  0  0  0  0  0  0  0  0
  146.4689  136.5561  150.9673 H   0  0  0  0  0  0  0  0  0  0  0  0
  149.2276  142.3773  156.3986 H   0  0  0  0  0  0  0  0  0  0  0  0
  148.6947  137.7676  152.7721 H   0  0  0  0  0  0  0  0  0  0  0  0
  1  2  1  0  0  0  0
  1 21  1  0  0  0  0
  1 22  1  0  0  0  0
  1 23  1  0  0  0  0
  2 20  2  0  0  0  0
  2  3  1  0  0  0  0
  3  4  2  0  0  0  0
  3 24  1  0  0  0  0
  4  5  1  0  0  0  0
  5  6  1  0  0  0  0
  5 20  1  0  0  0  0
  6  7  1  0  0  0  0
  6  8  1  0  0  0  0
  6 25  1  0  0  0  0
  7 26  1  0  0  0  0
  7 27  1  0  0  0  0
  7 28  1  0  0  0  0
  8  9  1  0  0  0  0
  8 10  1  0  0  0  0
  8 29  1  0  0  0  0
  9 30  1  0  0  0  0
  9 31  1  0  0  0  0
  9 32  1  0  0  0  0
 10 11  1  0  0  0  0
 10 33  1  0  0  0  0
 10 47  1  0  0  0  0
 11 12  1  0  0  0  0
 11 13  1  0  0  0  0
 11 34  1  0  0  0  0
 12 35  1  0  0  0  0
 12 36  1  0  0  0  0
 12 37  1  0  0  0  0
 13 14  2  0  0  0  0
 13 15  1  0  0  0  0
 15 19  1  0  0  0  0
 15 16  1  0  0  0  0
 16 17  1  0  0  0  0
 16 38  1  0  0  0  0
 16 39  1  0  0  0  0
 17 18  1  0  0  0  0
 17 40  1  0  0  0  0
 17 41  1  0  0  0  0
 18 19  1  0  0  0  0
 18 42  1  0  0  0  0
 18 43  1  0  0  0  0
 19 44  1  0  0  0  0
 19 45  1  0  0  0  0
 20 46  1  0  0  0  0
M  CHG  1  10   1
M  END
> <s_m_source_file>
AV-unprocessed.smi

> <i_m_source_file_index>
3335

> <i_lp_mmshare_version>
43012

> <i_f3d_flags>
0

> <s_epik_input>
W0NIM11jMVtjSF1ubihbY0hdMSlbQ0BIXShbQ0gzXSlbQ0BIXShbQ0gzXSlbTkhdW0NASF0oW0NIM10pQyg9TylOMltDSDJdW0NIMl1bQ0gyXVtDSDJdMg==

> <s_epik_cmdline>
J2VwaWtfcHl0aG9uJywgJy1waCcsICc3LjAnLCAnLXRuJywgJzgnLCAnLW1hJywgJzIwMCcsICctbWV0YWxfYmluZGluZycsICctaW1hZScsICc8aW5maWxlLm1hZT4nLCAnLW9tYWUnLCAnPG91dGZpbGUubWFlPic=

> <r_lp_tautomer_probability>
1

> <r_epik_Ionization_Penalty>
0.14175

> <r_epik_Ionization_Penalty_Charging>
0.141731

> <r_epik_Ionization_Penalty_Neutral>
1.91261e-05

> <r_epik_State_Penalty>
0.131043

> <r_epik_Charging_Adjusted_Penalty>
0.272773

> <i_epik_Tot_Q>
1

> <i_epik_Tot_abs_Q>
1

> <r_epik_Metal_State_Penalty>
0.131408

> <b_epik_Metal_Only>
0

> <s_lp_Force_Field>
OPLS_2005

> <r_lp_Energy>
36.483

> <b_lp_Chiralities_Consistent>
1

> <s_lp_Variant>
AV-unprocessed.smi:3335-1

> <Gold.Version>
5.8.1

> <Gold.Id.Protein>
6NUR|6NUR_protein|mol2

> <Gold.PLP.Fitness>
42.4690

> <Gold.PLP.PLP>
-33.0169

> <Gold.PLP.part.hbond>
-2.0000

> <Gold.PLP.part.metal>
0.0000

> <Gold.PLP.part.buried>
-2.5524

> <Gold.PLP.part.nonpolar>
-28.4983

> <Gold.PLP.part.repulsive>
0.1151

> <Gold.PLP.ligand.clash>
0.0000

> <Gold.PLP.ligand.torsion>
1.2230

> <Gold.PLP.Chemscore.Hbond>
2.8640

> <Gold.PLP.Chemscore.CHOScore>
1.0000

> <Gold.PLP.Chemscore.Metal>
0.0000

> <Gold.Chemscore.Hbonds>
donor molecule, donor type, donor heavy atom, donor atom, acceptor molecule, acceptor atom, score
      L1  H    10    33       P1  7957  0.86
      L1  H    10    47       P1  7948  2.00
      L1  C    20    46       P1  8028  1.00

> <Gold.PLP.Chemscore.Internal.Correction>
0.3061

> <Gold.Rescore>
     Score         DG    S(hbond)    S(metal)    S(lipo)     H(rot)  DE(clash)    DE(int)     intcor
     13.35     -17.27       1.95        0.00      81.74       1.68       0.24       3.68       ----

> <Gold.Chemscore.Fitness>
13.3482

> <Gold.Chemscore.DG>
-17.2690

> <Gold.Chemscore.ZeroCoef>
-5.4800

> <Gold.Chemscore.Hbond>
1.9523

> <Gold.Chemscore.Metal>
0.0000

> <Gold.Chemscore.Lipo>
81.7387

> <Gold.Chemscore.Internal_Hbond>
0.0000

> <Gold.Chemscore.DEClash>
0.2362

> <Gold.Chemscore.DEInternal>
3.6846

> <Gold.Chemscore.Rot>
1.6778

> <Gold.Chemscore.Internal.Correction>
   9.000000E+99

> <Gold.Chemscore.Hbonds>
donor molecule, donor type, donor heavy atom, donor atom, acceptor molecule, acceptor atom, score
      L1  H    10    33       P1  7957  0.84
      L1  H    10    47       P1  7948  1.00

> <Gold.Chemscore.Hbond.Weighted>
-6.5207

> <Gold.Chemscore.Metal.Weighted>
-0.0000

> <Gold.Chemscore.Lipo.Weighted>
-9.5634

> <Gold.Chemscore.Internal_Hbond.Weighted>
0.0000

> <Gold.Chemscore.DEClash.Weighted>
0.2362

> <Gold.Chemscore.DEInternal.Weighted>
3.6846

> <Gold.Chemscore.Rot.Weighted>
4.2952

> <Gold.Chemscore.Internal.Correction.Weighted>
   9.000000E+99

> <Gold.Protein.RotatedTorsions>
[ 6907 6896 6895 6894 ] final -109.41 input  -60.11 | X-H torsion
[ 7974 7965 7964 7962 ] final    8.03 input  175.53 | X-H torsion
[ 8008 7997 7996 7995 ] final  141.77 input   59.86 | X-H torsion
[ 10167 10162 10161 10158 ] final  -12.96 input  -65.29 | X-H torsion
[ 10718 10713 10712 10709 ] final  171.09 input   66.30 | X-H torsion
[ 10763 10752 10751 10750 ] final   60.42 input  -60.55 | X-H torsion
[ 11005 11000 10999 10996 ] final -137.42 input  -57.11 | X-H torsion

> <Gold.Protein.ActiveResidues>
 VAL166  LYS551  ARG553  GLY616  TRP617  ASP618  TYR619  PRO620  LYS621  CYS622 
 ASP623  PHE694  ASN695  SER759  ASP760  ASP761  ALA762  ILE779  LEU786  VAL792 
 PHE793  MET794  SER795  GLU796  ALA797  LYS798  CYS799  TRP800  GLU811  SER814 

> <Gold.Protein.RotatedAtoms>
  150.7560  133.9533  159.3492 H   0  0  0  0  0  0  0  0  0  0  0  0  # atno 6907 bound_to 6896
  151.7452  135.0843  160.0331 H   0  0  0  0  0  0  0  0  0  0  0  0  # atno 6908 bound_to 6896
  152.3502  133.6133  159.5975 H   0  0  0  0  0  0  0  0  0  0  0  0  # atno 6909 bound_to 6896
  146.2420  139.9994  142.8417 H   0  0  0  0  0  0  0  0  0  0  0  0  # atno 7974 bound_to 7965
  156.2960  140.2306  156.4620 H   0  0  0  0  0  0  0  0  0  0  0  0  # atno 8008 bound_to 7997
  154.8010  140.0448  157.1293 H   0  0  0  0  0  0  0  0  0  0  0  0  # atno 8009 bound_to 7997
  154.9533  140.3045  155.5068 H   0  0  0  0  0  0  0  0  0  0  0  0  # atno 8010 bound_to 7997
  140.7172  143.5476  150.9337 H   0  0  0  0  0  0  0  0  0  0  0  0  # atno 10167 bound_to 10162
  156.9986  131.0169  151.2837 H   0  0  0  0  0  0  0  0  0  0  0  0  # atno 10718 bound_to 10713
  152.9920  135.5537  154.5870 H   0  0  0  0  0  0  0  0  0  0  0  0  # atno 10763 bound_to 10752
  154.5240  135.2809  155.1240 H   0  0  0  0  0  0  0  0  0  0  0  0  # atno 10764 bound_to 10752
  154.2582  135.6386  153.5318 H   0  0  0  0  0  0  0  0  0  0  0  0  # atno 10765 bound_to 10752
  140.8712  134.2048  157.4649 H   0  0  0  0  0  0  0  0  0  0  0  0  # atno 11005 bound_to 11000
  145.1429  140.9581  143.4478 LP  0  0  0  0  0  0  0  0  0  0  0  0  # atno 17320 bound_to 7965
  145.0278  139.3367  143.6040 LP  0  0  0  0  0  0  0  0  0  0  0  0  # atno 17321 bound_to 7965
  139.9200  143.6617  152.3098 LP  0  0  0  0  0  0  0  0  0  0  0  0  # atno 17342 bound_to 10162
  139.7031  144.7632  151.1240 LP  0  0  0  0  0  0  0  0  0  0  0  0  # atno 17343 bound_to 10162
  157.5407  130.8118  149.8025 LP  0  0  0  0  0  0  0  0  0  0  0  0  # atno 17370 bound_to 10713
  156.0180  130.3806  150.2051 LP  0  0  0  0  0  0  0  0  0  0  0  0  # atno 17371 bound_to 10713
  139.8712  134.9775  156.4961 LP  0  0  0  0  0  0  0  0  0  0  0  0  # atno 17394 bound_to 11000
  140.8571  133.8088  155.9227 LP  0  0  0  0  0  0  0  0  0  0  0  0  # atno 17395 bound_to 11000

$$$$
