AV-unprocessed.smi:1697|AV-procd|sdf|6809|dock1
  -GOLD-   22720 7583D 1   1.00000     0.00000
 Structure written by MMmdl.
 55 57  0  0  0  0  0  0  0  0  3 V2000
  148.5876  130.9091  155.1277 C   0  0  0  0  0  0  0  0  0  0  0  0
  147.4241  131.6319  155.8200 C   0  0  0  0  0  0  0  0  0  0  0  0
  147.5904  133.0443  155.8052 O   0  0  0  0  0  0  0  0  0  0  0  0
  147.4429  133.6636  154.5312 C   0  0  2  0  0  0  0  0  0  0  0  0
  148.7879  133.5921  153.7919 C   0  0  0  0  0  0  0  0  0  0  0  0
  149.8620  134.4546  154.4767 C   0  0  0  0  0  0  0  0  0  0  0  0
  149.4122  135.8634  154.6155 N   0  3  2  0  0  0  0  0  0  0  0  0
  150.4848  136.7513  155.1348 C   0  0  0  0  0  0  0  0  0  0  0  0
  150.1327  138.2460  154.9974 C   0  0  2  0  0  0  0  0  0  0  0  0
  149.6853  138.4885  153.6772 O   0  0  0  0  0  0  0  0  0  0  0  0
  151.3401  139.1524  155.3091 C   0  0  0  0  0  0  0  0  0  0  0  0
  150.9466  140.4371  155.9061 N   0  0  0  0  0  0  0  0  0  0  0  0
  150.0984  141.3892  155.4300 C   0  0  0  0  0  0  0  0  0  0  0  0
  150.0631  142.4013  156.3401 N   0  3  0  0  0  0  0  0  0  0  0  0
  150.9002  142.0921  157.4138 C   0  0  0  0  0  0  0  0  0  0  0  0
  151.1949  142.8041  158.5704 C   0  0  0  0  0  0  0  0  0  0  0  0
  152.1005  142.2121  159.4791 C   0  0  0  0  0  0  0  0  0  0  0  0
  152.4478  142.9662  160.7515 C   0  0  0  0  0  0  0  0  0  0  0  0
  152.6763  140.9429  159.2128 C   0  0  0  0  0  0  0  0  0  0  0  0
  153.6499  140.3162  160.1967 C   0  0  0  0  0  0  0  0  0  0  0  0
  152.3620  140.2336  158.0315 C   0  0  0  0  0  0  0  0  0  0  0  0
  151.4693  140.8318  157.1444 C   0  0  0  0  0  0  0  0  0  0  0  0
  148.1442  135.9554  155.3871 C   0  0  0  0  0  0  0  0  0  0  0  0
  147.0283  135.1323  154.7208 C   0  0  0  0  0  0  0  0  0  0  0  0
  148.4018  129.8359  155.0816 H   0  0  0  0  0  0  0  0  0  0  0  0
  149.5274  131.0553  155.6598 H   0  0  0  0  0  0  0  0  0  0  0  0
  148.7187  131.2685  154.1069 H   0  0  0  0  0  0  0  0  0  0  0  0
  146.5007  131.4042  155.2874 H   0  0  0  0  0  0  0  0  0  0  0  0
  147.2881  131.2715  156.8408 H   0  0  0  0  0  0  0  0  0  0  0  0
  146.6902  133.1508  153.9295 H   0  0  0  0  0  0  0  0  0  0  0  0
  149.1240  132.5567  153.7275 H   0  0  0  0  0  0  0  0  0  0  0  0
  148.6541  133.9346  152.7650 H   0  0  0  0  0  0  0  0  0  0  0  0
  150.1046  134.0493  155.4605 H   0  0  0  0  0  0  0  0  0  0  0  0
  150.7770  134.4156  153.8843 H   0  0  0  0  0  0  0  0  0  0  0  0
  150.6872  136.4974  156.1766 H   0  0  0  0  0  0  0  0  0  0  0  0
  151.4138  136.5663  154.5931 H   0  0  0  0  0  0  0  0  0  0  0  0
  149.3242  138.5080  155.6792 H   0  0  0  0  0  0  0  0  0  0  0  0
  149.5568  137.6591  153.2425 H   0  0  0  0  0  0  0  0  0  0  0  0
  151.9974  138.6581  156.0258 H   0  0  0  0  0  0  0  0  0  0  0  0
  151.9439  139.3349  154.4198 H   0  0  0  0  0  0  0  0  0  0  0  0
  149.5535  141.3506  154.4978 H   0  0  0  0  0  0  0  0  0  0  0  0
  150.7526  143.7701  158.7660 H   0  0  0  0  0  0  0  0  0  0  0  0
  152.1628  142.3872  161.6304 H   0  0  0  0  0  0  0  0  0  0  0  0
  151.9304  143.9248  160.8013 H   0  0  0  0  0  0  0  0  0  0  0  0
  153.5191  143.1637  160.7988 H   0  0  0  0  0  0  0  0  0  0  0  0
  153.9940  139.3406  159.8523 H   0  0  0  0  0  0  0  0  0  0  0  0
  153.1757  140.1768  161.1683 H   0  0  0  0  0  0  0  0  0  0  0  0
  154.5262  140.9518  160.3262 H   0  0  0  0  0  0  0  0  0  0  0  0
  152.8046  139.2695  157.8317 H   0  0  0  0  0  0  0  0  0  0  0  0
  148.3108  135.6054  156.4071 H   0  0  0  0  0  0  0  0  0  0  0  0
  147.8173  136.9916  155.4628 H   0  0  0  0  0  0  0  0  0  0  0  0
  146.7916  135.5683  153.7496 H   0  0  0  0  0  0  0  0  0  0  0  0
  146.1156  135.1952  155.3136 H   0  0  0  0  0  0  0  0  0  0  0  0
  149.2124  136.1861  153.6791 H   0  0  0  0  0  0  0  0  0  0  0  0
  149.5083  143.2410  156.2333 H   0  0  0  0  0  0  0  0  0  0  0  0
  1  2  1  0  0  0  0
  1 25  1  0  0  0  0
  1 26  1  0  0  0  0
  1 27  1  0  0  0  0
  2  3  1  0  0  0  0
  2 28  1  0  0  0  0
  2 29  1  0  0  0  0
  3  4  1  0  0  0  0
  4 24  1  0  0  0  0
  4  5  1  0  0  0  0
  4 30  1  0  0  0  0
  5  6  1  0  0  0  0
  5 31  1  0  0  0  0
  5 32  1  0  0  0  0
  6  7  1  0  0  0  0
  6 33  1  0  0  0  0
  6 34  1  0  0  0  0
  7  8  1  0  0  0  0
  7 23  1  0  0  0  0
  7 54  1  0  0  0  0
  8  9  1  0  0  0  0
  8 35  1  0  0  0  0
  8 36  1  0  0  0  0
  9 10  1  0  0  0  0
  9 11  1  0  0  0  0
  9 37  1  0  0  0  0
 10 38  1  0  0  0  0
 11 12  1  0  0  0  0
 11 39  1  0  0  0  0
 11 40  1  0  0  0  0
 12 22  1  0  0  0  0
 12 13  1  0  0  0  0
 13 14  2  0  0  0  0
 13 41  1  0  0  0  0
 14 15  1  0  0  0  0
 14 55  1  0  0  0  0
 15 22  2  0  0  0  0
 15 16  1  0  0  0  0
 16 17  2  0  0  0  0
 16 42  1  0  0  0  0
 17 18  1  0  0  0  0
 17 19  1  0  0  0  0
 18 43  1  0  0  0  0
 18 44  1  0  0  0  0
 18 45  1  0  0  0  0
 19 20  1  0  0  0  0
 19 21  2  0  0  0  0
 20 46  1  0  0  0  0
 20 47  1  0  0  0  0
 20 48  1  0  0  0  0
 21 22  1  0  0  0  0
 21 49  1  0  0  0  0
 23 24  1  0  0  0  0
 23 50  1  0  0  0  0
 23 51  1  0  0  0  0
 24 52  1  0  0  0  0
 24 53  1  0  0  0  0
M  CHG  1   7   1
M  CHG  1  14   1
M  END
> <s_m_source_file>
AV-unprocessed.smi

> <i_m_source_file_index>
1697

> <i_lp_mmshare_version>
43012

> <i_f3d_flags>
0

> <s_epik_input>
W0NIM11bQ0gyXU9bQ0hdMVtDSDJdW0NIMl1OKFtDSDJdW0NIMl0xKVtDSDJdW0NASF0oW09IXSlbQ0gyXW4oW2NIXW4yKWMoYzIzKVtjSF1jKFtDSDNdKWMoW2NIXTMpW0NIM10=

> <s_epik_cmdline>
J2VwaWtfcHl0aG9uJywgJy1waCcsICc3LjAnLCAnLXRuJywgJzgnLCAnLW1hJywgJzIwMCcsICctbWV0YWxfYmluZGluZycsICctaW1hZScsICc8aW5maWxlLm1hZT4nLCAnLW9tYWUnLCAnPG91dGZpbGUubWFlPic=

> <r_epik_Ionization_Penalty>
1.20016

> <r_epik_Ionization_Penalty_Charging>
1.20016

> <r_epik_Ionization_Penalty_Neutral>
1.70998e-06

> <r_epik_State_Penalty>
1.27959

> <r_epik_Charging_Adjusted_Penalty>
2.47975

> <i_epik_Tot_Q>
2

> <i_epik_Tot_abs_Q>
2

> <r_epik_Metal_State_Penalty>
5.29682

> <b_epik_Metal_Only>
0

> <s_lp_Force_Field>
OPLS_2005

> <r_lp_Energy>
33.4822

> <b_lp_Chiralities_Consistent>
1

> <s_lp_Variant>
AV-unprocessed.smi:1697-7

> <Gold.Version>
5.8.1

> <Gold.Id.Protein>
6NUR|6NUR_protein|mol2

> <Gold.PLP.Fitness>
56.5223

> <Gold.PLP.PLP>
-43.0502

> <Gold.PLP.part.hbond>
-4.0000

> <Gold.PLP.part.metal>
0.0000

> <Gold.PLP.part.buried>
-3.8581

> <Gold.PLP.part.nonpolar>
-34.4441

> <Gold.PLP.part.repulsive>
0.1346

> <Gold.PLP.ligand.clash>
0.0000

> <Gold.PLP.ligand.torsion>
0.8140

> <Gold.PLP.Chemscore.Hbond>
5.0000

> <Gold.PLP.Chemscore.CHOScore>
0.0000

> <Gold.PLP.Chemscore.Metal>
0.0000

> <Gold.Chemscore.Hbonds>
donor molecule, donor type, donor heavy atom, donor atom, acceptor molecule, acceptor atom, score
      L1  H     7    54       P1  7948  2.00
      L1  H    10    38       P1  7948  0.98
      L1  H    14    55       P1  8028  2.00

> <Gold.PLP.Chemscore.Internal.Correction>
0.1000

> <Gold.Rescore>
     Score         DG    S(hbond)    S(metal)    S(lipo)     H(rot)  DE(clash)    DE(int)     intcor
     20.86     -21.87       2.91        0.00     108.31       2.35       0.03       0.99       ----

> <Gold.Chemscore.Fitness>
20.8589

> <Gold.Chemscore.DG>
-21.8707

> <Gold.Chemscore.ZeroCoef>
-5.4800

> <Gold.Chemscore.Hbond>
2.9120

> <Gold.Chemscore.Metal>
0.0000

> <Gold.Chemscore.Lipo>
108.3105

> <Gold.Chemscore.Internal_Hbond>
0.0000

> <Gold.Chemscore.DEClash>
0.0256

> <Gold.Chemscore.DEInternal>
0.9862

> <Gold.Chemscore.Rot>
2.3468

> <Gold.Chemscore.Internal.Correction>
   9.000000E+99

> <Gold.Chemscore.Hbonds>
donor molecule, donor type, donor heavy atom, donor atom, acceptor molecule, acceptor atom, score
      L1  H     7    54       P1  7948  0.90
      L1  H    10    38       P1  7948  0.78
      L1  H    14    55       P1  8028  1.00

> <Gold.Chemscore.Hbond.Weighted>
-9.7261

> <Gold.Chemscore.Metal.Weighted>
-0.0000

> <Gold.Chemscore.Lipo.Weighted>
-12.6723

> <Gold.Chemscore.Internal_Hbond.Weighted>
0.0000

> <Gold.Chemscore.DEClash.Weighted>
0.0256

> <Gold.Chemscore.DEInternal.Weighted>
0.9862

> <Gold.Chemscore.Rot.Weighted>
6.0077

> <Gold.Chemscore.Internal.Correction.Weighted>
   9.000000E+99

> <Gold.Protein.RotatedTorsions>
[ 6907 6896 6895 6894 ] final -129.57 input  -60.11 | X-H torsion
[ 7974 7965 7964 7962 ] final  -14.20 input  175.53 | X-H torsion
[ 8008 7997 7996 7995 ] final   19.60 input   59.86 | X-H torsion
[ 10167 10162 10161 10158 ] final -164.47 input  -65.29 | X-H torsion
[ 10718 10713 10712 10709 ] final -159.88 input   66.30 | X-H torsion
[ 10763 10752 10751 10750 ] final -144.72 input  -60.55 | X-H torsion
[ 11005 11000 10999 10996 ] final  -85.69 input  -57.11 | X-H torsion

> <Gold.Protein.ActiveResidues>
 VAL166  LYS551  ARG553  GLY616  TRP617  ASP618  TYR619  PRO620  LYS621  CYS622 
 ASP623  PHE694  ASN695  SER759  ASP760  ASP761  ALA762  ILE779  LEU786  VAL792 
 PHE793  MET794  SER795  GLU796  ALA797  LYS798  CYS799  TRP800  GLU811  SER814 

> <Gold.Protein.RotatedAtoms>
  150.9301  133.6777  159.2812 H   0  0  0  0  0  0  0  0  0  0  0  0  # atno 6907 bound_to 6896
  151.4202  135.0995  159.9621 H   0  0  0  0  0  0  0  0  0  0  0  0  # atno 6908 bound_to 6896
  152.5022  133.8755  159.7375 H   0  0  0  0  0  0  0  0  0  0  0  0  # atno 6909 bound_to 6896
  146.2084  140.3313  142.8399 H   0  0  0  0  0  0  0  0  0  0  0  0  # atno 7974 bound_to 7965
  154.9232  140.3030  155.5205 H   0  0  0  0  0  0  0  0  0  0  0  0  # atno 8008 bound_to 7997
  156.3008  140.2367  156.4221 H   0  0  0  0  0  0  0  0  0  0  0  0  # atno 8009 bound_to 7997
  154.8310  140.0418  157.1465 H   0  0  0  0  0  0  0  0  0  0  0  0  # atno 8010 bound_to 7997
  139.6248  144.0553  152.1965 H   0  0  0  0  0  0  0  0  0  0  0  0  # atno 10167 bound_to 10162
  156.5743  130.8702  151.2846 H   0  0  0  0  0  0  0  0  0  0  0  0  # atno 10718 bound_to 10713
  154.8416  135.3432  154.6390 H   0  0  0  0  0  0  0  0  0  0  0  0  # atno 10763 bound_to 10752
  153.7001  135.6970  153.5070 H   0  0  0  0  0  0  0  0  0  0  0  0  # atno 10764 bound_to 10752
  153.2529  135.4347  155.0770 H   0  0  0  0  0  0  0  0  0  0  0  0  # atno 10765 bound_to 10752
  141.1638  133.7413  156.9052 H   0  0  0  0  0  0  0  0  0  0  0  0  # atno 11005 bound_to 11000
  144.8850  140.7450  143.5962 LP  0  0  0  0  0  0  0  0  0  0  0  0  # atno 17320 bound_to 7965
  145.3234  139.1781  143.4575 LP  0  0  0  0  0  0  0  0  0  0  0  0  # atno 17321 bound_to 7965
  140.0204  144.6157  150.7571 LP  0  0  0  0  0  0  0  0  0  0  0  0  # atno 17342 bound_to 10162
  140.7404  143.2804  151.3615 LP  0  0  0  0  0  0  0  0  0  0  0  0  # atno 17343 bound_to 10162
  157.7341  130.9741  150.2012 LP  0  0  0  0  0  0  0  0  0  0  0  0  # atno 17370 bound_to 10713
  156.2687  130.3719  149.8054 LP  0  0  0  0  0  0  0  0  0  0  0  0  # atno 17371 bound_to 10713
  140.1555  134.9201  157.2648 LP  0  0  0  0  0  0  0  0  0  0  0  0  # atno 17394 bound_to 11000
  140.2672  134.3502  155.7386 LP  0  0  0  0  0  0  0  0  0  0  0  0  # atno 17395 bound_to 11000

$$$$
