AV-unprocessed.smi:2638|AV-procd|sdf|10263|dock6
  -GOLD-   2272014273D 1   1.00000     0.00000
 Structure written by MMmdl.
 43 44  0  0  0  0  0  0  0  0  1 V2000
  144.6202  136.5291  152.7001 O   0  0  0  0  0  0  0  0  0  0  0  0
  145.8158  136.3664  152.4573 C   0  0  0  0  0  0  0  0  0  0  0  0
  146.3419  135.2998  151.8303 N   0  0  0  0  0  0  0  0  0  0  0  0
  145.6757  134.1485  151.3319 C   0  0  0  0  0  0  0  0  0  0  0  0
  144.2586  134.0985  151.2716 C   0  0  0  0  0  0  0  0  0  0  0  0
  143.6293  132.9522  150.7488 C   0  0  0  0  0  0  0  0  0  0  0  0
  144.4270  131.8907  150.2869 C   0  0  0  0  0  0  0  0  0  0  0  0
  145.8243  132.0309  150.3641 C   0  0  0  0  0  0  0  0  0  0  0  0
  146.4313  133.1279  150.8647 N   0  0  0  0  0  0  0  0  0  0  0  0
  146.7749  137.2405  152.8058 N   0  0  0  0  0  0  0  0  0  0  0  0
  146.6023  138.5229  153.5003 C   0  0  1  0  0  0  0  0  0  0  0  0
  145.7956  138.3464  154.8138 C   0  0  0  0  0  0  0  0  0  0  0  0
  144.2720  138.4729  154.6376 C   0  0  0  0  0  0  0  0  0  0  0  0
  143.9431  139.7888  154.2487 O   0  0  0  0  0  0  0  0  0  0  0  0
  147.9509  139.2887  153.6701 C   0  0  0  0  0  0  0  0  0  0  0  0
  148.9901  138.4845  154.4899 C   0  0  0  0  0  0  0  0  0  0  0  0
  150.3110  139.2495  154.6755 C   0  0  0  0  0  0  0  0  0  0  0  0
  150.0786  140.6206  155.3217 C   0  0  0  0  0  0  0  0  0  0  0  0
  149.0753  141.4401  154.5015 C   0  0  0  0  0  0  0  0  0  0  0  0
  147.7515  140.6809  154.3231 C   0  0  0  0  0  0  0  0  0  0  0  0
  147.3497  135.2613  151.7939 H   0  0  0  0  0  0  0  0  0  0  0  0
  143.6453  134.9220  151.6046 H   0  0  0  0  0  0  0  0  0  0  0  0
  142.5521  132.8922  150.6973 H   0  0  0  0  0  0  0  0  0  0  0  0
  143.9804  130.9962  149.8786 H   0  0  0  0  0  0  0  0  0  0  0  0
  146.4732  131.2427  150.0120 H   0  0  0  0  0  0  0  0  0  0  0  0
  147.7248  136.9987  152.5645 H   0  0  0  0  0  0  0  0  0  0  0  0
  145.9816  139.1191  152.8303 H   0  0  0  0  0  0  0  0  0  0  0  0
  146.0319  137.3854  155.2724 H   0  0  0  0  0  0  0  0  0  0  0  0
  146.1016  139.1049  155.5330 H   0  0  0  0  0  0  0  0  0  0  0  0
  143.9149  137.7793  153.8758 H   0  0  0  0  0  0  0  0  0  0  0  0
  143.7436  138.2443  155.5634 H   0  0  0  0  0  0  0  0  0  0  0  0
  144.0737  139.8687  153.3162 H   0  0  0  0  0  0  0  0  0  0  0  0
  148.3785  139.4483  152.6794 H   0  0  0  0  0  0  0  0  0  0  0  0
  148.5744  138.2341  155.4667 H   0  0  0  0  0  0  0  0  0  0  0  0
  149.2214  137.5398  154.0000 H   0  0  0  0  0  0  0  0  0  0  0  0
  150.9963  138.6627  155.2877 H   0  0  0  0  0  0  0  0  0  0  0  0
  150.7967  139.3788  153.7074 H   0  0  0  0  0  0  0  0  0  0  0  0
  149.7039  140.4899  156.3377 H   0  0  0  0  0  0  0  0  0  0  0  0
  151.0227  141.1598  155.4050 H   0  0  0  0  0  0  0  0  0  0  0  0
  148.8909  142.3972  154.9902 H   0  0  0  0  0  0  0  0  0  0  0  0
  149.5000  141.6691  153.5233 H   0  0  0  0  0  0  0  0  0  0  0  0
  147.0847  141.2999  153.7231 H   0  0  0  0  0  0  0  0  0  0  0  0
  147.2687  140.5637  155.2941 H   0  0  0  0  0  0  0  0  0  0  0  0
  1  2  2  0  0  0  0
  2  3  1  0  0  0  0
  2 10  1  0  0  0  0
  3  4  1  0  0  0  0
  3 21  1  0  0  0  0
  4  9  1  0  0  0  0
  4  5  2  0  0  0  0
  5  6  1  0  0  0  0
  5 22  1  0  0  0  0
  6  7  2  0  0  0  0
  6 23  1  0  0  0  0
  7  8  1  0  0  0  0
  7 24  1  0  0  0  0
  8  9  2  0  0  0  0
  8 25  1  0  0  0  0
 10 11  1  0  0  0  0
 10 26  1  0  0  0  0
 11 12  1  0  0  0  0
 11 15  1  0  0  0  0
 11 27  1  0  0  0  0
 12 13  1  0  0  0  0
 12 28  1  0  0  0  0
 12 29  1  0  0  0  0
 13 14  1  0  0  0  0
 13 30  1  0  0  0  0
 13 31  1  0  0  0  0
 14 32  1  0  0  0  0
 15 20  1  0  0  0  0
 15 16  1  0  0  0  0
 15 33  1  0  0  0  0
 16 17  1  0  0  0  0
 16 34  1  0  0  0  0
 16 35  1  0  0  0  0
 17 18  1  0  0  0  0
 17 36  1  0  0  0  0
 17 37  1  0  0  0  0
 18 19  1  0  0  0  0
 18 38  1  0  0  0  0
 18 39  1  0  0  0  0
 19 20  1  0  0  0  0
 19 40  1  0  0  0  0
 19 41  1  0  0  0  0
 20 42  1  0  0  0  0
 20 43  1  0  0  0  0
M  END
> <s_m_source_file>
AV-unprocessed.smi

> <i_m_source_file_index>
2638

> <i_lp_mmshare_version>
43012

> <i_f3d_flags>
0

> <s_epik_input>
bjFbY0hdW2NIXVtjSF1bY0hdYzFbTkhdQyg9TylbTkhdW0NASF0oW0NIMl1bQ0gyXVtPSF0pW0NIXTJbQ0gyXVtDSDJdW0NIMl1bQ0gyXVtDSDJdMg==

> <s_epik_cmdline>
J2VwaWtfcHl0aG9uJywgJy1waCcsICc3LjAnLCAnLXRuJywgJzgnLCAnLW1hJywgJzIwMCcsICctbWV0YWxfYmluZGluZycsICctaW1hZScsICc8aW5maWxlLm1hZT4nLCAnLW9tYWUnLCAnPG91dGZpbGUubWFlPic=

> <r_lp_tautomer_probability>
1

> <r_epik_Ionization_Penalty>
5.22449e-05

> <r_epik_Ionization_Penalty_Charging>
0

> <r_epik_Ionization_Penalty_Neutral>
5.22449e-05

> <r_epik_State_Penalty>
-0

> <r_epik_Charging_Adjusted_Penalty>
0

> <i_epik_Tot_Q>
0

> <i_epik_Tot_abs_Q>
0

> <r_epik_Metal_State_Penalty>
-0

> <b_epik_Metal_Only>
0

> <s_lp_Force_Field>
OPLS_2005

> <r_lp_Energy>
21.512

> <b_lp_Chiralities_Consistent>
1

> <s_lp_Variant>
AV-unprocessed.smi:2638-2

> <Gold.Version>
5.8.1

> <Gold.Id.Protein>
6NUR|6NUR_protein|mol2

> <Gold.PLP.Fitness>
44.0071

> <Gold.PLP.PLP>
-32.9461

> <Gold.PLP.part.hbond>
-2.6615

> <Gold.PLP.part.metal>
0.0000

> <Gold.PLP.part.buried>
-2.8817

> <Gold.PLP.part.nonpolar>
-27.0303

> <Gold.PLP.part.repulsive>
0.3968

> <Gold.PLP.ligand.clash>
0.0000

> <Gold.PLP.ligand.torsion>
0.5134

> <Gold.PLP.Chemscore.Hbond>
2.9920

> <Gold.PLP.Chemscore.CHOScore>
1.0000

> <Gold.PLP.Chemscore.Metal>
0.0000

> <Gold.Chemscore.Hbonds>
donor molecule, donor type, donor heavy atom, donor atom, acceptor molecule, acceptor atom, score
      L1  H     3    21       P1  7948  0.96
      L1  H    10    26       P1  7948  1.00
      L1  C     8    25       P1 10747  1.00

> <Gold.PLP.Chemscore.Internal.Correction>
0.1120

> <Gold.Rescore>
     Score         DG    S(hbond)    S(metal)    S(lipo)     H(rot)  DE(clash)    DE(int)     intcor
     16.60     -18.70       2.91        0.00      80.16       2.30       0.02       2.08       ----

> <Gold.Chemscore.Fitness>
16.6030

> <Gold.Chemscore.DG>
-18.7049

> <Gold.Chemscore.ZeroCoef>
-5.4800

> <Gold.Chemscore.Hbond>
2.9124

> <Gold.Chemscore.Metal>
0.0000

> <Gold.Chemscore.Lipo>
80.1551

> <Gold.Chemscore.Internal_Hbond>
0.0000

> <Gold.Chemscore.DEClash>
0.0224

> <Gold.Chemscore.DEInternal>
2.0795

> <Gold.Chemscore.Rot>
2.2972

> <Gold.Chemscore.Internal.Correction>
   9.000000E+99

> <Gold.Chemscore.Hbonds>
donor molecule, donor type, donor heavy atom, donor atom, acceptor molecule, acceptor atom, score
      L1  H     3    21       P1  7948  0.89
      L1  H    10    26       P1  7948  0.98
      L1  H    14    32       P1 10175  0.03

> <Gold.Chemscore.Hbond.Weighted>
-9.7275

> <Gold.Chemscore.Metal.Weighted>
-0.0000

> <Gold.Chemscore.Lipo.Weighted>
-9.3781

> <Gold.Chemscore.Internal_Hbond.Weighted>
0.0000

> <Gold.Chemscore.DEClash.Weighted>
0.0224

> <Gold.Chemscore.DEInternal.Weighted>
2.0795

> <Gold.Chemscore.Rot.Weighted>
5.8807

> <Gold.Chemscore.Internal.Correction.Weighted>
   9.000000E+99

> <Gold.Protein.RotatedTorsions>
[ 6907 6896 6895 6894 ] final  167.44 input  -60.11 | X-H torsion
[ 7974 7965 7964 7962 ] final   14.73 input  175.53 | X-H torsion
[ 8008 7997 7996 7995 ] final   45.99 input   59.86 | X-H torsion
[ 10167 10162 10161 10158 ] final   74.14 input  -65.29 | X-H torsion
[ 10718 10713 10712 10709 ] final  -20.79 input   66.30 | X-H torsion
[ 10763 10752 10751 10750 ] final  -65.76 input  -60.55 | X-H torsion
[ 11005 11000 10999 10996 ] final  106.69 input  -57.11 | X-H torsion

> <Gold.Protein.ActiveResidues>
 VAL166  LYS551  ARG553  GLY616  TRP617  ASP618  TYR619  PRO620  LYS621  CYS622 
 ASP623  PHE694  ASN695  SER759  ASP760  ASP761  ALA762  ILE779  LEU786  VAL792 
 PHE793  MET794  SER795  GLU796  ALA797  LYS798  CYS799  TRP800  GLU811  SER814 

> <Gold.Protein.RotatedAtoms>
  151.8632  133.3461  159.3710 H   0  0  0  0  0  0  0  0  0  0  0  0  # atno 6907 bound_to 6896
  150.7173  134.5186  159.5651 H   0  0  0  0  0  0  0  0  0  0  0  0  # atno 6908 bound_to 6896
  152.2703  134.7940  160.0466 H   0  0  0  0  0  0  0  0  0  0  0  0  # atno 6909 bound_to 6896
  146.2297  139.8999  142.8541 H   0  0  0  0  0  0  0  0  0  0  0  0  # atno 7974 bound_to 7965
  155.3451  140.3410  155.4239 H   0  0  0  0  0  0  0  0  0  0  0  0  # atno 8008 bound_to 7997
  156.1793  140.1658  156.8340 H   0  0  0  0  0  0  0  0  0  0  0  0  # atno 8009 bound_to 7997
  154.5316  140.0744  156.8338 H   0  0  0  0  0  0  0  0  0  0  0  0  # atno 8010 bound_to 7997
  140.0169  144.5571  150.7613 H   0  0  0  0  0  0  0  0  0  0  0  0  # atno 10167 bound_to 10162
  156.5270  130.4646  149.6566 H   0  0  0  0  0  0  0  0  0  0  0  0  # atno 10718 bound_to 10713
  154.3498  135.6139  153.5637 H   0  0  0  0  0  0  0  0  0  0  0  0  # atno 10763 bound_to 10752
  152.9799  135.5789  154.4757 H   0  0  0  0  0  0  0  0  0  0  0  0  # atno 10764 bound_to 10752
  154.4476  135.2852  155.1781 H   0  0  0  0  0  0  0  0  0  0  0  0  # atno 10765 bound_to 10752
  139.8817  134.9377  156.5704 H   0  0  0  0  0  0  0  0  0  0  0  0  # atno 11005 bound_to 11000
  145.2334  140.9982  143.3977 LP  0  0  0  0  0  0  0  0  0  0  0  0  # atno 17320 bound_to 7965
  144.9511  139.4081  143.6402 LP  0  0  0  0  0  0  0  0  0  0  0  0  # atno 17321 bound_to 7965
  140.7358  143.2746  151.3782 LP  0  0  0  0  0  0  0  0  0  0  0  0  # atno 17342 bound_to 10162
  139.6166  144.0990  152.2352 LP  0  0  0  0  0  0  0  0  0  0  0  0  # atno 17343 bound_to 10162
  156.3095  130.7221  151.2111 LP  0  0  0  0  0  0  0  0  0  0  0  0  # atno 17370 bound_to 10713
  157.7428  131.0485  150.4998 LP  0  0  0  0  0  0  0  0  0  0  0  0  # atno 17371 bound_to 10713
  140.8102  133.8435  155.8803 LP  0  0  0  0  0  0  0  0  0  0  0  0  # atno 17394 bound_to 11000
  140.9513  134.1775  157.4725 LP  0  0  0  0  0  0  0  0  0  0  0  0  # atno 17395 bound_to 11000

$$$$
