AV-unprocessed.smi:704|AV-procd|sdf|3442|dock5
  -GOLD-   22720 0433D 1   1.00000     0.00000
 Structure written by MMmdl.
 38 39  0  0  0  0  0  0  0  0  1 V2000
  151.6324  145.7555  160.0238 C   0  0  0  0  0  0  0  0  0  0  0  0
  151.4235  144.5884  159.2360 O   0  0  0  0  0  0  0  0  0  0  0  0
  152.0367  143.4121  159.6235 C   0  0  0  0  0  0  0  0  0  0  0  0
  152.8001  143.4216  160.7452 N   0  0  0  0  0  0  0  0  0  0  0  0
  153.4024  142.2755  161.1230 C   0  0  0  0  0  0  0  0  0  0  0  0
  153.2834  141.0704  160.4068 C   0  0  0  0  0  0  0  0  0  0  0  0
  152.4916  141.0575  159.2435 C   0  0  0  0  0  0  0  0  0  0  0  0
  151.8407  142.2493  158.8424 C   0  0  0  0  0  0  0  0  0  0  0  0
  151.0336  142.3504  157.6760 N   0  0  0  0  0  0  0  0  0  0  0  0
  150.7887  141.4124  156.7459 C   0  0  0  0  0  0  0  0  0  0  0  0
  151.2473  140.2702  156.7480 O   0  0  0  0  0  0  0  0  0  0  0  0
  149.9472  141.8697  155.8080 N   0  0  0  0  0  0  0  0  0  0  0  0
  149.4539  141.0957  154.6712 C   0  0  2  0  0  0  0  0  0  0  0  0
  148.2829  141.8105  153.9802 C   0  0  0  0  0  0  0  0  0  0  0  0
  147.3632  140.6923  153.4997 C   0  0  0  0  0  0  0  0  0  0  0  0
  147.4678  139.6335  154.5942 C   0  0  0  0  0  0  0  0  0  0  0  0
  148.9207  139.7013  155.1039 C   0  0  1  0  0  0  0  0  0  0  0  0
  149.7857  138.5558  154.5522 C   0  0  0  0  0  0  0  0  0  0  0  0
  149.9291  138.4865  153.2263 N   0  0  0  0  0  0  0  0  0  0  0  0
  150.3185  137.7469  155.3100 O   0  0  0  0  0  0  0  0  0  0  0  0
  151.0806  146.5882  159.5875 H   0  0  0  0  0  0  0  0  0  0  0  0
  152.6863  146.0357  160.0512 H   0  0  0  0  0  0  0  0  0  0  0  0
  151.2712  145.6179  161.0439 H   0  0  0  0  0  0  0  0  0  0  0  0
  154.0025  142.3218  162.0197 H   0  0  0  0  0  0  0  0  0  0  0  0
  153.7919  140.1775  160.7392 H   0  0  0  0  0  0  0  0  0  0  0  0
  152.4120  140.1423  158.6777 H   0  0  0  0  0  0  0  0  0  0  0  0
  150.5181  143.2136  157.5831 H   0  0  0  0  0  0  0  0  0  0  0  0
  149.6159  142.8200  155.8884 H   0  0  0  0  0  0  0  0  0  0  0  0
  150.2590  140.9950  153.9395 H   0  0  0  0  0  0  0  0  0  0  0  0
  147.7399  142.4314  154.6948 H   0  0  0  0  0  0  0  0  0  0  0  0
  148.6111  142.4579  153.1663 H   0  0  0  0  0  0  0  0  0  0  0  0
  146.3392  141.0299  153.3373 H   0  0  0  0  0  0  0  0  0  0  0  0
  147.7358  140.2881  152.5575 H   0  0  0  0  0  0  0  0  0  0  0  0
  146.7875  139.8847  155.4091 H   0  0  0  0  0  0  0  0  0  0  0  0
  147.1775  138.6463  154.2309 H   0  0  0  0  0  0  0  0  0  0  0  0
  148.8981  139.6182  156.1925 H   0  0  0  0  0  0  0  0  0  0  0  0
  150.4996  137.7604  152.8179 H   0  0  0  0  0  0  0  0  0  0  0  0
  149.4773  139.1707  152.6373 H   0  0  0  0  0  0  0  0  0  0  0  0
  1  2  1  0  0  0  0
  1 21  1  0  0  0  0
  1 22  1  0  0  0  0
  1 23  1  0  0  0  0
  2  3  1  0  0  0  0
  3  8  1  0  0  0  0
  3  4  2  0  0  0  0
  4  5  1  0  0  0  0
  5  6  2  0  0  0  0
  5 24  1  0  0  0  0
  6  7  1  0  0  0  0
  6 25  1  0  0  0  0
  7  8  2  0  0  0  0
  7 26  1  0  0  0  0
  8  9  1  0  0  0  0
  9 10  1  0  0  0  0
  9 27  1  0  0  0  0
 10 11  2  0  0  0  0
 10 12  1  0  0  0  0
 12 13  1  0  0  0  0
 12 28  1  0  0  0  0
 13 17  1  0  0  0  0
 13 14  1  0  0  0  0
 13 29  1  0  0  0  0
 14 15  1  0  0  0  0
 14 30  1  0  0  0  0
 14 31  1  0  0  0  0
 15 16  1  0  0  0  0
 15 32  1  0  0  0  0
 15 33  1  0  0  0  0
 16 17  1  0  0  0  0
 16 34  1  0  0  0  0
 16 35  1  0  0  0  0
 17 18  1  0  0  0  0
 17 36  1  0  0  0  0
 18 19  1  0  0  0  0
 18 20  2  0  0  0  0
 19 37  1  0  0  0  0
 19 38  1  0  0  0  0
M  END
> <s_m_source_file>
AV-unprocessed.smi

> <i_m_source_file_index>
704

> <i_lp_mmshare_version>
43012

> <i_f3d_flags>
0

> <s_epik_input>
W0NIM11PYzFuW2NIXVtjSF1bY0hdYzFbTkhdQyg9TylbTkhdW0NAQEhdMltDSDJdW0NIMl1bQ0gyXVtDQEhdMkMoPU8pW05IMl0=

> <s_epik_cmdline>
J2VwaWtfcHl0aG9uJywgJy1waCcsICc3LjAnLCAnLXRuJywgJzgnLCAnLW1hJywgJzIwMCcsICctbWV0YWxfYmluZGluZycsICctaW1hZScsICc8aW5maWxlLm1hZT4nLCAnLW9tYWUnLCAnPG91dGZpbGUubWFlPic=

> <r_lp_tautomer_probability>
1

> <r_epik_Ionization_Penalty>
9.09123e-05

> <r_epik_Ionization_Penalty_Charging>
0

> <r_epik_Ionization_Penalty_Neutral>
9.09123e-05

> <r_epik_State_Penalty>
-0

> <r_epik_Charging_Adjusted_Penalty>
0

> <i_epik_Tot_Q>
0

> <i_epik_Tot_abs_Q>
0

> <r_epik_Metal_State_Penalty>
-0

> <b_epik_Metal_Only>
0

> <s_lp_Force_Field>
OPLS_2005

> <r_lp_Energy>
16.6187

> <b_lp_Chiralities_Consistent>
1

> <s_lp_Variant>
AV-unprocessed.smi:704-1

> <Gold.Version>
5.8.1

> <Gold.Id.Protein>
6NUR|6NUR_protein|mol2

> <Gold.PLP.Fitness>
43.9545

> <Gold.PLP.PLP>
-38.3159

> <Gold.PLP.part.hbond>
-3.1487

> <Gold.PLP.part.metal>
0.0000

> <Gold.PLP.part.buried>
-3.2307

> <Gold.PLP.part.nonpolar>
-32.0424

> <Gold.PLP.part.repulsive>
0.4938

> <Gold.PLP.ligand.clash>
0.0000

> <Gold.PLP.ligand.torsion>
0.1382

> <Gold.PLP.Chemscore.Hbond>
1.9690

> <Gold.PLP.Chemscore.CHOScore>
0.0000

> <Gold.PLP.Chemscore.Metal>
0.0000

> <Gold.Chemscore.Hbonds>
donor molecule, donor type, donor heavy atom, donor atom, acceptor molecule, acceptor atom, score
      L1  H    12    28       P1  8028  0.96
      L1  H    19    37       P1  7949  0.12
      L1  H    19    38       P1  7957  0.86

> <Gold.PLP.Chemscore.Internal.Correction>
0.0080

> <Gold.Rescore>
     Score         DG    S(hbond)    S(metal)    S(lipo)     H(rot)  DE(clash)    DE(int)     intcor
     13.75     -16.61       1.89        0.00      81.97       1.86       0.38       2.47       ----

> <Gold.Chemscore.Fitness>
13.7536

> <Gold.Chemscore.DG>
-16.6112

> <Gold.Chemscore.ZeroCoef>
-5.4800

> <Gold.Chemscore.Hbond>
1.8907

> <Gold.Chemscore.Metal>
0.0000

> <Gold.Chemscore.Lipo>
81.9665

> <Gold.Chemscore.Internal_Hbond>
0.0000

> <Gold.Chemscore.DEClash>
0.3831

> <Gold.Chemscore.DEInternal>
2.4744

> <Gold.Chemscore.Rot>
1.8648

> <Gold.Chemscore.Internal.Correction>
   9.000000E+99

> <Gold.Chemscore.Hbonds>
donor molecule, donor type, donor heavy atom, donor atom, acceptor molecule, acceptor atom, score
      L1  H    12    28       P1  8028  0.91
      L1  H    19    38       P1  7957  0.84

> <Gold.Chemscore.Hbond.Weighted>
-6.3150

> <Gold.Chemscore.Metal.Weighted>
-0.0000

> <Gold.Chemscore.Lipo.Weighted>
-9.5901

> <Gold.Chemscore.Internal_Hbond.Weighted>
0.0000

> <Gold.Chemscore.DEClash.Weighted>
0.3831

> <Gold.Chemscore.DEInternal.Weighted>
2.4744

> <Gold.Chemscore.Rot.Weighted>
4.7739

> <Gold.Chemscore.Internal.Correction.Weighted>
   9.000000E+99

> <Gold.Protein.RotatedTorsions>
[ 6907 6896 6895 6894 ] final  -11.86 input  -60.11 | X-H torsion
[ 7974 7965 7964 7962 ] final   66.82 input  175.53 | X-H torsion
[ 8008 7997 7996 7995 ] final  121.82 input   59.86 | X-H torsion
[ 10167 10162 10161 10158 ] final  -48.27 input  -65.29 | X-H torsion
[ 10718 10713 10712 10709 ] final -149.71 input   66.30 | X-H torsion
[ 10763 10752 10751 10750 ] final  -54.96 input  -60.55 | X-H torsion
[ 11005 11000 10999 10996 ] final  -39.74 input  -57.11 | X-H torsion

> <Gold.Protein.ActiveResidues>
 VAL166  LYS551  ARG553  GLY616  TRP617  ASP618  TYR619  PRO620  LYS621  CYS622 
 ASP623  PHE694  ASN695  SER759  ASP760  ASP761  ALA762  ILE779  LEU786  VAL792 
 PHE793  MET794  SER795  GLU796  ALA797  LYS798  CYS799  TRP800  GLU811  SER814 

> <Gold.Protein.RotatedAtoms>
  151.3796  135.0937  159.9491 H   0  0  0  0  0  0  0  0  0  0  0  0  # atno 6907 bound_to 6896
  152.5112  133.9085  159.7486 H   0  0  0  0  0  0  0  0  0  0  0  0  # atno 6908 bound_to 6896
  150.9516  133.6488  159.2800 H   0  0  0  0  0  0  0  0  0  0  0  0  # atno 6909 bound_to 6896
  145.8221  139.3090  143.1037 H   0  0  0  0  0  0  0  0  0  0  0  0  # atno 7974 bound_to 7965
  156.2702  140.2800  156.1369 H   0  0  0  0  0  0  0  0  0  0  0  0  # atno 8008 bound_to 7997
  155.0995  140.0389  157.2710 H   0  0  0  0  0  0  0  0  0  0  0  0  # atno 8009 bound_to 7997
  154.6826  140.2612  155.6898 H   0  0  0  0  0  0  0  0  0  0  0  0  # atno 8010 bound_to 7997
  140.6738  143.2747  151.4047 H   0  0  0  0  0  0  0  0  0  0  0  0  # atno 10167 bound_to 10162
  156.4367  130.8102  151.2330 H   0  0  0  0  0  0  0  0  0  0  0  0  # atno 10718 bound_to 10713
  154.1832  135.6440  153.5040 H   0  0  0  0  0  0  0  0  0  0  0  0  # atno 10763 bound_to 10752
  153.0054  135.5411  154.6492 H   0  0  0  0  0  0  0  0  0  0  0  0  # atno 10764 bound_to 10752
  154.5862  135.2930  155.0655 H   0  0  0  0  0  0  0  0  0  0  0  0  # atno 10765 bound_to 10752
  141.0124  133.6901  156.2228 H   0  0  0  0  0  0  0  0  0  0  0  0  # atno 11005 bound_to 11000
  145.9664  140.8795  143.0185 LP  0  0  0  0  0  0  0  0  0  0  0  0  # atno 17320 bound_to 7965
  144.6747  140.1884  143.7399 LP  0  0  0  0  0  0  0  0  0  0  0  0  # atno 17321 bound_to 7965
  139.6020  144.1276  152.2208 LP  0  0  0  0  0  0  0  0  0  0  0  0  # atno 17342 bound_to 10162
  140.0663  144.5815  150.7225 LP  0  0  0  0  0  0  0  0  0  0  0  0  # atno 17343 bound_to 10162
  157.7507  131.0181  150.3613 LP  0  0  0  0  0  0  0  0  0  0  0  0  # atno 17370 bound_to 10713
  156.3962  130.3907  149.6993 LP  0  0  0  0  0  0  0  0  0  0  0  0  # atno 17371 bound_to 10713
  140.6711  134.4867  157.5587 LP  0  0  0  0  0  0  0  0  0  0  0  0  # atno 17394 bound_to 11000
  139.9097  134.8370  156.1572 LP  0  0  0  0  0  0  0  0  0  0  0  0  # atno 17395 bound_to 11000

$$$$
