AV-unprocessed.smi:1230|AV-procd|sdf|5159|dock4
  -GOLD-   22720 4233D 1   1.00000     0.00000
 Structure written by MMmdl.
 39 40  0  0  0  0  0  0  0  0  1 V2000
  153.8408  141.1739  159.8698 C   0  0  0  0  0  0  0  0  0  0  0  0
  152.6485  142.1439  159.9123 C   0  0  1  0  0  0  0  0  0  0  0  0
  152.9507  143.3349  160.8438 C   0  0  0  0  0  0  0  0  0  0  0  0
  151.7793  144.3269  160.9006 C   0  0  0  0  0  0  0  0  0  0  0  0
  151.4083  144.8216  159.4960 C   0  0  0  0  0  0  0  0  0  0  0  0
  151.0934  143.6437  158.5622 C   0  0  0  0  0  0  0  0  0  0  0  0
  152.2634  142.6388  158.4994 C   0  0  2  0  0  0  0  0  0  0  0  0
  151.8760  141.5062  157.7307 O   0  0  0  0  0  0  0  0  0  0  0  0
  151.2993  141.8199  156.4725 C   0  0  0  0  0  0  0  0  0  0  0  0
  151.4764  140.6108  155.5418 C   0  0  0  0  0  0  0  0  0  0  0  0
  150.2954  140.3231  154.7670 N   0  0  0  0  0  0  0  0  0  0  0  0
  149.1410  141.0855  154.8607 C   0  0  0  0  0  0  0  0  0  0  0  0
  148.0215  140.8106  154.1503 C   0  0  0  0  0  0  0  0  0  0  0  0
  146.8411  141.6027  154.2589 C   0  0  0  0  0  0  0  0  0  0  0  0
  145.8944  142.2641  154.3329 N   0  0  0  0  0  0  0  0  0  0  0  0
  147.9782  139.6715  153.2348 C   0  0  0  0  0  0  0  0  0  0  0  0
  147.0149  139.3412  152.5459 O   0  0  0  0  0  0  0  0  0  0  0  0
  149.1629  138.9297  153.1819 N   0  0  0  0  0  0  0  0  0  0  0  0
  150.3241  139.1978  153.9098 C   0  0  0  0  0  0  0  0  0  0  0  0
  151.3066  138.4657  153.7887 O   0  0  0  0  0  0  0  0  0  0  0  0
  149.1789  138.1289  152.5668 H   0  0  0  0  0  0  0  0  0  0  0  0
  154.7251  141.6511  159.4463 H   0  0  0  0  0  0  0  0  0  0  0  0
  153.6168  140.2944  159.2659 H   0  0  0  0  0  0  0  0  0  0  0  0
  154.0982  140.8246  160.8701 H   0  0  0  0  0  0  0  0  0  0  0  0
  151.7957  141.6038  160.3265 H   0  0  0  0  0  0  0  0  0  0  0  0
  153.1702  142.9751  161.8496 H   0  0  0  0  0  0  0  0  0  0  0  0
  153.8469  143.8534  160.5001 H   0  0  0  0  0  0  0  0  0  0  0  0
  150.9148  143.8474  161.3614 H   0  0  0  0  0  0  0  0  0  0  0  0
  152.0396  145.1736  161.5364 H   0  0  0  0  0  0  0  0  0  0  0  0
  150.5498  145.4915  159.5524 H   0  0  0  0  0  0  0  0  0  0  0  0
  152.2313  145.4065  159.0834 H   0  0  0  0  0  0  0  0  0  0  0  0
  150.1940  143.1352  158.9120 H   0  0  0  0  0  0  0  0  0  0  0  0
  150.8622  144.0275  157.5689 H   0  0  0  0  0  0  0  0  0  0  0  0
  153.1363  143.1193  158.0530 H   0  0  0  0  0  0  0  0  0  0  0  0
  150.2430  142.0633  156.5842 H   0  0  0  0  0  0  0  0  0  0  0  0
  151.7950  142.6931  156.0455 H   0  0  0  0  0  0  0  0  0  0  0  0
  152.2763  140.7929  154.8226 H   0  0  0  0  0  0  0  0  0  0  0  0
  151.7509  139.7019  156.0817 H   0  0  0  0  0  0  0  0  0  0  0  0
  149.1271  141.9346  155.5296 H   0  0  0  0  0  0  0  0  0  0  0  0
  1  2  1  0  0  0  0
  1 22  1  0  0  0  0
  1 23  1  0  0  0  0
  1 24  1  0  0  0  0
  2  7  1  0  0  0  0
  2  3  1  0  0  0  0
  2 25  1  0  0  0  0
  3  4  1  0  0  0  0
  3 26  1  0  0  0  0
  3 27  1  0  0  0  0
  4  5  1  0  0  0  0
  4 28  1  0  0  0  0
  4 29  1  0  0  0  0
  5  6  1  0  0  0  0
  5 30  1  0  0  0  0
  5 31  1  0  0  0  0
  6  7  1  0  0  0  0
  6 32  1  0  0  0  0
  6 33  1  0  0  0  0
  7  8  1  0  0  0  0
  7 34  1  0  0  0  0
  8  9  1  0  0  0  0
  9 10  1  0  0  0  0
  9 35  1  0  0  0  0
  9 36  1  0  0  0  0
 10 11  1  0  0  0  0
 10 37  1  0  0  0  0
 10 38  1  0  0  0  0
 11 19  1  0  0  0  0
 11 12  1  0  0  0  0
 12 13  2  0  0  0  0
 12 39  1  0  0  0  0
 13 14  1  0  0  0  0
 13 16  1  0  0  0  0
 14 15  3  0  0  0  0
 16 17  2  0  0  0  0
 16 18  1  0  0  0  0
 18 21  1  0  0  0  0
 18 19  1  0  0  0  0
 19 20  2  0  0  0  0
M  END
> <s_m_source_file>
AV-unprocessed.smi

> <i_m_source_file_index>
1230

> <i_lp_mmshare_version>
43012

> <i_f3d_flags>
0

> <s_epik_input>
W0NIM11bQ0BASF0xW0NIMl1bQ0gyXVtDSDJdW0NIMl1bQ0BIXTFPW0NIMl1bQ0gyXW4yW2NIXWMoQyNOKWMoPU8pW25IXWMyPU8=

> <s_epik_cmdline>
J2VwaWtfcHl0aG9uJywgJy1waCcsICc3LjAnLCAnLXRuJywgJzgnLCAnLW1hJywgJzIwMCcsICctbWV0YWxfYmluZGluZycsICctaW1hZScsICc8aW5maWxlLm1hZT4nLCAnLW9tYWUnLCAnPG91dGZpbGUubWFlPic=

> <r_epik_Ionization_Penalty>
0.421541

> <r_epik_Ionization_Penalty_Charging>
0.421541

> <r_epik_Ionization_Penalty_Neutral>
2.29267e-11

> <r_epik_State_Penalty>
0.422277

> <r_epik_Charging_Adjusted_Penalty>
0.843818

> <i_epik_Tot_Q>
0

> <i_epik_Tot_abs_Q>
0

> <r_epik_Metal_State_Penalty>
4.11629

> <b_epik_Metal_Only>
0

> <s_lp_Force_Field>
OPLS_2005

> <r_lp_Energy>
13.3669

> <b_lp_Chiralities_Consistent>
1

> <s_lp_Variant>
AV-unprocessed.smi:1230-8

> <Gold.Version>
5.8.1

> <Gold.Id.Protein>
6NUR|6NUR_protein|mol2

> <Gold.PLP.Fitness>
51.4397

> <Gold.PLP.PLP>
-47.2828

> <Gold.PLP.part.hbond>
-1.9426

> <Gold.PLP.part.metal>
0.0000

> <Gold.PLP.part.buried>
-4.8811

> <Gold.PLP.part.nonpolar>
-40.8188

> <Gold.PLP.part.repulsive>
0.7892

> <Gold.PLP.ligand.clash>
0.0000

> <Gold.PLP.ligand.torsion>
0.4801

> <Gold.PLP.Chemscore.Hbond>
0.9263

> <Gold.PLP.Chemscore.CHOScore>
0.7693

> <Gold.PLP.Chemscore.Metal>
0.0000

> <Gold.Chemscore.Hbonds>
donor molecule, donor type, donor heavy atom, donor atom, acceptor molecule, acceptor atom, score
      L1  H    18    21       P1  7948  1.00
      L1  C    12    39       P1  8028  0.34

> <Gold.PLP.Chemscore.Internal.Correction>
0.0304

> <Gold.Rescore>
     Score         DG    S(hbond)    S(metal)    S(lipo)     H(rot)  DE(clash)    DE(int)     intcor
     15.64     -16.24       0.99        0.00     106.18       1.94       0.16       0.44       ----

> <Gold.Chemscore.Fitness>
15.6410

> <Gold.Chemscore.DG>
-16.2425

> <Gold.Chemscore.ZeroCoef>
-5.4800

> <Gold.Chemscore.Hbond>
0.9886

> <Gold.Chemscore.Metal>
0.0000

> <Gold.Chemscore.Lipo>
106.1807

> <Gold.Chemscore.Internal_Hbond>
0.0000

> <Gold.Chemscore.DEClash>
0.1587

> <Gold.Chemscore.DEInternal>
0.4427

> <Gold.Chemscore.Rot>
1.9385

> <Gold.Chemscore.Internal.Correction>
   9.000000E+99

> <Gold.Chemscore.Hbonds>
donor molecule, donor type, donor heavy atom, donor atom, acceptor molecule, acceptor atom, score
      L1  H    18    21       P1  7948  0.91

> <Gold.Chemscore.Hbond.Weighted>
-3.3019

> <Gold.Chemscore.Metal.Weighted>
-0.0000

> <Gold.Chemscore.Lipo.Weighted>
-12.4231

> <Gold.Chemscore.Internal_Hbond.Weighted>
0.0000

> <Gold.Chemscore.DEClash.Weighted>
0.1587

> <Gold.Chemscore.DEInternal.Weighted>
0.4427

> <Gold.Chemscore.Rot.Weighted>
4.9625

> <Gold.Chemscore.Internal.Correction.Weighted>
   9.000000E+99

> <Gold.Protein.RotatedTorsions>
[ 6907 6896 6895 6894 ] final  101.49 input  -60.11 | X-H torsion
[ 7974 7965 7964 7962 ] final  141.06 input  175.53 | X-H torsion
[ 8008 7997 7996 7995 ] final  -78.23 input   59.86 | X-H torsion
[ 10167 10162 10161 10158 ] final   99.53 input  -65.29 | X-H torsion
[ 10718 10713 10712 10709 ] final   92.10 input   66.30 | X-H torsion
[ 10763 10752 10751 10750 ] final   58.08 input  -60.55 | X-H torsion
[ 11005 11000 10999 10996 ] final   -0.75 input  -57.11 | X-H torsion

> <Gold.Protein.ActiveResidues>
 VAL166  LYS551  ARG553  GLY616  TRP617  ASP618  TYR619  PRO620  LYS621  CYS622 
 ASP623  PHE694  ASN695  SER759  ASP760  ASP761  ALA762  ILE779  LEU786  VAL792 
 PHE793  MET794  SER795  GLU796  ALA797  LYS798  CYS799  TRP800  GLU811  SER814 

> <Gold.Protein.RotatedAtoms>
  152.5348  134.0117  159.7941 H   0  0  0  0  0  0  0  0  0  0  0  0  # atno 6907 bound_to 6896
  151.0319  133.5775  159.2667 H   0  0  0  0  0  0  0  0  0  0  0  0  # atno 6908 bound_to 6896
  151.2777  135.0711  159.9211 H   0  0  0  0  0  0  0  0  0  0  0  0  # atno 6909 bound_to 6896
  144.9130  139.5268  143.5699 H   0  0  0  0  0  0  0  0  0  0  0  0  # atno 7974 bound_to 7965
  154.5670  140.0697  156.8907 H   0  0  0  0  0  0  0  0  0  0  0  0  # atno 8008 bound_to 7997
  155.2704  140.3365  155.4247 H   0  0  0  0  0  0  0  0  0  0  0  0  # atno 8009 bound_to 7997
  156.2088  140.1751  156.7726 H   0  0  0  0  0  0  0  0  0  0  0  0  # atno 8010 bound_to 7997
  139.7609  144.6954  151.0293 H   0  0  0  0  0  0  0  0  0  0  0  0  # atno 10167 bound_to 10162
  157.6959  131.0431  150.3830 H   0  0  0  0  0  0  0  0  0  0  0  0  # atno 10718 bound_to 10713
  152.9863  135.5619  154.5494 H   0  0  0  0  0  0  0  0  0  0  0  0  # atno 10763 bound_to 10752
  154.4934  135.2794  155.1481 H   0  0  0  0  0  0  0  0  0  0  0  0  # atno 10764 bound_to 10752
  154.2941  135.6320  153.5450 H   0  0  0  0  0  0  0  0  0  0  0  0  # atno 10765 bound_to 10752
  140.6397  133.9501  155.8319 H   0  0  0  0  0  0  0  0  0  0  0  0  # atno 11005 bound_to 11000
  146.3168  139.7951  142.8977 LP  0  0  0  0  0  0  0  0  0  0  0  0  # atno 17320 bound_to 7965
  145.3422  141.0290  143.3386 LP  0  0  0  0  0  0  0  0  0  0  0  0  # atno 17321 bound_to 7965
  140.7807  143.4698  151.0162 LP  0  0  0  0  0  0  0  0  0  0  0  0  # atno 17342 bound_to 10162
  139.8384  143.7597  152.3180 LP  0  0  0  0  0  0  0  0  0  0  0  0  # atno 17343 bound_to 10162
  156.4241  130.3959  149.6804 LP  0  0  0  0  0  0  0  0  0  0  0  0  # atno 17370 bound_to 10713
  156.4045  130.7691  151.2701 LP  0  0  0  0  0  0  0  0  0  0  0  0  # atno 17371 bound_to 10713
  141.0616  134.0338  157.3651 LP  0  0  0  0  0  0  0  0  0  0  0  0  # atno 17394 bound_to 11000
  139.9085  135.0185  156.7590 LP  0  0  0  0  0  0  0  0  0  0  0  0  # atno 17395 bound_to 11000

$$$$
