AV-unprocessed.smi:1196|AV-procd|sdf|4996|dock8
  -GOLD-   22720 4 03D 1   1.00000     0.00000
 Structure written by MMmdl.
 37 38  0  0  0  0  0  0  0  0  1 V2000
  154.4778  140.4854  160.8873 C   0  0  0  0  0  0  0  0  0  0  0  0
  153.5554  141.2006  159.8877 C   0  0  2  0  0  0  0  0  0  0  0  0
  153.0396  142.5378  160.4546 C   0  0  0  0  0  0  0  0  0  0  0  0
  152.4077  143.3648  159.4417 N   0  0  0  0  0  0  0  0  0  0  0  0
  152.2384  144.7335  159.4358 C   0  0  0  0  0  0  0  0  0  0  0  0
  151.5871  145.0574  158.2803 C   0  0  0  0  0  0  0  0  0  0  0  0
  151.4014  143.8031  157.6343 C   0  0  0  0  0  0  0  0  0  0  0  0
  151.8956  142.7923  158.3308 N   0  0  0  0  0  0  0  0  0  0  0  0
  152.4295  140.3343  159.5417 N   0  0  0  0  0  0  0  0  0  0  0  0
  152.2303  139.7554  158.3477 C   0  0  0  0  0  0  0  0  0  0  0  0
  153.0029  139.8836  157.3976 O   0  0  0  0  0  0  0  0  0  0  0  0
  150.9603  138.9097  158.2115 C   0  0  0  0  0  0  0  0  0  0  0  0
  150.9433  138.0450  156.9356 C   0  0  0  0  0  0  0  0  0  0  0  0
  150.9994  138.8786  155.6403 C   0  0  2  0  0  0  0  0  0  0  0  0
  149.7696  139.6098  155.3867 N   0  0  0  0  0  0  0  0  0  0  0  0
  149.2028  139.2709  154.2207 C   0  0  0  0  0  0  0  0  0  0  0  0
  148.1634  139.7379  153.7612 O   0  0  0  0  0  0  0  0  0  0  0  0
  149.9666  138.3351  153.6471 N   0  0  0  0  0  0  0  0  0  0  0  0
  151.0291  138.0218  154.3869 C   0  0  0  0  0  0  0  0  0  0  0  0
  151.8947  137.1895  154.1237 O   0  0  0  0  0  0  0  0  0  0  0  0
  155.3330  141.1102  161.1460 H   0  0  0  0  0  0  0  0  0  0  0  0
  154.8666  139.5554  160.4714 H   0  0  0  0  0  0  0  0  0  0  0  0
  153.9509  140.2430  161.8110 H   0  0  0  0  0  0  0  0  0  0  0  0
  154.1357  141.4157  158.9884 H   0  0  0  0  0  0  0  0  0  0  0  0
  152.3250  142.3635  161.2603 H   0  0  0  0  0  0  0  0  0  0  0  0
  153.8640  143.1056  160.8886 H   0  0  0  0  0  0  0  0  0  0  0  0
  152.5887  145.3555  160.2464 H   0  0  0  0  0  0  0  0  0  0  0  0
  151.2888  146.0402  157.9470 H   0  0  0  0  0  0  0  0  0  0  0  0
  150.9261  143.5986  156.6862 H   0  0  0  0  0  0  0  0  0  0  0  0
  151.7427  140.1736  160.2638 H   0  0  0  0  0  0  0  0  0  0  0  0
  150.8624  138.2726  159.0917 H   0  0  0  0  0  0  0  0  0  0  0  0
  150.1014  139.5816  158.2146 H   0  0  0  0  0  0  0  0  0  0  0  0
  151.7964  137.3643  156.9497 H   0  0  0  0  0  0  0  0  0  0  0  0
  150.0516  137.4152  156.9330 H   0  0  0  0  0  0  0  0  0  0  0  0
  151.8486  139.5630  155.6435 H   0  0  0  0  0  0  0  0  0  0  0  0
  149.3978  140.2987  156.0241 H   0  0  0  0  0  0  0  0  0  0  0  0
  149.7560  137.9071  152.7574 H   0  0  0  0  0  0  0  0  0  0  0  0
  1  2  1  0  0  0  0
  1 21  1  0  0  0  0
  1 22  1  0  0  0  0
  1 23  1  0  0  0  0
  2  3  1  0  0  0  0
  2  9  1  0  0  0  0
  2 24  1  0  0  0  0
  3  4  1  0  0  0  0
  3 25  1  0  0  0  0
  3 26  1  0  0  0  0
  4  8  1  0  0  0  0
  4  5  1  0  0  0  0
  5  6  2  0  0  0  0
  5 27  1  0  0  0  0
  6  7  1  0  0  0  0
  6 28  1  0  0  0  0
  7  8  2  0  0  0  0
  7 29  1  0  0  0  0
  9 10  1  0  0  0  0
  9 30  1  0  0  0  0
 10 11  2  0  0  0  0
 10 12  1  0  0  0  0
 12 13  1  0  0  0  0
 12 31  1  0  0  0  0
 12 32  1  0  0  0  0
 13 14  1  0  0  0  0
 13 33  1  0  0  0  0
 13 34  1  0  0  0  0
 14 19  1  0  0  0  0
 14 15  1  0  0  0  0
 14 35  1  0  0  0  0
 15 16  1  0  0  0  0
 15 36  1  0  0  0  0
 16 17  2  0  0  0  0
 16 18  1  0  0  0  0
 18 19  1  0  0  0  0
 18 37  1  0  0  0  0
 19 20  2  0  0  0  0
M  END
> <s_m_source_file>
AV-unprocessed.smi

> <i_m_source_file_index>
1196

> <i_lp_mmshare_version>
43012

> <i_f3d_flags>
0

> <s_epik_input>
bjFbY0hdW2NIXVtjSF1uMVtDSDJdW0NAQEhdKFtDSDNdKVtOSF1DKD1PKVtDSDJdW0NIMl1bQ0BASF0yW05IXUMoPU8pW05IXUMyPU8=

> <s_epik_cmdline>
J2VwaWtfcHl0aG9uJywgJy1waCcsICc3LjAnLCAnLXRuJywgJzgnLCAnLW1hJywgJzIwMCcsICctbWV0YWxfYmluZGluZycsICctaW1hZScsICc8aW5maWxlLm1hZT4nLCAnLW9tYWUnLCAnPG91dGZpbGUubWFlPic=

> <r_lp_tautomer_probability>
1

> <r_epik_Ionization_Penalty>
0.00815973

> <r_epik_Ionization_Penalty_Charging>
0

> <r_epik_Ionization_Penalty_Neutral>
0.00815973

> <r_epik_State_Penalty>
0.00583796

> <r_epik_Charging_Adjusted_Penalty>
0.00583796

> <i_epik_Tot_Q>
0

> <i_epik_Tot_abs_Q>
0

> <r_epik_Metal_State_Penalty>
0.409204

> <b_epik_Metal_Only>
0

> <s_lp_Force_Field>
OPLS_2005

> <r_lp_Energy>
19.6523

> <b_lp_Chiralities_Consistent>
1

> <s_lp_Variant>
AV-unprocessed.smi:1196-1

> <Gold.Version>
5.8.1

> <Gold.Id.Protein>
6NUR|6NUR_protein|mol2

> <Gold.PLP.Fitness>
49.8886

> <Gold.PLP.PLP>
-39.3453

> <Gold.PLP.part.hbond>
-4.0000

> <Gold.PLP.part.metal>
0.0000

> <Gold.PLP.part.buried>
-5.5886

> <Gold.PLP.part.nonpolar>
-32.0167

> <Gold.PLP.part.repulsive>
1.9893

> <Gold.PLP.ligand.clash>
0.0000

> <Gold.PLP.ligand.torsion>
0.6266

> <Gold.PLP.Chemscore.Hbond>
2.9040

> <Gold.PLP.Chemscore.CHOScore>
0.9946

> <Gold.PLP.Chemscore.Metal>
0.0000

> <Gold.Chemscore.Hbonds>
donor molecule, donor type, donor heavy atom, donor atom, acceptor molecule, acceptor atom, score
      L1  H    18    37       P1  7948  0.91
      P1  H  7997  8009       L1    11  1.00
      P1  H 10752 10763       L1    20  1.00
      L1  C     7    29       P1  8028  0.96

> <Gold.PLP.Chemscore.Internal.Correction>
0.1006

> <Gold.Rescore>
     Score         DG    S(hbond)    S(metal)    S(lipo)     H(rot)  DE(clash)    DE(int)     intcor
     15.18     -17.26       2.96        0.00      80.87       2.96       0.16       1.92       ----

> <Gold.Chemscore.Fitness>
15.1754

> <Gold.Chemscore.DG>
-17.2595

> <Gold.Chemscore.ZeroCoef>
-5.4800

> <Gold.Chemscore.Hbond>
2.9608

> <Gold.Chemscore.Metal>
0.0000

> <Gold.Chemscore.Lipo>
80.8701

> <Gold.Chemscore.Internal_Hbond>
0.0000

> <Gold.Chemscore.DEClash>
0.1606

> <Gold.Chemscore.DEInternal>
1.9236

> <Gold.Chemscore.Rot>
2.9575

> <Gold.Chemscore.Internal.Correction>
   9.000000E+99

> <Gold.Chemscore.Hbonds>
donor molecule, donor type, donor heavy atom, donor atom, acceptor molecule, acceptor atom, score
      L1  H    18    37       P1  7948  0.38
      P1  H  7997  8009       L1    11  0.96
      P1  H 10752 10763       L1    20  0.96

> <Gold.Chemscore.Hbond.Weighted>
-9.8891

> <Gold.Chemscore.Metal.Weighted>
-0.0000

> <Gold.Chemscore.Lipo.Weighted>
-9.4618

> <Gold.Chemscore.Internal_Hbond.Weighted>
0.0000

> <Gold.Chemscore.DEClash.Weighted>
0.1606

> <Gold.Chemscore.DEInternal.Weighted>
1.9236

> <Gold.Chemscore.Rot.Weighted>
7.5713

> <Gold.Chemscore.Internal.Correction.Weighted>
   9.000000E+99

> <Gold.Protein.RotatedTorsions>
[ 6907 6896 6895 6894 ] final -146.34 input  -60.11 | X-H torsion
[ 7974 7965 7964 7962 ] final   79.58 input  175.53 | X-H torsion
[ 8008 7997 7996 7995 ] final  161.34 input   59.86 | X-H torsion
[ 10167 10162 10161 10158 ] final    7.96 input  -65.29 | X-H torsion
[ 10718 10713 10712 10709 ] final   16.65 input   66.30 | X-H torsion
[ 10763 10752 10751 10750 ] final   31.51 input  -60.55 | X-H torsion
[ 11005 11000 10999 10996 ] final  156.95 input  -57.11 | X-H torsion

> <Gold.Protein.ActiveResidues>
 VAL166  LYS551  ARG553  GLY616  TRP617  ASP618  TYR619  PRO620  LYS621  CYS622 
 ASP623  PHE694  ASN695  SER759  ASP760  ASP761  ALA762  ILE779  LEU786  VAL792 
 PHE793  MET794  SER795  GLU796  ALA797  LYS798  CYS799  TRP800  GLU811  SER814 

> <Gold.Protein.RotatedAtoms>
  151.1403  133.4976  159.2596 H   0  0  0  0  0  0  0  0  0  0  0  0  # atno 6907 bound_to 6896
  151.1662  135.0296  159.8741 H   0  0  0  0  0  0  0  0  0  0  0  0  # atno 6908 bound_to 6896
  152.5462  134.1272  159.8477 H   0  0  0  0  0  0  0  0  0  0  0  0  # atno 6909 bound_to 6896
  145.6623  139.2475  143.1915 H   0  0  0  0  0  0  0  0  0  0  0  0  # atno 7974 bound_to 7965
  156.2110  140.1780  156.7695 H   0  0  0  0  0  0  0  0  0  0  0  0  # atno 8008 bound_to 7997
  154.5722  140.0680  156.9011 H   0  0  0  0  0  0  0  0  0  0  0  0  # atno 8009 bound_to 7997
  155.2652  140.3338  155.4272 H   0  0  0  0  0  0  0  0  0  0  0  0  # atno 8010 bound_to 7997
  140.6342  143.7924  150.7336 H   0  0  0  0  0  0  0  0  0  0  0  0  # atno 10167 bound_to 10162
  157.0708  130.6347  149.5805 H   0  0  0  0  0  0  0  0  0  0  0  0  # atno 10718 bound_to 10713
  153.0312  135.6437  154.1211 H   0  0  0  0  0  0  0  0  0  0  0  0  # atno 10763 bound_to 10752
  154.0933  135.2865  155.3268 H   0  0  0  0  0  0  0  0  0  0  0  0  # atno 10764 bound_to 10752
  154.6450  135.5446  153.7897 H   0  0  0  0  0  0  0  0  0  0  0  0  # atno 10765 bound_to 10752
  140.1723  134.8534  157.2705 H   0  0  0  0  0  0  0  0  0  0  0  0  # atno 11005 bound_to 11000
  146.1114  140.7423  142.9501 LP  0  0  0  0  0  0  0  0  0  0  0  0  # atno 17320 bound_to 7965
  144.7085  140.3946  143.7099 LP  0  0  0  0  0  0  0  0  0  0  0  0  # atno 17321 bound_to 7965
  140.1542  143.4331  152.2111 LP  0  0  0  0  0  0  0  0  0  0  0  0  # atno 17342 bound_to 10162
  139.5553  144.7368  151.4311 LP  0  0  0  0  0  0  0  0  0  0  0  0  # atno 17343 bound_to 10162
  155.9951  130.5016  150.7445 LP  0  0  0  0  0  0  0  0  0  0  0  0  # atno 17370 bound_to 10713
  157.4879  131.0908  151.0461 LP  0  0  0  0  0  0  0  0  0  0  0  0  # atno 17371 bound_to 10713
  140.2363  134.3849  155.7500 LP  0  0  0  0  0  0  0  0  0  0  0  0  # atno 17394 bound_to 11000
  141.2218  133.7241  156.8719 LP  0  0  0  0  0  0  0  0  0  0  0  0  # atno 17395 bound_to 11000

$$$$
