AV-unprocessed.smi:1285|AV-procd|sdf|5373|dock7
  -GOLD-   22720 4523D 1   1.00000     0.00000
 Structure written by MMmdl.
 47 48  0  0  0  0  0  0  0  0  2 V2000
  149.9953  133.9207  155.4412 C   0  0  0  0  0  0  0  0  0  0  0  0
  149.2323  133.9225  154.1042 C   0  0  0  0  0  0  0  0  0  0  0  0
  147.7047  134.2233  154.1890 C   0  0  1  0  0  0  0  0  0  0  0  0
  147.0088  133.0969  154.9969 C   0  0  0  0  0  0  0  0  0  0  0  0
  147.4788  135.5644  154.9564 C   0  0  0  0  0  0  0  0  0  0  0  0
  148.1948  136.7044  154.3821 N   0  0  0  0  0  0  0  0  0  0  0  0
  148.1914  137.9572  154.8653 C   0  0  0  0  0  0  0  0  0  0  0  0
  147.5510  138.2910  155.8624 O   0  0  0  0  0  0  0  0  0  0  0  0
  149.0394  138.9834  154.0976 C   0  0  1  0  0  0  0  0  0  0  0  0
  148.6583  140.4397  154.4318 C   0  0  0  0  0  0  0  0  0  0  0  0
  150.4582  138.7255  154.3076 N   0  0  0  0  0  0  0  0  0  0  0  0
  151.1602  137.6024  154.1412 C   0  0  0  0  0  0  0  0  0  0  0  0
  152.4397  137.7130  154.4691 N   0  0  0  0  0  0  0  0  0  0  0  0
  152.4611  139.0199  154.8666 C   0  0  0  0  0  0  0  0  0  0  0  0
  151.2993  139.6695  154.7985 N   0  0  0  0  0  0  0  0  0  0  0  0
  147.0928  134.3092  152.8113 N   0  3  0  0  0  0  0  0  0  0  0  0
  147.0571  133.0349  152.0398 C   0  0  0  0  0  0  0  0  0  0  0  0
  146.6304  133.3002  150.5873 C   0  0  0  0  0  0  0  0  0  0  0  0
  145.3524  133.9206  150.5754 O   0  0  0  0  0  0  0  0  0  0  0  0
  145.3690  135.1759  151.2407 C   0  0  0  0  0  0  0  0  0  0  0  0
  145.7669  134.9836  152.7143 C   0  0  0  0  0  0  0  0  0  0  0  0
  151.0526  133.7158  155.2729 H   0  0  0  0  0  0  0  0  0  0  0  0
  149.6261  133.1536  156.1215 H   0  0  0  0  0  0  0  0  0  0  0  0
  149.9335  134.8833  155.9480 H   0  0  0  0  0  0  0  0  0  0  0  0
  149.7207  134.6516  153.4583 H   0  0  0  0  0  0  0  0  0  0  0  0
  149.3943  132.9533  153.6333 H   0  0  0  0  0  0  0  0  0  0  0  0
  147.2349  133.1631  156.0613 H   0  0  0  0  0  0  0  0  0  0  0  0
  147.3280  132.1048  154.6765 H   0  0  0  0  0  0  0  0  0  0  0  0
  145.9237  133.1429  154.9011 H   0  0  0  0  0  0  0  0  0  0  0  0
  146.4156  135.7971  155.0317 H   0  0  0  0  0  0  0  0  0  0  0  0
  147.8106  135.4688  155.9902 H   0  0  0  0  0  0  0  0  0  0  0  0
  148.7634  136.5185  153.5689 H   0  0  0  0  0  0  0  0  0  0  0  0
  148.8421  138.8372  153.0342 H   0  0  0  0  0  0  0  0  0  0  0  0
  147.6035  140.6273  154.2274 H   0  0  0  0  0  0  0  0  0  0  0  0
  149.2365  141.1402  153.8288 H   0  0  0  0  0  0  0  0  0  0  0  0
  148.8393  140.6809  155.4800 H   0  0  0  0  0  0  0  0  0  0  0  0
  150.7261  136.6833  153.7761 H   0  0  0  0  0  0  0  0  0  0  0  0
  153.3579  139.5045  155.2234 H   0  0  0  0  0  0  0  0  0  0  0  0
  148.0299  132.5465  152.0276 H   0  0  0  0  0  0  0  0  0  0  0  0
  146.3532  132.3371  152.4941 H   0  0  0  0  0  0  0  0  0  0  0  0
  147.3615  133.9264  150.0732 H   0  0  0  0  0  0  0  0  0  0  0  0
  146.5709  132.3616  150.0359 H   0  0  0  0  0  0  0  0  0  0  0  0
  146.0569  135.8582  150.7385 H   0  0  0  0  0  0  0  0  0  0  0  0
  144.3763  135.6219  151.1759 H   0  0  0  0  0  0  0  0  0  0  0  0
  145.0048  134.3949  153.2251 H   0  0  0  0  0  0  0  0  0  0  0  0
  145.7780  135.9682  153.1778 H   0  0  0  0  0  0  0  0  0  0  0  0
  147.7235  134.9102  152.3002 H   0  0  0  0  0  0  0  0  0  0  0  0
  1  2  1  0  0  0  0
  1 22  1  0  0  0  0
  1 23  1  0  0  0  0
  1 24  1  0  0  0  0
  2  3  1  0  0  0  0
  2 25  1  0  0  0  0
  2 26  1  0  0  0  0
  3  4  1  0  0  0  0
  3  5  1  0  0  0  0
  3 16  1  0  0  0  0
  4 27  1  0  0  0  0
  4 28  1  0  0  0  0
  4 29  1  0  0  0  0
  5  6  1  0  0  0  0
  5 30  1  0  0  0  0
  5 31  1  0  0  0  0
  6  7  1  0  0  0  0
  6 32  1  0  0  0  0
  7  8  2  0  0  0  0
  7  9  1  0  0  0  0
  9 10  1  0  0  0  0
  9 11  1  0  0  0  0
  9 33  1  0  0  0  0
 10 34  1  0  0  0  0
 10 35  1  0  0  0  0
 10 36  1  0  0  0  0
 11 15  1  0  0  0  0
 11 12  1  0  0  0  0
 12 13  2  0  0  0  0
 12 37  1  0  0  0  0
 13 14  1  0  0  0  0
 14 15  2  0  0  0  0
 14 38  1  0  0  0  0
 16 21  1  0  0  0  0
 16 17  1  0  0  0  0
 16 47  1  0  0  0  0
 17 18  1  0  0  0  0
 17 39  1  0  0  0  0
 17 40  1  0  0  0  0
 18 19  1  0  0  0  0
 18 41  1  0  0  0  0
 18 42  1  0  0  0  0
 19 20  1  0  0  0  0
 20 21  1  0  0  0  0
 20 43  1  0  0  0  0
 20 44  1  0  0  0  0
 21 45  1  0  0  0  0
 21 46  1  0  0  0  0
M  CHG  1  16   1
M  END
> <s_m_source_file>
AV-unprocessed.smi

> <i_m_source_file_index>
1285

> <i_lp_mmshare_version>
43012

> <i_f3d_flags>
0

> <s_epik_input>
W0NIMl0xW0NIMl1PW0NIMl1bQ0gyXU4xW0NAQF0oW0NIM10pKFtDSDJdW0NIM10pW0NIMl1bTkhdQyg9TylbQ0BIXShbQ0gzXSluMltjSF1uW2NIXW4y

> <s_epik_cmdline>
J2VwaWtfcHl0aG9uJywgJy1waCcsICc3LjAnLCAnLXRuJywgJzgnLCAnLW1hJywgJzIwMCcsICctbWV0YWxfYmluZGluZycsICctaW1hZScsICc8aW5maWxlLm1hZT4nLCAnLW9tYWUnLCAnPG91dGZpbGUubWFlPic=

> <r_lp_tautomer_probability>
1

> <r_epik_Ionization_Penalty>
0.569304

> <r_epik_Ionization_Penalty_Charging>
0.569295

> <r_epik_Ionization_Penalty_Neutral>
8.22697e-06

> <r_epik_State_Penalty>
0.581114

> <r_epik_Charging_Adjusted_Penalty>
1.15041

> <i_epik_Tot_Q>
1

> <i_epik_Tot_abs_Q>
1

> <r_epik_Metal_State_Penalty>
0.581117

> <b_epik_Metal_Only>
0

> <s_lp_Force_Field>
OPLS_2005

> <r_lp_Energy>
40.9155

> <b_lp_Chiralities_Consistent>
1

> <s_lp_Variant>
AV-unprocessed.smi:1285-7

> <Gold.Version>
5.8.1

> <Gold.Id.Protein>
6NUR|6NUR_protein|mol2

> <Gold.PLP.Fitness>
49.8773

> <Gold.PLP.PLP>
-35.0633

> <Gold.PLP.part.hbond>
-4.0000

> <Gold.PLP.part.metal>
0.0000

> <Gold.PLP.part.buried>
-3.4785

> <Gold.PLP.part.nonpolar>
-27.7465

> <Gold.PLP.part.repulsive>
0.3238

> <Gold.PLP.ligand.clash>
0.0000

> <Gold.PLP.ligand.torsion>
0.7064

> <Gold.PLP.Chemscore.Hbond>
4.4896

> <Gold.PLP.Chemscore.CHOScore>
0.8194

> <Gold.PLP.Chemscore.Metal>
0.0000

> <Gold.Chemscore.Hbonds>
donor molecule, donor type, donor heavy atom, donor atom, acceptor molecule, acceptor atom, score
      L1  H     6    32       P1  7948  1.00
      L1  H    16    47       P1  7948  2.00
      P1  H  7989  7998       L1    15  1.00
      P1  H 10752 10764       L1    13  0.42
      L1  C    12    37       P1  7948  0.29
      L1  C    12    37       P1  7949  0.57

> <Gold.PLP.Chemscore.Internal.Correction>
0.3000

> <Gold.Rescore>
     Score         DG    S(hbond)    S(metal)    S(lipo)     H(rot)  DE(clash)    DE(int)     intcor
     13.04     -14.15       2.80        0.00      54.57       2.76       0.01       1.10       ----

> <Gold.Chemscore.Fitness>
13.0440

> <Gold.Chemscore.DG>
-14.1528

> <Gold.Chemscore.ZeroCoef>
-5.4800

> <Gold.Chemscore.Hbond>
2.7997

> <Gold.Chemscore.Metal>
0.0000

> <Gold.Chemscore.Lipo>
54.5683

> <Gold.Chemscore.Internal_Hbond>
0.0000

> <Gold.Chemscore.DEClash>
0.0127

> <Gold.Chemscore.DEInternal>
1.0961

> <Gold.Chemscore.Rot>
2.7589

> <Gold.Chemscore.Internal.Correction>
   9.000000E+99

> <Gold.Chemscore.Hbonds>
donor molecule, donor type, donor heavy atom, donor atom, acceptor molecule, acceptor atom, score
      L1  H     6    32       P1  7948  0.97
      L1  H    16    47       P1  7948  0.88
      P1  H  7989  7998       L1    15  0.21
      P1  H 10752 10764       L1    13  0.09

> <Gold.Chemscore.Hbond.Weighted>
-9.3510

> <Gold.Chemscore.Metal.Weighted>
-0.0000

> <Gold.Chemscore.Lipo.Weighted>
-6.3845

> <Gold.Chemscore.Internal_Hbond.Weighted>
0.0000

> <Gold.Chemscore.DEClash.Weighted>
0.0127

> <Gold.Chemscore.DEInternal.Weighted>
1.0961

> <Gold.Chemscore.Rot.Weighted>
7.0627

> <Gold.Chemscore.Internal.Correction.Weighted>
   9.000000E+99

> <Gold.Protein.RotatedTorsions>
[ 6907 6896 6895 6894 ] final  -40.22 input  -60.11 | X-H torsion
[ 7974 7965 7964 7962 ] final    0.72 input  175.53 | X-H torsion
[ 8008 7997 7996 7995 ] final -132.72 input   59.86 | X-H torsion
[ 10167 10162 10161 10158 ] final  160.87 input  -65.29 | X-H torsion
[ 10718 10713 10712 10709 ] final  109.09 input   66.30 | X-H torsion
[ 10763 10752 10751 10750 ] final  -94.77 input  -60.55 | X-H torsion
[ 11005 11000 10999 10996 ] final   58.57 input  -57.11 | X-H torsion

> <Gold.Protein.ActiveResidues>
 VAL166  LYS551  ARG553  GLY616  TRP617  ASP618  TYR619  PRO620  LYS621  CYS622 
 ASP623  PHE694  ASN695  SER759  ASP760  ASP761  ALA762  ILE779  LEU786  VAL792 
 PHE793  MET794  SER795  GLU796  ALA797  LYS798  CYS799  TRP800  GLU811  SER814 

> <Gold.Protein.RotatedAtoms>
  150.9810  134.9165  159.7843 H   0  0  0  0  0  0  0  0  0  0  0  0  # atno 6907 bound_to 6896
  152.5222  134.3410  159.9227 H   0  0  0  0  0  0  0  0  0  0  0  0  # atno 6908 bound_to 6896
  151.3418  133.3918  159.2706 H   0  0  0  0  0  0  0  0  0  0  0  0  # atno 6909 bound_to 6896
  146.2436  140.1096  142.8344 H   0  0  0  0  0  0  0  0  0  0  0  0  # atno 7974 bound_to 7965
  155.3336  140.0468  157.3043 H   0  0  0  0  0  0  0  0  0  0  0  0  # atno 8008 bound_to 7997
  154.5315  140.2258  155.8761 H   0  0  0  0  0  0  0  0  0  0  0  0  # atno 8009 bound_to 7997
  156.1793  140.3077  155.9124 H   0  0  0  0  0  0  0  0  0  0  0  0  # atno 8010 bound_to 7997
  139.4844  144.4592  151.8728 H   0  0  0  0  0  0  0  0  0  0  0  0  # atno 10167 bound_to 10162
  157.6557  131.0907  150.6401 H   0  0  0  0  0  0  0  0  0  0  0  0  # atno 10718 bound_to 10713
  154.7086  135.5145  153.8632 H   0  0  0  0  0  0  0  0  0  0  0  0  # atno 10763 bound_to 10752
  153.0762  135.6617  154.0151 H   0  0  0  0  0  0  0  0  0  0  0  0  # atno 10764 bound_to 10752
  153.9997  135.3012  155.3383 H   0  0  0  0  0  0  0  0  0  0  0  0  # atno 10765 bound_to 10752
  140.0367  134.5932  155.9434 H   0  0  0  0  0  0  0  0  0  0  0  0  # atno 11005 bound_to 11000
  145.0499  140.9009  143.5002 LP  0  0  0  0  0  0  0  0  0  0  0  0  # atno 17320 bound_to 7965
  145.1191  139.2705  143.5597 LP  0  0  0  0  0  0  0  0  0  0  0  0  # atno 17321 bound_to 7965
  140.4053  144.2440  150.5891 LP  0  0  0  0  0  0  0  0  0  0  0  0  # atno 17342 bound_to 10162
  140.5018  143.2315  151.8667 LP  0  0  0  0  0  0  0  0  0  0  0  0  # atno 17343 bound_to 10162
  156.6708  130.4539  149.5658 LP  0  0  0  0  0  0  0  0  0  0  0  0  # atno 17370 bound_to 10713
  156.1999  130.6613  151.1155 LP  0  0  0  0  0  0  0  0  0  0  0  0  # atno 17371 bound_to 10713
  141.1861  133.6556  156.5226 LP  0  0  0  0  0  0  0  0  0  0  0  0  # atno 17394 bound_to 11000
  140.4135  134.7251  157.4850 LP  0  0  0  0  0  0  0  0  0  0  0  0  # atno 17395 bound_to 11000

$$$$
