AV-unprocessed.smi:72|AV-procd|sdf|747|dock8
  -GOLD-   2262017 83D 1   1.00000     0.00000
 Structure written by MMmdl.
 29 30  0  0  0  0  0  0  0  0  1 V2000
  153.7327  139.3610  160.2464 N   0  0  0  0  0  0  0  0  0  0  0  0
  153.1546  139.2986  158.9958 C   0  0  0  0  0  0  0  0  0  0  0  0
  152.3421  140.3807  158.6294 N   0  0  0  0  0  0  0  0  0  0  0  0
  151.8036  140.3290  157.4523 C   0  0  0  0  0  0  0  0  0  0  0  0
  152.0479  139.2095  156.5603 N   0  0  0  0  0  0  0  0  0  0  0  0
  151.4094  139.1323  155.1921 C   0  0  2  0  0  0  0  0  0  0  0  0
  150.6567  140.2877  154.9707 O   0  0  0  0  0  0  0  0  0  0  0  0
  149.4417  139.9427  154.3176 C   0  0  2  0  0  0  0  0  0  0  0  0
  148.3760  141.0378  154.5010 C   0  0  0  0  0  0  0  0  0  0  0  0
  148.8872  142.2880  154.0905 O   0  0  0  0  0  0  0  0  0  0  0  0
  149.0973  138.5745  154.9222 C   0  0  2  0  0  0  0  0  0  0  0  0
  148.4492  138.7142  156.1737 O   0  0  0  0  0  0  0  0  0  0  0  0
  150.4628  137.9219  155.1016 C   0  0  1  0  0  0  0  0  0  0  0  0
  150.7677  137.1202  153.9784 O   0  0  0  0  0  0  0  0  0  0  0  0
  152.8596  138.1319  157.0077 C   0  0  0  0  0  0  0  0  0  0  0  0
  153.0411  137.1513  156.2858 O   0  0  0  0  0  0  0  0  0  0  0  0
  153.4213  138.2400  158.2856 N   0  0  0  0  0  0  0  0  0  0  0  0
  152.2263  139.1105  154.4688 H   0  0  0  0  0  0  0  0  0  0  0  0
  149.6518  139.7984  153.2556 H   0  0  0  0  0  0  0  0  0  0  0  0
  148.4400  137.9983  154.2694 H   0  0  0  0  0  0  0  0  0  0  0  0
  150.5161  137.3023  155.9986 H   0  0  0  0  0  0  0  0  0  0  0  0
  154.3342  138.6402  160.6175 H   0  0  0  0  0  0  0  0  0  0  0  0
  153.5966  140.1318  160.8843 H   0  0  0  0  0  0  0  0  0  0  0  0
  151.1425  141.1052  157.0648 H   0  0  0  0  0  0  0  0  0  0  0  0
  147.5069  140.8235  153.8782 H   0  0  0  0  0  0  0  0  0  0  0  0
  148.0325  141.0903  155.5348 H   0  0  0  0  0  0  0  0  0  0  0  0
  148.7355  142.9164  154.7797 H   0  0  0  0  0  0  0  0  0  0  0  0
  148.5660  137.9147  156.6634 H   0  0  0  0  0  0  0  0  0  0  0  0
  150.0003  137.0712  153.4287 H   0  0  0  0  0  0  0  0  0  0  0  0
  1  2  1  0  0  0  0
  1 22  1  0  0  0  0
  1 23  1  0  0  0  0
  2 17  2  0  0  0  0
  2  3  1  0  0  0  0
  3  4  2  0  0  0  0
  4  5  1  0  0  0  0
  4 24  1  0  0  0  0
  5  6  1  0  0  0  0
  5 15  1  0  0  0  0
  6 18  1  0  0  0  0
  6 13  1  0  0  0  0
  6  7  1  0  0  0  0
  7  8  1  0  0  0  0
  8 19  1  0  0  0  0
  8  9  1  0  0  0  0
  8 11  1  0  0  0  0
  9 10  1  0  0  0  0
  9 25  1  0  0  0  0
  9 26  1  0  0  0  0
 10 27  1  0  0  0  0
 11 20  1  0  0  0  0
 11 12  1  0  0  0  0
 11 13  1  0  0  0  0
 12 28  1  0  0  0  0
 13 21  1  0  0  0  0
 13 14  1  0  0  0  0
 14 29  1  0  0  0  0
 15 16  2  0  0  0  0
 15 17  1  0  0  0  0
M  END
> <s_m_source_file>
AV-unprocessed.smi

> <i_m_source_file_index>
72

> <i_lp_mmshare_version>
43012

> <i_f3d_flags>
0

> <s_epik_input>
W05IMl1jMW5bY0hdbihjKD1PKW4xKVtDQEBIXTJPW0NASF0oW0NIMl1bT0hdKVtDQEBIXShbT0hdKVtDQEhdMltPSF0=

> <s_epik_cmdline>
J2VwaWtfcHl0aG9uJywgJy1waCcsICc3LjAnLCAnLXRuJywgJzgnLCAnLW1hJywgJzIwMCcsICctbWV0YWxfYmluZGluZycsICctaW1hZScsICc8aW5maWxlLm1hZT4nLCAnLW9tYWUnLCAnPG91dGZpbGUubWFlPic=

> <r_lp_tautomer_probability>
4.77166e-05

> <r_epik_Ionization_Penalty>
1.3546

> <r_epik_Ionization_Penalty_Charging>
1.46833e-10

> <r_epik_Ionization_Penalty_Neutral>
1.3546

> <r_epik_State_Penalty>
3.51908

> <r_epik_Charging_Adjusted_Penalty>
3.51908

> <i_epik_Tot_Q>
0

> <i_epik_Tot_abs_Q>
0

> <r_epik_Metal_State_Penalty>
3.44088

> <b_epik_Metal_Only>
1

> <s_epik_Chemistry_Notes>
This compound contains an acetal/aminal-like group ( X-CH(R)-Y where X, Y are N, S, or O) that may be acid/base labile, releasing an aldehyde.

> <s_lp_Force_Field>
OPLS_2005

> <r_lp_Energy>
27.1219

> <b_lp_Chiralities_Consistent>
1

> <s_lp_Variant>
AV-unprocessed.smi:72-85

> <Gold.Version>
5.8.1

> <Gold.Id.Protein>
6NUR|6NUR_protein|mol2

> <Gold.PLP.Fitness>
35.1014

> <Gold.PLP.PLP>
-23.7178

> <Gold.PLP.part.hbond>
-6.0000

> <Gold.PLP.part.metal>
0.0000

> <Gold.PLP.part.buried>
-3.5424

> <Gold.PLP.part.nonpolar>
-14.8053

> <Gold.PLP.part.repulsive>
0.1176

> <Gold.PLP.ligand.clash>
0.0000

> <Gold.PLP.ligand.torsion>
0.0411

> <Gold.PLP.Chemscore.Hbond>
3.8180

> <Gold.PLP.Chemscore.CHOScore>
0.0000

> <Gold.PLP.Chemscore.Metal>
0.0000

> <Gold.Chemscore.Hbonds>
donor molecule, donor type, donor heavy atom, donor atom, acceptor molecule, acceptor atom, score
      L1  H    10    27       P1  8028  1.00
      L1  H    14    29       P1  7948  0.99
      P1  H  7989  7998       L1     7  0.76
      P1  H  8011  8017       L1    10  0.26
      P1  H 10752 10764       L1    16  0.70

> <Gold.PLP.Chemscore.Internal.Correction>
0.0117

> <Gold.Rescore>
     Score         DG    S(hbond)    S(metal)    S(lipo)     H(rot)  DE(clash)    DE(int)     intcor
      5.96      -7.14       2.88        0.00      20.92       4.06       0.00       1.19       ----

> <Gold.Chemscore.Fitness>
5.9550

> <Gold.Chemscore.DG>
-7.1439

> <Gold.Chemscore.ZeroCoef>
-5.4800

> <Gold.Chemscore.Hbond>
2.8772

> <Gold.Chemscore.Metal>
0.0000

> <Gold.Chemscore.Lipo>
20.9196

> <Gold.Chemscore.Internal_Hbond>
0.0000

> <Gold.Chemscore.DEClash>
0.0009

> <Gold.Chemscore.DEInternal>
1.1880

> <Gold.Chemscore.Rot>
4.0600

> <Gold.Chemscore.Internal.Correction>
   9.000000E+99

> <Gold.Chemscore.Hbonds>
donor molecule, donor type, donor heavy atom, donor atom, acceptor molecule, acceptor atom, score
      L1  H    10    27       P1  8028  0.94
      L1  H    14    29       P1  7948  0.23
      P1  H  7989  7998       L1     7  0.03
      P1  H  8011  8017       L1    10  0.25
      P1  H 10752 10764       L1    16  0.65

> <Gold.Chemscore.Hbond.Weighted>
-9.6100

> <Gold.Chemscore.Metal.Weighted>
-0.0000

> <Gold.Chemscore.Lipo.Weighted>
-2.4476

> <Gold.Chemscore.Internal_Hbond.Weighted>
0.0000

> <Gold.Chemscore.DEClash.Weighted>
0.0009

> <Gold.Chemscore.DEInternal.Weighted>
1.1880

> <Gold.Chemscore.Rot.Weighted>
10.3936

> <Gold.Chemscore.Internal.Correction.Weighted>
   9.000000E+99

> <Gold.Protein.RotatedTorsions>
[ 6907 6896 6895 6894 ] final   19.50 input  -60.11 | X-H torsion
[ 7974 7965 7964 7962 ] final   50.57 input  175.53 | X-H torsion
[ 8008 7997 7996 7995 ] final    7.18 input   59.86 | X-H torsion
[ 10167 10162 10161 10158 ] final   62.51 input  -65.29 | X-H torsion
[ 10718 10713 10712 10709 ] final -128.50 input   66.30 | X-H torsion
[ 10763 10752 10751 10750 ] final  -14.59 input  -60.55 | X-H torsion
[ 11005 11000 10999 10996 ] final   86.55 input  -57.11 | X-H torsion

> <Gold.Protein.ActiveResidues>
 VAL166  LYS551  ARG553  GLY616  TRP617  ASP618  TYR619  PRO620  LYS621  CYS622 
 ASP623  PHE694  ASN695  SER759  ASP760  ASP761  ALA762  ILE779  LEU786  VAL792 
 PHE793  MET794  SER795  GLU796  ALA797  LYS798  CYS799  TRP800  GLU811  SER814 

> <Gold.Protein.RotatedAtoms>
  151.8819  135.0450  160.0489 H   0  0  0  0  0  0  0  0  0  0  0  0  # atno 6907 bound_to 6896
  152.2506  133.5207  159.5331 H   0  0  0  0  0  0  0  0  0  0  0  0  # atno 6908 bound_to 6896
  150.7082  134.0882  159.3964 H   0  0  0  0  0  0  0  0  0  0  0  0  # atno 6909 bound_to 6896
  145.9998  139.4427  143.0022 H   0  0  0  0  0  0  0  0  0  0  0  0  # atno 7974 bound_to 7965
  154.7505  140.2766  155.6297 H   0  0  0  0  0  0  0  0  0  0  0  0  # atno 8008 bound_to 7997
  156.2894  140.2679  156.2183 H   0  0  0  0  0  0  0  0  0  0  0  0  # atno 8009 bound_to 7997
  155.0143  140.0372  157.2402 H   0  0  0  0  0  0  0  0  0  0  0  0  # atno 8010 bound_to 7997
  140.1431  144.4535  150.6800 H   0  0  0  0  0  0  0  0  0  0  0  0  # atno 10167 bound_to 10162
  156.1957  130.6824  151.0479 H   0  0  0  0  0  0  0  0  0  0  0  0  # atno 10718 bound_to 10713
  153.5305  135.7014  153.5685 H   0  0  0  0  0  0  0  0  0  0  0  0  # atno 10763 bound_to 10752
  153.3695  135.3948  155.1778 H   0  0  0  0  0  0  0  0  0  0  0  0  # atno 10764 bound_to 10752
  154.8685  135.3808  154.4802 H   0  0  0  0  0  0  0  0  0  0  0  0  # atno 10765 bound_to 10752
  139.8942  134.8363  156.2736 H   0  0  0  0  0  0  0  0  0  0  0  0  # atno 11005 bound_to 11000
  145.7504  140.9974  143.1253 LP  0  0  0  0  0  0  0  0  0  0  0  0  # atno 17320 bound_to 7965
  144.6916  139.9207  143.7468 LP  0  0  0  0  0  0  0  0  0  0  0  0  # atno 17321 bound_to 7965
  140.6748  143.2300  151.5534 LP  0  0  0  0  0  0  0  0  0  0  0  0  # atno 17342 bound_to 10162
  139.5462  144.2514  152.1447 LP  0  0  0  0  0  0  0  0  0  0  0  0  # atno 17343 bound_to 10162
  157.6956  131.0795  150.6979 LP  0  0  0  0  0  0  0  0  0  0  0  0  # atno 17370 bound_to 10713
  156.7035  130.4630  149.5566 LP  0  0  0  0  0  0  0  0  0  0  0  0  # atno 17371 bound_to 10713
  141.0085  133.7110  156.1073 LP  0  0  0  0  0  0  0  0  0  0  0  0  # atno 17394 bound_to 11000
  140.7401  134.4160  157.5556 LP  0  0  0  0  0  0  0  0  0  0  0  0  # atno 17395 bound_to 11000

$$$$
