AV-unprocessed.smi:1493|AV-procd|sdf|6051|dock10
  -GOLD-   22720 6163D 1   1.00000     0.00000
 Structure written by MMmdl.
 34 34  0  0  0  0  0  0  0  0  1 V2000
  153.8268  142.3596  162.6717 C   0  0  0  0  0  0  0  0  0  0  0  0
  152.6296  142.8681  161.8616 C   0  0  0  0  0  0  0  0  0  0  0  0
  152.8684  142.7901  160.3434 C   0  0  0  0  0  0  0  0  0  0  0  0
  151.6794  143.2956  159.5039 C   0  0  1  0  0  0  0  0  0  0  0  0
  151.5502  144.8243  159.5615 C   0  0  0  0  0  0  0  0  0  0  0  0
  151.8271  142.8755  158.1117 N   0  0  0  0  0  0  0  0  0  0  0  0
  151.5701  141.6517  157.6245 C   0  0  0  0  0  0  0  0  0  0  0  0
  151.1783  140.7131  158.3195 O   0  0  0  0  0  0  0  0  0  0  0  0
  151.8185  141.4681  156.1200 C   0  0  0  0  0  0  0  0  0  0  0  0
  151.6113  140.0893  155.6543 N   0  0  0  0  0  0  0  0  0  0  0  0
  150.6596  139.9665  154.6534 N   0  0  0  0  0  0  0  0  0  0  0  0
  150.3966  138.8068  154.1529 C   0  0  0  0  0  0  0  0  0  0  0  0
  149.4496  138.7313  153.1615 O   0  0  0  0  0  0  0  0  0  0  0  0
  151.0765  137.6183  154.6192 C   0  0  0  0  0  0  0  0  0  0  0  0
  151.9994  137.7475  155.5974 C   0  0  0  0  0  0  0  0  0  0  0  0
  152.3221  139.0481  156.1872 C   0  0  0  0  0  0  0  0  0  0  0  0
  153.1565  139.1951  157.0800 O   0  0  0  0  0  0  0  0  0  0  0  0
  149.3753  137.8119  152.9563 H   0  0  0  0  0  0  0  0  0  0  0  0
  153.6285  142.4264  163.7416 H   0  0  0  0  0  0  0  0  0  0  0  0
  154.7220  142.9459  162.4624 H   0  0  0  0  0  0  0  0  0  0  0  0
  154.0455  141.3173  162.4382 H   0  0  0  0  0  0  0  0  0  0  0  0
  151.7478  142.2872  162.1331 H   0  0  0  0  0  0  0  0  0  0  0  0
  152.4172  143.8997  162.1449 H   0  0  0  0  0  0  0  0  0  0  0  0
  153.7521  143.3803  160.0974 H   0  0  0  0  0  0  0  0  0  0  0  0
  153.1041  141.7622  160.0636 H   0  0  0  0  0  0  0  0  0  0  0  0
  150.7690  142.8727  159.9319 H   0  0  0  0  0  0  0  0  0  0  0  0
  151.4230  145.1691  160.5880 H   0  0  0  0  0  0  0  0  0  0  0  0
  150.6858  145.1664  158.9911 H   0  0  0  0  0  0  0  0  0  0  0  0
  152.4346  145.3142  159.1526 H   0  0  0  0  0  0  0  0  0  0  0  0
  152.1508  143.5782  157.4629 H   0  0  0  0  0  0  0  0  0  0  0  0
  151.1758  142.1501  155.5598 H   0  0  0  0  0  0  0  0  0  0  0  0
  152.8398  141.7881  155.9058 H   0  0  0  0  0  0  0  0  0  0  0  0
  150.8449  136.6549  154.1892 H   0  0  0  0  0  0  0  0  0  0  0  0
  152.5152  136.8685  155.9550 H   0  0  0  0  0  0  0  0  0  0  0  0
  1  2  1  0  0  0  0
  1 19  1  0  0  0  0
  1 20  1  0  0  0  0
  1 21  1  0  0  0  0
  2  3  1  0  0  0  0
  2 22  1  0  0  0  0
  2 23  1  0  0  0  0
  3  4  1  0  0  0  0
  3 24  1  0  0  0  0
  3 25  1  0  0  0  0
  4  5  1  0  0  0  0
  4  6  1  0  0  0  0
  4 26  1  0  0  0  0
  5 27  1  0  0  0  0
  5 28  1  0  0  0  0
  5 29  1  0  0  0  0
  6  7  1  0  0  0  0
  6 30  1  0  0  0  0
  7  8  2  0  0  0  0
  7  9  1  0  0  0  0
  9 31  1  0  0  0  0
  9 32  1  0  0  0  0
  9 10  1  0  0  0  0
 10 11  1  0  0  0  0
 10 16  1  0  0  0  0
 11 12  2  0  0  0  0
 12 13  1  0  0  0  0
 12 14  1  0  0  0  0
 13 18  1  0  0  0  0
 14 33  1  0  0  0  0
 14 15  2  0  0  0  0
 15 34  1  0  0  0  0
 15 16  1  0  0  0  0
 16 17  2  0  0  0  0
M  END
> <s_m_source_file>
AV-unprocessed.smi

> <i_m_source_file_index>
1493

> <i_lp_mmshare_version>
43012

> <i_f3d_flags>
0

> <s_epik_input>
W0NIM11bQ0gyXVtDSDJdW0NASF0oW0NIM10pW05IXUMoPU8pW0NIMl1uMVtuSF1jKD1PKVtjSF1bY0hdYzE9Tw==

> <s_epik_cmdline>
J2VwaWtfcHl0aG9uJywgJy1waCcsICc3LjAnLCAnLXRuJywgJzgnLCAnLW1hJywgJzIwMCcsICctbWV0YWxfYmluZGluZycsICctaW1hZScsICc8aW5maWxlLm1hZT4nLCAnLW9tYWUnLCAnPG91dGZpbGUubWFlPic=

> <r_lp_tautomer_probability>
0.9996

> <r_epik_Ionization_Penalty>
2.12047

> <r_epik_Ionization_Penalty_Charging>
3.81971e-08

> <r_epik_Ionization_Penalty_Neutral>
2.12047

> <r_epik_State_Penalty>
1.69728

> <r_epik_Charging_Adjusted_Penalty>
1.69728

> <i_epik_Tot_Q>
0

> <i_epik_Tot_abs_Q>
0

> <r_epik_Metal_State_Penalty>
1.69728

> <b_epik_Metal_Only>
0

> <s_lp_Force_Field>
OPLS_2005

> <r_lp_Energy>
15.6532

> <b_lp_Chiralities_Consistent>
1

> <s_lp_Variant>
AV-unprocessed.smi:1493-4

> <Gold.Version>
5.8.1

> <Gold.Id.Protein>
6NUR|6NUR_protein|mol2

> <Gold.PLP.Fitness>
46.2015

> <Gold.PLP.PLP>
-38.2414

> <Gold.PLP.part.hbond>
-3.6951

> <Gold.PLP.part.metal>
0.0000

> <Gold.PLP.part.buried>
-5.3997

> <Gold.PLP.part.nonpolar>
-27.3256

> <Gold.PLP.part.repulsive>
0.1099

> <Gold.PLP.ligand.clash>
0.0000

> <Gold.PLP.ligand.torsion>
0.3859

> <Gold.PLP.Chemscore.Hbond>
2.9000

> <Gold.PLP.Chemscore.CHOScore>
0.0000

> <Gold.PLP.Chemscore.Metal>
0.0000

> <Gold.Chemscore.Hbonds>
donor molecule, donor type, donor heavy atom, donor atom, acceptor molecule, acceptor atom, score
      L1  H    13    18       P1  7948  1.00
      P1  H  7989  7998       L1    11  0.65
      P1  H  7997  8010       L1    17  1.00

> <Gold.PLP.Chemscore.Internal.Correction>
0.0319

> <Gold.Rescore>
     Score         DG    S(hbond)    S(metal)    S(lipo)     H(rot)  DE(clash)    DE(int)     intcor
     11.71     -13.58       1.80        0.00      78.67       2.78       1.43       0.44       ----

> <Gold.Chemscore.Fitness>
11.7085

> <Gold.Chemscore.DG>
-13.5792

> <Gold.Chemscore.ZeroCoef>
-5.4800

> <Gold.Chemscore.Hbond>
1.7986

> <Gold.Chemscore.Metal>
0.0000

> <Gold.Chemscore.Lipo>
78.6739

> <Gold.Chemscore.Internal_Hbond>
0.0000

> <Gold.Chemscore.DEClash>
1.4279

> <Gold.Chemscore.DEInternal>
0.4429

> <Gold.Chemscore.Rot>
2.7785

> <Gold.Chemscore.Internal.Correction>
   9.000000E+99

> <Gold.Chemscore.Hbonds>
donor molecule, donor type, donor heavy atom, donor atom, acceptor molecule, acceptor atom, score
      L1  H    13    18       P1  7948  0.91
      P1  H  7989  7998       L1    11  0.04
      P1  H  7997  8010       L1    17  0.76

> <Gold.Chemscore.Hbond.Weighted>
-6.0073

> <Gold.Chemscore.Metal.Weighted>
-0.0000

> <Gold.Chemscore.Lipo.Weighted>
-9.2048

> <Gold.Chemscore.Internal_Hbond.Weighted>
0.0000

> <Gold.Chemscore.DEClash.Weighted>
1.4279

> <Gold.Chemscore.DEInternal.Weighted>
0.4429

> <Gold.Chemscore.Rot.Weighted>
7.1129

> <Gold.Chemscore.Internal.Correction.Weighted>
   9.000000E+99

> <Gold.Protein.RotatedTorsions>
[ 6907 6896 6895 6894 ] final  -10.28 input  -60.11 | X-H torsion
[ 7974 7965 7964 7962 ] final  140.59 input  175.53 | X-H torsion
[ 8008 7997 7996 7995 ] final   64.64 input   59.86 | X-H torsion
[ 10167 10162 10161 10158 ] final  104.77 input  -65.29 | X-H torsion
[ 10718 10713 10712 10709 ] final  155.38 input   66.30 | X-H torsion
[ 10763 10752 10751 10750 ] final -159.30 input  -60.55 | X-H torsion
[ 11005 11000 10999 10996 ] final  114.86 input  -57.11 | X-H torsion

> <Gold.Protein.ActiveResidues>
 VAL166  LYS551  ARG553  GLY616  TRP617  ASP618  TYR619  PRO620  LYS621  CYS622 
 ASP623  PHE694  ASN695  SER759  ASP760  ASP761  ALA762  ILE779  LEU786  VAL792 
 PHE793  MET794  SER795  GLU796  ALA797  LYS798  CYS799  TRP800  GLU811  SER814 

> <Gold.Protein.RotatedAtoms>
  151.4045  135.0976  159.9565 H   0  0  0  0  0  0  0  0  0  0  0  0  # atno 6907 bound_to 6896
  152.5040  133.8856  159.7379 H   0  0  0  0  0  0  0  0  0  0  0  0  # atno 6908 bound_to 6896
  150.9338  133.6679  159.2833 H   0  0  0  0  0  0  0  0  0  0  0  0  # atno 6909 bound_to 6896
  144.9173  139.5214  143.5680 H   0  0  0  0  0  0  0  0  0  0  0  0  # atno 7974 bound_to 7965
  155.6493  140.3497  155.4742 H   0  0  0  0  0  0  0  0  0  0  0  0  # atno 8008 bound_to 7997
  155.9861  140.1184  157.0705 H   0  0  0  0  0  0  0  0  0  0  0  0  # atno 8009 bound_to 7997
  154.4205  140.1128  156.5488 H   0  0  0  0  0  0  0  0  0  0  0  0  # atno 8010 bound_to 7997
  139.7149  144.7070  151.0966 H   0  0  0  0  0  0  0  0  0  0  0  0  # atno 10167 bound_to 10162
  157.2190  131.0714  151.1923 H   0  0  0  0  0  0  0  0  0  0  0  0  # atno 10718 bound_to 10713
  154.7486  135.3086  154.8599 H   0  0  0  0  0  0  0  0  0  0  0  0  # atno 10763 bound_to 10752
  153.9393  135.6776  153.4748 H   0  0  0  0  0  0  0  0  0  0  0  0  # atno 10764 bound_to 10752
  153.1082  135.4879  154.8916 H   0  0  0  0  0  0  0  0  0  0  0  0  # atno 10765 bound_to 10752
  139.8993  134.9575  156.6957 H   0  0  0  0  0  0  0  0  0  0  0  0  # atno 11005 bound_to 11000
  146.3188  139.8025  142.8962 LP  0  0  0  0  0  0  0  0  0  0  0  0  # atno 17320 bound_to 7965
  145.3355  141.0276  143.3422 LP  0  0  0  0  0  0  0  0  0  0  0  0  # atno 17321 bound_to 7965
  140.7741  143.5243  150.9499 LP  0  0  0  0  0  0  0  0  0  0  0  0  # atno 17342 bound_to 10162
  139.8929  143.6931  152.3143 LP  0  0  0  0  0  0  0  0  0  0  0  0  # atno 17343 bound_to 10162
  157.3595  130.7124  149.6492 LP  0  0  0  0  0  0  0  0  0  0  0  0  # atno 17370 bound_to 10713
  155.9684  130.4229  150.4540 LP  0  0  0  0  0  0  0  0  0  0  0  0  # atno 17371 bound_to 10713
  140.7190  133.9157  155.8134 LP  0  0  0  0  0  0  0  0  0  0  0  0  # atno 17394 bound_to 11000
  141.0242  134.0847  157.4087 LP  0  0  0  0  0  0  0  0  0  0  0  0  # atno 17395 bound_to 11000

$$$$
