AV-unprocessed.smi:618|AV-procd|sdf|3075|dock7
  -GOLD-   22720 0 03D 1   1.00000     0.00000
 Structure written by MMmdl.
 41 43  0  0  0  0  0  0  0  0  2 V2000
  144.5007  136.5799  151.7374 O   0  0  0  0  0  0  0  0  0  0  0  0
  145.7123  136.3711  151.6841 C   0  0  0  0  0  0  0  0  0  0  0  0
  146.6322  137.3234  151.8934 N   0  0  0  0  0  0  0  0  0  0  0  0
  146.3305  138.7133  152.2197 C   0  0  0  0  0  0  0  0  0  0  0  0
  147.2188  139.2419  153.3687 C   0  0  1  0  0  0  0  0  0  0  0  0
  147.3973  140.7796  153.3357 C   0  0  0  0  0  0  0  0  0  0  0  0
  146.1618  141.4214  153.8216 N   0  3  2  0  0  0  0  0  0  0  0  0
  146.1172  142.8933  153.8696 C   0  0  0  0  0  0  0  0  0  0  0  0
  145.0562  143.2235  154.9383 C   0  0  0  0  0  0  0  0  0  0  0  0
  144.6592  141.8740  155.5628 C   0  0  0  0  0  0  0  0  0  0  0  0
  145.8118  140.9572  155.1653 C   0  0  1  0  0  0  0  0  0  0  0  0
  145.5491  139.4478  155.1207 C   0  0  0  0  0  0  0  0  0  0  0  0
  146.7390  138.8072  154.6512 O   0  0  0  0  0  0  0  0  0  0  0  0
  146.2862  135.1915  151.3921 N   0  0  0  0  0  0  0  0  0  0  0  0
  145.6542  133.9453  151.1328 C   0  0  0  0  0  0  0  0  0  0  0  0
  144.2448  133.9104  151.1023 C   0  0  0  0  0  0  0  0  0  0  0  0
  143.5942  132.6921  150.8297 C   0  0  0  0  0  0  0  0  0  0  0  0
  144.3834  131.5512  150.5868 C   0  0  0  0  0  0  0  0  0  0  0  0
  145.7327  131.5695  150.5958 N   0  0  0  0  0  0  0  0  0  0  0  0
  146.3503  132.7413  150.8600 C   0  0  0  0  0  0  0  0  0  0  0  0
  147.6069  137.0692  151.8252 H   0  0  0  0  0  0  0  0  0  0  0  0
  146.4647  139.3302  151.3294 H   0  0  0  0  0  0  0  0  0  0  0  0
  145.2733  138.7853  152.4732 H   0  0  0  0  0  0  0  0  0  0  0  0
  148.2097  138.8034  153.2471 H   0  0  0  0  0  0  0  0  0  0  0  0
  148.2325  141.0722  153.9738 H   0  0  0  0  0  0  0  0  0  0  0  0
  147.6287  141.1245  152.3275 H   0  0  0  0  0  0  0  0  0  0  0  0
  147.0887  143.2876  154.1713 H   0  0  0  0  0  0  0  0  0  0  0  0
  145.8707  143.3081  152.8917 H   0  0  0  0  0  0  0  0  0  0  0  0
  145.4776  143.8900  155.6917 H   0  0  0  0  0  0  0  0  0  0  0  0
  144.1889  143.7236  154.5057 H   0  0  0  0  0  0  0  0  0  0  0  0
  144.5192  141.9315  156.6428 H   0  0  0  0  0  0  0  0  0  0  0  0
  143.7264  141.5216  155.1201 H   0  0  0  0  0  0  0  0  0  0  0  0
  146.6533  141.1534  155.8335 H   0  0  0  0  0  0  0  0  0  0  0  0
  145.3145  139.0735  156.1172 H   0  0  0  0  0  0  0  0  0  0  0  0
  144.6984  139.2076  154.4826 H   0  0  0  0  0  0  0  0  0  0  0  0
  147.2910  135.1956  151.2952 H   0  0  0  0  0  0  0  0  0  0  0  0
  143.6666  134.8034  151.2902 H   0  0  0  0  0  0  0  0  0  0  0  0
  142.5161  132.6334  150.8067 H   0  0  0  0  0  0  0  0  0  0  0  0
  143.9189  130.5997  150.3742 H   0  0  0  0  0  0  0  0  0  0  0  0
  147.4278  132.6990  150.8266 H   0  0  0  0  0  0  0  0  0  0  0  0
  145.4095  141.1319  153.2131 H   0  0  0  0  0  0  0  0  0  0  0  0
  1  2  2  0  0  0  0
  2  3  1  0  0  0  0
  2 14  1  0  0  0  0
  3  4  1  0  0  0  0
  3 21  1  0  0  0  0
  4  5  1  0  0  0  0
  4 22  1  0  0  0  0
  4 23  1  0  0  0  0
  5 13  1  0  0  0  0
  5  6  1  0  0  0  0
  5 24  1  0  0  0  0
  6  7  1  0  0  0  0
  6 25  1  0  0  0  0
  6 26  1  0  0  0  0
  7 11  1  0  0  0  0
  7  8  1  0  0  0  0
  7 41  1  0  0  0  0
  8  9  1  0  0  0  0
  8 27  1  0  0  0  0
  8 28  1  0  0  0  0
  9 10  1  0  0  0  0
  9 29  1  0  0  0  0
  9 30  1  0  0  0  0
 10 11  1  0  0  0  0
 10 31  1  0  0  0  0
 10 32  1  0  0  0  0
 11 12  1  0  0  0  0
 11 33  1  0  0  0  0
 12 13  1  0  0  0  0
 12 34  1  0  0  0  0
 12 35  1  0  0  0  0
 14 15  1  0  0  0  0
 14 36  1  0  0  0  0
 15 20  1  0  0  0  0
 15 16  2  0  0  0  0
 16 17  1  0  0  0  0
 16 37  1  0  0  0  0
 17 18  2  0  0  0  0
 17 38  1  0  0  0  0
 18 19  1  0  0  0  0
 18 39  1  0  0  0  0
 19 20  2  0  0  0  0
 20 40  1  0  0  0  0
M  CHG  1   7   1
M  END
> <s_m_source_file>
AV-unprocessed.smi

> <i_m_source_file_index>
618

> <i_lp_mmshare_version>
43012

> <i_f3d_flags>
0

> <s_epik_input>
W2NIXTFuW2NIXVtjSF1bY0hdYzFbTkhdQyg9TylbTkhdW0NIMl1bQ0BIXShbQ0gyXTIpT1tDSDJdW0NAQEhdKE4yMylbQ0gyXVtDSDJdW0NIMl0z

> <s_epik_cmdline>
J2VwaWtfcHl0aG9uJywgJy1waCcsICc3LjAnLCAnLXRuJywgJzgnLCAnLW1hJywgJzIwMCcsICctbWV0YWxfYmluZGluZycsICctaW1hZScsICc8aW5maWxlLm1hZT4nLCAnLW9tYWUnLCAnPG91dGZpbGUubWFlPic=

> <r_epik_Ionization_Penalty>
0.111044

> <r_epik_Ionization_Penalty_Charging>
0.10673

> <r_epik_Ionization_Penalty_Neutral>
0.00431361

> <r_epik_State_Penalty>
0.0978747

> <r_epik_Charging_Adjusted_Penalty>
0.204605

> <i_epik_Tot_Q>
1

> <i_epik_Tot_abs_Q>
1

> <r_epik_Metal_State_Penalty>
0.0947591

> <b_epik_Metal_Only>
0

> <s_lp_Force_Field>
OPLS_2005

> <r_lp_Energy>
41.905

> <b_lp_Chiralities_Consistent>
1

> <s_lp_Variant>
AV-unprocessed.smi:618-2

> <Gold.Version>
5.8.1

> <Gold.Id.Protein>
6NUR|6NUR_protein|mol2

> <Gold.PLP.Fitness>
48.6431

> <Gold.PLP.PLP>
-34.6528

> <Gold.PLP.part.hbond>
-3.0000

> <Gold.PLP.part.metal>
0.0000

> <Gold.PLP.part.buried>
-5.9063

> <Gold.PLP.part.nonpolar>
-28.4295

> <Gold.PLP.part.repulsive>
1.8354

> <Gold.PLP.ligand.clash>
0.0000

> <Gold.PLP.ligand.torsion>
0.3298

> <Gold.PLP.Chemscore.Hbond>
3.8800

> <Gold.PLP.Chemscore.CHOScore>
1.0000

> <Gold.PLP.Chemscore.Metal>
0.0000

> <Gold.Chemscore.Hbonds>
donor molecule, donor type, donor heavy atom, donor atom, acceptor molecule, acceptor atom, score
      L1  H     3    21       P1  7948  1.00
      L1  H     7    41       P1 10175  2.00
      L1  H    14    36       P1  7948  0.86
      L1  C    20    40       P1 10747  1.00

> <Gold.PLP.Chemscore.Internal.Correction>
0.0100

> <Gold.Rescore>
     Score         DG    S(hbond)    S(metal)    S(lipo)     H(rot)  DE(clash)    DE(int)     intcor
     16.22     -18.11       2.07        0.00      76.69       1.27       0.12       1.77       ----

> <Gold.Chemscore.Fitness>
16.2168

> <Gold.Chemscore.DG>
-18.1147

> <Gold.Chemscore.ZeroCoef>
-5.4800

> <Gold.Chemscore.Hbond>
2.0664

> <Gold.Chemscore.Metal>
0.0000

> <Gold.Chemscore.Lipo>
76.6907

> <Gold.Chemscore.Internal_Hbond>
0.0000

> <Gold.Chemscore.DEClash>
0.1230

> <Gold.Chemscore.DEInternal>
1.7748

> <Gold.Chemscore.Rot>
1.2656

> <Gold.Chemscore.Internal.Correction>
   9.000000E+99

> <Gold.Chemscore.Hbonds>
donor molecule, donor type, donor heavy atom, donor atom, acceptor molecule, acceptor atom, score
      L1  H     3    21       P1  7948  0.96
      L1  H     7    41       P1 10175  0.29
      L1  H    14    36       P1  7948  0.59

> <Gold.Chemscore.Hbond.Weighted>
-6.9017

> <Gold.Chemscore.Metal.Weighted>
-0.0000

> <Gold.Chemscore.Lipo.Weighted>
-8.9728

> <Gold.Chemscore.Internal_Hbond.Weighted>
0.0000

> <Gold.Chemscore.DEClash.Weighted>
0.1230

> <Gold.Chemscore.DEInternal.Weighted>
1.7748

> <Gold.Chemscore.Rot.Weighted>
3.2399

> <Gold.Chemscore.Internal.Correction.Weighted>
   9.000000E+99

> <Gold.Protein.RotatedTorsions>
[ 6907 6896 6895 6894 ] final  -98.77 input  -60.11 | X-H torsion
[ 7974 7965 7964 7962 ] final  -46.99 input  175.53 | X-H torsion
[ 8008 7997 7996 7995 ] final  -60.95 input   59.86 | X-H torsion
[ 10167 10162 10161 10158 ] final -137.71 input  -65.29 | X-H torsion
[ 10718 10713 10712 10709 ] final  -32.82 input   66.30 | X-H torsion
[ 10763 10752 10751 10750 ] final -113.10 input  -60.55 | X-H torsion
[ 11005 11000 10999 10996 ] final  -76.97 input  -57.11 | X-H torsion

> <Gold.Protein.ActiveResidues>
 VAL166  LYS551  ARG553  GLY616  TRP617  ASP618  TYR619  PRO620  LYS621  CYS622 
 ASP623  PHE694  ASN695  SER759  ASP760  ASP761  ALA762  ILE779  LEU786  VAL792 
 PHE793  MET794  SER795  GLU796  ALA797  LYS798  CYS799  TRP800  GLU811  SER814 

> <Gold.Protein.RotatedAtoms>
  150.7057  134.1143  159.4011 H   0  0  0  0  0  0  0  0  0  0  0  0  # atno 6907 bound_to 6896
  151.9130  135.0328  160.0525 H   0  0  0  0  0  0  0  0  0  0  0  0  # atno 6908 bound_to 6896
  152.2320  133.5030  159.5258 H   0  0  0  0  0  0  0  0  0  0  0  0  # atno 6909 bound_to 6896
  145.9662  140.7429  142.9433 H   0  0  0  0  0  0  0  0  0  0  0  0  # atno 7974 bound_to 7965
  154.4423  140.1028  156.6354 H   0  0  0  0  0  0  0  0  0  0  0  0  # atno 8008 bound_to 7997
  155.5559  140.3486  155.4461 H   0  0  0  0  0  0  0  0  0  0  0  0  # atno 8009 bound_to 7997
  156.0495  140.1300  157.0055 H   0  0  0  0  0  0  0  0  0  0  0  0  # atno 8010 bound_to 7997
  139.8551  143.7149  152.2655 H   0  0  0  0  0  0  0  0  0  0  0  0  # atno 10167 bound_to 10162
  156.3702  130.4338  149.7551 H   0  0  0  0  0  0  0  0  0  0  0  0  # atno 10718 bound_to 10713
  154.8380  135.4466  154.1296 H   0  0  0  0  0  0  0  0  0  0  0  0  # atno 10763 bound_to 10752
  153.2510  135.6926  153.7685 H   0  0  0  0  0  0  0  0  0  0  0  0  # atno 10764 bound_to 10752
  153.6998  135.3374  155.3197 H   0  0  0  0  0  0  0  0  0  0  0  0  # atno 10765 bound_to 10752
  141.1657  133.7004  156.7749 H   0  0  0  0  0  0  0  0  0  0  0  0  # atno 11005 bound_to 11000
  144.6826  140.2673  143.7311 LP  0  0  0  0  0  0  0  0  0  0  0  0  # atno 17320 bound_to 7965
  145.7970  139.1949  143.2070 LP  0  0  0  0  0  0  0  0  0  0  0  0  # atno 17321 bound_to 7965
  139.7428  144.7555  151.0626 LP  0  0  0  0  0  0  0  0  0  0  0  0  # atno 17342 bound_to 10162
  140.7782  143.4952  150.9841 LP  0  0  0  0  0  0  0  0  0  0  0  0  # atno 17343 bound_to 10162
  156.4682  130.7984  151.3002 LP  0  0  0  0  0  0  0  0  0  0  0  0  # atno 17370 bound_to 10713
  157.7483  131.0044  150.3075 LP  0  0  0  0  0  0  0  0  0  0  0  0  # atno 17371 bound_to 10713
  140.2437  134.8594  157.3599 LP  0  0  0  0  0  0  0  0  0  0  0  0  # atno 17394 bound_to 11000
  140.1771  134.4536  155.7795 LP  0  0  0  0  0  0  0  0  0  0  0  0  # atno 17395 bound_to 11000

$$$$
