AV-unprocessed.smi:1203|AV-procd|sdf|5036|dock9
  -GOLD-   22720 4 63D 1   1.00000     0.00000
 Structure written by MMmdl.
 40 41  0  0  0  0  0  0  0  0  2 V2000
  155.6590  140.7710  159.8051 C   0  0  0  0  0  0  0  0  0  0  0  0
  153.8789  140.3078  159.7437 S   0  0  0  0  0  0  0  0  0  0  0  0
  153.5941  139.7787  158.4014 O   0  0  0  0  0  0  0  0  0  0  0  0
  153.5572  139.5067  160.9348 O   0  0  0  0  0  0  0  0  0  0  0  0
  153.0640  141.8329  159.8836 N   0  0  0  0  0  0  0  0  0  0  0  0
  152.8963  142.5156  161.1641 C   0  0  0  0  0  0  0  0  0  0  0  0
  152.3591  143.8930  160.7859 C   0  0  0  0  0  0  0  0  0  0  0  0
  151.5523  143.6374  159.5157 C   0  0  0  0  0  0  0  0  0  0  0  0
  152.2749  142.4678  158.8135 C   0  0  2  0  0  0  0  0  0  0  0  0
  151.2911  141.5420  158.0829 C   0  0  0  0  0  0  0  0  0  0  0  0
  150.3917  140.9722  158.7021 O   0  0  0  0  0  0  0  0  0  0  0  0
  151.4740  141.4029  156.7602 N   0  0  0  0  0  0  0  0  0  0  0  0
  150.6508  140.5900  155.8683 C   0  0  0  0  0  0  0  0  0  0  0  0
  149.4939  141.3933  155.2419 C   0  0  0  0  0  0  0  0  0  0  0  0
  148.5220  140.5420  154.4426 C   0  0  0  0  0  0  0  0  0  0  0  0
  148.7583  139.1610  154.2633 C   0  0  0  0  0  0  0  0  0  0  0  0
  147.8238  138.3870  153.5443 C   0  0  0  0  0  0  0  0  0  0  0  0
  146.6751  139.0123  153.0180 C   0  0  0  0  0  0  0  0  0  0  0  0
  146.4846  140.3367  153.2056 N   0  3  0  0  0  0  0  0  0  0  0  0
  147.3552  141.1123  153.8880 C   0  0  0  0  0  0  0  0  0  0  0  0
  156.2667  139.8804  159.6479 H   0  0  0  0  0  0  0  0  0  0  0  0
  155.9031  141.1990  160.7755 H   0  0  0  0  0  0  0  0  0  0  0  0
  155.8755  141.4961  159.0211 H   0  0  0  0  0  0  0  0  0  0  0  0
  152.1772  141.9646  161.7710 H   0  0  0  0  0  0  0  0  0  0  0  0
  153.8401  142.5761  161.7066 H   0  0  0  0  0  0  0  0  0  0  0  0
  151.7670  144.3481  161.5802 H   0  0  0  0  0  0  0  0  0  0  0  0
  153.1917  144.5619  160.5636 H   0  0  0  0  0  0  0  0  0  0  0  0
  150.5285  143.3818  159.7934 H   0  0  0  0  0  0  0  0  0  0  0  0
  151.5025  144.5254  158.8849 H   0  0  0  0  0  0  0  0  0  0  0  0
  152.9843  142.8765  158.0921 H   0  0  0  0  0  0  0  0  0  0  0  0
  152.2510  141.8922  156.3394 H   0  0  0  0  0  0  0  0  0  0  0  0
  151.2934  140.2028  155.0774 H   0  0  0  0  0  0  0  0  0  0  0  0
  150.2625  139.7167  156.3950 H   0  0  0  0  0  0  0  0  0  0  0  0
  148.9468  141.9182  156.0263 H   0  0  0  0  0  0  0  0  0  0  0  0
  149.8984  142.1667  154.5879 H   0  0  0  0  0  0  0  0  0  0  0  0
  149.6393  138.6966  154.6820 H   0  0  0  0  0  0  0  0  0  0  0  0
  147.9846  137.3284  153.4017 H   0  0  0  0  0  0  0  0  0  0  0  0
  145.9089  138.4973  152.4570 H   0  0  0  0  0  0  0  0  0  0  0  0
  147.0872  142.1550  153.9785 H   0  0  0  0  0  0  0  0  0  0  0  0
  145.6466  140.7695  152.8162 H   0  0  0  0  0  0  0  0  0  0  0  0
  1  2  1  0  0  0  0
  1 21  1  0  0  0  0
  1 22  1  0  0  0  0
  1 23  1  0  0  0  0
  2  3  2  0  0  0  0
  2  4  2  0  0  0  0
  2  5  1  0  0  0  0
  5  9  1  0  0  0  0
  5  6  1  0  0  0  0
  6  7  1  0  0  0  0
  6 24  1  0  0  0  0
  6 25  1  0  0  0  0
  7  8  1  0  0  0  0
  7 26  1  0  0  0  0
  7 27  1  0  0  0  0
  8  9  1  0  0  0  0
  8 28  1  0  0  0  0
  8 29  1  0  0  0  0
  9 10  1  0  0  0  0
  9 30  1  0  0  0  0
 10 11  2  0  0  0  0
 10 12  1  0  0  0  0
 12 13  1  0  0  0  0
 12 31  1  0  0  0  0
 13 14  1  0  0  0  0
 13 32  1  0  0  0  0
 13 33  1  0  0  0  0
 14 15  1  0  0  0  0
 14 34  1  0  0  0  0
 14 35  1  0  0  0  0
 15 20  1  0  0  0  0
 15 16  2  0  0  0  0
 16 17  1  0  0  0  0
 16 36  1  0  0  0  0
 17 18  2  0  0  0  0
 17 37  1  0  0  0  0
 18 19  1  0  0  0  0
 18 38  1  0  0  0  0
 19 20  2  0  0  0  0
 19 40  1  0  0  0  0
 20 39  1  0  0  0  0
M  CHG  1  19   1
M  END
> <s_m_source_file>
AV-unprocessed.smi

> <i_m_source_file_index>
1203

> <i_lp_mmshare_version>
43012

> <i_f3d_flags>
0

> <s_epik_input>
W0NIM11TKD1PKSg9TylOMVtDSDJdW0NIMl1bQ0gyXVtDQEhdMUMoPU8pW05IXVtDSDJdW0NIMl1jMltjSF1bY0hdW2NIXW5bY0hdMg==

> <s_epik_cmdline>
J2VwaWtfcHl0aG9uJywgJy1waCcsICc3LjAnLCAnLXRuJywgJzgnLCAnLW1hJywgJzIwMCcsICctbWV0YWxfYmluZGluZycsICctaW1hZScsICc8aW5maWxlLm1hZT4nLCAnLW9tYWUnLCAnPG91dGZpbGUubWFlPic=

> <r_epik_Ionization_Penalty>
2.2835

> <r_epik_Ionization_Penalty_Charging>
2.2835

> <r_epik_Ionization_Penalty_Neutral>
1.4017e-07

> <r_epik_State_Penalty>
2.43297

> <r_epik_Charging_Adjusted_Penalty>
4.71647

> <i_epik_Tot_Q>
1

> <i_epik_Tot_abs_Q>
1

> <r_epik_Metal_State_Penalty>
2.44558

> <b_epik_Metal_Only>
0

> <s_lp_Force_Field>
OPLS_2005

> <r_lp_Energy>
15.5637

> <b_lp_Chiralities_Consistent>
1

> <s_lp_Variant>
AV-unprocessed.smi:1203-4

> <Gold.Version>
5.8.1

> <Gold.Id.Protein>
6NUR|6NUR_protein|mol2

> <Gold.PLP.Fitness>
44.7119

> <Gold.PLP.PLP>
-36.6753

> <Gold.PLP.part.hbond>
-2.0000

> <Gold.PLP.part.metal>
0.0000

> <Gold.PLP.part.buried>
-0.8242

> <Gold.PLP.part.nonpolar>
-36.1370

> <Gold.PLP.part.repulsive>
0.1244

> <Gold.PLP.ligand.clash>
0.0000

> <Gold.PLP.ligand.torsion>
1.2518

> <Gold.PLP.Chemscore.Hbond>
2.8240

> <Gold.PLP.Chemscore.CHOScore>
0.0000

> <Gold.PLP.Chemscore.Metal>
0.0000

> <Gold.Chemscore.Hbonds>
donor molecule, donor type, donor heavy atom, donor atom, acceptor molecule, acceptor atom, score
      L1  H    19    40       P1 10175  1.79
      P1  H  7997  8008       L1     3  1.00

> <Gold.PLP.Chemscore.Internal.Correction>
2.0682

> <Gold.Rescore>
     Score         DG    S(hbond)    S(metal)    S(lipo)     H(rot)  DE(clash)    DE(int)     intcor
     15.74     -18.23       1.95        0.00      90.60       1.70       0.02       2.47       ----

> <Gold.Chemscore.Fitness>
15.7372

> <Gold.Chemscore.DG>
-18.2265

> <Gold.Chemscore.ZeroCoef>
-5.4800

> <Gold.Chemscore.Hbond>
1.9464

> <Gold.Chemscore.Metal>
0.0000

> <Gold.Chemscore.Lipo>
90.6033

> <Gold.Chemscore.Internal_Hbond>
0.0000

> <Gold.Chemscore.DEClash>
0.0241

> <Gold.Chemscore.DEInternal>
2.4652

> <Gold.Chemscore.Rot>
1.7012

> <Gold.Chemscore.Internal.Correction>
   9.000000E+99

> <Gold.Chemscore.Hbonds>
donor molecule, donor type, donor heavy atom, donor atom, acceptor molecule, acceptor atom, score
      L1  H    19    40       P1 10175  0.38
      P1  H  7997  8008       L1     3  0.88

> <Gold.Chemscore.Hbond.Weighted>
-6.5010

> <Gold.Chemscore.Metal.Weighted>
-0.0000

> <Gold.Chemscore.Lipo.Weighted>
-10.6006

> <Gold.Chemscore.Internal_Hbond.Weighted>
0.0000

> <Gold.Chemscore.DEClash.Weighted>
0.0241

> <Gold.Chemscore.DEInternal.Weighted>
2.4652

> <Gold.Chemscore.Rot.Weighted>
4.3551

> <Gold.Chemscore.Internal.Correction.Weighted>
   9.000000E+99

> <Gold.Protein.RotatedTorsions>
[ 6907 6896 6895 6894 ] final  170.80 input  -60.11 | X-H torsion
[ 7974 7965 7964 7962 ] final   27.74 input  175.53 | X-H torsion
[ 8008 7997 7996 7995 ] final -106.38 input   59.86 | X-H torsion
[ 10167 10162 10161 10158 ] final -142.44 input  -65.29 | X-H torsion
[ 10718 10713 10712 10709 ] final   21.20 input   66.30 | X-H torsion
[ 10763 10752 10751 10750 ] final  -55.50 input  -60.55 | X-H torsion
[ 11005 11000 10999 10996 ] final   27.64 input  -57.11 | X-H torsion

> <Gold.Protein.ActiveResidues>
 VAL166  LYS551  ARG553  GLY616  TRP617  ASP618  TYR619  PRO620  LYS621  CYS622 
 ASP623  PHE694  ASN695  SER759  ASP760  ASP761  ALA762  ILE779  LEU786  VAL792 
 PHE793  MET794  SER795  GLU796  ALA797  LYS798  CYS799  TRP800  GLU811  SER814 

> <Gold.Protein.RotatedAtoms>
  151.8104  133.3381  159.3553 H   0  0  0  0  0  0  0  0  0  0  0  0  # atno 6907 bound_to 6896
  150.7328  134.5669  159.5880 H   0  0  0  0  0  0  0  0  0  0  0  0  # atno 6908 bound_to 6896
  152.3079  134.7534  160.0394 H   0  0  0  0  0  0  0  0  0  0  0  0  # atno 6909 bound_to 6896
  146.1768  139.7151  142.8929 H   0  0  0  0  0  0  0  0  0  0  0  0  # atno 7974 bound_to 7965
  154.9137  140.0409  157.1960 H   0  0  0  0  0  0  0  0  0  0  0  0  # atno 8008 bound_to 7997
  154.8323  140.2901  155.5693 H   0  0  0  0  0  0  0  0  0  0  0  0  # atno 8009 bound_to 7997
  156.2987  140.2498  156.3250 H   0  0  0  0  0  0  0  0  0  0  0  0  # atno 8010 bound_to 7997
  139.8089  143.7730  152.2662 H   0  0  0  0  0  0  0  0  0  0  0  0  # atno 10167 bound_to 10162
  157.1351  130.6608  149.5963 H   0  0  0  0  0  0  0  0  0  0  0  0  # atno 10718 bound_to 10713
  154.1917  135.6426  153.5062 H   0  0  0  0  0  0  0  0  0  0  0  0  # atno 10763 bound_to 10752
  153.0033  135.5430  154.6408 H   0  0  0  0  0  0  0  0  0  0  0  0  # atno 10764 bound_to 10752
  154.5798  135.2924  155.0717 H   0  0  0  0  0  0  0  0  0  0  0  0  # atno 10765 bound_to 10752
  140.3241  134.2511  155.7712 H   0  0  0  0  0  0  0  0  0  0  0  0  # atno 11005 bound_to 11000
  145.4190  141.0404  143.2974 LP  0  0  0  0  0  0  0  0  0  0  0  0  # atno 17320 bound_to 7965
  144.8249  139.5728  143.6970 LP  0  0  0  0  0  0  0  0  0  0  0  0  # atno 17321 bound_to 7965
  139.7873  144.7423  151.0004 LP  0  0  0  0  0  0  0  0  0  0  0  0  # atno 17342 bound_to 10162
  140.7818  143.4479  151.0456 LP  0  0  0  0  0  0  0  0  0  0  0  0  # atno 17343 bound_to 10162
  155.9800  130.4797  150.6747 LP  0  0  0  0  0  0  0  0  0  0  0  0  # atno 17370 bound_to 10713
  157.4358  131.0855  151.0993 LP  0  0  0  0  0  0  0  0  0  0  0  0  # atno 17371 bound_to 10713
  141.2079  133.7791  157.0088 LP  0  0  0  0  0  0  0  0  0  0  0  0  # atno 17394 bound_to 11000
  140.0917  134.9588  157.1786 LP  0  0  0  0  0  0  0  0  0  0  0  0  # atno 17395 bound_to 11000

$$$$
