AV-unprocessed.smi:1112|AV-procd|sdf|4797|dock3
  -GOLD-   22720 3343D 1   1.00000     0.00000
 Structure written by MMmdl.
 50 52  0  0  0  0  0  0  0  0  2 V2000
  150.5455  133.7295  155.4140 O   0  0  0  0  0  0  0  0  0  0  0  0
  150.0358  134.3422  154.4764 C   0  0  0  0  0  0  0  0  0  0  0  0
  150.2171  135.6516  154.2545 N   0  0  0  0  0  0  0  0  0  0  0  0
  151.0541  136.5489  155.0499 C   0  0  0  0  0  0  0  0  0  0  0  0
  151.7412  137.6454  154.1932 C   0  0  0  0  0  0  0  0  0  0  0  0
  152.3470  136.9785  153.1014 O   0  0  0  0  0  0  0  0  0  0  0  0
  150.7045  138.6178  153.5814 C   0  0  0  0  0  0  0  0  0  0  0  0
  150.1173  139.5941  154.6182 C   0  0  0  0  0  0  0  0  0  0  0  0
  151.2241  140.3616  155.3580 C   0  0  0  0  0  0  0  0  0  0  0  0
  152.2451  139.4022  155.9885 C   0  0  0  0  0  0  0  0  0  0  0  0
  152.8373  138.4528  154.9329 C   0  0  0  0  0  0  0  0  0  0  0  0
  149.2217  133.8046  153.5525 N   0  0  0  0  0  0  0  0  0  0  0  0
  148.7706  132.4573  153.4417 C   0  0  0  0  0  0  0  0  0  0  0  0
  149.5678  131.3532  153.8404 C   0  0  0  0  0  0  0  0  0  0  0  0
  149.0688  130.0433  153.7047 C   0  0  0  0  0  0  0  0  0  0  0  0
  147.7849  129.8540  153.1638 C   0  0  0  0  0  0  0  0  0  0  0  0
  147.0587  130.9229  152.7767 N   0  3  0  0  0  0  0  0  0  0  0  0
  147.4869  132.2054  152.8843 C   0  0  0  0  0  0  0  0  0  0  0  0
  146.6557  133.2436  152.4131 N   0  0  0  0  0  0  0  0  0  0  0  0
  146.3541  133.1537  150.9861 C   0  0  0  0  0  0  0  0  0  0  0  0
  144.8897  133.5676  150.8213 C   0  0  0  0  0  0  0  0  0  0  0  0
  144.2806  133.2450  152.1803 C   0  0  0  0  0  0  0  0  0  0  0  0
  145.4271  133.5665  153.1367 C   0  0  0  0  0  0  0  0  0  0  0  0
  149.7545  136.0667  153.4591 H   0  0  0  0  0  0  0  0  0  0  0  0
  150.4260  137.0085  155.8140 H   0  0  0  0  0  0  0  0  0  0  0  0
  151.8006  135.9739  155.5977 H   0  0  0  0  0  0  0  0  0  0  0  0
  151.6946  136.8483  152.4300 H   0  0  0  0  0  0  0  0  0  0  0  0
  151.1778  139.2048  152.7924 H   0  0  0  0  0  0  0  0  0  0  0  0
  149.8989  138.0617  153.0997 H   0  0  0  0  0  0  0  0  0  0  0  0
  149.4507  140.2996  154.1214 H   0  0  0  0  0  0  0  0  0  0  0  0
  149.5011  139.0545  155.3375 H   0  0  0  0  0  0  0  0  0  0  0  0
  151.7338  141.0279  154.6607 H   0  0  0  0  0  0  0  0  0  0  0  0
  150.7855  140.9976  156.1272 H   0  0  0  0  0  0  0  0  0  0  0  0
  153.0446  139.9732  156.4611 H   0  0  0  0  0  0  0  0  0  0  0  0
  151.7679  138.8286  156.7830 H   0  0  0  0  0  0  0  0  0  0  0  0
  153.5746  137.7946  155.3925 H   0  0  0  0  0  0  0  0  0  0  0  0
  153.3931  139.0519  154.2098 H   0  0  0  0  0  0  0  0  0  0  0  0
  148.8115  134.4540  152.8977 H   0  0  0  0  0  0  0  0  0  0  0  0
  150.5627  131.4844  154.2372 H   0  0  0  0  0  0  0  0  0  0  0  0
  149.6665  129.1958  154.0075 H   0  0  0  0  0  0  0  0  0  0  0  0
  147.3240  128.8875  153.0194 H   0  0  0  0  0  0  0  0  0  0  0  0
  147.0142  133.7971  150.4035 H   0  0  0  0  0  0  0  0  0  0  0  0
  146.4921  132.1295  150.6350 H   0  0  0  0  0  0  0  0  0  0  0  0
  144.8265  134.6411  150.6361 H   0  0  0  0  0  0  0  0  0  0  0  0
  144.3938  133.0537  149.9974 H   0  0  0  0  0  0  0  0  0  0  0  0
  143.3767  133.8170  152.3914 H   0  0  0  0  0  0  0  0  0  0  0  0
  144.0334  132.1837  152.2357 H   0  0  0  0  0  0  0  0  0  0  0  0
  145.3154  133.0548  154.0928 H   0  0  0  0  0  0  0  0  0  0  0  0
  145.4417  134.6354  153.3521 H   0  0  0  0  0  0  0  0  0  0  0  0
  146.1363  130.7554  152.3744 H   0  0  0  0  0  0  0  0  0  0  0  0
  1  2  2  0  0  0  0
  2  3  1  0  0  0  0
  2 12  1  0  0  0  0
  3  4  1  0  0  0  0
  3 24  1  0  0  0  0
  4  5  1  0  0  0  0
  4 25  1  0  0  0  0
  4 26  1  0  0  0  0
  5 11  1  0  0  0  0
  5  6  1  0  0  0  0
  5  7  1  0  0  0  0
  6 27  1  0  0  0  0
  7  8  1  0  0  0  0
  7 28  1  0  0  0  0
  7 29  1  0  0  0  0
  8  9  1  0  0  0  0
  8 30  1  0  0  0  0
  8 31  1  0  0  0  0
  9 10  1  0  0  0  0
  9 32  1  0  0  0  0
  9 33  1  0  0  0  0
 10 11  1  0  0  0  0
 10 34  1  0  0  0  0
 10 35  1  0  0  0  0
 11 36  1  0  0  0  0
 11 37  1  0  0  0  0
 12 13  1  0  0  0  0
 12 38  1  0  0  0  0
 13 18  1  0  0  0  0
 13 14  2  0  0  0  0
 14 15  1  0  0  0  0
 14 39  1  0  0  0  0
 15 16  2  0  0  0  0
 15 40  1  0  0  0  0
 16 17  1  0  0  0  0
 16 41  1  0  0  0  0
 17 18  2  0  0  0  0
 17 50  1  0  0  0  0
 18 19  1  0  0  0  0
 19 23  1  0  0  0  0
 19 20  1  0  0  0  0
 20 21  1  0  0  0  0
 20 42  1  0  0  0  0
 20 43  1  0  0  0  0
 21 22  1  0  0  0  0
 21 44  1  0  0  0  0
 21 45  1  0  0  0  0
 22 23  1  0  0  0  0
 22 46  1  0  0  0  0
 22 47  1  0  0  0  0
 23 48  1  0  0  0  0
 23 49  1  0  0  0  0
M  CHG  1  17   1
M  END
> <s_m_source_file>
AV-unprocessed.smi

> <i_m_source_file_index>
1112

> <i_lp_mmshare_version>
43012

> <i_f3d_flags>
0

> <s_epik_input>
W0NIMl0xW0NIMl1bQ0gyXVtDSDJdW0NIMl1DMShbT0hdKVtDSDJdW05IXUMoPU8pW05IXWMyW2NIXVtjSF1bY0hdbmMyTjNbQ0gyXVtDSDJdW0NIMl1bQ0gyXTM=

> <s_epik_cmdline>
J2VwaWtfcHl0aG9uJywgJy1waCcsICc3LjAnLCAnLXRuJywgJzgnLCAnLW1hJywgJzIwMCcsICctbWV0YWxfYmluZGluZycsICctaW1hZScsICc8aW5maWxlLm1hZT4nLCAnLW9tYWUnLCAnPG91dGZpbGUubWFlPic=

> <r_lp_tautomer_probability>
0.999994

> <r_epik_Ionization_Penalty>
1.10443

> <r_epik_Ionization_Penalty_Charging>
1.1044

> <r_epik_Ionization_Penalty_Neutral>
2.27493e-05

> <r_epik_State_Penalty>
1.16183

> <r_epik_Charging_Adjusted_Penalty>
2.26623

> <i_epik_Tot_Q>
1

> <i_epik_Tot_abs_Q>
1

> <r_epik_Metal_State_Penalty>
1.24855

> <b_epik_Metal_Only>
0

> <s_lp_Force_Field>
OPLS_2005

> <r_lp_Energy>
50.1983

> <b_lp_Chiralities_Consistent>
1

> <s_lp_Variant>
AV-unprocessed.smi:1112-2

> <Gold.Version>
5.8.1

> <Gold.Id.Protein>
6NUR|6NUR_protein|mol2

> <Gold.PLP.Fitness>
53.5950

> <Gold.PLP.PLP>
-43.1916

> <Gold.PLP.part.hbond>
-5.1265

> <Gold.PLP.part.metal>
0.0000

> <Gold.PLP.part.buried>
-2.6535

> <Gold.PLP.part.nonpolar>
-34.5646

> <Gold.PLP.part.repulsive>
0.2095

> <Gold.PLP.ligand.clash>
0.0000

> <Gold.PLP.ligand.torsion>
0.5416

> <Gold.PLP.Chemscore.Hbond>
3.7760

> <Gold.PLP.Chemscore.CHOScore>
0.0000

> <Gold.PLP.Chemscore.Metal>
0.0000

> <Gold.Chemscore.Hbonds>
donor molecule, donor type, donor heavy atom, donor atom, acceptor molecule, acceptor atom, score
      L1  H     3    24       P1  7948  0.85
      L1  H     6    27       P1  7949  0.56
      L1  H    12    38       P1  7948  0.58
      P1  H 10752 10764       L1     6  1.00

> <Gold.PLP.Chemscore.Internal.Correction>
0.1585

> <Gold.Rescore>
     Score         DG    S(hbond)    S(metal)    S(lipo)     H(rot)  DE(clash)    DE(int)     intcor
     18.50     -19.94       2.74        0.00      87.40       1.92       0.01       1.43       ----

> <Gold.Chemscore.Fitness>
18.4997

> <Gold.Chemscore.DG>
-19.9377

> <Gold.Chemscore.ZeroCoef>
-5.4800

> <Gold.Chemscore.Hbond>
2.7365

> <Gold.Chemscore.Metal>
0.0000

> <Gold.Chemscore.Lipo>
87.4038

> <Gold.Chemscore.Internal_Hbond>
0.0000

> <Gold.Chemscore.DEClash>
0.0093

> <Gold.Chemscore.DEInternal>
1.4287

> <Gold.Chemscore.Rot>
1.9173

> <Gold.Chemscore.Internal.Correction>
   9.000000E+99

> <Gold.Chemscore.Hbonds>
donor molecule, donor type, donor heavy atom, donor atom, acceptor molecule, acceptor atom, score
      L1  H     3    24       P1  7948  0.15
      L1  H     6    27       P1  7949  0.54
      L1  H    12    38       P1  7948  0.04
      P1  H 10752 10764       L1     6  0.49

> <Gold.Chemscore.Hbond.Weighted>
-9.1399

> <Gold.Chemscore.Metal.Weighted>
-0.0000

> <Gold.Chemscore.Lipo.Weighted>
-10.2262

> <Gold.Chemscore.Internal_Hbond.Weighted>
0.0000

> <Gold.Chemscore.DEClash.Weighted>
0.0093

> <Gold.Chemscore.DEInternal.Weighted>
1.4287

> <Gold.Chemscore.Rot.Weighted>
4.9084

> <Gold.Chemscore.Internal.Correction.Weighted>
   9.000000E+99

> <Gold.Protein.RotatedTorsions>
[ 6907 6896 6895 6894 ] final   -3.18 input  -60.11 | X-H torsion
[ 7974 7965 7964 7962 ] final  157.89 input  175.53 | X-H torsion
[ 8008 7997 7996 7995 ] final   -3.48 input   59.86 | X-H torsion
[ 10167 10162 10161 10158 ] final  -27.22 input  -65.29 | X-H torsion
[ 10718 10713 10712 10709 ] final   -2.68 input   66.30 | X-H torsion
[ 10763 10752 10751 10750 ] final -110.24 input  -60.55 | X-H torsion
[ 11005 11000 10999 10996 ] final  -54.86 input  -57.11 | X-H torsion

> <Gold.Protein.ActiveResidues>
 VAL166  LYS551  ARG553  GLY616  TRP617  ASP618  TYR619  PRO620  LYS621  CYS622 
 ASP623  PHE694  ASN695  SER759  ASP760  ASP761  ALA762  ILE779  LEU786  VAL792 
 PHE793  MET794  SER795  GLU796  ALA797  LYS798  CYS799  TRP800  GLU811  SER814 

> <Gold.Protein.RotatedAtoms>
  151.5180  135.1066  159.9870 H   0  0  0  0  0  0  0  0  0  0  0  0  # atno 6907 bound_to 6896
  152.4633  133.7864  159.6889 H   0  0  0  0  0  0  0  0  0  0  0  0  # atno 6908 bound_to 6896
  150.8605  133.7587  159.3019 H   0  0  0  0  0  0  0  0  0  0  0  0  # atno 6909 bound_to 6896
  144.7877  139.7403  143.6234 H   0  0  0  0  0  0  0  0  0  0  0  0  # atno 7974 bound_to 7965
  154.6245  140.2508  155.7508 H   0  0  0  0  0  0  0  0  0  0  0  0  # atno 8008 bound_to 7997
  156.2445  140.2920  156.0488 H   0  0  0  0  0  0  0  0  0  0  0  0  # atno 8009 bound_to 7997
  155.1843  140.0390  157.2878 H   0  0  0  0  0  0  0  0  0  0  0  0  # atno 8010 bound_to 7997
  140.7278  143.4111  151.1104 H   0  0  0  0  0  0  0  0  0  0  0  0  # atno 10167 bound_to 10162
  156.7873  130.5350  149.5741 H   0  0  0  0  0  0  0  0  0  0  0  0  # atno 10718 bound_to 10713
  154.8237  135.4571  154.0854 H   0  0  0  0  0  0  0  0  0  0  0  0  # atno 10763 bound_to 10752
  153.2186  135.6891  153.8033 H   0  0  0  0  0  0  0  0  0  0  0  0  # atno 10764 bound_to 10752
  153.7458  135.3305  155.3289 H   0  0  0  0  0  0  0  0  0  0  0  0  # atno 10765 bound_to 10752
  141.1046  133.6614  156.4383 H   0  0  0  0  0  0  0  0  0  0  0  0  # atno 11005 bound_to 11000
  146.2116  139.5476  142.9677 LP  0  0  0  0  0  0  0  0  0  0  0  0  # atno 17320 bound_to 7965
  145.5878  141.0374  143.2087 LP  0  0  0  0  0  0  0  0  0  0  0  0  # atno 17321 bound_to 7965
  139.7745  143.8446  152.3126 LP  0  0  0  0  0  0  0  0  0  0  0  0  # atno 17342 bound_to 10162
  139.8376  144.7225  150.9372 LP  0  0  0  0  0  0  0  0  0  0  0  0  # atno 17343 bound_to 10162
  156.1181  130.6090  151.0151 LP  0  0  0  0  0  0  0  0  0  0  0  0  # atno 17370 bound_to 10713
  157.6618  131.0879  150.7821 LP  0  0  0  0  0  0  0  0  0  0  0  0  # atno 17371 bound_to 10713
  140.4935  134.6553  157.5220 LP  0  0  0  0  0  0  0  0  0  0  0  0  # atno 17394 bound_to 11000
  139.9911  134.6984  155.9688 LP  0  0  0  0  0  0  0  0  0  0  0  0  # atno 17395 bound_to 11000

$$$$
