AV-unprocessed.smi:463|AV-procd|sdf|2634|dock9
  -GOLD-   2262023 43D 1   1.00000     0.00000
 Structure written by MMmdl.
 42 44  0  0  0  0  0  0  0  0  1 V2000
  146.9816  138.6200  152.1240 C   0  0  0  0  0  0  0  0  0  0  0  0
  147.7050  139.7051  152.8944 C   0  0  0  0  0  0  0  0  0  0  0  0
  147.2647  141.0413  152.8199 C   0  0  0  0  0  0  0  0  0  0  0  0
  147.9447  142.0460  153.5329 C   0  0  0  0  0  0  0  0  0  0  0  0
  149.0655  141.7203  154.3214 C   0  0  0  0  0  0  0  0  0  0  0  0
  149.5168  140.3791  154.4048 C   0  0  0  0  0  0  0  0  0  0  0  0
  150.5999  139.9705  155.1513 O   0  0  0  0  0  0  0  0  0  0  0  0
  151.3595  140.9561  155.8381 C   0  0  0  0  0  0  0  0  0  0  0  0
  150.6477  141.3256  157.1466 C   0  0  0  0  0  0  0  0  0  0  0  0
  151.4952  141.0943  158.3079 N   0  0  0  0  0  0  0  0  0  0  0  0
  152.1618  139.9666  158.6675 C   0  0  0  0  0  0  0  0  0  0  0  0
  152.1291  138.7036  157.8559 C   0  0  0  0  0  0  0  0  0  0  0  0
  151.2516  137.6039  158.4746 C   0  0  0  0  0  0  0  0  0  0  0  0
  151.8734  137.0358  159.6082 O   0  0  0  0  0  0  0  0  0  0  0  0
  152.8657  140.0472  159.7980 N   0  0  0  0  0  0  0  0  0  0  0  0
  152.6277  141.3418  160.2153 C   0  0  0  0  0  0  0  0  0  0  0  0
  153.0884  142.0394  161.3550 C   0  0  0  0  0  0  0  0  0  0  0  0
  152.7038  143.3782  161.5761 C   0  0  0  0  0  0  0  0  0  0  0  0
  151.8548  144.0369  160.6632 C   0  0  0  0  0  0  0  0  0  0  0  0
  151.3856  143.3602  159.5209 C   0  0  0  0  0  0  0  0  0  0  0  0
  151.7731  142.0242  159.3046 C   0  0  0  0  0  0  0  0  0  0  0  0
  148.8268  139.3824  153.6848 C   0  0  0  0  0  0  0  0  0  0  0  0
  145.9338  138.8807  151.9721 H   0  0  0  0  0  0  0  0  0  0  0  0
  147.0192  137.6723  152.6619 H   0  0  0  0  0  0  0  0  0  0  0  0
  147.4459  138.4794  151.1478 H   0  0  0  0  0  0  0  0  0  0  0  0
  146.4070  141.2999  152.2166 H   0  0  0  0  0  0  0  0  0  0  0  0
  147.6066  143.0700  153.4748 H   0  0  0  0  0  0  0  0  0  0  0  0
  149.5613  142.5179  154.8529 H   0  0  0  0  0  0  0  0  0  0  0  0
  152.3575  140.5753  156.0592 H   0  0  0  0  0  0  0  0  0  0  0  0
  151.4678  141.8493  155.2205 H   0  0  0  0  0  0  0  0  0  0  0  0
  150.3215  142.3643  157.1252 H   0  0  0  0  0  0  0  0  0  0  0  0
  149.7420  140.7287  157.2571 H   0  0  0  0  0  0  0  0  0  0  0  0
  151.7257  138.9573  156.8750 H   0  0  0  0  0  0  0  0  0  0  0  0
  153.1363  138.3352  157.6646 H   0  0  0  0  0  0  0  0  0  0  0  0
  150.2680  137.9905  158.7432 H   0  0  0  0  0  0  0  0  0  0  0  0
  151.0957  136.8065  157.7477 H   0  0  0  0  0  0  0  0  0  0  0  0
  152.7901  136.9089  159.4162 H   0  0  0  0  0  0  0  0  0  0  0  0
  153.7375  141.5431  162.0611 H   0  0  0  0  0  0  0  0  0  0  0  0
  153.0609  143.9018  162.4509 H   0  0  0  0  0  0  0  0  0  0  0  0
  151.5637  145.0620  160.8402 H   0  0  0  0  0  0  0  0  0  0  0  0
  150.7344  143.8613  158.8202 H   0  0  0  0  0  0  0  0  0  0  0  0
  149.1660  138.3583  153.7414 H   0  0  0  0  0  0  0  0  0  0  0  0
  1  2  1  0  0  0  0
  1 23  1  0  0  0  0
  1 24  1  0  0  0  0
  1 25  1  0  0  0  0
  2 22  1  0  0  0  0
  2  3  2  0  0  0  0
  3  4  1  0  0  0  0
  3 26  1  0  0  0  0
  4  5  2  0  0  0  0
  4 27  1  0  0  0  0
  5  6  1  0  0  0  0
  5 28  1  0  0  0  0
  6  7  1  0  0  0  0
  6 22  2  0  0  0  0
  7  8  1  0  0  0  0
  8  9  1  0  0  0  0
  8 29  1  0  0  0  0
  8 30  1  0  0  0  0
  9 10  1  0  0  0  0
  9 31  1  0  0  0  0
  9 32  1  0  0  0  0
 10 21  1  0  0  0  0
 10 11  1  0  0  0  0
 11 12  1  0  0  0  0
 11 15  2  0  0  0  0
 12 13  1  0  0  0  0
 12 33  1  0  0  0  0
 12 34  1  0  0  0  0
 13 14  1  0  0  0  0
 13 35  1  0  0  0  0
 13 36  1  0  0  0  0
 14 37  1  0  0  0  0
 15 16  1  0  0  0  0
 16 21  2  0  0  0  0
 16 17  1  0  0  0  0
 17 18  2  0  0  0  0
 17 38  1  0  0  0  0
 18 19  1  0  0  0  0
 18 39  1  0  0  0  0
 19 20  2  0  0  0  0
 19 40  1  0  0  0  0
 20 21  1  0  0  0  0
 20 41  1  0  0  0  0
 22 42  1  0  0  0  0
M  END
> <s_m_source_file>
AV-unprocessed.smi

> <i_m_source_file_index>
463

> <i_lp_mmshare_version>
43012

> <i_f3d_flags>
0

> <s_epik_input>
W0NIM11jMVtjSF1bY0hdW2NIXWMoW2NIXTEpT1tDSDJdW0NIMl1uKGMobjIpW0NIMl1bQ0gyXVtPSF0pYyhjMjMpW2NIXVtjSF1bY0hdW2NIXTM=

> <s_epik_cmdline>
J2VwaWtfcHl0aG9uJywgJy1waCcsICc3LjAnLCAnLXRuJywgJzgnLCAnLW1hJywgJzIwMCcsICctbWV0YWxfYmluZGluZycsICctaW1hZScsICc8aW5maWxlLm1hZT4nLCAnLW9tYWUnLCAnPG91dGZpbGUubWFlPic=

> <r_lp_tautomer_probability>
1

> <r_epik_Ionization_Penalty>
0.206757

> <r_epik_Ionization_Penalty_Charging>
0

> <r_epik_Ionization_Penalty_Neutral>
0.206757

> <r_epik_State_Penalty>
0.196743

> <r_epik_Charging_Adjusted_Penalty>
0.196743

> <i_epik_Tot_Q>
0

> <i_epik_Tot_abs_Q>
0

> <r_epik_Metal_State_Penalty>
0.000233299

> <b_epik_Metal_Only>
0

> <s_lp_Force_Field>
OPLS_2005

> <r_lp_Energy>
15.5684

> <b_lp_Chiralities_Consistent>
1

> <s_lp_Variant>
AV-unprocessed.smi:463-1

> <Gold.Version>
5.8.1

> <Gold.Id.Protein>
6NUR|6NUR_protein|mol2

> <Gold.PLP.Fitness>
48.0530

> <Gold.PLP.PLP>
-46.4919

> <Gold.PLP.part.hbond>
-1.0516

> <Gold.PLP.part.metal>
0.0000

> <Gold.PLP.part.buried>
-3.9886

> <Gold.PLP.part.nonpolar>
-41.4893

> <Gold.PLP.part.repulsive>
0.0419

> <Gold.PLP.ligand.clash>
0.0000

> <Gold.PLP.ligand.torsion>
0.7646

> <Gold.PLP.Chemscore.Hbond>
1.0000

> <Gold.PLP.Chemscore.CHOScore>
0.0000

> <Gold.PLP.Chemscore.Metal>
0.0000

> <Gold.Chemscore.Hbonds>
donor molecule, donor type, donor heavy atom, donor atom, acceptor molecule, acceptor atom, score
      P1  H  6896  6908       L1    14  0.45

> <Gold.PLP.Chemscore.Internal.Correction>
0.0903

> <Gold.Rescore>
     Score         DG    S(hbond)    S(metal)    S(lipo)     H(rot)  DE(clash)    DE(int)     intcor
     17.22     -18.08       0.88        0.00     132.58       2.28       0.08       0.79       ----

> <Gold.Chemscore.Fitness>
17.2179

> <Gold.Chemscore.DG>
-18.0810

> <Gold.Chemscore.ZeroCoef>
-5.4800

> <Gold.Chemscore.Hbond>
0.8776

> <Gold.Chemscore.Metal>
0.0000

> <Gold.Chemscore.Lipo>
132.5814

> <Gold.Chemscore.Internal_Hbond>
0.0000

> <Gold.Chemscore.DEClash>
0.0779

> <Gold.Chemscore.DEInternal>
0.7852

> <Gold.Chemscore.Rot>
2.2821

> <Gold.Chemscore.Internal.Correction>
   9.000000E+99

> <Gold.Chemscore.Hbonds>
donor molecule, donor type, donor heavy atom, donor atom, acceptor molecule, acceptor atom, score
      P1  H  6896  6908       L1    14  0.02

> <Gold.Chemscore.Hbond.Weighted>
-2.9311

> <Gold.Chemscore.Metal.Weighted>
-0.0000

> <Gold.Chemscore.Lipo.Weighted>
-15.5120

> <Gold.Chemscore.Internal_Hbond.Weighted>
0.0000

> <Gold.Chemscore.DEClash.Weighted>
0.0779

> <Gold.Chemscore.DEInternal.Weighted>
0.7852

> <Gold.Chemscore.Rot.Weighted>
5.8421

> <Gold.Chemscore.Internal.Correction.Weighted>
   9.000000E+99

> <Gold.Protein.RotatedTorsions>
[ 6907 6896 6895 6894 ] final -111.01 input  -60.11 | X-H torsion
[ 7974 7965 7964 7962 ] final   94.11 input  175.53 | X-H torsion
[ 8008 7997 7996 7995 ] final  122.96 input   59.86 | X-H torsion
[ 10167 10162 10161 10158 ] final  162.23 input  -65.29 | X-H torsion
[ 10718 10713 10712 10709 ] final  115.96 input   66.30 | X-H torsion
[ 10763 10752 10751 10750 ] final  -10.24 input  -60.55 | X-H torsion
[ 11005 11000 10999 10996 ] final  -79.81 input  -57.11 | X-H torsion

> <Gold.Protein.ActiveResidues>
 VAL166  LYS551  ARG553  GLY616  TRP617  ASP618  TYR619  PRO620  LYS621  CYS622 
 ASP623  PHE694  ASN695  SER759  ASP760  ASP761  ALA762  ILE779  LEU786  VAL792 
 PHE793  MET794  SER795  GLU796  ALA797  LYS798  CYS799  TRP800  GLU811  SER814 

> <Gold.Protein.RotatedAtoms>
  150.7662  133.9298  159.3423 H   0  0  0  0  0  0  0  0  0  0  0  0  # atno 6907 bound_to 6896
  151.7196  135.0895  160.0291 H   0  0  0  0  0  0  0  0  0  0  0  0  # atno 6908 bound_to 6896
  152.3658  133.6317  159.6085 H   0  0  0  0  0  0  0  0  0  0  0  0  # atno 6909 bound_to 6896
  145.4699  139.2282  143.2940 H   0  0  0  0  0  0  0  0  0  0  0  0  # atno 7974 bound_to 7965
  156.2748  140.2774  156.1551 H   0  0  0  0  0  0  0  0  0  0  0  0  # atno 8008 bound_to 7997
  155.0813  140.0388  157.2657 H   0  0  0  0  0  0  0  0  0  0  0  0  # atno 8009 bound_to 7997
  154.6962  140.2639  155.6769 H   0  0  0  0  0  0  0  0  0  0  0  0  # atno 8010 bound_to 7997
  139.4858  144.4458  151.8893 H   0  0  0  0  0  0  0  0  0  0  0  0  # atno 10167 bound_to 10162
  157.6190  131.1019  150.7405 H   0  0  0  0  0  0  0  0  0  0  0  0  # atno 10718 bound_to 10713
  153.4663  135.7016  153.6020 H   0  0  0  0  0  0  0  0  0  0  0  0  # atno 10763 bound_to 10752
  153.4293  135.3806  155.2161 H   0  0  0  0  0  0  0  0  0  0  0  0  # atno 10764 bound_to 10752
  154.8726  135.3947  154.4095 H   0  0  0  0  0  0  0  0  0  0  0  0  # atno 10765 bound_to 10752
  141.1667  133.7122  156.8178 H   0  0  0  0  0  0  0  0  0  0  0  0  # atno 11005 bound_to 11000
  146.2402  140.5476  142.8937 LP  0  0  0  0  0  0  0  0  0  0  0  0  # atno 17320 bound_to 7965
  144.7951  140.6107  143.6515 LP  0  0  0  0  0  0  0  0  0  0  0  0  # atno 17321 bound_to 7965
  140.3912  144.2613  150.5899 LP  0  0  0  0  0  0  0  0  0  0  0  0  # atno 17342 bound_to 10162
  140.5144  143.2282  151.8486 LP  0  0  0  0  0  0  0  0  0  0  0  0  # atno 17343 bound_to 10162
  156.7766  130.4846  149.5408 LP  0  0  0  0  0  0  0  0  0  0  0  0  # atno 17370 bound_to 10713
  156.1326  130.6188  151.0354 LP  0  0  0  0  0  0  0  0  0  0  0  0  # atno 17371 bound_to 10713
  140.2141  134.8806  157.3306 LP  0  0  0  0  0  0  0  0  0  0  0  0  # atno 17394 bound_to 11000
  140.2056  134.4201  155.7639 LP  0  0  0  0  0  0  0  0  0  0  0  0  # atno 17395 bound_to 11000

$$$$
