AV-unprocessed.smi:1348|AV-procd|sdf|5517|dock4
  -GOLD-   22720 5103D 1   1.00000     0.00000
 Structure written by MMmdl.
 31 32  0  0  0  0  0  0  0  0  1 V2000
  153.6843  140.5291  160.3679 C   0  0  0  0  0  0  0  0  0  0  0  0
  153.5667  142.0602  160.3532 C   0  0  0  0  0  0  0  0  0  0  0  0
  153.1161  142.6428  161.7003 C   0  0  0  0  0  0  0  0  0  0  0  0
  152.7216  142.5461  159.2181 C   0  0  0  0  0  0  0  0  0  0  0  0
  151.8561  141.7729  158.5557 N   0  0  0  0  0  0  0  0  0  0  0  0
  151.2028  142.4523  157.5221 C   0  0  0  0  0  0  0  0  0  0  0  0
  150.2102  141.7281  156.6588 C   0  0  0  0  0  0  0  0  0  0  0  0
  150.8864  140.5613  155.9353 C   0  0  0  0  0  0  0  0  0  0  0  0
  150.6682  140.3702  154.7390 O   0  0  0  0  0  0  0  0  0  0  0  0
  151.7004  139.7920  156.6742 N   0  0  0  0  0  0  0  0  0  0  0  0
  152.4419  138.6695  156.2004 C   0  0  0  0  0  0  0  0  0  0  0  0
  152.9040  138.6907  154.7593 C   0  0  0  0  0  0  0  0  0  0  0  0
  151.7809  137.7791  155.1707 C   0  0  0  0  0  0  0  0  0  0  0  0
  151.5762  143.7697  157.4223 C   0  0  0  0  0  0  0  0  0  0  0  0
  152.7735  144.1983  158.6129 S   0  0  0  0  0  0  0  0  0  0  0  0
  154.0852  140.1576  159.4243 H   0  0  0  0  0  0  0  0  0  0  0  0
  152.7137  140.0581  160.5258 H   0  0  0  0  0  0  0  0  0  0  0  0
  154.3496  140.1942  161.1640 H   0  0  0  0  0  0  0  0  0  0  0  0
  154.5717  142.4436  160.1731 H   0  0  0  0  0  0  0  0  0  0  0  0
  153.1241  143.7327  161.6781 H   0  0  0  0  0  0  0  0  0  0  0  0
  153.7768  142.3241  162.5069 H   0  0  0  0  0  0  0  0  0  0  0  0
  152.1052  142.3217  161.9532 H   0  0  0  0  0  0  0  0  0  0  0  0
  149.3794  141.3477  157.2544 H   0  0  0  0  0  0  0  0  0  0  0  0
  149.7759  142.4067  155.9234 H   0  0  0  0  0  0  0  0  0  0  0  0
  151.8163  140.0335  157.6481 H   0  0  0  0  0  0  0  0  0  0  0  0
  153.1056  138.1735  156.9073 H   0  0  0  0  0  0  0  0  0  0  0  0
  152.6490  139.5588  154.1544 H   0  0  0  0  0  0  0  0  0  0  0  0
  153.8651  138.2329  154.5342 H   0  0  0  0  0  0  0  0  0  0  0  0
  151.9920  136.7130  155.2214 H   0  0  0  0  0  0  0  0  0  0  0  0
  150.7762  138.0398  154.8426 H   0  0  0  0  0  0  0  0  0  0  0  0
  151.2257  144.5093  156.7176 H   0  0  0  0  0  0  0  0  0  0  0  0
  1  2  1  0  0  0  0
  1 16  1  0  0  0  0
  1 17  1  0  0  0  0
  1 18  1  0  0  0  0
  2  3  1  0  0  0  0
  2  4  1  0  0  0  0
  2 19  1  0  0  0  0
  3 20  1  0  0  0  0
  3 21  1  0  0  0  0
  3 22  1  0  0  0  0
  4 15  1  0  0  0  0
  4  5  2  0  0  0  0
  5  6  1  0  0  0  0
  6  7  1  0  0  0  0
  6 14  2  0  0  0  0
  7  8  1  0  0  0  0
  7 23  1  0  0  0  0
  7 24  1  0  0  0  0
  8  9  2  0  0  0  0
  8 10  1  0  0  0  0
 10 11  1  0  0  0  0
 10 25  1  0  0  0  0
 11 13  1  0  0  0  0
 11 12  1  0  0  0  0
 11 26  1  0  0  0  0
 12 13  1  0  0  0  0
 12 27  1  0  0  0  0
 12 28  1  0  0  0  0
 13 29  1  0  0  0  0
 13 30  1  0  0  0  0
 14 15  1  0  0  0  0
 14 31  1  0  0  0  0
M  END
> <s_m_source_file>
AV-unprocessed.smi

> <i_m_source_file_index>
1348

> <i_lp_mmshare_version>
43012

> <i_f3d_flags>
0

> <s_epik_input>
W0NIM11bQ0hdKFtDSDNdKWMxbmMoW2NIXXMxKVtDSDJdQyg9TylbTkhdW0NIXTJbQ0gyXVtDSDJdMg==

> <s_epik_cmdline>
J2VwaWtfcHl0aG9uJywgJy1waCcsICc3LjAnLCAnLXRuJywgJzgnLCAnLW1hJywgJzIwMCcsICctbWV0YWxfYmluZGluZycsICctaW1hZScsICc8aW5maWxlLm1hZT4nLCAnLW9tYWUnLCAnPG91dGZpbGUubWFlPic=

> <r_lp_tautomer_probability>
1

> <r_epik_Ionization_Penalty>
4.24015e-05

> <r_epik_Ionization_Penalty_Charging>
0

> <r_epik_Ionization_Penalty_Neutral>
4.24015e-05

> <r_epik_State_Penalty>
-0

> <r_epik_Charging_Adjusted_Penalty>
0

> <i_epik_Tot_Q>
0

> <i_epik_Tot_abs_Q>
0

> <r_epik_Metal_State_Penalty>
-0

> <b_epik_Metal_Only>
0

> <s_lp_Force_Field>
OPLS_2005

> <r_lp_Energy>
6.98318

> <b_lp_Chiralities_Consistent>
1

> <s_lp_Variant>
AV-unprocessed.smi:1348-1

> <Gold.Version>
5.8.1

> <Gold.Id.Protein>
6NUR|6NUR_protein|mol2

> <Gold.PLP.Fitness>
44.5080

> <Gold.PLP.PLP>
-40.2569

> <Gold.PLP.part.hbond>
-0.9819

> <Gold.PLP.part.metal>
0.0000

> <Gold.PLP.part.buried>
-4.2107

> <Gold.PLP.part.nonpolar>
-35.4352

> <Gold.PLP.part.repulsive>
0.2085

> <Gold.PLP.ligand.clash>
0.0000

> <Gold.PLP.ligand.torsion>
0.9160

> <Gold.PLP.Chemscore.Hbond>
1.0000

> <Gold.PLP.Chemscore.CHOScore>
0.9867

> <Gold.PLP.Chemscore.Metal>
0.0000

> <Gold.Chemscore.Hbonds>
donor molecule, donor type, donor heavy atom, donor atom, acceptor molecule, acceptor atom, score
      P1  H  7989  7998       L1     9  1.00
      L1  C    14    31       P1  8028  0.96

> <Gold.PLP.Chemscore.Internal.Correction>
0.1229

> <Gold.Rescore>
     Score         DG    S(hbond)    S(metal)    S(lipo)     H(rot)  DE(clash)    DE(int)     intcor
     14.40     -17.91       0.97        0.00     110.00       1.44       0.00       3.51       ----

> <Gold.Chemscore.Fitness>
14.4011

> <Gold.Chemscore.DG>
-17.9112

> <Gold.Chemscore.ZeroCoef>
-5.4800

> <Gold.Chemscore.Hbond>
0.9716

> <Gold.Chemscore.Metal>
0.0000

> <Gold.Chemscore.Lipo>
109.9975

> <Gold.Chemscore.Internal_Hbond>
0.0000

> <Gold.Chemscore.DEClash>
0.0000

> <Gold.Chemscore.DEInternal>
3.5101

> <Gold.Chemscore.Rot>
1.4390

> <Gold.Chemscore.Internal.Correction>
   9.000000E+99

> <Gold.Chemscore.Hbonds>
donor molecule, donor type, donor heavy atom, donor atom, acceptor molecule, acceptor atom, score
      P1  H  7989  7998       L1     9  0.98

> <Gold.Chemscore.Hbond.Weighted>
-3.2453

> <Gold.Chemscore.Metal.Weighted>
-0.0000

> <Gold.Chemscore.Lipo.Weighted>
-12.8697

> <Gold.Chemscore.Internal_Hbond.Weighted>
0.0000

> <Gold.Chemscore.DEClash.Weighted>
0.0000

> <Gold.Chemscore.DEInternal.Weighted>
3.5101

> <Gold.Chemscore.Rot.Weighted>
3.6838

> <Gold.Chemscore.Internal.Correction.Weighted>
   9.000000E+99

> <Gold.Protein.RotatedTorsions>
[ 6907 6896 6895 6894 ] final   34.02 input  -60.11 | X-H torsion
[ 7974 7965 7964 7962 ] final -164.35 input  175.53 | X-H torsion
[ 8008 7997 7996 7995 ] final   76.60 input   59.86 | X-H torsion
[ 10167 10162 10161 10158 ] final   77.41 input  -65.29 | X-H torsion
[ 10718 10713 10712 10709 ] final  170.49 input   66.30 | X-H torsion
[ 10763 10752 10751 10750 ] final  172.22 input  -60.55 | X-H torsion
[ 11005 11000 10999 10996 ] final  -55.28 input  -57.11 | X-H torsion

> <Gold.Protein.ActiveResidues>
 VAL166  LYS551  ARG553  GLY616  TRP617  ASP618  TYR619  PRO620  LYS621  CYS622 
 ASP623  PHE694  ASN695  SER759  ASP760  ASP761  ALA762  ILE779  LEU786  VAL792 
 PHE793  MET794  SER795  GLU796  ALA797  LYS798  CYS799  TRP800  GLU811  SER814 

> <Gold.Protein.RotatedAtoms>
  152.0966  134.9371  160.0570 H   0  0  0  0  0  0  0  0  0  0  0  0  # atno 6907 bound_to 6896
  152.0602  133.4053  159.4422 H   0  0  0  0  0  0  0  0  0  0  0  0  # atno 6908 bound_to 6896
  150.6838  134.3130  159.4798 H   0  0  0  0  0  0  0  0  0  0  0  0  # atno 6909 bound_to 6896
  144.7299  140.2973  143.6210 H   0  0  0  0  0  0  0  0  0  0  0  0  # atno 7974 bound_to 7965
  155.8297  140.3466  155.5564 H   0  0  0  0  0  0  0  0  0  0  0  0  # atno 8008 bound_to 7997
  155.8255  140.0919  157.1843 H   0  0  0  0  0  0  0  0  0  0  0  0  # atno 8009 bound_to 7997
  154.4004  140.1422  156.3539 H   0  0  0  0  0  0  0  0  0  0  0  0  # atno 8010 bound_to 7997
  139.9818  144.5821  150.7894 H   0  0  0  0  0  0  0  0  0  0  0  0  # atno 10167 bound_to 10162
  157.0074  131.0194  151.2813 H   0  0  0  0  0  0  0  0  0  0  0  0  # atno 10718 bound_to 10713
  154.4230  135.2758  155.1963 H   0  0  0  0  0  0  0  0  0  0  0  0  # atno 10763 bound_to 10752
  154.3900  135.6068  153.5841 H   0  0  0  0  0  0  0  0  0  0  0  0  # atno 10764 bound_to 10752
  152.9833  135.5901  154.4530 H   0  0  0  0  0  0  0  0  0  0  0  0  # atno 10765 bound_to 10752
  141.1066  133.6613  156.4446 H   0  0  0  0  0  0  0  0  0  0  0  0  # atno 11005 bound_to 11000
  145.7795  139.1886  143.2166 LP  0  0  0  0  0  0  0  0  0  0  0  0  # atno 17320 bound_to 7965
  146.0845  140.7726  142.9625 LP  0  0  0  0  0  0  0  0  0  0  0  0  # atno 17321 bound_to 7965
  140.7486  143.2925  151.3292 LP  0  0  0  0  0  0  0  0  0  0  0  0  # atno 17342 bound_to 10162
  139.6404  144.0550  152.2550 LP  0  0  0  0  0  0  0  0  0  0  0  0  # atno 17343 bound_to 10162
  157.5345  130.8080  149.7956 LP  0  0  0  0  0  0  0  0  0  0  0  0  # atno 17370 bound_to 10713
  156.0148  130.3818  150.2145 LP  0  0  0  0  0  0  0  0  0  0  0  0  # atno 17371 bound_to 10713
  140.4885  134.6597  157.5201 LP  0  0  0  0  0  0  0  0  0  0  0  0  # atno 17394 bound_to 11000
  139.9939  134.6941  155.9642 LP  0  0  0  0  0  0  0  0  0  0  0  0  # atno 17395 bound_to 11000

$$$$
