AV-unprocessed.smi:740|AV-procd|sdf|3548|dock5
  -GOLD-   22720 0543D 1   1.00000     0.00000
 Structure written by MMmdl.
 44 46  0  0  0  0  0  0  0  0  1 V2000
  153.3601  142.5628  161.5884 C   0  0  0  0  0  0  0  0  0  0  0  0
  152.6853  142.2625  160.2615 C   0  0  0  0  0  0  0  0  0  0  0  0
  153.0291  141.0804  159.5679 C   0  0  0  0  0  0  0  0  0  0  0  0
  152.4272  140.7658  158.3299 C   0  0  0  0  0  0  0  0  0  0  0  0
  152.6131  139.6804  157.4908 N   0  0  0  0  0  0  0  0  0  0  0  0
  151.7726  139.9617  156.4995 C   0  0  0  0  0  0  0  0  0  0  0  0
  151.0614  141.1012  156.5981 N   0  0  0  0  0  0  0  0  0  0  0  0
  150.0938  141.6092  155.6420 C   0  0  0  0  0  0  0  0  0  0  0  0
  149.6026  140.5206  154.6685 C   0  0  2  0  0  0  0  0  0  0  0  0
  149.4205  141.1032  153.3921 O   0  0  0  0  0  0  0  0  0  0  0  0
  148.2655  139.9038  155.1287 C   0  0  0  0  0  0  0  0  0  0  0  0
  147.3676  140.9112  155.7046 N   0  0  0  0  0  0  0  0  0  0  0  0
  147.0130  140.9497  156.9964 C   0  0  0  0  0  0  0  0  0  0  0  0
  147.3879  140.1771  157.8780 O   0  0  0  0  0  0  0  0  0  0  0  0
  146.0485  142.0965  157.2642 C   0  0  0  0  0  0  0  0  0  0  0  0
  145.8765  142.7433  155.8815 C   0  0  2  0  0  0  0  0  0  0  0  0
  144.4222  142.7616  155.3828 C   0  0  0  0  0  0  0  0  0  0  0  0
  146.7699  141.8783  154.9944 C   0  0  0  0  0  0  0  0  0  0  0  0
  146.8962  142.0741  153.7856 O   0  0  0  0  0  0  0  0  0  0  0  0
  151.4624  141.6724  157.8012 C   0  0  0  0  0  0  0  0  0  0  0  0
  151.1114  142.8514  158.4823 C   0  0  0  0  0  0  0  0  0  0  0  0
  151.7241  143.1516  159.7170 C   0  0  0  0  0  0  0  0  0  0  0  0
  151.3414  144.4294  160.4425 C   0  0  0  0  0  0  0  0  0  0  0  0
  154.0420  141.7630  161.8786 H   0  0  0  0  0  0  0  0  0  0  0  0
  152.6183  142.6724  162.3797 H   0  0  0  0  0  0  0  0  0  0  0  0
  153.9357  143.4864  161.5223 H   0  0  0  0  0  0  0  0  0  0  0  0
  153.7620  140.4035  159.9816 H   0  0  0  0  0  0  0  0  0  0  0  0
  151.6677  139.3023  155.6502 H   0  0  0  0  0  0  0  0  0  0  0  0
  149.2517  142.0195  156.2012 H   0  0  0  0  0  0  0  0  0  0  0  0
  150.5398  142.4423  155.0972 H   0  0  0  0  0  0  0  0  0  0  0  0
  150.3684  139.7472  154.5930 H   0  0  0  0  0  0  0  0  0  0  0  0
  149.3290  140.4114  152.7549 H   0  0  0  0  0  0  0  0  0  0  0  0
  147.7596  139.4527  154.2730 H   0  0  0  0  0  0  0  0  0  0  0  0
  148.4382  139.0791  155.8228 H   0  0  0  0  0  0  0  0  0  0  0  0
  145.1108  141.7108  157.6656 H   0  0  0  0  0  0  0  0  0  0  0  0
  146.4754  142.7923  157.9872 H   0  0  0  0  0  0  0  0  0  0  0  0
  146.2754  143.7585  155.8924 H   0  0  0  0  0  0  0  0  0  0  0  0
  144.3484  143.2181  154.3951 H   0  0  0  0  0  0  0  0  0  0  0  0
  143.7884  143.3372  156.0576 H   0  0  0  0  0  0  0  0  0  0  0  0
  144.0077  141.7547  155.3169 H   0  0  0  0  0  0  0  0  0  0  0  0
  150.3793  143.5208  158.0555 H   0  0  0  0  0  0  0  0  0  0  0  0
  150.6073  145.0034  159.8761 H   0  0  0  0  0  0  0  0  0  0  0  0
  152.2170  145.0617  160.5915 H   0  0  0  0  0  0  0  0  0  0  0  0
  150.9084  144.2005  161.4163 H   0  0  0  0  0  0  0  0  0  0  0  0
  1  2  1  0  0  0  0
  1 24  1  0  0  0  0
  1 25  1  0  0  0  0
  1 26  1  0  0  0  0
  2 22  1  0  0  0  0
  2  3  2  0  0  0  0
  3  4  1  0  0  0  0
  3 27  1  0  0  0  0
  4 20  2  0  0  0  0
  4  5  1  0  0  0  0
  5  6  2  0  0  0  0
  6  7  1  0  0  0  0
  6 28  1  0  0  0  0
  7  8  1  0  0  0  0
  7 20  1  0  0  0  0
  8  9  1  0  0  0  0
  8 29  1  0  0  0  0
  8 30  1  0  0  0  0
  9 10  1  0  0  0  0
  9 11  1  0  0  0  0
  9 31  1  0  0  0  0
 10 32  1  0  0  0  0
 11 12  1  0  0  0  0
 11 33  1  0  0  0  0
 11 34  1  0  0  0  0
 12 18  1  0  0  0  0
 12 13  1  0  0  0  0
 13 14  2  0  0  0  0
 13 15  1  0  0  0  0
 15 16  1  0  0  0  0
 15 35  1  0  0  0  0
 15 36  1  0  0  0  0
 16 17  1  0  0  0  0
 16 18  1  0  0  0  0
 16 37  1  0  0  0  0
 17 38  1  0  0  0  0
 17 39  1  0  0  0  0
 17 40  1  0  0  0  0
 18 19  2  0  0  0  0
 20 21  1  0  0  0  0
 21 22  2  0  0  0  0
 21 41  1  0  0  0  0
 22 23  1  0  0  0  0
 23 42  1  0  0  0  0
 23 43  1  0  0  0  0
 23 44  1  0  0  0  0
M  END
> <s_m_source_file>
AV-unprocessed.smi

> <i_m_source_file_index>
740

> <i_lp_mmshare_version>
43012

> <i_f3d_flags>
0

> <s_epik_input>
W0NIM11jKFtjSF0xKWMoW0NIM10pW2NIXWMoYzEyKW4oW2NIXW4yKVtDSDJdW0NASF0oW09IXSlbQ0gyXU4zQyg9TylbQ0gyXVtDQEBIXShbQ0gzXSlDMz1P

> <s_epik_cmdline>
J2VwaWtfcHl0aG9uJywgJy1waCcsICc3LjAnLCAnLXRuJywgJzgnLCAnLW1hJywgJzIwMCcsICctbWV0YWxfYmluZGluZycsICctaW1hZScsICc8aW5maWxlLm1hZT4nLCAnLW9tYWUnLCAnPG91dGZpbGUubWFlPic=

> <r_lp_tautomer_probability>
1

> <r_epik_Ionization_Penalty>
0.104021

> <r_epik_Ionization_Penalty_Charging>
0

> <r_epik_Ionization_Penalty_Neutral>
0.104021

> <r_epik_State_Penalty>
0.0939354

> <r_epik_Charging_Adjusted_Penalty>
0.0939354

> <i_epik_Tot_Q>
0

> <i_epik_Tot_abs_Q>
0

> <r_epik_Metal_State_Penalty>
0.000101783

> <b_epik_Metal_Only>
0

> <s_lp_Force_Field>
OPLS_2005

> <r_lp_Energy>
16.7866

> <b_lp_Chiralities_Consistent>
1

> <s_lp_Variant>
AV-unprocessed.smi:740-3

> <Gold.Version>
5.8.1

> <Gold.Id.Protein>
6NUR|6NUR_protein|mol2

> <Gold.PLP.Fitness>
50.9319

> <Gold.PLP.PLP>
-44.4841

> <Gold.PLP.part.hbond>
-4.5209

> <Gold.PLP.part.metal>
0.0000

> <Gold.PLP.part.buried>
-6.0476

> <Gold.PLP.part.nonpolar>
-33.6012

> <Gold.PLP.part.repulsive>
0.1864

> <Gold.PLP.ligand.clash>
0.0000

> <Gold.PLP.ligand.torsion>
1.0306

> <Gold.PLP.Chemscore.Hbond>
2.8320

> <Gold.PLP.Chemscore.CHOScore>
0.0000

> <Gold.PLP.Chemscore.Metal>
0.0000

> <Gold.Chemscore.Hbonds>
donor molecule, donor type, donor heavy atom, donor atom, acceptor molecule, acceptor atom, score
      L1  H    10    32       P1  7957  0.85
      P1  H  7997  8009       L1     5  1.00
      P1  H  8011  8017       L1    10  0.95

> <Gold.PLP.Chemscore.Internal.Correction>
0.0130

> <Gold.Rescore>
     Score         DG    S(hbond)    S(metal)    S(lipo)     H(rot)  DE(clash)    DE(int)     intcor
     14.52     -17.27       1.72        0.00     102.44       2.31       0.15       2.60       ----

> <Gold.Chemscore.Fitness>
14.5193

> <Gold.Chemscore.DG>
-17.2712

> <Gold.Chemscore.ZeroCoef>
-5.4800

> <Gold.Chemscore.Hbond>
1.7158

> <Gold.Chemscore.Metal>
0.0000

> <Gold.Chemscore.Lipo>
102.4437

> <Gold.Chemscore.Internal_Hbond>
0.0000

> <Gold.Chemscore.DEClash>
0.1500

> <Gold.Chemscore.DEInternal>
2.6019

> <Gold.Chemscore.Rot>
2.3147

> <Gold.Chemscore.Internal.Correction>
   9.000000E+99

> <Gold.Chemscore.Hbonds>
donor molecule, donor type, donor heavy atom, donor atom, acceptor molecule, acceptor atom, score
      L1  H    10    32       P1  7957  0.83
      P1  H  7997  8009       L1     5  0.13
      P1  H  8011  8017       L1    10  0.21

> <Gold.Chemscore.Hbond.Weighted>
-5.7308

> <Gold.Chemscore.Metal.Weighted>
-0.0000

> <Gold.Chemscore.Lipo.Weighted>
-11.9859

> <Gold.Chemscore.Internal_Hbond.Weighted>
0.0000

> <Gold.Chemscore.DEClash.Weighted>
0.1500

> <Gold.Chemscore.DEInternal.Weighted>
2.6019

> <Gold.Chemscore.Rot.Weighted>
5.9256

> <Gold.Chemscore.Internal.Correction.Weighted>
   9.000000E+99

> <Gold.Protein.RotatedTorsions>
[ 6907 6896 6895 6894 ] final  179.08 input  -60.11 | X-H torsion
[ 7974 7965 7964 7962 ] final  153.63 input  175.53 | X-H torsion
[ 8008 7997 7996 7995 ] final  175.95 input   59.86 | X-H torsion
[ 10167 10162 10161 10158 ] final   22.70 input  -65.29 | X-H torsion
[ 10718 10713 10712 10709 ] final  115.48 input   66.30 | X-H torsion
[ 10763 10752 10751 10750 ] final  170.50 input  -60.55 | X-H torsion
[ 11005 11000 10999 10996 ] final -101.94 input  -57.11 | X-H torsion

> <Gold.Protein.ActiveResidues>
 VAL166  LYS551  ARG553  GLY616  TRP617  ASP618  TYR619  PRO620  LYS621  CYS622 
 ASP623  PHE694  ASN695  SER759  ASP760  ASP761  ALA762  ILE779  LEU786  VAL792 
 PHE793  MET794  SER795  GLU796  ALA797  LYS798  CYS799  TRP800  GLU811  SER814 

> <Gold.Protein.RotatedAtoms>
  151.6774  133.3312  159.3210 H   0  0  0  0  0  0  0  0  0  0  0  0  # atno 6907 bound_to 6896
  150.7839  134.6810  159.6453 H   0  0  0  0  0  0  0  0  0  0  0  0  # atno 6908 bound_to 6896
  152.3904  134.6454  160.0162 H   0  0  0  0  0  0  0  0  0  0  0  0  # atno 6909 bound_to 6896
  144.8142  139.6825  143.6128 H   0  0  0  0  0  0  0  0  0  0  0  0  # atno 7974 bound_to 7965
  156.0816  140.1396  156.9705 H   0  0  0  0  0  0  0  0  0  0  0  0  # atno 8008 bound_to 7997
  154.4588  140.0951  156.6885 H   0  0  0  0  0  0  0  0  0  0  0  0  # atno 8009 bound_to 7997
  155.5066  140.3452  155.4383 H   0  0  0  0  0  0  0  0  0  0  0  0  # atno 8010 bound_to 7997
  140.5328  143.9812  150.6475 H   0  0  0  0  0  0  0  0  0  0  0  0  # atno 10167 bound_to 10162
  157.6219  131.1013  150.7336 H   0  0  0  0  0  0  0  0  0  0  0  0  # atno 10718 bound_to 10713
  154.3985  135.2754  155.2111 H   0  0  0  0  0  0  0  0  0  0  0  0  # atno 10763 bound_to 10752
  154.4147  135.6014  153.5977 H   0  0  0  0  0  0  0  0  0  0  0  0  # atno 10764 bound_to 10752
  152.9831  135.5958  154.4250 H   0  0  0  0  0  0  0  0  0  0  0  0  # atno 10765 bound_to 10752
  141.1210  133.8518  157.1296 H   0  0  0  0  0  0  0  0  0  0  0  0  # atno 11005 bound_to 11000
  146.2444  139.6067  142.9470 LP  0  0  0  0  0  0  0  0  0  0  0  0  # atno 17320 bound_to 7965
  145.5253  141.0430  143.2413 LP  0  0  0  0  0  0  0  0  0  0  0  0  # atno 17321 bound_to 7965
  140.3192  143.3148  152.0801 LP  0  0  0  0  0  0  0  0  0  0  0  0  # atno 17342 bound_to 10162
  139.4960  144.6585  151.6518 LP  0  0  0  0  0  0  0  0  0  0  0  0  # atno 17343 bound_to 10162
  156.7691  130.4823  149.5422 LP  0  0  0  0  0  0  0  0  0  0  0  0  # atno 17370 bound_to 10713
  156.1369  130.6218  151.0413 LP  0  0  0  0  0  0  0  0  0  0  0  0  # atno 17371 bound_to 10713
  140.0167  134.9964  157.0509 LP  0  0  0  0  0  0  0  0  0  0  0  0  # atno 17394 bound_to 11000
  140.4507  134.1585  155.7181 LP  0  0  0  0  0  0  0  0  0  0  0  0  # atno 17395 bound_to 11000

$$$$
