AV-unprocessed.smi:3205|AV-procd|sdf|12254|dock3
  -GOLD-   2272018 93D 1   1.00000     0.00000
 Structure written by MMmdl.
 38 39  0  0  0  0  0  0  0  0  2 V2000
  152.0929  144.5548  157.9280 C   0  0  0  0  0  0  0  0  0  0  0  0
  151.3276  143.2487  158.2229 C   0  0  2  0  0  0  0  0  0  0  0  0
  149.8691  143.5114  158.2154 N   0  3  0  0  0  0  0  0  0  0  0  0
  149.0066  142.3150  158.1197 C   0  0  0  0  0  0  0  0  0  0  0  0
  147.5440  142.6718  158.4231 C   0  0  0  0  0  0  0  0  0  0  0  0
  147.4326  143.6431  159.4945 N   0  0  0  0  0  0  0  0  0  0  0  0
  146.3761  144.4797  159.7879 C   0  0  0  0  0  0  0  0  0  0  0  0
  146.7363  145.2219  160.8760 C   0  0  0  0  0  0  0  0  0  0  0  0
  148.0497  144.7654  161.1774 C   0  0  0  0  0  0  0  0  0  0  0  0
  148.4650  143.8228  160.3463 N   0  0  0  0  0  0  0  0  0  0  0  0
  151.7356  142.6054  159.5754 C   0  0  0  0  0  0  0  0  0  0  0  0
  151.8380  143.6283  160.7270 C   0  0  0  0  0  0  0  0  0  0  0  0
  152.3356  142.9669  162.0231 C   0  0  0  0  0  0  0  0  0  0  0  0
  153.5909  142.3381  161.7996 O   0  0  0  0  0  0  0  0  0  0  0  0
  153.5163  141.2947  160.8371 C   0  0  0  0  0  0  0  0  0  0  0  0
  153.0898  141.8695  159.4770 C   0  0  0  0  0  0  0  0  0  0  0  0
  153.1623  144.3793  157.8150 H   0  0  0  0  0  0  0  0  0  0  0  0
  151.9559  145.2838  158.7274 H   0  0  0  0  0  0  0  0  0  0  0  0
  151.7630  145.0183  156.9989 H   0  0  0  0  0  0  0  0  0  0  0  0
  151.5493  142.5317  157.4307 H   0  0  0  0  0  0  0  0  0  0  0  0
  149.6423  143.9670  159.0880 H   0  0  0  0  0  0  0  0  0  0  0  0
  149.0795  141.8811  157.1225 H   0  0  0  0  0  0  0  0  0  0  0  0
  149.3603  141.5628  158.8263 H   0  0  0  0  0  0  0  0  0  0  0  0
  147.0572  143.0801  157.5363 H   0  0  0  0  0  0  0  0  0  0  0  0
  146.9872  141.7778  158.7075 H   0  0  0  0  0  0  0  0  0  0  0  0
  145.4663  144.4783  159.2057 H   0  0  0  0  0  0  0  0  0  0  0  0
  146.1517  145.9778  161.3790 H   0  0  0  0  0  0  0  0  0  0  0  0
  148.7092  145.0898  161.9687 H   0  0  0  0  0  0  0  0  0  0  0  0
  150.9731  141.8739  159.8488 H   0  0  0  0  0  0  0  0  0  0  0  0
  152.5183  144.4343  160.4483 H   0  0  0  0  0  0  0  0  0  0  0  0
  150.8709  144.0887  160.9263 H   0  0  0  0  0  0  0  0  0  0  0  0
  152.4539  143.7179  162.8044 H   0  0  0  0  0  0  0  0  0  0  0  0
  151.6112  142.2384  162.3910 H   0  0  0  0  0  0  0  0  0  0  0  0
  154.4958  140.8238  160.7537 H   0  0  0  0  0  0  0  0  0  0  0  0
  152.8199  140.5240  161.1708 H   0  0  0  0  0  0  0  0  0  0  0  0
  153.0397  141.0568  158.7521 H   0  0  0  0  0  0  0  0  0  0  0  0
  153.8592  142.5559  159.1209 H   0  0  0  0  0  0  0  0  0  0  0  0
  149.6525  144.1452  157.4593 H   0  0  0  0  0  0  0  0  0  0  0  0
  1  2  1  0  0  0  0
  1 17  1  0  0  0  0
  1 18  1  0  0  0  0
  1 19  1  0  0  0  0
  2  3  1  0  0  0  0
  2 11  1  0  0  0  0
  2 20  1  0  0  0  0
  3  4  1  0  0  0  0
  3 21  1  0  0  0  0
  3 38  1  0  0  0  0
  4  5  1  0  0  0  0
  4 22  1  0  0  0  0
  4 23  1  0  0  0  0
  5  6  1  0  0  0  0
  5 24  1  0  0  0  0
  5 25  1  0  0  0  0
  6 10  1  0  0  0  0
  6  7  1  0  0  0  0
  7  8  2  0  0  0  0
  7 26  1  0  0  0  0
  8  9  1  0  0  0  0
  8 27  1  0  0  0  0
  9 10  2  0  0  0  0
  9 28  1  0  0  0  0
 11 16  1  0  0  0  0
 11 12  1  0  0  0  0
 11 29  1  0  0  0  0
 12 13  1  0  0  0  0
 12 30  1  0  0  0  0
 12 31  1  0  0  0  0
 13 14  1  0  0  0  0
 13 32  1  0  0  0  0
 13 33  1  0  0  0  0
 14 15  1  0  0  0  0
 15 16  1  0  0  0  0
 15 34  1  0  0  0  0
 15 35  1  0  0  0  0
 16 36  1  0  0  0  0
 16 37  1  0  0  0  0
M  CHG  1   3   1
M  END
> <s_m_source_file>
AV-unprocessed.smi

> <i_m_source_file_index>
3205

> <i_lp_mmshare_version>
43012

> <i_f3d_flags>
0

> <s_epik_input>
W0NIMl0xW0NIMl1PW0NIMl1bQ0gyXVtDSF0xW0NASF0oW0NIM10pW05IXVtDSDJdW0NIMl1uMltjSF1bY0hdW2NIXW4y

> <s_epik_cmdline>
J2VwaWtfcHl0aG9uJywgJy1waCcsICc3LjAnLCAnLXRuJywgJzgnLCAnLW1hJywgJzIwMCcsICctbWV0YWxfYmluZGluZycsICctaW1hZScsICc8aW5maWxlLm1hZT4nLCAnLW9tYWUnLCAnPG91dGZpbGUubWFlPic=

> <r_lp_tautomer_probability>
1

> <r_epik_Ionization_Penalty>
0.00310903

> <r_epik_Ionization_Penalty_Charging>
0.00310601

> <r_epik_Ionization_Penalty_Neutral>
3.02836e-06

> <r_epik_State_Penalty>
-0

> <r_epik_Charging_Adjusted_Penalty>
0.00310601

> <i_epik_Tot_Q>
1

> <i_epik_Tot_abs_Q>
1

> <r_epik_Metal_State_Penalty>
-0

> <b_epik_Metal_Only>
0

> <s_lp_Force_Field>
OPLS_2005

> <r_lp_Energy>
15.8656

> <b_lp_Chiralities_Consistent>
1

> <s_lp_Variant>
AV-unprocessed.smi:3205-1

> <Gold.Version>
5.8.1

> <Gold.Id.Protein>
6NUR|6NUR_protein|mol2

> <Gold.PLP.Fitness>
46.0290

> <Gold.PLP.PLP>
-39.0327

> <Gold.PLP.part.hbond>
-2.7571

> <Gold.PLP.part.metal>
0.0000

> <Gold.PLP.part.buried>
-3.8678

> <Gold.PLP.part.nonpolar>
-32.0970

> <Gold.PLP.part.repulsive>
0.2114

> <Gold.PLP.ligand.clash>
0.0000

> <Gold.PLP.ligand.torsion>
0.8228

> <Gold.PLP.Chemscore.Hbond>
2.8640

> <Gold.PLP.Chemscore.CHOScore>
0.0000

> <Gold.PLP.Chemscore.Metal>
0.0000

> <Gold.Chemscore.Hbonds>
donor molecule, donor type, donor heavy atom, donor atom, acceptor molecule, acceptor atom, score
      L1  H     3    38       P1  8028  2.00
      P1  H  6933  6944       L1    10  0.91

> <Gold.PLP.Chemscore.Internal.Correction>
0.0498

> <Gold.Rescore>
     Score         DG    S(hbond)    S(metal)    S(lipo)     H(rot)  DE(clash)    DE(int)     intcor
     14.97     -17.42       1.59        0.00      93.00       1.66       0.61       1.83       ----

> <Gold.Chemscore.Fitness>
14.9698

> <Gold.Chemscore.DG>
-17.4160

> <Gold.Chemscore.ZeroCoef>
-5.4800

> <Gold.Chemscore.Hbond>
1.5876

> <Gold.Chemscore.Metal>
0.0000

> <Gold.Chemscore.Lipo>
93.0044

> <Gold.Chemscore.Internal_Hbond>
0.0000

> <Gold.Chemscore.DEClash>
0.6130

> <Gold.Chemscore.DEInternal>
1.8332

> <Gold.Chemscore.Rot>
1.6594

> <Gold.Chemscore.Internal.Correction>
   9.000000E+99

> <Gold.Chemscore.Hbonds>
donor molecule, donor type, donor heavy atom, donor atom, acceptor molecule, acceptor atom, score
      L1  H     3    38       P1  8028  0.28
      P1  H  6933  6944       L1    10  0.18

> <Gold.Chemscore.Hbond.Weighted>
-5.3026

> <Gold.Chemscore.Metal.Weighted>
-0.0000

> <Gold.Chemscore.Lipo.Weighted>
-10.8815

> <Gold.Chemscore.Internal_Hbond.Weighted>
0.0000

> <Gold.Chemscore.DEClash.Weighted>
0.6130

> <Gold.Chemscore.DEInternal.Weighted>
1.8332

> <Gold.Chemscore.Rot.Weighted>
4.2482

> <Gold.Chemscore.Internal.Correction.Weighted>
   9.000000E+99

> <Gold.Protein.RotatedTorsions>
[ 6907 6896 6895 6894 ] final   -0.31 input  -60.11 | X-H torsion
[ 7974 7965 7964 7962 ] final    1.84 input  175.53 | X-H torsion
[ 8008 7997 7996 7995 ] final   63.11 input   59.86 | X-H torsion
[ 10167 10162 10161 10158 ] final  165.65 input  -65.29 | X-H torsion
[ 10718 10713 10712 10709 ] final -154.04 input   66.30 | X-H torsion
[ 10763 10752 10751 10750 ] final  -96.18 input  -60.55 | X-H torsion
[ 11005 11000 10999 10996 ] final -125.25 input  -57.11 | X-H torsion

> <Gold.Protein.ActiveResidues>
 VAL166  LYS551  ARG553  GLY616  TRP617  ASP618  TYR619  PRO620  LYS621  CYS622 
 ASP623  PHE694  ASN695  SER759  ASP760  ASP761  ALA762  ILE779  LEU786  VAL792 
 PHE793  MET794  SER795  GLU796  ALA797  LYS798  CYS799  TRP800  GLU811  SER814 

> <Gold.Protein.RotatedAtoms>
  151.5643  135.1064  159.9979 H   0  0  0  0  0  0  0  0  0  0  0  0  # atno 6907 bound_to 6896
  152.4431  133.7482  159.6689 H   0  0  0  0  0  0  0  0  0  0  0  0  # atno 6908 bound_to 6896
  150.8341  133.7974  159.3110 H   0  0  0  0  0  0  0  0  0  0  0  0  # atno 6909 bound_to 6896
  146.2442  140.0926  142.8351 H   0  0  0  0  0  0  0  0  0  0  0  0  # atno 7974 bound_to 7965
  155.6250  140.3496  155.4664 H   0  0  0  0  0  0  0  0  0  0  0  0  # atno 8008 bound_to 7997
  156.0049  140.1221  157.0535 H   0  0  0  0  0  0  0  0  0  0  0  0  # atno 8009 bound_to 7997
  154.4261  140.1093  156.5735 H   0  0  0  0  0  0  0  0  0  0  0  0  # atno 8010 bound_to 7997
  139.4910  144.4109  151.9300 H   0  0  0  0  0  0  0  0  0  0  0  0  # atno 10167 bound_to 10162
  156.4939  130.8360  151.2582 H   0  0  0  0  0  0  0  0  0  0  0  0  # atno 10718 bound_to 10713
  154.7216  135.5093  153.8821 H   0  0  0  0  0  0  0  0  0  0  0  0  # atno 10763 bound_to 10752
  153.0867  135.6647  153.9943 H   0  0  0  0  0  0  0  0  0  0  0  0  # atno 10764 bound_to 10752
  153.9765  135.3033  155.3403 H   0  0  0  0  0  0  0  0  0  0  0  0  # atno 10765 bound_to 10752
  140.9777  134.0717  157.3800 H   0  0  0  0  0  0  0  0  0  0  0  0  # atno 11005 bound_to 11000
  145.0637  140.9106  143.4923 LP  0  0  0  0  0  0  0  0  0  0  0  0  # atno 17320 bound_to 7965
  145.1047  139.2798  143.5668 LP  0  0  0  0  0  0  0  0  0  0  0  0  # atno 17321 bound_to 7965
  140.3551  144.3042  150.5942 LP  0  0  0  0  0  0  0  0  0  0  0  0  # atno 17342 bound_to 10162
  140.5452  143.2216  151.8019 LP  0  0  0  0  0  0  0  0  0  0  0  0  # atno 17343 bound_to 10162
  157.7471  131.0004  150.2925 LP  0  0  0  0  0  0  0  0  0  0  0  0  # atno 17370 bound_to 10713
  156.3399  130.3814  149.7418 LP  0  0  0  0  0  0  0  0  0  0  0  0  # atno 17371 bound_to 10713
  139.8937  135.0132  156.6913 LP  0  0  0  0  0  0  0  0  0  0  0  0  # atno 17394 bound_to 11000
  140.7234  133.9121  155.8162 LP  0  0  0  0  0  0  0  0  0  0  0  0  # atno 17395 bound_to 11000

$$$$
