AV-unprocessed.smi:1559|AV-procd|sdf|6274|dock2
  -GOLD-   22720 6463D 1   1.00000     0.00000
 Structure written by MMmdl.
 51 52  0  0  0  0  0  0  0  0  2 V2000
  146.9416  133.6152  153.5262 C   0  0  0  0  0  0  0  0  0  0  0  0
  146.7502  134.3001  152.2214 N   0  3  0  0  0  0  0  0  0  0  0  0
  146.7993  133.3183  151.1071 C   0  0  0  0  0  0  0  0  0  0  0  0
  145.6077  135.2810  152.1606 C   0  0  0  0  0  0  0  0  0  0  0  0
  145.5450  135.9995  150.7923 C   0  0  0  0  0  0  0  0  0  0  0  0
  144.2555  134.5555  152.3712 C   0  0  0  0  0  0  0  0  0  0  0  0
  145.7520  136.3604  153.2742 C   0  0  0  0  0  0  0  0  0  0  0  0
  147.1236  136.8344  153.4643 N   0  0  0  0  0  0  0  0  0  0  0  0
  147.5092  137.7751  154.3382 C   0  0  0  0  0  0  0  0  0  0  0  0
  146.7356  138.3454  155.1063 O   0  0  0  0  0  0  0  0  0  0  0  0
  148.8288  138.0113  154.2467 N   0  0  0  0  0  0  0  0  0  0  0  0
  149.6185  138.9118  155.0113 C   0  0  0  0  0  0  0  0  0  0  0  0
  150.9857  139.1782  154.7676 C   0  0  0  0  0  0  0  0  0  0  0  0
  151.6563  140.1064  155.5867 C   0  0  0  0  0  0  0  0  0  0  0  0
  150.9464  140.7562  156.6240 C   0  0  0  0  0  0  0  0  0  0  0  0
  151.6009  141.6889  157.4577 N   0  0  0  0  0  0  0  0  0  0  0  0
  151.9050  141.2873  158.8301 C   0  0  0  0  0  0  0  0  0  0  0  0
  152.8643  142.2961  159.4838 C   0  0  0  0  0  0  0  0  0  0  0  0
  152.3101  143.6050  159.4048 O   0  0  0  0  0  0  0  0  0  0  0  0
  152.1252  144.0201  158.0557 C   0  0  0  0  0  0  0  0  0  0  0  0
  151.1422  143.0716  157.3476 C   0  0  0  0  0  0  0  0  0  0  0  0
  149.6332  140.5043  156.8478 N   0  0  0  0  0  0  0  0  0  0  0  0
  148.9940  139.6149  156.0603 C   0  0  0  0  0  0  0  0  0  0  0  0
  146.0624  133.0368  153.8103 H   0  0  0  0  0  0  0  0  0  0  0  0
  147.1719  134.3169  154.3268 H   0  0  0  0  0  0  0  0  0  0  0  0
  147.7860  132.9268  153.4754 H   0  0  0  0  0  0  0  0  0  0  0  0
  145.9843  132.5971  151.1726 H   0  0  0  0  0  0  0  0  0  0  0  0
  147.7341  132.7579  151.1417 H   0  0  0  0  0  0  0  0  0  0  0  0
  146.7607  133.7951  150.1292 H   0  0  0  0  0  0  0  0  0  0  0  0
  144.6901  136.6754  150.7478 H   0  0  0  0  0  0  0  0  0  0  0  0
  145.4386  135.2985  149.9648 H   0  0  0  0  0  0  0  0  0  0  0  0
  146.4312  136.6048  150.6020 H   0  0  0  0  0  0  0  0  0  0  0  0
  143.4385  135.2676  152.4942 H   0  0  0  0  0  0  0  0  0  0  0  0
  144.2684  133.9201  153.2572 H   0  0  0  0  0  0  0  0  0  0  0  0
  143.9878  133.9286  151.5203 H   0  0  0  0  0  0  0  0  0  0  0  0
  145.1458  137.2347  153.0369 H   0  0  0  0  0  0  0  0  0  0  0  0
  145.3420  135.9936  154.2173 H   0  0  0  0  0  0  0  0  0  0  0  0
  147.8287  136.4366  152.8612 H   0  0  0  0  0  0  0  0  0  0  0  0
  149.3181  137.5327  153.5045 H   0  0  0  0  0  0  0  0  0  0  0  0
  151.5302  138.7008  153.9678 H   0  0  0  0  0  0  0  0  0  0  0  0
  152.7052  140.2983  155.4174 H   0  0  0  0  0  0  0  0  0  0  0  0
  150.9785  141.2288  159.4026 H   0  0  0  0  0  0  0  0  0  0  0  0
  152.3603  140.2961  158.8425 H   0  0  0  0  0  0  0  0  0  0  0  0
  153.0221  142.0390  160.5311 H   0  0  0  0  0  0  0  0  0  0  0  0
  153.8420  142.2733  158.9997 H   0  0  0  0  0  0  0  0  0  0  0  0
  151.7351  145.0379  158.0488 H   0  0  0  0  0  0  0  0  0  0  0  0
  153.0846  144.0438  157.5363 H   0  0  0  0  0  0  0  0  0  0  0  0
  151.0366  143.3822  156.3094 H   0  0  0  0  0  0  0  0  0  0  0  0
  150.1548  143.1508  157.8038 H   0  0  0  0  0  0  0  0  0  0  0  0
  147.9484  139.4562  156.2811 H   0  0  0  0  0  0  0  0  0  0  0  0
  147.5776  134.8682  152.1071 H   0  0  0  0  0  0  0  0  0  0  0  0
  1  2  1  0  0  0  0
  1 24  1  0  0  0  0
  1 25  1  0  0  0  0
  1 26  1  0  0  0  0
  2  3  1  0  0  0  0
  2  4  1  0  0  0  0
  2 51  1  0  0  0  0
  3 27  1  0  0  0  0
  3 28  1  0  0  0  0
  3 29  1  0  0  0  0
  4  5  1  0  0  0  0
  4  6  1  0  0  0  0
  4  7  1  0  0  0  0
  5 30  1  0  0  0  0
  5 31  1  0  0  0  0
  5 32  1  0  0  0  0
  6 33  1  0  0  0  0
  6 34  1  0  0  0  0
  6 35  1  0  0  0  0
  7  8  1  0  0  0  0
  7 36  1  0  0  0  0
  7 37  1  0  0  0  0
  8  9  1  0  0  0  0
  8 38  1  0  0  0  0
  9 10  2  0  0  0  0
  9 11  1  0  0  0  0
 11 12  1  0  0  0  0
 11 39  1  0  0  0  0
 12 23  1  0  0  0  0
 12 13  2  0  0  0  0
 13 14  1  0  0  0  0
 13 40  1  0  0  0  0
 14 15  2  0  0  0  0
 14 41  1  0  0  0  0
 15 16  1  0  0  0  0
 15 22  1  0  0  0  0
 16 21  1  0  0  0  0
 16 17  1  0  0  0  0
 17 18  1  0  0  0  0
 17 42  1  0  0  0  0
 17 43  1  0  0  0  0
 18 19  1  0  0  0  0
 18 44  1  0  0  0  0
 18 45  1  0  0  0  0
 19 20  1  0  0  0  0
 20 21  1  0  0  0  0
 20 46  1  0  0  0  0
 20 47  1  0  0  0  0
 21 48  1  0  0  0  0
 21 49  1  0  0  0  0
 22 23  2  0  0  0  0
 23 50  1  0  0  0  0
M  CHG  1   2   1
M  END
> <s_m_source_file>
AV-unprocessed.smi

> <i_m_source_file_index>
1559

> <i_lp_mmshare_version>
43012

> <i_f3d_flags>
0

> <s_epik_input>
W0NIM11OKFtDSDNdKUMoW0NIM10pKFtDSDNdKVtDSDJdW05IXUMoPU8pW05IXWMxW2NIXVtjSF1jKG5bY0hdMSlOMltDSDJdW0NIMl1PW0NIMl1bQ0gyXTI=

> <s_epik_cmdline>
J2VwaWtfcHl0aG9uJywgJy1waCcsICc3LjAnLCAnLXRuJywgJzgnLCAnLW1hJywgJzIwMCcsICctbWV0YWxfYmluZGluZycsICctaW1hZScsICc8aW5maWxlLm1hZT4nLCAnLW9tYWUnLCAnPG91dGZpbGUubWFlPic=

> <r_lp_tautomer_probability>
1

> <r_epik_Ionization_Penalty>
0.00606683

> <r_epik_Ionization_Penalty_Charging>
0.00433655

> <r_epik_Ionization_Penalty_Neutral>
0.00173028

> <r_epik_State_Penalty>
-0

> <r_epik_Charging_Adjusted_Penalty>
0.00433655

> <i_epik_Tot_Q>
1

> <i_epik_Tot_abs_Q>
1

> <r_epik_Metal_State_Penalty>
-0

> <b_epik_Metal_Only>
0

> <s_lp_Force_Field>
OPLS_2005

> <r_lp_Energy>
39.7319

> <b_lp_Chiralities_Consistent>
1

> <s_lp_Variant>
AV-unprocessed.smi:1559-1

> <Gold.Version>
5.8.1

> <Gold.Id.Protein>
6NUR|6NUR_protein|mol2

> <Gold.PLP.Fitness>
48.0041

> <Gold.PLP.PLP>
-37.4768

> <Gold.PLP.part.hbond>
-2.9301

> <Gold.PLP.part.metal>
0.0000

> <Gold.PLP.part.buried>
-4.4747

> <Gold.PLP.part.nonpolar>
-30.8656

> <Gold.PLP.part.repulsive>
0.1178

> <Gold.PLP.ligand.clash>
0.0000

> <Gold.PLP.ligand.torsion>
0.5135

> <Gold.PLP.Chemscore.Hbond>
3.6803

> <Gold.PLP.Chemscore.CHOScore>
0.0000

> <Gold.PLP.Chemscore.Metal>
0.0000

> <Gold.Chemscore.Hbonds>
donor molecule, donor type, donor heavy atom, donor atom, acceptor molecule, acceptor atom, score
      L1  H     2    51       P1  7948  2.00
      L1  H     8    38       P1  7948  0.98
      L1  H    11    39       P1  7948  0.70

> <Gold.PLP.Chemscore.Internal.Correction>
0.5134

> <Gold.Rescore>
     Score         DG    S(hbond)    S(metal)    S(lipo)     H(rot)  DE(clash)    DE(int)     intcor
     18.95     -21.00       2.66        0.00      92.69       1.64       0.08       1.97       ----

> <Gold.Chemscore.Fitness>
18.9504

> <Gold.Chemscore.DG>
-20.9979

> <Gold.Chemscore.ZeroCoef>
-5.4800

> <Gold.Chemscore.Hbond>
2.6573

> <Gold.Chemscore.Metal>
0.0000

> <Gold.Chemscore.Lipo>
92.6899

> <Gold.Chemscore.Internal_Hbond>
0.0000

> <Gold.Chemscore.DEClash>
0.0800

> <Gold.Chemscore.DEInternal>
1.9675

> <Gold.Chemscore.Rot>
1.6414

> <Gold.Chemscore.Internal.Correction>
   9.000000E+99

> <Gold.Chemscore.Hbonds>
donor molecule, donor type, donor heavy atom, donor atom, acceptor molecule, acceptor atom, score
      L1  H     2    51       P1  7948  0.85
      L1  H     8    38       P1  7948  0.91
      L1  H    11    39       P1  7948  0.66

> <Gold.Chemscore.Hbond.Weighted>
-8.8753

> <Gold.Chemscore.Metal.Weighted>
-0.0000

> <Gold.Chemscore.Lipo.Weighted>
-10.8447

> <Gold.Chemscore.Internal_Hbond.Weighted>
0.0000

> <Gold.Chemscore.DEClash.Weighted>
0.0800

> <Gold.Chemscore.DEInternal.Weighted>
1.9675

> <Gold.Chemscore.Rot.Weighted>
4.2021

> <Gold.Chemscore.Internal.Correction.Weighted>
   9.000000E+99

> <Gold.Protein.RotatedTorsions>
[ 6907 6896 6895 6894 ] final  138.52 input  -60.11 | X-H torsion
[ 7974 7965 7964 7962 ] final   74.90 input  175.53 | X-H torsion
[ 8008 7997 7996 7995 ] final   27.81 input   59.86 | X-H torsion
[ 10167 10162 10161 10158 ] final -170.98 input  -65.29 | X-H torsion
[ 10718 10713 10712 10709 ] final -110.03 input   66.30 | X-H torsion
[ 10763 10752 10751 10750 ] final  -36.67 input  -60.55 | X-H torsion
[ 11005 11000 10999 10996 ] final   71.59 input  -57.11 | X-H torsion

> <Gold.Protein.ActiveResidues>
 VAL166  LYS551  ARG553  GLY616  TRP617  ASP618  TYR619  PRO620  LYS621  CYS622 
 ASP623  PHE694  ASN695  SER759  ASP760  ASP761  ALA762  ILE779  LEU786  VAL792 
 PHE793  MET794  SER795  GLU796  ALA797  LYS798  CYS799  TRP800  GLU811  SER814 

> <Gold.Protein.RotatedAtoms>
  152.2657  133.5337  159.5408 H   0  0  0  0  0  0  0  0  0  0  0  0  # atno 6907 bound_to 6896
  150.7141  134.0768  159.3893 H   0  0  0  0  0  0  0  0  0  0  0  0  # atno 6908 bound_to 6896
  151.8684  135.0498  160.0527 H   0  0  0  0  0  0  0  0  0  0  0  0  # atno 6909 bound_to 6896
  145.7225  139.2653  143.1588 H   0  0  0  0  0  0  0  0  0  0  0  0  # atno 7974 bound_to 7965
  155.0488  140.3177  155.4699 H   0  0  0  0  0  0  0  0  0  0  0  0  # atno 8008 bound_to 7997
  156.2839  140.2150  156.5556 H   0  0  0  0  0  0  0  0  0  0  0  0  # atno 8009 bound_to 7997
  154.7228  140.0488  157.0643 H   0  0  0  0  0  0  0  0  0  0  0  0  # atno 8010 bound_to 7997
  139.5829  144.1383  152.1538 H   0  0  0  0  0  0  0  0  0  0  0  0  # atno 10167 bound_to 10162
  156.0568  130.5794  150.8181 H   0  0  0  0  0  0  0  0  0  0  0  0  # atno 10718 bound_to 10713
  153.8836  135.6819  153.4765 H   0  0  0  0  0  0  0  0  0  0  0  0  # atno 10763 bound_to 10752
  153.1220  135.4736  154.9208 H   0  0  0  0  0  0  0  0  0  0  0  0  # atno 10764 bound_to 10752
  154.7656  135.3223  154.8244 H   0  0  0  0  0  0  0  0  0  0  0  0  # atno 10765 bound_to 10752
  139.9535  134.7185  156.0807 H   0  0  0  0  0  0  0  0  0  0  0  0  # atno 11005 bound_to 11000
  146.0613  140.7968  142.9733 LP  0  0  0  0  0  0  0  0  0  0  0  0  # atno 17320 bound_to 7965
  144.6913  140.3201  143.7234 LP  0  0  0  0  0  0  0  0  0  0  0  0  # atno 17321 bound_to 7965
  140.0940  144.5596  150.7035 LP  0  0  0  0  0  0  0  0  0  0  0  0  # atno 17342 bound_to 10162
  140.7105  143.2501  151.4596 LP  0  0  0  0  0  0  0  0  0  0  0  0  # atno 17343 bound_to 10162
  157.5545  131.0944  150.9648 LP  0  0  0  0  0  0  0  0  0  0  0  0  # atno 17370 bound_to 10713
  156.9900  130.5559  149.5302 LP  0  0  0  0  0  0  0  0  0  0  0  0  # atno 17371 bound_to 10713
  141.1202  133.6615  156.3196 LP  0  0  0  0  0  0  0  0  0  0  0  0  # atno 17394 bound_to 11000
  140.5663  134.5884  157.5446 LP  0  0  0  0  0  0  0  0  0  0  0  0  # atno 17395 bound_to 11000

$$$$
