AV-unprocessed.smi:2900|AV-procd|sdf|11148|dock3
  -GOLD-   2272016 23D 1   1.00000     0.00000
 Structure written by MMmdl.
 35 36  0  0  0  0  0  0  0  0  1 V2000
  150.9999  140.1655  154.5969 O   0  0  0  0  0  0  0  0  0  0  0  0
  151.0848  138.9384  154.6305 C   0  0  0  0  0  0  0  0  0  0  0  0
  150.0195  138.0489  154.1746 C   0  0  0  0  0  0  0  0  0  0  0  0
  150.1426  136.7056  154.2316 C   0  0  0  0  0  0  0  0  0  0  0  0
  151.3625  136.1207  154.7621 C   0  0  0  0  0  0  0  0  0  0  0  0
  151.5972  134.6340  154.8676 C   0  0  0  0  0  0  0  0  0  0  0  0
  151.6801  134.0740  153.6605 F   0  0  0  0  0  0  0  0  0  0  0  0
  152.7335  134.3963  155.5236 F   0  0  0  0  0  0  0  0  0  0  0  0
  150.5960  134.0578  155.5338 F   0  0  0  0  0  0  0  0  0  0  0  0
  152.3092  136.9035  155.1689 N   0  0  0  0  0  0  0  0  0  0  0  0
  152.1864  138.2809  155.0968 N   0  0  0  0  0  0  0  0  0  0  0  0
  153.3615  139.0153  155.5838 C   0  0  0  0  0  0  0  0  0  0  0  0
  153.2691  139.3748  157.0841 C   0  0  1  0  0  0  0  0  0  0  0  0
  154.5878  139.5940  157.5418 O   0  0  0  0  0  0  0  0  0  0  0  0
  152.4453  140.6449  157.3625 C   0  0  0  0  0  0  0  0  0  0  0  0
  152.7848  141.1378  158.6514 O   0  0  0  0  0  0  0  0  0  0  0  0
  152.2080  142.3171  159.0716 C   0  0  0  0  0  0  0  0  0  0  0  0
  152.5642  142.7811  160.3549 C   0  0  0  0  0  0  0  0  0  0  0  0
  152.0231  143.9768  160.8658 C   0  0  0  0  0  0  0  0  0  0  0  0
  151.1144  144.7238  160.0940 C   0  0  0  0  0  0  0  0  0  0  0  0
  150.7493  144.2724  158.8123 C   0  0  0  0  0  0  0  0  0  0  0  0
  151.2912  143.0769  158.3008 C   0  0  0  0  0  0  0  0  0  0  0  0
  149.1107  138.4794  153.7802 H   0  0  0  0  0  0  0  0  0  0  0  0
  149.3418  136.0681  153.8879 H   0  0  0  0  0  0  0  0  0  0  0  0
  154.2552  138.4157  155.4004 H   0  0  0  0  0  0  0  0  0  0  0  0
  153.5040  139.9262  154.9984 H   0  0  0  0  0  0  0  0  0  0  0  0
  152.8492  138.5340  157.6371 H   0  0  0  0  0  0  0  0  0  0  0  0
  154.6014  139.4724  158.4790 H   0  0  0  0  0  0  0  0  0  0  0  0
  152.6133  141.3944  156.5869 H   0  0  0  0  0  0  0  0  0  0  0  0
  151.3827  140.4022  157.3672 H   0  0  0  0  0  0  0  0  0  0  0  0
  153.2612  142.2142  160.9543 H   0  0  0  0  0  0  0  0  0  0  0  0
  152.3060  144.3202  161.8500 H   0  0  0  0  0  0  0  0  0  0  0  0
  150.6980  145.6406  160.4845 H   0  0  0  0  0  0  0  0  0  0  0  0
  150.0513  144.8442  158.2187 H   0  0  0  0  0  0  0  0  0  0  0  0
  150.9862  142.7645  157.3138 H   0  0  0  0  0  0  0  0  0  0  0  0
  1  2  2  0  0  0  0
  2 11  1  0  0  0  0
  2  3  1  0  0  0  0
  3  4  2  0  0  0  0
  3 23  1  0  0  0  0
  4  5  1  0  0  0  0
  4 24  1  0  0  0  0
  5  6  1  0  0  0  0
  5 10  2  0  0  0  0
  6  7  1  0  0  0  0
  6  8  1  0  0  0  0
  6  9  1  0  0  0  0
 10 11  1  0  0  0  0
 11 12  1  0  0  0  0
 12 13  1  0  0  0  0
 12 25  1  0  0  0  0
 12 26  1  0  0  0  0
 13 14  1  0  0  0  0
 13 15  1  0  0  0  0
 13 27  1  0  0  0  0
 14 28  1  0  0  0  0
 15 16  1  0  0  0  0
 15 29  1  0  0  0  0
 15 30  1  0  0  0  0
 16 17  1  0  0  0  0
 17 22  1  0  0  0  0
 17 18  2  0  0  0  0
 18 19  1  0  0  0  0
 18 31  1  0  0  0  0
 19 20  2  0  0  0  0
 19 32  1  0  0  0  0
 20 21  1  0  0  0  0
 20 33  1  0  0  0  0
 21 22  2  0  0  0  0
 21 34  1  0  0  0  0
 22 35  1  0  0  0  0
M  END
> <s_m_source_file>
AV-unprocessed.smi

> <i_m_source_file_index>
2900

> <i_lp_mmshare_version>
43012

> <i_f3d_flags>
0

> <s_epik_input>
Tz1jMVtjSF1bY0hdYyhDKEYpKEYpRilubjFbQ0gyXVtDQEhdKFtPSF0pW0NIMl1PYzJbY0hdW2NIXVtjSF1bY0hdW2NIXTI=

> <s_epik_cmdline>
J2VwaWtfcHl0aG9uJywgJy1waCcsICc3LjAnLCAnLXRuJywgJzgnLCAnLW1hJywgJzIwMCcsICctbWV0YWxfYmluZGluZycsICctaW1hZScsICc8aW5maWxlLm1hZT4nLCAnLW9tYWUnLCAnPG91dGZpbGUubWFlPic=

> <r_lp_tautomer_probability>
1

> <r_epik_Ionization_Penalty>
1.22578e-07

> <r_epik_Ionization_Penalty_Charging>
5.40425e-09

> <r_epik_Ionization_Penalty_Neutral>
1.17174e-07

> <r_epik_State_Penalty>
-0

> <r_epik_Charging_Adjusted_Penalty>
5.40425e-09

> <i_epik_Tot_Q>
0

> <i_epik_Tot_abs_Q>
0

> <r_epik_Metal_State_Penalty>
-0

> <b_epik_Metal_Only>
0

> <s_lp_Force_Field>
OPLS_2005

> <r_lp_Energy>
32.4131

> <b_lp_Chiralities_Consistent>
1

> <s_lp_Variant>
AV-unprocessed.smi:2900-2

> <Gold.Version>
5.8.1

> <Gold.Id.Protein>
6NUR|6NUR_protein|mol2

> <Gold.PLP.Fitness>
44.6139

> <Gold.PLP.PLP>
-39.2112

> <Gold.PLP.part.hbond>
-2.1558

> <Gold.PLP.part.metal>
0.0000

> <Gold.PLP.part.buried>
-1.9225

> <Gold.PLP.part.nonpolar>
-34.0644

> <Gold.PLP.part.repulsive>
0.1419

> <Gold.PLP.ligand.clash>
0.0000

> <Gold.PLP.ligand.torsion>
0.8969

> <Gold.PLP.Chemscore.Hbond>
2.3738

> <Gold.PLP.Chemscore.CHOScore>
0.0000

> <Gold.PLP.Chemscore.Metal>
0.0000

> <Gold.Chemscore.Hbonds>
donor molecule, donor type, donor heavy atom, donor atom, acceptor molecule, acceptor atom, score
      P1  H  7989  7998       L1     1  0.80

> <Gold.PLP.Chemscore.Internal.Correction>
0.0753

> <Gold.Rescore>
     Score         DG    S(hbond)    S(metal)    S(lipo)     H(rot)  DE(clash)    DE(int)     intcor
     15.28     -16.44       1.96        0.00      95.36       2.63       0.17       0.99       ----

> <Gold.Chemscore.Fitness>
15.2844

> <Gold.Chemscore.DG>
-16.4440

> <Gold.Chemscore.ZeroCoef>
-5.4800

> <Gold.Chemscore.Hbond>
1.9606

> <Gold.Chemscore.Metal>
0.0000

> <Gold.Chemscore.Lipo>
95.3647

> <Gold.Chemscore.Internal_Hbond>
0.0000

> <Gold.Chemscore.DEClash>
0.1737

> <Gold.Chemscore.DEInternal>
0.9859

> <Gold.Chemscore.Rot>
2.6336

> <Gold.Chemscore.Internal.Correction>
   9.000000E+99

> <Gold.Chemscore.Hbonds>
donor molecule, donor type, donor heavy atom, donor atom, acceptor molecule, acceptor atom, score
      P1  H  7989  7998       L1     1  0.75

> <Gold.Chemscore.Hbond.Weighted>
-6.5483

> <Gold.Chemscore.Metal.Weighted>
-0.0000

> <Gold.Chemscore.Lipo.Weighted>
-11.1577

> <Gold.Chemscore.Internal_Hbond.Weighted>
0.0000

> <Gold.Chemscore.DEClash.Weighted>
0.1737

> <Gold.Chemscore.DEInternal.Weighted>
0.9859

> <Gold.Chemscore.Rot.Weighted>
6.7420

> <Gold.Chemscore.Internal.Correction.Weighted>
   9.000000E+99

> <Gold.Protein.RotatedTorsions>
[ 6907 6896 6895 6894 ] final -146.24 input  -60.11 | X-H torsion
[ 7974 7965 7964 7962 ] final  -16.20 input  175.53 | X-H torsion
[ 8008 7997 7996 7995 ] final -100.03 input   59.86 | X-H torsion
[ 10167 10162 10161 10158 ] final  131.32 input  -65.29 | X-H torsion
[ 10718 10713 10712 10709 ] final   89.28 input   66.30 | X-H torsion
[ 10763 10752 10751 10750 ] final -170.99 input  -60.55 | X-H torsion
[ 11005 11000 10999 10996 ] final -163.63 input  -57.11 | X-H torsion

> <Gold.Protein.ActiveResidues>
 VAL166  LYS551  ARG553  GLY616  TRP617  ASP618  TYR619  PRO620  LYS621  CYS622 
 ASP623  PHE694  ASN695  SER759  ASP760  ASP761  ALA762  ILE779  LEU786  VAL792 
 PHE793  MET794  SER795  GLU796  ALA797  LYS798  CYS799  TRP800  GLU811  SER814 

> <Gold.Protein.RotatedAtoms>
  151.1388  133.4985  159.2597 H   0  0  0  0  0  0  0  0  0  0  0  0  # atno 6907 bound_to 6896
  151.1677  135.0303  159.8748 H   0  0  0  0  0  0  0  0  0  0  0  0  # atno 6908 bound_to 6896
  152.5462  134.1255  159.8470 H   0  0  0  0  0  0  0  0  0  0  0  0  # atno 6909 bound_to 6896
  146.1998  140.3602  142.8427 H   0  0  0  0  0  0  0  0  0  0  0  0  # atno 7974 bound_to 7965
  154.8230  140.0443  157.1424 H   0  0  0  0  0  0  0  0  0  0  0  0  # atno 8008 bound_to 7997
  154.9238  140.3030  155.5182 H   0  0  0  0  0  0  0  0  0  0  0  0  # atno 8009 bound_to 7997
  156.2981  140.2335  156.4291 H   0  0  0  0  0  0  0  0  0  0  0  0  # atno 8010 bound_to 7997
  139.5389  144.6711  151.4691 H   0  0  0  0  0  0  0  0  0  0  0  0  # atno 10167 bound_to 10162
  157.6954  131.0327  150.3402 H   0  0  0  0  0  0  0  0  0  0  0  0  # atno 10718 bound_to 10713
  154.6355  135.2892  155.0166 H   0  0  0  0  0  0  0  0  0  0  0  0  # atno 10763 bound_to 10752
  154.1312  135.6533  153.4926 H   0  0  0  0  0  0  0  0  0  0  0  0  # atno 10764 bound_to 10752
  153.0300  135.5310  154.7199 H   0  0  0  0  0  0  0  0  0  0  0  0  # atno 10765 bound_to 10752
  140.5959  134.4997  157.5199 H   0  0  0  0  0  0  0  0  0  0  0  0  # atno 11005 bound_to 11000
  144.8659  140.7205  143.6078 LP  0  0  0  0  0  0  0  0  0  0  0  0  # atno 17320 bound_to 7965
  145.3521  139.1703  143.4429 LP  0  0  0  0  0  0  0  0  0  0  0  0  # atno 17321 bound_to 7965
  140.6609  143.8499  150.6887 LP  0  0  0  0  0  0  0  0  0  0  0  0  # atno 17342 bound_to 10162
  140.1894  143.4049  152.1875 LP  0  0  0  0  0  0  0  0  0  0  0  0  # atno 17343 bound_to 10162
  156.3864  130.3890  149.7063 LP  0  0  0  0  0  0  0  0  0  0  0  0  # atno 17370 bound_to 10713
  156.4427  130.7869  151.2890 LP  0  0  0  0  0  0  0  0  0  0  0  0  # atno 17371 bound_to 10713
  139.9253  134.8067  156.1086 LP  0  0  0  0  0  0  0  0  0  0  0  0  # atno 17394 bound_to 11000
  141.0904  133.6716  156.2528 LP  0  0  0  0  0  0  0  0  0  0  0  0  # atno 17395 bound_to 11000

$$$$
