AV-unprocessed.smi:2143|AV-procd|sdf|8724|dock6
  -GOLD-   2272011493D 1   1.00000     0.00000
 Structure written by MMmdl.
 44 45  0  0  0  0  0  0  0  0  1 V2000
  152.9098  142.3604  161.4966 C   0  0  0  0  0  0  0  0  0  0  0  0
  152.8806  142.7435  160.0050 C   0  0  2  0  0  0  0  0  0  0  0  0
  152.4499  144.2171  159.8615 C   0  0  0  0  0  0  0  0  0  0  0  0
  152.4371  144.6675  158.3971 C   0  0  0  0  0  0  0  0  0  0  0  0
  151.5145  143.7714  157.5665 C   0  0  0  0  0  0  0  0  0  0  0  0
  151.9244  142.2892  157.6732 C   0  0  2  0  0  0  0  0  0  0  0  0
  150.9887  141.4756  156.8988 N   0  0  0  0  0  0  0  0  0  0  0  0
  151.3147  140.4008  156.1650 C   0  0  0  0  0  0  0  0  0  0  0  0
  152.4620  139.9602  156.0827 O   0  0  0  0  0  0  0  0  0  0  0  0
  150.1595  139.7132  155.4254 C   0  0  0  0  0  0  0  0  0  0  0  0
  148.9136  140.4891  155.4700 N   0  0  0  0  0  0  0  0  0  0  0  0
  148.4940  141.1807  154.3481 C   0  0  0  0  0  0  0  0  0  0  0  0
  147.3722  141.9326  154.3130 C   0  0  0  0  0  0  0  0  0  0  0  0
  146.5174  142.0584  155.4874 C   0  0  0  0  0  0  0  0  0  0  0  0
  145.4985  142.7497  155.5042 O   0  0  0  0  0  0  0  0  0  0  0  0
  146.9613  141.3285  156.6164 N   0  0  0  0  0  0  0  0  0  0  0  0
  146.1893  141.4035  157.8395 C   0  0  0  0  0  0  0  0  0  0  0  0
  148.1433  140.5558  156.6510 C   0  0  0  0  0  0  0  0  0  0  0  0
  148.5042  139.9622  157.6705 O   0  0  0  0  0  0  0  0  0  0  0  0
  151.9772  141.8096  159.1496 C   0  0  1  0  0  0  0  0  0  0  0  0
  152.4247  140.3339  159.2373 C   0  0  0  0  0  0  0  0  0  0  0  0
  151.9049  142.3343  161.9191 H   0  0  0  0  0  0  0  0  0  0  0  0
  153.4919  143.0798  162.0732 H   0  0  0  0  0  0  0  0  0  0  0  0
  153.3702  141.3864  161.6581 H   0  0  0  0  0  0  0  0  0  0  0  0
  153.9016  142.6622  159.6282 H   0  0  0  0  0  0  0  0  0  0  0  0
  151.4576  144.3561  160.2931 H   0  0  0  0  0  0  0  0  0  0  0  0
  153.1237  144.8606  160.4281 H   0  0  0  0  0  0  0  0  0  0  0  0
  152.1077  145.7046  158.3293 H   0  0  0  0  0  0  0  0  0  0  0  0
  153.4488  144.6352  157.9905 H   0  0  0  0  0  0  0  0  0  0  0  0
  150.4850  143.8967  157.9056 H   0  0  0  0  0  0  0  0  0  0  0  0
  151.5375  144.0962  156.5256 H   0  0  0  0  0  0  0  0  0  0  0  0
  152.9248  142.1766  157.2505 H   0  0  0  0  0  0  0  0  0  0  0  0
  150.0205  141.7619  156.9128 H   0  0  0  0  0  0  0  0  0  0  0  0
  150.4650  139.5549  154.3904 H   0  0  0  0  0  0  0  0  0  0  0  0
  149.9915  138.7170  155.8393 H   0  0  0  0  0  0  0  0  0  0  0  0
  149.0960  141.1246  153.4528 H   0  0  0  0  0  0  0  0  0  0  0  0
  147.1056  142.4521  153.4043 H   0  0  0  0  0  0  0  0  0  0  0  0
  146.1392  140.4051  158.2773 H   0  0  0  0  0  0  0  0  0  0  0  0
  145.1722  141.7366  157.6324 H   0  0  0  0  0  0  0  0  0  0  0  0
  146.7062  142.1034  158.4974 H   0  0  0  0  0  0  0  0  0  0  0  0
  150.9646  141.8684  159.5527 H   0  0  0  0  0  0  0  0  0  0  0  0
  153.4531  140.2136  158.8954 H   0  0  0  0  0  0  0  0  0  0  0  0
  151.7978  139.6812  158.6300 H   0  0  0  0  0  0  0  0  0  0  0  0
  152.3629  139.9505  160.2549 H   0  0  0  0  0  0  0  0  0  0  0  0
  1  2  1  0  0  0  0
  1 22  1  0  0  0  0
  1 23  1  0  0  0  0
  1 24  1  0  0  0  0
  2 20  1  0  0  0  0
  2  3  1  0  0  0  0
  2 25  1  0  0  0  0
  3  4  1  0  0  0  0
  3 26  1  0  0  0  0
  3 27  1  0  0  0  0
  4  5  1  0  0  0  0
  4 28  1  0  0  0  0
  4 29  1  0  0  0  0
  5  6  1  0  0  0  0
  5 30  1  0  0  0  0
  5 31  1  0  0  0  0
  6  7  1  0  0  0  0
  6 20  1  0  0  0  0
  6 32  1  0  0  0  0
  7  8  1  0  0  0  0
  7 33  1  0  0  0  0
  8  9  2  0  0  0  0
  8 10  1  0  0  0  0
 10 11  1  0  0  0  0
 10 34  1  0  0  0  0
 10 35  1  0  0  0  0
 11 18  1  0  0  0  0
 11 12  1  0  0  0  0
 12 13  2  0  0  0  0
 12 36  1  0  0  0  0
 13 14  1  0  0  0  0
 13 37  1  0  0  0  0
 14 15  2  0  0  0  0
 14 16  1  0  0  0  0
 16 17  1  0  0  0  0
 16 18  1  0  0  0  0
 17 38  1  0  0  0  0
 17 39  1  0  0  0  0
 17 40  1  0  0  0  0
 18 19  2  0  0  0  0
 20 21  1  0  0  0  0
 20 41  1  0  0  0  0
 21 42  1  0  0  0  0
 21 43  1  0  0  0  0
 21 44  1  0  0  0  0
M  END
> <s_m_source_file>
AV-unprocessed.smi

> <i_m_source_file_index>
2143

> <i_lp_mmshare_version>
43012

> <i_f3d_flags>
0

> <s_epik_input>
W0NIM11bQ0BASF0xW0NIMl1bQ0gyXVtDSDJdW0NASF0oW0NASF0xW0NIM10pW05IXUMoPU8pW0NIMl1uMltjSF1bY0hdYyg9TyluKFtDSDNdKWMyPU8=

> <s_epik_cmdline>
J2VwaWtfcHl0aG9uJywgJy1waCcsICc3LjAnLCAnLXRuJywgJzgnLCAnLW1hJywgJzIwMCcsICctbWV0YWxfYmluZGluZycsICctaW1hZScsICc8aW5maWxlLm1hZT4nLCAnLW9tYWUnLCAnPG91dGZpbGUubWFlPic=

> <r_lp_tautomer_probability>
1

> <r_epik_Ionization_Penalty>
3.18445e-08

> <r_epik_Ionization_Penalty_Charging>
1.27977e-08

> <r_epik_Ionization_Penalty_Neutral>
1.90469e-08

> <r_epik_State_Penalty>
-0

> <r_epik_Charging_Adjusted_Penalty>
1.27977e-08

> <i_epik_Tot_Q>
0

> <i_epik_Tot_abs_Q>
0

> <r_epik_Metal_State_Penalty>
-0

> <b_epik_Metal_Only>
0

> <s_lp_Force_Field>
OPLS_2005

> <r_lp_Energy>
20.5946

> <b_lp_Chiralities_Consistent>
1

> <s_lp_Variant>
AV-unprocessed.smi:2143-3

> <Gold.Version>
5.8.1

> <Gold.Id.Protein>
6NUR|6NUR_protein|mol2

> <Gold.PLP.Fitness>
48.6452

> <Gold.PLP.PLP>
-43.8363

> <Gold.PLP.part.hbond>
-1.0000

> <Gold.PLP.part.metal>
0.0000

> <Gold.PLP.part.buried>
-6.7714

> <Gold.PLP.part.nonpolar>
-36.4219

> <Gold.PLP.part.repulsive>
0.2697

> <Gold.PLP.ligand.clash>
0.0000

> <Gold.PLP.ligand.torsion>
0.5995

> <Gold.PLP.Chemscore.Hbond>
1.0000

> <Gold.PLP.Chemscore.CHOScore>
1.0000

> <Gold.PLP.Chemscore.Metal>
0.0000

> <Gold.Chemscore.Hbonds>
donor molecule, donor type, donor heavy atom, donor atom, acceptor molecule, acceptor atom, score
      P1  H  7997  8010       L1     9  1.00
      L1  C    12    36       P1  7957  0.87

> <Gold.PLP.Chemscore.Internal.Correction>
0.0078

> <Gold.Rescore>
     Score         DG    S(hbond)    S(metal)    S(lipo)     H(rot)  DE(clash)    DE(int)     intcor
     16.45     -18.09       0.99        0.00     112.52       1.51       0.97       0.66       ----

> <Gold.Chemscore.Fitness>
16.4481

> <Gold.Chemscore.DG>
-18.0854

> <Gold.Chemscore.ZeroCoef>
-5.4800

> <Gold.Chemscore.Hbond>
0.9922

> <Gold.Chemscore.Metal>
0.0000

> <Gold.Chemscore.Lipo>
112.5213

> <Gold.Chemscore.Internal_Hbond>
0.0000

> <Gold.Chemscore.DEClash>
0.9740

> <Gold.Chemscore.DEInternal>
0.6633

> <Gold.Chemscore.Rot>
1.5131

> <Gold.Chemscore.Internal.Correction>
   9.000000E+99

> <Gold.Chemscore.Hbonds>
donor molecule, donor type, donor heavy atom, donor atom, acceptor molecule, acceptor atom, score
      P1  H  7997  8010       L1     9  1.00

> <Gold.Chemscore.Hbond.Weighted>
-3.3138

> <Gold.Chemscore.Metal.Weighted>
-0.0000

> <Gold.Chemscore.Lipo.Weighted>
-13.1650

> <Gold.Chemscore.Internal_Hbond.Weighted>
0.0000

> <Gold.Chemscore.DEClash.Weighted>
0.9740

> <Gold.Chemscore.DEInternal.Weighted>
0.6633

> <Gold.Chemscore.Rot.Weighted>
3.8734

> <Gold.Chemscore.Internal.Correction.Weighted>
   9.000000E+99

> <Gold.Protein.RotatedTorsions>
[ 6907 6896 6895 6894 ] final  -44.69 input  -60.11 | X-H torsion
[ 7974 7965 7964 7962 ] final -105.53 input  175.53 | X-H torsion
[ 8008 7997 7996 7995 ] final   85.06 input   59.86 | X-H torsion
[ 10167 10162 10161 10158 ] final    5.32 input  -65.29 | X-H torsion
[ 10718 10713 10712 10709 ] final   86.24 input   66.30 | X-H torsion
[ 10763 10752 10751 10750 ] final  120.86 input  -60.55 | X-H torsion
[ 11005 11000 10999 10996 ] final -120.65 input  -57.11 | X-H torsion

> <Gold.Protein.ActiveResidues>
 VAL166  LYS551  ARG553  GLY616  TRP617  ASP618  TYR619  PRO620  LYS621  CYS622 
 ASP623  PHE694  ASN695  SER759  ASP760  ASP761  ALA762  ILE779  LEU786  VAL792 
 PHE793  MET794  SER795  GLU796  ALA797  LYS798  CYS799  TRP800  GLU811  SER814 

> <Gold.Protein.RotatedAtoms>
  150.9301  134.8716  159.7545 H   0  0  0  0  0  0  0  0  0  0  0  0  # atno 6907 bound_to 6896
  152.5034  134.4091  159.9452 H   0  0  0  0  0  0  0  0  0  0  0  0  # atno 6908 bound_to 6896
  151.4119  133.3685  159.2780 H   0  0  0  0  0  0  0  0  0  0  0  0  # atno 6909 bound_to 6896
  145.2293  140.9164  143.3214 H   0  0  0  0  0  0  0  0  0  0  0  0  # atno 7974 bound_to 7965
  155.9451  140.3405  155.6360 H   0  0  0  0  0  0  0  0  0  0  0  0  # atno 8008 bound_to 7997
  155.6990  140.0758  157.2436 H   0  0  0  0  0  0  0  0  0  0  0  0  # atno 8009 bound_to 7997
  154.4110  140.1643  156.2158 H   0  0  0  0  0  0  0  0  0  0  0  0  # atno 8010 bound_to 7997
  140.6488  143.7595  150.7542 H   0  0  0  0  0  0  0  0  0  0  0  0  # atno 10167 bound_to 10162
  157.6926  131.0207  150.2943 H   0  0  0  0  0  0  0  0  0  0  0  0  # atno 10718 bound_to 10713
  153.6051  135.3441  155.2959 H   0  0  0  0  0  0  0  0  0  0  0  0  # atno 10763 bound_to 10752
  154.8629  135.4237  154.2371 H   0  0  0  0  0  0  0  0  0  0  0  0  # atno 10764 bound_to 10752
  153.3208  135.7038  153.7104 H   0  0  0  0  0  0  0  0  0  0  0  0  # atno 10765 bound_to 10752
  141.0128  134.0240  157.3391 H   0  0  0  0  0  0  0  0  0  0  0  0  # atno 11005 bound_to 11000
  144.9691  139.3898  143.6318 LP  0  0  0  0  0  0  0  0  0  0  0  0  # atno 17320 bound_to 7965
  146.3357  139.8781  142.8829 LP  0  0  0  0  0  0  0  0  0  0  0  0  # atno 17321 bound_to 7965
  140.1242  143.4584  152.2294 LP  0  0  0  0  0  0  0  0  0  0  0  0  # atno 17342 bound_to 10162
  139.5701  144.7458  151.3914 LP  0  0  0  0  0  0  0  0  0  0  0  0  # atno 17343 bound_to 10162
  156.3469  130.3824  149.7361 LP  0  0  0  0  0  0  0  0  0  0  0  0  # atno 17370 bound_to 10713
  156.4852  130.8059  151.3072 LP  0  0  0  0  0  0  0  0  0  0  0  0  # atno 17371 bound_to 10713
  139.9099  135.0188  156.7648 LP  0  0  0  0  0  0  0  0  0  0  0  0  # atno 17394 bound_to 11000
  140.6705  133.9563  155.7854 LP  0  0  0  0  0  0  0  0  0  0  0  0  # atno 17395 bound_to 11000

$$$$
