AV-unprocessed.smi:1239|AV-procd|sdf|5191|dock9
  -GOLD-   22720 4273D 1   1.00000     0.00000
 Structure written by MMmdl.
 48 49  0  0  0  0  0  0  0  0  2 V2000
  145.5251  139.7157  155.3975 C   0  0  0  0  0  0  0  0  0  0  0  0
  146.4142  139.2506  154.2188 C   0  0  2  0  0  0  0  0  0  0  0  0
  147.0611  140.4702  153.5029 C   0  0  0  0  0  0  0  0  0  0  0  0
  147.8357  141.3278  154.3978 N   0  0  0  0  0  0  0  0  0  0  0  0
  148.6835  140.8992  155.3448 C   0  0  0  0  0  0  0  0  0  0  0  0
  148.9355  139.7106  155.5393 O   0  0  0  0  0  0  0  0  0  0  0  0
  149.2191  141.9326  156.0168 N   0  0  0  0  0  0  0  0  0  0  0  0
  150.1401  141.9172  157.1001 C   0  0  0  0  0  0  0  0  0  0  0  0
  150.8618  140.7301  157.3287 C   0  0  0  0  0  0  0  0  0  0  0  0
  151.7955  140.6785  158.3804 C   0  0  0  0  0  0  0  0  0  0  0  0
  151.9947  141.8273  159.1851 C   0  0  0  0  0  0  0  0  0  0  0  0
  152.9210  141.8287  160.2532 N   0  0  0  0  0  0  0  0  0  0  0  0
  152.9455  142.9460  161.1917 C   0  0  0  0  0  0  0  0  0  0  0  0
  153.8188  140.6968  160.4477 C   0  0  0  0  0  0  0  0  0  0  0  0
  151.3056  142.9720  158.9568 N   0  0  0  0  0  0  0  0  0  0  0  0
  150.4104  143.0175  157.9476 C   0  0  0  0  0  0  0  0  0  0  0  0
  145.6426  138.3708  153.2765 N   0  3  0  0  0  0  0  0  0  0  0  0
  146.3939  137.9564  152.0575 C   0  0  0  0  0  0  0  0  0  0  0  0
  145.5397  137.0633  151.1413 C   0  0  0  0  0  0  0  0  0  0  0  0
  145.0809  135.9302  151.8614 O   0  0  0  0  0  0  0  0  0  0  0  0
  144.2535  136.3145  152.9472 C   0  0  0  0  0  0  0  0  0  0  0  0
  145.0654  137.1657  153.9370 C   0  0  0  0  0  0  0  0  0  0  0  0
  146.0701  140.3549  156.0911 H   0  0  0  0  0  0  0  0  0  0  0  0
  145.1630  138.8899  156.0064 H   0  0  0  0  0  0  0  0  0  0  0  0
  144.6608  140.2781  155.0429 H   0  0  0  0  0  0  0  0  0  0  0  0
  147.2283  138.6518  154.6308 H   0  0  0  0  0  0  0  0  0  0  0  0
  147.7794  140.1387  152.7541 H   0  0  0  0  0  0  0  0  0  0  0  0
  146.3003  141.0436  152.9701 H   0  0  0  0  0  0  0  0  0  0  0  0
  147.6977  142.3236  154.3030 H   0  0  0  0  0  0  0  0  0  0  0  0
  148.9562  142.8519  155.6932 H   0  0  0  0  0  0  0  0  0  0  0  0
  150.7029  139.8619  156.7059 H   0  0  0  0  0  0  0  0  0  0  0  0
  152.3396  139.7611  158.5461 H   0  0  0  0  0  0  0  0  0  0  0  0
  151.9859  143.0384  161.7014 H   0  0  0  0  0  0  0  0  0  0  0  0
  153.1526  143.8805  160.6693 H   0  0  0  0  0  0  0  0  0  0  0  0
  153.7156  142.8115  161.9513 H   0  0  0  0  0  0  0  0  0  0  0  0
  154.4588  140.5601  159.5755 H   0  0  0  0  0  0  0  0  0  0  0  0
  153.2502  139.7811  160.6124 H   0  0  0  0  0  0  0  0  0  0  0  0
  154.4649  140.8465  161.3125 H   0  0  0  0  0  0  0  0  0  0  0  0
  149.9259  143.9729  157.8267 H   0  0  0  0  0  0  0  0  0  0  0  0
  146.6897  138.8219  151.4667 H   0  0  0  0  0  0  0  0  0  0  0  0
  147.3042  137.4310  152.3506 H   0  0  0  0  0  0  0  0  0  0  0  0
  144.6938  137.6193  150.7332 H   0  0  0  0  0  0  0  0  0  0  0  0
  146.1333  136.7231  150.2926 H   0  0  0  0  0  0  0  0  0  0  0  0
  143.3803  136.8602  152.5856 H   0  0  0  0  0  0  0  0  0  0  0  0
  143.8831  135.4166  153.4423 H   0  0  0  0  0  0  0  0  0  0  0  0
  145.8678  136.5659  154.3692 H   0  0  0  0  0  0  0  0  0  0  0  0
  144.3975  137.4406  154.7501 H   0  0  0  0  0  0  0  0  0  0  0  0
  144.8625  138.9226  152.9481 H   0  0  0  0  0  0  0  0  0  0  0  0
  1  2  1  0  0  0  0
  1 23  1  0  0  0  0
  1 24  1  0  0  0  0
  1 25  1  0  0  0  0
  2  3  1  0  0  0  0
  2 17  1  0  0  0  0
  2 26  1  0  0  0  0
  3  4  1  0  0  0  0
  3 27  1  0  0  0  0
  3 28  1  0  0  0  0
  4  5  1  0  0  0  0
  4 29  1  0  0  0  0
  5  6  2  0  0  0  0
  5  7  1  0  0  0  0
  7  8  1  0  0  0  0
  7 30  1  0  0  0  0
  8 16  1  0  0  0  0
  8  9  2  0  0  0  0
  9 10  1  0  0  0  0
  9 31  1  0  0  0  0
 10 11  2  0  0  0  0
 10 32  1  0  0  0  0
 11 12  1  0  0  0  0
 11 15  1  0  0  0  0
 12 13  1  0  0  0  0
 12 14  1  0  0  0  0
 13 33  1  0  0  0  0
 13 34  1  0  0  0  0
 13 35  1  0  0  0  0
 14 36  1  0  0  0  0
 14 37  1  0  0  0  0
 14 38  1  0  0  0  0
 15 16  2  0  0  0  0
 16 39  1  0  0  0  0
 17 22  1  0  0  0  0
 17 18  1  0  0  0  0
 17 48  1  0  0  0  0
 18 19  1  0  0  0  0
 18 40  1  0  0  0  0
 18 41  1  0  0  0  0
 19 20  1  0  0  0  0
 19 42  1  0  0  0  0
 19 43  1  0  0  0  0
 20 21  1  0  0  0  0
 21 22  1  0  0  0  0
 21 44  1  0  0  0  0
 21 45  1  0  0  0  0
 22 46  1  0  0  0  0
 22 47  1  0  0  0  0
M  CHG  1  17   1
M  END
> <s_m_source_file>
AV-unprocessed.smi

> <i_m_source_file_index>
1239

> <i_lp_mmshare_version>
43012

> <i_f3d_flags>
0

> <s_epik_input>
W0NIMl0xW0NIMl1PW0NIMl1bQ0gyXU4xW0NASF0oW0NIM10pW0NIMl1bTkhdQyg9TylbTkhdYzJbY0hdW2NIXWMoTihbQ0gzXSlbQ0gzXSluW2NIXTI=

> <s_epik_cmdline>
J2VwaWtfcHl0aG9uJywgJy1waCcsICc3LjAnLCAnLXRuJywgJzgnLCAnLW1hJywgJzIwMCcsICctbWV0YWxfYmluZGluZycsICctaW1hZScsICc8aW5maWxlLm1hZT4nLCAnLW9tYWUnLCAnPG91dGZpbGUubWFlPic=

> <r_epik_Ionization_Penalty>
1.1428

> <r_epik_Ionization_Penalty_Charging>
0.602531

> <r_epik_Ionization_Penalty_Neutral>
0.540271

> <r_epik_State_Penalty>
1.1888

> <r_epik_Charging_Adjusted_Penalty>
1.79133

> <i_epik_Tot_Q>
1

> <i_epik_Tot_abs_Q>
1

> <r_epik_Metal_State_Penalty>
0.936295

> <b_epik_Metal_Only>
0

> <s_lp_Force_Field>
OPLS_2005

> <r_lp_Energy>
25.054

> <b_lp_Chiralities_Consistent>
1

> <s_lp_Variant>
AV-unprocessed.smi:1239-7

> <Gold.Version>
5.8.1

> <Gold.Id.Protein>
6NUR|6NUR_protein|mol2

> <Gold.PLP.Fitness>
46.4559

> <Gold.PLP.PLP>
-35.1897

> <Gold.PLP.part.hbond>
-2.0000

> <Gold.PLP.part.metal>
0.0000

> <Gold.PLP.part.buried>
0.0449

> <Gold.PLP.part.nonpolar>
-35.7929

> <Gold.PLP.part.repulsive>
0.5795

> <Gold.PLP.ligand.clash>
0.0000

> <Gold.PLP.ligand.torsion>
0.2393

> <Gold.PLP.Chemscore.Hbond>
3.0000

> <Gold.PLP.Chemscore.CHOScore>
0.8971

> <Gold.PLP.Chemscore.Metal>
0.0000

> <Gold.Chemscore.Hbonds>
donor molecule, donor type, donor heavy atom, donor atom, acceptor molecule, acceptor atom, score
      L1  H     7    30       P1  8028  1.00
      L1  H    17    48       P1 10175  2.00
      L1  C    16    39       P1  8028  0.89
      L1  C    16    39       P1  8029  0.04

> <Gold.PLP.Chemscore.Internal.Correction>
0.0536

> <Gold.Rescore>
     Score         DG    S(hbond)    S(metal)    S(lipo)     H(rot)  DE(clash)    DE(int)     intcor
     14.05     -18.79       1.99        0.00      89.30       1.48       1.84       2.90       ----

> <Gold.Chemscore.Fitness>
14.0451

> <Gold.Chemscore.DG>
-18.7912

> <Gold.Chemscore.ZeroCoef>
-5.4800

> <Gold.Chemscore.Hbond>
1.9937

> <Gold.Chemscore.Metal>
0.0000

> <Gold.Chemscore.Lipo>
89.3049

> <Gold.Chemscore.Internal_Hbond>
0.0000

> <Gold.Chemscore.DEClash>
1.8413

> <Gold.Chemscore.DEInternal>
2.9048

> <Gold.Chemscore.Rot>
1.4830

> <Gold.Chemscore.Internal.Correction>
   9.000000E+99

> <Gold.Chemscore.Hbonds>
donor molecule, donor type, donor heavy atom, donor atom, acceptor molecule, acceptor atom, score
      L1  H     7    30       P1  8028  0.99
      L1  H    17    48       P1 10175  0.96

> <Gold.Chemscore.Hbond.Weighted>
-6.6589

> <Gold.Chemscore.Metal.Weighted>
-0.0000

> <Gold.Chemscore.Lipo.Weighted>
-10.4487

> <Gold.Chemscore.Internal_Hbond.Weighted>
0.0000

> <Gold.Chemscore.DEClash.Weighted>
1.8413

> <Gold.Chemscore.DEInternal.Weighted>
2.9048

> <Gold.Chemscore.Rot.Weighted>
3.7964

> <Gold.Chemscore.Internal.Correction.Weighted>
   9.000000E+99

> <Gold.Protein.RotatedTorsions>
[ 6907 6896 6895 6894 ] final -153.41 input  -60.11 | X-H torsion
[ 7974 7965 7964 7962 ] final -158.66 input  175.53 | X-H torsion
[ 8008 7997 7996 7995 ] final   19.61 input   59.86 | X-H torsion
[ 10167 10162 10161 10158 ] final  129.68 input  -65.29 | X-H torsion
[ 10718 10713 10712 10709 ] final   97.70 input   66.30 | X-H torsion
[ 10763 10752 10751 10750 ] final  161.27 input  -60.55 | X-H torsion
[ 11005 11000 10999 10996 ] final   54.93 input  -57.11 | X-H torsion

> <Gold.Protein.ActiveResidues>
 VAL166  LYS551  ARG553  GLY616  TRP617  ASP618  TYR619  PRO620  LYS621  CYS622 
 ASP623  PHE694  ASN695  SER759  ASP760  ASP761  ALA762  ILE779  LEU786  VAL792 
 PHE793  MET794  SER795  GLU796  ALA797  LYS798  CYS799  TRP800  GLU811  SER814 

> <Gold.Protein.RotatedAtoms>
  151.2422  133.4393  159.2607 H   0  0  0  0  0  0  0  0  0  0  0  0  # atno 6907 bound_to 6896
  151.0694  134.9789  159.8311 H   0  0  0  0  0  0  0  0  0  0  0  0  # atno 6908 bound_to 6896
  152.5410  134.2368  159.8899 H   0  0  0  0  0  0  0  0  0  0  0  0  # atno 6909 bound_to 6896
  144.7497  140.3796  143.6058 H   0  0  0  0  0  0  0  0  0  0  0  0  # atno 7974 bound_to 7965
  154.9233  140.3030  155.5205 H   0  0  0  0  0  0  0  0  0  0  0  0  # atno 8008 bound_to 7997
  156.3008  140.2367  156.4222 H   0  0  0  0  0  0  0  0  0  0  0  0  # atno 8009 bound_to 7997
  154.8309  140.0418  157.1465 H   0  0  0  0  0  0  0  0  0  0  0  0  # atno 8010 bound_to 7997
  139.5466  144.6778  151.4455 H   0  0  0  0  0  0  0  0  0  0  0  0  # atno 10167 bound_to 10162
  157.6908  131.0617  150.4683 H   0  0  0  0  0  0  0  0  0  0  0  0  # atno 10718 bound_to 10713
  154.2604  135.2768  155.2780 H   0  0  0  0  0  0  0  0  0  0  0  0  # atno 10763 bound_to 10752
  154.5389  135.5708  153.6825 H   0  0  0  0  0  0  0  0  0  0  0  0  # atno 10764 bound_to 10752
  152.9963  135.6246  154.2754 H   0  0  0  0  0  0  0  0  0  0  0  0  # atno 10765 bound_to 10752
  140.0647  134.5553  155.9113 H   0  0  0  0  0  0  0  0  0  0  0  0  # atno 11005 bound_to 11000
  145.6991  139.1657  143.2603 LP  0  0  0  0  0  0  0  0  0  0  0  0  # atno 17320 bound_to 7965
  146.1428  140.7034  142.9359 LP  0  0  0  0  0  0  0  0  0  0  0  0  # atno 17321 bound_to 7965
  140.6716  143.8282  150.7006 LP  0  0  0  0  0  0  0  0  0  0  0  0  # atno 17342 bound_to 10162
  140.1708  143.4196  152.2002 LP  0  0  0  0  0  0  0  0  0  0  0  0  # atno 17343 bound_to 10162
  156.5023  130.4120  149.6346 LP  0  0  0  0  0  0  0  0  0  0  0  0  # atno 17370 bound_to 10713
  156.3317  130.7335  151.2265 LP  0  0  0  0  0  0  0  0  0  0  0  0  # atno 17371 bound_to 10713
  141.1988  133.6603  156.5809 LP  0  0  0  0  0  0  0  0  0  0  0  0  # atno 17394 bound_to 11000
  140.3717  134.7600  157.4603 LP  0  0  0  0  0  0  0  0  0  0  0  0  # atno 17395 bound_to 11000

$$$$
