AV-unprocessed.smi:3345|AV-procd|sdf|12900|dock7
  -GOLD-   2272019313D 1   1.00000     0.00000
 Structure written by MMmdl.
 40 41  0  0  0  0  0  0  0  0  1 V2000
  150.7122  140.4702  157.8400 C   0  0  0  0  0  0  0  0  0  0  0  0
  152.2347  140.6654  157.9109 C   0  0  1  0  0  0  0  0  0  0  0  0
  152.6999  140.9750  159.3507 C   0  0  0  0  0  0  0  0  0  0  0  0
  152.2141  142.2394  159.9041 N   0  0  0  0  0  0  0  0  0  0  0  0
  152.3961  143.3638  158.9886 C   0  0  0  0  0  0  0  0  0  0  0  0
  151.9067  144.6888  159.5989 C   0  0  0  0  0  0  0  0  0  0  0  0
  152.5733  144.9234  160.8348 O   0  0  0  0  0  0  0  0  0  0  0  0
  152.3750  143.8706  161.7725 C   0  0  0  0  0  0  0  0  0  0  0  0
  152.8733  142.5459  161.1693 C   0  0  0  0  0  0  0  0  0  0  0  0
  152.8838  139.4480  157.4294 N   0  0  0  0  0  0  0  0  0  0  0  0
  153.0473  139.1069  156.1411 C   0  0  0  0  0  0  0  0  0  0  0  0
  152.6698  139.8093  155.2028 O   0  0  0  0  0  0  0  0  0  0  0  0
  153.7335  137.7596  155.8759 C   0  0  2  0  0  0  0  0  0  0  0  0
  154.6794  137.8256  154.6599 C   0  0  0  0  0  0  0  0  0  0  0  0
  152.7303  136.7080  155.7536 N   0  0  0  0  0  0  0  0  0  0  0  0
  151.8243  136.4985  154.7957 C   0  0  0  0  0  0  0  0  0  0  0  0
  151.0963  135.4046  154.9708 N   0  0  0  0  0  0  0  0  0  0  0  0
  151.6535  134.9437  156.1294 C   0  0  0  0  0  0  0  0  0  0  0  0
  152.6433  135.6796  156.6343 N   0  0  0  0  0  0  0  0  0  0  0  0
  150.1860  141.3669  158.1684 H   0  0  0  0  0  0  0  0  0  0  0  0
  150.3872  139.6428  158.4721 H   0  0  0  0  0  0  0  0  0  0  0  0
  150.3891  140.2578  156.8202 H   0  0  0  0  0  0  0  0  0  0  0  0
  152.4864  141.5139  157.2716 H   0  0  0  0  0  0  0  0  0  0  0  0
  152.3324  140.1739  159.9933 H   0  0  0  0  0  0  0  0  0  0  0  0
  153.7877  140.9219  159.4215 H   0  0  0  0  0  0  0  0  0  0  0  0
  153.4496  143.4562  158.7207 H   0  0  0  0  0  0  0  0  0  0  0  0
  151.8508  143.1877  158.0619 H   0  0  0  0  0  0  0  0  0  0  0  0
  152.1105  145.5171  158.9203 H   0  0  0  0  0  0  0  0  0  0  0  0
  150.8276  144.6641  159.7591 H   0  0  0  0  0  0  0  0  0  0  0  0
  152.9202  144.0999  162.6881 H   0  0  0  0  0  0  0  0  0  0  0  0
  151.3183  143.8024  162.0366 H   0  0  0  0  0  0  0  0  0  0  0  0
  152.6990  141.7396  161.8827 H   0  0  0  0  0  0  0  0  0  0  0  0
  153.9527  142.6021  161.0199 H   0  0  0  0  0  0  0  0  0  0  0  0
  153.2288  138.8113  158.1329 H   0  0  0  0  0  0  0  0  0  0  0  0
  154.3447  137.5128  156.7459 H   0  0  0  0  0  0  0  0  0  0  0  0
  155.4538  138.5791  154.8081 H   0  0  0  0  0  0  0  0  0  0  0  0
  154.1512  138.0752  153.7386 H   0  0  0  0  0  0  0  0  0  0  0  0
  155.1802  136.8695  154.5053 H   0  0  0  0  0  0  0  0  0  0  0  0
  151.6984  137.1575  153.9492 H   0  0  0  0  0  0  0  0  0  0  0  0
  151.3242  134.0351  156.6120 H   0  0  0  0  0  0  0  0  0  0  0  0
  1  2  1  0  0  0  0
  1 20  1  0  0  0  0
  1 21  1  0  0  0  0
  1 22  1  0  0  0  0
  2  3  1  0  0  0  0
  2 10  1  0  0  0  0
  2 23  1  0  0  0  0
  3  4  1  0  0  0  0
  3 24  1  0  0  0  0
  3 25  1  0  0  0  0
  4  9  1  0  0  0  0
  4  5  1  0  0  0  0
  5  6  1  0  0  0  0
  5 26  1  0  0  0  0
  5 27  1  0  0  0  0
  6  7  1  0  0  0  0
  6 28  1  0  0  0  0
  6 29  1  0  0  0  0
  7  8  1  0  0  0  0
  8  9  1  0  0  0  0
  8 30  1  0  0  0  0
  8 31  1  0  0  0  0
  9 32  1  0  0  0  0
  9 33  1  0  0  0  0
 10 11  1  0  0  0  0
 10 34  1  0  0  0  0
 11 12  2  0  0  0  0
 11 13  1  0  0  0  0
 13 14  1  0  0  0  0
 13 15  1  0  0  0  0
 13 35  1  0  0  0  0
 14 36  1  0  0  0  0
 14 37  1  0  0  0  0
 14 38  1  0  0  0  0
 15 19  1  0  0  0  0
 15 16  1  0  0  0  0
 16 17  2  0  0  0  0
 16 39  1  0  0  0  0
 17 18  1  0  0  0  0
 18 19  2  0  0  0  0
 18 40  1  0  0  0  0
M  END
> <s_m_source_file>
AV-unprocessed.smi

> <i_m_source_file_index>
3345

> <i_lp_mmshare_version>
43012

> <i_f3d_flags>
0

> <s_epik_input>
W0NIMl0xW0NIMl1PW0NIMl1bQ0gyXU4xW0NIMl1bQ0BASF0oW0NIM10pW05IXUMoPU8pW0NASF0oW0NIM10pbjJbY0hdbltjSF1uMg==

> <s_epik_cmdline>
J2VwaWtfcHl0aG9uJywgJy1waCcsICc3LjAnLCAnLXRuJywgJzgnLCAnLW1hJywgJzIwMCcsICctbWV0YWxfYmluZGluZycsICctaW1hZScsICc8aW5maWxlLm1hZT4nLCAnLW9tYWUnLCAnPG91dGZpbGUubWFlPic=

> <r_lp_tautomer_probability>
1

> <r_epik_Ionization_Penalty>
0.211373

> <r_epik_Ionization_Penalty_Charging>
0

> <r_epik_Ionization_Penalty_Neutral>
0.211373

> <r_epik_State_Penalty>
0.201459

> <r_epik_Charging_Adjusted_Penalty>
0.201459

> <i_epik_Tot_Q>
0

> <i_epik_Tot_abs_Q>
0

> <r_epik_Metal_State_Penalty>
0.201458

> <b_epik_Metal_Only>
0

> <s_lp_Force_Field>
OPLS_2005

> <r_lp_Energy>
31.9378

> <b_lp_Chiralities_Consistent>
1

> <s_lp_Variant>
AV-unprocessed.smi:3345-2

> <Gold.Version>
5.8.1

> <Gold.Id.Protein>
6NUR|6NUR_protein|mol2

> <Gold.PLP.Fitness>
35.7764

> <Gold.PLP.PLP>
-30.8802

> <Gold.PLP.part.hbond>
-2.0000

> <Gold.PLP.part.metal>
0.0000

> <Gold.PLP.part.buried>
-5.2018

> <Gold.PLP.part.nonpolar>
-23.7547

> <Gold.PLP.part.repulsive>
0.5083

> <Gold.PLP.ligand.clash>
0.0000

> <Gold.PLP.ligand.torsion>
1.0919

> <Gold.PLP.Chemscore.Hbond>
1.8160

> <Gold.PLP.Chemscore.CHOScore>
0.5009

> <Gold.PLP.Chemscore.Metal>
0.0000

> <Gold.Chemscore.Hbonds>
donor molecule, donor type, donor heavy atom, donor atom, acceptor molecule, acceptor atom, score
      P1  H  7989  7998       L1    12  0.28
      L1  C    16    39       P1  7949  0.30

> <Gold.PLP.Chemscore.Internal.Correction>
0.1294

> <Gold.Rescore>
     Score         DG    S(hbond)    S(metal)    S(lipo)     H(rot)  DE(clash)    DE(int)     intcor
     10.07     -11.69       1.03        0.00      79.15       2.54       0.46       1.16       ----

> <Gold.Chemscore.Fitness>
10.0672

> <Gold.Chemscore.DG>
-11.6947

> <Gold.Chemscore.ZeroCoef>
-5.4800

> <Gold.Chemscore.Hbond>
1.0315

> <Gold.Chemscore.Metal>
0.0000

> <Gold.Chemscore.Lipo>
79.1466

> <Gold.Chemscore.Internal_Hbond>
0.0000

> <Gold.Chemscore.DEClash>
0.4645

> <Gold.Chemscore.DEInternal>
1.1630

> <Gold.Chemscore.Rot>
2.5353

> <Gold.Chemscore.Internal.Correction>
   9.000000E+99

> <Gold.Chemscore.Hbonds>
donor molecule, donor type, donor heavy atom, donor atom, acceptor molecule, acceptor atom, score
      P1  H  7989  7998       L1    12  0.28

> <Gold.Chemscore.Hbond.Weighted>
-3.4451

> <Gold.Chemscore.Metal.Weighted>
-0.0000

> <Gold.Chemscore.Lipo.Weighted>
-9.2601

> <Gold.Chemscore.Internal_Hbond.Weighted>
0.0000

> <Gold.Chemscore.DEClash.Weighted>
0.4645

> <Gold.Chemscore.DEInternal.Weighted>
1.1630

> <Gold.Chemscore.Rot.Weighted>
6.4905

> <Gold.Chemscore.Internal.Correction.Weighted>
   9.000000E+99

> <Gold.Protein.RotatedTorsions>
[ 6907 6896 6895 6894 ] final  120.66 input  -60.11 | X-H torsion
[ 7974 7965 7964 7962 ] final  126.19 input  175.53 | X-H torsion
[ 8008 7997 7996 7995 ] final -163.51 input   59.86 | X-H torsion
[ 10167 10162 10161 10158 ] final  126.98 input  -65.29 | X-H torsion
[ 10718 10713 10712 10709 ] final   66.82 input   66.30 | X-H torsion
[ 10763 10752 10751 10750 ] final -128.57 input  -60.55 | X-H torsion
[ 11005 11000 10999 10996 ] final -177.08 input  -57.11 | X-H torsion

> <Gold.Protein.ActiveResidues>
 VAL166  LYS551  ARG553  GLY616  TRP617  ASP618  TYR619  PRO620  LYS621  CYS622 
 ASP623  PHE694  ASN695  SER759  ASP760  ASP761  ALA762  ILE779  LEU786  VAL792 
 PHE793  MET794  SER795  GLU796  ALA797  LYS798  CYS799  TRP800  GLU811  SER814 

> <Gold.Protein.RotatedAtoms>
  152.4381  133.7398  159.6634 H   0  0  0  0  0  0  0  0  0  0  0  0  # atno 6907 bound_to 6896
  150.8268  133.8148  159.3121 H   0  0  0  0  0  0  0  0  0  0  0  0  # atno 6908 bound_to 6896
  151.5814  135.1060  160.0070 H   0  0  0  0  0  0  0  0  0  0  0  0  # atno 6909 bound_to 6896
  145.0645  139.3778  143.4989 H   0  0  0  0  0  0  0  0  0  0  0  0  # atno 7974 bound_to 7965
  155.8223  140.0921  157.1842 H   0  0  0  0  0  0  0  0  0  0  0  0  # atno 8008 bound_to 7997
  154.3979  140.1434  156.3574 H   0  0  0  0  0  0  0  0  0  0  0  0  # atno 8009 bound_to 7997
  155.8253  140.3445  155.5542 H   0  0  0  0  0  0  0  0  0  0  0  0  # atno 8010 bound_to 7997
  139.5602  144.6876  151.4065 H   0  0  0  0  0  0  0  0  0  0  0  0  # atno 10167 bound_to 10162
  157.6193  130.9288  150.0160 H   0  0  0  0  0  0  0  0  0  0  0  0  # atno 10718 bound_to 10713
  154.8756  135.3924  154.3778 H   0  0  0  0  0  0  0  0  0  0  0  0  # atno 10763 bound_to 10752
  153.4529  135.7028  153.6102 H   0  0  0  0  0  0  0  0  0  0  0  0  # atno 10764 bound_to 10752
  153.4634  135.3807  155.2320 H   0  0  0  0  0  0  0  0  0  0  0  0  # atno 10765 bound_to 10752
  140.4449  134.6397  157.4775 H   0  0  0  0  0  0  0  0  0  0  0  0  # atno 11005 bound_to 11000
  146.3526  140.0360  142.8646 LP  0  0  0  0  0  0  0  0  0  0  0  0  # atno 17320 bound_to 7965
  145.1368  140.9549  143.4512 LP  0  0  0  0  0  0  0  0  0  0  0  0  # atno 17321 bound_to 7965
  140.6881  143.7927  150.7215 LP  0  0  0  0  0  0  0  0  0  0  0  0  # atno 17342 bound_to 10162
  140.1401  143.4449  152.2199 LP  0  0  0  0  0  0  0  0  0  0  0  0  # atno 17343 bound_to 10162
  156.1330  130.3643  149.9702 LP  0  0  0  0  0  0  0  0  0  0  0  0  # atno 17370 bound_to 10713
  156.7759  130.9203  151.3645 LP  0  0  0  0  0  0  0  0  0  0  0  0  # atno 17371 bound_to 10713
  140.0045  134.6785  155.9477 LP  0  0  0  0  0  0  0  0  0  0  0  0  # atno 17394 bound_to 11000
  141.1689  133.6537  156.4581 LP  0  0  0  0  0  0  0  0  0  0  0  0  # atno 17395 bound_to 11000

$$$$
