AV-unprocessed.smi:99|AV-procd|sdf|869|dock8
  -GOLD-   2262017323D 1   1.00000     0.00000
 Structure written by MMmdl.
 53 56  0  0  0  0  0  0  0  0  1 V2000
  151.3836  140.5478  156.3202 O   0  0  0  0  0  0  0  0  0  0  0  0
  151.9726  140.0860  157.2998 C   0  0  0  0  0  0  0  0  0  0  0  0
  152.2427  138.7750  157.4567 O   0  0  0  0  0  0  0  0  0  0  0  0
  151.8267  137.8444  156.4712 C   0  0  0  0  0  0  0  0  0  0  0  0
  151.1005  136.6718  157.1489 C   0  0  2  0  0  0  0  0  0  0  0  0
  151.4839  135.4559  156.5177 O   0  0  0  0  0  0  0  0  0  0  0  0
  150.6263  135.1767  155.4561 C   0  0  1  0  0  0  0  0  0  0  0  0
  150.4031  133.6771  155.4463 N   0  0  0  0  0  0  0  0  0  0  0  0
  151.1488  132.8337  156.2622 C   0  0  0  0  0  0  0  0  0  0  0  0
  151.0497  131.4840  156.2287 C   0  0  0  0  0  0  0  0  0  0  0  0
  150.1474  130.8326  155.2865 C   0  0  0  0  0  0  0  0  0  0  0  0
  149.9765  129.6192  155.1903 O   0  0  0  0  0  0  0  0  0  0  0  0
  149.4578  131.7108  154.4465 N   0  0  0  0  0  0  0  0  0  0  0  0
  149.5634  133.1028  154.4630 C   0  0  0  0  0  0  0  0  0  0  0  0
  148.9313  133.7680  153.6432 O   0  0  0  0  0  0  0  0  0  0  0  0
  149.3309  135.9911  155.6479 C   0  0  2  0  0  0  0  0  0  0  0  0
  149.1263  136.9278  154.6086 O   0  0  0  0  0  0  0  0  0  0  0  0
  149.5817  136.7379  156.9572 C   0  0  1  0  0  0  0  0  0  0  0  0
  148.9508  136.0873  158.0535 O   0  0  0  0  0  0  0  0  0  0  0  0
  148.9010  136.6665  159.2720 C   0  0  0  0  0  0  0  0  0  0  0  0
  149.3528  137.7870  159.5155 O   0  0  0  0  0  0  0  0  0  0  0  0
  148.2304  135.8086  160.2902 C   0  0  0  0  0  0  0  0  0  0  0  0
  147.9464  136.3427  161.5688 C   0  0  0  0  0  0  0  0  0  0  0  0
  147.3107  135.5562  162.5492 C   0  0  0  0  0  0  0  0  0  0  0  0
  146.9502  134.2266  162.2627 C   0  0  0  0  0  0  0  0  0  0  0  0
  147.2256  133.6842  160.9940 C   0  0  0  0  0  0  0  0  0  0  0  0
  147.8617  134.4688  160.0123 C   0  0  0  0  0  0  0  0  0  0  0  0
  152.4601  140.9206  158.4356 C   0  0  0  0  0  0  0  0  0  0  0  0
  152.1747  142.3059  158.4495 C   0  0  0  0  0  0  0  0  0  0  0  0
  152.6213  143.1200  159.5085 C   0  0  0  0  0  0  0  0  0  0  0  0
  153.3586  142.5586  160.5671 C   0  0  0  0  0  0  0  0  0  0  0  0
  153.6499  141.1821  160.5648 C   0  0  0  0  0  0  0  0  0  0  0  0
  153.2042  140.3662  159.5064 C   0  0  0  0  0  0  0  0  0  0  0  0
  148.8401  131.3026  153.7597 H   0  0  0  0  0  0  0  0  0  0  0  0
  151.1489  138.3473  155.7801 H   0  0  0  0  0  0  0  0  0  0  0  0
  152.6817  137.4921  155.8926 H   0  0  0  0  0  0  0  0  0  0  0  0
  151.3612  136.6508  158.2082 H   0  0  0  0  0  0  0  0  0  0  0  0
  151.1175  135.4432  154.5191 H   0  0  0  0  0  0  0  0  0  0  0  0
  151.8560  133.2525  156.9596 H   0  0  0  0  0  0  0  0  0  0  0  0
  151.6489  130.8823  156.8971 H   0  0  0  0  0  0  0  0  0  0  0  0
  148.4480  135.3531  155.6843 H   0  0  0  0  0  0  0  0  0  0  0  0
  149.1755  136.4760  153.7801 H   0  0  0  0  0  0  0  0  0  0  0  0
  149.2456  137.7756  156.9143 H   0  0  0  0  0  0  0  0  0  0  0  0
  148.2139  137.3612  161.8120 H   0  0  0  0  0  0  0  0  0  0  0  0
  147.0998  135.9742  163.5225 H   0  0  0  0  0  0  0  0  0  0  0  0
  146.4630  133.6236  163.0148 H   0  0  0  0  0  0  0  0  0  0  0  0
  146.9484  132.6640  160.7724 H   0  0  0  0  0  0  0  0  0  0  0  0
  148.0564  134.0213  159.0483 H   0  0  0  0  0  0  0  0  0  0  0  0
  151.6095  142.7596  157.6480 H   0  0  0  0  0  0  0  0  0  0  0  0
  152.3970  144.1765  159.5083 H   0  0  0  0  0  0  0  0  0  0  0  0
  153.6999  143.1831  161.3797 H   0  0  0  0  0  0  0  0  0  0  0  0
  154.2161  140.7499  161.3768 H   0  0  0  0  0  0  0  0  0  0  0  0
  153.4449  139.3136  159.5358 H   0  0  0  0  0  0  0  0  0  0  0  0
  1  2  2  0  0  0  0
  2  3  1  0  0  0  0
  2 28  1  0  0  0  0
  3  4  1  0  0  0  0
  4  5  1  0  0  0  0
  4 35  1  0  0  0  0
  4 36  1  0  0  0  0
  5 18  1  0  0  0  0
  5  6  1  0  0  0  0
  5 37  1  0  0  0  0
  6  7  1  0  0  0  0
  7  8  1  0  0  0  0
  7 16  1  0  0  0  0
  7 38  1  0  0  0  0
  8 14  1  0  0  0  0
  8  9  1  0  0  0  0
  9 10  2  0  0  0  0
  9 39  1  0  0  0  0
 10 11  1  0  0  0  0
 10 40  1  0  0  0  0
 11 12  2  0  0  0  0
 11 13  1  0  0  0  0
 13 34  1  0  0  0  0
 13 14  1  0  0  0  0
 14 15  2  0  0  0  0
 16 17  1  0  0  0  0
 16 18  1  0  0  0  0
 16 41  1  0  0  0  0
 17 42  1  0  0  0  0
 18 19  1  0  0  0  0
 18 43  1  0  0  0  0
 19 20  1  0  0  0  0
 20 21  2  0  0  0  0
 20 22  1  0  0  0  0
 22 27  1  0  0  0  0
 22 23  2  0  0  0  0
 23 24  1  0  0  0  0
 23 44  1  0  0  0  0
 24 25  2  0  0  0  0
 24 45  1  0  0  0  0
 25 26  1  0  0  0  0
 25 46  1  0  0  0  0
 26 27  2  0  0  0  0
 26 47  1  0  0  0  0
 27 48  1  0  0  0  0
 28 33  1  0  0  0  0
 28 29  2  0  0  0  0
 29 30  1  0  0  0  0
 29 49  1  0  0  0  0
 30 31  2  0  0  0  0
 30 50  1  0  0  0  0
 31 32  1  0  0  0  0
 31 51  1  0  0  0  0
 32 33  2  0  0  0  0
 32 52  1  0  0  0  0
 33 53  1  0  0  0  0
M  END
> <s_m_source_file>
AV-unprocessed.smi

> <i_m_source_file_index>
99

> <i_lp_mmshare_version>
43012

> <i_f3d_flags>
0

> <s_epik_input>
W2NIXTFbY0hdW2NIXVtjSF1bY0hdYzFDKD1PKU9bQ0gyXVtDQEBIXTJPW0NAQEhdKG4zW2NIXVtjSF1jKD1PKVtuSF1jMz1PKVtDQEBIXShbT0hdKVtDQEhdMk9DKD1PKWM0W2NIXVtjSF1bY0hdW2NIXVtjSF00

> <s_epik_cmdline>
J2VwaWtfcHl0aG9uJywgJy1waCcsICc3LjAnLCAnLXRuJywgJzgnLCAnLW1hJywgJzIwMCcsICctbWV0YWxfYmluZGluZycsICctaW1hZScsICc8aW5maWxlLm1hZT4nLCAnLW9tYWUnLCAnPG91dGZpbGUubWFlPic=

> <r_lp_tautomer_probability>
1

> <r_epik_Ionization_Penalty>
0.00454555

> <r_epik_Ionization_Penalty_Charging>
0.0045191

> <r_epik_Ionization_Penalty_Neutral>
2.64449e-05

> <r_epik_State_Penalty>
-0

> <r_epik_Charging_Adjusted_Penalty>
0.0045191

> <i_epik_Tot_Q>
0

> <i_epik_Tot_abs_Q>
0

> <r_epik_Metal_State_Penalty>
1.27877

> <b_epik_Metal_Only>
0

> <s_epik_Chemistry_Notes>
This compound has an ester and may undergo hydrolysis at high or low pH. This compound contains an acetal/aminal-like group ( X-CH(R)-Y where X, Y are N, S, or O) that may be acid/base labile, releasing an aldehyde.

> <s_lp_Force_Field>
OPLS_2005

> <r_lp_Energy>
32.4523

> <b_lp_Chiralities_Consistent>
1

> <s_lp_Variant>
AV-unprocessed.smi:99-5

> <Gold.Version>
5.8.1

> <Gold.Id.Protein>
6NUR|6NUR_protein|mol2

> <Gold.PLP.Fitness>
59.3001

> <Gold.PLP.PLP>
-57.2322

> <Gold.PLP.part.hbond>
-2.9177

> <Gold.PLP.part.metal>
0.0000

> <Gold.PLP.part.buried>
-8.2916

> <Gold.PLP.part.nonpolar>
-45.9781

> <Gold.PLP.part.repulsive>
0.2282

> <Gold.PLP.ligand.clash>
0.0000

> <Gold.PLP.ligand.torsion>
1.1283

> <Gold.PLP.Chemscore.Hbond>
1.3321

> <Gold.PLP.Chemscore.CHOScore>
0.0000

> <Gold.PLP.Chemscore.Metal>
0.0000

> <Gold.Chemscore.Hbonds>
donor molecule, donor type, donor heavy atom, donor atom, acceptor molecule, acceptor atom, score
      L1  H    17    42       P1  7948  1.00
      P1  H 10752 10764       L1     6  0.31

> <Gold.PLP.Chemscore.Internal.Correction>
0.3281

> <Gold.Rescore>
     Score         DG    S(hbond)    S(metal)    S(lipo)     H(rot)  DE(clash)    DE(int)     intcor
     13.49     -15.77       0.97        0.00     129.98       3.19       0.11       2.17       ----

> <Gold.Chemscore.Fitness>
13.4887

> <Gold.Chemscore.DG>
-15.7688

> <Gold.Chemscore.ZeroCoef>
-5.4800

> <Gold.Chemscore.Hbond>
0.9725

> <Gold.Chemscore.Metal>
0.0000

> <Gold.Chemscore.Lipo>
129.9801

> <Gold.Chemscore.Internal_Hbond>
0.0000

> <Gold.Chemscore.DEClash>
0.1118

> <Gold.Chemscore.DEInternal>
2.1683

> <Gold.Chemscore.Rot>
3.1903

> <Gold.Chemscore.Internal.Correction>
   9.000000E+99

> <Gold.Chemscore.Hbonds>
donor molecule, donor type, donor heavy atom, donor atom, acceptor molecule, acceptor atom, score
      L1  H    17    42       P1  7948  0.95
      P1  H  6931  6943       L1    21  0.01
      P1  H 10752 10764       L1     6  0.03

> <Gold.Chemscore.Hbond.Weighted>
-3.2482

> <Gold.Chemscore.Metal.Weighted>
-0.0000

> <Gold.Chemscore.Lipo.Weighted>
-15.2077

> <Gold.Chemscore.Internal_Hbond.Weighted>
0.0000

> <Gold.Chemscore.DEClash.Weighted>
0.1118

> <Gold.Chemscore.DEInternal.Weighted>
2.1683

> <Gold.Chemscore.Rot.Weighted>
8.1671

> <Gold.Chemscore.Internal.Correction.Weighted>
   9.000000E+99

> <Gold.Protein.RotatedTorsions>
[ 6907 6896 6895 6894 ] final  -95.02 input  -60.11 | X-H torsion
[ 7974 7965 7964 7962 ] final -155.00 input  175.53 | X-H torsion
[ 8008 7997 7996 7995 ] final -136.34 input   59.86 | X-H torsion
[ 10167 10162 10161 10158 ] final -146.49 input  -65.29 | X-H torsion
[ 10718 10713 10712 10709 ] final  151.86 input   66.30 | X-H torsion
[ 10763 10752 10751 10750 ] final  -15.15 input  -60.55 | X-H torsion
[ 11005 11000 10999 10996 ] final  -60.18 input  -57.11 | X-H torsion

> <Gold.Protein.ActiveResidues>
 VAL166  LYS551  ARG553  GLY616  TRP617  ASP618  TYR619  PRO620  LYS621  CYS622 
 ASP623  PHE694  ASN695  SER759  ASP760  ASP761  ALA762  ILE779  LEU786  VAL792 
 PHE793  MET794  SER795  GLU796  ALA797  LYS798  CYS799  TRP800  GLU811  SER814 

> <Gold.Protein.RotatedAtoms>
  150.6954  134.1722  159.4216 H   0  0  0  0  0  0  0  0  0  0  0  0  # atno 6907 bound_to 6896
  151.9699  135.0079  160.0561 H   0  0  0  0  0  0  0  0  0  0  0  0  # atno 6908 bound_to 6896
  152.1851  133.4699  159.5015 H   0  0  0  0  0  0  0  0  0  0  0  0  # atno 6909 bound_to 6896
  144.7661  140.4310  143.5941 H   0  0  0  0  0  0  0  0  0  0  0  0  # atno 7974 bound_to 7965
  155.3936  140.0501  157.3039 H   0  0  0  0  0  0  0  0  0  0  0  0  # atno 8008 bound_to 7997
  154.5024  140.2162  155.9280 H   0  0  0  0  0  0  0  0  0  0  0  0  # atno 8009 bound_to 7997
  156.1484  140.3141  155.8613 H   0  0  0  0  0  0  0  0  0  0  0  0  # atno 8010 bound_to 7997
  139.7708  143.8241  152.2624 H   0  0  0  0  0  0  0  0  0  0  0  0  # atno 10167 bound_to 10162
  157.2653  131.0806  151.1638 H   0  0  0  0  0  0  0  0  0  0  0  0  # atno 10718 bound_to 10713
  153.5389  135.7013  153.5646 H   0  0  0  0  0  0  0  0  0  0  0  0  # atno 10763 bound_to 10752
  153.3620  135.3967  155.1725 H   0  0  0  0  0  0  0  0  0  0  0  0  # atno 10764 bound_to 10752
  154.8676  135.3791  154.4892 H   0  0  0  0  0  0  0  0  0  0  0  0  # atno 10765 bound_to 10752
  141.1277  133.6620  156.5184 H   0  0  0  0  0  0  0  0  0  0  0  0  # atno 11005 bound_to 11000
  145.6465  139.1558  143.2886 LP  0  0  0  0  0  0  0  0  0  0  0  0  # atno 17320 bound_to 7965
  146.1770  140.6558  142.9207 LP  0  0  0  0  0  0  0  0  0  0  0  0  # atno 17321 bound_to 7965
  139.8274  144.7269  150.9494 LP  0  0  0  0  0  0  0  0  0  0  0  0  # atno 17342 bound_to 10162
  140.7814  143.4101  151.1006 LP  0  0  0  0  0  0  0  0  0  0  0  0  # atno 17343 bound_to 10162
  157.3131  130.6900  149.6227 LP  0  0  0  0  0  0  0  0  0  0  0  0  # atno 17370 bound_to 10713
  155.9663  130.4357  150.5105 LP  0  0  0  0  0  0  0  0  0  0  0  0  # atno 17371 bound_to 10713
  140.4312  134.7100  157.4943 LP  0  0  0  0  0  0  0  0  0  0  0  0  # atno 17394 bound_to 11000
  140.0292  134.6431  155.9130 LP  0  0  0  0  0  0  0  0  0  0  0  0  # atno 17395 bound_to 11000

$$$$
