AV-unprocessed.smi:1373|AV-procd|sdf|5586|dock7
  -GOLD-   22720 5183D 1   1.00000     0.00000
 Structure written by MMmdl.
 42 43  0  0  0  0  0  0  0  0  1 V2000
  152.4717  144.4278  158.4424 C   0  0  0  0  0  0  0  0  0  0  0  0
  152.6104  143.3358  159.5089 C   0  0  0  0  0  0  0  0  0  0  0  0
  153.0466  141.9878  158.9187 C   0  0  0  0  0  0  0  0  0  0  0  0
  151.9069  141.2769  158.1721 C   0  0  0  0  0  0  0  0  0  0  0  0
  152.4126  140.1993  157.3306 N   0  0  0  0  0  0  0  0  0  0  0  0
  151.9418  139.8800  156.1137 C   0  0  0  0  0  0  0  0  0  0  0  0
  151.0218  140.4868  155.5653 O   0  0  0  0  0  0  0  0  0  0  0  0
  152.6207  138.7112  155.3924 C   0  0  0  0  0  0  0  0  0  0  0  0
  151.7327  137.5074  155.3524 C   0  0  0  0  0  0  0  0  0  0  0  0
  150.5402  137.5446  154.7682 N   0  0  0  0  0  0  0  0  0  0  0  0
  150.0353  136.2534  154.9791 O   0  0  0  0  0  0  0  0  0  0  0  0
  150.9962  135.5889  155.6643 C   0  0  0  0  0  0  0  0  0  0  0  0
  150.7453  134.1751  156.0781 C   0  0  0  0  0  0  0  0  0  0  0  0
  150.3514  133.3046  154.9716 N   0  0  0  0  0  0  0  0  0  0  0  0
  150.3892  131.9015  155.3671 C   0  0  0  0  0  0  0  0  0  0  0  0
  149.9802  130.9696  154.2133 C   0  0  0  0  0  0  0  0  0  0  0  0
  148.6835  131.3291  153.7470 O   0  0  0  0  0  0  0  0  0  0  0  0
  148.6137  132.6815  153.3068 C   0  0  0  0  0  0  0  0  0  0  0  0
  149.0204  133.6207  154.4556 C   0  0  0  0  0  0  0  0  0  0  0  0
  152.0823  136.3158  155.9126 N   0  0  0  0  0  0  0  0  0  0  0  0
  152.1551  145.3704  158.8898 H   0  0  0  0  0  0  0  0  0  0  0  0
  151.7320  144.1520  157.6902 H   0  0  0  0  0  0  0  0  0  0  0  0
  153.4196  144.6031  157.9328 H   0  0  0  0  0  0  0  0  0  0  0  0
  153.3317  143.6581  160.2606 H   0  0  0  0  0  0  0  0  0  0  0  0
  151.6579  143.2162  160.0263 H   0  0  0  0  0  0  0  0  0  0  0  0
  153.8861  142.1471  158.2405 H   0  0  0  0  0  0  0  0  0  0  0  0
  153.4137  141.3431  159.7183 H   0  0  0  0  0  0  0  0  0  0  0  0
  151.2063  140.8452  158.8878 H   0  0  0  0  0  0  0  0  0  0  0  0
  151.3374  141.9893  157.5725 H   0  0  0  0  0  0  0  0  0  0  0  0
  153.1738  139.6495  157.7029 H   0  0  0  0  0  0  0  0  0  0  0  0
  152.8844  139.0055  154.3754 H   0  0  0  0  0  0  0  0  0  0  0  0
  153.5525  138.4648  155.9031 H   0  0  0  0  0  0  0  0  0  0  0  0
  151.6620  133.7984  156.5333 H   0  0  0  0  0  0  0  0  0  0  0  0
  149.9829  134.1645  156.8586 H   0  0  0  0  0  0  0  0  0  0  0  0
  151.3923  131.6388  155.7043 H   0  0  0  0  0  0  0  0  0  0  0  0
  149.7221  131.7376  156.2151 H   0  0  0  0  0  0  0  0  0  0  0  0
  150.6990  131.0304  153.3945 H   0  0  0  0  0  0  0  0  0  0  0  0
  149.9641  129.9331  154.5501 H   0  0  0  0  0  0  0  0  0  0  0  0
  149.2649  132.8245  152.4430 H   0  0  0  0  0  0  0  0  0  0  0  0
  147.5966  132.8998  152.9812 H   0  0  0  0  0  0  0  0  0  0  0  0
  148.2853  133.5484  155.2588 H   0  0  0  0  0  0  0  0  0  0  0  0
  148.9883  134.6490  154.0951 H   0  0  0  0  0  0  0  0  0  0  0  0
  1  2  1  0  0  0  0
  1 21  1  0  0  0  0
  1 22  1  0  0  0  0
  1 23  1  0  0  0  0
  2  3  1  0  0  0  0
  2 24  1  0  0  0  0
  2 25  1  0  0  0  0
  3  4  1  0  0  0  0
  3 26  1  0  0  0  0
  3 27  1  0  0  0  0
  4  5  1  0  0  0  0
  4 28  1  0  0  0  0
  4 29  1  0  0  0  0
  5  6  1  0  0  0  0
  5 30  1  0  0  0  0
  6  7  2  0  0  0  0
  6  8  1  0  0  0  0
  8  9  1  0  0  0  0
  8 31  1  0  0  0  0
  8 32  1  0  0  0  0
  9 20  1  0  0  0  0
  9 10  2  0  0  0  0
 10 11  1  0  0  0  0
 11 12  1  0  0  0  0
 12 13  1  0  0  0  0
 12 20  2  0  0  0  0
 13 14  1  0  0  0  0
 13 33  1  0  0  0  0
 13 34  1  0  0  0  0
 14 19  1  0  0  0  0
 14 15  1  0  0  0  0
 15 16  1  0  0  0  0
 15 35  1  0  0  0  0
 15 36  1  0  0  0  0
 16 17  1  0  0  0  0
 16 37  1  0  0  0  0
 16 38  1  0  0  0  0
 17 18  1  0  0  0  0
 18 19  1  0  0  0  0
 18 39  1  0  0  0  0
 18 40  1  0  0  0  0
 19 41  1  0  0  0  0
 19 42  1  0  0  0  0
M  END
> <s_m_source_file>
AV-unprocessed.smi

> <i_m_source_file_index>
1373

> <i_lp_mmshare_version>
43012

> <i_f3d_flags>
0

> <s_epik_input>
W0NIM11bQ0gyXVtDSDJdW0NIMl1bTkhdQyg9TylbQ0gyXWMxbm9jKG4xKVtDSDJdTjJbQ0gyXVtDSDJdT1tDSDJdW0NIMl0y

> <s_epik_cmdline>
J2VwaWtfcHl0aG9uJywgJy1waCcsICc3LjAnLCAnLXRuJywgJzgnLCAnLW1hJywgJzIwMCcsICctbWV0YWxfYmluZGluZycsICctaW1hZScsICc8aW5maWxlLm1hZT4nLCAnLW9tYWUnLCAnPG91dGZpbGUubWFlPic=

> <r_lp_tautomer_probability>
1

> <r_epik_Ionization_Penalty>
0.0010147

> <r_epik_Ionization_Penalty_Charging>
0

> <r_epik_Ionization_Penalty_Neutral>
0.0010147

> <r_epik_State_Penalty>
0.00066205

> <r_epik_Charging_Adjusted_Penalty>
0.00066205

> <i_epik_Tot_Q>
0

> <i_epik_Tot_abs_Q>
0

> <r_epik_Metal_State_Penalty>
-0

> <b_epik_Metal_Only>
0

> <s_lp_Force_Field>
OPLS_2005

> <r_lp_Energy>
19.0751

> <b_lp_Chiralities_Consistent>
1

> <s_lp_Variant>
AV-unprocessed.smi:1373-1

> <Gold.Version>
5.8.1

> <Gold.Id.Protein>
6NUR|6NUR_protein|mol2

> <Gold.PLP.Fitness>
42.8096

> <Gold.PLP.PLP>
-37.9860

> <Gold.PLP.part.hbond>
-2.0000

> <Gold.PLP.part.metal>
0.0000

> <Gold.PLP.part.buried>
-5.8641

> <Gold.PLP.part.nonpolar>
-31.9762

> <Gold.PLP.part.repulsive>
1.6946

> <Gold.PLP.ligand.clash>
0.0000

> <Gold.PLP.ligand.torsion>
0.5060

> <Gold.PLP.Chemscore.Hbond>
1.9280

> <Gold.PLP.Chemscore.CHOScore>
0.0000

> <Gold.PLP.Chemscore.Metal>
0.0000

> <Gold.Chemscore.Hbonds>
donor molecule, donor type, donor heavy atom, donor atom, acceptor molecule, acceptor atom, score
      P1  H  7989  7998       L1     7  0.57
      P1  H 10752 10763       L1    20  1.00

> <Gold.PLP.Chemscore.Internal.Correction>
0.0516

> <Gold.Rescore>
     Score         DG    S(hbond)    S(metal)    S(lipo)     H(rot)  DE(clash)    DE(int)     intcor
     11.25     -13.24       1.23        0.00      81.36       2.29       0.32       1.67       ----

> <Gold.Chemscore.Fitness>
11.2469

> <Gold.Chemscore.DG>
-13.2386

> <Gold.Chemscore.ZeroCoef>
-5.4800

> <Gold.Chemscore.Hbond>
1.2291

> <Gold.Chemscore.Metal>
0.0000

> <Gold.Chemscore.Lipo>
81.3585

> <Gold.Chemscore.Internal_Hbond>
0.0000

> <Gold.Chemscore.DEClash>
0.3214

> <Gold.Chemscore.DEInternal>
1.6703

> <Gold.Chemscore.Rot>
2.2912

> <Gold.Chemscore.Internal.Correction>
   9.000000E+99

> <Gold.Chemscore.Hbonds>
donor molecule, donor type, donor heavy atom, donor atom, acceptor molecule, acceptor atom, score
      P1  H  7989  7998       L1     7  0.34
      P1  H 10752 10763       L1    20  0.27

> <Gold.Chemscore.Hbond.Weighted>
-4.1051

> <Gold.Chemscore.Metal.Weighted>
-0.0000

> <Gold.Chemscore.Lipo.Weighted>
-9.5189

> <Gold.Chemscore.Internal_Hbond.Weighted>
0.0000

> <Gold.Chemscore.DEClash.Weighted>
0.3214

> <Gold.Chemscore.DEInternal.Weighted>
1.6703

> <Gold.Chemscore.Rot.Weighted>
5.8654

> <Gold.Chemscore.Internal.Correction.Weighted>
   9.000000E+99

> <Gold.Protein.RotatedTorsions>
[ 6907 6896 6895 6894 ] final  170.01 input  -60.11 | X-H torsion
[ 7974 7965 7964 7962 ] final   89.53 input  175.53 | X-H torsion
[ 8008 7997 7996 7995 ] final  101.43 input   59.86 | X-H torsion
[ 10167 10162 10161 10158 ] final  114.11 input  -65.29 | X-H torsion
[ 10718 10713 10712 10709 ] final   48.21 input   66.30 | X-H torsion
[ 10763 10752 10751 10750 ] final   97.21 input  -60.55 | X-H torsion
[ 11005 11000 10999 10996 ] final -103.18 input  -57.11 | X-H torsion

> <Gold.Protein.ActiveResidues>
 VAL166  LYS551  ARG553  GLY616  TRP617  ASP618  TYR619  PRO620  LYS621  CYS622 
 ASP623  PHE694  ASN695  SER759  ASP760  ASP761  ALA762  ILE779  LEU786  VAL792 
 PHE793  MET794  SER795  GLU796  ALA797  LYS798  CYS799  TRP800  GLU811  SER814 

> <Gold.Protein.RotatedAtoms>
  151.8228  133.3397  159.3589 H   0  0  0  0  0  0  0  0  0  0  0  0  # atno 6907 bound_to 6896
  150.7289  134.5557  159.5826 H   0  0  0  0  0  0  0  0  0  0  0  0  # atno 6908 bound_to 6896
  152.2993  134.7630  160.0412 H   0  0  0  0  0  0  0  0  0  0  0  0  # atno 6909 bound_to 6896
  145.5311  139.2283  143.2618 H   0  0  0  0  0  0  0  0  0  0  0  0  # atno 7974 bound_to 7965
  156.1298  140.3197  155.8332 H   0  0  0  0  0  0  0  0  0  0  0  0  # atno 8008 bound_to 7997
  155.4353  140.0521  157.3032 H   0  0  0  0  0  0  0  0  0  0  0  0  # atno 8009 bound_to 7997
  154.4890  140.2084  155.9603 H   0  0  0  0  0  0  0  0  0  0  0  0  # atno 8010 bound_to 7997
  139.6412  144.7124  151.2233 H   0  0  0  0  0  0  0  0  0  0  0  0  # atno 10167 bound_to 10162
  157.4664  130.8228  149.7940 H   0  0  0  0  0  0  0  0  0  0  0  0  # atno 10718 bound_to 10713
  153.2742  135.4191  155.1017 H   0  0  0  0  0  0  0  0  0  0  0  0  # atno 10763 bound_to 10752
  154.8467  135.3479  154.6202 H   0  0  0  0  0  0  0  0  0  0  0  0  # atno 10764 bound_to 10752
  153.6622  135.7048  153.5231 H   0  0  0  0  0  0  0  0  0  0  0  0  # atno 10765 bound_to 10752
  141.1157  133.8619  157.1454 H   0  0  0  0  0  0  0  0  0  0  0  0  # atno 11005 bound_to 11000
  146.2043  140.6127  142.9088 LP  0  0  0  0  0  0  0  0  0  0  0  0  # atno 17320 bound_to 7965
  144.7625  140.5455  143.6725 LP  0  0  0  0  0  0  0  0  0  0  0  0  # atno 17321 bound_to 7965
  140.7492  143.6308  150.8424 LP  0  0  0  0  0  0  0  0  0  0  0  0  # atno 17342 bound_to 10162
  139.9946  143.5810  152.2898 LP  0  0  0  0  0  0  0  0  0  0  0  0  # atno 17343 bound_to 10162
  156.0052  130.3859  150.2457 LP  0  0  0  0  0  0  0  0  0  0  0  0  # atno 17370 bound_to 10713
  157.0637  131.0097  151.3214 LP  0  0  0  0  0  0  0  0  0  0  0  0  # atno 17371 bound_to 10713
  140.0078  135.0001  157.0329 LP  0  0  0  0  0  0  0  0  0  0  0  0  # atno 17394 bound_to 11000
  140.4652  134.1443  155.7196 LP  0  0  0  0  0  0  0  0  0  0  0  0  # atno 17395 bound_to 11000

$$$$
