AV-unprocessed.smi:2030|AV-procd|sdf|8227|dock7
  -GOLD-   2272010493D 1   1.00000     0.00000
 Structure written by MMmdl.
 35 36  0  0  0  0  0  0  0  0  3 V2000
  153.1969  138.6981  154.2756 C   0  0  0  0  0  0  0  0  0  0  0  0
  151.8426  138.5928  154.8174 N   0  0  0  0  0  0  0  0  0  0  0  0
  151.1263  139.7692  154.7425 N   0  0  0  0  0  0  0  0  0  0  0  0
  149.8476  139.8208  154.9530 C   0  0  0  0  0  0  0  0  0  0  0  0
  149.1307  141.1240  154.8192 C   0  0  0  0  0  0  0  0  0  0  0  0
  149.0991  141.5938  153.6752 O   0  0  0  0  0  0  0  0  0  0  0  0
  148.5887  141.6897  155.9388 N   0  5  0  0  0  0  0  0  0  0  0  0
  149.0690  141.4848  157.3052 C   0  0  0  0  0  0  0  0  0  0  0  0
  150.6126  141.5229  157.3301 C   0  0  0  0  0  0  0  0  0  0  0  0
  151.2061  142.6408  158.1822 C   0  0  0  0  0  0  0  0  0  0  0  0
  152.1319  142.3808  159.2186 C   0  0  0  0  0  0  0  0  0  0  0  0
  152.6539  143.4556  159.9669 C   0  0  0  0  0  0  0  0  0  0  0  0
  152.2359  144.7695  159.6716 C   0  0  0  0  0  0  0  0  0  0  0  0
  151.3051  144.9751  158.6331 C   0  0  0  0  0  0  0  0  0  0  0  0
  150.8289  143.9195  157.9377 N   0  3  0  0  0  0  0  0  0  0  0  0
  149.0767  138.5577  155.2909 C   0  0  0  0  0  0  0  0  0  0  0  0
  149.9679  137.4981  155.9666 C   0  0  0  0  0  0  0  0  0  0  0  0
  151.3670  137.4372  155.3481 C   0  0  0  0  0  0  0  0  0  0  0  0
  151.9956  136.3791  155.3766 O   0  0  0  0  0  0  0  0  0  0  0  0
  153.7983  137.7989  154.4142 H   0  0  0  0  0  0  0  0  0  0  0  0
  153.7302  139.5202  154.7546 H   0  0  0  0  0  0  0  0  0  0  0  0
  153.1547  138.9050  153.2058 H   0  0  0  0  0  0  0  0  0  0  0  0
  148.6898  142.2426  157.9923 H   0  0  0  0  0  0  0  0  0  0  0  0
  148.7347  140.5266  157.7034 H   0  0  0  0  0  0  0  0  0  0  0  0
  150.9870  140.5701  157.7061 H   0  0  0  0  0  0  0  0  0  0  0  0
  150.9959  141.6112  156.3126 H   0  0  0  0  0  0  0  0  0  0  0  0
  152.4491  141.3688  159.4252 H   0  0  0  0  0  0  0  0  0  0  0  0
  153.3683  143.2734  160.7561 H   0  0  0  0  0  0  0  0  0  0  0  0
  152.6256  145.6070  160.2314 H   0  0  0  0  0  0  0  0  0  0  0  0
  150.9321  145.9445  158.3369 H   0  0  0  0  0  0  0  0  0  0  0  0
  148.2461  138.7789  155.9621 H   0  0  0  0  0  0  0  0  0  0  0  0
  148.6374  138.1499  154.3798 H   0  0  0  0  0  0  0  0  0  0  0  0
  150.0881  137.7413  157.0229 H   0  0  0  0  0  0  0  0  0  0  0  0
  149.4924  136.5178  155.9214 H   0  0  0  0  0  0  0  0  0  0  0  0
  150.1619  144.0916  157.1854 H   0  0  0  0  0  0  0  0  0  0  0  0
  1  2  1  0  0  0  0
  1 20  1  0  0  0  0
  1 21  1  0  0  0  0
  1 22  1  0  0  0  0
  2 18  1  0  0  0  0
  2  3  1  0  0  0  0
  3  4  2  0  0  0  0
  4  5  1  0  0  0  0
  4 16  1  0  0  0  0
  5  6  2  0  0  0  0
  5  7  1  0  0  0  0
  7  8  1  0  0  0  0
  8  9  1  0  0  0  0
  8 23  1  0  0  0  0
  8 24  1  0  0  0  0
  9 10  1  0  0  0  0
  9 25  1  0  0  0  0
  9 26  1  0  0  0  0
 10 15  1  0  0  0  0
 10 11  2  0  0  0  0
 11 12  1  0  0  0  0
 11 27  1  0  0  0  0
 12 13  2  0  0  0  0
 12 28  1  0  0  0  0
 13 14  1  0  0  0  0
 13 29  1  0  0  0  0
 14 15  2  0  0  0  0
 14 30  1  0  0  0  0
 15 35  1  0  0  0  0
 16 17  1  0  0  0  0
 16 31  1  0  0  0  0
 16 32  1  0  0  0  0
 17 18  1  0  0  0  0
 17 33  1  0  0  0  0
 17 34  1  0  0  0  0
 18 19  2  0  0  0  0
M  CHG  1   7  -1
M  CHG  1  15   1
M  END
> <s_m_source_file>
AV-unprocessed.smi

> <i_m_source_file_index>
2030

> <i_lp_mmshare_version>
43012

> <i_f3d_flags>
0

> <s_epik_input>
Tz1DMVtDSDJdW0NIMl1DKD1OTjFbQ0gzXSlDKD1PKVtOSF1bQ0gyXVtDSDJdYzJbY0hdW2NIXVtjSF1bY0hdbjI=

> <s_epik_cmdline>
J2VwaWtfcHl0aG9uJywgJy1waCcsICc3LjAnLCAnLXRuJywgJzgnLCAnLW1hJywgJzIwMCcsICctbWV0YWxfYmluZGluZycsICctaW1hZScsICc8aW5maWxlLm1hZT4nLCAnLW9tYWUnLCAnPG91dGZpbGUubWFlPic=

> <r_epik_Ionization_Penalty>
6.31213

> <r_epik_Ionization_Penalty_Charging>
6.31213

> <r_epik_Ionization_Penalty_Neutral>
3.33061e-09

> <r_epik_State_Penalty>
7.27833

> <r_epik_Charging_Adjusted_Penalty>
13.5905

> <i_epik_Tot_Q>
0

> <i_epik_Tot_abs_Q>
2

> <r_epik_Metal_State_Penalty>
3.36613

> <b_epik_Metal_Only>
1

> <s_epik_Chemistry_Notes>
This compound has an imine and may undergo hydrolysis.

> <s_lp_Force_Field>
OPLS_2005

> <r_lp_Energy>
24.6461

> <b_lp_Chiralities_Consistent>
1

> <s_lp_Variant>
AV-unprocessed.smi:2030-4

> <Gold.Version>
5.8.1

> <Gold.Id.Protein>
6NUR|6NUR_protein|mol2

> <Gold.PLP.Fitness>
49.2179

> <Gold.PLP.PLP>
-38.7013

> <Gold.PLP.part.hbond>
-4.7440

> <Gold.PLP.part.metal>
0.0000

> <Gold.PLP.part.buried>
-7.3330

> <Gold.PLP.part.nonpolar>
-28.8057

> <Gold.PLP.part.repulsive>
2.5195

> <Gold.PLP.ligand.clash>
0.0000

> <Gold.PLP.ligand.torsion>
1.9509

> <Gold.PLP.Chemscore.Hbond>
4.7912

> <Gold.PLP.Chemscore.CHOScore>
0.0000

> <Gold.PLP.Chemscore.Metal>
0.0000

> <Gold.Chemscore.Hbonds>
donor molecule, donor type, donor heavy atom, donor atom, acceptor molecule, acceptor atom, score
      L1  H    15    35       P1  8028  1.85
      P1  H  7989  7998       L1     3  1.00
      P1  H  8011  8017       L1     6  0.74
      P1  H 10752 10763       L1    19  0.86

> <Gold.PLP.Chemscore.Internal.Correction>
0.0447

> <Gold.Rescore>
     Score         DG    S(hbond)    S(metal)    S(lipo)     H(rot)  DE(clash)    DE(int)     intcor
     19.99     -23.98       3.59        0.00      88.09       1.49       1.06       2.94       ----

> <Gold.Chemscore.Fitness>
19.9856

> <Gold.Chemscore.DG>
-23.9836

> <Gold.Chemscore.ZeroCoef>
-5.4800

> <Gold.Chemscore.Hbond>
3.5927

> <Gold.Chemscore.Metal>
0.0000

> <Gold.Chemscore.Lipo>
88.0919

> <Gold.Chemscore.Internal_Hbond>
0.0000

> <Gold.Chemscore.DEClash>
1.0589

> <Gold.Chemscore.DEInternal>
2.9391

> <Gold.Chemscore.Rot>
1.4854

> <Gold.Chemscore.Internal.Correction>
   9.000000E+99

> <Gold.Chemscore.Hbonds>
donor molecule, donor type, donor heavy atom, donor atom, acceptor molecule, acceptor atom, score
      L1  H    15    35       P1  8028  0.76
      P1  H  7989  7998       L1     3  0.77
      P1  H  8011  8017       L1     6  0.74
      P1  H 10752 10763       L1    19  0.80

> <Gold.Chemscore.Hbond.Weighted>
-11.9995

> <Gold.Chemscore.Metal.Weighted>
-0.0000

> <Gold.Chemscore.Lipo.Weighted>
-10.3068

> <Gold.Chemscore.Internal_Hbond.Weighted>
0.0000

> <Gold.Chemscore.DEClash.Weighted>
1.0589

> <Gold.Chemscore.DEInternal.Weighted>
2.9391

> <Gold.Chemscore.Rot.Weighted>
3.8026

> <Gold.Chemscore.Internal.Correction.Weighted>
   9.000000E+99

> <Gold.Protein.RotatedTorsions>
[ 6907 6896 6895 6894 ] final -120.26 input  -60.11 | X-H torsion
[ 7974 7965 7964 7962 ] final   69.21 input  175.53 | X-H torsion
[ 8008 7997 7996 7995 ] final    9.85 input   59.86 | X-H torsion
[ 10167 10162 10161 10158 ] final -126.82 input  -65.29 | X-H torsion
[ 10718 10713 10712 10709 ] final   10.21 input   66.30 | X-H torsion
[ 10763 10752 10751 10750 ] final   93.77 input  -60.55 | X-H torsion
[ 11005 11000 10999 10996 ] final -153.43 input  -57.11 | X-H torsion

> <Gold.Protein.ActiveResidues>
 VAL166  LYS551  ARG553  GLY616  TRP617  ASP618  TYR619  PRO620  LYS621  CYS622 
 ASP623  PHE694  ASN695  SER759  ASP760  ASP761  ALA762  ILE779  LEU786  VAL792 
 PHE793  MET794  SER795  GLU796  ALA797  LYS798  CYS799  TRP800  GLU811  SER814 

> <Gold.Protein.RotatedAtoms>
  150.8377  133.7986  159.3072 H   0  0  0  0  0  0  0  0  0  0  0  0  # atno 6907 bound_to 6896
  151.5697  135.1061  160.0002 H   0  0  0  0  0  0  0  0  0  0  0  0  # atno 6908 bound_to 6896
  152.4447  133.7471  159.6729 H   0  0  0  0  0  0  0  0  0  0  0  0  # atno 6909 bound_to 6896
  145.7932  139.2944  143.1198 H   0  0  0  0  0  0  0  0  0  0  0  0  # atno 7974 bound_to 7965
  154.7855  140.2826  155.6031 H   0  0  0  0  0  0  0  0  0  0  0  0  # atno 8008 bound_to 7997
  156.2956  140.2615  156.2619 H   0  0  0  0  0  0  0  0  0  0  0  0  # atno 8009 bound_to 7997
  154.9733  140.0376  157.2234 H   0  0  0  0  0  0  0  0  0  0  0  0  # atno 8010 bound_to 7997
  139.9674  143.5883  152.2424 H   0  0  0  0  0  0  0  0  0  0  0  0  # atno 10167 bound_to 10162
  156.9776  130.5993  149.5674 H   0  0  0  0  0  0  0  0  0  0  0  0  # atno 10718 bound_to 10713
  153.2341  135.4313  155.0627 H   0  0  0  0  0  0  0  0  0  0  0  0  # atno 10763 bound_to 10752
  154.8310  135.3386  154.6745 H   0  0  0  0  0  0  0  0  0  0  0  0  # atno 10764 bound_to 10752
  153.7171  135.7019  153.5079 H   0  0  0  0  0  0  0  0  0  0  0  0  # atno 10765 bound_to 10752
  140.7083  134.3861  157.5201 H   0  0  0  0  0  0  0  0  0  0  0  0  # atno 11005 bound_to 11000
  145.9955  140.8566  143.0045 LP  0  0  0  0  0  0  0  0  0  0  0  0  # atno 17320 bound_to 7965
  144.6779  140.2277  143.7359 LP  0  0  0  0  0  0  0  0  0  0  0  0  # atno 17321 bound_to 7965
  139.6507  144.7660  151.2154 LP  0  0  0  0  0  0  0  0  0  0  0  0  # atno 17342 bound_to 10162
  140.7533  143.6165  150.8554 LP  0  0  0  0  0  0  0  0  0  0  0  0  # atno 17343 bound_to 10162
  156.0257  130.5351  150.8400 LP  0  0  0  0  0  0  0  0  0  0  0  0  # atno 17370 bound_to 10713
  157.5549  131.0945  150.9643 LP  0  0  0  0  0  0  0  0  0  0  0  0  # atno 17371 bound_to 10713
  139.8878  134.8872  156.2507 LP  0  0  0  0  0  0  0  0  0  0  0  0  # atno 17394 bound_to 11000
  141.0106  133.7098  156.1106 LP  0  0  0  0  0  0  0  0  0  0  0  0  # atno 17395 bound_to 11000

$$$$
