AV-unprocessed.smi:2344|AV-procd|sdf|9358|dock9
  -GOLD-   2272012583D 1   1.00000     0.00000
 Structure written by MMmdl.
 35 36  0  0  0  0  0  0  0  0  1 V2000
  146.4751  138.3939  152.3088 C   0  0  0  0  0  0  0  0  0  0  0  0
  147.2815  139.3815  153.1256 C   0  0  0  0  0  0  0  0  0  0  0  0
  146.8795  140.7253  153.2449 C   0  0  0  0  0  0  0  0  0  0  0  0
  147.6652  141.6025  154.0169 C   0  0  0  0  0  0  0  0  0  0  0  0
  148.8309  141.1173  154.6517 C   0  0  0  0  0  0  0  0  0  0  0  0
  149.5520  142.0831  155.4029 N   0  0  0  0  0  0  0  0  0  0  0  0
  150.5033  141.8756  156.3302 C   0  0  0  0  0  0  0  0  0  0  0  0
  150.9180  140.7746  156.6939 O   0  0  0  0  0  0  0  0  0  0  0  0
  150.9562  143.0356  156.8268 N   0  0  0  0  0  0  0  0  0  0  0  0
  151.9781  143.1581  157.8600 C   0  0  1  0  0  0  0  0  0  0  0  0
  152.3364  144.6021  158.0782 C   0  0  0  0  0  0  0  0  0  0  0  0
  152.1136  145.0045  159.3272 C   0  0  0  0  0  0  0  0  0  0  0  0
  151.5364  143.9202  160.1988 C   0  0  2  0  0  0  0  0  0  0  0  0
  152.3725  143.6949  161.4691 C   0  0  0  0  0  0  0  0  0  0  0  0
  151.7499  142.7393  162.3011 O   0  0  0  0  0  0  0  0  0  0  0  0
  151.4822  142.6910  159.2537 C   0  0  0  0  0  0  0  0  0  0  0  0
  149.2081  139.8199  154.5331 N   0  0  0  0  0  0  0  0  0  0  0  0
  148.4547  138.9798  153.7930 C   0  0  0  0  0  0  0  0  0  0  0  0
  152.8792  142.6169  157.5663 H   0  0  0  0  0  0  0  0  0  0  0  0
  150.5254  144.2251  160.4720 H   0  0  0  0  0  0  0  0  0  0  0  0
  145.8766  138.9065  151.5550 H   0  0  0  0  0  0  0  0  0  0  0  0
  145.8037  137.8299  152.9566 H   0  0  0  0  0  0  0  0  0  0  0  0
  147.1326  137.6901  151.7976 H   0  0  0  0  0  0  0  0  0  0  0  0
  145.9854  141.0816  152.7545 H   0  0  0  0  0  0  0  0  0  0  0  0
  147.3716  142.6373  154.1174 H   0  0  0  0  0  0  0  0  0  0  0  0
  149.3152  143.0452  155.2123 H   0  0  0  0  0  0  0  0  0  0  0  0
  150.5606  143.8943  156.4736 H   0  0  0  0  0  0  0  0  0  0  0  0
  152.7404  145.2201  157.2897 H   0  0  0  0  0  0  0  0  0  0  0  0
  152.3005  146.0008  159.6998 H   0  0  0  0  0  0  0  0  0  0  0  0
  153.3793  143.3577  161.2201 H   0  0  0  0  0  0  0  0  0  0  0  0
  152.4719  144.6255  162.0288 H   0  0  0  0  0  0  0  0  0  0  0  0
  152.4198  142.2751  162.7794 H   0  0  0  0  0  0  0  0  0  0  0  0
  150.4698  142.2863  159.2158 H   0  0  0  0  0  0  0  0  0  0  0  0
  152.1223  141.8866  159.6176 H   0  0  0  0  0  0  0  0  0  0  0  0
  148.7999  137.9581  153.7333 H   0  0  0  0  0  0  0  0  0  0  0  0
  1  2  1  0  0  0  0
  1 21  1  0  0  0  0
  1 22  1  0  0  0  0
  1 23  1  0  0  0  0
  2 18  1  0  0  0  0
  2  3  2  0  0  0  0
  3  4  1  0  0  0  0
  3 24  1  0  0  0  0
  4  5  2  0  0  0  0
  4 25  1  0  0  0  0
  5  6  1  0  0  0  0
  5 17  1  0  0  0  0
  6  7  1  0  0  0  0
  6 26  1  0  0  0  0
  7  8  2  0  0  0  0
  7  9  1  0  0  0  0
  9 10  1  0  0  0  0
  9 27  1  0  0  0  0
 10 19  1  0  0  0  0
 10 16  1  0  0  0  0
 10 11  1  0  0  0  0
 11 12  2  0  0  0  0
 11 28  1  0  0  0  0
 12 13  1  0  0  0  0
 12 29  1  0  0  0  0
 13 20  1  0  0  0  0
 13 14  1  0  0  0  0
 13 16  1  0  0  0  0
 14 15  1  0  0  0  0
 14 30  1  0  0  0  0
 14 31  1  0  0  0  0
 15 32  1  0  0  0  0
 16 33  1  0  0  0  0
 16 34  1  0  0  0  0
 17 18  2  0  0  0  0
 18 35  1  0  0  0  0
M  END
> <s_m_source_file>
AV-unprocessed.smi

> <i_m_source_file_index>
2344

> <i_lp_mmshare_version>
43012

> <i_f3d_flags>
0

> <s_epik_input>
W0NIM11jMVtjSF1bY0hdYyhuW2NIXTEpW05IXUMoPU8pW05IXVtDQEBIXTJbQ0hdPVtDSF1bQ0BASF0oW0NIMl0yKVtDSDJdW09IXQ==

> <s_epik_cmdline>
J2VwaWtfcHl0aG9uJywgJy1waCcsICc3LjAnLCAnLXRuJywgJzgnLCAnLW1hJywgJzIwMCcsICctbWV0YWxfYmluZGluZycsICctaW1hZScsICc8aW5maWxlLm1hZT4nLCAnLW9tYWUnLCAnPG91dGZpbGUubWFlPic=

> <r_lp_tautomer_probability>
1

> <r_epik_Ionization_Penalty>
5.7643e-05

> <r_epik_Ionization_Penalty_Charging>
0

> <r_epik_Ionization_Penalty_Neutral>
5.7643e-05

> <r_epik_State_Penalty>
-0

> <r_epik_Charging_Adjusted_Penalty>
0

> <i_epik_Tot_Q>
0

> <i_epik_Tot_abs_Q>
0

> <r_epik_Metal_State_Penalty>
-0

> <b_epik_Metal_Only>
0

> <s_lp_Force_Field>
OPLS_2005

> <r_lp_Energy>
17.6743

> <b_lp_Chiralities_Consistent>
1

> <s_lp_Variant>
AV-unprocessed.smi:2344-2

> <Gold.Version>
5.8.1

> <Gold.Id.Protein>
6NUR|6NUR_protein|mol2

> <Gold.PLP.Fitness>
55.8607

> <Gold.PLP.PLP>
-44.7408

> <Gold.PLP.part.hbond>
-4.0000

> <Gold.PLP.part.metal>
0.0000

> <Gold.PLP.part.buried>
-5.3097

> <Gold.PLP.part.nonpolar>
-36.7204

> <Gold.PLP.part.repulsive>
0.3647

> <Gold.PLP.ligand.clash>
0.0000

> <Gold.PLP.ligand.torsion>
0.1373

> <Gold.PLP.Chemscore.Hbond>
2.8400

> <Gold.PLP.Chemscore.CHOScore>
0.9536

> <Gold.PLP.Chemscore.Metal>
0.0000

> <Gold.Chemscore.Hbonds>
donor molecule, donor type, donor heavy atom, donor atom, acceptor molecule, acceptor atom, score
      L1  H     6    26       P1  8028  1.00
      L1  H     9    27       P1  8028  0.90
      P1  H  6933  6945       L1    15  0.99
      L1  C    18    35       P1  7948  0.99

> <Gold.PLP.Chemscore.Internal.Correction>
0.0137

> <Gold.Rescore>
     Score         DG    S(hbond)    S(metal)    S(lipo)     H(rot)  DE(clash)    DE(int)     intcor
     20.88     -22.75       2.86        0.00     105.64       1.82       0.56       1.31       ----

> <Gold.Chemscore.Fitness>
20.8811

> <Gold.Chemscore.DG>
-22.7493

> <Gold.Chemscore.ZeroCoef>
-5.4800

> <Gold.Chemscore.Hbond>
2.8636

> <Gold.Chemscore.Metal>
0.0000

> <Gold.Chemscore.Lipo>
105.6403

> <Gold.Chemscore.Internal_Hbond>
0.0000

> <Gold.Chemscore.DEClash>
0.5619

> <Gold.Chemscore.DEInternal>
1.3062

> <Gold.Chemscore.Rot>
1.8184

> <Gold.Chemscore.Internal.Correction>
   9.000000E+99

> <Gold.Chemscore.Hbonds>
donor molecule, donor type, donor heavy atom, donor atom, acceptor molecule, acceptor atom, score
      L1  H     6    26       P1  8028  0.99
      L1  H     9    27       P1  8028  0.83
      P1  H  6933  6945       L1    15  0.79

> <Gold.Chemscore.Hbond.Weighted>
-9.5644

> <Gold.Chemscore.Metal.Weighted>
-0.0000

> <Gold.Chemscore.Lipo.Weighted>
-12.3599

> <Gold.Chemscore.Internal_Hbond.Weighted>
0.0000

> <Gold.Chemscore.DEClash.Weighted>
0.5619

> <Gold.Chemscore.DEInternal.Weighted>
1.3062

> <Gold.Chemscore.Rot.Weighted>
4.6551

> <Gold.Chemscore.Internal.Correction.Weighted>
   9.000000E+99

> <Gold.Protein.RotatedTorsions>
[ 6907 6896 6895 6894 ] final  -55.50 input  -60.11 | X-H torsion
[ 7974 7965 7964 7962 ] final  -35.99 input  175.53 | X-H torsion
[ 8008 7997 7996 7995 ] final   -6.07 input   59.86 | X-H torsion
[ 10167 10162 10161 10158 ] final  -70.79 input  -65.29 | X-H torsion
[ 10718 10713 10712 10709 ] final  178.08 input   66.30 | X-H torsion
[ 10763 10752 10751 10750 ] final  -93.31 input  -60.55 | X-H torsion
[ 11005 11000 10999 10996 ] final  158.89 input  -57.11 | X-H torsion

> <Gold.Protein.ActiveResidues>
 VAL166  LYS551  ARG553  GLY616  TRP617  ASP618  TYR619  PRO620  LYS621  CYS622 
 ASP623  PHE694  ASN695  SER759  ASP760  ASP761  ALA762  ILE779  LEU786  VAL792 
 PHE793  MET794  SER795  GLU796  ALA797  LYS798  CYS799  TRP800  GLU811  SER814 

> <Gold.Protein.RotatedAtoms>
  150.8246  134.7471  159.6801 H   0  0  0  0  0  0  0  0  0  0  0  0  # atno 6907 bound_to 6896
  152.4359  134.5685  159.9924 H   0  0  0  0  0  0  0  0  0  0  0  0  # atno 6908 bound_to 6896
  151.5860  133.3334  159.3054 H   0  0  0  0  0  0  0  0  0  0  0  0  # atno 6909 bound_to 6896
  146.0700  140.6225  142.8957 H   0  0  0  0  0  0  0  0  0  0  0  0  # atno 7974 bound_to 7965
  154.5975  140.2442  155.7837 H   0  0  0  0  0  0  0  0  0  0  0  0  # atno 8008 bound_to 7997
  156.2289  140.2973  156.0089 H   0  0  0  0  0  0  0  0  0  0  0  0  # atno 8009 bound_to 7997
  155.2268  140.0402  157.2947 H   0  0  0  0  0  0  0  0  0  0  0  0  # atno 8010 bound_to 7997
  140.5324  143.2320  151.7238 H   0  0  0  0  0  0  0  0  0  0  0  0  # atno 10167 bound_to 10162
  156.8958  130.9862  151.3043 H   0  0  0  0  0  0  0  0  0  0  0  0  # atno 10718 bound_to 10713
  154.6947  135.5199  153.8441 H   0  0  0  0  0  0  0  0  0  0  0  0  # atno 10763 bound_to 10752
  153.0658  135.6584  154.0367 H   0  0  0  0  0  0  0  0  0  0  0  0  # atno 10764 bound_to 10752
  154.0236  135.2991  155.3357 H   0  0  0  0  0  0  0  0  0  0  0  0  # atno 10765 bound_to 10752
  140.1909  134.8408  157.2910 H   0  0  0  0  0  0  0  0  0  0  0  0  # atno 11005 bound_to 11000
  144.7226  140.4421  143.6997 LP  0  0  0  0  0  0  0  0  0  0  0  0  # atno 17320 bound_to 7965
  145.6409  139.1550  143.2916 LP  0  0  0  0  0  0  0  0  0  0  0  0  # atno 17321 bound_to 7965
  139.4959  144.4094  152.0097 LP  0  0  0  0  0  0  0  0  0  0  0  0  # atno 17342 bound_to 10162
  140.3197  144.3442  150.6013 LP  0  0  0  0  0  0  0  0  0  0  0  0  # atno 17343 bound_to 10162
  157.6056  130.8545  149.8870 LP  0  0  0  0  0  0  0  0  0  0  0  0  # atno 17370 bound_to 10713
  156.0606  130.3700  150.0990 LP  0  0  0  0  0  0  0  0  0  0  0  0  # atno 17371 bound_to 10713
  140.2161  134.4079  155.7588 LP  0  0  0  0  0  0  0  0  0  0  0  0  # atno 17394 bound_to 11000
  141.2226  133.7142  156.8416 LP  0  0  0  0  0  0  0  0  0  0  0  0  # atno 17395 bound_to 11000

$$$$
