AV-unprocessed.smi:299|AV-procd|sdf|2266|dock1
  -GOLD-   2262022153D 1   1.00000     0.00000
 Structure written by MMmdl.
 42 43  0  0  0  0  0  0  0  0  2 V2000
  146.2433  131.7676  151.9924 C   0  0  0  0  0  0  0  0  0  0  0  0
  146.9001  133.0699  151.4843 C   0  0  1  0  0  0  0  0  0  0  0  0
  145.9714  133.8679  150.5454 C   0  0  0  0  0  0  0  0  0  0  0  0
  144.8254  134.5470  151.3094 C   0  0  0  0  0  0  0  0  0  0  0  0
  145.3889  135.4105  152.4443 C   0  0  0  0  0  0  0  0  0  0  0  0
  146.3144  134.5934  153.3610 C   0  0  0  0  0  0  0  0  0  0  0  0
  147.4068  133.9466  152.5827 N   0  3  1  0  0  0  0  0  0  0  0  0
  148.4415  133.2995  153.4304 C   0  0  0  0  0  0  0  0  0  0  0  0
  148.8097  134.1512  154.6599 C   0  0  0  0  0  0  0  0  0  0  0  0
  150.3231  134.4010  154.8037 C   0  0  0  0  0  0  0  0  0  0  0  0
  150.7256  135.7307  154.3565 N   0  0  0  0  0  0  0  0  0  0  0  0
  150.6170  136.8569  155.0790 C   0  0  0  0  0  0  0  0  0  0  0  0
  150.1853  136.8847  156.2309 O   0  0  0  0  0  0  0  0  0  0  0  0
  151.0656  138.1512  154.4003 C   0  0  0  0  0  0  0  0  0  0  0  0
  149.9628  139.0862  154.2832 N   0  0  0  0  0  0  0  0  0  0  0  0
  148.7028  138.9102  153.8797 C   0  0  0  0  0  0  0  0  0  0  0  0
  148.0172  140.0426  153.9115 N   0  0  0  0  0  0  0  0  0  0  0  0
  148.9468  140.9610  154.3711 N   0  0  0  0  0  0  0  0  0  0  0  0
  150.1033  140.3994  154.5932 N   0  0  0  0  0  0  0  0  0  0  0  0
  145.9060  131.1561  151.1553 H   0  0  0  0  0  0  0  0  0  0  0  0
  145.3751  131.9578  152.6226 H   0  0  0  0  0  0  0  0  0  0  0  0
  146.9417  131.1588  152.5662 H   0  0  0  0  0  0  0  0  0  0  0  0
  147.7650  132.7753  150.8884 H   0  0  0  0  0  0  0  0  0  0  0  0
  146.5547  134.6314  150.0289 H   0  0  0  0  0  0  0  0  0  0  0  0
  145.5694  133.2182  149.7671 H   0  0  0  0  0  0  0  0  0  0  0  0
  144.2333  135.1605  150.6297 H   0  0  0  0  0  0  0  0  0  0  0  0
  144.1475  133.7961  151.7159 H   0  0  0  0  0  0  0  0  0  0  0  0
  145.9420  136.2512  152.0232 H   0  0  0  0  0  0  0  0  0  0  0  0
  144.5722  135.8392  153.0260 H   0  0  0  0  0  0  0  0  0  0  0  0
  146.7323  135.2614  154.1130 H   0  0  0  0  0  0  0  0  0  0  0  0
  145.7425  133.8408  153.9042 H   0  0  0  0  0  0  0  0  0  0  0  0
  148.1034  132.3067  153.7309 H   0  0  0  0  0  0  0  0  0  0  0  0
  149.3474  133.1542  152.8405 H   0  0  0  0  0  0  0  0  0  0  0  0
  148.3059  135.1158  154.5905 H   0  0  0  0  0  0  0  0  0  0  0  0
  148.4377  133.6844  155.5714 H   0  0  0  0  0  0  0  0  0  0  0  0
  150.6169  134.2928  155.8480 H   0  0  0  0  0  0  0  0  0  0  0  0
  150.8824  133.6456  154.2495 H   0  0  0  0  0  0  0  0  0  0  0  0
  151.0828  135.8067  153.4147 H   0  0  0  0  0  0  0  0  0  0  0  0
  151.8619  138.6208  154.9792 H   0  0  0  0  0  0  0  0  0  0  0  0
  151.4703  137.9373  153.4096 H   0  0  0  0  0  0  0  0  0  0  0  0
  148.2937  137.9626  153.5618 H   0  0  0  0  0  0  0  0  0  0  0  0
  147.8851  134.6995  152.1086 H   0  0  0  0  0  0  0  0  0  0  0  0
  1  2  1  0  0  0  0
  1 20  1  0  0  0  0
  1 21  1  0  0  0  0
  1 22  1  0  0  0  0
  2  7  1  0  0  0  0
  2  3  1  0  0  0  0
  2 23  1  0  0  0  0
  3  4  1  0  0  0  0
  3 24  1  0  0  0  0
  3 25  1  0  0  0  0
  4  5  1  0  0  0  0
  4 26  1  0  0  0  0
  4 27  1  0  0  0  0
  5  6  1  0  0  0  0
  5 28  1  0  0  0  0
  5 29  1  0  0  0  0
  6  7  1  0  0  0  0
  6 30  1  0  0  0  0
  6 31  1  0  0  0  0
  7  8  1  0  0  0  0
  7 42  1  0  0  0  0
  8  9  1  0  0  0  0
  8 32  1  0  0  0  0
  8 33  1  0  0  0  0
  9 10  1  0  0  0  0
  9 34  1  0  0  0  0
  9 35  1  0  0  0  0
 10 11  1  0  0  0  0
 10 36  1  0  0  0  0
 10 37  1  0  0  0  0
 11 12  1  0  0  0  0
 11 38  1  0  0  0  0
 12 13  2  0  0  0  0
 12 14  1  0  0  0  0
 14 15  1  0  0  0  0
 14 39  1  0  0  0  0
 14 40  1  0  0  0  0
 15 19  1  0  0  0  0
 15 16  1  0  0  0  0
 16 17  2  0  0  0  0
 16 41  1  0  0  0  0
 17 18  1  0  0  0  0
 18 19  2  0  0  0  0
M  CHG  1   7   1
M  END
> <s_m_source_file>
AV-unprocessed.smi

> <i_m_source_file_index>
299

> <i_lp_mmshare_version>
43012

> <i_f3d_flags>
0

> <s_epik_input>
W0NIM11bQ0BASF0xW0NIMl1bQ0gyXVtDSDJdW0NIMl1OMVtDSDJdW0NIMl1bQ0gyXVtOSF1DKD1PKVtDSDJdbjJbY0hdbm5uMg==

> <s_epik_cmdline>
J2VwaWtfcHl0aG9uJywgJy1waCcsICc3LjAnLCAnLXRuJywgJzgnLCAnLW1hJywgJzIwMCcsICctbWV0YWxfYmluZGluZycsICctaW1hZScsICc8aW5maWxlLm1hZT4nLCAnLW9tYWUnLCAnPG91dGZpbGUubWFlPic=

> <r_lp_tautomer_probability>
1

> <r_epik_Ionization_Penalty>
0.000544863

> <r_epik_Ionization_Penalty_Charging>
0.000543475

> <r_epik_Ionization_Penalty_Neutral>
1.38784e-06

> <r_epik_State_Penalty>
0.000340025

> <r_epik_Charging_Adjusted_Penalty>
0.0008835

> <i_epik_Tot_Q>
1

> <i_epik_Tot_abs_Q>
1

> <r_epik_Metal_State_Penalty>
-0

> <b_epik_Metal_Only>
0

> <s_lp_Force_Field>
OPLS_2005

> <r_lp_Energy>
24.6376

> <b_lp_Chiralities_Consistent>
1

> <s_lp_Variant>
AV-unprocessed.smi:299-2

> <Gold.Version>
5.8.1

> <Gold.Id.Protein>
6NUR|6NUR_protein|mol2

> <Gold.PLP.Fitness>
42.9693

> <Gold.PLP.PLP>
-30.2111

> <Gold.PLP.part.hbond>
-3.8239

> <Gold.PLP.part.metal>
0.0000

> <Gold.PLP.part.buried>
-4.0803

> <Gold.PLP.part.nonpolar>
-23.7958

> <Gold.PLP.part.repulsive>
0.4924

> <Gold.PLP.ligand.clash>
0.0000

> <Gold.PLP.ligand.torsion>
1.0805

> <Gold.PLP.Chemscore.Hbond>
3.9420

> <Gold.PLP.Chemscore.CHOScore>
0.9937

> <Gold.PLP.Chemscore.Metal>
0.0000

> <Gold.Chemscore.Hbonds>
donor molecule, donor type, donor heavy atom, donor atom, acceptor molecule, acceptor atom, score
      L1  H     7    42       P1  7948  2.00
      L1  H    11    38       P1  7949  0.95
      P1  H  7989  7998       L1    19  0.96
      L1  C    16    41       P1  7948  1.00

> <Gold.PLP.Chemscore.Internal.Correction>
0.1121

> <Gold.Rescore>
     Score         DG    S(hbond)    S(metal)    S(lipo)     H(rot)  DE(clash)    DE(int)     intcor
      9.35     -10.76       1.95        0.00      54.48       2.97       0.27       1.14       ----

> <Gold.Chemscore.Fitness>
9.3462

> <Gold.Chemscore.DG>
-10.7556

> <Gold.Chemscore.ZeroCoef>
-5.4800

> <Gold.Chemscore.Hbond>
1.9460

> <Gold.Chemscore.Metal>
0.0000

> <Gold.Chemscore.Lipo>
54.4791

> <Gold.Chemscore.Internal_Hbond>
0.0000

> <Gold.Chemscore.DEClash>
0.2678

> <Gold.Chemscore.DEInternal>
1.1417

> <Gold.Chemscore.Rot>
2.9680

> <Gold.Chemscore.Internal.Correction>
   9.000000E+99

> <Gold.Chemscore.Hbonds>
donor molecule, donor type, donor heavy atom, donor atom, acceptor molecule, acceptor atom, score
      L1  H     7    42       P1  7948  0.45
      L1  H    11    38       P1  7949  0.21
      P1  H  7989  7998       L1    19  0.27

> <Gold.Chemscore.Hbond.Weighted>
-6.4995

> <Gold.Chemscore.Metal.Weighted>
-0.0000

> <Gold.Chemscore.Lipo.Weighted>
-6.3741

> <Gold.Chemscore.Internal_Hbond.Weighted>
0.0000

> <Gold.Chemscore.DEClash.Weighted>
0.2678

> <Gold.Chemscore.DEInternal.Weighted>
1.1417

> <Gold.Chemscore.Rot.Weighted>
7.5980

> <Gold.Chemscore.Internal.Correction.Weighted>
   9.000000E+99

> <Gold.Protein.RotatedTorsions>
[ 6907 6896 6895 6894 ] final   49.89 input  -60.11 | X-H torsion
[ 7974 7965 7964 7962 ] final  -75.63 input  175.53 | X-H torsion
[ 8008 7997 7996 7995 ] final   31.16 input   59.86 | X-H torsion
[ 10167 10162 10161 10158 ] final -127.78 input  -65.29 | X-H torsion
[ 10718 10713 10712 10709 ] final -163.16 input   66.30 | X-H torsion
[ 10763 10752 10751 10750 ] final   94.61 input  -60.55 | X-H torsion
[ 11005 11000 10999 10996 ] final   68.64 input  -57.11 | X-H torsion

> <Gold.Protein.ActiveResidues>
 VAL166  LYS551  ARG553  GLY616  TRP617  ASP618  TYR619  PRO620  LYS621  CYS622 
 ASP623  PHE694  ASN695  SER759  ASP760  ASP761  ALA762  ILE779  LEU786  VAL792 
 PHE793  MET794  SER795  GLU796  ALA797  LYS798  CYS799  TRP800  GLU811  SER814 

> <Gold.Protein.RotatedAtoms>
  152.2958  134.7668  160.0368 H   0  0  0  0  0  0  0  0  0  0  0  0  # atno 6907 bound_to 6896
  151.8199  133.3388  159.3589 H   0  0  0  0  0  0  0  0  0  0  0  0  # atno 6908 bound_to 6896
  150.7251  134.5513  159.5840 H   0  0  0  0  0  0  0  0  0  0  0  0  # atno 6909 bound_to 6896
  145.6235  140.9357  143.1125 H   0  0  0  0  0  0  0  0  0  0  0  0  # atno 7974 bound_to 7965
  155.1020  140.3230  155.4544 H   0  0  0  0  0  0  0  0  0  0  0  0  # atno 8008 bound_to 7997
  156.2714  140.2059  156.6093 H   0  0  0  0  0  0  0  0  0  0  0  0  # atno 8009 bound_to 7997
  154.6821  140.0525  157.0264 H   0  0  0  0  0  0  0  0  0  0  0  0  # atno 8010 bound_to 7997
  139.9573  143.5989  152.2456 H   0  0  0  0  0  0  0  0  0  0  0  0  # atno 10167 bound_to 10162
  156.6207  130.8889  151.2957 H   0  0  0  0  0  0  0  0  0  0  0  0  # atno 10718 bound_to 10713
  153.2436  135.4283  155.0724 H   0  0  0  0  0  0  0  0  0  0  0  0  # atno 10763 bound_to 10752
  154.8351  135.3409  154.6613 H   0  0  0  0  0  0  0  0  0  0  0  0  # atno 10764 bound_to 10752
  153.7036  135.7027  153.5113 H   0  0  0  0  0  0  0  0  0  0  0  0  # atno 10765 bound_to 10752
  139.9700  134.6916  156.0467 H   0  0  0  0  0  0  0  0  0  0  0  0  # atno 11005 bound_to 11000
  144.7221  139.7994  143.7378 LP  0  0  0  0  0  0  0  0  0  0  0  0  # atno 17320 bound_to 7965
  146.1412  139.4470  143.0107 LP  0  0  0  0  0  0  0  0  0  0  0  0  # atno 17321 bound_to 7965
  139.6582  144.7662  151.2015 LP  0  0  0  0  0  0  0  0  0  0  0  0  # atno 17342 bound_to 10162
  140.7564  143.6053  150.8659 LP  0  0  0  0  0  0  0  0  0  0  0  0  # atno 17343 bound_to 10162
  157.7228  130.9582  150.1510 LP  0  0  0  0  0  0  0  0  0  0  0  0  # atno 17370 bound_to 10713
  156.2314  130.3682  149.8441 LP  0  0  0  0  0  0  0  0  0  0  0  0  # atno 17371 bound_to 10713
  141.1379  133.6571  156.3647 LP  0  0  0  0  0  0  0  0  0  0  0  0  # atno 17394 bound_to 11000
  140.5314  134.6209  157.5351 LP  0  0  0  0  0  0  0  0  0  0  0  0  # atno 17395 bound_to 11000

$$$$
