AV-unprocessed.smi:1260|AV-procd|sdf|5293|dock1
  -GOLD-   22720 4413D 1   1.00000     0.00000
 Structure written by MMmdl.
 37 39  0  0  0  0  0  0  0  0  2 V2000
  147.5394  132.8556  154.7089 O   0  0  0  0  0  0  0  0  0  0  0  0
  148.2229  133.5344  153.9434 C   0  0  0  0  0  0  0  0  0  0  0  0
  149.7375  133.6068  154.1331 C   0  0  0  0  0  0  0  0  0  0  0  0
  150.0642  134.2556  155.3888 N   0  0  0  0  0  0  0  0  0  0  0  0
  149.5969  134.0619  156.6239 C   0  0  0  0  0  0  0  0  0  0  0  0
  150.1828  134.8631  157.5000 N   0  0  0  0  0  0  0  0  0  0  0  0
  151.0657  135.5906  156.7193 N   0  0  0  0  0  0  0  0  0  0  0  0
  151.0008  135.2335  155.4659 N   0  0  0  0  0  0  0  0  0  0  0  0
  147.7103  134.2539  152.9327 N   0  0  0  0  0  0  0  0  0  0  0  0
  146.2895  134.3624  152.6138 C   0  0  2  0  0  0  0  0  0  0  0  0
  145.5342  135.3127  153.5531 C   0  0  0  0  0  0  0  0  0  0  0  0
  144.1476  134.6694  153.7565 C   0  0  0  0  0  0  0  0  0  0  0  0
  144.1207  133.4395  152.9305 N   0  3  1  0  0  0  0  0  0  0  0  0
  143.4184  133.6525  151.6345 C   0  0  0  0  0  0  0  0  0  0  0  0
  143.5924  132.4659  150.6775 C   0  0  0  0  0  0  0  0  0  0  0  0
  145.0791  132.2063  150.4218 C   0  0  0  0  0  0  0  0  0  0  0  0
  145.7810  131.9286  151.7545 C   0  0  0  0  0  0  0  0  0  0  0  0
  145.5426  133.0359  152.8065 C   0  0  1  0  0  0  0  0  0  0  0  0
  150.1632  132.6022  154.1222 H   0  0  0  0  0  0  0  0  0  0  0  0
  150.2004  134.1632  153.3168 H   0  0  0  0  0  0  0  0  0  0  0  0
  148.8395  133.3359  156.8799 H   0  0  0  0  0  0  0  0  0  0  0  0
  148.3501  134.7758  152.3512 H   0  0  0  0  0  0  0  0  0  0  0  0
  146.1545  134.7182  151.5909 H   0  0  0  0  0  0  0  0  0  0  0  0
  146.0399  135.4071  154.5153 H   0  0  0  0  0  0  0  0  0  0  0  0
  145.4590  136.3124  153.1236 H   0  0  0  0  0  0  0  0  0  0  0  0
  144.0251  134.3853  154.8024 H   0  0  0  0  0  0  0  0  0  0  0  0
  143.3335  135.3537  153.5123 H   0  0  0  0  0  0  0  0  0  0  0  0
  142.3580  133.8171  151.8291 H   0  0  0  0  0  0  0  0  0  0  0  0
  143.7900  134.5590  151.1543 H   0  0  0  0  0  0  0  0  0  0  0  0
  143.1242  131.5749  151.0980 H   0  0  0  0  0  0  0  0  0  0  0  0
  143.0830  132.6701  149.7354 H   0  0  0  0  0  0  0  0  0  0  0  0
  145.2033  131.3577  149.7485 H   0  0  0  0  0  0  0  0  0  0  0  0
  145.5331  133.0659  149.9273 H   0  0  0  0  0  0  0  0  0  0  0  0
  145.4033  130.9854  152.1519 H   0  0  0  0  0  0  0  0  0  0  0  0
  146.8480  131.7738  151.5942 H   0  0  0  0  0  0  0  0  0  0  0  0
  145.8362  132.6289  153.7767 H   0  0  0  0  0  0  0  0  0  0  0  0
  143.6206  132.7146  153.4253 H   0  0  0  0  0  0  0  0  0  0  0  0
  1  2  2  0  0  0  0
  2  3  1  0  0  0  0
  2  9  1  0  0  0  0
  3  4  1  0  0  0  0
  3 19  1  0  0  0  0
  3 20  1  0  0  0  0
  4  8  1  0  0  0  0
  4  5  1  0  0  0  0
  5  6  2  0  0  0  0
  5 21  1  0  0  0  0
  6  7  1  0  0  0  0
  7  8  2  0  0  0  0
  9 10  1  0  0  0  0
  9 22  1  0  0  0  0
 10 18  1  0  0  0  0
 10 11  1  0  0  0  0
 10 23  1  0  0  0  0
 11 12  1  0  0  0  0
 11 24  1  0  0  0  0
 11 25  1  0  0  0  0
 12 13  1  0  0  0  0
 12 26  1  0  0  0  0
 12 27  1  0  0  0  0
 13 18  1  0  0  0  0
 13 14  1  0  0  0  0
 13 37  1  0  0  0  0
 14 15  1  0  0  0  0
 14 28  1  0  0  0  0
 14 29  1  0  0  0  0
 15 16  1  0  0  0  0
 15 30  1  0  0  0  0
 15 31  1  0  0  0  0
 16 17  1  0  0  0  0
 16 32  1  0  0  0  0
 16 33  1  0  0  0  0
 17 18  1  0  0  0  0
 17 34  1  0  0  0  0
 17 35  1  0  0  0  0
 18 36  1  0  0  0  0
M  CHG  1  13   1
M  END
> <s_m_source_file>
AV-unprocessed.smi

> <i_m_source_file_index>
1260

> <i_lp_mmshare_version>
43012

> <i_f3d_flags>
0

> <s_epik_input>
bjFubltjSF1uMVtDSDJdQyg9TylbTkhdW0NASF0oW0NIMl1bQ0gyXTIpW0NAQEhdKE4yMylbQ0gyXVtDSDJdW0NIMl1bQ0gyXTM=

> <s_epik_cmdline>
J2VwaWtfcHl0aG9uJywgJy1waCcsICc3LjAnLCAnLXRuJywgJzgnLCAnLW1hJywgJzIwMCcsICctbWV0YWxfYmluZGluZycsICctaW1hZScsICc8aW5maWxlLm1hZT4nLCAnLW9tYWUnLCAnPG91dGZpbGUubWFlPic=

> <r_lp_tautomer_probability>
1

> <r_epik_Ionization_Penalty>
0.00234324

> <r_epik_Ionization_Penalty_Charging>
0.00233897

> <r_epik_Ionization_Penalty_Neutral>
4.26861e-06

> <r_epik_State_Penalty>
0.00161477

> <r_epik_Charging_Adjusted_Penalty>
0.00395374

> <i_epik_Tot_Q>
1

> <i_epik_Tot_abs_Q>
1

> <r_epik_Metal_State_Penalty>
-0

> <b_epik_Metal_Only>
0

> <s_lp_Force_Field>
OPLS_2005

> <r_lp_Energy>
39.6077

> <b_lp_Chiralities_Consistent>
1

> <s_lp_Variant>
AV-unprocessed.smi:1260-1

> <Gold.Version>
5.8.1

> <Gold.Id.Protein>
6NUR|6NUR_protein|mol2

> <Gold.PLP.Fitness>
38.3465

> <Gold.PLP.PLP>
-25.8408

> <Gold.PLP.part.hbond>
-4.0000

> <Gold.PLP.part.metal>
0.0000

> <Gold.PLP.part.buried>
-3.6730

> <Gold.PLP.part.nonpolar>
-18.4055

> <Gold.PLP.part.repulsive>
0.1104

> <Gold.PLP.ligand.clash>
0.0000

> <Gold.PLP.ligand.torsion>
0.4363

> <Gold.PLP.Chemscore.Hbond>
4.4544

> <Gold.PLP.Chemscore.CHOScore>
0.0000

> <Gold.PLP.Chemscore.Metal>
0.0000

> <Gold.Chemscore.Hbonds>
donor molecule, donor type, donor heavy atom, donor atom, acceptor molecule, acceptor atom, score
      L1  H     9    22       P1  7948  0.95
      L1  H    13    37       P1 10957  2.00
      P1  H  6896  6907       L1     6  0.71
      P1  H 10752 10765       L1     8  0.80

> <Gold.PLP.Chemscore.Internal.Correction>
0.0153

> <Gold.Rescore>
     Score         DG    S(hbond)    S(metal)    S(lipo)     H(rot)  DE(clash)    DE(int)     intcor
     13.22     -15.23       2.97        0.00      41.64       1.98       0.01       2.00       ----

> <Gold.Chemscore.Fitness>
13.2234

> <Gold.Chemscore.DG>
-15.2265

> <Gold.Chemscore.ZeroCoef>
-5.4800

> <Gold.Chemscore.Hbond>
2.9738

> <Gold.Chemscore.Metal>
0.0000

> <Gold.Chemscore.Lipo>
41.6390

> <Gold.Chemscore.Internal_Hbond>
0.0000

> <Gold.Chemscore.DEClash>
0.0060

> <Gold.Chemscore.DEInternal>
1.9971

> <Gold.Chemscore.Rot>
1.9757

> <Gold.Chemscore.Internal.Correction>
   9.000000E+99

> <Gold.Chemscore.Hbonds>
donor molecule, donor type, donor heavy atom, donor atom, acceptor molecule, acceptor atom, score
      L1  H     9    22       P1  7948  0.20
      L1  H    13    37       P1 10957  0.55
      P1  H  6896  6907       L1     6  0.65
      P1  H 10752 10765       L1     8  0.30

> <Gold.Chemscore.Hbond.Weighted>
-9.9325

> <Gold.Chemscore.Metal.Weighted>
-0.0000

> <Gold.Chemscore.Lipo.Weighted>
-4.8718

> <Gold.Chemscore.Internal_Hbond.Weighted>
0.0000

> <Gold.Chemscore.DEClash.Weighted>
0.0060

> <Gold.Chemscore.DEInternal.Weighted>
1.9971

> <Gold.Chemscore.Rot.Weighted>
5.0578

> <Gold.Chemscore.Internal.Correction.Weighted>
   9.000000E+99

> <Gold.Protein.RotatedTorsions>
[ 6907 6896 6895 6894 ] final  -95.35 input  -60.11 | X-H torsion
[ 7974 7965 7964 7962 ] final  135.81 input  175.53 | X-H torsion
[ 8008 7997 7996 7995 ] final   14.38 input   59.86 | X-H torsion
[ 10167 10162 10161 10158 ] final  165.76 input  -65.29 | X-H torsion
[ 10718 10713 10712 10709 ] final  159.42 input   66.30 | X-H torsion
[ 10763 10752 10751 10750 ] final -168.80 input  -60.55 | X-H torsion
[ 11005 11000 10999 10996 ] final   28.61 input  -57.11 | X-H torsion

> <Gold.Protein.ActiveResidues>
 VAL166  LYS551  ARG553  GLY616  TRP617  ASP618  TYR619  PRO620  LYS621  CYS622 
 ASP623  PHE694  ASN695  SER759  ASP760  ASP761  ALA762  ILE779  LEU786  VAL792 
 PHE793  MET794  SER795  GLU796  ALA797  LYS798  CYS799  TRP800  GLU811  SER814 

> <Gold.Protein.RotatedAtoms>
  150.6962  134.1671  159.4197 H   0  0  0  0  0  0  0  0  0  0  0  0  # atno 6907 bound_to 6896
  151.9650  135.0102  160.0559 H   0  0  0  0  0  0  0  0  0  0  0  0  # atno 6908 bound_to 6896
  152.1893  133.4726  159.5036 H   0  0  0  0  0  0  0  0  0  0  0  0  # atno 6909 bound_to 6896
  144.9626  139.4693  143.5472 H   0  0  0  0  0  0  0  0  0  0  0  0  # atno 7974 bound_to 7965
  154.8476  140.2924  155.5619 H   0  0  0  0  0  0  0  0  0  0  0  0  # atno 8008 bound_to 7997
  156.3015  140.2502  156.3361 H   0  0  0  0  0  0  0  0  0  0  0  0  # atno 8009 bound_to 7997
  154.9056  140.0390  157.1907 H   0  0  0  0  0  0  0  0  0  0  0  0  # atno 8010 bound_to 7997
  139.4912  144.4099  151.9312 H   0  0  0  0  0  0  0  0  0  0  0  0  # atno 10167 bound_to 10162
  157.1644  131.0595  151.2215 H   0  0  0  0  0  0  0  0  0  0  0  0  # atno 10718 bound_to 10713
  154.6590  135.2922  154.9891 H   0  0  0  0  0  0  0  0  0  0  0  0  # atno 10763 bound_to 10752
  154.0957  135.6584  153.4864 H   0  0  0  0  0  0  0  0  0  0  0  0  # atno 10764 bound_to 10752
  153.0419  135.5230  154.7532 H   0  0  0  0  0  0  0  0  0  0  0  0  # atno 10765 bound_to 10752
  140.3137  134.2621  155.7729 H   0  0  0  0  0  0  0  0  0  0  0  0  # atno 11005 bound_to 11000
  146.3358  139.8786  142.8828 LP  0  0  0  0  0  0  0  0  0  0  0  0  # atno 17320 bound_to 7965
  145.2677  141.0098  143.3790 LP  0  0  0  0  0  0  0  0  0  0  0  0  # atno 17321 bound_to 7965
  140.3540  144.3054  150.5944 LP  0  0  0  0  0  0  0  0  0  0  0  0  # atno 17342 bound_to 10162
  140.5461  143.2214  151.8005 LP  0  0  0  0  0  0  0  0  0  0  0  0  # atno 17343 bound_to 10162
  157.4102  130.7381  149.6833 LP  0  0  0  0  0  0  0  0  0  0  0  0  # atno 17370 bound_to 10713
  155.9748  130.4097  150.3893 LP  0  0  0  0  0  0  0  0  0  0  0  0  # atno 17371 bound_to 10713
  141.2102  133.7725  156.9945 LP  0  0  0  0  0  0  0  0  0  0  0  0  # atno 17394 bound_to 11000
  140.1002  134.9540  157.1911 LP  0  0  0  0  0  0  0  0  0  0  0  0  # atno 17395 bound_to 11000

$$$$
