AV-unprocessed.smi:21|AV-procd|sdf|147|dock3
  -GOLD-   2262015363D 1   1.00000     0.00000
 Structure written by MMmdl.
 62 65  0  0  0  0  0  0  0  0  2 V2000
  144.5041  132.3911  150.8809 C   0  0  0  0  0  0  0  0  0  0  0  0
  144.5096  133.7933  151.0954 O   0  0  0  0  0  0  0  0  0  0  0  0
  145.7634  134.4046  150.8243 C   0  0  1  0  0  0  0  0  0  0  0  0
  145.5678  135.9141  150.8407 C   0  0  0  0  0  0  0  0  0  0  0  0
  145.7483  136.3047  152.3108 C   0  0  2  0  0  0  0  0  0  0  0  0
  146.1434  137.7852  152.5282 C   0  0  0  0  0  0  0  0  0  0  0  0
  146.2116  138.1691  153.9395 N   0  0  0  0  0  0  0  0  0  0  0  0
  145.0790  137.8500  154.7990 C   0  0  0  0  0  0  0  0  0  0  0  0
  146.9826  139.2432  154.2470 C   0  0  0  0  0  0  0  0  0  0  0  0
  146.9946  140.2803  153.3699 N   0  0  0  0  0  0  0  0  0  0  0  0
  147.6722  141.3964  153.6503 C   0  0  0  0  0  0  0  0  0  0  0  0
  148.3714  141.6929  154.7463 N   0  0  0  0  0  0  0  0  0  0  0  0
  148.3614  140.6584  155.6341 C   0  0  0  0  0  0  0  0  0  0  0  0
  147.7218  139.3983  155.4573 C   0  0  0  0  0  0  0  0  0  0  0  0
  147.9347  138.6059  156.5805 N   0  0  0  0  0  0  0  0  0  0  0  0
  148.6420  139.3573  157.3785 C   0  0  0  0  0  0  0  0  0  0  0  0
  148.9051  140.6222  156.9058 N   0  0  0  0  0  0  0  0  0  0  0  0
  149.6141  141.6791  157.6036 C   0  0  0  0  0  0  0  0  0  0  0  0
  150.9630  142.0863  156.9495 C   0  0  2  0  0  0  0  0  0  0  0  0
  151.7307  140.8109  156.5315 C   0  0  0  0  0  0  0  0  0  0  0  0
  151.3376  140.3599  155.2509 O   0  0  0  0  0  0  0  0  0  0  0  0
  151.8356  143.0608  157.7984 C   0  0  1  0  0  0  0  0  0  0  0  0
  151.1018  144.2945  158.3021 C   0  0  0  0  0  0  0  0  0  0  0  0
  152.0086  144.7770  159.4252 C   0  0  0  0  0  0  0  0  0  0  0  0
  152.4616  143.5856  160.0483 O   0  0  0  0  0  0  0  0  0  0  0  0
  152.3734  142.5021  159.1278 C   0  0  0  0  0  0  0  0  0  0  0  0
  146.7951  135.3804  152.8018 N   0  3  1  0  0  0  0  0  0  0  0  0
  146.7470  135.1169  154.2566 C   0  0  0  0  0  0  0  0  0  0  0  0
  146.7531  134.1508  151.9731 C   0  0  0  0  0  0  0  0  0  0  0  0
  146.1513  134.0797  149.8571 H   0  0  0  0  0  0  0  0  0  0  0  0
  144.8211  136.0811  152.8415 H   0  0  0  0  0  0  0  0  0  0  0  0
  143.5216  131.9889  151.1277 H   0  0  0  0  0  0  0  0  0  0  0  0
  145.2410  131.8841  151.5044 H   0  0  0  0  0  0  0  0  0  0  0  0
  144.7085  132.1536  149.8360 H   0  0  0  0  0  0  0  0  0  0  0  0
  146.3381  136.3859  150.2292 H   0  0  0  0  0  0  0  0  0  0  0  0
  144.5985  136.2050  150.4388 H   0  0  0  0  0  0  0  0  0  0  0  0
  147.1293  137.9654  152.0997 H   0  0  0  0  0  0  0  0  0  0  0  0
  145.4662  138.4405  151.9792 H   0  0  0  0  0  0  0  0  0  0  0  0
  145.3356  137.9834  155.8505 H   0  0  0  0  0  0  0  0  0  0  0  0
  144.7819  136.8105  154.6603 H   0  0  0  0  0  0  0  0  0  0  0  0
  144.2206  138.4800  154.5659 H   0  0  0  0  0  0  0  0  0  0  0  0
  147.6342  142.1691  152.8965 H   0  0  0  0  0  0  0  0  0  0  0  0
  148.9604  139.0193  158.3541 H   0  0  0  0  0  0  0  0  0  0  0  0
  148.9544  142.5448  157.6739 H   0  0  0  0  0  0  0  0  0  0  0  0
  149.7823  141.3378  158.6258 H   0  0  0  0  0  0  0  0  0  0  0  0
  150.7284  142.6017  156.0174 H   0  0  0  0  0  0  0  0  0  0  0  0
  152.8045  141.0010  156.5189 H   0  0  0  0  0  0  0  0  0  0  0  0
  151.5765  140.0059  157.2498 H   0  0  0  0  0  0  0  0  0  0  0  0
  151.0474  139.4637  155.3234 H   0  0  0  0  0  0  0  0  0  0  0  0
  152.6826  143.3979  157.1985 H   0  0  0  0  0  0  0  0  0  0  0  0
  150.9574  145.0536  157.5326 H   0  0  0  0  0  0  0  0  0  0  0  0
  150.1248  144.0221  158.7044 H   0  0  0  0  0  0  0  0  0  0  0  0
  152.8667  145.3152  159.0203 H   0  0  0  0  0  0  0  0  0  0  0  0
  151.4965  145.4300  160.1321 H   0  0  0  0  0  0  0  0  0  0  0  0
  151.6938  141.7626  159.5517 H   0  0  0  0  0  0  0  0  0  0  0  0
  153.3519  142.0384  159.0118 H   0  0  0  0  0  0  0  0  0  0  0  0
  145.8084  134.6382  154.5388 H   0  0  0  0  0  0  0  0  0  0  0  0
  146.8433  136.0424  154.8242 H   0  0  0  0  0  0  0  0  0  0  0  0
  147.5670  134.4604  154.5496 H   0  0  0  0  0  0  0  0  0  0  0  0
  146.4730  133.2731  152.5573 H   0  0  0  0  0  0  0  0  0  0  0  0
  147.7551  133.9710  151.5830 H   0  0  0  0  0  0  0  0  0  0  0  0
  147.6812  135.8221  152.6017 H   0  0  0  0  0  0  0  0  0  0  0  0
  1  2  1  0  0  0  0
  1 32  1  0  0  0  0
  1 33  1  0  0  0  0
  1 34  1  0  0  0  0
  2  3  1  0  0  0  0
  3 30  1  0  0  0  0
  3 29  1  0  0  0  0
  3  4  1  0  0  0  0
  4  5  1  0  0  0  0
  4 35  1  0  0  0  0
  4 36  1  0  0  0  0
  5 31  1  0  0  0  0
  5  6  1  0  0  0  0
  5 27  1  0  0  0  0
  6  7  1  0  0  0  0
  6 37  1  0  0  0  0
  6 38  1  0  0  0  0
  7  8  1  0  0  0  0
  7  9  1  0  0  0  0
  8 39  1  0  0  0  0
  8 40  1  0  0  0  0
  8 41  1  0  0  0  0
  9 14  1  0  0  0  0
  9 10  2  0  0  0  0
 10 11  1  0  0  0  0
 11 12  2  0  0  0  0
 11 42  1  0  0  0  0
 12 13  1  0  0  0  0
 13 17  1  0  0  0  0
 13 14  2  0  0  0  0
 14 15  1  0  0  0  0
 15 16  2  0  0  0  0
 16 17  1  0  0  0  0
 16 43  1  0  0  0  0
 17 18  1  0  0  0  0
 18 19  1  0  0  0  0
 18 44  1  0  0  0  0
 18 45  1  0  0  0  0
 19 20  1  0  0  0  0
 19 22  1  0  0  0  0
 19 46  1  0  0  0  0
 20 21  1  0  0  0  0
 20 47  1  0  0  0  0
 20 48  1  0  0  0  0
 21 49  1  0  0  0  0
 22 26  1  0  0  0  0
 22 23  1  0  0  0  0
 22 50  1  0  0  0  0
 23 24  1  0  0  0  0
 23 51  1  0  0  0  0
 23 52  1  0  0  0  0
 24 25  1  0  0  0  0
 24 53  1  0  0  0  0
 24 54  1  0  0  0  0
 25 26  1  0  0  0  0
 26 55  1  0  0  0  0
 26 56  1  0  0  0  0
 27 28  1  0  0  0  0
 27 29  1  0  0  0  0
 27 62  1  0  0  0  0
 28 57  1  0  0  0  0
 28 58  1  0  0  0  0
 28 59  1  0  0  0  0
 29 60  1  0  0  0  0
 29 61  1  0  0  0  0
M  CHG  1  27   1
M  END
> <s_m_source_file>
AV-unprocessed.smi

> <i_m_source_file_index>
21

> <i_lp_mmshare_version>
43012

> <i_f3d_flags>
0

> <s_epik_input>
W0NIM11PW0NASF0xW0NIMl1bQ0BIXShOKFtDSDNdKVtDSDJdMSlbQ0gyXU4oW0NIM10pYyhuW2NIXW4yKWMoYzIzKW5bY0hdbjNbQ0gyXVtDQEhdKFtDSDJdW09IXSlbQ0BASF00W0NIMl1bQ0gyXU9bQ0gyXTQ=

> <s_epik_cmdline>
J2VwaWtfcHl0aG9uJywgJy1waCcsICc3LjAnLCAnLXRuJywgJzgnLCAnLW1hJywgJzIwMCcsICctbWV0YWxfYmluZGluZycsICctaW1hZScsICc8aW5maWxlLm1hZT4nLCAnLW9tYWUnLCAnPG91dGZpbGUubWFlPic=

> <r_lp_tautomer_probability>
1

> <r_epik_Ionization_Penalty>
0.0157465

> <r_epik_Ionization_Penalty_Charging>
0.015354

> <r_epik_Ionization_Penalty_Neutral>
0.000392529

> <r_epik_State_Penalty>
0.0120612

> <r_epik_Charging_Adjusted_Penalty>
0.0274152

> <i_epik_Tot_Q>
1

> <i_epik_Tot_abs_Q>
1

> <r_epik_Metal_State_Penalty>
0.0121253

> <b_epik_Metal_Only>
0

> <s_lp_Force_Field>
OPLS_2005

> <r_lp_Energy>
57.9391

> <b_lp_Chiralities_Consistent>
1

> <s_lp_Variant>
AV-unprocessed.smi:21-27

> <Gold.Version>
5.8.1

> <Gold.Id.Protein>
6NUR|6NUR_protein|mol2

> <Gold.PLP.Fitness>
50.9331

> <Gold.PLP.PLP>
-44.3852

> <Gold.PLP.part.hbond>
-2.0000

> <Gold.PLP.part.metal>
0.0000

> <Gold.PLP.part.buried>
-8.9437

> <Gold.PLP.part.nonpolar>
-34.0583

> <Gold.PLP.part.repulsive>
0.4952

> <Gold.PLP.ligand.clash>
0.0000

> <Gold.PLP.ligand.torsion>
1.6798

> <Gold.PLP.Chemscore.Hbond>
3.0000

> <Gold.PLP.Chemscore.CHOScore>
0.0000

> <Gold.PLP.Chemscore.Metal>
0.0000

> <Gold.Chemscore.Hbonds>
donor molecule, donor type, donor heavy atom, donor atom, acceptor molecule, acceptor atom, score
      L1  H    27    62       P1  7948  1.92
      P1  H  7989  7998       L1    21  0.98

> <Gold.PLP.Chemscore.Internal.Correction>
0.9074

> <Gold.Rescore>
     Score         DG    S(hbond)    S(metal)    S(lipo)     H(rot)  DE(clash)    DE(int)     intcor
     14.34     -16.35       1.92        0.00     105.40       3.08       0.22       1.80       ----

> <Gold.Chemscore.Fitness>
14.3372

> <Gold.Chemscore.DG>
-16.3495

> <Gold.Chemscore.ZeroCoef>
-5.4800

> <Gold.Chemscore.Hbond>
1.9198

> <Gold.Chemscore.Metal>
0.0000

> <Gold.Chemscore.Lipo>
105.3975

> <Gold.Chemscore.Internal_Hbond>
0.0000

> <Gold.Chemscore.DEClash>
0.2167

> <Gold.Chemscore.DEInternal>
1.7956

> <Gold.Chemscore.Rot>
3.0758

> <Gold.Chemscore.Internal.Correction>
   9.000000E+99

> <Gold.Chemscore.Hbonds>
donor molecule, donor type, donor heavy atom, donor atom, acceptor molecule, acceptor atom, score
      L1  H    27    62       P1  7948  0.91
      P1  H  7989  7998       L1    21  0.80

> <Gold.Chemscore.Hbond.Weighted>
-6.4121

> <Gold.Chemscore.Metal.Weighted>
-0.0000

> <Gold.Chemscore.Lipo.Weighted>
-12.3315

> <Gold.Chemscore.Internal_Hbond.Weighted>
0.0000

> <Gold.Chemscore.DEClash.Weighted>
0.2167

> <Gold.Chemscore.DEInternal.Weighted>
1.7956

> <Gold.Chemscore.Rot.Weighted>
7.8741

> <Gold.Chemscore.Internal.Correction.Weighted>
   9.000000E+99

> <Gold.Protein.RotatedTorsions>
[ 6907 6896 6895 6894 ] final   81.97 input  -60.11 | X-H torsion
[ 7974 7965 7964 7962 ] final  175.78 input  175.53 | X-H torsion
[ 8008 7997 7996 7995 ] final  178.04 input   59.86 | X-H torsion
[ 10167 10162 10161 10158 ] final -121.76 input  -65.29 | X-H torsion
[ 10718 10713 10712 10709 ] final    7.63 input   66.30 | X-H torsion
[ 10763 10752 10751 10750 ] final  -55.04 input  -60.55 | X-H torsion
[ 11005 11000 10999 10996 ] final  110.19 input  -57.11 | X-H torsion

> <Gold.Protein.ActiveResidues>
 VAL166  LYS551  ARG553  GLY616  TRP617  ASP618  TYR619  PRO620  LYS621  CYS622 
 ASP623  PHE694  ASN695  SER759  ASP760  ASP761  ALA762  ILE779  LEU786  VAL792 
 PHE793  MET794  SER795  GLU796  ALA797  LYS798  CYS799  TRP800  GLU811  SER814 

> <Gold.Protein.RotatedAtoms>
  152.5285  134.3123  159.9117 H   0  0  0  0  0  0  0  0  0  0  0  0  # atno 6907 bound_to 6896
  151.3072  133.4090  159.2652 H   0  0  0  0  0  0  0  0  0  0  0  0  # atno 6908 bound_to 6896
  151.0069  134.9383  159.8042 H   0  0  0  0  0  0  0  0  0  0  0  0  # atno 6909 bound_to 6896
  144.7195  139.9998  143.6440 H   0  0  0  0  0  0  0  0  0  0  0  0  # atno 7974 bound_to 7965
  156.0590  140.1343  156.9963 H   0  0  0  0  0  0  0  0  0  0  0  0  # atno 8008 bound_to 7997
  154.4472  140.0995  156.6560 H   0  0  0  0  0  0  0  0  0  0  0  0  # atno 8009 bound_to 7997
  155.5406  140.3461  155.4448 H   0  0  0  0  0  0  0  0  0  0  0  0  # atno 8010 bound_to 7997
  140.0216  143.5339  152.2218 H   0  0  0  0  0  0  0  0  0  0  0  0  # atno 10167 bound_to 10162
  156.9397  130.5857  149.5652 H   0  0  0  0  0  0  0  0  0  0  0  0  # atno 10718 bound_to 10713
  154.1844  135.6438  153.5043 H   0  0  0  0  0  0  0  0  0  0  0  0  # atno 10763 bound_to 10752
  153.0051  135.5414  154.6480 H   0  0  0  0  0  0  0  0  0  0  0  0  # atno 10764 bound_to 10752
  154.5853  135.2929  155.0664 H   0  0  0  0  0  0  0  0  0  0  0  0  # atno 10765 bound_to 10752
  139.8877  134.9478  156.6241 H   0  0  0  0  0  0  0  0  0  0  0  0  # atno 11005 bound_to 11000
  146.0345  139.3365  143.0735 LP  0  0  0  0  0  0  0  0  0  0  0  0  # atno 17320 bound_to 7965
  145.8412  140.9579  143.0798 LP  0  0  0  0  0  0  0  0  0  0  0  0  # atno 17321 bound_to 7965
  139.6136  144.7614  151.2896 LP  0  0  0  0  0  0  0  0  0  0  0  0  # atno 17342 bound_to 10162
  140.7340  143.6778  150.8026 LP  0  0  0  0  0  0  0  0  0  0  0  0  # atno 17343 bound_to 10162
  156.0410  130.5492  150.8770 LP  0  0  0  0  0  0  0  0  0  0  0  0  # atno 17370 bound_to 10713
  157.5793  131.0946  150.9297 LP  0  0  0  0  0  0  0  0  0  0  0  0  # atno 17371 bound_to 10713
  140.7717  133.8733  155.8497 LP  0  0  0  0  0  0  0  0  0  0  0  0  # atno 17394 bound_to 11000
  140.9836  134.1372  157.4472 LP  0  0  0  0  0  0  0  0  0  0  0  0  # atno 17395 bound_to 11000

$$$$
