AV-unprocessed.smi:3303|AV-procd|sdf|12678|dock5
  -GOLD-   2272019 13D 1   1.00000     0.00000
 Structure written by MMmdl.
 44 45  0  0  0  0  0  0  0  0  2 V2000
  148.6826  141.6691  154.4384 C   0  0  0  0  0  0  0  0  0  0  0  0
  149.4075  140.7848  155.4669 C   0  0  1  0  0  0  0  0  0  0  0  0
  149.7022  139.4004  154.8530 C   0  0  0  0  0  0  0  0  0  0  0  0
  150.3945  138.5423  155.8143 N   0  0  0  0  0  0  0  0  0  0  0  0
  150.4958  137.1815  155.3020 C   0  0  0  0  0  0  0  0  0  0  0  0
  151.6910  139.0878  156.2429 C   0  0  1  0  0  0  0  0  0  0  0  0
  152.7640  139.1487  155.1316 C   0  0  0  0  0  0  0  0  0  0  0  0
  151.4503  140.4579  156.9086 C   0  0  0  0  0  0  0  0  0  0  0  0
  150.7049  141.4409  155.9875 C   0  0  2  0  0  0  0  0  0  0  0  0
  150.4008  142.6831  156.7322 N   0  3  0  0  0  0  0  0  0  0  0  0
  151.5769  143.5108  157.0654 C   0  0  0  0  0  0  0  0  0  0  0  0
  151.2627  144.4737  158.2183 C   0  0  0  0  0  0  0  0  0  0  0  0
  151.7500  143.9466  159.5545 C   0  0  0  0  0  0  0  0  0  0  0  0
  151.5832  144.7051  160.7328 C   0  0  0  0  0  0  0  0  0  0  0  0
  152.0611  144.1727  161.9460 C   0  0  0  0  0  0  0  0  0  0  0  0
  152.6833  142.9096  161.9337 C   0  0  0  0  0  0  0  0  0  0  0  0
  152.8031  142.2327  160.7035 C   0  0  0  0  0  0  0  0  0  0  0  0
  152.3504  142.7353  159.5341 N   0  0  0  0  0  0  0  0  0  0  0  0
  149.3153  141.8688  153.5729 H   0  0  0  0  0  0  0  0  0  0  0  0
  148.3901  142.6283  154.8659 H   0  0  0  0  0  0  0  0  0  0  0  0
  147.7741  141.1847  154.0790 H   0  0  0  0  0  0  0  0  0  0  0  0
  148.7341  140.6356  156.3128 H   0  0  0  0  0  0  0  0  0  0  0  0
  148.7593  138.9283  154.5736 H   0  0  0  0  0  0  0  0  0  0  0  0
  150.2838  139.4967  153.9359 H   0  0  0  0  0  0  0  0  0  0  0  0
  151.0095  136.5374  156.0163 H   0  0  0  0  0  0  0  0  0  0  0  0
  151.0318  137.1439  154.3534 H   0  0  0  0  0  0  0  0  0  0  0  0
  149.5012  136.7655  155.1385 H   0  0  0  0  0  0  0  0  0  0  0  0
  152.0739  138.4202  157.0161 H   0  0  0  0  0  0  0  0  0  0  0  0
  153.6918  139.5675  155.5218 H   0  0  0  0  0  0  0  0  0  0  0  0
  152.4642  139.7674  154.2865 H   0  0  0  0  0  0  0  0  0  0  0  0
  153.0083  138.1583  154.7488 H   0  0  0  0  0  0  0  0  0  0  0  0
  150.8698  140.3063  157.8203 H   0  0  0  0  0  0  0  0  0  0  0  0
  152.4008  140.8889  157.2258 H   0  0  0  0  0  0  0  0  0  0  0  0
  151.3441  141.6744  155.1345 H   0  0  0  0  0  0  0  0  0  0  0  0
  149.7747  143.2393  156.1676 H   0  0  0  0  0  0  0  0  0  0  0  0
  152.4094  142.8582  157.3326 H   0  0  0  0  0  0  0  0  0  0  0  0
  151.8781  144.0778  156.1836 H   0  0  0  0  0  0  0  0  0  0  0  0
  151.7211  145.4453  158.0286 H   0  0  0  0  0  0  0  0  0  0  0  0
  150.1872  144.6488  158.2783 H   0  0  0  0  0  0  0  0  0  0  0  0
  151.1019  145.6720  160.7110 H   0  0  0  0  0  0  0  0  0  0  0  0
  151.9532  144.7235  162.8690 H   0  0  0  0  0  0  0  0  0  0  0  0
  153.0602  142.4702  162.8455 H   0  0  0  0  0  0  0  0  0  0  0  0
  153.2764  141.2629  160.6574 H   0  0  0  0  0  0  0  0  0  0  0  0
  149.9246  142.4362  157.5882 H   0  0  0  0  0  0  0  0  0  0  0  0
  1  2  1  0  0  0  0
  1 19  1  0  0  0  0
  1 20  1  0  0  0  0
  1 21  1  0  0  0  0
  2  9  1  0  0  0  0
  2  3  1  0  0  0  0
  2 22  1  0  0  0  0
  3  4  1  0  0  0  0
  3 23  1  0  0  0  0
  3 24  1  0  0  0  0
  4  5  1  0  0  0  0
  4  6  1  0  0  0  0
  5 25  1  0  0  0  0
  5 26  1  0  0  0  0
  5 27  1  0  0  0  0
  6  7  1  0  0  0  0
  6  8  1  0  0  0  0
  6 28  1  0  0  0  0
  7 29  1  0  0  0  0
  7 30  1  0  0  0  0
  7 31  1  0  0  0  0
  8  9  1  0  0  0  0
  8 32  1  0  0  0  0
  8 33  1  0  0  0  0
  9 10  1  0  0  0  0
  9 34  1  0  0  0  0
 10 11  1  0  0  0  0
 10 35  1  0  0  0  0
 10 44  1  0  0  0  0
 11 12  1  0  0  0  0
 11 36  1  0  0  0  0
 11 37  1  0  0  0  0
 12 13  1  0  0  0  0
 12 38  1  0  0  0  0
 12 39  1  0  0  0  0
 13 18  1  0  0  0  0
 13 14  2  0  0  0  0
 14 15  1  0  0  0  0
 14 40  1  0  0  0  0
 15 16  2  0  0  0  0
 15 41  1  0  0  0  0
 16 17  1  0  0  0  0
 16 42  1  0  0  0  0
 17 18  2  0  0  0  0
 17 43  1  0  0  0  0
M  CHG  1  10   1
M  END
> <s_m_source_file>
AV-unprocessed.smi

> <i_m_source_file_index>
3303

> <i_lp_mmshare_version>
43012

> <i_f3d_flags>
0

> <s_epik_input>
W0NIM11bQ0BASF0xW0NIMl1OKFtDSDNdKVtDQEBIXShbQ0gzXSlbQ0gyXVtDQEhdMVtOSF1bQ0gyXVtDSDJdYzJbY0hdW2NIXVtjSF1bY0hdbjI=

> <s_epik_cmdline>
J2VwaWtfcHl0aG9uJywgJy1waCcsICc3LjAnLCAnLXRuJywgJzgnLCAnLW1hJywgJzIwMCcsICctbWV0YWxfYmluZGluZycsICctaW1hZScsICc8aW5maWxlLm1hZT4nLCAnLW9tYWUnLCAnPG91dGZpbGUubWFlPic=

> <r_epik_Ionization_Penalty>
1.37325

> <r_epik_Ionization_Penalty_Charging>
0.000251572

> <r_epik_Ionization_Penalty_Neutral>
1.373

> <r_epik_State_Penalty>
1.46343

> <r_epik_Charging_Adjusted_Penalty>
1.46368

> <i_epik_Tot_Q>
1

> <i_epik_Tot_abs_Q>
1

> <r_epik_Metal_State_Penalty>
1.46331

> <b_epik_Metal_Only>
0

> <s_lp_Force_Field>
OPLS_2005

> <r_lp_Energy>
23.1884

> <b_lp_Chiralities_Consistent>
1

> <s_lp_Variant>
AV-unprocessed.smi:3303-22

> <Gold.Version>
5.8.1

> <Gold.Id.Protein>
6NUR|6NUR_protein|mol2

> <Gold.PLP.Fitness>
50.9428

> <Gold.PLP.PLP>
-45.7382

> <Gold.PLP.part.hbond>
-1.0000

> <Gold.PLP.part.metal>
0.0000

> <Gold.PLP.part.buried>
-4.0489

> <Gold.PLP.part.nonpolar>
-39.5341

> <Gold.PLP.part.repulsive>
0.0988

> <Gold.PLP.ligand.clash>
0.0000

> <Gold.PLP.ligand.torsion>
0.4086

> <Gold.PLP.Chemscore.Hbond>
2.0000

> <Gold.PLP.Chemscore.CHOScore>
0.0000

> <Gold.PLP.Chemscore.Metal>
0.0000

> <Gold.Chemscore.Hbonds>
donor molecule, donor type, donor heavy atom, donor atom, acceptor molecule, acceptor atom, score
      L1  H    10    35       P1  8028  2.00

> <Gold.PLP.Chemscore.Internal.Correction>
0.0219

> <Gold.Rescore>
     Score         DG    S(hbond)    S(metal)    S(lipo)     H(rot)  DE(clash)    DE(int)     intcor
     20.22     -21.81       0.99        0.00     140.57       1.33       1.21       0.39       ----

> <Gold.Chemscore.Fitness>
20.2151

> <Gold.Chemscore.DG>
-21.8127

> <Gold.Chemscore.ZeroCoef>
-5.4800

> <Gold.Chemscore.Hbond>
0.9852

> <Gold.Chemscore.Metal>
0.0000

> <Gold.Chemscore.Lipo>
140.5682

> <Gold.Chemscore.Internal_Hbond>
0.0000

> <Gold.Chemscore.DEClash>
1.2060

> <Gold.Chemscore.DEInternal>
0.3917

> <Gold.Chemscore.Rot>
1.3298

> <Gold.Chemscore.Internal.Correction>
   9.000000E+99

> <Gold.Chemscore.Hbonds>
donor molecule, donor type, donor heavy atom, donor atom, acceptor molecule, acceptor atom, score
      L1  H    10    35       P1  8028  0.99

> <Gold.Chemscore.Hbond.Weighted>
-3.2906

> <Gold.Chemscore.Metal.Weighted>
-0.0000

> <Gold.Chemscore.Lipo.Weighted>
-16.4465

> <Gold.Chemscore.Internal_Hbond.Weighted>
0.0000

> <Gold.Chemscore.DEClash.Weighted>
1.2060

> <Gold.Chemscore.DEInternal.Weighted>
0.3917

> <Gold.Chemscore.Rot.Weighted>
3.4043

> <Gold.Chemscore.Internal.Correction.Weighted>
   9.000000E+99

> <Gold.Protein.RotatedTorsions>
[ 6907 6896 6895 6894 ] final  -93.32 input  -60.11 | X-H torsion
[ 7974 7965 7964 7962 ] final   61.45 input  175.53 | X-H torsion
[ 8008 7997 7996 7995 ] final  -94.13 input   59.86 | X-H torsion
[ 10167 10162 10161 10158 ] final -151.89 input  -65.29 | X-H torsion
[ 10718 10713 10712 10709 ] final  111.22 input   66.30 | X-H torsion
[ 10763 10752 10751 10750 ] final  -62.75 input  -60.55 | X-H torsion
[ 11005 11000 10999 10996 ] final  -36.55 input  -57.11 | X-H torsion

> <Gold.Protein.ActiveResidues>
 VAL166  LYS551  ARG553  GLY616  TRP617  ASP618  TYR619  PRO620  LYS621  CYS622 
 ASP623  PHE694  ASN695  SER759  ASP760  ASP761  ALA762  ILE779  LEU786  VAL792 
 PHE793  MET794  SER795  GLU796  ALA797  LYS798  CYS799  TRP800  GLU811  SER814 

> <Gold.Protein.RotatedAtoms>
  150.6920  134.1986  159.4312 H   0  0  0  0  0  0  0  0  0  0  0  0  # atno 6907 bound_to 6896
  151.9953  134.9955  160.0572 H   0  0  0  0  0  0  0  0  0  0  0  0  # atno 6908 bound_to 6896
  152.1629  133.4558  159.4907 H   0  0  0  0  0  0  0  0  0  0  0  0  # atno 6909 bound_to 6896
  145.8846  139.3467  143.0685 H   0  0  0  0  0  0  0  0  0  0  0  0  # atno 7974 bound_to 7965
  154.7444  140.0492  157.0839 H   0  0  0  0  0  0  0  0  0  0  0  0  # atno 8008 bound_to 7997
  155.0136  140.3139  155.4801 H   0  0  0  0  0  0  0  0  0  0  0  0  # atno 8009 bound_to 7997
  156.2871  140.2179  156.5252 H   0  0  0  0  0  0  0  0  0  0  0  0  # atno 8010 bound_to 7997
  139.7228  143.8930  152.2509 H   0  0  0  0  0  0  0  0  0  0  0  0  # atno 10167 bound_to 10162
  157.6456  131.0947  150.6716 H   0  0  0  0  0  0  0  0  0  0  0  0  # atno 10718 bound_to 10713
  154.3046  135.6228  153.5439 H   0  0  0  0  0  0  0  0  0  0  0  0  # atno 10763 bound_to 10752
  152.9836  135.5686  154.5246 H   0  0  0  0  0  0  0  0  0  0  0  0  # atno 10764 bound_to 10752
  154.4883  135.2866  155.1493 H   0  0  0  0  0  0  0  0  0  0  0  0  # atno 10765 bound_to 10752
  140.9884  133.7018  156.1805 H   0  0  0  0  0  0  0  0  0  0  0  0  # atno 11005 bound_to 11000
  145.8982  140.9260  143.0516 LP  0  0  0  0  0  0  0  0  0  0  0  0  # atno 17320 bound_to 7965
  144.6728  140.0997  143.7461 LP  0  0  0  0  0  0  0  0  0  0  0  0  # atno 17321 bound_to 7965
  139.8831  144.7007  150.8855 LP  0  0  0  0  0  0  0  0  0  0  0  0  # atno 17342 bound_to 10162
  140.7757  143.3645  151.1764 LP  0  0  0  0  0  0  0  0  0  0  0  0  # atno 17343 bound_to 10162
  156.7034  130.4630  149.5567 LP  0  0  0  0  0  0  0  0  0  0  0  0  # atno 17370 bound_to 10713
  156.1779  130.6480  151.0917 LP  0  0  0  0  0  0  0  0  0  0  0  0  # atno 17371 bound_to 10713
  140.7079  134.4493  157.5583 LP  0  0  0  0  0  0  0  0  0  0  0  0  # atno 17394 bound_to 11000
  139.8981  134.8622  156.2017 LP  0  0  0  0  0  0  0  0  0  0  0  0  # atno 17395 bound_to 11000

$$$$
