AV-unprocessed.smi:861|AV-procd|sdf|3968|dock6
  -GOLD-   22720 1443D 1   1.00000     0.00000
 Structure written by MMmdl.
 44 45  0  0  0  0  0  0  0  0  2 V2000
  152.1576  143.6583  160.4940 C   0  0  0  0  0  0  0  0  0  0  0  0
  152.1551  143.3390  158.9896 C   0  0  0  0  0  0  0  0  0  0  0  0
  152.4113  144.6144  158.1723 C   0  0  0  0  0  0  0  0  0  0  0  0
  150.8495  142.6556  158.5347 C   0  0  0  0  0  0  0  0  0  0  0  0
  150.9146  142.0650  157.1120 C   0  0  0  0  0  0  0  0  0  0  0  0
  149.5680  141.8588  156.5144 N   0  3  1  0  0  0  0  0  0  0  0  0
  149.6118  141.3616  155.1179 C   0  0  0  0  0  0  0  0  0  0  0  0
  149.9158  139.8532  155.0739 C   0  0  0  0  0  0  0  0  0  0  0  0
  148.9500  139.1521  155.8478 O   0  0  0  0  0  0  0  0  0  0  0  0
  148.9709  139.5239  157.2221 C   0  0  2  0  0  0  0  0  0  0  0  0
  147.9568  138.6259  157.9535 C   0  0  0  0  0  0  0  0  0  0  0  0
  148.4557  137.2720  158.1712 N   0  0  0  0  0  0  0  0  0  0  0  0
  148.2743  136.5907  159.3837 C   0  0  0  0  0  0  0  0  0  0  0  0
  148.6179  135.2260  159.4519 C   0  0  0  0  0  0  0  0  0  0  0  0
  148.4368  134.5671  160.6802 C   0  0  0  0  0  0  0  0  0  0  0  0
  147.9258  135.3247  161.7496 C   0  0  0  0  0  0  0  0  0  0  0  0
  147.6111  136.6339  161.6285 N   0  0  0  0  0  0  0  0  0  0  0  0
  147.7810  137.2577  160.4573 N   0  0  0  0  0  0  0  0  0  0  0  0
  148.6405  141.0310  157.3272 C   0  0  0  0  0  0  0  0  0  0  0  0
  151.3194  144.3008  160.7651 H   0  0  0  0  0  0  0  0  0  0  0  0
  153.0752  144.1721  160.7823 H   0  0  0  0  0  0  0  0  0  0  0  0
  152.0959  142.7542  161.0992 H   0  0  0  0  0  0  0  0  0  0  0  0
  152.9833  142.6573  158.7912 H   0  0  0  0  0  0  0  0  0  0  0  0
  151.6165  145.3463  158.3203 H   0  0  0  0  0  0  0  0  0  0  0  0
  152.4677  144.3961  157.1055 H   0  0  0  0  0  0  0  0  0  0  0  0
  153.3526  145.0843  158.4596 H   0  0  0  0  0  0  0  0  0  0  0  0
  150.5896  141.8838  159.2588 H   0  0  0  0  0  0  0  0  0  0  0  0
  150.0407  143.3870  158.5673 H   0  0  0  0  0  0  0  0  0  0  0  0
  151.4681  142.7639  156.4837 H   0  0  0  0  0  0  0  0  0  0  0  0
  151.4781  141.1329  157.1033 H   0  0  0  0  0  0  0  0  0  0  0  0
  148.6402  141.5451  154.6579 H   0  0  0  0  0  0  0  0  0  0  0  0
  150.3392  141.9224  154.5296 H   0  0  0  0  0  0  0  0  0  0  0  0
  149.8683  139.4935  154.0461 H   0  0  0  0  0  0  0  0  0  0  0  0
  150.9218  139.6385  155.4373 H   0  0  0  0  0  0  0  0  0  0  0  0
  149.9649  139.3189  157.6226 H   0  0  0  0  0  0  0  0  0  0  0  0
  147.6243  139.0899  158.8824 H   0  0  0  0  0  0  0  0  0  0  0  0
  147.0636  138.5304  157.3357 H   0  0  0  0  0  0  0  0  0  0  0  0
  148.9669  136.8227  157.4252 H   0  0  0  0  0  0  0  0  0  0  0  0
  149.0083  134.6991  158.5935 H   0  0  0  0  0  0  0  0  0  0  0  0
  148.6806  133.5218  160.7984 H   0  0  0  0  0  0  0  0  0  0  0  0
  147.7667  134.8744  162.7182 H   0  0  0  0  0  0  0  0  0  0  0  0
  148.6411  141.3601  158.3640 H   0  0  0  0  0  0  0  0  0  0  0  0
  147.6277  141.2029  156.9599 H   0  0  0  0  0  0  0  0  0  0  0  0
  149.1591  142.7813  156.4658 H   0  0  0  0  0  0  0  0  0  0  0  0
  1  2  1  0  0  0  0
  1 20  1  0  0  0  0
  1 21  1  0  0  0  0
  1 22  1  0  0  0  0
  2  3  1  0  0  0  0
  2  4  1  0  0  0  0
  2 23  1  0  0  0  0
  3 24  1  0  0  0  0
  3 25  1  0  0  0  0
  3 26  1  0  0  0  0
  4  5  1  0  0  0  0
  4 27  1  0  0  0  0
  4 28  1  0  0  0  0
  5  6  1  0  0  0  0
  5 29  1  0  0  0  0
  5 30  1  0  0  0  0
  6 19  1  0  0  0  0
  6  7  1  0  0  0  0
  6 44  1  0  0  0  0
  7  8  1  0  0  0  0
  7 31  1  0  0  0  0
  7 32  1  0  0  0  0
  8  9  1  0  0  0  0
  8 33  1  0  0  0  0
  8 34  1  0  0  0  0
  9 10  1  0  0  0  0
 10 11  1  0  0  0  0
 10 19  1  0  0  0  0
 10 35  1  0  0  0  0
 11 12  1  0  0  0  0
 11 36  1  0  0  0  0
 11 37  1  0  0  0  0
 12 13  1  0  0  0  0
 12 38  1  0  0  0  0
 13 18  1  0  0  0  0
 13 14  2  0  0  0  0
 14 15  1  0  0  0  0
 14 39  1  0  0  0  0
 15 16  2  0  0  0  0
 15 40  1  0  0  0  0
 16 17  1  0  0  0  0
 16 41  1  0  0  0  0
 17 18  2  0  0  0  0
 19 42  1  0  0  0  0
 19 43  1  0  0  0  0
M  CHG  1   6   1
M  END
> <s_m_source_file>
AV-unprocessed.smi

> <i_m_source_file_index>
861

> <i_lp_mmshare_version>
43012

> <i_f3d_flags>
0

> <s_epik_input>
W0NIM11bQ0hdKFtDSDNdKVtDSDJdW0NIMl1OMVtDSDJdW0NIMl1PW0NASF0oW0NIMl0xKVtDSDJdW05IXWMyW2NIXVtjSF1bY0hdbm4y

> <s_epik_cmdline>
J2VwaWtfcHl0aG9uJywgJy1waCcsICc3LjAnLCAnLXRuJywgJzgnLCAnLW1hJywgJzIwMCcsICctbWV0YWxfYmluZGluZycsICctaW1hZScsICc8aW5maWxlLm1hZT4nLCAnLW9tYWUnLCAnPG91dGZpbGUubWFlPic=

> <r_lp_tautomer_probability>
0.999978

> <r_epik_Ionization_Penalty>
0.114704

> <r_epik_Ionization_Penalty_Charging>
0.0953451

> <r_epik_Ionization_Penalty_Neutral>
0.0193593

> <r_epik_State_Penalty>
0.104983

> <r_epik_Charging_Adjusted_Penalty>
0.200328

> <i_epik_Tot_Q>
1

> <i_epik_Tot_abs_Q>
1

> <r_epik_Metal_State_Penalty>
0.100113

> <b_epik_Metal_Only>
0

> <s_lp_Force_Field>
OPLS_2005

> <r_lp_Energy>
26.2812

> <b_lp_Chiralities_Consistent>
1

> <s_lp_Variant>
AV-unprocessed.smi:861-3

> <Gold.Version>
5.8.1

> <Gold.Id.Protein>
6NUR|6NUR_protein|mol2

> <Gold.PLP.Fitness>
42.3524

> <Gold.PLP.PLP>
-34.1053

> <Gold.PLP.part.hbond>
-4.4710

> <Gold.PLP.part.metal>
0.0000

> <Gold.PLP.part.buried>
-3.8756

> <Gold.PLP.part.nonpolar>
-27.9227

> <Gold.PLP.part.repulsive>
0.1479

> <Gold.PLP.ligand.clash>
0.0000

> <Gold.PLP.ligand.torsion>
0.4178

> <Gold.PLP.Chemscore.Hbond>
2.9920

> <Gold.PLP.Chemscore.CHOScore>
0.0000

> <Gold.PLP.Chemscore.Metal>
0.0000

> <Gold.Chemscore.Hbonds>
donor molecule, donor type, donor heavy atom, donor atom, acceptor molecule, acceptor atom, score
      L1  H     6    44       P1  8028  1.56
      P1  H  6934  6947       L1    18  0.86

> <Gold.PLP.Chemscore.Internal.Correction>
0.1067

> <Gold.Rescore>
     Score         DG    S(hbond)    S(metal)    S(lipo)     H(rot)  DE(clash)    DE(int)     intcor
     16.76     -17.46       1.74        0.00      90.04       1.71       0.29       0.41       ----

> <Gold.Chemscore.Fitness>
16.7597

> <Gold.Chemscore.DG>
-17.4579

> <Gold.Chemscore.ZeroCoef>
-5.4800

> <Gold.Chemscore.Hbond>
1.7450

> <Gold.Chemscore.Metal>
0.0000

> <Gold.Chemscore.Lipo>
90.0352

> <Gold.Chemscore.Internal_Hbond>
0.0000

> <Gold.Chemscore.DEClash>
0.2879

> <Gold.Chemscore.DEInternal>
0.4103

> <Gold.Chemscore.Rot>
1.7127

> <Gold.Chemscore.Internal.Correction>
   9.000000E+99

> <Gold.Chemscore.Hbonds>
donor molecule, donor type, donor heavy atom, donor atom, acceptor molecule, acceptor atom, score
      L1  H     6    44       P1  8028  0.77
      P1  H  6934  6947       L1    18  0.25

> <Gold.Chemscore.Hbond.Weighted>
-5.8282

> <Gold.Chemscore.Metal.Weighted>
-0.0000

> <Gold.Chemscore.Lipo.Weighted>
-10.5341

> <Gold.Chemscore.Internal_Hbond.Weighted>
0.0000

> <Gold.Chemscore.DEClash.Weighted>
0.2879

> <Gold.Chemscore.DEInternal.Weighted>
0.4103

> <Gold.Chemscore.Rot.Weighted>
4.3844

> <Gold.Chemscore.Internal.Correction.Weighted>
   9.000000E+99

> <Gold.Protein.RotatedTorsions>
[ 6907 6896 6895 6894 ] final   41.84 input  -60.11 | X-H torsion
[ 7974 7965 7964 7962 ] final  -74.59 input  175.53 | X-H torsion
[ 8008 7997 7996 7995 ] final   90.92 input   59.86 | X-H torsion
[ 10167 10162 10161 10158 ] final  -70.65 input  -65.29 | X-H torsion
[ 10718 10713 10712 10709 ] final  -82.18 input   66.30 | X-H torsion
[ 10763 10752 10751 10750 ] final  -47.99 input  -60.55 | X-H torsion
[ 11005 11000 10999 10996 ] final    1.45 input  -57.11 | X-H torsion

> <Gold.Protein.ActiveResidues>
 VAL166  LYS551  ARG553  GLY616  TRP617  ASP618  TYR619  PRO620  LYS621  CYS622 
 ASP623  PHE694  ASN695  SER759  ASP760  ASP761  ALA762  ILE779  LEU786  VAL792 
 PHE793  MET794  SER795  GLU796  ALA797  LYS798  CYS799  TRP800  GLU811  SER814 

> <Gold.Protein.RotatedAtoms>
  152.2003  134.8593  160.0508 H   0  0  0  0  0  0  0  0  0  0  0  0  # atno 6907 bound_to 6896
  151.9449  133.3644  159.3987 H   0  0  0  0  0  0  0  0  0  0  0  0  # atno 6908 bound_to 6896
  150.6953  134.4325  159.5299 H   0  0  0  0  0  0  0  0  0  0  0  0  # atno 6909 bound_to 6896
  145.6371  140.9321  143.1055 H   0  0  0  0  0  0  0  0  0  0  0  0  # atno 7974 bound_to 7965
  156.0177  140.3343  155.7006 H   0  0  0  0  0  0  0  0  0  0  0  0  # atno 8008 bound_to 7997
  155.6067  140.0661  157.2735 H   0  0  0  0  0  0  0  0  0  0  0  0  # atno 8009 bound_to 7997
  154.4304  140.1800  156.1217 H   0  0  0  0  0  0  0  0  0  0  0  0  # atno 8010 bound_to 7997
  140.5335  143.2319  151.7219 H   0  0  0  0  0  0  0  0  0  0  0  0  # atno 10167 bound_to 10162
  156.0037  130.4626  150.4066 H   0  0  0  0  0  0  0  0  0  0  0  0  # atno 10718 bound_to 10713
  154.0704  135.6605  153.4823 H   0  0  0  0  0  0  0  0  0  0  0  0  # atno 10763 bound_to 10752
  153.0393  135.5156  154.7572 H   0  0  0  0  0  0  0  0  0  0  0  0  # atno 10764 bound_to 10752
  154.6636  135.3019  154.9801 H   0  0  0  0  0  0  0  0  0  0  0  0  # atno 10765 bound_to 10752
  140.6153  133.9711  155.8197 H   0  0  0  0  0  0  0  0  0  0  0  0  # atno 11005 bound_to 11000
  144.7171  139.8158  143.7395 LP  0  0  0  0  0  0  0  0  0  0  0  0  # atno 17320 bound_to 7965
  146.1310  139.4346  143.0168 LP  0  0  0  0  0  0  0  0  0  0  0  0  # atno 17321 bound_to 7965
  139.4962  144.4078  152.0113 LP  0  0  0  0  0  0  0  0  0  0  0  0  # atno 17342 bound_to 10162
  140.3182  144.3459  150.6016 LP  0  0  0  0  0  0  0  0  0  0  0  0  # atno 17343 bound_to 10162
  157.2132  131.0465  151.2588 LP  0  0  0  0  0  0  0  0  0  0  0  0  # atno 17370 bound_to 10713
  157.3870  130.7261  149.6670 LP  0  0  0  0  0  0  0  0  0  0  0  0  # atno 17371 bound_to 10713
  141.0780  134.0105  157.3429 LP  0  0  0  0  0  0  0  0  0  0  0  0  # atno 17394 bound_to 11000
  139.9175  135.0198  156.7939 LP  0  0  0  0  0  0  0  0  0  0  0  0  # atno 17395 bound_to 11000

$$$$
