AV-unprocessed.smi:2413|AV-procd|sdf|9534|dock3
  -GOLD-   2272013163D 1   1.00000     0.00000
 Structure written by MMmdl.
 45 46  0  0  0  0  0  0  0  0  1 V2000
  148.1012  141.6363  153.9295 C   0  0  0  0  0  0  0  0  0  0  0  0
  148.5327  141.0774  155.2820 C   0  0  0  0  0  0  0  0  0  0  0  0
  148.5446  139.8607  155.4643 O   0  0  0  0  0  0  0  0  0  0  0  0
  148.8813  141.9727  156.2189 N   0  0  0  0  0  0  0  0  0  0  0  0
  149.3072  141.6505  157.5772 C   0  0  0  0  0  0  0  0  0  0  0  0
  150.5375  142.4727  157.9966 C   0  0  2  0  0  0  0  0  0  0  0  0
  151.1188  141.9872  159.3394 C   0  0  0  0  0  0  0  0  0  0  0  0
  152.2357  142.8351  159.7369 N   0  0  0  0  0  0  0  0  0  0  0  0
  152.9038  142.4011  160.8889 C   0  0  0  0  0  0  0  0  0  0  0  0
  152.7737  143.0606  162.1313 C   0  0  0  0  0  0  0  0  0  0  0  0
  153.5029  142.5160  163.2053 C   0  0  0  0  0  0  0  0  0  0  0  0
  154.2858  141.4272  163.0529 N   0  0  0  0  0  0  0  0  0  0  0  0
  154.3766  140.8947  161.8267 C   0  0  0  0  0  0  0  0  0  0  0  0
  155.1464  139.5698  161.6898 C   0  0  0  0  0  0  0  0  0  0  0  0
  155.7669  139.1448  163.0416 C   0  0  0  0  0  0  0  0  0  0  0  0
  156.2604  139.7315  160.6394 C   0  0  0  0  0  0  0  0  0  0  0  0
  154.2022  138.4182  161.2714 C   0  0  0  0  0  0  0  0  0  0  0  0
  153.6944  141.3154  160.7528 N   0  0  0  0  0  0  0  0  0  0  0  0
  151.8788  144.2459  159.7908 C   0  0  0  0  0  0  0  0  0  0  0  0
  151.2630  144.6828  158.4519 C   0  0  0  0  0  0  0  0  0  0  0  0
  150.1573  143.8407  158.1405 O   0  0  0  0  0  0  0  0  0  0  0  0
  148.1781  142.7240  153.8999 H   0  0  0  0  0  0  0  0  0  0  0  0
  147.0666  141.3617  153.7228 H   0  0  0  0  0  0  0  0  0  0  0  0
  148.7285  141.2289  153.1364 H   0  0  0  0  0  0  0  0  0  0  0  0
  148.8386  142.9517  155.9755 H   0  0  0  0  0  0  0  0  0  0  0  0
  148.4908  141.7877  158.2883 H   0  0  0  0  0  0  0  0  0  0  0  0
  149.5550  140.5889  157.5962 H   0  0  0  0  0  0  0  0  0  0  0  0
  151.3006  142.3887  157.2199 H   0  0  0  0  0  0  0  0  0  0  0  0
  150.3439  142.0072  160.1066 H   0  0  0  0  0  0  0  0  0  0  0  0
  151.4590  140.9546  159.2501 H   0  0  0  0  0  0  0  0  0  0  0  0
  152.1510  143.9335  162.2599 H   0  0  0  0  0  0  0  0  0  0  0  0
  153.4544  142.9528  164.1918 H   0  0  0  0  0  0  0  0  0  0  0  0
  156.2705  138.1807  162.9620 H   0  0  0  0  0  0  0  0  0  0  0  0
  155.0054  139.0537  163.8172 H   0  0  0  0  0  0  0  0  0  0  0  0
  156.5121  139.8599  163.3922 H   0  0  0  0  0  0  0  0  0  0  0  0
  156.9610  140.5175  160.9235 H   0  0  0  0  0  0  0  0  0  0  0  0
  155.8493  139.9952  159.6641 H   0  0  0  0  0  0  0  0  0  0  0  0
  156.8307  138.8101  160.5181 H   0  0  0  0  0  0  0  0  0  0  0  0
  154.7343  137.4675  161.2199 H   0  0  0  0  0  0  0  0  0  0  0  0
  153.7641  138.5858  160.2869 H   0  0  0  0  0  0  0  0  0  0  0  0
  153.3837  138.2974  161.9819 H   0  0  0  0  0  0  0  0  0  0  0  0
  151.1662  144.4141  160.5996 H   0  0  0  0  0  0  0  0  0  0  0  0
  152.7641  144.8445  160.0092 H   0  0  0  0  0  0  0  0  0  0  0  0
  150.9177  145.7148  158.5151 H   0  0  0  0  0  0  0  0  0  0  0  0
  152.0027  144.6423  157.6505 H   0  0  0  0  0  0  0  0  0  0  0  0
  1  2  1  0  0  0  0
  1 22  1  0  0  0  0
  1 23  1  0  0  0  0
  1 24  1  0  0  0  0
  2  3  2  0  0  0  0
  2  4  1  0  0  0  0
  4  5  1  0  0  0  0
  4 25  1  0  0  0  0
  5  6  1  0  0  0  0
  5 26  1  0  0  0  0
  5 27  1  0  0  0  0
  6 21  1  0  0  0  0
  6  7  1  0  0  0  0
  6 28  1  0  0  0  0
  7  8  1  0  0  0  0
  7 29  1  0  0  0  0
  7 30  1  0  0  0  0
  8  9  1  0  0  0  0
  8 19  1  0  0  0  0
  9 18  1  0  0  0  0
  9 10  2  0  0  0  0
 10 11  1  0  0  0  0
 10 31  1  0  0  0  0
 11 12  2  0  0  0  0
 11 32  1  0  0  0  0
 12 13  1  0  0  0  0
 13 14  1  0  0  0  0
 13 18  2  0  0  0  0
 14 15  1  0  0  0  0
 14 16  1  0  0  0  0
 14 17  1  0  0  0  0
 15 33  1  0  0  0  0
 15 34  1  0  0  0  0
 15 35  1  0  0  0  0
 16 36  1  0  0  0  0
 16 37  1  0  0  0  0
 16 38  1  0  0  0  0
 17 39  1  0  0  0  0
 17 40  1  0  0  0  0
 17 41  1  0  0  0  0
 19 20  1  0  0  0  0
 19 42  1  0  0  0  0
 19 43  1  0  0  0  0
 20 21  1  0  0  0  0
 20 44  1  0  0  0  0
 20 45  1  0  0  0  0
M  END
> <s_m_source_file>
AV-unprocessed.smi

> <i_m_source_file_index>
2413

> <i_lp_mmshare_version>
43012

> <i_f3d_flags>
0

> <s_epik_input>
W0NIM11DKD1PKVtOSF1bQ0gyXVtDQEBIXTFbQ0gyXU4oW0NIMl1bQ0gyXU8xKWMyW2NIXVtjSF1uYyhuMilDKFtDSDNdKShbQ0gzXSlbQ0gzXQ==

> <s_epik_cmdline>
J2VwaWtfcHl0aG9uJywgJy1waCcsICc3LjAnLCAnLXRuJywgJzgnLCAnLW1hJywgJzIwMCcsICctbWV0YWxfYmluZGluZycsICctaW1hZScsICc8aW5maWxlLm1hZT4nLCAnLW9tYWUnLCAnPG91dGZpbGUubWFlPic=

> <r_lp_tautomer_probability>
1

> <r_epik_Ionization_Penalty>
0.0132021

> <r_epik_Ionization_Penalty_Charging>
0

> <r_epik_Ionization_Penalty_Neutral>
0.0132021

> <r_epik_State_Penalty>
0.0102452

> <r_epik_Charging_Adjusted_Penalty>
0.0102452

> <i_epik_Tot_Q>
0

> <i_epik_Tot_abs_Q>
0

> <r_epik_Metal_State_Penalty>
0.0100219

> <b_epik_Metal_Only>
0

> <s_lp_Force_Field>
OPLS_2005

> <r_lp_Energy>
13.0347

> <b_lp_Chiralities_Consistent>
1

> <s_lp_Variant>
AV-unprocessed.smi:2413-1

> <Gold.Version>
5.8.1

> <Gold.Id.Protein>
6NUR|6NUR_protein|mol2

> <Gold.PLP.Fitness>
40.1802

> <Gold.PLP.PLP>
-38.3290

> <Gold.PLP.part.hbond>
-2.0000

> <Gold.PLP.part.metal>
0.0000

> <Gold.PLP.part.buried>
-4.8059

> <Gold.PLP.part.nonpolar>
-32.0181

> <Gold.PLP.part.repulsive>
1.1281

> <Gold.PLP.ligand.clash>
0.0000

> <Gold.PLP.ligand.torsion>
0.7004

> <Gold.PLP.Chemscore.Hbond>
1.0000

> <Gold.PLP.Chemscore.CHOScore>
0.0000

> <Gold.PLP.Chemscore.Metal>
0.0000

> <Gold.Chemscore.Hbonds>
donor molecule, donor type, donor heavy atom, donor atom, acceptor molecule, acceptor atom, score
      L1  H     4    25       P1  8028  1.00

> <Gold.PLP.Chemscore.Internal.Correction>
0.2519

> <Gold.Rescore>
     Score         DG    S(hbond)    S(metal)    S(lipo)     H(rot)  DE(clash)    DE(int)     intcor
     13.84     -14.98       0.98        0.00      90.99       1.73       0.31       0.83       ----

> <Gold.Chemscore.Fitness>
13.8375

> <Gold.Chemscore.DG>
-14.9757

> <Gold.Chemscore.ZeroCoef>
-5.4800

> <Gold.Chemscore.Hbond>
0.9840

> <Gold.Chemscore.Metal>
0.0000

> <Gold.Chemscore.Lipo>
90.9936

> <Gold.Chemscore.Internal_Hbond>
0.0000

> <Gold.Chemscore.DEClash>
0.3110

> <Gold.Chemscore.DEInternal>
0.8272

> <Gold.Chemscore.Rot>
1.7332

> <Gold.Chemscore.Internal.Correction>
   9.000000E+99

> <Gold.Chemscore.Hbonds>
donor molecule, donor type, donor heavy atom, donor atom, acceptor molecule, acceptor atom, score
      L1  H     4    25       P1  8028  1.00

> <Gold.Chemscore.Hbond.Weighted>
-3.2865

> <Gold.Chemscore.Metal.Weighted>
-0.0000

> <Gold.Chemscore.Lipo.Weighted>
-10.6462

> <Gold.Chemscore.Internal_Hbond.Weighted>
0.0000

> <Gold.Chemscore.DEClash.Weighted>
0.3110

> <Gold.Chemscore.DEInternal.Weighted>
0.8272

> <Gold.Chemscore.Rot.Weighted>
4.4370

> <Gold.Chemscore.Internal.Correction.Weighted>
   9.000000E+99

> <Gold.Protein.RotatedTorsions>
[ 6907 6896 6895 6894 ] final -118.19 input  -60.11 | X-H torsion
[ 7974 7965 7964 7962 ] final    3.00 input  175.53 | X-H torsion
[ 8008 7997 7996 7995 ] final   80.27 input   59.86 | X-H torsion
[ 10167 10162 10161 10158 ] final  -30.77 input  -65.29 | X-H torsion
[ 10718 10713 10712 10709 ] final  -65.58 input   66.30 | X-H torsion
[ 10763 10752 10751 10750 ] final  118.15 input  -60.55 | X-H torsion
[ 11005 11000 10999 10996 ] final -122.00 input  -57.11 | X-H torsion

> <Gold.Protein.ActiveResidues>
 VAL166  LYS551  ARG553  GLY616  TRP617  ASP618  TYR619  PRO620  LYS621  CYS622 
 ASP623  PHE694  ASN695  SER759  ASP760  ASP761  ALA762  ILE779  LEU786  VAL792 
 PHE793  MET794  SER795  GLU796  ALA797  LYS798  CYS799  TRP800  GLU811  SER814 

> <Gold.Protein.RotatedAtoms>
  150.8199  133.8271  159.3143 H   0  0  0  0  0  0  0  0  0  0  0  0  # atno 6907 bound_to 6896
  151.6032  135.1044  160.0074 H   0  0  0  0  0  0  0  0  0  0  0  0  # atno 6908 bound_to 6896
  152.4289  133.7202  159.6585 H   0  0  0  0  0  0  0  0  0  0  0  0  # atno 6909 bound_to 6896
  146.2445  140.0751  142.8360 H   0  0  0  0  0  0  0  0  0  0  0  0  # atno 7974 bound_to 7965
  155.8811  140.3444  155.5888 H   0  0  0  0  0  0  0  0  0  0  0  0  # atno 8008 bound_to 7997
  155.7719  140.0846  157.2123 H   0  0  0  0  0  0  0  0  0  0  0  0  # atno 8009 bound_to 7997
  154.4024  140.1517  156.2938 H   0  0  0  0  0  0  0  0  0  0  0  0  # atno 8010 bound_to 7997
  140.7245  143.3823  151.1579 H   0  0  0  0  0  0  0  0  0  0  0  0  # atno 10167 bound_to 10162
  156.0661  130.4249  150.1585 H   0  0  0  0  0  0  0  0  0  0  0  0  # atno 10718 bound_to 10713
  153.5632  135.3516  155.2808 H   0  0  0  0  0  0  0  0  0  0  0  0  # atno 10763 bound_to 10752
  154.8692  135.4141  154.2807 H   0  0  0  0  0  0  0  0  0  0  0  0  # atno 10764 bound_to 10752
  153.3557  135.7057  153.6822 H   0  0  0  0  0  0  0  0  0  0  0  0  # atno 10765 bound_to 10752
  141.0028  134.0377  157.3515 H   0  0  0  0  0  0  0  0  0  0  0  0  # atno 11005 bound_to 11000
  145.0782  140.9203  143.4841 LP  0  0  0  0  0  0  0  0  0  0  0  0  # atno 17320 bound_to 7965
  145.0898  139.2898  143.5740 LP  0  0  0  0  0  0  0  0  0  0  0  0  # atno 17321 bound_to 7965
  139.7414  143.8919  152.3051 LP  0  0  0  0  0  0  0  0  0  0  0  0  # atno 17342 bound_to 10162
  139.8741  144.7052  150.8953 LP  0  0  0  0  0  0  0  0  0  0  0  0  # atno 17343 bound_to 10162
  156.9645  130.9815  151.3472 LP  0  0  0  0  0  0  0  0  0  0  0  0  # atno 17370 bound_to 10713
  157.5703  130.8306  149.8383 LP  0  0  0  0  0  0  0  0  0  0  0  0  # atno 17371 bound_to 10713
  139.9048  135.0176  156.7434 LP  0  0  0  0  0  0  0  0  0  0  0  0  # atno 17394 bound_to 11000
  140.6861  133.9431  155.7938 LP  0  0  0  0  0  0  0  0  0  0  0  0  # atno 17395 bound_to 11000

$$$$
