AV-unprocessed.smi:193|AV-procd|sdf|1505|dock8
  -GOLD-   2262019333D 1   1.00000     0.00000
 Structure written by MMmdl.
 62 66  0  0  0  0  0  0  0  0  2 V2000
  149.7931  130.8196  153.8539 C   0  0  0  0  0  0  0  0  0  0  0  0
  149.0737  132.0719  154.3788 C   0  0  1  0  0  0  0  0  0  0  0  0
  149.7888  132.5658  155.6575 C   0  0  0  0  0  0  0  0  0  0  0  0
  149.0480  133.5882  156.3954 N   0  0  0  0  0  0  0  0  0  0  0  0
  148.2238  133.1944  157.4036 C   0  0  0  0  0  0  0  0  0  0  0  0
  147.4117  132.1186  157.2228 N   0  0  0  0  0  0  0  0  0  0  0  0
  146.5756  131.7298  158.1892 C   0  0  0  0  0  0  0  0  0  0  0  0
  146.3905  132.2660  159.3960 N   0  0  0  0  0  0  0  0  0  0  0  0
  147.2063  133.3409  159.5901 C   0  0  0  0  0  0  0  0  0  0  0  0
  148.1475  133.8647  158.6585 C   0  0  0  0  0  0  0  0  0  0  0  0
  148.8108  134.9494  159.2210 N   0  0  0  0  0  0  0  0  0  0  0  0
  148.2838  135.0677  160.4086 C   0  0  0  0  0  0  0  0  0  0  0  0
  147.3020  134.1511  160.7080 N   0  0  0  0  0  0  0  0  0  0  0  0
  146.5460  134.0577  161.9476 C   0  0  0  0  0  0  0  0  0  0  0  0
  145.1148  134.6443  161.8588 C   0  0  0  0  0  0  0  0  0  0  0  0
  144.5286  134.1802  160.6548 O   0  0  0  0  0  0  0  0  0  0  0  0
  144.2588  134.1469  163.0412 C   0  0  0  0  0  0  0  0  0  0  0  0
  142.8836  134.8358  163.0937 C   0  0  0  0  0  0  0  0  0  0  0  0
  143.0491  136.2480  163.1342 O   0  0  0  0  0  0  0  0  0  0  0  0
  143.6810  136.7606  161.9676 C   0  0  0  0  0  0  0  0  0  0  0  0
  145.1041  136.1886  161.8400 C   0  0  0  0  0  0  0  0  0  0  0  0
  148.6694  134.8065  155.6823 C   0  0  0  0  0  0  0  0  0  0  0  0
  147.4932  134.5580  154.7201 C   0  0  0  0  0  0  0  0  0  0  0  0
  147.8946  134.1115  153.3596 N   0  3  2  0  0  0  0  0  0  0  0  0
  146.7255  133.6316  152.5830 C   0  0  2  0  0  0  0  0  0  0  0  0
  146.7216  134.0772  151.1372 C   0  0  0  0  0  0  0  0  0  0  0  0
  145.7590  134.7082  152.1181 C   0  0  2  0  0  0  0  0  0  0  0  0
  145.8930  136.1789  152.4689 C   0  0  0  0  0  0  0  0  0  0  0  0
  149.0470  133.1683  153.2868 C   0  0  0  0  0  0  0  0  0  0  0  0
  150.8260  131.0394  153.5813 H   0  0  0  0  0  0  0  0  0  0  0  0
  149.2937  130.4164  152.9725 H   0  0  0  0  0  0  0  0  0  0  0  0
  149.8086  130.0305  154.6065 H   0  0  0  0  0  0  0  0  0  0  0  0
  148.0540  131.7657  154.6159 H   0  0  0  0  0  0  0  0  0  0  0  0
  149.9971  131.7237  156.3193 H   0  0  0  0  0  0  0  0  0  0  0  0
  150.7672  132.9732  155.4004 H   0  0  0  0  0  0  0  0  0  0  0  0
  145.9658  130.8676  157.9626 H   0  0  0  0  0  0  0  0  0  0  0  0
  148.5932  135.8372  161.1011 H   0  0  0  0  0  0  0  0  0  0  0  0
  146.5087  133.0099  162.2484 H   0  0  0  0  0  0  0  0  0  0  0  0
  147.1127  134.5745  162.7234 H   0  0  0  0  0  0  0  0  0  0  0  0
  143.6357  133.9275  160.8325 H   0  0  0  0  0  0  0  0  0  0  0  0
  144.1340  133.0643  162.9957 H   0  0  0  0  0  0  0  0  0  0  0  0
  144.7813  134.3537  163.9762 H   0  0  0  0  0  0  0  0  0  0  0  0
  142.2679  134.5539  162.2383 H   0  0  0  0  0  0  0  0  0  0  0  0
  142.3442  134.5207  163.9871 H   0  0  0  0  0  0  0  0  0  0  0  0
  143.0833  136.5289  161.0849 H   0  0  0  0  0  0  0  0  0  0  0  0
  143.7231  137.8472  162.0418 H   0  0  0  0  0  0  0  0  0  0  0  0
  145.7035  136.5615  162.6714 H   0  0  0  0  0  0  0  0  0  0  0  0
  145.5690  136.5708  160.9304 H   0  0  0  0  0  0  0  0  0  0  0  0
  148.3819  135.5783  156.3936 H   0  0  0  0  0  0  0  0  0  0  0  0
  149.5306  135.2137  155.1519 H   0  0  0  0  0  0  0  0  0  0  0  0
  146.7824  133.8544  155.1564 H   0  0  0  0  0  0  0  0  0  0  0  0
  146.9439  135.4915  154.6035 H   0  0  0  0  0  0  0  0  0  0  0  0
  146.3640  132.6374  152.8399 H   0  0  0  0  0  0  0  0  0  0  0  0
  147.5516  134.6856  150.7825 H   0  0  0  0  0  0  0  0  0  0  0  0
  146.3022  133.3939  150.4015 H   0  0  0  0  0  0  0  0  0  0  0  0
  144.7224  134.3881  152.0314 H   0  0  0  0  0  0  0  0  0  0  0  0
  146.9375  136.4899  152.4956 H   0  0  0  0  0  0  0  0  0  0  0  0
  145.4418  136.3759  153.4412 H   0  0  0  0  0  0  0  0  0  0  0  0
  145.3772  136.7848  151.7237 H   0  0  0  0  0  0  0  0  0  0  0  0
  149.9700  133.7477  153.3258 H   0  0  0  0  0  0  0  0  0  0  0  0
  149.0543  132.7092  152.2975 H   0  0  0  0  0  0  0  0  0  0  0  0
  148.2111  134.9421  152.8802 H   0  0  0  0  0  0  0  0  0  0  0  0
  1  2  1  0  0  0  0
  1 30  1  0  0  0  0
  1 31  1  0  0  0  0
  1 32  1  0  0  0  0
  2 29  1  0  0  0  0
  2  3  1  0  0  0  0
  2 33  1  0  0  0  0
  3  4  1  0  0  0  0
  3 34  1  0  0  0  0
  3 35  1  0  0  0  0
  4  5  1  0  0  0  0
  4 22  1  0  0  0  0
  5 10  1  0  0  0  0
  5  6  2  0  0  0  0
  6  7  1  0  0  0  0
  7  8  2  0  0  0  0
  7 36  1  0  0  0  0
  8  9  1  0  0  0  0
  9 13  1  0  0  0  0
  9 10  2  0  0  0  0
 10 11  1  0  0  0  0
 11 12  2  0  0  0  0
 12 13  1  0  0  0  0
 12 37  1  0  0  0  0
 13 14  1  0  0  0  0
 14 15  1  0  0  0  0
 14 38  1  0  0  0  0
 14 39  1  0  0  0  0
 15 21  1  0  0  0  0
 15 16  1  0  0  0  0
 15 17  1  0  0  0  0
 16 40  1  0  0  0  0
 17 18  1  0  0  0  0
 17 41  1  0  0  0  0
 17 42  1  0  0  0  0
 18 19  1  0  0  0  0
 18 43  1  0  0  0  0
 18 44  1  0  0  0  0
 19 20  1  0  0  0  0
 20 21  1  0  0  0  0
 20 45  1  0  0  0  0
 20 46  1  0  0  0  0
 21 47  1  0  0  0  0
 21 48  1  0  0  0  0
 22 23  1  0  0  0  0
 22 49  1  0  0  0  0
 22 50  1  0  0  0  0
 23 24  1  0  0  0  0
 23 51  1  0  0  0  0
 23 52  1  0  0  0  0
 24 25  1  0  0  0  0
 24 29  1  0  0  0  0
 24 62  1  0  0  0  0
 25 27  1  0  0  0  0
 25 26  1  0  0  0  0
 25 53  1  0  0  0  0
 26 27  1  0  0  0  0
 26 54  1  0  0  0  0
 26 55  1  0  0  0  0
 27 28  1  0  0  0  0
 27 56  1  0  0  0  0
 28 57  1  0  0  0  0
 28 58  1  0  0  0  0
 28 59  1  0  0  0  0
 29 60  1  0  0  0  0
 29 61  1  0  0  0  0
M  CHG  1  24   1
M  END
> <s_m_source_file>
AV-unprocessed.smi

> <i_m_source_file_index>
193

> <i_lp_mmshare_version>
43012

> <i_f3d_flags>
0

> <s_epik_input>
W0NIM11bQ0BASF0xW0NIMl1bQ0BIXTFOKFtDSDJdMilbQ0gyXVtDSDJdTihbQ0gyXVtDQEhdMltDSDNdKWMobltjSF1uMyljKGMzNCluW2NIXW40W0NIMl1DNShbT0hdKVtDSDJdW0NIMl1PW0NIMl1bQ0gyXTU=

> <s_epik_cmdline>
J2VwaWtfcHl0aG9uJywgJy1waCcsICc3LjAnLCAnLXRuJywgJzgnLCAnLW1hJywgJzIwMCcsICctbWV0YWxfYmluZGluZycsICctaW1hZScsICc8aW5maWxlLm1hZT4nLCAnLW9tYWUnLCAnPG91dGZpbGUubWFlPic=

> <r_lp_tautomer_probability>
1

> <r_epik_Ionization_Penalty>
0.0540825

> <r_epik_Ionization_Penalty_Charging>
0.0538476

> <r_epik_Ionization_Penalty_Neutral>
0.000234891

> <r_epik_State_Penalty>
0.0200719

> <r_epik_Charging_Adjusted_Penalty>
0.0739194

> <i_epik_Tot_Q>
1

> <i_epik_Tot_abs_Q>
1

> <r_epik_Metal_State_Penalty>
0.0199414

> <b_epik_Metal_Only>
0

> <s_lp_Force_Field>
OPLS_2005

> <r_lp_Energy>
56.796

> <b_lp_Chiralities_Consistent>
1

> <s_lp_Variant>
AV-unprocessed.smi:193-10

> <Gold.Version>
5.8.1

> <Gold.Id.Protein>
6NUR|6NUR_protein|mol2

> <Gold.PLP.Fitness>
44.0821

> <Gold.PLP.PLP>
-37.8332

> <Gold.PLP.part.hbond>
-2.0000

> <Gold.PLP.part.metal>
0.0000

> <Gold.PLP.part.buried>
-5.6066

> <Gold.PLP.part.nonpolar>
-29.0308

> <Gold.PLP.part.repulsive>
0.0927

> <Gold.PLP.ligand.clash>
0.0000

> <Gold.PLP.ligand.torsion>
2.1047

> <Gold.PLP.Chemscore.Hbond>
3.0000

> <Gold.PLP.Chemscore.CHOScore>
0.0000

> <Gold.PLP.Chemscore.Metal>
0.0000

> <Gold.Chemscore.Hbonds>
donor molecule, donor type, donor heavy atom, donor atom, acceptor molecule, acceptor atom, score
      L1  H    24    62       P1  7948  2.00
      P1  H  6896  6908       L1    11  1.00

> <Gold.PLP.Chemscore.Internal.Correction>
1.4584

> <Gold.Rescore>
     Score         DG    S(hbond)    S(metal)    S(lipo)     H(rot)  DE(clash)    DE(int)     intcor
     12.11     -13.72       1.06        0.00      82.38       1.93       0.01       1.59       ----

> <Gold.Chemscore.Fitness>
12.1104

> <Gold.Chemscore.DG>
-13.7163

> <Gold.Chemscore.ZeroCoef>
-5.4800

> <Gold.Chemscore.Hbond>
1.0587

> <Gold.Chemscore.Metal>
0.0000

> <Gold.Chemscore.Lipo>
82.3806

> <Gold.Chemscore.Internal_Hbond>
0.0000

> <Gold.Chemscore.DEClash>
0.0141

> <Gold.Chemscore.DEInternal>
1.5918

> <Gold.Chemscore.Rot>
1.9290

> <Gold.Chemscore.Internal.Correction>
   9.000000E+99

> <Gold.Chemscore.Hbonds>
donor molecule, donor type, donor heavy atom, donor atom, acceptor molecule, acceptor atom, score
      L1  H    24    62       P1  7948  0.82
      P1  H  6896  6908       L1    11  0.35

> <Gold.Chemscore.Hbond.Weighted>
-3.5360

> <Gold.Chemscore.Metal.Weighted>
-0.0000

> <Gold.Chemscore.Lipo.Weighted>
-9.6385

> <Gold.Chemscore.Internal_Hbond.Weighted>
0.0000

> <Gold.Chemscore.DEClash.Weighted>
0.0141

> <Gold.Chemscore.DEInternal.Weighted>
1.5918

> <Gold.Chemscore.Rot.Weighted>
4.9383

> <Gold.Chemscore.Internal.Correction.Weighted>
   9.000000E+99

> <Gold.Protein.RotatedTorsions>
[ 6907 6896 6895 6894 ] final  162.46 input  -60.11 | X-H torsion
[ 7974 7965 7964 7962 ] final  -46.78 input  175.53 | X-H torsion
[ 8008 7997 7996 7995 ] final   82.36 input   59.86 | X-H torsion
[ 10167 10162 10161 10158 ] final -122.89 input  -65.29 | X-H torsion
[ 10718 10713 10712 10709 ] final   40.95 input   66.30 | X-H torsion
[ 10763 10752 10751 10750 ] final  133.54 input  -60.55 | X-H torsion
[ 11005 11000 10999 10996 ] final  -76.49 input  -57.11 | X-H torsion

> <Gold.Protein.ActiveResidues>
 VAL166  LYS551  ARG553  GLY616  TRP617  ASP618  TYR619  PRO620  LYS621  CYS622 
 ASP623  PHE694  ASN695  SER759  ASP760  ASP761  ALA762  ILE779  LEU786  VAL792 
 PHE793  MET794  SER795  GLU796  ALA797  LYS798  CYS799  TRP800  GLU811  SER814 

> <Gold.Protein.RotatedAtoms>
  151.9401  133.3635  159.3961 H   0  0  0  0  0  0  0  0  0  0  0  0  # atno 6907 bound_to 6896
  150.7000  134.4448  159.5318 H   0  0  0  0  0  0  0  0  0  0  0  0  # atno 6908 bound_to 6896
  152.2103  134.8507  160.0549 H   0  0  0  0  0  0  0  0  0  0  0  0  # atno 6909 bound_to 6896
  145.9684  140.7408  142.9423 H   0  0  0  0  0  0  0  0  0  0  0  0  # atno 7974 bound_to 7965
  155.9096  140.3428  155.6088 H   0  0  0  0  0  0  0  0  0  0  0  0  # atno 8008 bound_to 7997
  155.7404  140.0807  157.2267 H   0  0  0  0  0  0  0  0  0  0  0  0  # atno 8009 bound_to 7997
  154.4054  140.1572  156.2597 H   0  0  0  0  0  0  0  0  0  0  0  0  # atno 8010 bound_to 7997
  140.0094  143.5457  152.2269 H   0  0  0  0  0  0  0  0  0  0  0  0  # atno 10167 bound_to 10162
  157.3881  130.7791  149.7247 H   0  0  0  0  0  0  0  0  0  0  0  0  # atno 10718 bound_to 10713
  153.8087  135.3132  155.3398 H   0  0  0  0  0  0  0  0  0  0  0  0  # atno 10763 bound_to 10752
  154.8060  135.4697  154.0396 H   0  0  0  0  0  0  0  0  0  0  0  0  # atno 10764 bound_to 10752
  153.1767  135.6887  153.8621 H   0  0  0  0  0  0  0  0  0  0  0  0  # atno 10765 bound_to 10752
  141.1654  133.6985  156.7677 H   0  0  0  0  0  0  0  0  0  0  0  0  # atno 11005 bound_to 11000
  144.6831  140.2707  143.7306 LP  0  0  0  0  0  0  0  0  0  0  0  0  # atno 17320 bound_to 7965
  145.7941  139.1938  143.2086 LP  0  0  0  0  0  0  0  0  0  0  0  0  # atno 17321 bound_to 7965
  139.6215  144.7630  151.2729 LP  0  0  0  0  0  0  0  0  0  0  0  0  # atno 17342 bound_to 10162
  140.7387  143.6639  150.8140 LP  0  0  0  0  0  0  0  0  0  0  0  0  # atno 17343 bound_to 10162
  155.9791  130.4043  150.3605 LP  0  0  0  0  0  0  0  0  0  0  0  0  # atno 17370 bound_to 10713
  157.1718  131.0370  151.2792 LP  0  0  0  0  0  0  0  0  0  0  0  0  # atno 17371 bound_to 10713
  140.2487  134.8557  157.3646 LP  0  0  0  0  0  0  0  0  0  0  0  0  # atno 17394 bound_to 11000
  140.1724  134.4592  155.7823 LP  0  0  0  0  0  0  0  0  0  0  0  0  # atno 17395 bound_to 11000

$$$$
