AV-unprocessed.smi:1702|AV-procd|sdf|6850|dock2
  -GOLD-   22720 8 33D 1   1.00000     0.00000
 Structure written by MMmdl.
 45 47  0  0  0  0  0  0  0  0  3 V2000
  144.1446  144.3775  154.9632 C   0  0  0  0  0  0  0  0  0  0  0  0
  144.8694  143.0421  154.7428 C   0  0  2  0  0  0  0  0  0  0  0  0
  145.2061  142.3508  156.0746 C   0  0  0  0  0  0  0  0  0  0  0  0
  145.9621  141.0316  155.8440 C   0  0  0  0  0  0  0  0  0  0  0  0
  147.1985  141.2540  155.0511 N   0  3  1  0  0  0  0  0  0  0  0  0
  148.0261  140.0251  154.9381 C   0  0  0  0  0  0  0  0  0  0  0  0
  149.5238  140.3345  154.7416 C   0  0  1  0  0  0  0  0  0  0  0  0
  149.7246  140.8066  153.4228 O   0  0  0  0  0  0  0  0  0  0  0  0
  150.0255  141.3956  155.7420 C   0  0  0  0  0  0  0  0  0  0  0  0
  150.8138  140.8212  156.8412 N   0  0  0  0  0  0  0  0  0  0  0  0
  151.2286  139.5410  157.0456 C   0  0  0  0  0  0  0  0  0  0  0  0
  151.9301  139.5175  158.2130 N   0  3  0  0  0  0  0  0  0  0  0  0
  151.9659  140.8013  158.7618 C   0  0  0  0  0  0  0  0  0  0  0  0
  152.5532  141.2787  159.9292 C   0  0  0  0  0  0  0  0  0  0  0  0
  152.3997  142.6542  160.2009 C   0  0  0  0  0  0  0  0  0  0  0  0
  152.9483  143.1705  161.3259 F   0  0  0  0  0  0  0  0  0  0  0  0
  151.6862  143.5002  159.3251 C   0  0  0  0  0  0  0  0  0  0  0  0
  151.5614  144.8151  159.6236 F   0  0  0  0  0  0  0  0  0  0  0  0
  151.0974  143.0050  158.1427 C   0  0  0  0  0  0  0  0  0  0  0  0
  151.2518  141.6439  157.8844 C   0  0  0  0  0  0  0  0  0  0  0  0
  146.8949  141.8839  153.7387 C   0  0  0  0  0  0  0  0  0  0  0  0
  146.1594  143.2218  153.9243 C   0  0  0  0  0  0  0  0  0  0  0  0
  144.7656  145.0798  155.5200 H   0  0  0  0  0  0  0  0  0  0  0  0
  143.2200  144.2346  155.5231 H   0  0  0  0  0  0  0  0  0  0  0  0
  143.8847  144.8446  154.0130 H   0  0  0  0  0  0  0  0  0  0  0  0
  144.1986  142.3899  154.1816 H   0  0  0  0  0  0  0  0  0  0  0  0
  145.8122  143.0136  156.6940 H   0  0  0  0  0  0  0  0  0  0  0  0
  144.2919  142.1555  156.6361 H   0  0  0  0  0  0  0  0  0  0  0  0
  146.2163  140.5953  156.8110 H   0  0  0  0  0  0  0  0  0  0  0  0
  145.3218  140.3131  155.3295 H   0  0  0  0  0  0  0  0  0  0  0  0
  147.9157  139.4196  155.8394 H   0  0  0  0  0  0  0  0  0  0  0  0
  147.6492  139.4136  154.1168 H   0  0  0  0  0  0  0  0  0  0  0  0
  150.1168  139.4297  154.8673 H   0  0  0  0  0  0  0  0  0  0  0  0
  149.5236  140.1098  152.8162 H   0  0  0  0  0  0  0  0  0  0  0  0
  150.6573  142.1266  155.2351 H   0  0  0  0  0  0  0  0  0  0  0  0
  149.1921  141.9533  156.1713 H   0  0  0  0  0  0  0  0  0  0  0  0
  151.0342  138.6954  156.4012 H   0  0  0  0  0  0  0  0  0  0  0  0
  153.1008  140.6352  160.6021 H   0  0  0  0  0  0  0  0  0  0  0  0
  150.5553  143.6615  157.4792 H   0  0  0  0  0  0  0  0  0  0  0  0
  147.8125  142.0610  153.1792 H   0  0  0  0  0  0  0  0  0  0  0  0
  146.2878  141.2039  153.1388 H   0  0  0  0  0  0  0  0  0  0  0  0
  145.9257  143.6496  152.9486 H   0  0  0  0  0  0  0  0  0  0  0  0
  146.8194  143.9332  154.4230 H   0  0  0  0  0  0  0  0  0  0  0  0
  147.7505  141.9174  155.5766 H   0  0  0  0  0  0  0  0  0  0  0  0
  152.3520  138.6845  158.6039 H   0  0  0  0  0  0  0  0  0  0  0  0
  1  2  1  0  0  0  0
  1 23  1  0  0  0  0
  1 24  1  0  0  0  0
  1 25  1  0  0  0  0
  2 22  1  0  0  0  0
  2  3  1  0  0  0  0
  2 26  1  0  0  0  0
  3  4  1  0  0  0  0
  3 27  1  0  0  0  0
  3 28  1  0  0  0  0
  4  5  1  0  0  0  0
  4 29  1  0  0  0  0
  4 30  1  0  0  0  0
  5  6  1  0  0  0  0
  5 21  1  0  0  0  0
  5 44  1  0  0  0  0
  6  7  1  0  0  0  0
  6 31  1  0  0  0  0
  6 32  1  0  0  0  0
  7  8  1  0  0  0  0
  7  9  1  0  0  0  0
  7 33  1  0  0  0  0
  8 34  1  0  0  0  0
  9 10  1  0  0  0  0
  9 35  1  0  0  0  0
  9 36  1  0  0  0  0
 10 20  1  0  0  0  0
 10 11  1  0  0  0  0
 11 12  2  0  0  0  0
 11 37  1  0  0  0  0
 12 13  1  0  0  0  0
 12 45  1  0  0  0  0
 13 20  2  0  0  0  0
 13 14  1  0  0  0  0
 14 15  2  0  0  0  0
 14 38  1  0  0  0  0
 15 16  1  0  0  0  0
 15 17  1  0  0  0  0
 17 18  1  0  0  0  0
 17 19  2  0  0  0  0
 19 20  1  0  0  0  0
 19 39  1  0  0  0  0
 21 22  1  0  0  0  0
 21 40  1  0  0  0  0
 21 41  1  0  0  0  0
 22 42  1  0  0  0  0
 22 43  1  0  0  0  0
M  CHG  1   5   1
M  CHG  1  12   1
M  END
> <s_m_source_file>
AV-unprocessed.smi

> <i_m_source_file_index>
1702

> <i_lp_mmshare_version>
43012

> <i_f3d_flags>
0

> <s_epik_input>
W0NIM11bQ0hdMVtDSDJdW0NIMl1OKFtDSDJdW0NIMl0xKVtDSDJdW0NASF0oW09IXSlbQ0gyXW4oW2NIXW4yKWMoYzIzKVtjSF1jKEYpYyhGKVtjSF0z

> <s_epik_cmdline>
J2VwaWtfcHl0aG9uJywgJy1waCcsICc3LjAnLCAnLXRuJywgJzgnLCAnLW1hJywgJzIwMCcsICctbWV0YWxfYmluZGluZycsICctaW1hZScsICc8aW5maWxlLm1hZT4nLCAnLW9tYWUnLCAnPG91dGZpbGUubWFlPic=

> <r_epik_Ionization_Penalty>
2.33291

> <r_epik_Ionization_Penalty_Charging>
2.33291

> <r_epik_Ionization_Penalty_Neutral>
6.90208e-07

> <r_epik_State_Penalty>
2.4838

> <r_epik_Charging_Adjusted_Penalty>
4.81672

> <i_epik_Tot_Q>
2

> <i_epik_Tot_abs_Q>
2

> <r_epik_Metal_State_Penalty>
6.56754

> <b_epik_Metal_Only>
0

> <s_lp_Force_Field>
OPLS_2005

> <r_lp_Energy>
29.8556

> <b_lp_Chiralities_Consistent>
1

> <s_lp_Variant>
AV-unprocessed.smi:1702-6

> <Gold.Version>
5.8.1

> <Gold.Id.Protein>
6NUR|6NUR_protein|mol2

> <Gold.PLP.Fitness>
51.6931

> <Gold.PLP.PLP>
-47.8886

> <Gold.PLP.part.hbond>
-2.3538

> <Gold.PLP.part.metal>
0.0000

> <Gold.PLP.part.buried>
-7.6853

> <Gold.PLP.part.nonpolar>
-38.0087

> <Gold.PLP.part.repulsive>
0.1029

> <Gold.PLP.ligand.clash>
0.0000

> <Gold.PLP.ligand.torsion>
0.9823

> <Gold.PLP.Chemscore.Hbond>
1.8960

> <Gold.PLP.Chemscore.CHOScore>
0.0000

> <Gold.PLP.Chemscore.Metal>
0.0000

> <Gold.Chemscore.Hbonds>
donor molecule, donor type, donor heavy atom, donor atom, acceptor molecule, acceptor atom, score
      L1  H     8    34       P1  7957  0.62
      P1  H  7989  7998       L1     8  0.29
      P1  H  8011  8017       L1     8  1.00

> <Gold.PLP.Chemscore.Internal.Correction>
0.0811

> <Gold.Rescore>
     Score         DG    S(hbond)    S(metal)    S(lipo)     H(rot)  DE(clash)    DE(int)     intcor
     14.61     -15.83       1.30        0.00     102.00       2.32       0.10       1.12       ----

> <Gold.Chemscore.Fitness>
14.6094

> <Gold.Chemscore.DG>
-15.8278

> <Gold.Chemscore.ZeroCoef>
-5.4800

> <Gold.Chemscore.Hbond>
1.3041

> <Gold.Chemscore.Metal>
0.0000

> <Gold.Chemscore.Lipo>
101.9987

> <Gold.Chemscore.Internal_Hbond>
0.0000

> <Gold.Chemscore.DEClash>
0.1014

> <Gold.Chemscore.DEInternal>
1.1170

> <Gold.Chemscore.Rot>
2.3210

> <Gold.Chemscore.Internal.Correction>
   9.000000E+99

> <Gold.Chemscore.Hbonds>
donor molecule, donor type, donor heavy atom, donor atom, acceptor molecule, acceptor atom, score
      L1  H     8    34       P1  7957  0.62
      P1  H  7989  7998       L1     8  0.03
      P1  H  8011  8017       L1     8  0.49

> <Gold.Chemscore.Hbond.Weighted>
-4.3556

> <Gold.Chemscore.Metal.Weighted>
-0.0000

> <Gold.Chemscore.Lipo.Weighted>
-11.9338

> <Gold.Chemscore.Internal_Hbond.Weighted>
0.0000

> <Gold.Chemscore.DEClash.Weighted>
0.1014

> <Gold.Chemscore.DEInternal.Weighted>
1.1170

> <Gold.Chemscore.Rot.Weighted>
5.9416

> <Gold.Chemscore.Internal.Correction.Weighted>
   9.000000E+99

> <Gold.Protein.RotatedTorsions>
[ 6907 6896 6895 6894 ] final  170.12 input  -60.11 | X-H torsion
[ 7974 7965 7964 7962 ] final   36.99 input  175.53 | X-H torsion
[ 8008 7997 7996 7995 ] final    2.10 input   59.86 | X-H torsion
[ 10167 10162 10161 10158 ] final  116.55 input  -65.29 | X-H torsion
[ 10718 10713 10712 10709 ] final -108.77 input   66.30 | X-H torsion
[ 10763 10752 10751 10750 ] final   -0.85 input  -60.55 | X-H torsion
[ 11005 11000 10999 10996 ] final  175.71 input  -57.11 | X-H torsion

> <Gold.Protein.ActiveResidues>
 VAL166  LYS551  ARG553  GLY616  TRP617  ASP618  TYR619  PRO620  LYS621  CYS622 
 ASP623  PHE694  ASN695  SER759  ASP760  ASP761  ALA762  ILE779  LEU786  VAL792 
 PHE793  MET794  SER795  GLU796  ALA797  LYS798  CYS799  TRP800  GLU811  SER814 

> <Gold.Protein.RotatedAtoms>
  151.8210  133.3394  159.3584 H   0  0  0  0  0  0  0  0  0  0  0  0  # atno 6907 bound_to 6896
  150.7294  134.5573  159.5834 H   0  0  0  0  0  0  0  0  0  0  0  0  # atno 6908 bound_to 6896
  152.3005  134.7617  160.0410 H   0  0  0  0  0  0  0  0  0  0  0  0  # atno 6909 bound_to 6896
  146.1170  139.5949  142.9314 H   0  0  0  0  0  0  0  0  0  0  0  0  # atno 7974 bound_to 7965
  154.6876  140.2646  155.6845 H   0  0  0  0  0  0  0  0  0  0  0  0  # atno 8008 bound_to 7997
  156.2720  140.2797  156.1365 H   0  0  0  0  0  0  0  0  0  0  0  0  # atno 8009 bound_to 7997
  155.0943  140.0374  157.2668 H   0  0  0  0  0  0  0  0  0  0  0  0  # atno 8010 bound_to 7997
  139.6239  144.7105  151.2574 H   0  0  0  0  0  0  0  0  0  0  0  0  # atno 10167 bound_to 10162
  156.0502  130.5730  150.8007 H   0  0  0  0  0  0  0  0  0  0  0  0  # atno 10718 bound_to 10713
  153.3373  135.6978  153.6897 H   0  0  0  0  0  0  0  0  0  0  0  0  # atno 10763 bound_to 10752
  153.5676  135.3522  155.2825 H   0  0  0  0  0  0  0  0  0  0  0  0  # atno 10764 bound_to 10752
  154.8630  135.4264  154.2576 H   0  0  0  0  0  0  0  0  0  0  0  0  # atno 10765 bound_to 10752
  140.3652  134.7078  157.4357 H   0  0  0  0  0  0  0  0  0  0  0  0  # atno 11005 bound_to 11000
  145.5545  141.0410  143.2260 LP  0  0  0  0  0  0  0  0  0  0  0  0  # atno 17320 bound_to 7965
  144.7562  139.7068  143.7253 LP  0  0  0  0  0  0  0  0  0  0  0  0  # atno 17321 bound_to 7965
  140.7399  143.6603  150.8170 LP  0  0  0  0  0  0  0  0  0  0  0  0  # atno 17342 bound_to 10162
  140.0218  143.5534  152.2797 LP  0  0  0  0  0  0  0  0  0  0  0  0  # atno 17343 bound_to 10162
  157.5421  131.0941  150.9813 LP  0  0  0  0  0  0  0  0  0  0  0  0  # atno 17370 bound_to 10713
  157.0093  130.5630  149.5319 LP  0  0  0  0  0  0  0  0  0  0  0  0  # atno 17371 bound_to 10713
  140.0595  134.6016  155.8766 LP  0  0  0  0  0  0  0  0  0  0  0  0  # atno 17394 bound_to 11000
  141.1972  133.6595  156.5728 LP  0  0  0  0  0  0  0  0  0  0  0  0  # atno 17395 bound_to 11000

$$$$
