AV-unprocessed.smi:1235|AV-procd|sdf|5175|dock7
  -GOLD-   22720 4253D 1   1.00000     0.00000
 Structure written by MMmdl.
 50 51  0  0  0  0  0  0  0  0  2 V2000
  152.3102  143.2673  158.5009 C   0  0  0  0  0  0  0  0  0  0  0  0
  151.0120  142.7078  158.5989 O   0  0  0  0  0  0  0  0  0  0  0  0
  150.8526  141.5603  157.7822 C   0  0  0  0  0  0  0  0  0  0  0  0
  150.5762  142.0108  156.3399 C   0  0  0  0  0  0  0  0  0  0  0  0
  150.1984  140.8806  155.4854 N   0  0  0  0  0  0  0  0  0  0  0  0
  148.9243  140.9782  154.9516 N   0  0  0  0  0  0  0  0  0  0  0  0
  148.4690  140.0440  154.1806 C   0  0  0  0  0  0  0  0  0  0  0  0
  147.1058  140.1140  153.5842 C   0  0  0  0  0  0  0  0  0  0  0  0
  146.2404  140.8739  154.0225 O   0  0  0  0  0  0  0  0  0  0  0  0
  146.8890  139.2920  152.5414 N   0  0  0  0  0  0  0  0  0  0  0  0
  145.6380  139.1924  151.7991 C   0  0  0  0  0  0  0  0  0  0  0  0
  144.6908  138.1506  152.4296 C   0  0  0  0  0  0  0  0  0  0  0  0
  145.0582  136.7481  152.0809 N   0  3  2  0  0  0  0  0  0  0  0  0
  144.4991  136.3582  150.7532 C   0  0  0  0  0  0  0  0  0  0  0  0
  144.9733  134.9675  150.3110 C   0  0  0  0  0  0  0  0  0  0  0  0
  144.5900  133.9184  151.3534 C   0  0  0  0  0  0  0  0  0  0  0  0
  145.1676  134.3229  152.7115 C   0  0  0  0  0  0  0  0  0  0  0  0
  144.7210  135.7393  153.1400 C   0  0  1  0  0  0  0  0  0  0  0  0
  145.3600  136.0542  154.5096 C   0  0  0  0  0  0  0  0  0  0  0  0
  149.2791  138.8802  153.8631 C   0  0  0  0  0  0  0  0  0  0  0  0
  150.5177  138.7961  154.3964 C   0  0  0  0  0  0  0  0  0  0  0  0
  151.0562  139.8372  155.2734 C   0  0  0  0  0  0  0  0  0  0  0  0
  152.1773  139.7794  155.7775 O   0  0  0  0  0  0  0  0  0  0  0  0
  152.3841  144.1373  159.1535 H   0  0  0  0  0  0  0  0  0  0  0  0
  152.5238  143.5921  157.4815 H   0  0  0  0  0  0  0  0  0  0  0  0
  153.0735  142.5508  158.8076 H   0  0  0  0  0  0  0  0  0  0  0  0
  151.7542  140.9467  157.8228 H   0  0  0  0  0  0  0  0  0  0  0  0
  150.0238  140.9540  158.1517 H   0  0  0  0  0  0  0  0  0  0  0  0
  149.7797  142.7572  156.3406 H   0  0  0  0  0  0  0  0  0  0  0  0
  151.4509  142.5217  155.9333 H   0  0  0  0  0  0  0  0  0  0  0  0
  147.6512  138.7016  152.2393 H   0  0  0  0  0  0  0  0  0  0  0  0
  145.1860  140.1824  151.7463 H   0  0  0  0  0  0  0  0  0  0  0  0
  145.8753  138.9048  150.7746 H   0  0  0  0  0  0  0  0  0  0  0  0
  144.7361  138.3144  153.5029 H   0  0  0  0  0  0  0  0  0  0  0  0
  143.6549  138.3352  152.1412 H   0  0  0  0  0  0  0  0  0  0  0  0
  143.4089  136.3805  150.7979 H   0  0  0  0  0  0  0  0  0  0  0  0
  144.7916  137.0707  149.9844 H   0  0  0  0  0  0  0  0  0  0  0  0
  144.5322  134.7118  149.3470 H   0  0  0  0  0  0  0  0  0  0  0  0
  146.0547  134.9727  150.1670 H   0  0  0  0  0  0  0  0  0  0  0  0
  143.5043  133.8343  151.4186 H   0  0  0  0  0  0  0  0  0  0  0  0
  144.9651  132.9375  151.0591 H   0  0  0  0  0  0  0  0  0  0  0  0
  144.8615  133.5914  153.4604 H   0  0  0  0  0  0  0  0  0  0  0  0
  146.2571  134.2776  152.6676 H   0  0  0  0  0  0  0  0  0  0  0  0
  143.6368  135.7328  153.2642 H   0  0  0  0  0  0  0  0  0  0  0  0
  145.2499  135.2110  155.1926 H   0  0  0  0  0  0  0  0  0  0  0  0
  144.8901  136.9010  155.0081 H   0  0  0  0  0  0  0  0  0  0  0  0
  146.4267  136.2595  154.4144 H   0  0  0  0  0  0  0  0  0  0  0  0
  148.9073  138.0963  153.2192 H   0  0  0  0  0  0  0  0  0  0  0  0
  151.1304  137.9359  154.1702 H   0  0  0  0  0  0  0  0  0  0  0  0
  146.0640  136.7299  151.9918 H   0  0  0  0  0  0  0  0  0  0  0  0
  1  2  1  0  0  0  0
  1 24  1  0  0  0  0
  1 25  1  0  0  0  0
  1 26  1  0  0  0  0
  2  3  1  0  0  0  0
  3  4  1  0  0  0  0
  3 27  1  0  0  0  0
  3 28  1  0  0  0  0
  4  5  1  0  0  0  0
  4 29  1  0  0  0  0
  4 30  1  0  0  0  0
  5 22  1  0  0  0  0
  5  6  1  0  0  0  0
  6  7  2  0  0  0  0
  7  8  1  0  0  0  0
  7 20  1  0  0  0  0
  8  9  2  0  0  0  0
  8 10  1  0  0  0  0
 10 11  1  0  0  0  0
 10 31  1  0  0  0  0
 11 12  1  0  0  0  0
 11 32  1  0  0  0  0
 11 33  1  0  0  0  0
 12 13  1  0  0  0  0
 12 34  1  0  0  0  0
 12 35  1  0  0  0  0
 13 18  1  0  0  0  0
 13 14  1  0  0  0  0
 13 50  1  0  0  0  0
 14 15  1  0  0  0  0
 14 36  1  0  0  0  0
 14 37  1  0  0  0  0
 15 16  1  0  0  0  0
 15 38  1  0  0  0  0
 15 39  1  0  0  0  0
 16 17  1  0  0  0  0
 16 40  1  0  0  0  0
 16 41  1  0  0  0  0
 17 18  1  0  0  0  0
 17 42  1  0  0  0  0
 17 43  1  0  0  0  0
 18 19  1  0  0  0  0
 18 44  1  0  0  0  0
 19 45  1  0  0  0  0
 19 46  1  0  0  0  0
 19 47  1  0  0  0  0
 20 21  2  0  0  0  0
 20 48  1  0  0  0  0
 21 22  1  0  0  0  0
 21 49  1  0  0  0  0
 22 23  2  0  0  0  0
M  CHG  1  13   1
M  END
> <s_m_source_file>
AV-unprocessed.smi

> <i_m_source_file_index>
1235

> <i_lp_mmshare_version>
43012

> <i_f3d_flags>
0

> <s_epik_input>
W0NIM11PW0NIMl1bQ0gyXW4xbmMoW2NIXVtjSF1jMT1PKUMoPU8pW05IXVtDSDJdW0NIMl1OMltDSDJdW0NIMl1bQ0gyXVtDSDJdW0NASF0yW0NIM10=

> <s_epik_cmdline>
J2VwaWtfcHl0aG9uJywgJy1waCcsICc3LjAnLCAnLXRuJywgJzgnLCAnLW1hJywgJzIwMCcsICctbWV0YWxfYmluZGluZycsICctaW1hZScsICc8aW5maWxlLm1hZT4nLCAnLW9tYWUnLCAnPG91dGZpbGUubWFlPic=

> <r_lp_tautomer_probability>
1

> <r_epik_Ionization_Penalty>
0.00271975

> <r_epik_Ionization_Penalty_Charging>
0.00271407

> <r_epik_Ionization_Penalty_Neutral>
5.6803e-06

> <r_epik_State_Penalty>
0.00189271

> <r_epik_Charging_Adjusted_Penalty>
0.00460678

> <i_epik_Tot_Q>
1

> <i_epik_Tot_abs_Q>
1

> <r_epik_Metal_State_Penalty>
-0

> <b_epik_Metal_Only>
0

> <s_lp_Force_Field>
OPLS_2005

> <r_lp_Energy>
40.0899

> <b_lp_Chiralities_Consistent>
1

> <s_lp_Variant>
AV-unprocessed.smi:1235-1

> <Gold.Version>
5.8.1

> <Gold.Id.Protein>
6NUR|6NUR_protein|mol2

> <Gold.PLP.Fitness>
52.7268

> <Gold.PLP.PLP>
-42.9230

> <Gold.PLP.part.hbond>
-4.0000

> <Gold.PLP.part.metal>
0.0000

> <Gold.PLP.part.buried>
-3.7762

> <Gold.PLP.part.nonpolar>
-34.9567

> <Gold.PLP.part.repulsive>
0.3564

> <Gold.PLP.ligand.clash>
0.0000

> <Gold.PLP.ligand.torsion>
0.8461

> <Gold.PLP.Chemscore.Hbond>
3.7840

> <Gold.PLP.Chemscore.CHOScore>
0.0000

> <Gold.PLP.Chemscore.Metal>
0.0000

> <Gold.Chemscore.Hbonds>
donor molecule, donor type, donor heavy atom, donor atom, acceptor molecule, acceptor atom, score
      P1  H  7997  8010       L1    23  0.47

> <Gold.PLP.Chemscore.Internal.Correction>
0.1440

> <Gold.Rescore>
     Score         DG    S(hbond)    S(metal)    S(lipo)     H(rot)  DE(clash)    DE(int)     intcor
     16.29     -20.08       2.55        0.00      95.71       2.00       2.26       1.53       ----

> <Gold.Chemscore.Fitness>
16.2895

> <Gold.Chemscore.DG>
-20.0799

> <Gold.Chemscore.ZeroCoef>
-5.4800

> <Gold.Chemscore.Hbond>
2.5530

> <Gold.Chemscore.Metal>
0.0000

> <Gold.Chemscore.Lipo>
95.7091

> <Gold.Chemscore.Internal_Hbond>
0.0000

> <Gold.Chemscore.DEClash>
2.2614

> <Gold.Chemscore.DEInternal>
1.5290

> <Gold.Chemscore.Rot>
2.0020

> <Gold.Chemscore.Internal.Correction>
   9.000000E+99

> <Gold.Chemscore.Hbonds>
donor molecule, donor type, donor heavy atom, donor atom, acceptor molecule, acceptor atom, score
      P1  H  7997  8010       L1    23  0.48

> <Gold.Chemscore.Hbond.Weighted>
-8.5271

> <Gold.Chemscore.Metal.Weighted>
-0.0000

> <Gold.Chemscore.Lipo.Weighted>
-11.1980

> <Gold.Chemscore.Internal_Hbond.Weighted>
0.0000

> <Gold.Chemscore.DEClash.Weighted>
2.2614

> <Gold.Chemscore.DEInternal.Weighted>
1.5290

> <Gold.Chemscore.Rot.Weighted>
5.1252

> <Gold.Chemscore.Internal.Correction.Weighted>
   9.000000E+99

> <Gold.Protein.RotatedTorsions>
[ 6907 6896 6895 6894 ] final  171.90 input  -60.11 | X-H torsion
[ 7974 7965 7964 7962 ] final   91.25 input  175.53 | X-H torsion
[ 8008 7997 7996 7995 ] final   89.10 input   59.86 | X-H torsion
[ 10167 10162 10161 10158 ] final  -42.63 input  -65.29 | X-H torsion
[ 10718 10713 10712 10709 ] final  -22.15 input   66.30 | X-H torsion
[ 10763 10752 10751 10750 ] final  163.20 input  -60.55 | X-H torsion
[ 11005 11000 10999 10996 ] final  -90.91 input  -57.11 | X-H torsion

> <Gold.Protein.ActiveResidues>
 VAL166  LYS551  ARG553  GLY616  TRP617  ASP618  TYR619  PRO620  LYS621  CYS622 
 ASP623  PHE694  ASN695  SER759  ASP760  ASP761  ALA762  ILE779  LEU786  VAL792 
 PHE793  MET794  SER795  GLU796  ALA797  LYS798  CYS799  TRP800  GLU811  SER814 

> <Gold.Protein.RotatedAtoms>
  151.7929  133.3361  159.3504 H   0  0  0  0  0  0  0  0  0  0  0  0  # atno 6907 bound_to 6896
  150.7385  134.5826  159.5955 H   0  0  0  0  0  0  0  0  0  0  0  0  # atno 6908 bound_to 6896
  152.3197  134.7396  160.0368 H   0  0  0  0  0  0  0  0  0  0  0  0  # atno 6909 bound_to 6896
  145.5082  139.2276  143.2739 H   0  0  0  0  0  0  0  0  0  0  0  0  # atno 7974 bound_to 7965
  155.9959  140.3364  155.6798 H   0  0  0  0  0  0  0  0  0  0  0  0  # atno 8008 bound_to 7997
  155.6357  140.0690  157.2652 H   0  0  0  0  0  0  0  0  0  0  0  0  # atno 8009 bound_to 7997
  154.4233  140.1751  156.1507 H   0  0  0  0  0  0  0  0  0  0  0  0  # atno 8010 bound_to 7997
  140.6962  143.3027  151.3237 H   0  0  0  0  0  0  0  0  0  0  0  0  # atno 10167 bound_to 10162
  156.5085  130.4604  149.6661 H   0  0  0  0  0  0  0  0  0  0  0  0  # atno 10718 bound_to 10713
  154.2901  135.2761  155.2658 H   0  0  0  0  0  0  0  0  0  0  0  0  # atno 10763 bound_to 10752
  154.5141  135.5774  153.6631 H   0  0  0  0  0  0  0  0  0  0  0  0  # atno 10764 bound_to 10752
  152.9915  135.6188  154.3065 H   0  0  0  0  0  0  0  0  0  0  0  0  # atno 10765 bound_to 10752
  141.1556  133.7722  156.9804 H   0  0  0  0  0  0  0  0  0  0  0  0  # atno 11005 bound_to 11000
  146.2183  140.5887  142.9028 LP  0  0  0  0  0  0  0  0  0  0  0  0  # atno 17320 bound_to 7965
  144.7742  140.5703  143.6649 LP  0  0  0  0  0  0  0  0  0  0  0  0  # atno 17321 bound_to 7965
  139.6421  144.0520  152.2562 LP  0  0  0  0  0  0  0  0  0  0  0  0  # atno 17342 bound_to 10162
  140.0029  144.6280  150.7714 LP  0  0  0  0  0  0  0  0  0  0  0  0  # atno 17343 bound_to 10162
  156.3264  130.7308  151.2229 LP  0  0  0  0  0  0  0  0  0  0  0  0  # atno 17370 bound_to 10713
  157.7454  131.0442  150.4780 LP  0  0  0  0  0  0  0  0  0  0  0  0  # atno 17371 bound_to 10713
  140.1069  134.9501  157.2008 LP  0  0  0  0  0  0  0  0  0  0  0  0  # atno 17394 bound_to 11000
  140.3244  134.2880  155.7240 LP  0  0  0  0  0  0  0  0  0  0  0  0  # atno 17395 bound_to 11000

$$$$
