AV-unprocessed.smi:610|AV-procd|sdf|3059|dock10
  -GOLD-   2262023583D 1   1.00000     0.00000
 Structure written by MMmdl.
 37 38  0  0  0  0  0  0  0  0  1 V2000
  145.8272  134.4180  153.5929 C   0  0  0  0  0  0  0  0  0  0  0  0
  145.6964  135.4272  152.4421 C   0  0  2  0  0  0  0  0  0  0  0  0
  146.0583  134.7911  151.0867 C   0  0  0  0  0  0  0  0  0  0  0  0
  145.5018  133.4587  150.9393 N   0  0  0  0  0  0  0  0  0  0  0  0
  144.1583  133.1125  150.8730 C   0  0  0  0  0  0  0  0  0  0  0  0
  144.1118  131.7430  150.7400 C   0  0  0  0  0  0  0  0  0  0  0  0
  145.4064  131.2296  150.7211 N   0  0  0  0  0  0  0  0  0  0  0  0
  146.1751  132.3042  150.8428 C   0  0  0  0  0  0  0  0  0  0  0  0
  146.5554  136.5818  152.6945 N   0  0  0  0  0  0  0  0  0  0  0  0
  146.1710  137.7452  153.2475 C   0  0  0  0  0  0  0  0  0  0  0  0
  145.0179  137.9389  153.6352 O   0  0  0  0  0  0  0  0  0  0  0  0
  147.2314  138.8662  153.3988 C   0  0  0  0  0  0  0  0  0  0  0  0
  148.5549  138.4276  152.9724 N   0  0  0  0  0  0  0  0  0  0  0  0
  146.8415  140.1345  152.5904 C   0  0  0  0  0  0  0  0  0  0  0  0
  146.6798  141.2793  153.5984 C   0  0  0  0  0  0  0  0  0  0  0  0
  146.4492  140.6002  154.9442 C   0  0  0  0  0  0  0  0  0  0  0  0
  147.3115  139.3411  154.8687 C   0  0  0  0  0  0  0  0  0  0  0  0
  145.1819  133.5544  153.4307 H   0  0  0  0  0  0  0  0  0  0  0  0
  145.5416  134.8655  154.5455 H   0  0  0  0  0  0  0  0  0  0  0  0
  146.8511  134.0551  153.6886 H   0  0  0  0  0  0  0  0  0  0  0  0
  144.6553  135.7526  152.3941 H   0  0  0  0  0  0  0  0  0  0  0  0
  145.7073  135.4126  150.2614 H   0  0  0  0  0  0  0  0  0  0  0  0
  147.1417  134.7164  150.9832 H   0  0  0  0  0  0  0  0  0  0  0  0
  143.3690  133.8479  150.9273 H   0  0  0  0  0  0  0  0  0  0  0  0
  143.2530  131.0930  150.6574 H   0  0  0  0  0  0  0  0  0  0  0  0
  147.2538  132.2502  150.8658 H   0  0  0  0  0  0  0  0  0  0  0  0
  147.5226  136.5006  152.4151 H   0  0  0  0  0  0  0  0  0  0  0  0
  148.4986  137.4706  152.6544 H   0  0  0  0  0  0  0  0  0  0  0  0
  148.8424  138.9732  152.1726 H   0  0  0  0  0  0  0  0  0  0  0  0
  147.5797  140.3998  151.8318 H   0  0  0  0  0  0  0  0  0  0  0  0
  145.9020  139.9961  152.0527 H   0  0  0  0  0  0  0  0  0  0  0  0
  147.6020  141.8600  153.6402 H   0  0  0  0  0  0  0  0  0  0  0  0
  145.8721  141.9613  153.3311 H   0  0  0  0  0  0  0  0  0  0  0  0
  146.7110  141.2389  155.7880 H   0  0  0  0  0  0  0  0  0  0  0  0
  145.3982  140.3268  155.0463 H   0  0  0  0  0  0  0  0  0  0  0  0
  146.9815  138.5872  155.5855 H   0  0  0  0  0  0  0  0  0  0  0  0
  148.3364  139.6011  155.1397 H   0  0  0  0  0  0  0  0  0  0  0  0
  1  2  1  0  0  0  0
  1 18  1  0  0  0  0
  1 19  1  0  0  0  0
  1 20  1  0  0  0  0
  2  3  1  0  0  0  0
  2  9  1  0  0  0  0
  2 21  1  0  0  0  0
  3  4  1  0  0  0  0
  3 22  1  0  0  0  0
  3 23  1  0  0  0  0
  4  8  1  0  0  0  0
  4  5  1  0  0  0  0
  5  6  2  0  0  0  0
  5 24  1  0  0  0  0
  6  7  1  0  0  0  0
  6 25  1  0  0  0  0
  7  8  2  0  0  0  0
  8 26  1  0  0  0  0
  9 10  1  0  0  0  0
  9 27  1  0  0  0  0
 10 11  2  0  0  0  0
 10 12  1  0  0  0  0
 12 17  1  0  0  0  0
 12 13  1  0  0  0  0
 12 14  1  0  0  0  0
 13 28  1  0  0  0  0
 13 29  1  0  0  0  0
 14 15  1  0  0  0  0
 14 30  1  0  0  0  0
 14 31  1  0  0  0  0
 15 16  1  0  0  0  0
 15 32  1  0  0  0  0
 15 33  1  0  0  0  0
 16 17  1  0  0  0  0
 16 34  1  0  0  0  0
 16 35  1  0  0  0  0
 17 36  1  0  0  0  0
 17 37  1  0  0  0  0
M  END
> <s_m_source_file>
AV-unprocessed.smi

> <i_m_source_file_index>
610

> <i_lp_mmshare_version>
43012

> <i_f3d_flags>
0

> <s_epik_input>
W2NIXTFuW2NIXVtjSF1uMVtDSDJdW0NAQEhdKFtDSDNdKVtOSF1DKD1PKUMyKFtOSDJdKVtDSDJdW0NIMl1bQ0gyXVtDSDJdMg==

> <s_epik_cmdline>
J2VwaWtfcHl0aG9uJywgJy1waCcsICc3LjAnLCAnLXRuJywgJzgnLCAnLW1hJywgJzIwMCcsICctbWV0YWxfYmluZGluZycsICctaW1hZScsICc8aW5maWxlLm1hZT4nLCAnLW9tYWUnLCAnPG91dGZpbGUubWFlPic=

> <r_lp_tautomer_probability>
1

> <r_epik_Ionization_Penalty>
1.91974

> <r_epik_Ionization_Penalty_Charging>
0.644069

> <r_epik_Ionization_Penalty_Neutral>
1.27567

> <r_epik_State_Penalty>
1.9806

> <r_epik_Charging_Adjusted_Penalty>
2.62467

> <i_epik_Tot_Q>
0

> <i_epik_Tot_abs_Q>
0

> <r_epik_Metal_State_Penalty>
1.61835

> <b_epik_Metal_Only>
0

> <s_lp_Force_Field>
OPLS_2005

> <r_lp_Energy>
21.9363

> <b_lp_Chiralities_Consistent>
1

> <s_lp_Variant>
AV-unprocessed.smi:610-7

> <Gold.Version>
5.8.1

> <Gold.Id.Protein>
6NUR|6NUR_protein|mol2

> <Gold.PLP.Fitness>
42.9404

> <Gold.PLP.PLP>
-25.9980

> <Gold.PLP.part.hbond>
-2.7975

> <Gold.PLP.part.metal>
0.0000

> <Gold.PLP.part.buried>
-5.2152

> <Gold.PLP.part.nonpolar>
-20.4773

> <Gold.PLP.part.repulsive>
1.2563

> <Gold.PLP.ligand.clash>
0.0000

> <Gold.PLP.ligand.torsion>
0.5149

> <Gold.PLP.Chemscore.Hbond>
3.0000

> <Gold.PLP.Chemscore.CHOScore>
2.9800

> <Gold.PLP.Chemscore.Metal>
0.0000

> <Gold.Chemscore.Hbonds>
donor molecule, donor type, donor heavy atom, donor atom, acceptor molecule, acceptor atom, score
      L1  H     9    27       P1  7948  1.00
      L1  H    13    28       P1  7948  0.98
      L1  H    13    29       P1  7957  1.00
      L1  C     5    24       P1 10186  0.35
      L1  C     6    25       P1 10952  0.41
      L1  C     8    26       P1 10747  1.00

> <Gold.PLP.Chemscore.Internal.Correction>
0.0321

> <Gold.Rescore>
     Score         DG    S(hbond)    S(metal)    S(lipo)     H(rot)  DE(clash)    DE(int)     intcor
     15.95     -16.54       2.98        0.00      52.17       1.95       0.02       0.57       ----

> <Gold.Chemscore.Fitness>
15.9451

> <Gold.Chemscore.DG>
-16.5391

> <Gold.Chemscore.ZeroCoef>
-5.4800

> <Gold.Chemscore.Hbond>
2.9766

> <Gold.Chemscore.Metal>
0.0000

> <Gold.Chemscore.Lipo>
52.1711

> <Gold.Chemscore.Internal_Hbond>
0.0000

> <Gold.Chemscore.DEClash>
0.0236

> <Gold.Chemscore.DEInternal>
0.5704

> <Gold.Chemscore.Rot>
1.9480

> <Gold.Chemscore.Internal.Correction>
   9.000000E+99

> <Gold.Chemscore.Hbonds>
donor molecule, donor type, donor heavy atom, donor atom, acceptor molecule, acceptor atom, score
      L1  H     9    27       P1  7948  0.95
      L1  H    13    28       P1  7948  0.90
      L1  H    13    29       P1  7957  0.95

> <Gold.Chemscore.Hbond.Weighted>
-9.9420

> <Gold.Chemscore.Metal.Weighted>
-0.0000

> <Gold.Chemscore.Lipo.Weighted>
-6.1040

> <Gold.Chemscore.Internal_Hbond.Weighted>
0.0000

> <Gold.Chemscore.DEClash.Weighted>
0.0236

> <Gold.Chemscore.DEInternal.Weighted>
0.5704

> <Gold.Chemscore.Rot.Weighted>
4.9869

> <Gold.Chemscore.Internal.Correction.Weighted>
   9.000000E+99

> <Gold.Protein.RotatedTorsions>
[ 6907 6896 6895 6894 ] final  107.93 input  -60.11 | X-H torsion
[ 7974 7965 7964 7962 ] final  -73.52 input  175.53 | X-H torsion
[ 8008 7997 7996 7995 ] final -163.78 input   59.86 | X-H torsion
[ 10167 10162 10161 10158 ] final   91.30 input  -65.29 | X-H torsion
[ 10718 10713 10712 10709 ] final  -49.22 input   66.30 | X-H torsion
[ 10763 10752 10751 10750 ] final  -19.61 input  -60.55 | X-H torsion
[ 11005 11000 10999 10996 ] final   19.37 input  -57.11 | X-H torsion

> <Gold.Protein.ActiveResidues>
 VAL166  LYS551  ARG553  GLY616  TRP617  ASP618  TYR619  PRO620  LYS621  CYS622 
 ASP623  PHE694  ASN695  SER759  ASP760  ASP761  ALA762  ILE779  LEU786  VAL792 
 PHE793  MET794  SER795  GLU796  ALA797  LYS798  CYS799  TRP800  GLU811  SER814 

> <Gold.Protein.RotatedAtoms>
  152.5134  133.9162  159.7511 H   0  0  0  0  0  0  0  0  0  0  0  0  # atno 6907 bound_to 6896
  150.9544  133.6505  159.2773 H   0  0  0  0  0  0  0  0  0  0  0  0  # atno 6908 bound_to 6896
  151.3772  135.0938  159.9537 H   0  0  0  0  0  0  0  0  0  0  0  0  # atno 6909 bound_to 6896
  145.6511  140.9282  143.0984 H   0  0  0  0  0  0  0  0  0  0  0  0  # atno 7974 bound_to 7965
  155.8262  140.0927  157.1820 H   0  0  0  0  0  0  0  0  0  0  0  0  # atno 8008 bound_to 7997
  154.3979  140.1427  156.3619 H   0  0  0  0  0  0  0  0  0  0  0  0  # atno 8009 bound_to 7997
  155.8215  140.3446  155.5519 H   0  0  0  0  0  0  0  0  0  0  0  0  # atno 8010 bound_to 7997
  139.8388  144.6651  150.9309 H   0  0  0  0  0  0  0  0  0  0  0  0  # atno 10167 bound_to 10162
  156.1914  130.4153  149.9366 H   0  0  0  0  0  0  0  0  0  0  0  0  # atno 10718 bound_to 10713
  153.6074  135.6997  153.5360 H   0  0  0  0  0  0  0  0  0  0  0  0  # atno 10763 bound_to 10752
  153.3045  135.4119  155.1282 H   0  0  0  0  0  0  0  0  0  0  0  0  # atno 10764 bound_to 10752
  154.8570  135.3657  154.5611 H   0  0  0  0  0  0  0  0  0  0  0  0  # atno 10765 bound_to 10752
  140.4144  134.1584  155.7669 H   0  0  0  0  0  0  0  0  0  0  0  0  # atno 11005 bound_to 11000
  144.7122  139.8328  143.7410 LP  0  0  0  0  0  0  0  0  0  0  0  0  # atno 17320 bound_to 7965
  146.1203  139.4220  143.0232 LP  0  0  0  0  0  0  0  0  0  0  0  0  # atno 17321 bound_to 7965
  140.7800  143.3932  151.1274 LP  0  0  0  0  0  0  0  0  0  0  0  0  # atno 17342 bound_to 10162
  139.7580  143.8678  152.3093 LP  0  0  0  0  0  0  0  0  0  0  0  0  # atno 17343 bound_to 10162
  156.7105  130.8968  151.3609 LP  0  0  0  0  0  0  0  0  0  0  0  0  # atno 17370 bound_to 10713
  157.6931  130.9254  150.0569 LP  0  0  0  0  0  0  0  0  0  0  0  0  # atno 17371 bound_to 10713
  141.1808  133.8417  157.1262 LP  0  0  0  0  0  0  0  0  0  0  0  0  # atno 17394 bound_to 11000
  140.0244  134.9931  157.0657 LP  0  0  0  0  0  0  0  0  0  0  0  0  # atno 17395 bound_to 11000

$$$$
