AV-unprocessed.smi:2104|AV-procd|sdf|8588|dock3
  -GOLD-   2272011323D 1   1.00000     0.00000
 Structure written by MMmdl.
 42 43  0  0  0  0  0  0  0  0  2 V2000
  146.7512  134.2395  162.8480 C   0  0  0  0  0  0  0  0  0  0  0  0
  147.2159  135.3079  161.9187 C   0  0  0  0  0  0  0  0  0  0  0  0
  147.8286  135.2739  160.6985 C   0  0  0  0  0  0  0  0  0  0  0  0
  147.9918  136.6495  160.3787 C   0  0  0  0  0  0  0  0  0  0  0  0
  148.5407  137.1361  159.2554 N   0  5  0  0  0  0  0  0  0  0  0  0
  149.8693  137.3848  159.1994 C   0  0  0  0  0  0  0  0  0  0  0  0
  150.7298  136.9373  159.9610 O   0  0  0  0  0  0  0  0  0  0  0  0
  150.2238  138.1900  158.1879 N   0  0  0  0  0  0  0  0  0  0  0  0
  151.5868  138.5662  157.8241 C   0  0  0  0  0  0  0  0  0  0  0  0
  151.6093  139.8316  156.9532 C   0  0  0  0  0  0  0  0  0  0  0  0
  152.2306  140.8778  157.6861 O   0  0  0  0  0  0  0  0  0  0  0  0
  151.4984  141.3268  158.8200 C   0  0  1  0  0  0  0  0  0  0  0  0
  152.4676  141.8355  159.9114 C   0  0  0  0  0  0  0  0  0  0  0  0
  153.2528  143.0719  159.4441 C   0  0  0  0  0  0  0  0  0  0  0  0
  152.3059  144.1918  158.9884 C   0  0  0  0  0  0  0  0  0  0  0  0
  151.3354  143.6970  157.9038 C   0  0  0  0  0  0  0  0  0  0  0  0
  150.5453  142.4574  158.3716 C   0  0  1  0  0  0  0  0  0  0  0  0
  149.5454  141.9810  157.3064 C   0  0  0  0  0  0  0  0  0  0  0  0
  147.5058  137.4478  161.3143 N   0  0  0  0  0  0  0  0  0  0  0  0
  147.0110  136.5949  162.3085 O   0  0  0  0  0  0  0  0  0  0  0  0
  147.4818  133.4326  162.9052 H   0  0  0  0  0  0  0  0  0  0  0  0
  145.8062  133.8176  162.5066 H   0  0  0  0  0  0  0  0  0  0  0  0
  146.6028  134.6317  163.8544 H   0  0  0  0  0  0  0  0  0  0  0  0
  148.1185  134.4059  160.1259 H   0  0  0  0  0  0  0  0  0  0  0  0
  149.4848  138.5324  157.5918 H   0  0  0  0  0  0  0  0  0  0  0  0
  152.1495  138.7383  158.7418 H   0  0  0  0  0  0  0  0  0  0  0  0
  152.0750  137.7389  157.3070 H   0  0  0  0  0  0  0  0  0  0  0  0
  152.1708  139.6530  156.0357 H   0  0  0  0  0  0  0  0  0  0  0  0
  150.5946  140.0930  156.6541 H   0  0  0  0  0  0  0  0  0  0  0  0
  150.8992  140.5046  159.2160 H   0  0  0  0  0  0  0  0  0  0  0  0
  151.8974  142.0917  160.8048 H   0  0  0  0  0  0  0  0  0  0  0  0
  153.1634  141.0547  160.2168 H   0  0  0  0  0  0  0  0  0  0  0  0
  153.8940  143.4310  160.2492 H   0  0  0  0  0  0  0  0  0  0  0  0
  153.9170  142.7967  158.6238 H   0  0  0  0  0  0  0  0  0  0  0  0
  151.7397  144.5611  159.8441 H   0  0  0  0  0  0  0  0  0  0  0  0
  152.8842  145.0363  158.6124 H   0  0  0  0  0  0  0  0  0  0  0  0
  150.6468  144.5000  157.6394 H   0  0  0  0  0  0  0  0  0  0  0  0
  151.8935  143.4604  156.9969 H   0  0  0  0  0  0  0  0  0  0  0  0
  149.9603  142.7541  159.2434 H   0  0  0  0  0  0  0  0  0  0  0  0
  150.0521  141.6853  156.3871 H   0  0  0  0  0  0  0  0  0  0  0  0
  148.8366  142.7702  157.0543 H   0  0  0  0  0  0  0  0  0  0  0  0
  148.9726  141.1240  157.6614 H   0  0  0  0  0  0  0  0  0  0  0  0
  1  2  1  0  0  0  0
  1 21  1  0  0  0  0
  1 22  1  0  0  0  0
  1 23  1  0  0  0  0
  2 20  1  0  0  0  0
  2  3  2  0  0  0  0
  3  4  1  0  0  0  0
  3 24  1  0  0  0  0
  4  5  1  0  0  0  0
  4 19  2  0  0  0  0
  5  6  1  0  0  0  0
  6  7  2  0  0  0  0
  6  8  1  0  0  0  0
  8  9  1  0  0  0  0
  8 25  1  0  0  0  0
  9 10  1  0  0  0  0
  9 26  1  0  0  0  0
  9 27  1  0  0  0  0
 10 11  1  0  0  0  0
 10 28  1  0  0  0  0
 10 29  1  0  0  0  0
 11 12  1  0  0  0  0
 12 17  1  0  0  0  0
 12 13  1  0  0  0  0
 12 30  1  0  0  0  0
 13 14  1  0  0  0  0
 13 31  1  0  0  0  0
 13 32  1  0  0  0  0
 14 15  1  0  0  0  0
 14 33  1  0  0  0  0
 14 34  1  0  0  0  0
 15 16  1  0  0  0  0
 15 35  1  0  0  0  0
 15 36  1  0  0  0  0
 16 17  1  0  0  0  0
 16 37  1  0  0  0  0
 16 38  1  0  0  0  0
 17 18  1  0  0  0  0
 17 39  1  0  0  0  0
 18 40  1  0  0  0  0
 18 41  1  0  0  0  0
 18 42  1  0  0  0  0
 19 20  1  0  0  0  0
M  CHG  1   5  -1
M  END
> <s_m_source_file>
AV-unprocessed.smi

> <i_m_source_file_index>
2104

> <i_lp_mmshare_version>
43012

> <i_f3d_flags>
0

> <s_epik_input>
W0NIM11jMVtjSF1jKG5vMSlbTkhdQyg9TylbTkhdW0NIMl1bQ0gyXU9bQ0BASF0yW0NIMl1bQ0gyXVtDSDJdW0NIMl1bQ0BIXTJbQ0gzXQ==

> <s_epik_cmdline>
J2VwaWtfcHl0aG9uJywgJy1waCcsICc3LjAnLCAnLXRuJywgJzgnLCAnLW1hJywgJzIwMCcsICctbWV0YWxfYmluZGluZycsICctaW1hZScsICc8aW5maWxlLm1hZT4nLCAnLW9tYWUnLCAnPG91dGZpbGUubWFlPic=

> <r_lp_tautomer_probability>
1

> <r_epik_Ionization_Penalty>
6.47137

> <r_epik_Ionization_Penalty_Charging>
6.47125

> <r_epik_Ionization_Penalty_Neutral>
0.000118933

> <r_epik_State_Penalty>
6.47124

> <r_epik_Charging_Adjusted_Penalty>
12.9425

> <i_epik_Tot_Q>
-1

> <i_epik_Tot_abs_Q>
1

> <r_epik_Metal_State_Penalty>
2.3995

> <b_epik_Metal_Only>
1

> <s_lp_Force_Field>
OPLS_2005

> <r_lp_Energy>
3.93088

> <b_lp_Chiralities_Consistent>
1

> <s_lp_Variant>
AV-unprocessed.smi:2104-6

> <Gold.Version>
5.8.1

> <Gold.Id.Protein>
6NUR|6NUR_protein|mol2

> <Gold.PLP.Fitness>
42.9779

> <Gold.PLP.PLP>
-37.8202

> <Gold.PLP.part.hbond>
-3.2453

> <Gold.PLP.part.metal>
0.0000

> <Gold.PLP.part.buried>
-3.4901

> <Gold.PLP.part.nonpolar>
-31.1359

> <Gold.PLP.part.repulsive>
0.0796

> <Gold.PLP.ligand.clash>
0.0000

> <Gold.PLP.ligand.torsion>
1.7012

> <Gold.PLP.Chemscore.Hbond>
2.7920

> <Gold.PLP.Chemscore.CHOScore>
0.0000

> <Gold.PLP.Chemscore.Metal>
0.0000

> <Gold.Chemscore.Hbonds>
donor molecule, donor type, donor heavy atom, donor atom, acceptor molecule, acceptor atom, score
      P1  H  6896  6909       L1     7  1.00
      P1  H  6931  6943       L1    19  0.78
      P1  H  6934  6947       L1    19  0.88

> <Gold.PLP.Chemscore.Internal.Correction>
0.1841

> <Gold.Rescore>
     Score         DG    S(hbond)    S(metal)    S(lipo)     H(rot)  DE(clash)    DE(int)     intcor
     18.51     -21.23       2.55        0.00      99.27       1.71       0.03       2.68       ----

> <Gold.Chemscore.Fitness>
18.5096

> <Gold.Chemscore.DG>
-21.2273

> <Gold.Chemscore.ZeroCoef>
-5.4800

> <Gold.Chemscore.Hbond>
2.5481

> <Gold.Chemscore.Metal>
0.0000

> <Gold.Chemscore.Lipo>
99.2734

> <Gold.Chemscore.Internal_Hbond>
0.0000

> <Gold.Chemscore.DEClash>
0.0329

> <Gold.Chemscore.DEInternal>
2.6848

> <Gold.Chemscore.Rot>
1.7103

> <Gold.Chemscore.Internal.Correction>
   9.000000E+99

> <Gold.Chemscore.Hbonds>
donor molecule, donor type, donor heavy atom, donor atom, acceptor molecule, acceptor atom, score
      P1  H  6896  6909       L1     7  0.98
      P1  H  6931  6943       L1    19  0.17
      P1  H  6934  6947       L1    19  0.84

> <Gold.Chemscore.Hbond.Weighted>
-8.5107

> <Gold.Chemscore.Metal.Weighted>
-0.0000

> <Gold.Chemscore.Lipo.Weighted>
-11.6150

> <Gold.Chemscore.Internal_Hbond.Weighted>
0.0000

> <Gold.Chemscore.DEClash.Weighted>
0.0329

> <Gold.Chemscore.DEInternal.Weighted>
2.6848

> <Gold.Chemscore.Rot.Weighted>
4.3784

> <Gold.Chemscore.Internal.Correction.Weighted>
   9.000000E+99

> <Gold.Protein.RotatedTorsions>
[ 6907 6896 6895 6894 ] final   98.15 input  -60.11 | X-H torsion
[ 7974 7965 7964 7962 ] final  175.60 input  175.53 | X-H torsion
[ 8008 7997 7996 7995 ] final  -22.20 input   59.86 | X-H torsion
[ 10167 10162 10161 10158 ] final  149.81 input  -65.29 | X-H torsion
[ 10718 10713 10712 10709 ] final  135.27 input   66.30 | X-H torsion
[ 10763 10752 10751 10750 ] final   47.06 input  -60.55 | X-H torsion
[ 11005 11000 10999 10996 ] final   35.32 input  -57.11 | X-H torsion

> <Gold.Protein.ActiveResidues>
 VAL166  LYS551  ARG553  GLY616  TRP617  ASP618  TYR619  PRO620  LYS621  CYS622 
 ASP623  PHE694  ASN695  SER759  ASP760  ASP761  ALA762  ILE779  LEU786  VAL792 
 PHE793  MET794  SER795  GLU796  ALA797  LYS798  CYS799  TRP800  GLU811  SER814 

> <Gold.Protein.RotatedAtoms>
  152.5413  134.0624  159.8157 H   0  0  0  0  0  0  0  0  0  0  0  0  # atno 6907 bound_to 6896
  151.0750  133.5428  159.2631 H   0  0  0  0  0  0  0  0  0  0  0  0  # atno 6908 bound_to 6896
  151.2276  135.0551  159.9029 H   0  0  0  0  0  0  0  0  0  0  0  0  # atno 6909 bound_to 6896
  144.7199  139.9971  143.6440 H   0  0  0  0  0  0  0  0  0  0  0  0  # atno 7974 bound_to 7965
  154.4658  140.2014  156.0121 H   0  0  0  0  0  0  0  0  0  0  0  0  # atno 8008 bound_to 7997
  156.0924  140.3256  155.7805 H   0  0  0  0  0  0  0  0  0  0  0  0  # atno 8009 bound_to 7997
  155.4933  140.0548  157.2941 H   0  0  0  0  0  0  0  0  0  0  0  0  # atno 8010 bound_to 7997
  139.4857  144.5572  151.7295 H   0  0  0  0  0  0  0  0  0  0  0  0  # atno 10167 bound_to 10162
  157.4588  131.1072  150.9945 H   0  0  0  0  0  0  0  0  0  0  0  0  # atno 10718 bound_to 10713
  152.9804  135.5988  154.3701 H   0  0  0  0  0  0  0  0  0  0  0  0  # atno 10763 bound_to 10752
  154.3375  135.2768  155.2442 H   0  0  0  0  0  0  0  0  0  0  0  0  # atno 10764 bound_to 10752
  154.4538  135.5983  153.6265 H   0  0  0  0  0  0  0  0  0  0  0  0  # atno 10765 bound_to 10752
  140.2438  134.3383  155.7915 H   0  0  0  0  0  0  0  0  0  0  0  0  # atno 11005 bound_to 11000
  146.0365  139.3382  143.0723 LP  0  0  0  0  0  0  0  0  0  0  0  0  # atno 17320 bound_to 7965
  145.8388  140.9592  143.0810 LP  0  0  0  0  0  0  0  0  0  0  0  0  # atno 17321 bound_to 7965
  140.5136  144.0987  150.6002 LP  0  0  0  0  0  0  0  0  0  0  0  0  # atno 17342 bound_to 10162
  140.3921  143.2747  152.0048 LP  0  0  0  0  0  0  0  0  0  0  0  0  # atno 17343 bound_to 10162
  157.0749  130.5879  149.5409 LP  0  0  0  0  0  0  0  0  0  0  0  0  # atno 17370 bound_to 10713
  156.0019  130.5100  150.7694 LP  0  0  0  0  0  0  0  0  0  0  0  0  # atno 17371 bound_to 10713
  141.2208  133.7314  156.8928 LP  0  0  0  0  0  0  0  0  0  0  0  0  # atno 17394 bound_to 11000
  140.1626  134.9155  157.2734 LP  0  0  0  0  0  0  0  0  0  0  0  0  # atno 17395 bound_to 11000

$$$$
