AV-unprocessed.smi:1570|AV-procd|sdf|6312|dock10
  -GOLD-   22720 6513D 1   1.00000     0.00000
 Structure written by MMmdl.
 51 53  0  0  0  0  0  0  0  0  1 V2000
  150.6650  141.2147  156.0397 C   0  0  0  0  0  0  0  0  0  0  0  0
  151.1721  142.5023  156.7011 C   0  0  0  0  0  0  0  0  0  0  0  0
  151.8094  142.2218  157.9853 N   0  0  0  0  0  0  0  0  0  0  0  0
  152.4657  141.0882  158.3278 C   0  0  0  0  0  0  0  0  0  0  0  0
  152.6380  140.1072  157.6044 O   0  0  0  0  0  0  0  0  0  0  0  0
  152.8763  141.2108  159.6124 N   0  0  0  0  0  0  0  0  0  0  0  0
  153.5850  140.2058  160.4050 C   0  0  0  0  0  0  0  0  0  0  0  0
  154.6496  140.8392  161.3230 C   0  0  2  0  0  0  0  0  0  0  0  0
  155.8843  140.8057  160.6389 O   0  0  0  0  0  0  0  0  0  0  0  0
  154.8201  140.0926  162.6647 C   0  0  0  0  0  0  0  0  0  0  0  0
  155.5772  140.8110  163.6898 N   0  0  0  0  0  0  0  0  0  0  0  0
  154.8832  142.0106  164.1565 C   0  0  0  0  0  0  0  0  0  0  0  0
  155.6714  142.7432  165.2587 C   0  0  1  0  0  0  0  0  0  0  0  0
  154.9074  143.9528  165.8071 C   0  0  0  0  0  0  0  0  0  0  0  0
  155.9168  141.8423  166.3349 O   0  0  0  0  0  0  0  0  0  0  0  0
  156.6335  140.6763  165.9392 C   0  0  1  0  0  0  0  0  0  0  0  0
  156.8459  139.7987  167.1772 C   0  0  0  0  0  0  0  0  0  0  0  0
  155.8383  139.9496  164.8378 C   0  0  0  0  0  0  0  0  0  0  0  0
  152.4625  142.4557  160.1080 C   0  0  0  0  0  0  0  0  0  0  0  0
  152.6299  143.0496  161.3711 C   0  0  0  0  0  0  0  0  0  0  0  0
  152.0722  144.3358  161.5601 C   0  0  0  0  0  0  0  0  0  0  0  0
  151.3751  144.9869  160.5095 C   0  0  0  0  0  0  0  0  0  0  0  0
  151.2216  144.3664  159.2475 C   0  0  0  0  0  0  0  0  0  0  0  0
  151.7879  143.0899  159.0861 C   0  0  0  0  0  0  0  0  0  0  0  0
  150.1933  141.4319  155.0812 H   0  0  0  0  0  0  0  0  0  0  0  0
  149.9279  140.7126  156.6670 H   0  0  0  0  0  0  0  0  0  0  0  0
  151.4818  140.5160  155.8563 H   0  0  0  0  0  0  0  0  0  0  0  0
  151.8799  143.0043  156.0398 H   0  0  0  0  0  0  0  0  0  0  0  0
  150.3465  143.1996  156.8437 H   0  0  0  0  0  0  0  0  0  0  0  0
  152.8808  139.6145  160.9926 H   0  0  0  0  0  0  0  0  0  0  0  0
  154.0580  139.5071  159.7135 H   0  0  0  0  0  0  0  0  0  0  0  0
  154.3927  141.8852  161.4800 H   0  0  0  0  0  0  0  0  0  0  0  0
  155.9069  140.0246  160.1065 H   0  0  0  0  0  0  0  0  0  0  0  0
  153.8419  139.8456  163.0764 H   0  0  0  0  0  0  0  0  0  0  0  0
  155.2964  139.1323  162.4597 H   0  0  0  0  0  0  0  0  0  0  0  0
  154.7180  142.7033  163.3330 H   0  0  0  0  0  0  0  0  0  0  0  0
  153.8966  141.7401  164.5368 H   0  0  0  0  0  0  0  0  0  0  0  0
  156.6277  143.0844  164.8588 H   0  0  0  0  0  0  0  0  0  0  0  0
  154.7114  144.6820  165.0207 H   0  0  0  0  0  0  0  0  0  0  0  0
  155.4795  144.4528  166.5890 H   0  0  0  0  0  0  0  0  0  0  0  0
  153.9495  143.6540  166.2335 H   0  0  0  0  0  0  0  0  0  0  0  0
  157.6083  140.9750  165.5499 H   0  0  0  0  0  0  0  0  0  0  0  0
  157.4063  138.8976  166.9274 H   0  0  0  0  0  0  0  0  0  0  0  0
  155.8943  139.4920  167.6118 H   0  0  0  0  0  0  0  0  0  0  0  0
  157.4048  140.3358  167.9439 H   0  0  0  0  0  0  0  0  0  0  0  0
  154.8940  139.5893  165.2497 H   0  0  0  0  0  0  0  0  0  0  0  0
  156.3936  139.0674  164.5167 H   0  0  0  0  0  0  0  0  0  0  0  0
  153.1596  142.5475  162.1672 H   0  0  0  0  0  0  0  0  0  0  0  0
  152.1774  144.8273  162.5159 H   0  0  0  0  0  0  0  0  0  0  0  0
  150.9560  145.9683  160.6756 H   0  0  0  0  0  0  0  0  0  0  0  0
  150.6894  144.8564  158.4458 H   0  0  0  0  0  0  0  0  0  0  0  0
  1  2  1  0  0  0  0
  1 25  1  0  0  0  0
  1 26  1  0  0  0  0
  1 27  1  0  0  0  0
  2  3  1  0  0  0  0
  2 28  1  0  0  0  0
  2 29  1  0  0  0  0
  3 24  1  0  0  0  0
  3  4  1  0  0  0  0
  4  5  2  0  0  0  0
  4  6  1  0  0  0  0
  6  7  1  0  0  0  0
  6 19  1  0  0  0  0
  7  8  1  0  0  0  0
  7 30  1  0  0  0  0
  7 31  1  0  0  0  0
  8  9  1  0  0  0  0
  8 10  1  0  0  0  0
  8 32  1  0  0  0  0
  9 33  1  0  0  0  0
 10 11  1  0  0  0  0
 10 34  1  0  0  0  0
 10 35  1  0  0  0  0
 11 18  1  0  0  0  0
 11 12  1  0  0  0  0
 12 13  1  0  0  0  0
 12 36  1  0  0  0  0
 12 37  1  0  0  0  0
 13 14  1  0  0  0  0
 13 15  1  0  0  0  0
 13 38  1  0  0  0  0
 14 39  1  0  0  0  0
 14 40  1  0  0  0  0
 14 41  1  0  0  0  0
 15 16  1  0  0  0  0
 16 17  1  0  0  0  0
 16 18  1  0  0  0  0
 16 42  1  0  0  0  0
 17 43  1  0  0  0  0
 17 44  1  0  0  0  0
 17 45  1  0  0  0  0
 18 46  1  0  0  0  0
 18 47  1  0  0  0  0
 19 24  2  0  0  0  0
 19 20  1  0  0  0  0
 20 21  2  0  0  0  0
 20 48  1  0  0  0  0
 21 22  1  0  0  0  0
 21 49  1  0  0  0  0
 22 23  2  0  0  0  0
 22 50  1  0  0  0  0
 23 24  1  0  0  0  0
 23 51  1  0  0  0  0
M  END
> <s_m_source_file>
AV-unprocessed.smi

> <i_m_source_file_index>
1570

> <i_lp_mmshare_version>
43012

> <i_f3d_flags>
0

> <s_epik_input>
W2NIXTFbY0hdW2NIXVtjSF1jKGMxMiluKFtDSDJdW0NIM10pYyg9TyluMltDSDJdW0NASF0oW09IXSlbQ0gyXU4zW0NIMl1bQ0BASF0oW0NIM10pT1tDQEBIXShbQ0gzXSlbQ0gyXTM=

> <s_epik_cmdline>
J2VwaWtfcHl0aG9uJywgJy1waCcsICc3LjAnLCAnLXRuJywgJzgnLCAnLW1hJywgJzIwMCcsICctbWV0YWxfYmluZGluZycsICctaW1hZScsICc8aW5maWxlLm1hZT4nLCAnLW9tYWUnLCAnPG91dGZpbGUubWFlPic=

> <r_epik_Ionization_Penalty>
0.214359

> <r_epik_Ionization_Penalty_Charging>
2.30976e-09

> <r_epik_Ionization_Penalty_Neutral>
0.214359

> <r_epik_State_Penalty>
0.204533

> <r_epik_Charging_Adjusted_Penalty>
0.204533

> <i_epik_Tot_Q>
0

> <i_epik_Tot_abs_Q>
0

> <r_epik_Metal_State_Penalty>
0.204533

> <b_epik_Metal_Only>
0

> <s_lp_Force_Field>
OPLS_2005

> <r_lp_Energy>
58.4553

> <b_lp_Chiralities_Consistent>
1

> <s_lp_Variant>
AV-unprocessed.smi:1570-1

> <Gold.Version>
5.8.1

> <Gold.Id.Protein>
6NUR|6NUR_protein|mol2

> <Gold.PLP.Fitness>
52.6631

> <Gold.PLP.PLP>
-52.2473

> <Gold.PLP.part.hbond>
-3.0000

> <Gold.PLP.part.metal>
0.0000

> <Gold.PLP.part.buried>
-3.2287

> <Gold.PLP.part.nonpolar>
-44.4891

> <Gold.PLP.part.repulsive>
0.0000

> <Gold.PLP.ligand.clash>
0.1791

> <Gold.PLP.ligand.torsion>
1.2330

> <Gold.PLP.Chemscore.Hbond>
1.0000

> <Gold.PLP.Chemscore.CHOScore>
0.0000

> <Gold.PLP.Chemscore.Metal>
0.0000

> <Gold.Chemscore.Hbonds>
donor molecule, donor type, donor heavy atom, donor atom, acceptor molecule, acceptor atom, score
      P1  H  7997  8008       L1     5  1.00

> <Gold.PLP.Chemscore.Internal.Correction>
0.0609

> <Gold.Rescore>
     Score         DG    S(hbond)    S(metal)    S(lipo)     H(rot)  DE(clash)    DE(int)     intcor
     16.08     -19.97       0.80        0.00     146.00       2.06       0.45       3.43       ----

> <Gold.Chemscore.Fitness>
16.0826

> <Gold.Chemscore.DG>
-19.9661

> <Gold.Chemscore.ZeroCoef>
-5.4800

> <Gold.Chemscore.Hbond>
0.7995

> <Gold.Chemscore.Metal>
0.0000

> <Gold.Chemscore.Lipo>
146.0044

> <Gold.Chemscore.Internal_Hbond>
0.0000

> <Gold.Chemscore.DEClash>
0.4534

> <Gold.Chemscore.DEInternal>
3.4301

> <Gold.Chemscore.Rot>
2.0574

> <Gold.Chemscore.Internal.Correction>
   9.000000E+99

> <Gold.Chemscore.Hbonds>
donor molecule, donor type, donor heavy atom, donor atom, acceptor molecule, acceptor atom, score
      P1  H  7997  8008       L1     5  0.78

> <Gold.Chemscore.Hbond.Weighted>
-2.6705

> <Gold.Chemscore.Metal.Weighted>
-0.0000

> <Gold.Chemscore.Lipo.Weighted>
-17.0825

> <Gold.Chemscore.Internal_Hbond.Weighted>
0.0000

> <Gold.Chemscore.DEClash.Weighted>
0.4534

> <Gold.Chemscore.DEInternal.Weighted>
3.4301

> <Gold.Chemscore.Rot.Weighted>
5.2669

> <Gold.Chemscore.Internal.Correction.Weighted>
   9.000000E+99

> <Gold.Protein.RotatedTorsions>
[ 6907 6896 6895 6894 ] final  139.30 input  -60.11 | X-H torsion
[ 7974 7965 7964 7962 ] final -152.05 input  175.53 | X-H torsion
[ 8008 7997 7996 7995 ] final  -70.99 input   59.86 | X-H torsion
[ 10167 10162 10161 10158 ] final  169.82 input  -65.29 | X-H torsion
[ 10718 10713 10712 10709 ] final   22.88 input   66.30 | X-H torsion
[ 10763 10752 10751 10750 ] final -118.18 input  -60.55 | X-H torsion
[ 11005 11000 10999 10996 ] final   62.79 input  -57.11 | X-H torsion

> <Gold.Protein.ActiveResidues>
 VAL166  LYS551  ARG553  GLY616  TRP617  ASP618  TYR619  PRO620  LYS621  CYS622 
 ASP623  PHE694  ASN695  SER759  ASP760  ASP761  ALA762  ILE779  LEU786  VAL792 
 PHE793  MET794  SER795  GLU796  ALA797  LYS798  CYS799  TRP800  GLU811  SER814 

> <Gold.Protein.RotatedAtoms>
  152.2566  133.5260  159.5356 H   0  0  0  0  0  0  0  0  0  0  0  0  # atno 6907 bound_to 6896
  150.7111  134.0888  159.3933 H   0  0  0  0  0  0  0  0  0  0  0  0  # atno 6908 bound_to 6896
  151.8806  135.0455  160.0539 H   0  0  0  0  0  0  0  0  0  0  0  0  # atno 6909 bound_to 6896
  144.7816  140.4715  143.5835 H   0  0  0  0  0  0  0  0  0  0  0  0  # atno 7974 bound_to 7965
  154.5053  140.0824  156.7882 H   0  0  0  0  0  0  0  0  0  0  0  0  # atno 8008 bound_to 7997
  155.3907  140.3432  155.4233 H   0  0  0  0  0  0  0  0  0  0  0  0  # atno 8009 bound_to 7997
  156.1508  140.1558  156.8760 H   0  0  0  0  0  0  0  0  0  0  0  0  # atno 8010 bound_to 7997
  139.5002  144.3664  151.9771 H   0  0  0  0  0  0  0  0  0  0  0  0  # atno 10167 bound_to 10162
  157.1584  130.6706  149.6035 H   0  0  0  0  0  0  0  0  0  0  0  0  # atno 10718 bound_to 10713
  154.8579  135.4283  154.2098 H   0  0  0  0  0  0  0  0  0  0  0  0  # atno 10763 bound_to 10752
  153.3126  135.6977  153.7107 H   0  0  0  0  0  0  0  0  0  0  0  0  # atno 10764 bound_to 10752
  153.6194  135.3505  155.2979 H   0  0  0  0  0  0  0  0  0  0  0  0  # atno 10765 bound_to 10752
  140.0068  134.6357  155.9842 H   0  0  0  0  0  0  0  0  0  0  0  0  # atno 11005 bound_to 11000
  145.6036  139.1506  143.3115 LP  0  0  0  0  0  0  0  0  0  0  0  0  # atno 17320 bound_to 7965
  146.2026  140.6156  142.9095 LP  0  0  0  0  0  0  0  0  0  0  0  0  # atno 17321 bound_to 7965
  140.3100  144.3549  150.6036 LP  0  0  0  0  0  0  0  0  0  0  0  0  # atno 17342 bound_to 10162
  140.5806  143.2173  151.7435 LP  0  0  0  0  0  0  0  0  0  0  0  0  # atno 17343 bound_to 10162
  155.9758  130.4720  150.6484 LP  0  0  0  0  0  0  0  0  0  0  0  0  # atno 17370 bound_to 10713
  157.4155  131.0829  151.1180 LP  0  0  0  0  0  0  0  0  0  0  0  0  # atno 17371 bound_to 10713
  141.1683  133.6537  156.4557 LP  0  0  0  0  0  0  0  0  0  0  0  0  # atno 17394 bound_to 11000
  140.4626  134.6827  157.5092 LP  0  0  0  0  0  0  0  0  0  0  0  0  # atno 17395 bound_to 11000

$$$$
