AV-unprocessed.smi:2632|AV-procd|sdf|10250|dock4
  -GOLD-   2272014263D 1   1.00000     0.00000
 Structure written by MMmdl.
 38 39  0  0  0  0  0  0  0  0  1 V2000
  151.1066  133.0032  157.1139 C   0  0  0  0  0  0  0  0  0  0  0  0
  151.3717  134.0119  158.0719 O   0  0  0  0  0  0  0  0  0  0  0  0
  150.4408  135.0802  158.0108 C   0  0  0  0  0  0  0  0  0  0  0  0
  151.0570  136.3348  158.6522 C   0  0  0  0  0  0  0  0  0  0  0  0
  151.4684  137.3236  157.6755 N   0  0  0  0  0  0  0  0  0  0  0  0
  151.0086  138.6432  157.6652 C   0  0  0  0  0  0  0  0  0  0  0  0
  150.1229  139.0572  158.6458 N   0  0  0  0  0  0  0  0  0  0  0  0
  151.4037  139.5134  156.6997 C   0  0  0  0  0  0  0  0  0  0  0  0
  150.8719  141.2028  156.5573 S   0  0  0  0  0  0  0  0  0  0  0  0
  151.5183  141.8840  158.0496 C   0  0  0  0  0  0  0  0  0  0  0  0
  152.3184  141.0915  158.8963 C   0  0  0  0  0  0  0  0  0  0  0  0
  152.8262  141.6341  160.0926 C   0  0  0  0  0  0  0  0  0  0  0  0
  152.5373  142.9694  160.4434 C   0  0  0  0  0  0  0  0  0  0  0  0
  153.0839  143.5480  161.7324 C   0  0  0  0  0  0  0  0  0  0  0  0
  151.7355  143.7594  159.5928 C   0  0  0  0  0  0  0  0  0  0  0  0
  151.2273  143.2179  158.3959 C   0  0  0  0  0  0  0  0  0  0  0  0
  152.3253  139.1295  155.6282 C   0  0  0  0  0  0  0  0  0  0  0  0
  152.7438  139.8517  154.7235 O   0  0  0  0  0  0  0  0  0  0  0  0
  152.7327  137.7973  155.6895 N   0  0  0  0  0  0  0  0  0  0  0  0
  152.3429  136.8708  156.6553 C   0  0  0  0  0  0  0  0  0  0  0  0
  152.7608  135.7145  156.5852 O   0  0  0  0  0  0  0  0  0  0  0  0
  153.3612  137.4743  154.9683 H   0  0  0  0  0  0  0  0  0  0  0  0
  151.8455  132.2075  157.2072 H   0  0  0  0  0  0  0  0  0  0  0  0
  151.1622  133.3991  156.0990 H   0  0  0  0  0  0  0  0  0  0  0  0
  150.1196  132.5644  157.2660 H   0  0  0  0  0  0  0  0  0  0  0  0
  150.1928  135.2875  156.9689 H   0  0  0  0  0  0  0  0  0  0  0  0
  149.5129  134.8068  158.5153 H   0  0  0  0  0  0  0  0  0  0  0  0
  150.3603  136.8182  159.3360 H   0  0  0  0  0  0  0  0  0  0  0  0
  151.9299  136.0907  159.2603 H   0  0  0  0  0  0  0  0  0  0  0  0
  149.8015  138.4286  159.3678 H   0  0  0  0  0  0  0  0  0  0  0  0
  149.8713  140.0292  158.7553 H   0  0  0  0  0  0  0  0  0  0  0  0
  152.5412  140.0676  158.6343 H   0  0  0  0  0  0  0  0  0  0  0  0
  153.4372  141.0224  160.7400 H   0  0  0  0  0  0  0  0  0  0  0  0
  153.0810  144.6380  161.7073 H   0  0  0  0  0  0  0  0  0  0  0  0
  154.1098  143.2171  161.8969 H   0  0  0  0  0  0  0  0  0  0  0  0
  152.4776  143.2226  162.5779 H   0  0  0  0  0  0  0  0  0  0  0  0
  151.5065  144.7820  159.8550 H   0  0  0  0  0  0  0  0  0  0  0  0
  150.6111  143.8252  157.7490 H   0  0  0  0  0  0  0  0  0  0  0  0
  1  2  1  0  0  0  0
  1 23  1  0  0  0  0
  1 24  1  0  0  0  0
  1 25  1  0  0  0  0
  2  3  1  0  0  0  0
  3  4  1  0  0  0  0
  3 26  1  0  0  0  0
  3 27  1  0  0  0  0
  4  5  1  0  0  0  0
  4 28  1  0  0  0  0
  4 29  1  0  0  0  0
  5 20  1  0  0  0  0
  5  6  1  0  0  0  0
  6  7  1  0  0  0  0
  6  8  2  0  0  0  0
  7 30  1  0  0  0  0
  7 31  1  0  0  0  0
  8  9  1  0  0  0  0
  8 17  1  0  0  0  0
  9 10  1  0  0  0  0
 10 16  1  0  0  0  0
 10 11  2  0  0  0  0
 11 12  1  0  0  0  0
 11 32  1  0  0  0  0
 12 13  2  0  0  0  0
 12 33  1  0  0  0  0
 13 14  1  0  0  0  0
 13 15  1  0  0  0  0
 14 34  1  0  0  0  0
 14 35  1  0  0  0  0
 14 36  1  0  0  0  0
 15 16  2  0  0  0  0
 15 37  1  0  0  0  0
 16 38  1  0  0  0  0
 17 18  2  0  0  0  0
 17 19  1  0  0  0  0
 19 22  1  0  0  0  0
 19 20  1  0  0  0  0
 20 21  2  0  0  0  0
M  END
> <s_m_source_file>
AV-unprocessed.smi

> <i_m_source_file_index>
2632

> <i_lp_mmshare_version>
43012

> <i_f3d_flags>
0

> <s_epik_input>
W0NIM11PW0NIMl1bQ0gyXW4xYyhbTkgyXSljKGMoPU8pW25IXWMxPU8pU2MyW2NIXVtjSF1jKFtDSDNdKVtjSF1bY0hdMg==

> <s_epik_cmdline>
J2VwaWtfcHl0aG9uJywgJy1waCcsICc3LjAnLCAnLXRuJywgJzgnLCAnLW1hJywgJzIwMCcsICctbWV0YWxfYmluZGluZycsICctaW1hZScsICc8aW5maWxlLm1hZT4nLCAnLW9tYWUnLCAnPG91dGZpbGUubWFlPic=

> <r_lp_tautomer_probability>
1

> <r_epik_Ionization_Penalty>
1.3786e-05

> <r_epik_Ionization_Penalty_Charging>
1.17844e-05

> <r_epik_Ionization_Penalty_Neutral>
2.00164e-06

> <r_epik_State_Penalty>
-0

> <r_epik_Charging_Adjusted_Penalty>
1.17844e-05

> <i_epik_Tot_Q>
0

> <i_epik_Tot_abs_Q>
0

> <r_epik_Metal_State_Penalty>
0.0115847

> <b_epik_Metal_Only>
0

> <s_epik_Chemistry_Notes>
This compound has an imine and may undergo hydrolysis.

> <s_lp_Force_Field>
OPLS_2005

> <r_lp_Energy>
18.7052

> <b_lp_Chiralities_Consistent>
1

> <s_lp_Variant>
AV-unprocessed.smi:2632-1

> <Gold.Version>
5.8.1

> <Gold.Id.Protein>
6NUR|6NUR_protein|mol2

> <Gold.PLP.Fitness>
45.3272

> <Gold.PLP.PLP>
-36.0461

> <Gold.PLP.part.hbond>
-4.0000

> <Gold.PLP.part.metal>
0.0000

> <Gold.PLP.part.buried>
-4.4281

> <Gold.PLP.part.nonpolar>
-27.8390

> <Gold.PLP.part.repulsive>
0.3841

> <Gold.PLP.ligand.clash>
0.0000

> <Gold.PLP.ligand.torsion>
0.4834

> <Gold.PLP.Chemscore.Hbond>
3.4080

> <Gold.PLP.Chemscore.CHOScore>
0.0000

> <Gold.PLP.Chemscore.Metal>
0.0000

> <Gold.Chemscore.Hbonds>
donor molecule, donor type, donor heavy atom, donor atom, acceptor molecule, acceptor atom, score
      P1  H  7989  7998       L1    18  0.45
      P1  H  7997  8010       L1    18  0.34
      P1  H 10752 10765       L1    21  1.00

> <Gold.PLP.Chemscore.Internal.Correction>
0.0240

> <Gold.Rescore>
     Score         DG    S(hbond)    S(metal)    S(lipo)     H(rot)  DE(clash)    DE(int)     intcor
     17.34     -19.44       2.62        0.00      88.67       2.02       0.02       2.08       ----

> <Gold.Chemscore.Fitness>
17.3389

> <Gold.Chemscore.DG>
-19.4383

> <Gold.Chemscore.ZeroCoef>
-5.4800

> <Gold.Chemscore.Hbond>
2.6199

> <Gold.Chemscore.Metal>
0.0000

> <Gold.Chemscore.Lipo>
88.6669

> <Gold.Chemscore.Internal_Hbond>
0.0000

> <Gold.Chemscore.DEClash>
0.0174

> <Gold.Chemscore.DEInternal>
2.0819

> <Gold.Chemscore.Rot>
2.0180

> <Gold.Chemscore.Internal.Correction>
   9.000000E+99

> <Gold.Chemscore.Hbonds>
donor molecule, donor type, donor heavy atom, donor atom, acceptor molecule, acceptor atom, score
      P1  H  7989  7998       L1    18  0.44
      P1  H  7997  8010       L1    18  0.01
      P1  H 10752 10765       L1    21  0.61

> <Gold.Chemscore.Hbond.Weighted>
-8.7504

> <Gold.Chemscore.Metal.Weighted>
-0.0000

> <Gold.Chemscore.Lipo.Weighted>
-10.3740

> <Gold.Chemscore.Internal_Hbond.Weighted>
0.0000

> <Gold.Chemscore.DEClash.Weighted>
0.0174

> <Gold.Chemscore.DEInternal.Weighted>
2.0819

> <Gold.Chemscore.Rot.Weighted>
5.1661

> <Gold.Chemscore.Internal.Correction.Weighted>
   9.000000E+99

> <Gold.Protein.RotatedTorsions>
[ 6907 6896 6895 6894 ] final   13.87 input  -60.11 | X-H torsion
[ 7974 7965 7964 7962 ] final   -1.12 input  175.53 | X-H torsion
[ 8008 7997 7996 7995 ] final  104.53 input   59.86 | X-H torsion
[ 10167 10162 10161 10158 ] final  139.24 input  -65.29 | X-H torsion
[ 10718 10713 10712 10709 ] final  171.08 input   66.30 | X-H torsion
[ 10763 10752 10751 10750 ] final -148.22 input  -60.55 | X-H torsion
[ 11005 11000 10999 10996 ] final  -98.48 input  -57.11 | X-H torsion

> <Gold.Protein.ActiveResidues>
 VAL166  LYS551  ARG553  GLY616  TRP617  ASP618  TYR619  PRO620  LYS621  CYS622 
 ASP623  PHE694  ASN695  SER759  ASP760  ASP761  ALA762  ILE779  LEU786  VAL792 
 PHE793  MET794  SER795  GLU796  ALA797  LYS798  CYS799  TRP800  GLU811  SER814 

> <Gold.Protein.RotatedAtoms>
  151.7931  135.0730  160.0389 H   0  0  0  0  0  0  0  0  0  0  0  0  # atno 6907 bound_to 6896
  152.3142  133.5780  159.5709 H   0  0  0  0  0  0  0  0  0  0  0  0  # atno 6908 bound_to 6896
  150.7335  134.0023  159.3684 H   0  0  0  0  0  0  0  0  0  0  0  0  # atno 6909 bound_to 6896
  146.2420  140.1372  142.8336 H   0  0  0  0  0  0  0  0  0  0  0  0  # atno 7974 bound_to 7965
  156.1581  140.3146  155.8760 H   0  0  0  0  0  0  0  0  0  0  0  0  # atno 8008 bound_to 7997
  155.3837  140.0489  157.3060 H   0  0  0  0  0  0  0  0  0  0  0  0  # atno 8009 bound_to 7997
  154.5120  140.2168  155.9149 H   0  0  0  0  0  0  0  0  0  0  0  0  # atno 8010 bound_to 7997
  139.5085  144.6306  151.5826 H   0  0  0  0  0  0  0  0  0  0  0  0  # atno 10167 bound_to 10162
  156.9988  131.0170  151.2836 H   0  0  0  0  0  0  0  0  0  0  0  0  # atno 10718 bound_to 10713
  154.8244  135.3340  154.6941 H   0  0  0  0  0  0  0  0  0  0  0  0  # atno 10763 bound_to 10752
  153.7569  135.6935  153.4938 H   0  0  0  0  0  0  0  0  0  0  0  0  # atno 10764 bound_to 10752
  153.2137  135.4473  155.0360 H   0  0  0  0  0  0  0  0  0  0  0  0  # atno 10765 bound_to 10752
  141.1343  133.8249  157.0845 H   0  0  0  0  0  0  0  0  0  0  0  0  # atno 11005 bound_to 11000
  145.0276  140.8845  143.5129 LP  0  0  0  0  0  0  0  0  0  0  0  0  # atno 17320 bound_to 7965
  145.1431  139.2560  143.5480 LP  0  0  0  0  0  0  0  0  0  0  0  0  # atno 17321 bound_to 7965
  140.6038  143.9561  150.6404 LP  0  0  0  0  0  0  0  0  0  0  0  0  # atno 17342 bound_to 10162
  140.2782  143.3408  152.1176 LP  0  0  0  0  0  0  0  0  0  0  0  0  # atno 17343 bound_to 10162
  157.5405  130.8117  149.8023 LP  0  0  0  0  0  0  0  0  0  0  0  0  # atno 17370 bound_to 10713
  156.0179  130.3806  150.2053 LP  0  0  0  0  0  0  0  0  0  0  0  0  # atno 17371 bound_to 10713
  140.0431  134.9844  157.0998 LP  0  0  0  0  0  0  0  0  0  0  0  0  # atno 17394 bound_to 11000
  140.4105  134.1986  155.7163 LP  0  0  0  0  0  0  0  0  0  0  0  0  # atno 17395 bound_to 11000

$$$$
