AV-unprocessed.smi:1570|AV-procd|sdf|6317|dock2
  -GOLD-   22720 6523D 1   1.00000     0.00000
 Structure written by MMmdl.
 51 53  0  0  0  0  0  0  0  0  1 V2000
  154.2636  139.6351  162.3218 C   0  0  0  0  0  0  0  0  0  0  0  0
  154.4466  140.8064  161.3488 C   0  0  0  0  0  0  0  0  0  0  0  0
  153.3945  140.8206  160.3356 N   0  0  0  0  0  0  0  0  0  0  0  0
  152.9323  139.7571  159.6369 C   0  0  0  0  0  0  0  0  0  0  0  0
  153.3152  138.5929  159.7530 O   0  0  0  0  0  0  0  0  0  0  0  0
  151.9785  140.1975  158.7831 N   0  0  0  0  0  0  0  0  0  0  0  0
  151.2192  139.3858  157.8343 C   0  0  0  0  0  0  0  0  0  0  0  0
  151.6415  139.6596  156.3748 C   0  0  1  0  0  0  0  0  0  0  0  0
  151.3814  138.5307  155.5650 O   0  0  0  0  0  0  0  0  0  0  0  0
  150.9579  140.8994  155.7539 C   0  0  0  0  0  0  0  0  0  0  0  0
  149.5374  140.7665  155.4177 N   0  0  0  0  0  0  0  0  0  0  0  0
  149.0796  141.7713  154.4605 C   0  0  0  0  0  0  0  0  0  0  0  0
  147.5808  141.6349  154.1256 C   0  0  1  0  0  0  0  0  0  0  0  0
  147.2713  140.4383  153.2099 C   0  0  0  0  0  0  0  0  0  0  0  0
  146.8041  141.6009  155.3241 O   0  0  0  0  0  0  0  0  0  0  0  0
  147.2168  140.6338  156.2882 C   0  0  2  0  0  0  0  0  0  0  0  0
  146.3299  140.7860  157.5283 C   0  0  0  0  0  0  0  0  0  0  0  0
  148.7067  140.8414  156.6123 C   0  0  0  0  0  0  0  0  0  0  0  0
  151.8286  141.5832  158.9364 C   0  0  0  0  0  0  0  0  0  0  0  0
  150.9799  142.5002  158.2917 C   0  0  0  0  0  0  0  0  0  0  0  0
  151.0796  143.8567  158.6797 C   0  0  0  0  0  0  0  0  0  0  0  0
  152.0022  144.2611  159.6795 C   0  0  0  0  0  0  0  0  0  0  0  0
  152.8430  143.3170  160.3142 C   0  0  0  0  0  0  0  0  0  0  0  0
  152.7218  141.9755  159.9114 C   0  0  0  0  0  0  0  0  0  0  0  0
  155.0532  139.6282  163.0731 H   0  0  0  0  0  0  0  0  0  0  0  0
  154.2948  138.6792  161.7983 H   0  0  0  0  0  0  0  0  0  0  0  0
  153.3087  139.7010  162.8439 H   0  0  0  0  0  0  0  0  0  0  0  0
  154.4454  141.7484  161.8992 H   0  0  0  0  0  0  0  0  0  0  0  0
  155.4209  140.7415  160.8644 H   0  0  0  0  0  0  0  0  0  0  0  0
  151.3029  138.3267  158.0792 H   0  0  0  0  0  0  0  0  0  0  0  0
  150.1630  139.6316  157.9571 H   0  0  0  0  0  0  0  0  0  0  0  0
  152.7181  139.8301  156.3330 H   0  0  0  0  0  0  0  0  0  0  0  0
  150.6259  138.0822  155.9125 H   0  0  0  0  0  0  0  0  0  0  0  0
  151.0490  141.6952  156.4947 H   0  0  0  0  0  0  0  0  0  0  0  0
  151.5220  141.2488  154.8875 H   0  0  0  0  0  0  0  0  0  0  0  0
  149.2625  142.7672  154.8671 H   0  0  0  0  0  0  0  0  0  0  0  0
  149.6490  141.7073  153.5347 H   0  0  0  0  0  0  0  0  0  0  0  0
  147.2749  142.5329  153.5881 H   0  0  0  0  0  0  0  0  0  0  0  0
  147.7883  140.5380  152.2552 H   0  0  0  0  0  0  0  0  0  0  0  0
  146.2031  140.3743  153.0022 H   0  0  0  0  0  0  0  0  0  0  0  0
  147.5842  139.4921  153.6507 H   0  0  0  0  0  0  0  0  0  0  0  0
  147.0687  139.6323  155.8826 H   0  0  0  0  0  0  0  0  0  0  0  0
  146.6023  140.0613  158.2958 H   0  0  0  0  0  0  0  0  0  0  0  0
  145.2808  140.6263  157.2787 H   0  0  0  0  0  0  0  0  0  0  0  0
  146.4219  141.7828  157.9606 H   0  0  0  0  0  0  0  0  0  0  0  0
  149.0238  140.0833  157.3297 H   0  0  0  0  0  0  0  0  0  0  0  0
  148.8461  141.8082  157.0991 H   0  0  0  0  0  0  0  0  0  0  0  0
  150.2786  142.1879  157.5323 H   0  0  0  0  0  0  0  0  0  0  0  0
  150.4461  144.5937  158.2086 H   0  0  0  0  0  0  0  0  0  0  0  0
  152.0631  145.3024  159.9599 H   0  0  0  0  0  0  0  0  0  0  0  0
  153.5472  143.6191  161.0751 H   0  0  0  0  0  0  0  0  0  0  0  0
  1  2  1  0  0  0  0
  1 25  1  0  0  0  0
  1 26  1  0  0  0  0
  1 27  1  0  0  0  0
  2  3  1  0  0  0  0
  2 28  1  0  0  0  0
  2 29  1  0  0  0  0
  3 24  1  0  0  0  0
  3  4  1  0  0  0  0
  4  5  2  0  0  0  0
  4  6  1  0  0  0  0
  6  7  1  0  0  0  0
  6 19  1  0  0  0  0
  7  8  1  0  0  0  0
  7 30  1  0  0  0  0
  7 31  1  0  0  0  0
  8  9  1  0  0  0  0
  8 10  1  0  0  0  0
  8 32  1  0  0  0  0
  9 33  1  0  0  0  0
 10 11  1  0  0  0  0
 10 34  1  0  0  0  0
 10 35  1  0  0  0  0
 11 18  1  0  0  0  0
 11 12  1  0  0  0  0
 12 13  1  0  0  0  0
 12 36  1  0  0  0  0
 12 37  1  0  0  0  0
 13 14  1  0  0  0  0
 13 15  1  0  0  0  0
 13 38  1  0  0  0  0
 14 39  1  0  0  0  0
 14 40  1  0  0  0  0
 14 41  1  0  0  0  0
 15 16  1  0  0  0  0
 16 17  1  0  0  0  0
 16 18  1  0  0  0  0
 16 42  1  0  0  0  0
 17 43  1  0  0  0  0
 17 44  1  0  0  0  0
 17 45  1  0  0  0  0
 18 46  1  0  0  0  0
 18 47  1  0  0  0  0
 19 24  2  0  0  0  0
 19 20  1  0  0  0  0
 20 21  2  0  0  0  0
 20 48  1  0  0  0  0
 21 22  1  0  0  0  0
 21 49  1  0  0  0  0
 22 23  2  0  0  0  0
 22 50  1  0  0  0  0
 23 24  1  0  0  0  0
 23 51  1  0  0  0  0
M  END
> <s_m_source_file>
AV-unprocessed.smi

> <i_m_source_file_index>
1570

> <i_lp_mmshare_version>
43012

> <i_f3d_flags>
0

> <s_epik_input>
W2NIXTFbY0hdW2NIXVtjSF1jKGMxMiluKFtDSDJdW0NIM10pYyg9TyluMltDSDJdW0NASF0oW09IXSlbQ0gyXU4zW0NIMl1bQ0BASF0oW0NIM10pT1tDQEBIXShbQ0gzXSlbQ0gyXTM=

> <s_epik_cmdline>
J2VwaWtfcHl0aG9uJywgJy1waCcsICc3LjAnLCAnLXRuJywgJzgnLCAnLW1hJywgJzIwMCcsICctbWV0YWxfYmluZGluZycsICctaW1hZScsICc8aW5maWxlLm1hZT4nLCAnLW9tYWUnLCAnPG91dGZpbGUubWFlPic=

> <r_epik_Ionization_Penalty>
0.214359

> <r_epik_Ionization_Penalty_Charging>
2.30976e-09

> <r_epik_Ionization_Penalty_Neutral>
0.214359

> <r_epik_State_Penalty>
0.204533

> <r_epik_Charging_Adjusted_Penalty>
0.204533

> <i_epik_Tot_Q>
0

> <i_epik_Tot_abs_Q>
0

> <r_epik_Metal_State_Penalty>
0.204533

> <b_epik_Metal_Only>
0

> <s_lp_Force_Field>
OPLS_2005

> <r_lp_Energy>
65.1855

> <b_lp_Chiralities_Consistent>
1

> <s_lp_Variant>
AV-unprocessed.smi:1570-6

> <Gold.Version>
5.8.1

> <Gold.Id.Protein>
6NUR|6NUR_protein|mol2

> <Gold.PLP.Fitness>
44.6311

> <Gold.PLP.PLP>
-46.1622

> <Gold.PLP.part.hbond>
0.0000

> <Gold.PLP.part.metal>
0.0000

> <Gold.PLP.part.buried>
-1.7342

> <Gold.PLP.part.nonpolar>
-43.8743

> <Gold.PLP.part.repulsive>
0.1917

> <Gold.PLP.ligand.clash>
0.0000

> <Gold.PLP.ligand.torsion>
0.7935

> <Gold.PLP.Chemscore.Hbond>
0.0000

> <Gold.PLP.Chemscore.CHOScore>
0.0000

> <Gold.PLP.Chemscore.Metal>
0.0000

> <Gold.PLP.Chemscore.Internal.Correction>
0.0559

> <Gold.Rescore>
     Score         DG    S(hbond)    S(metal)    S(lipo)     H(rot)  DE(clash)    DE(int)     intcor
     14.42     -15.16       0.00        0.00     127.74       2.06       0.05       0.68       ----

> <Gold.Chemscore.Fitness>
14.4246

> <Gold.Chemscore.DG>
-15.1583

> <Gold.Chemscore.ZeroCoef>
-5.4800

> <Gold.Chemscore.Hbond>
0.0000

> <Gold.Chemscore.Metal>
0.0000

> <Gold.Chemscore.Lipo>
127.7363

> <Gold.Chemscore.Internal_Hbond>
0.0000

> <Gold.Chemscore.DEClash>
0.0513

> <Gold.Chemscore.DEInternal>
0.6824

> <Gold.Chemscore.Rot>
2.0574

> <Gold.Chemscore.Internal.Correction>
   9.000000E+99

> <Gold.Chemscore.Hbond.Weighted>
-0.0000

> <Gold.Chemscore.Metal.Weighted>
-0.0000

> <Gold.Chemscore.Lipo.Weighted>
-14.9452

> <Gold.Chemscore.Internal_Hbond.Weighted>
0.0000

> <Gold.Chemscore.DEClash.Weighted>
0.0513

> <Gold.Chemscore.DEInternal.Weighted>
0.6824

> <Gold.Chemscore.Rot.Weighted>
5.2669

> <Gold.Chemscore.Internal.Correction.Weighted>
   9.000000E+99

> <Gold.Protein.RotatedTorsions>
[ 6907 6896 6895 6894 ] final   -2.96 input  -60.11 | X-H torsion
[ 7974 7965 7964 7962 ] final  101.44 input  175.53 | X-H torsion
[ 8008 7997 7996 7995 ] final    0.12 input   59.86 | X-H torsion
[ 10167 10162 10161 10158 ] final   82.52 input  -65.29 | X-H torsion
[ 10718 10713 10712 10709 ] final  -94.62 input   66.30 | X-H torsion
[ 10763 10752 10751 10750 ] final  -90.46 input  -60.55 | X-H torsion
[ 11005 11000 10999 10996 ] final  -84.96 input  -57.11 | X-H torsion

> <Gold.Protein.ActiveResidues>
 VAL166  LYS551  ARG553  GLY616  TRP617  ASP618  TYR619  PRO620  LYS621  CYS622 
 ASP623  PHE694  ASN695  SER759  ASP760  ASP761  ALA762  ILE779  LEU786  VAL792 
 PHE793  MET794  SER795  GLU796  ALA797  LYS798  CYS799  TRP800  GLU811  SER814 

> <Gold.Protein.RotatedAtoms>
  151.5214  135.1067  159.9879 H   0  0  0  0  0  0  0  0  0  0  0  0  # atno 6907 bound_to 6896
  152.4619  133.7835  159.6874 H   0  0  0  0  0  0  0  0  0  0  0  0  # atno 6908 bound_to 6896
  150.8584  133.7615  159.3026 H   0  0  0  0  0  0  0  0  0  0  0  0  # atno 6909 bound_to 6896
  145.3724  139.2395  143.3448 H   0  0  0  0  0  0  0  0  0  0  0  0  # atno 7974 bound_to 7965
  154.6644  140.2598  155.7074 H   0  0  0  0  0  0  0  0  0  0  0  0  # atno 8008 bound_to 7997
  156.2632  140.2842  156.1051 H   0  0  0  0  0  0  0  0  0  0  0  0  # atno 8009 bound_to 7997
  155.1260  140.0378  157.2752 H   0  0  0  0  0  0  0  0  0  0  0  0  # atno 8010 bound_to 7997
  139.9279  144.6171  150.8374 H   0  0  0  0  0  0  0  0  0  0  0  0  # atno 10167 bound_to 10162
  156.0030  130.5075  150.5954 H   0  0  0  0  0  0  0  0  0  0  0  0  # atno 10718 bound_to 10713
  154.6660  135.5303  153.8077 H   0  0  0  0  0  0  0  0  0  0  0  0  # atno 10763 bound_to 10752
  153.0471  135.6517  154.0799 H   0  0  0  0  0  0  0  0  0  0  0  0  # atno 10764 bound_to 10752
  154.0702  135.2955  155.3289 H   0  0  0  0  0  0  0  0  0  0  0  0  # atno 10765 bound_to 10752
  141.1646  133.7374  156.8945 H   0  0  0  0  0  0  0  0  0  0  0  0  # atno 11005 bound_to 11000
  146.2879  140.4377  142.8750 LP  0  0  0  0  0  0  0  0  0  0  0  0  # atno 17320 bound_to 7965
  144.8567  140.7080  143.6133 LP  0  0  0  0  0  0  0  0  0  0  0  0  # atno 17321 bound_to 7965
  140.7645  143.3250  151.2535 LP  0  0  0  0  0  0  0  0  0  0  0  0  # atno 17342 bound_to 10162
  139.6806  143.9861  152.2806 LP  0  0  0  0  0  0  0  0  0  0  0  0  # atno 17343 bound_to 10162
  157.3811  131.0781  151.1475 LP  0  0  0  0  0  0  0  0  0  0  0  0  # atno 17370 bound_to 10713
  157.2197  130.6476  149.5806 LP  0  0  0  0  0  0  0  0  0  0  0  0  # atno 17371 bound_to 10713
  140.1625  134.9155  157.2733 LP  0  0  0  0  0  0  0  0  0  0  0  0  # atno 17394 bound_to 11000
  140.2594  134.3589  155.7412 LP  0  0  0  0  0  0  0  0  0  0  0  0  # atno 17395 bound_to 11000

$$$$
