AV-unprocessed.smi:523|AV-procd|sdf|2804|dock2
  -GOLD-   2262023283D 1   1.00000     0.00000
 Structure written by MMmdl.
 40 42  0  0  0  0  0  0  0  0  2 V2000
  149.0575  138.9793  153.5754 C   0  0  0  0  0  0  0  0  0  0  0  0
  150.3116  139.5899  153.8185 O   0  0  0  0  0  0  0  0  0  0  0  0
  150.5735  139.7665  155.2014 C   0  0  0  0  0  0  0  0  0  0  0  0
  151.9854  140.3389  155.3880 C   0  0  0  0  0  0  0  0  0  0  0  0
  152.5437  139.9995  156.6965 N   0  0  0  0  0  0  0  0  0  0  0  0
  152.7562  140.8107  157.7704 C   0  0  0  0  0  0  0  0  0  0  0  0
  152.4860  142.1799  157.7455 N   0  0  0  0  0  0  0  0  0  0  0  0
  153.0372  143.1983  158.6347 C   0  0  0  0  0  0  0  0  0  0  0  0
  153.5131  144.4230  157.8330 C   0  0  0  0  0  0  0  0  0  0  0  0
  152.4095  144.9668  157.1181 O   0  0  0  0  0  0  0  0  0  0  0  0
  151.8371  144.0159  156.2273 C   0  0  0  0  0  0  0  0  0  0  0  0
  151.3716  142.7802  157.0199 C   0  0  0  0  0  0  0  0  0  0  0  0
  153.2024  140.1831  158.8602 N   0  0  0  0  0  0  0  0  0  0  0  0
  153.3130  138.8671  158.4408 C   0  0  0  0  0  0  0  0  0  0  0  0
  152.9169  138.7285  157.1475 C   0  0  0  0  0  0  0  0  0  0  0  0
  152.8870  137.4328  156.4322 C   0  0  0  0  0  0  0  0  0  0  0  0
  152.4975  137.3573  155.2686 O   0  0  0  0  0  0  0  0  0  0  0  0
  153.3265  136.3984  157.2167 N   0  5  0  0  0  0  0  0  0  0  0  0
  153.7424  136.4952  158.5273 C   0  0  0  0  0  0  0  0  0  0  0  0
  154.1193  135.5106  159.1642 O   0  0  0  0  0  0  0  0  0  0  0  0
  153.7407  137.7139  159.1535 N   0  0  0  0  0  0  0  0  0  0  0  0
  154.1683  137.8463  160.5492 C   0  0  0  0  0  0  0  0  0  0  0  0
  148.9023  138.8789  152.5012 H   0  0  0  0  0  0  0  0  0  0  0  0
  148.2410  139.5789  153.9797 H   0  0  0  0  0  0  0  0  0  0  0  0
  149.0135  137.9830  154.0168 H   0  0  0  0  0  0  0  0  0  0  0  0
  149.8333  140.4382  155.6387 H   0  0  0  0  0  0  0  0  0  0  0  0
  150.4936  138.8104  155.7205 H   0  0  0  0  0  0  0  0  0  0  0  0
  152.6531  139.9791  154.6069 H   0  0  0  0  0  0  0  0  0  0  0  0
  151.9549  141.4144  155.2523 H   0  0  0  0  0  0  0  0  0  0  0  0
  152.2660  143.5007  159.3443 H   0  0  0  0  0  0  0  0  0  0  0  0
  153.8456  142.7868  159.2378 H   0  0  0  0  0  0  0  0  0  0  0  0
  153.9087  145.1841  158.5054 H   0  0  0  0  0  0  0  0  0  0  0  0
  154.3143  144.1563  157.1418 H   0  0  0  0  0  0  0  0  0  0  0  0
  150.9918  144.4753  155.7150 H   0  0  0  0  0  0  0  0  0  0  0  0
  152.5617  143.7371  155.4609 H   0  0  0  0  0  0  0  0  0  0  0  0
  150.9430  142.0474  156.3356 H   0  0  0  0  0  0  0  0  0  0  0  0
  150.5837  143.0522  157.7235 H   0  0  0  0  0  0  0  0  0  0  0  0
  155.1777  137.4547  160.6823 H   0  0  0  0  0  0  0  0  0  0  0  0
  153.4971  137.2911  161.2055 H   0  0  0  0  0  0  0  0  0  0  0  0
  154.1768  138.8812  160.8896 H   0  0  0  0  0  0  0  0  0  0  0  0
  1  2  1  0  0  0  0
  1 23  1  0  0  0  0
  1 24  1  0  0  0  0
  1 25  1  0  0  0  0
  2  3  1  0  0  0  0
  3  4  1  0  0  0  0
  3 26  1  0  0  0  0
  3 27  1  0  0  0  0
  4  5  1  0  0  0  0
  4 28  1  0  0  0  0
  4 29  1  0  0  0  0
  5 15  1  0  0  0  0
  5  6  1  0  0  0  0
  6  7  1  0  0  0  0
  6 13  2  0  0  0  0
  7 12  1  0  0  0  0
  7  8  1  0  0  0  0
  8  9  1  0  0  0  0
  8 30  1  0  0  0  0
  8 31  1  0  0  0  0
  9 10  1  0  0  0  0
  9 32  1  0  0  0  0
  9 33  1  0  0  0  0
 10 11  1  0  0  0  0
 11 12  1  0  0  0  0
 11 34  1  0  0  0  0
 11 35  1  0  0  0  0
 12 36  1  0  0  0  0
 12 37  1  0  0  0  0
 13 14  1  0  0  0  0
 14 21  1  0  0  0  0
 14 15  2  0  0  0  0
 15 16  1  0  0  0  0
 16 17  2  0  0  0  0
 16 18  1  0  0  0  0
 18 19  1  0  0  0  0
 19 20  2  0  0  0  0
 19 21  1  0  0  0  0
 21 22  1  0  0  0  0
 22 38  1  0  0  0  0
 22 39  1  0  0  0  0
 22 40  1  0  0  0  0
M  CHG  1  18  -1
M  END
> <s_m_source_file>
AV-unprocessed.smi

> <i_m_source_file_index>
523

> <i_lp_mmshare_version>
43012

> <i_f3d_flags>
0

> <s_epik_input>
W0NIM11uMWMoPU8pW25IXWMoPU8pYyhjMTIpbihbQ0gyXVtDSDJdT1tDSDNdKWMobjIpTjNbQ0gyXVtDSDJdT1tDSDJdW0NIMl0z

> <s_epik_cmdline>
J2VwaWtfcHl0aG9uJywgJy1waCcsICc3LjAnLCAnLXRuJywgJzgnLCAnLW1hJywgJzIwMCcsICctbWV0YWxfYmluZGluZycsICctaW1hZScsICc8aW5maWxlLm1hZT4nLCAnLW9tYWUnLCAnPG91dGZpbGUubWFlPic=

> <r_lp_tautomer_probability>
1

> <r_epik_Ionization_Penalty>
4.75788

> <r_epik_Ionization_Penalty_Charging>
0.0452179

> <r_epik_Ionization_Penalty_Neutral>
4.71266

> <r_epik_State_Penalty>
4.71244

> <r_epik_Charging_Adjusted_Penalty>
4.75766

> <i_epik_Tot_Q>
-1

> <i_epik_Tot_abs_Q>
1

> <r_epik_Metal_State_Penalty>
0.934872

> <b_epik_Metal_Only>
1

> <s_lp_Force_Field>
OPLS_2005

> <r_lp_Energy>
41.5278

> <b_lp_Chiralities_Consistent>
1

> <s_lp_Variant>
AV-unprocessed.smi:523-2

> <Gold.Version>
5.8.1

> <Gold.Id.Protein>
6NUR|6NUR_protein|mol2

> <Gold.PLP.Fitness>
44.0727

> <Gold.PLP.PLP>
-32.8565

> <Gold.PLP.part.hbond>
-4.0000

> <Gold.PLP.part.metal>
0.0000

> <Gold.PLP.part.buried>
-2.6137

> <Gold.PLP.part.nonpolar>
-26.8362

> <Gold.PLP.part.repulsive>
0.2071

> <Gold.PLP.ligand.clash>
0.0001

> <Gold.PLP.ligand.torsion>
0.6077

> <Gold.PLP.Chemscore.Hbond>
4.0042

> <Gold.PLP.Chemscore.CHOScore>
0.0000

> <Gold.PLP.Chemscore.Metal>
0.0000

> <Gold.Chemscore.Hbonds>
donor molecule, donor type, donor heavy atom, donor atom, acceptor molecule, acceptor atom, score
      P1  H  6896  6908       L1    20  0.80
      P1  H  7989  7998       L1     2  0.40
      P1  H 10752 10764       L1    17  0.19
      P1  H 10752 10765       L1    18  0.52

> <Gold.PLP.Chemscore.Internal.Correction>
0.4190

> <Gold.Rescore>
     Score         DG    S(hbond)    S(metal)    S(lipo)     H(rot)  DE(clash)    DE(int)     intcor
     12.09     -15.56       1.61        0.00      73.32       1.52       0.74       2.73       ----

> <Gold.Chemscore.Fitness>
12.0876

> <Gold.Chemscore.DG>
-15.5579

> <Gold.Chemscore.ZeroCoef>
-5.4800

> <Gold.Chemscore.Hbond>
1.6110

> <Gold.Chemscore.Metal>
0.0000

> <Gold.Chemscore.Lipo>
73.3153

> <Gold.Chemscore.Internal_Hbond>
0.0000

> <Gold.Chemscore.DEClash>
0.7392

> <Gold.Chemscore.DEInternal>
2.7311

> <Gold.Chemscore.Rot>
1.5159

> <Gold.Chemscore.Internal.Correction>
   9.000000E+99

> <Gold.Chemscore.Hbonds>
donor molecule, donor type, donor heavy atom, donor atom, acceptor molecule, acceptor atom, score
      P1  H  6896  6908       L1    20  0.68
      P1  H  7989  7998       L1     2  0.01
      P1  H 10752 10764       L1    17  0.19
      P1  H 10752 10765       L1    18  0.01

> <Gold.Chemscore.Hbond.Weighted>
-5.3806

> <Gold.Chemscore.Metal.Weighted>
-0.0000

> <Gold.Chemscore.Lipo.Weighted>
-8.5779

> <Gold.Chemscore.Internal_Hbond.Weighted>
0.0000

> <Gold.Chemscore.DEClash.Weighted>
0.7392

> <Gold.Chemscore.DEInternal.Weighted>
2.7311

> <Gold.Chemscore.Rot.Weighted>
3.8806

> <Gold.Chemscore.Internal.Correction.Weighted>
   9.000000E+99

> <Gold.Protein.RotatedTorsions>
[ 6907 6896 6895 6894 ] final  -33.58 input  -60.11 | X-H torsion
[ 7974 7965 7964 7962 ] final -143.89 input  175.53 | X-H torsion
[ 8008 7997 7996 7995 ] final  -84.28 input   59.86 | X-H torsion
[ 10167 10162 10161 10158 ] final   23.57 input  -65.29 | X-H torsion
[ 10718 10713 10712 10709 ] final  127.87 input   66.30 | X-H torsion
[ 10763 10752 10751 10750 ] final  -96.34 input  -60.55 | X-H torsion
[ 11005 11000 10999 10996 ] final  172.65 input  -57.11 | X-H torsion

> <Gold.Protein.ActiveResidues>
 VAL166  LYS551  ARG553  GLY616  TRP617  ASP618  TYR619  PRO620  LYS621  CYS622 
 ASP623  PHE694  ASN695  SER759  ASP760  ASP761  ALA762  ILE779  LEU786  VAL792 
 PHE793  MET794  SER795  GLU796  ALA797  LYS798  CYS799  TRP800  GLU811  SER814 

> <Gold.Protein.RotatedAtoms>
  151.0638  134.9754  159.8273 H   0  0  0  0  0  0  0  0  0  0  0  0  # atno 6907 bound_to 6896
  152.5399  134.2385  159.8862 H   0  0  0  0  0  0  0  0  0  0  0  0  # atno 6908 bound_to 6896
  151.2406  133.4358  159.2641 H   0  0  0  0  0  0  0  0  0  0  0  0  # atno 6909 bound_to 6896
  144.8336  140.5778  143.5498 H   0  0  0  0  0  0  0  0  0  0  0  0  # atno 7974 bound_to 7965
  154.6281  140.0607  156.9698 H   0  0  0  0  0  0  0  0  0  0  0  0  # atno 8008 bound_to 7997
  155.1709  140.3291  155.4374 H   0  0  0  0  0  0  0  0  0  0  0  0  # atno 8009 bound_to 7997
  156.2468  140.1914  156.6812 H   0  0  0  0  0  0  0  0  0  0  0  0  # atno 8010 bound_to 7997
  140.5258  143.9925  150.6440 H   0  0  0  0  0  0  0  0  0  0  0  0  # atno 10167 bound_to 10162
  157.5294  131.1098  150.9032 H   0  0  0  0  0  0  0  0  0  0  0  0  # atno 10718 bound_to 10713
  154.7230  135.5087  153.8842 H   0  0  0  0  0  0  0  0  0  0  0  0  # atno 10763 bound_to 10752
  153.0880  135.6651  153.9920 H   0  0  0  0  0  0  0  0  0  0  0  0  # atno 10764 bound_to 10752
  153.9738  135.3035  155.3405 H   0  0  0  0  0  0  0  0  0  0  0  0  # atno 10765 bound_to 10752
  140.3320  134.7349  157.4141 H   0  0  0  0  0  0  0  0  0  0  0  0  # atno 11005 bound_to 11000
  145.4842  139.1493  143.3745 LP  0  0  0  0  0  0  0  0  0  0  0  0  # atno 17320 bound_to 7965
  146.2637  140.4978  142.8843 LP  0  0  0  0  0  0  0  0  0  0  0  0  # atno 17321 bound_to 7965
  140.3287  143.3091  152.0710 LP  0  0  0  0  0  0  0  0  0  0  0  0  # atno 17342 bound_to 10162
  139.4938  144.6524  151.6646 LP  0  0  0  0  0  0  0  0  0  0  0  0  # atno 17343 bound_to 10162
  156.9618  130.5458  149.5286 LP  0  0  0  0  0  0  0  0  0  0  0  0  # atno 17370 bound_to 10713
  156.0411  130.5494  150.8773 LP  0  0  0  0  0  0  0  0  0  0  0  0  # atno 17371 bound_to 10713
  140.0852  134.5676  155.8499 LP  0  0  0  0  0  0  0  0  0  0  0  0  # atno 17394 bound_to 11000
  141.2061  133.6652  156.6220 LP  0  0  0  0  0  0  0  0  0  0  0  0  # atno 17395 bound_to 11000

$$$$
