AV-unprocessed.smi:2078|AV-procd|sdf|8474|dock6
  -GOLD-   2272011173D 1   1.00000     0.00000
 Structure written by MMmdl.
 41 42  0  0  0  0  0  0  0  0  3 V2000
  153.2717  142.0444  161.7428 C   0  0  0  0  0  0  0  0  0  0  0  0
  152.8849  141.4462  160.4340 C   0  0  0  0  0  0  0  0  0  0  0  0
  152.1144  141.8933  159.3979 C   0  0  0  0  0  0  0  0  0  0  0  0
  152.1702  140.8200  158.4694 C   0  0  0  0  0  0  0  0  0  0  0  0
  151.4754  140.8941  157.2334 N   0  0  0  0  0  0  0  0  0  0  0  0
  151.3264  139.9425  156.2945 C   0  0  0  0  0  0  0  0  0  0  0  0
  151.8683  138.8388  156.4313 O   0  0  0  0  0  0  0  0  0  0  0  0
  150.5368  140.3505  155.2623 N   0  5  0  0  0  0  0  0  0  0  0  0
  149.7231  141.5706  155.2531 C   0  0  0  0  0  0  0  0  0  0  0  0
  148.4906  141.3977  154.3395 C   0  0  0  0  0  0  0  0  0  0  0  0
  147.3543  142.2566  154.7686 N   0  3  2  0  0  0  0  0  0  0  0  0
  146.4314  141.6014  155.7328 C   0  0  0  0  0  0  0  0  0  0  0  0
  145.4145  142.6132  156.2831 C   0  0  0  0  0  0  0  0  0  0  0  0
  144.6364  143.2837  155.1428 C   0  0  0  0  0  0  0  0  0  0  0  0
  145.6076  143.9237  154.1352 C   0  0  2  0  0  0  0  0  0  0  0  0
  144.8567  144.5817  152.9695 C   0  0  0  0  0  0  0  0  0  0  0  0
  146.6242  142.8782  153.6344 C   0  0  0  0  0  0  0  0  0  0  0  0
  152.9055  139.8067  158.9033 N   0  0  0  0  0  0  0  0  0  0  0  0
  153.3682  140.2035  160.1634 O   0  0  0  0  0  0  0  0  0  0  0  0
  152.7930  143.0133  161.8851 H   0  0  0  0  0  0  0  0  0  0  0  0
  154.3509  142.1888  161.7973 H   0  0  0  0  0  0  0  0  0  0  0  0
  152.9740  141.3959  162.5670 H   0  0  0  0  0  0  0  0  0  0  0  0
  151.5965  142.8374  159.3179 H   0  0  0  0  0  0  0  0  0  0  0  0
  151.0217  141.7750  157.0409 H   0  0  0  0  0  0  0  0  0  0  0  0
  149.3742  141.8077  156.2578 H   0  0  0  0  0  0  0  0  0  0  0  0
  150.2880  142.4469  154.9322 H   0  0  0  0  0  0  0  0  0  0  0  0
  148.7825  141.6329  153.3146 H   0  0  0  0  0  0  0  0  0  0  0  0
  148.1801  140.3520  154.3220 H   0  0  0  0  0  0  0  0  0  0  0  0
  145.9157  140.7745  155.2422 H   0  0  0  0  0  0  0  0  0  0  0  0
  146.9991  141.1756  156.5610 H   0  0  0  0  0  0  0  0  0  0  0  0
  144.7239  142.1163  156.9649 H   0  0  0  0  0  0  0  0  0  0  0  0
  145.9358  143.3727  156.8680 H   0  0  0  0  0  0  0  0  0  0  0  0
  144.0123  142.5432  154.6404 H   0  0  0  0  0  0  0  0  0  0  0  0
  143.9609  144.0375  155.5486 H   0  0  0  0  0  0  0  0  0  0  0  0
  146.1624  144.7084  154.6532 H   0  0  0  0  0  0  0  0  0  0  0  0
  144.2822  143.8483  152.4028 H   0  0  0  0  0  0  0  0  0  0  0  0
  145.5495  145.0665  152.2808 H   0  0  0  0  0  0  0  0  0  0  0  0
  144.1637  145.3431  153.3287 H   0  0  0  0  0  0  0  0  0  0  0  0
  147.3400  143.3662  152.9712 H   0  0  0  0  0  0  0  0  0  0  0  0
  146.1256  142.1018  153.0521 H   0  0  0  0  0  0  0  0  0  0  0  0
  147.7887  143.0243  155.2634 H   0  0  0  0  0  0  0  0  0  0  0  0
  1  2  1  0  0  0  0
  1 20  1  0  0  0  0
  1 21  1  0  0  0  0
  1 22  1  0  0  0  0
  2 19  1  0  0  0  0
  2  3  2  0  0  0  0
  3  4  1  0  0  0  0
  3 23  1  0  0  0  0
  4  5  1  0  0  0  0
  4 18  2  0  0  0  0
  5  6  1  0  0  0  0
  5 24  1  0  0  0  0
  6  7  2  0  0  0  0
  6  8  1  0  0  0  0
  8  9  1  0  0  0  0
  9 10  1  0  0  0  0
  9 25  1  0  0  0  0
  9 26  1  0  0  0  0
 10 11  1  0  0  0  0
 10 27  1  0  0  0  0
 10 28  1  0  0  0  0
 11 17  1  0  0  0  0
 11 12  1  0  0  0  0
 11 41  1  0  0  0  0
 12 13  1  0  0  0  0
 12 29  1  0  0  0  0
 12 30  1  0  0  0  0
 13 14  1  0  0  0  0
 13 31  1  0  0  0  0
 13 32  1  0  0  0  0
 14 15  1  0  0  0  0
 14 33  1  0  0  0  0
 14 34  1  0  0  0  0
 15 16  1  0  0  0  0
 15 17  1  0  0  0  0
 15 35  1  0  0  0  0
 16 36  1  0  0  0  0
 16 37  1  0  0  0  0
 16 38  1  0  0  0  0
 17 39  1  0  0  0  0
 17 40  1  0  0  0  0
 18 19  1  0  0  0  0
M  CHG  1   8  -1
M  CHG  1  11   1
M  END
> <s_m_source_file>
AV-unprocessed.smi

> <i_m_source_file_index>
2078

> <i_lp_mmshare_version>
43012

> <i_f3d_flags>
0

> <s_epik_input>
W0NIM11jMVtjSF1jKG5vMSlbTkhdQyg9TylbTkhdW0NIMl1bQ0gyXU4yW0NIMl1bQ0gyXVtDSDJdW0NAQEhdKFtDSDNdKVtDSDJdMg==

> <s_epik_cmdline>
J2VwaWtfcHl0aG9uJywgJy1waCcsICc3LjAnLCAnLXRuJywgJzgnLCAnLW1hJywgJzIwMCcsICctbWV0YWxfYmluZGluZycsICctaW1hZScsICc8aW5maWxlLm1hZT4nLCAnLW9tYWUnLCAnPG91dGZpbGUubWFlPic=

> <r_epik_Ionization_Penalty>
6.76934

> <r_epik_Ionization_Penalty_Charging>
6.76934

> <r_epik_Ionization_Penalty_Neutral>
5.77849e-06

> <r_epik_State_Penalty>
6.79457

> <r_epik_Charging_Adjusted_Penalty>
13.5639

> <i_epik_Tot_Q>
0

> <i_epik_Tot_abs_Q>
2

> <r_epik_Metal_State_Penalty>
2.72837

> <b_epik_Metal_Only>
1

> <s_lp_Force_Field>
OPLS_2005

> <r_lp_Energy>
9.58201

> <b_lp_Chiralities_Consistent>
1

> <s_lp_Variant>
AV-unprocessed.smi:2078-12

> <Gold.Version>
5.8.1

> <Gold.Id.Protein>
6NUR|6NUR_protein|mol2

> <Gold.PLP.Fitness>
44.4578

> <Gold.PLP.PLP>
-35.3113

> <Gold.PLP.part.hbond>
-3.0000

> <Gold.PLP.part.metal>
0.0000

> <Gold.PLP.part.buried>
-4.4326

> <Gold.PLP.part.nonpolar>
-28.1449

> <Gold.PLP.part.repulsive>
0.3025

> <Gold.PLP.ligand.clash>
0.7439

> <Gold.PLP.ligand.torsion>
0.8629

> <Gold.PLP.Chemscore.Hbond>
3.8560

> <Gold.PLP.Chemscore.CHOScore>
0.0000

> <Gold.PLP.Chemscore.Metal>
0.0000

> <Gold.Chemscore.Hbonds>
donor molecule, donor type, donor heavy atom, donor atom, acceptor molecule, acceptor atom, score
      L1  H    11    41       P1  8028  2.00
      P1  H  7989  7998       L1     8  0.51

> <Gold.PLP.Chemscore.Internal.Correction>
0.0481

> <Gold.Rescore>
     Score         DG    S(hbond)    S(metal)    S(lipo)     H(rot)  DE(clash)    DE(int)     intcor
     10.13     -13.40       0.90        0.00      75.67       1.54       1.19       2.07       ----

> <Gold.Chemscore.Fitness>
10.1330

> <Gold.Chemscore.DG>
-13.3986

> <Gold.Chemscore.ZeroCoef>
-5.4800

> <Gold.Chemscore.Hbond>
0.9011

> <Gold.Chemscore.Metal>
0.0000

> <Gold.Chemscore.Lipo>
75.6722

> <Gold.Chemscore.Internal_Hbond>
0.0000

> <Gold.Chemscore.DEClash>
1.1925

> <Gold.Chemscore.DEInternal>
2.0730

> <Gold.Chemscore.Rot>
1.5409

> <Gold.Chemscore.Internal.Correction>
   9.000000E+99

> <Gold.Chemscore.Hbonds>
donor molecule, donor type, donor heavy atom, donor atom, acceptor molecule, acceptor atom, score
      L1  H    11    41       P1  8028  0.61
      P1  H  7989  7998       L1     8  0.05

> <Gold.Chemscore.Hbond.Weighted>
-3.0095

> <Gold.Chemscore.Metal.Weighted>
-0.0000

> <Gold.Chemscore.Lipo.Weighted>
-8.8536

> <Gold.Chemscore.Internal_Hbond.Weighted>
0.0000

> <Gold.Chemscore.DEClash.Weighted>
1.1925

> <Gold.Chemscore.DEInternal.Weighted>
2.0730

> <Gold.Chemscore.Rot.Weighted>
3.9446

> <Gold.Chemscore.Internal.Correction.Weighted>
   9.000000E+99

> <Gold.Protein.RotatedTorsions>
[ 6907 6896 6895 6894 ] final -167.25 input  -60.11 | X-H torsion
[ 7974 7965 7964 7962 ] final -130.83 input  175.53 | X-H torsion
[ 8008 7997 7996 7995 ] final  171.47 input   59.86 | X-H torsion
[ 10167 10162 10161 10158 ] final  -46.95 input  -65.29 | X-H torsion
[ 10718 10713 10712 10709 ] final  154.00 input   66.30 | X-H torsion
[ 10763 10752 10751 10750 ] final   73.06 input  -60.55 | X-H torsion
[ 11005 11000 10999 10996 ] final  -60.64 input  -57.11 | X-H torsion

> <Gold.Protein.ActiveResidues>
 VAL166  LYS551  ARG553  GLY616  TRP617  ASP618  TYR619  PRO620  LYS621  CYS622 
 ASP623  PHE694  ASN695  SER759  ASP760  ASP761  ALA762  ILE779  LEU786  VAL792 
 PHE793  MET794  SER795  GLU796  ALA797  LYS798  CYS799  TRP800  GLU811  SER814 

> <Gold.Protein.RotatedAtoms>
  151.4566  133.3603  159.2802 H   0  0  0  0  0  0  0  0  0  0  0  0  # atno 6907 bound_to 6896
  150.9054  134.8471  159.7400 H   0  0  0  0  0  0  0  0  0  0  0  0  # atno 6908 bound_to 6896
  152.4903  134.4490  159.9620 H   0  0  0  0  0  0  0  0  0  0  0  0  # atno 6909 bound_to 6896
  144.9437  140.7268  143.4830 H   0  0  0  0  0  0  0  0  0  0  0  0  # atno 7974 bound_to 7965
  156.1268  140.1511  156.9125 H   0  0  0  0  0  0  0  0  0  0  0  0  # atno 8008 bound_to 7997
  154.4878  140.0860  156.7566 H   0  0  0  0  0  0  0  0  0  0  0  0  # atno 8009 bound_to 7997
  155.4329  140.3428  155.4284 H   0  0  0  0  0  0  0  0  0  0  0  0  # atno 8010 bound_to 7997
  140.6796  143.2807  151.3856 H   0  0  0  0  0  0  0  0  0  0  0  0  # atno 10167 bound_to 10162
  157.2374  131.0752  151.1814 H   0  0  0  0  0  0  0  0  0  0  0  0  # atno 10718 bound_to 10713
  153.0498  135.5077  154.7837 H   0  0  0  0  0  0  0  0  0  0  0  0  # atno 10763 bound_to 10752
  154.6709  135.2953  154.9746 H   0  0  0  0  0  0  0  0  0  0  0  0  # atno 10764 bound_to 10752
  154.0564  135.6697  153.4859 H   0  0  0  0  0  0  0  0  0  0  0  0  # atno 10765 bound_to 10752
  141.1295  133.6624  156.5254 H   0  0  0  0  0  0  0  0  0  0  0  0  # atno 11005 bound_to 11000
  145.2951  139.1870  143.4720 LP  0  0  0  0  0  0  0  0  0  0  0  0  # atno 17320 bound_to 7965
  146.3295  140.2933  142.8616 LP  0  0  0  0  0  0  0  0  0  0  0  0  # atno 17321 bound_to 7965
  139.6110  144.1099  152.2298 LP  0  0  0  0  0  0  0  0  0  0  0  0  # atno 17342 bound_to 10162
  140.0513  144.5930  150.7334 LP  0  0  0  0  0  0  0  0  0  0  0  0  # atno 17343 bound_to 10162
  157.3415  130.7035  149.6384 LP  0  0  0  0  0  0  0  0  0  0  0  0  # atno 17370 bound_to 10713
  155.9672  130.4278  150.4762 LP  0  0  0  0  0  0  0  0  0  0  0  0  # atno 17371 bound_to 10713
  140.4258  134.7146  157.4915 LP  0  0  0  0  0  0  0  0  0  0  0  0  # atno 17394 bound_to 11000
  140.0328  134.6381  155.9084 LP  0  0  0  0  0  0  0  0  0  0  0  0  # atno 17395 bound_to 11000

$$$$
