AV-unprocessed.smi:21|AV-procd|sdf|128|dock3
  -GOLD-   2262015313D 1   1.00000     0.00000
 Structure written by MMmdl.
 62 65  0  0  0  0  0  0  0  0  2 V2000
  146.1090  131.7543  150.6623 C   0  0  0  0  0  0  0  0  0  0  0  0
  146.7833  131.4114  151.8627 O   0  0  0  0  0  0  0  0  0  0  0  0
  147.6930  132.4065  152.3071 C   0  0  2  0  0  0  0  0  0  0  0  0
  148.4241  132.0236  153.5888 C   0  0  0  0  0  0  0  0  0  0  0  0
  148.8475  133.3726  154.1911 C   0  0  2  0  0  0  0  0  0  0  0  0
  149.0593  133.3418  155.7282 C   0  0  0  0  0  0  0  0  0  0  0  0
  150.2980  133.9904  156.1631 N   0  0  0  0  0  0  0  0  0  0  0  0
  151.4659  133.1388  156.3720 C   0  0  0  0  0  0  0  0  0  0  0  0
  150.2069  135.1402  156.8863 C   0  0  0  0  0  0  0  0  0  0  0  0
  149.0034  135.4924  157.4138 N   0  0  0  0  0  0  0  0  0  0  0  0
  148.8614  136.6408  158.0805 C   0  0  0  0  0  0  0  0  0  0  0  0
  149.7769  137.5771  158.3293 N   0  0  0  0  0  0  0  0  0  0  0  0
  150.9919  137.2268  157.8213 C   0  0  0  0  0  0  0  0  0  0  0  0
  151.2973  136.0335  157.1052 C   0  0  0  0  0  0  0  0  0  0  0  0
  152.6482  136.0226  156.7747 N   0  0  0  0  0  0  0  0  0  0  0  0
  153.1077  137.1487  157.2460 C   0  0  0  0  0  0  0  0  0  0  0  0
  152.1720  137.9481  157.8610 N   0  0  0  0  0  0  0  0  0  0  0  0
  152.4014  139.2533  158.4533 C   0  0  0  0  0  0  0  0  0  0  0  0
  151.9361  140.4550  157.5826 C   0  0  1  0  0  0  0  0  0  0  0  0
  150.7797  139.9934  156.6621 C   0  0  0  0  0  0  0  0  0  0  0  0
  150.8695  140.5839  155.3816 O   0  0  0  0  0  0  0  0  0  0  0  0
  151.5340  141.7067  158.4219 C   0  0  2  0  0  0  0  0  0  0  0  0
  151.2361  142.9593  157.6100 C   0  0  0  0  0  0  0  0  0  0  0  0
  151.3365  144.0606  158.6551 C   0  0  0  0  0  0  0  0  0  0  0  0
  152.4054  143.6582  159.4960 O   0  0  0  0  0  0  0  0  0  0  0  0
  152.6132  142.2550  159.3728 C   0  0  0  0  0  0  0  0  0  0  0  0
  147.8406  134.3598  153.6963 N   0  3  2  0  0  0  0  0  0  0  0  0
  147.1033  135.1617  154.7012 C   0  0  0  0  0  0  0  0  0  0  0  0
  146.9470  133.6642  152.7421 C   0  0  0  0  0  0  0  0  0  0  0  0
  148.4079  132.6628  151.5229 H   0  0  0  0  0  0  0  0  0  0  0  0
  149.7862  133.6686  153.7209 H   0  0  0  0  0  0  0  0  0  0  0  0
  145.4007  130.9666  150.4059 H   0  0  0  0  0  0  0  0  0  0  0  0
  146.8033  131.8592  149.8280 H   0  0  0  0  0  0  0  0  0  0  0  0
  145.5509  132.6845  150.7737 H   0  0  0  0  0  0  0  0  0  0  0  0
  147.7334  131.5128  154.2616 H   0  0  0  0  0  0  0  0  0  0  0  0
  149.2693  131.3597  153.4061 H   0  0  0  0  0  0  0  0  0  0  0  0
  148.2461  133.8784  156.2170 H   0  0  0  0  0  0  0  0  0  0  0  0
  148.9955  132.3215  156.0977 H   0  0  0  0  0  0  0  0  0  0  0  0
  152.3868  133.7201  156.3077 H   0  0  0  0  0  0  0  0  0  0  0  0
  151.5136  132.3587  155.6120 H   0  0  0  0  0  0  0  0  0  0  0  0
  151.4269  132.6569  157.3496 H   0  0  0  0  0  0  0  0  0  0  0  0
  147.8710  136.8422  158.4616 H   0  0  0  0  0  0  0  0  0  0  0  0
  154.1432  137.4379  157.1384 H   0  0  0  0  0  0  0  0  0  0  0  0
  151.8891  139.2560  159.4158 H   0  0  0  0  0  0  0  0  0  0  0  0
  153.4649  139.3491  158.6758 H   0  0  0  0  0  0  0  0  0  0  0  0
  152.7595  140.7492  156.9305 H   0  0  0  0  0  0  0  0  0  0  0  0
  150.7757  138.9078  156.5595 H   0  0  0  0  0  0  0  0  0  0  0  0
  149.8092  140.2813  157.0635 H   0  0  0  0  0  0  0  0  0  0  0  0
  150.1739  141.2174  155.2922 H   0  0  0  0  0  0  0  0  0  0  0  0
  150.6437  141.4710  159.0073 H   0  0  0  0  0  0  0  0  0  0  0  0
  151.9948  143.1066  156.8399 H   0  0  0  0  0  0  0  0  0  0  0  0
  150.2569  142.9410  157.1309 H   0  0  0  0  0  0  0  0  0  0  0  0
  151.5174  145.0426  158.2178 H   0  0  0  0  0  0  0  0  0  0  0  0
  150.4210  144.1120  159.2458 H   0  0  0  0  0  0  0  0  0  0  0  0
  152.5705  141.7944  160.3583 H   0  0  0  0  0  0  0  0  0  0  0  0
  153.6140  142.0991  158.9688 H   0  0  0  0  0  0  0  0  0  0  0  0
  146.5227  134.5277  155.3727 H   0  0  0  0  0  0  0  0  0  0  0  0
  146.4112  135.8399  154.2010 H   0  0  0  0  0  0  0  0  0  0  0  0
  147.7824  135.7756  155.2925 H   0  0  0  0  0  0  0  0  0  0  0  0
  146.6787  134.3041  151.9011 H   0  0  0  0  0  0  0  0  0  0  0  0
  146.0241  133.3780  153.2503 H   0  0  0  0  0  0  0  0  0  0  0  0
  148.3702  135.0221  153.1475 H   0  0  0  0  0  0  0  0  0  0  0  0
  1  2  1  0  0  0  0
  1 32  1  0  0  0  0
  1 33  1  0  0  0  0
  1 34  1  0  0  0  0
  2  3  1  0  0  0  0
  3 30  1  0  0  0  0
  3 29  1  0  0  0  0
  3  4  1  0  0  0  0
  4  5  1  0  0  0  0
  4 35  1  0  0  0  0
  4 36  1  0  0  0  0
  5 31  1  0  0  0  0
  5  6  1  0  0  0  0
  5 27  1  0  0  0  0
  6  7  1  0  0  0  0
  6 37  1  0  0  0  0
  6 38  1  0  0  0  0
  7  8  1  0  0  0  0
  7  9  1  0  0  0  0
  8 39  1  0  0  0  0
  8 40  1  0  0  0  0
  8 41  1  0  0  0  0
  9 14  1  0  0  0  0
  9 10  2  0  0  0  0
 10 11  1  0  0  0  0
 11 12  2  0  0  0  0
 11 42  1  0  0  0  0
 12 13  1  0  0  0  0
 13 17  1  0  0  0  0
 13 14  2  0  0  0  0
 14 15  1  0  0  0  0
 15 16  2  0  0  0  0
 16 17  1  0  0  0  0
 16 43  1  0  0  0  0
 17 18  1  0  0  0  0
 18 19  1  0  0  0  0
 18 44  1  0  0  0  0
 18 45  1  0  0  0  0
 19 20  1  0  0  0  0
 19 22  1  0  0  0  0
 19 46  1  0  0  0  0
 20 21  1  0  0  0  0
 20 47  1  0  0  0  0
 20 48  1  0  0  0  0
 21 49  1  0  0  0  0
 22 26  1  0  0  0  0
 22 23  1  0  0  0  0
 22 50  1  0  0  0  0
 23 24  1  0  0  0  0
 23 51  1  0  0  0  0
 23 52  1  0  0  0  0
 24 25  1  0  0  0  0
 24 53  1  0  0  0  0
 24 54  1  0  0  0  0
 25 26  1  0  0  0  0
 26 55  1  0  0  0  0
 26 56  1  0  0  0  0
 27 28  1  0  0  0  0
 27 29  1  0  0  0  0
 27 62  1  0  0  0  0
 28 57  1  0  0  0  0
 28 58  1  0  0  0  0
 28 59  1  0  0  0  0
 29 60  1  0  0  0  0
 29 61  1  0  0  0  0
M  CHG  1  27   1
M  END
> <s_m_source_file>
AV-unprocessed.smi

> <i_m_source_file_index>
21

> <i_lp_mmshare_version>
43012

> <i_f3d_flags>
0

> <s_epik_input>
W0NIM11PW0NASF0xW0NIMl1bQ0BIXShOKFtDSDNdKVtDSDJdMSlbQ0gyXU4oW0NIM10pYyhuW2NIXW4yKWMoYzIzKW5bY0hdbjNbQ0gyXVtDQEhdKFtDSDJdW09IXSlbQ0BASF00W0NIMl1bQ0gyXU9bQ0gyXTQ=

> <s_epik_cmdline>
J2VwaWtfcHl0aG9uJywgJy1waCcsICc3LjAnLCAnLXRuJywgJzgnLCAnLW1hJywgJzIwMCcsICctbWV0YWxfYmluZGluZycsICctaW1hZScsICc8aW5maWxlLm1hZT4nLCAnLW9tYWUnLCAnPG91dGZpbGUubWFlPic=

> <r_lp_tautomer_probability>
1

> <r_epik_Ionization_Penalty>
0.0157465

> <r_epik_Ionization_Penalty_Charging>
0.015354

> <r_epik_Ionization_Penalty_Neutral>
0.000392529

> <r_epik_State_Penalty>
0.0120612

> <r_epik_Charging_Adjusted_Penalty>
0.0274152

> <i_epik_Tot_Q>
1

> <i_epik_Tot_abs_Q>
1

> <r_epik_Metal_State_Penalty>
0.0121253

> <b_epik_Metal_Only>
0

> <s_lp_Force_Field>
OPLS_2005

> <r_lp_Energy>
60.6524

> <b_lp_Chiralities_Consistent>
1

> <s_lp_Variant>
AV-unprocessed.smi:21-8

> <Gold.Version>
5.8.1

> <Gold.Id.Protein>
6NUR|6NUR_protein|mol2

> <Gold.PLP.Fitness>
48.5371

> <Gold.PLP.PLP>
-41.3372

> <Gold.PLP.part.hbond>
-3.0000

> <Gold.PLP.part.metal>
0.0000

> <Gold.PLP.part.buried>
-6.0779

> <Gold.PLP.part.nonpolar>
-31.7023

> <Gold.PLP.part.repulsive>
0.1104

> <Gold.PLP.ligand.clash>
0.0000

> <Gold.PLP.ligand.torsion>
2.3921

> <Gold.PLP.Chemscore.Hbond>
3.7520

> <Gold.PLP.Chemscore.CHOScore>
0.0000

> <Gold.PLP.Chemscore.Metal>
0.0000

> <Gold.Chemscore.Hbonds>
donor molecule, donor type, donor heavy atom, donor atom, acceptor molecule, acceptor atom, score
      L1  H    27    62       P1  7948  2.00
      P1  H  7989  7998       L1    21  0.67
      P1  H 10752 10764       L1    15  1.00

> <Gold.PLP.Chemscore.Internal.Correction>
0.7281

> <Gold.Rescore>
     Score         DG    S(hbond)    S(metal)    S(lipo)     H(rot)  DE(clash)    DE(int)     intcor
     14.66     -18.13       2.54        0.00     103.04       3.08       0.12       3.35       ----

> <Gold.Chemscore.Fitness>
14.6604

> <Gold.Chemscore.DG>
-18.1332

> <Gold.Chemscore.ZeroCoef>
-5.4800

> <Gold.Chemscore.Hbond>
2.5363

> <Gold.Chemscore.Metal>
0.0000

> <Gold.Chemscore.Lipo>
103.0438

> <Gold.Chemscore.Internal_Hbond>
0.0000

> <Gold.Chemscore.DEClash>
0.1185

> <Gold.Chemscore.DEInternal>
3.3543

> <Gold.Chemscore.Rot>
3.0758

> <Gold.Chemscore.Internal.Correction>
   9.000000E+99

> <Gold.Chemscore.Hbonds>
donor molecule, donor type, donor heavy atom, donor atom, acceptor molecule, acceptor atom, score
      L1  H    27    62       P1  7948  0.85
      P1  H  7989  7998       L1    21  0.08
      P1  H 10752 10764       L1    15  0.88

> <Gold.Chemscore.Hbond.Weighted>
-8.4712

> <Gold.Chemscore.Metal.Weighted>
-0.0000

> <Gold.Chemscore.Lipo.Weighted>
-12.0561

> <Gold.Chemscore.Internal_Hbond.Weighted>
0.0000

> <Gold.Chemscore.DEClash.Weighted>
0.1185

> <Gold.Chemscore.DEInternal.Weighted>
3.3543

> <Gold.Chemscore.Rot.Weighted>
7.8741

> <Gold.Chemscore.Internal.Correction.Weighted>
   9.000000E+99

> <Gold.Protein.RotatedTorsions>
[ 6907 6896 6895 6894 ] final  171.87 input  -60.11 | X-H torsion
[ 7974 7965 7964 7962 ] final  -59.09 input  175.53 | X-H torsion
[ 8008 7997 7996 7995 ] final -139.95 input   59.86 | X-H torsion
[ 10167 10162 10161 10158 ] final   16.92 input  -65.29 | X-H torsion
[ 10718 10713 10712 10709 ] final -139.53 input   66.30 | X-H torsion
[ 10763 10752 10751 10750 ] final    2.66 input  -60.55 | X-H torsion
[ 11005 11000 10999 10996 ] final   77.61 input  -57.11 | X-H torsion

> <Gold.Protein.ActiveResidues>
 VAL166  LYS551  ARG553  GLY616  TRP617  ASP618  TYR619  PRO620  LYS621  CYS622 
 ASP623  PHE694  ASN695  SER759  ASP760  ASP761  ALA762  ILE779  LEU786  VAL792 
 PHE793  MET794  SER795  GLU796  ALA797  LYS798  CYS799  TRP800  GLU811  SER814 

> <Gold.Protein.RotatedAtoms>
  151.7934  133.3362  159.3505 H   0  0  0  0  0  0  0  0  0  0  0  0  # atno 6907 bound_to 6896
  150.7384  134.5821  159.5953 H   0  0  0  0  0  0  0  0  0  0  0  0  # atno 6908 bound_to 6896
  152.3194  134.7400  160.0369 H   0  0  0  0  0  0  0  0  0  0  0  0  # atno 6909 bound_to 6896
  145.8316  140.8476  143.0081 H   0  0  0  0  0  0  0  0  0  0  0  0  # atno 7974 bound_to 7965
  155.4533  140.0540  157.2999 H   0  0  0  0  0  0  0  0  0  0  0  0  # atno 8008 bound_to 7997
  154.4768  140.2064  155.9815 H   0  0  0  0  0  0  0  0  0  0  0  0  # atno 8009 bound_to 7997
  156.1144  140.3199  155.8123 H   0  0  0  0  0  0  0  0  0  0  0  0  # atno 8010 bound_to 7997
  140.5763  143.9066  150.6753 H   0  0  0  0  0  0  0  0  0  0  0  0  # atno 10167 bound_to 10162
  156.3119  130.7486  151.1564 H   0  0  0  0  0  0  0  0  0  0  0  0  # atno 10718 bound_to 10713
  153.2928  135.6950  153.7276 H   0  0  0  0  0  0  0  0  0  0  0  0  # atno 10763 bound_to 10752
  153.6221  135.3425  155.3015 H   0  0  0  0  0  0  0  0  0  0  0  0  # atno 10764 bound_to 10752
  154.8529  135.4388  154.2016 H   0  0  0  0  0  0  0  0  0  0  0  0  # atno 10765 bound_to 10752
  139.9247  134.7697  156.1544 H   0  0  0  0  0  0  0  0  0  0  0  0  # atno 11005 bound_to 11000
  144.6739  140.0680  143.7474 LP  0  0  0  0  0  0  0  0  0  0  0  0  # atno 17320 bound_to 7965
  145.9565  139.2770  143.1181 LP  0  0  0  0  0  0  0  0  0  0  0  0  # atno 17321 bound_to 7965
  140.2554  143.3563  152.1369 LP  0  0  0  0  0  0  0  0  0  0  0  0  # atno 17342 bound_to 10162
  139.5145  144.6948  151.5660 LP  0  0  0  0  0  0  0  0  0  0  0  0  # atno 17343 bound_to 10162
  157.7393  131.0531  150.5242 LP  0  0  0  0  0  0  0  0  0  0  0  0  # atno 17370 bound_to 10713
  156.5383  130.4201  149.6167 LP  0  0  0  0  0  0  0  0  0  0  0  0  # atno 17371 bound_to 10713
  141.0796  133.6760  156.2308 LP  0  0  0  0  0  0  0  0  0  0  0  0  # atno 17394 bound_to 11000
  140.6370  134.5205  157.5566 LP  0  0  0  0  0  0  0  0  0  0  0  0  # atno 17395 bound_to 11000

$$$$
