AV-unprocessed.smi:281|AV-procd|sdf|2113|dock7
  -GOLD-   2262021413D 1   1.00000     0.00000
 Structure written by MMmdl.
 55 59  0  0  0  0  0  0  0  0  1 V2000
  153.0560  138.8072  159.4081 C   0  0  0  0  0  0  0  0  0  0  0  0
  151.6518  138.8545  158.7983 C   0  0  2  0  0  0  0  0  0  0  0  0
  150.9123  137.5153  158.9422 C   0  0  0  0  0  0  0  0  0  0  0  0
  149.6250  137.5988  158.2645 N   0  0  0  0  0  0  0  0  0  0  0  0
  148.6813  136.6640  158.5390 C   0  0  0  0  0  0  0  0  0  0  0  0
  148.1589  135.9089  157.5360 N   0  0  0  0  0  0  0  0  0  0  0  0
  147.2235  134.9916  157.7995 C   0  0  0  0  0  0  0  0  0  0  0  0
  146.6802  134.6667  158.9742 N   0  0  0  0  0  0  0  0  0  0  0  0
  147.2078  135.4127  159.9867 C   0  0  0  0  0  0  0  0  0  0  0  0
  148.2009  136.4246  159.8574 C   0  0  0  0  0  0  0  0  0  0  0  0
  148.4935  136.9614  161.1055 N   0  0  0  0  0  0  0  0  0  0  0  0
  147.7097  136.3139  161.9231 C   0  0  0  0  0  0  0  0  0  0  0  0
  146.9109  135.3570  161.3379 N   0  0  0  0  0  0  0  0  0  0  0  0
  145.9520  134.4927  162.0104 C   0  0  0  0  0  0  0  0  0  0  0  0
  144.4896  134.9908  161.9128 C   0  0  1  0  0  0  0  0  0  0  0  0
  144.1261  135.0776  160.5468 O   0  0  0  0  0  0  0  0  0  0  0  0
  143.5078  134.0618  162.6303 C   0  0  0  0  0  0  0  0  0  0  0  0
  143.0903  134.8614  163.8584 C   0  0  0  0  0  0  0  0  0  0  0  0
  143.0808  136.1914  163.3725 O   0  0  0  0  0  0  0  0  0  0  0  0
  144.2539  136.3565  162.5892 C   0  0  0  0  0  0  0  0  0  0  0  0
  149.7477  137.9709  156.8607 C   0  0  0  0  0  0  0  0  0  0  0  0
  150.5402  139.2919  156.7048 C   0  0  1  0  0  0  0  0  0  0  0  0
  150.8437  139.5590  155.2394 C   0  0  0  0  0  0  0  0  0  0  0  0
  149.5581  140.2092  154.7384 C   0  0  0  0  0  0  0  0  0  0  0  0
  148.9926  140.8717  155.8651 O   0  0  0  0  0  0  0  0  0  0  0  0
  149.7028  140.5428  157.0579 C   0  0  2  0  0  0  0  0  0  0  0  0
  150.5223  141.7961  157.4214 C   0  0  0  0  0  0  0  0  0  0  0  0
  151.7794  139.1908  157.4151 O   0  0  0  0  0  0  0  0  0  0  0  0
  153.0142  138.5687  160.4710 H   0  0  0  0  0  0  0  0  0  0  0  0
  153.5580  139.7693  159.3030 H   0  0  0  0  0  0  0  0  0  0  0  0
  153.6739  138.0536  158.9190 H   0  0  0  0  0  0  0  0  0  0  0  0
  151.0801  139.6260  159.3138 H   0  0  0  0  0  0  0  0  0  0  0  0
  151.5013  136.7059  158.5082 H   0  0  0  0  0  0  0  0  0  0  0  0
  150.7687  137.2866  159.9993 H   0  0  0  0  0  0  0  0  0  0  0  0
  146.8580  134.4385  156.9469 H   0  0  0  0  0  0  0  0  0  0  0  0
  147.6977  136.5135  162.9847 H   0  0  0  0  0  0  0  0  0  0  0  0
  146.0399  133.4917  161.5855 H   0  0  0  0  0  0  0  0  0  0  0  0
  146.2452  134.4043  163.0574 H   0  0  0  0  0  0  0  0  0  0  0  0
  144.3234  135.9498  160.2409 H   0  0  0  0  0  0  0  0  0  0  0  0
  142.6266  133.8713  162.0153 H   0  0  0  0  0  0  0  0  0  0  0  0
  143.9363  133.0942  162.8932 H   0  0  0  0  0  0  0  0  0  0  0  0
  142.1154  134.5637  164.2450 H   0  0  0  0  0  0  0  0  0  0  0  0
  143.8262  134.7650  164.6587 H   0  0  0  0  0  0  0  0  0  0  0  0
  145.0686  136.6051  163.2701 H   0  0  0  0  0  0  0  0  0  0  0  0
  144.1507  137.1827  161.8845 H   0  0  0  0  0  0  0  0  0  0  0  0
  150.2710  137.1635  156.3462 H   0  0  0  0  0  0  0  0  0  0  0  0
  148.7732  138.0584  156.3822 H   0  0  0  0  0  0  0  0  0  0  0  0
  151.6699  140.2653  155.1478 H   0  0  0  0  0  0  0  0  0  0  0  0
  151.1156  138.6647  154.6779 H   0  0  0  0  0  0  0  0  0  0  0  0
  149.7388  140.9052  153.9189 H   0  0  0  0  0  0  0  0  0  0  0  0
  148.8544  139.4530  154.3891 H   0  0  0  0  0  0  0  0  0  0  0  0
  148.9967  140.3347  157.8627 H   0  0  0  0  0  0  0  0  0  0  0  0
  151.0974  141.6600  158.3358 H   0  0  0  0  0  0  0  0  0  0  0  0
  149.8635  142.6499  157.5804 H   0  0  0  0  0  0  0  0  0  0  0  0
  151.2208  142.0671  156.6299 H   0  0  0  0  0  0  0  0  0  0  0  0
  1  2  1  0  0  0  0
  1 29  1  0  0  0  0
  1 30  1  0  0  0  0
  1 31  1  0  0  0  0
  2 28  1  0  0  0  0
  2  3  1  0  0  0  0
  2 32  1  0  0  0  0
  3  4  1  0  0  0  0
  3 33  1  0  0  0  0
  3 34  1  0  0  0  0
  4  5  1  0  0  0  0
  4 21  1  0  0  0  0
  5 10  1  0  0  0  0
  5  6  2  0  0  0  0
  6  7  1  0  0  0  0
  7  8  2  0  0  0  0
  7 35  1  0  0  0  0
  8  9  1  0  0  0  0
  9 13  1  0  0  0  0
  9 10  2  0  0  0  0
 10 11  1  0  0  0  0
 11 12  2  0  0  0  0
 12 13  1  0  0  0  0
 12 36  1  0  0  0  0
 13 14  1  0  0  0  0
 14 15  1  0  0  0  0
 14 37  1  0  0  0  0
 14 38  1  0  0  0  0
 15 20  1  0  0  0  0
 15 16  1  0  0  0  0
 15 17  1  0  0  0  0
 16 39  1  0  0  0  0
 17 18  1  0  0  0  0
 17 40  1  0  0  0  0
 17 41  1  0  0  0  0
 18 19  1  0  0  0  0
 18 42  1  0  0  0  0
 18 43  1  0  0  0  0
 19 20  1  0  0  0  0
 20 44  1  0  0  0  0
 20 45  1  0  0  0  0
 21 22  1  0  0  0  0
 21 46  1  0  0  0  0
 21 47  1  0  0  0  0
 22 26  1  0  0  0  0
 22 23  1  0  0  0  0
 22 28  1  0  0  0  0
 23 24  1  0  0  0  0
 23 48  1  0  0  0  0
 23 49  1  0  0  0  0
 24 25  1  0  0  0  0
 24 50  1  0  0  0  0
 24 51  1  0  0  0  0
 25 26  1  0  0  0  0
 26 27  1  0  0  0  0
 26 52  1  0  0  0  0
 27 53  1  0  0  0  0
 27 54  1  0  0  0  0
 27 55  1  0  0  0  0
M  END
> <s_m_source_file>
AV-unprocessed.smi

> <i_m_source_file_index>
281

> <i_lp_mmshare_version>
43012

> <i_f3d_flags>
0

> <s_epik_input>
W0NIM11bQ0BASF0xT1tDSDJdW0NIMl1bQ0BAXTEyW0NIMl1OKFtDSDJdW0NASF0oTzIpW0NIM10pYyhuW2NIXW4zKWMoYzM0KW5bY0hdbjRbQ0gyXVtDQEBdNShbT0hdKVtDSDJdW0NIMl1PW0NIMl01

> <s_epik_cmdline>
J2VwaWtfcHl0aG9uJywgJy1waCcsICc3LjAnLCAnLXRuJywgJzgnLCAnLW1hJywgJzIwMCcsICctbWV0YWxfYmluZGluZycsICctaW1hZScsICc8aW5maWxlLm1hZT4nLCAnLW9tYWUnLCAnPG91dGZpbGUubWFlPic=

> <r_lp_tautomer_probability>
1

> <r_epik_Ionization_Penalty>
0.00571331

> <r_epik_Ionization_Penalty_Charging>
0

> <r_epik_Ionization_Penalty_Neutral>
0.00571331

> <r_epik_State_Penalty>
0.00399586

> <r_epik_Charging_Adjusted_Penalty>
0.00399586

> <i_epik_Tot_Q>
0

> <i_epik_Tot_abs_Q>
0

> <r_epik_Metal_State_Penalty>
-0

> <b_epik_Metal_Only>
0

> <s_lp_Force_Field>
OPLS_2005

> <r_lp_Energy>
53.7875

> <b_lp_Chiralities_Consistent>
1

> <s_lp_Variant>
AV-unprocessed.smi:281-13

> <Gold.Version>
5.8.1

> <Gold.Id.Protein>
6NUR|6NUR_protein|mol2

> <Gold.PLP.Fitness>
40.5845

> <Gold.PLP.PLP>
-37.9923

> <Gold.PLP.part.hbond>
-1.7115

> <Gold.PLP.part.metal>
0.0000

> <Gold.PLP.part.buried>
-4.7258

> <Gold.PLP.part.nonpolar>
-31.4493

> <Gold.PLP.part.repulsive>
0.1356

> <Gold.PLP.ligand.clash>
0.0000

> <Gold.PLP.ligand.torsion>
0.5132

> <Gold.PLP.Chemscore.Hbond>
1.0939

> <Gold.PLP.Chemscore.CHOScore>
0.0000

> <Gold.PLP.Chemscore.Metal>
0.0000

> <Gold.Chemscore.Hbonds>
donor molecule, donor type, donor heavy atom, donor atom, acceptor molecule, acceptor atom, score
      P1  H  6931  6943       L1    11  1.00

> <Gold.PLP.Chemscore.Internal.Correction>
0.3369

> <Gold.Rescore>
     Score         DG    S(hbond)    S(metal)    S(lipo)     H(rot)  DE(clash)    DE(int)     intcor
     12.16     -13.08       0.95        0.00      83.51       2.09       0.07       0.85       ----

> <Gold.Chemscore.Fitness>
12.1592

> <Gold.Chemscore.DG>
-13.0797

> <Gold.Chemscore.ZeroCoef>
-5.4800

> <Gold.Chemscore.Hbond>
0.9542

> <Gold.Chemscore.Metal>
0.0000

> <Gold.Chemscore.Lipo>
83.5051

> <Gold.Chemscore.Internal_Hbond>
0.0000

> <Gold.Chemscore.DEClash>
0.0739

> <Gold.Chemscore.DEInternal>
0.8467

> <Gold.Chemscore.Rot>
2.0927

> <Gold.Chemscore.Internal.Correction>
   9.000000E+99

> <Gold.Chemscore.Hbonds>
donor molecule, donor type, donor heavy atom, donor atom, acceptor molecule, acceptor atom, score
      P1  H  6931  6943       L1    11  0.59

> <Gold.Chemscore.Hbond.Weighted>
-3.1870

> <Gold.Chemscore.Metal.Weighted>
-0.0000

> <Gold.Chemscore.Lipo.Weighted>
-9.7701

> <Gold.Chemscore.Internal_Hbond.Weighted>
0.0000

> <Gold.Chemscore.DEClash.Weighted>
0.0739

> <Gold.Chemscore.DEInternal.Weighted>
0.8467

> <Gold.Chemscore.Rot.Weighted>
5.3573

> <Gold.Chemscore.Internal.Correction.Weighted>
   9.000000E+99

> <Gold.Protein.RotatedTorsions>
[ 6907 6896 6895 6894 ] final  -50.59 input  -60.11 | X-H torsion
[ 7974 7965 7964 7962 ] final  176.17 input  175.53 | X-H torsion
[ 8008 7997 7996 7995 ] final  -74.74 input   59.86 | X-H torsion
[ 10167 10162 10161 10158 ] final   -0.15 input  -65.29 | X-H torsion
[ 10718 10713 10712 10709 ] final   60.92 input   66.30 | X-H torsion
[ 10763 10752 10751 10750 ] final -176.80 input  -60.55 | X-H torsion
[ 11005 11000 10999 10996 ] final   94.93 input  -57.11 | X-H torsion

> <Gold.Protein.ActiveResidues>
 VAL166  LYS551  ARG553  GLY616  TRP617  ASP618  TYR619  PRO620  LYS621  CYS622 
 ASP623  PHE694  ASN695  SER759  ASP760  ASP761  ALA762  ILE779  LEU786  VAL792 
 PHE793  MET794  SER795  GLU796  ALA797  LYS798  CYS799  TRP800  GLU811  SER814 

> <Gold.Protein.RotatedAtoms>
  150.8692  134.8062  159.7141 H   0  0  0  0  0  0  0  0  0  0  0  0  # atno 6907 bound_to 6896
  152.4703  134.4974  159.9724 H   0  0  0  0  0  0  0  0  0  0  0  0  # atno 6908 bound_to 6896
  151.5065  133.3455  159.2913 H   0  0  0  0  0  0  0  0  0  0  0  0  # atno 6909 bound_to 6896
  144.7189  140.0057  143.6440 H   0  0  0  0  0  0  0  0  0  0  0  0  # atno 7974 bound_to 7965
  154.5357  140.0756  156.8422 H   0  0  0  0  0  0  0  0  0  0  0  0  # atno 8008 bound_to 7997
  155.3284  140.3400  155.4222 H   0  0  0  0  0  0  0  0  0  0  0  0  # atno 8009 bound_to 7997
  156.1825  140.1657  156.8234 H   0  0  0  0  0  0  0  0  0  0  0  0  # atno 8010 bound_to 7997
  140.6754  143.6929  150.8013 H   0  0  0  0  0  0  0  0  0  0  0  0  # atno 10167 bound_to 10162
  157.5789  130.8965  149.9396 H   0  0  0  0  0  0  0  0  0  0  0  0  # atno 10718 bound_to 10713
  154.5680  135.2825  155.0855 H   0  0  0  0  0  0  0  0  0  0  0  0  # atno 10763 bound_to 10752
  154.2239  135.6386  153.5157 H   0  0  0  0  0  0  0  0  0  0  0  0  # atno 10764 bound_to 10752
  153.0049  135.5521  154.6294 H   0  0  0  0  0  0  0  0  0  0  0  0  # atno 10765 bound_to 10752
  139.8794  134.8872  156.3937 H   0  0  0  0  0  0  0  0  0  0  0  0  # atno 11005 bound_to 11000
  146.0299  139.3326  143.0761 LP  0  0  0  0  0  0  0  0  0  0  0  0  # atno 17320 bound_to 7965
  145.8465  140.9552  143.0772 LP  0  0  0  0  0  0  0  0  0  0  0  0  # atno 17321 bound_to 7965
  140.0622  143.5144  152.2622 LP  0  0  0  0  0  0  0  0  0  0  0  0  # atno 17342 bound_to 10162
  139.6044  144.7592  151.3095 LP  0  0  0  0  0  0  0  0  0  0  0  0  # atno 17343 bound_to 10162
  156.0834  130.3670  150.0535 LP  0  0  0  0  0  0  0  0  0  0  0  0  # atno 17370 bound_to 10713
  156.8677  130.9513  151.3612 LP  0  0  0  0  0  0  0  0  0  0  0  0  # atno 17371 bound_to 10713
  140.9315  133.7576  156.0031 LP  0  0  0  0  0  0  0  0  0  0  0  0  # atno 17394 bound_to 11000
  140.8325  134.3162  157.5344 LP  0  0  0  0  0  0  0  0  0  0  0  0  # atno 17395 bound_to 11000

$$$$
