AV-unprocessed.smi:37|AV-procd|sdf|315|dock4
  -GOLD-   2262016133D 1   1.00000     0.00000
 Structure written by MMmdl.
 44 45  0  0  0  0  0  0  0  0  1 V2000
  142.8299  139.8340  159.1604 C   0  0  0  0  0  0  0  0  0  0  0  0
  143.6795  139.4386  157.9451 C   0  0  0  0  0  0  0  0  0  0  0  0
  144.9334  138.6652  158.3465 C   0  0  0  0  0  0  0  0  0  0  0  0
  145.8007  139.1735  159.0575 O   0  0  0  0  0  0  0  0  0  0  0  0
  144.9597  137.4225  157.8397 O   0  0  0  0  0  0  0  0  0  0  0  0
  145.9674  136.5172  158.2573 C   0  0  0  0  0  0  0  0  0  0  0  0
  147.3432  137.0698  157.8501 C   0  0  2  0  0  0  0  0  0  0  0  0
  147.4161  137.0240  156.4202 O   0  0  0  0  0  0  0  0  0  0  0  0
  148.5657  136.3580  155.9896 C   0  0  1  0  0  0  0  0  0  0  0  0
  149.6782  137.3533  155.7048 N   0  0  0  0  0  0  0  0  0  0  0  0
  149.4878  138.7311  155.7451 C   0  0  0  0  0  0  0  0  0  0  0  0
  150.4732  139.6208  155.4774 C   0  0  0  0  0  0  0  0  0  0  0  0
  150.2120  140.9375  155.5388 F   0  0  0  0  0  0  0  0  0  0  0  0
  151.8116  139.1655  155.1150 C   0  0  0  0  0  0  0  0  0  0  0  0
  152.7689  139.8940  154.8615 O   0  0  0  0  0  0  0  0  0  0  0  0
  151.9524  137.7765  155.0631 N   0  0  0  0  0  0  0  0  0  0  0  0
  150.9449  136.8490  155.3322 C   0  0  0  0  0  0  0  0  0  0  0  0
  151.1788  135.6446  155.2402 O   0  0  0  0  0  0  0  0  0  0  0  0
  148.9493  135.4211  157.1357 C   0  0  2  0  0  0  0  0  0  0  0  0
  147.8688  133.7484  156.9997 Br  0  0  0  0  0  0  0  0  0  0  0  0
  148.5441  136.2458  158.3491 C   0  0  2  0  0  0  0  0  0  0  0  0
  148.2620  135.4481  159.4930 O   0  0  0  0  0  0  0  0  0  0  0  0
  147.8285  136.0183  160.6315 C   0  0  0  0  0  0  0  0  0  0  0  0
  147.6101  137.2177  160.8020 O   0  0  0  0  0  0  0  0  0  0  0  0
  147.6255  135.0033  161.7535 C   0  0  0  0  0  0  0  0  0  0  0  0
  147.3027  135.6817  163.0919 C   0  0  0  0  0  0  0  0  0  0  0  0
  152.8586  137.4141  154.8044 H   0  0  0  0  0  0  0  0  0  0  0  0
  141.9767  140.4383  158.8523 H   0  0  0  0  0  0  0  0  0  0  0  0
  143.4083  140.4205  159.8753 H   0  0  0  0  0  0  0  0  0  0  0  0
  142.4417  138.9569  159.6793 H   0  0  0  0  0  0  0  0  0  0  0  0
  143.0912  138.8285  157.2595 H   0  0  0  0  0  0  0  0  0  0  0  0
  143.9784  140.3324  157.3970 H   0  0  0  0  0  0  0  0  0  0  0  0
  145.9061  136.4100  159.3408 H   0  0  0  0  0  0  0  0  0  0  0  0
  145.8013  135.5330  157.8183 H   0  0  0  0  0  0  0  0  0  0  0  0
  147.4384  138.0967  158.2044 H   0  0  0  0  0  0  0  0  0  0  0  0
  148.3846  135.8561  155.0372 H   0  0  0  0  0  0  0  0  0  0  0  0
  148.5217  139.1416  155.9926 H   0  0  0  0  0  0  0  0  0  0  0  0
  150.0030  135.1432  157.1296 H   0  0  0  0  0  0  0  0  0  0  0  0
  149.3474  136.9500  158.5727 H   0  0  0  0  0  0  0  0  0  0  0  0
  146.8166  134.3271  161.4759 H   0  0  0  0  0  0  0  0  0  0  0  0
  148.5269  134.3974  161.8487 H   0  0  0  0  0  0  0  0  0  0  0  0
  147.1251  134.9365  163.8671 H   0  0  0  0  0  0  0  0  0  0  0  0
  146.4082  136.3011  163.0171 H   0  0  0  0  0  0  0  0  0  0  0  0
  148.1239  136.3161  163.4275 H   0  0  0  0  0  0  0  0  0  0  0  0
  1  2  1  0  0  0  0
  1 28  1  0  0  0  0
  1 29  1  0  0  0  0
  1 30  1  0  0  0  0
  2  3  1  0  0  0  0
  2 31  1  0  0  0  0
  2 32  1  0  0  0  0
  3  4  2  0  0  0  0
  3  5  1  0  0  0  0
  5  6  1  0  0  0  0
  6  7  1  0  0  0  0
  6 33  1  0  0  0  0
  6 34  1  0  0  0  0
  7 21  1  0  0  0  0
  7  8  1  0  0  0  0
  7 35  1  0  0  0  0
  8  9  1  0  0  0  0
  9 10  1  0  0  0  0
  9 19  1  0  0  0  0
  9 36  1  0  0  0  0
 10 17  1  0  0  0  0
 10 11  1  0  0  0  0
 11 12  2  0  0  0  0
 11 37  1  0  0  0  0
 12 13  1  0  0  0  0
 12 14  1  0  0  0  0
 14 15  2  0  0  0  0
 14 16  1  0  0  0  0
 16 27  1  0  0  0  0
 16 17  1  0  0  0  0
 17 18  2  0  0  0  0
 19 20  1  0  0  0  0
 19 21  1  0  0  0  0
 19 38  1  0  0  0  0
 21 22  1  0  0  0  0
 21 39  1  0  0  0  0
 22 23  1  0  0  0  0
 23 24  2  0  0  0  0
 23 25  1  0  0  0  0
 25 26  1  0  0  0  0
 25 40  1  0  0  0  0
 25 41  1  0  0  0  0
 26 42  1  0  0  0  0
 26 43  1  0  0  0  0
 26 44  1  0  0  0  0
M  END
> <s_m_source_file>
AV-unprocessed.smi

> <i_m_source_file_index>
37

> <i_lp_mmshare_version>
43012

> <i_f3d_flags>
0

> <s_epik_input>
W0NIM11bQ0gyXUMoPU8pT1tDSDJdW0NAQEhdMU9bQ0BASF0objJbY0hdYyhGKWMoPU8pW25IXWMyPU8pW0NAQEhdKEJyKVtDQEhdMU9DKD1PKVtDSDJdW0NIM10=

> <s_epik_cmdline>
J2VwaWtfcHl0aG9uJywgJy1waCcsICc3LjAnLCAnLXRuJywgJzgnLCAnLW1hJywgJzIwMCcsICctbWV0YWxfYmluZGluZycsICctaW1hZScsICc8aW5maWxlLm1hZT4nLCAnLW9tYWUnLCAnPG91dGZpbGUubWFlPic=

> <r_lp_tautomer_probability>
0.999537

> <r_epik_Ionization_Penalty>
0.104106

> <r_epik_Ionization_Penalty_Charging>
0.104106

> <r_epik_Ionization_Penalty_Neutral>
3.94675e-16

> <r_epik_State_Penalty>
0.0940182

> <r_epik_Charging_Adjusted_Penalty>
0.198124

> <i_epik_Tot_Q>
0

> <i_epik_Tot_abs_Q>
0

> <r_epik_Metal_State_Penalty>
3.05314

> <b_epik_Metal_Only>
0

> <s_epik_Chemistry_Notes>
This compound has an ester and may undergo hydrolysis at high or low pH. This compound contains an acetal/aminal-like group ( X-CH(R)-Y where X, Y are N, S, or O) that may be acid/base labile, releasing an aldehyde.

> <s_lp_Force_Field>
OPLS_2005

> <r_lp_Energy>
24.3846

> <b_lp_Chiralities_Consistent>
1

> <s_lp_Variant>
AV-unprocessed.smi:37-13

> <Gold.Version>
5.8.1

> <Gold.Id.Protein>
6NUR|6NUR_protein|mol2

> <Gold.PLP.Fitness>
41.1283

> <Gold.PLP.PLP>
-29.3279

> <Gold.PLP.part.hbond>
-6.0000

> <Gold.PLP.part.metal>
0.0000

> <Gold.PLP.part.buried>
-3.9315

> <Gold.PLP.part.nonpolar>
-19.7386

> <Gold.PLP.part.repulsive>
0.3061

> <Gold.PLP.ligand.clash>
0.0000

> <Gold.PLP.ligand.torsion>
0.1786

> <Gold.PLP.Chemscore.Hbond>
3.9840

> <Gold.PLP.Chemscore.CHOScore>
0.0000

> <Gold.PLP.Chemscore.Metal>
0.0000

> <Gold.Chemscore.Hbonds>
donor molecule, donor type, donor heavy atom, donor atom, acceptor molecule, acceptor atom, score
      P1  H  6931  6943       L1    24  0.73
      P1  H  6934  6947       L1    24  0.96
      P1  H  7989  7998       L1    15  0.25
      P1  H  7997  8008       L1    15  1.00
      P1  H 10752 10765       L1    18  1.00

> <Gold.PLP.Chemscore.Internal.Correction>
0.2057

> <Gold.Rescore>
     Score         DG    S(hbond)    S(metal)    S(lipo)     H(rot)  DE(clash)    DE(int)     intcor
      9.33     -12.51       3.41        0.00      35.52       3.33       0.71       2.46       ----

> <Gold.Chemscore.Fitness>
9.3328

> <Gold.Chemscore.DG>
-12.5050

> <Gold.Chemscore.ZeroCoef>
-5.4800

> <Gold.Chemscore.Hbond>
3.4117

> <Gold.Chemscore.Metal>
0.0000

> <Gold.Chemscore.Lipo>
35.5175

> <Gold.Chemscore.Internal_Hbond>
0.0000

> <Gold.Chemscore.DEClash>
0.7121

> <Gold.Chemscore.DEInternal>
2.4601

> <Gold.Chemscore.Rot>
3.3303

> <Gold.Chemscore.Internal.Correction>
   9.000000E+99

> <Gold.Chemscore.Hbonds>
donor molecule, donor type, donor heavy atom, donor atom, acceptor molecule, acceptor atom, score
      P1  H  6931  6943       L1    24  0.66
      P1  H  6934  6947       L1    24  0.92
      P1  H  7989  7998       L1    15  0.01
      P1  H  7997  8008       L1    15  0.95
      P1  H 10752 10765       L1    18  0.53

> <Gold.Chemscore.Hbond.Weighted>
-11.3951

> <Gold.Chemscore.Metal.Weighted>
-0.0000

> <Gold.Chemscore.Lipo.Weighted>
-4.1555

> <Gold.Chemscore.Internal_Hbond.Weighted>
0.0000

> <Gold.Chemscore.DEClash.Weighted>
0.7121

> <Gold.Chemscore.DEInternal.Weighted>
2.4601

> <Gold.Chemscore.Rot.Weighted>
8.5256

> <Gold.Chemscore.Internal.Correction.Weighted>
   9.000000E+99

> <Gold.Protein.RotatedTorsions>
[ 6907 6896 6895 6894 ] final   50.19 input  -60.11 | X-H torsion
[ 7974 7965 7964 7962 ] final   62.19 input  175.53 | X-H torsion
[ 8008 7997 7996 7995 ] final  -24.13 input   59.86 | X-H torsion
[ 10167 10162 10161 10158 ] final -179.28 input  -65.29 | X-H torsion
[ 10718 10713 10712 10709 ] final -147.04 input   66.30 | X-H torsion
[ 10763 10752 10751 10750 ] final -159.72 input  -60.55 | X-H torsion
[ 11005 11000 10999 10996 ] final -120.95 input  -57.11 | X-H torsion

> <Gold.Protein.ActiveResidues>
 VAL166  LYS551  ARG553  GLY616  TRP617  ASP618  TYR619  PRO620  LYS621  CYS622 
 ASP623  PHE694  ASN695  SER759  ASP760  ASP761  ALA762  ILE779  LEU786  VAL792 
 PHE793  MET794  SER795  GLU796  ALA797  LYS798  CYS799  TRP800  GLU811  SER814 

> <Gold.Protein.RotatedAtoms>
  152.2991  134.7632  160.0361 H   0  0  0  0  0  0  0  0  0  0  0  0  # atno 6907 bound_to 6896
  151.8151  133.3381  159.3575 H   0  0  0  0  0  0  0  0  0  0  0  0  # atno 6908 bound_to 6896
  150.7265  134.5556  159.5861 H   0  0  0  0  0  0  0  0  0  0  0  0  # atno 6909 bound_to 6896
  145.8762  139.3411  143.0733 H   0  0  0  0  0  0  0  0  0  0  0  0  # atno 7974 bound_to 7965
  154.4546  140.1962  156.0417 H   0  0  0  0  0  0  0  0  0  0  0  0  # atno 8008 bound_to 7997
  156.0720  140.3283  155.7559 H   0  0  0  0  0  0  0  0  0  0  0  0  # atno 8009 bound_to 7997
  155.5249  140.0573  157.2890 H   0  0  0  0  0  0  0  0  0  0  0  0  # atno 8010 bound_to 7997
  139.5393  144.2407  152.0862 H   0  0  0  0  0  0  0  0  0  0  0  0  # atno 10167 bound_to 10162
  156.4024  130.7941  151.2152 H   0  0  0  0  0  0  0  0  0  0  0  0  # atno 10718 bound_to 10713
  154.7451  135.3078  154.8659 H   0  0  0  0  0  0  0  0  0  0  0  0  # atno 10763 bound_to 10752
  153.9462  135.6769  153.4748 H   0  0  0  0  0  0  0  0  0  0  0  0  # atno 10764 bound_to 10752
  153.1048  135.4894  154.8858 H   0  0  0  0  0  0  0  0  0  0  0  0  # atno 10765 bound_to 10752
  141.0106  134.0270  157.3418 H   0  0  0  0  0  0  0  0  0  0  0  0  # atno 11005 bound_to 11000
  145.9078  140.9200  143.0469 LP  0  0  0  0  0  0  0  0  0  0  0  0  # atno 17320 bound_to 7965
  144.6726  140.1120  143.7455 LP  0  0  0  0  0  0  0  0  0  0  0  0  # atno 17321 bound_to 7965
  140.1883  144.4777  150.6492 LP  0  0  0  0  0  0  0  0  0  0  0  0  # atno 17342 bound_to 10162
  140.6616  143.2254  151.5843 LP  0  0  0  0  0  0  0  0  0  0  0  0  # atno 17343 bound_to 10162
  157.7504  131.0282  150.4041 LP  0  0  0  0  0  0  0  0  0  0  0  0  # atno 17370 bound_to 10713
  156.4323  130.3974  149.6752 LP  0  0  0  0  0  0  0  0  0  0  0  0  # atno 17371 bound_to 10713
  139.9088  135.0186  156.7601 LP  0  0  0  0  0  0  0  0  0  0  0  0  # atno 17394 bound_to 11000
  140.6740  133.9534  155.7872 LP  0  0  0  0  0  0  0  0  0  0  0  0  # atno 17395 bound_to 11000

$$$$
