AV-unprocessed.smi:2883|AV-procd|sdf|11078|dock4
  -GOLD-   2272015553D 1   1.00000     0.00000
 Structure written by MMmdl.
 40 42  0  0  0  0  0  0  0  0  2 V2000
  150.9490  137.1204  154.6636 C   0  0  0  0  0  0  0  0  0  0  0  0
  151.4954  138.3300  155.4576 C   0  0  0  0  0  0  0  0  0  0  0  0
  151.3591  137.9650  156.9534 C   0  0  0  0  0  0  0  0  0  0  0  0
  152.9797  138.5506  155.1137 C   0  0  0  0  0  0  0  0  0  0  0  0
  150.7014  139.6027  155.1305 C   0  0  0  0  0  0  0  0  0  0  0  0
  149.6947  139.5398  154.2401 N   0  3  0  0  0  0  0  0  0  0  0  0
  148.9086  140.6222  154.0231 C   0  0  0  0  0  0  0  0  0  0  0  0
  149.1144  141.8088  154.7495 C   0  0  0  0  0  0  0  0  0  0  0  0
  150.1513  141.8003  155.6965 C   0  0  0  0  0  0  0  0  0  0  0  0
  150.3987  142.9461  156.4650 N   0  0  0  0  0  0  0  0  0  0  0  0
  151.4493  142.9612  157.4777 C   0  0  1  0  0  0  0  0  0  0  0  0
  151.7845  144.3732  157.9770 C   0  0  0  0  0  0  0  0  0  0  0  0
  151.5690  144.2340  159.4890 C   0  0  2  0  0  0  0  0  0  0  0  0
  152.6289  143.3414  160.1487 C   0  0  0  0  0  0  0  0  0  0  0  0
  152.2075  141.9516  159.6725 C   0  0  0  0  0  0  0  0  0  0  0  0
  151.0019  142.2756  158.7796 C   0  0  1  0  0  0  0  0  0  0  0  0
  150.4498  143.3662  159.4990 O   0  0  0  0  0  0  0  0  0  0  0  0
  150.9069  140.6961  155.8811 N   0  0  0  0  0  0  0  0  0  0  0  0
  151.4818  136.2041  154.9198 H   0  0  0  0  0  0  0  0  0  0  0  0
  151.0557  137.2555  153.5865 H   0  0  0  0  0  0  0  0  0  0  0  0
  149.8914  136.9525  154.8717 H   0  0  0  0  0  0  0  0  0  0  0  0
  150.3148  137.8226  157.2349 H   0  0  0  0  0  0  0  0  0  0  0  0
  151.7761  138.7357  157.6026 H   0  0  0  0  0  0  0  0  0  0  0  0
  151.8882  137.0395  157.1845 H   0  0  0  0  0  0  0  0  0  0  0  0
  153.5750  137.6631  155.3314 H   0  0  0  0  0  0  0  0  0  0  0  0
  153.4010  139.3778  155.6862 H   0  0  0  0  0  0  0  0  0  0  0  0
  153.1117  138.7829  154.0563 H   0  0  0  0  0  0  0  0  0  0  0  0
  148.1332  140.4992  153.2811 H   0  0  0  0  0  0  0  0  0  0  0  0
  148.4947  142.6795  154.5904 H   0  0  0  0  0  0  0  0  0  0  0  0
  149.9766  143.8248  156.2012 H   0  0  0  0  0  0  0  0  0  0  0  0
  152.3330  142.4578  157.0833 H   0  0  0  0  0  0  0  0  0  0  0  0
  152.8016  144.6766  157.7263 H   0  0  0  0  0  0  0  0  0  0  0  0
  151.1001  145.1188  157.5690 H   0  0  0  0  0  0  0  0  0  0  0  0
  151.4063  145.1826  160.0013 H   0  0  0  0  0  0  0  0  0  0  0  0
  153.6412  143.6068  159.8422 H   0  0  0  0  0  0  0  0  0  0  0  0
  152.5718  143.4061  161.2359 H   0  0  0  0  0  0  0  0  0  0  0  0
  152.9989  141.4290  159.1341 H   0  0  0  0  0  0  0  0  0  0  0  0
  151.9055  141.3335  160.5187 H   0  0  0  0  0  0  0  0  0  0  0  0
  150.3246  141.4321  158.6397 H   0  0  0  0  0  0  0  0  0  0  0  0
  149.5195  138.6800  153.7195 H   0  0  0  0  0  0  0  0  0  0  0  0
  1  2  1  0  0  0  0
  1 19  1  0  0  0  0
  1 20  1  0  0  0  0
  1 21  1  0  0  0  0
  2  3  1  0  0  0  0
  2  4  1  0  0  0  0
  2  5  1  0  0  0  0
  3 22  1  0  0  0  0
  3 23  1  0  0  0  0
  3 24  1  0  0  0  0
  4 25  1  0  0  0  0
  4 26  1  0  0  0  0
  4 27  1  0  0  0  0
  5 18  1  0  0  0  0
  5  6  2  0  0  0  0
  6  7  1  0  0  0  0
  6 40  1  0  0  0  0
  7  8  2  0  0  0  0
  7 28  1  0  0  0  0
  8  9  1  0  0  0  0
  8 29  1  0  0  0  0
  9 10  1  0  0  0  0
  9 18  2  0  0  0  0
 10 11  1  0  0  0  0
 10 30  1  0  0  0  0
 11 16  1  0  0  0  0
 11 12  1  0  0  0  0
 11 31  1  0  0  0  0
 12 13  1  0  0  0  0
 12 32  1  0  0  0  0
 12 33  1  0  0  0  0
 13 17  1  0  0  0  0
 13 14  1  0  0  0  0
 13 34  1  0  0  0  0
 14 15  1  0  0  0  0
 14 35  1  0  0  0  0
 14 36  1  0  0  0  0
 15 16  1  0  0  0  0
 15 37  1  0  0  0  0
 15 38  1  0  0  0  0
 16 17  1  0  0  0  0
 16 39  1  0  0  0  0
M  CHG  1   6   1
M  END
> <s_m_source_file>
AV-unprocessed.smi

> <i_m_source_file_index>
2883

> <i_lp_mmshare_version>
43012

> <i_f3d_flags>
0

> <s_epik_input>
W0NIM11DKFtDSDNdKShbQ0gzXSljMW5bY0hdW2NIXWMobjEpW05IXVtDQEhdKFtDSDJdW0NAQEhdMjMpW0NAQEhdKE8zKVtDSDJdW0NIMl0y

> <s_epik_cmdline>
J2VwaWtfcHl0aG9uJywgJy1waCcsICc3LjAnLCAnLXRuJywgJzgnLCAnLW1hJywgJzIwMCcsICctbWV0YWxfYmluZGluZycsICctaW1hZScsICc8aW5maWxlLm1hZT4nLCAnLW9tYWUnLCAnPG91dGZpbGUubWFlPic=

> <r_lp_tautomer_probability>
0.999336

> <r_epik_Ionization_Penalty>
0.371831

> <r_epik_Ionization_Penalty_Charging>
0.371821

> <r_epik_Ionization_Penalty_Neutral>
1.06897e-05

> <r_epik_State_Penalty>
0.369311

> <r_epik_Charging_Adjusted_Penalty>
0.741132

> <i_epik_Tot_Q>
1

> <i_epik_Tot_abs_Q>
1

> <r_epik_Metal_State_Penalty>
0.621338

> <b_epik_Metal_Only>
0

> <s_lp_Force_Field>
OPLS_2005

> <r_lp_Energy>
38.7214

> <b_lp_Chiralities_Consistent>
1

> <s_lp_Variant>
AV-unprocessed.smi:2883-4

> <Gold.Version>
5.8.1

> <Gold.Id.Protein>
6NUR|6NUR_protein|mol2

> <Gold.PLP.Fitness>
44.4285

> <Gold.PLP.PLP>
-41.9355

> <Gold.PLP.part.hbond>
-2.5434

> <Gold.PLP.part.metal>
0.0000

> <Gold.PLP.part.buried>
-1.9029

> <Gold.PLP.part.nonpolar>
-37.3237

> <Gold.PLP.part.repulsive>
0.2657

> <Gold.PLP.ligand.clash>
0.0000

> <Gold.PLP.ligand.torsion>
0.3336

> <Gold.PLP.Chemscore.Hbond>
1.0000

> <Gold.PLP.Chemscore.CHOScore>
0.0000

> <Gold.PLP.Chemscore.Metal>
0.0000

> <Gold.Chemscore.Hbonds>
donor molecule, donor type, donor heavy atom, donor atom, acceptor molecule, acceptor atom, score
      L1  H    10    30       P1  8028  0.93

> <Gold.PLP.Chemscore.Internal.Correction>
0.1602

> <Gold.Rescore>
     Score         DG    S(hbond)    S(metal)    S(lipo)     H(rot)  DE(clash)    DE(int)     intcor
     18.27     -18.87       0.99        0.00     111.59       1.16       0.08       0.53       ----

> <Gold.Chemscore.Fitness>
18.2679

> <Gold.Chemscore.DG>
-18.8703

> <Gold.Chemscore.ZeroCoef>
-5.4800

> <Gold.Chemscore.Hbond>
0.9913

> <Gold.Chemscore.Metal>
0.0000

> <Gold.Chemscore.Lipo>
111.5866

> <Gold.Chemscore.Internal_Hbond>
0.0000

> <Gold.Chemscore.DEClash>
0.0766

> <Gold.Chemscore.DEInternal>
0.5258

> <Gold.Chemscore.Rot>
1.1626

> <Gold.Chemscore.Internal.Correction>
   9.000000E+99

> <Gold.Chemscore.Hbonds>
donor molecule, donor type, donor heavy atom, donor atom, acceptor molecule, acceptor atom, score
      L1  H    10    30       P1  8028  0.88

> <Gold.Chemscore.Hbond.Weighted>
-3.3110

> <Gold.Chemscore.Metal.Weighted>
-0.0000

> <Gold.Chemscore.Lipo.Weighted>
-13.0556

> <Gold.Chemscore.Internal_Hbond.Weighted>
0.0000

> <Gold.Chemscore.DEClash.Weighted>
0.0766

> <Gold.Chemscore.DEInternal.Weighted>
0.5258

> <Gold.Chemscore.Rot.Weighted>
2.9763

> <Gold.Chemscore.Internal.Correction.Weighted>
   9.000000E+99

> <Gold.Protein.RotatedTorsions>
[ 6907 6896 6895 6894 ] final   58.36 input  -60.11 | X-H torsion
[ 7974 7965 7964 7962 ] final    9.92 input  175.53 | X-H torsion
[ 8008 7997 7996 7995 ] final  166.13 input   59.86 | X-H torsion
[ 10167 10162 10161 10158 ] final    5.68 input  -65.29 | X-H torsion
[ 10718 10713 10712 10709 ] final  -94.45 input   66.30 | X-H torsion
[ 10763 10752 10751 10750 ] final  140.81 input  -60.55 | X-H torsion
[ 11005 11000 10999 10996 ] final  -52.07 input  -57.11 | X-H torsion

> <Gold.Protein.ActiveResidues>
 VAL166  LYS551  ARG553  GLY616  TRP617  ASP618  TYR619  PRO620  LYS621  CYS622 
 ASP623  PHE694  ASN695  SER759  ASP760  ASP761  ALA762  ILE779  LEU786  VAL792 
 PHE793  MET794  SER795  GLU796  ALA797  LYS798  CYS799  TRP800  GLU811  SER814 

> <Gold.Protein.RotatedAtoms>
  152.3817  134.6580  160.0140 H   0  0  0  0  0  0  0  0  0  0  0  0  # atno 6907 bound_to 6896
  151.6841  133.3306  159.3234 H   0  0  0  0  0  0  0  0  0  0  0  0  # atno 6908 bound_to 6896
  150.7753  134.6691  159.6426 H   0  0  0  0  0  0  0  0  0  0  0  0  # atno 6909 bound_to 6896
  146.2396  139.9711  142.8447 H   0  0  0  0  0  0  0  0  0  0  0  0  # atno 7974 bound_to 7965
  156.1743  140.1651  156.8390 H   0  0  0  0  0  0  0  0  0  0  0  0  # atno 8008 bound_to 7997
  154.5290  140.0761  156.8345 H   0  0  0  0  0  0  0  0  0  0  0  0  # atno 8009 bound_to 7997
  155.3446  140.3386  155.4241 H   0  0  0  0  0  0  0  0  0  0  0  0  # atno 8010 bound_to 7997
  140.6469  143.7641  150.7513 H   0  0  0  0  0  0  0  0  0  0  0  0  # atno 10167 bound_to 10162
  156.0027  130.5068  150.5929 H   0  0  0  0  0  0  0  0  0  0  0  0  # atno 10718 bound_to 10713
  153.9289  135.2992  155.3446 H   0  0  0  0  0  0  0  0  0  0  0  0  # atno 10763 bound_to 10752
  154.7537  135.4968  153.9339 H   0  0  0  0  0  0  0  0  0  0  0  0  # atno 10764 bound_to 10752
  153.1102  135.6757  153.9618 H   0  0  0  0  0  0  0  0  0  0  0  0  # atno 10765 bound_to 10752
  141.0905  133.6634  156.3970 H   0  0  0  0  0  0  0  0  0  0  0  0  # atno 11005 bound_to 11000
  145.1680  140.9706  143.4338 LP  0  0  0  0  0  0  0  0  0  0  0  0  # atno 17320 bound_to 7965
  145.0055  139.3558  143.6146 LP  0  0  0  0  0  0  0  0  0  0  0  0  # atno 17321 bound_to 7965
  140.1283  143.4549  152.2270 LP  0  0  0  0  0  0  0  0  0  0  0  0  # atno 17342 bound_to 10162
  139.5680  144.7446  151.3969 LP  0  0  0  0  0  0  0  0  0  0  0  0  # atno 17343 bound_to 10162
  157.3791  131.0778  151.1492 LP  0  0  0  0  0  0  0  0  0  0  0  0  # atno 17370 bound_to 10713
  157.2221  130.6486  149.5815 LP  0  0  0  0  0  0  0  0  0  0  0  0  # atno 17371 bound_to 10713
  140.5264  134.6255  157.5335 LP  0  0  0  0  0  0  0  0  0  0  0  0  # atno 17394 bound_to 11000
  139.9730  134.7262  156.0005 LP  0  0  0  0  0  0  0  0  0  0  0  0  # atno 17395 bound_to 11000

$$$$
