AV-unprocessed.smi:53|AV-procd|sdf|528|dock1
  -GOLD-   2262016403D 1   1.00000     0.00000
 Structure written by MMmdl.
 30 31  0  0  0  0  0  0  0  0  1 V2000
  154.5183  141.4759  161.0165 N   0  0  0  0  0  0  0  0  0  0  0  0
  153.6433  141.0477  160.0956 C   0  0  0  0  0  0  0  0  0  0  0  0
  152.9241  141.9955  159.2744 C   0  0  0  0  0  0  0  0  0  0  0  0
  152.0580  141.4855  158.3714 C   0  0  0  0  0  0  0  0  0  0  0  0
  151.8527  140.1199  158.2340 N   0  0  0  0  0  0  0  0  0  0  0  0
  150.8751  139.5845  157.2097 C   0  0  1  0  0  0  0  0  0  0  0  0
  150.1653  140.6573  156.6774 O   0  0  0  0  0  0  0  0  0  0  0  0
  149.8024  140.3406  155.3430 C   0  0  1  0  0  0  0  0  0  0  0  0
  149.4702  141.6275  154.5731 C   0  0  0  0  0  0  0  0  0  0  0  0
  149.3425  141.3462  153.1959 O   0  0  0  0  0  0  0  0  0  0  0  0
  151.0475  139.6167  154.8179 C   0  0  2  0  0  0  0  0  0  0  0  0
  150.6942  138.7316  153.7729 O   0  0  0  0  0  0  0  0  0  0  0  0
  151.5556  138.8457  156.0343 C   0  0  1  0  0  0  0  0  0  0  0  0
  152.9717  138.8568  156.0760 O   0  0  0  0  0  0  0  0  0  0  0  0
  152.5858  139.2151  159.0382 C   0  0  0  0  0  0  0  0  0  0  0  0
  152.4646  137.9961  158.9226 O   0  0  0  0  0  0  0  0  0  0  0  0
  153.4555  139.7499  159.9505 N   0  0  0  0  0  0  0  0  0  0  0  0
  150.1570  138.9568  157.7407 H   0  0  0  0  0  0  0  0  0  0  0  0
  148.9512  139.6560  155.3593 H   0  0  0  0  0  0  0  0  0  0  0  0
  151.7892  140.3407  154.4759 H   0  0  0  0  0  0  0  0  0  0  0  0
  151.2006  137.8140  156.0397 H   0  0  0  0  0  0  0  0  0  0  0  0
  155.0224  140.8123  161.5866 H   0  0  0  0  0  0  0  0  0  0  0  0
  154.6721  142.4666  161.1385 H   0  0  0  0  0  0  0  0  0  0  0  0
  153.0499  143.0660  159.3516 H   0  0  0  0  0  0  0  0  0  0  0  0
  151.5187  142.1750  157.7382 H   0  0  0  0  0  0  0  0  0  0  0  0
  148.5611  142.0950  154.9530 H   0  0  0  0  0  0  0  0  0  0  0  0
  150.2783  142.3510  154.6847 H   0  0  0  0  0  0  0  0  0  0  0  0
  149.7155  140.4938  153.0293 H   0  0  0  0  0  0  0  0  0  0  0  0
  150.3698  139.2391  153.0449 H   0  0  0  0  0  0  0  0  0  0  0  0
  153.2910  138.1621  155.5204 H   0  0  0  0  0  0  0  0  0  0  0  0
  1  2  1  0  0  0  0
  1 22  1  0  0  0  0
  1 23  1  0  0  0  0
  2 17  2  0  0  0  0
  2  3  1  0  0  0  0
  3  4  2  0  0  0  0
  3 24  1  0  0  0  0
  4  5  1  0  0  0  0
  4 25  1  0  0  0  0
  5  6  1  0  0  0  0
  5 15  1  0  0  0  0
  6 18  1  0  0  0  0
  6 13  1  0  0  0  0
  6  7  1  0  0  0  0
  7  8  1  0  0  0  0
  8 19  1  0  0  0  0
  8  9  1  0  0  0  0
  8 11  1  0  0  0  0
  9 10  1  0  0  0  0
  9 26  1  0  0  0  0
  9 27  1  0  0  0  0
 10 28  1  0  0  0  0
 11 20  1  0  0  0  0
 11 12  1  0  0  0  0
 11 13  1  0  0  0  0
 12 29  1  0  0  0  0
 13 21  1  0  0  0  0
 13 14  1  0  0  0  0
 14 30  1  0  0  0  0
 15 16  2  0  0  0  0
 15 17  1  0  0  0  0
M  END
> <s_m_source_file>
AV-unprocessed.smi

> <i_m_source_file_index>
53

> <i_lp_mmshare_version>
43012

> <i_f3d_flags>
0

> <s_epik_input>
W05IMl1jMVtjSF1bY0hdbihjKD1PKW4xKVtDQEBIXTJPW0NASF0oW0NIMl1bT0hdKVtDQEBIXShbT0hdKVtDQEBIXTJbT0hd

> <s_epik_cmdline>
J2VwaWtfcHl0aG9uJywgJy1waCcsICc3LjAnLCAnLXRuJywgJzgnLCAnLW1hJywgJzIwMCcsICctbWV0YWxfYmluZGluZycsICctaW1hZScsICc8aW5maWxlLm1hZT4nLCAnLW9tYWUnLCAnPG91dGZpbGUubWFlPic=

> <r_lp_tautomer_probability>
0.99996

> <r_epik_Ionization_Penalty>
0.00069087

> <r_epik_Ionization_Penalty_Charging>
2.61959e-08

> <r_epik_Ionization_Penalty_Neutral>
0.000690844

> <r_epik_State_Penalty>
1.15523e-05

> <r_epik_Charging_Adjusted_Penalty>
1.15785e-05

> <i_epik_Tot_Q>
0

> <i_epik_Tot_abs_Q>
0

> <r_epik_Metal_State_Penalty>
-0

> <b_epik_Metal_Only>
0

> <s_epik_Chemistry_Notes>
This compound contains an acetal/aminal-like group ( X-CH(R)-Y where X, Y are N, S, or O) that may be acid/base labile, releasing an aldehyde.

> <s_lp_Force_Field>
OPLS_2005

> <r_lp_Energy>
34.4985

> <b_lp_Chiralities_Consistent>
1

> <s_lp_Variant>
AV-unprocessed.smi:53-16

> <Gold.Version>
5.8.1

> <Gold.Id.Protein>
6NUR|6NUR_protein|mol2

> <Gold.PLP.Fitness>
36.9909

> <Gold.PLP.PLP>
-27.5697

> <Gold.PLP.part.hbond>
-6.5962

> <Gold.PLP.part.metal>
0.0000

> <Gold.PLP.part.buried>
1.6476

> <Gold.PLP.part.nonpolar>
-21.2921

> <Gold.PLP.part.repulsive>
0.0396

> <Gold.PLP.ligand.clash>
0.0000

> <Gold.PLP.ligand.torsion>
0.1705

> <Gold.PLP.Chemscore.Hbond>
3.1698

> <Gold.PLP.Chemscore.CHOScore>
0.0000

> <Gold.PLP.Chemscore.Metal>
0.0000

> <Gold.Chemscore.Hbonds>
donor molecule, donor type, donor heavy atom, donor atom, acceptor molecule, acceptor atom, score
      L1  H    10    28       P1  7957  0.22
      L1  H    12    29       P1  7957  0.65
      P1  H  7997  8010       L1    14  1.00
      P1  H  8011  8017       L1    10  0.78

> <Gold.PLP.Chemscore.Internal.Correction>
0.2529

> <Gold.Rescore>
     Score         DG    S(hbond)    S(metal)    S(lipo)     H(rot)  DE(clash)    DE(int)     intcor
      8.90      -9.96       2.60        0.00      45.32       3.71       0.66       0.40       ----

> <Gold.Chemscore.Fitness>
8.8996

> <Gold.Chemscore.DG>
-9.9581

> <Gold.Chemscore.ZeroCoef>
-5.4800

> <Gold.Chemscore.Hbond>
2.5964

> <Gold.Chemscore.Metal>
0.0000

> <Gold.Chemscore.Lipo>
45.3202

> <Gold.Chemscore.Internal_Hbond>
0.0000

> <Gold.Chemscore.DEClash>
0.6553

> <Gold.Chemscore.DEInternal>
0.4032

> <Gold.Chemscore.Rot>
3.7095

> <Gold.Chemscore.Internal.Correction>
   9.000000E+99

> <Gold.Chemscore.Hbonds>
donor molecule, donor type, donor heavy atom, donor atom, acceptor molecule, acceptor atom, score
      L1  H    10    28       P1  7957  0.22
      L1  H    12    29       P1  7957  0.53
      P1  H  7997  8010       L1    14  0.60
      P1  H  8011  8017       L1    10  0.63

> <Gold.Chemscore.Hbond.Weighted>
-8.6720

> <Gold.Chemscore.Metal.Weighted>
-0.0000

> <Gold.Chemscore.Lipo.Weighted>
-5.3025

> <Gold.Chemscore.Internal_Hbond.Weighted>
0.0000

> <Gold.Chemscore.DEClash.Weighted>
0.6553

> <Gold.Chemscore.DEInternal.Weighted>
0.4032

> <Gold.Chemscore.Rot.Weighted>
9.4964

> <Gold.Chemscore.Internal.Correction.Weighted>
   9.000000E+99

> <Gold.Protein.RotatedTorsions>
[ 6907 6896 6895 6894 ] final  -70.49 input  -60.11 | X-H torsion
[ 7974 7965 7964 7962 ] final  172.51 input  175.53 | X-H torsion
[ 8008 7997 7996 7995 ] final   83.11 input   59.86 | X-H torsion
[ 10167 10162 10161 10158 ] final -149.08 input  -65.29 | X-H torsion
[ 10718 10713 10712 10709 ] final -171.19 input   66.30 | X-H torsion
[ 10763 10752 10751 10750 ] final   71.49 input  -60.55 | X-H torsion
[ 11005 11000 10999 10996 ] final -109.98 input  -57.11 | X-H torsion

> <Gold.Protein.ActiveResidues>
 VAL166  LYS551  ARG553  GLY616  TRP617  ASP618  TYR619  PRO620  LYS621  CYS622 
 ASP623  PHE694  ASN695  SER759  ASP760  ASP761  ALA762  ILE779  LEU786  VAL792 
 PHE793  MET794  SER795  GLU796  ALA797  LYS798  CYS799  TRP800  GLU811  SER814 

> <Gold.Protein.RotatedAtoms>
  150.7255  134.5445  159.5763 H   0  0  0  0  0  0  0  0  0  0  0  0  # atno 6907 bound_to 6896
  152.2948  134.7677  160.0379 H   0  0  0  0  0  0  0  0  0  0  0  0  # atno 6908 bound_to 6896
  151.8278  133.3368  159.3641 H   0  0  0  0  0  0  0  0  0  0  0  0  # atno 6909 bound_to 6896
  144.7266  139.9509  143.6432 H   0  0  0  0  0  0  0  0  0  0  0  0  # atno 7974 bound_to 7965
  155.9195  140.3422  155.6162 H   0  0  0  0  0  0  0  0  0  0  0  0  # atno 8008 bound_to 7997
  155.7290  140.0793  157.2316 H   0  0  0  0  0  0  0  0  0  0  0  0  # atno 8009 bound_to 7997
  154.4067  140.1591  156.2475 H   0  0  0  0  0  0  0  0  0  0  0  0  # atno 8010 bound_to 7997
  139.7474  143.8570  152.2578 H   0  0  0  0  0  0  0  0  0  0  0  0  # atno 10167 bound_to 10162
  156.7372  130.9328  151.3108 H   0  0  0  0  0  0  0  0  0  0  0  0  # atno 10718 bound_to 10713
  153.0402  135.5135  154.7602 H   0  0  0  0  0  0  0  0  0  0  0  0  # atno 10763 bound_to 10752
  154.6545  135.2930  154.9947 H   0  0  0  0  0  0  0  0  0  0  0  0  # atno 10764 bound_to 10752
  154.0820  135.6662  153.4892 H   0  0  0  0  0  0  0  0  0  0  0  0  # atno 10765 bound_to 10752
  141.0817  133.9208  157.2273 H   0  0  0  0  0  0  0  0  0  0  0  0  # atno 11005 bound_to 11000
  146.0712  139.3701  143.0522 LP  0  0  0  0  0  0  0  0  0  0  0  0  # atno 17320 bound_to 7965
  145.7965  140.9790  143.1021 LP  0  0  0  0  0  0  0  0  0  0  0  0  # atno 17321 bound_to 7965
  139.8538  144.7151  150.9182 LP  0  0  0  0  0  0  0  0  0  0  0  0  # atno 17342 bound_to 10162
  140.7794  143.3876  151.1366 LP  0  0  0  0  0  0  0  0  0  0  0  0  # atno 17343 bound_to 10162
  157.6834  130.9162  150.0324 LP  0  0  0  0  0  0  0  0  0  0  0  0  # atno 17370 bound_to 10713
  156.1489  130.3642  149.9468 LP  0  0  0  0  0  0  0  0  0  0  0  0  # atno 17371 bound_to 10713
  139.9632  135.0149  156.9316 LP  0  0  0  0  0  0  0  0  0  0  0  0  # atno 17394 bound_to 11000
  140.5453  134.0680  155.7353 LP  0  0  0  0  0  0  0  0  0  0  0  0  # atno 17395 bound_to 11000

$$$$
