AV-unprocessed.smi:2834|AV-procd|sdf|10916|dock5
  -GOLD-   2272015363D 1   1.00000     0.00000
 Structure written by MMmdl.
 35 36  0  0  0  0  0  0  0  0  1 V2000
  147.0749  141.1133  152.9447 C   0  0  0  0  0  0  0  0  0  0  0  0
  146.6883  142.0271  154.1265 C   0  0  1  0  0  0  0  0  0  0  0  0
  147.8483  142.2673  154.9958 N   0  0  0  0  0  0  0  0  0  0  0  0
  148.6442  141.3569  155.5802 C   0  0  0  0  0  0  0  0  0  0  0  0
  148.5006  140.1399  155.4636 O   0  0  0  0  0  0  0  0  0  0  0  0
  149.6094  141.9514  156.3003 N   0  0  0  0  0  0  0  0  0  0  0  0
  150.6374  141.3227  157.0473 C   0  0  0  0  0  0  0  0  0  0  0  0
  151.6353  140.4769  156.4975 C   0  0  0  0  0  0  0  0  0  0  0  0
  152.4593  140.0359  157.4356 N   0  0  0  0  0  0  0  0  0  0  0  0
  152.0074  140.5878  158.5891 N   0  0  0  0  0  0  0  0  0  0  0  0
  152.6972  140.3120  159.8362 C   0  0  0  0  0  0  0  0  0  0  0  0
  153.2968  141.5798  160.4669 C   0  0  0  0  0  0  0  0  0  0  0  0
  154.1037  142.1672  159.5840 F   0  0  0  0  0  0  0  0  0  0  0  0
  152.3343  142.4394  160.8022 F   0  0  0  0  0  0  0  0  0  0  0  0
  154.0067  141.2695  161.5521 F   0  0  0  0  0  0  0  0  0  0  0  0
  150.8943  141.3799  158.3880 C   0  0  0  0  0  0  0  0  0  0  0  0
  146.0185  143.3258  153.6853 C   0  0  0  0  0  0  0  0  0  0  0  0
  145.1947  143.7168  154.9072 C   0  0  0  0  0  0  0  0  0  0  0  0
  144.7940  142.4885  155.5011 O   0  0  0  0  0  0  0  0  0  0  0  0
  145.5653  141.4111  154.9751 C   0  0  0  0  0  0  0  0  0  0  0  0
  146.2057  140.8637  152.3355 H   0  0  0  0  0  0  0  0  0  0  0  0
  147.5068  140.1759  153.2970 H   0  0  0  0  0  0  0  0  0  0  0  0
  147.8013  141.5865  152.2842 H   0  0  0  0  0  0  0  0  0  0  0  0
  148.0685  143.2381  155.1642 H   0  0  0  0  0  0  0  0  0  0  0  0
  149.6112  142.9608  156.3132 H   0  0  0  0  0  0  0  0  0  0  0  0
  151.7864  140.1739  155.4717 H   0  0  0  0  0  0  0  0  0  0  0  0
  151.9887  139.8488  160.5244 H   0  0  0  0  0  0  0  0  0  0  0  0
  153.4798  139.5747  159.6505 H   0  0  0  0  0  0  0  0  0  0  0  0
  150.4054  141.8977  159.2000 H   0  0  0  0  0  0  0  0  0  0  0  0
  146.7066  144.1108  153.3723 H   0  0  0  0  0  0  0  0  0  0  0  0
  145.3461  143.1320  152.8484 H   0  0  0  0  0  0  0  0  0  0  0  0
  145.8102  144.2660  155.6208 H   0  0  0  0  0  0  0  0  0  0  0  0
  144.3357  144.3376  154.6523 H   0  0  0  0  0  0  0  0  0  0  0  0
  144.8990  140.8089  154.3561 H   0  0  0  0  0  0  0  0  0  0  0  0
  145.9363  140.7650  155.7717 H   0  0  0  0  0  0  0  0  0  0  0  0
  1  2  1  0  0  0  0
  1 21  1  0  0  0  0
  1 22  1  0  0  0  0
  1 23  1  0  0  0  0
  2 20  1  0  0  0  0
  2  3  1  0  0  0  0
  2 17  1  0  0  0  0
  3  4  1  0  0  0  0
  3 24  1  0  0  0  0
  4  5  2  0  0  0  0
  4  6  1  0  0  0  0
  6  7  1  0  0  0  0
  6 25  1  0  0  0  0
  7 16  2  0  0  0  0
  7  8  1  0  0  0  0
  8  9  2  0  0  0  0
  8 26  1  0  0  0  0
  9 10  1  0  0  0  0
 10 11  1  0  0  0  0
 10 16  1  0  0  0  0
 11 12  1  0  0  0  0
 11 27  1  0  0  0  0
 11 28  1  0  0  0  0
 12 13  1  0  0  0  0
 12 14  1  0  0  0  0
 12 15  1  0  0  0  0
 16 29  1  0  0  0  0
 17 18  1  0  0  0  0
 17 30  1  0  0  0  0
 17 31  1  0  0  0  0
 18 19  1  0  0  0  0
 18 32  1  0  0  0  0
 18 33  1  0  0  0  0
 19 20  1  0  0  0  0
 20 34  1  0  0  0  0
 20 35  1  0  0  0  0
M  END
> <s_m_source_file>
AV-unprocessed.smi

> <i_m_source_file_index>
2834

> <i_lp_mmshare_version>
43012

> <i_f3d_flags>
0

> <s_epik_input>
W0NIMl0xT1tDSDJdW0NIMl1bQ0BAXTEoW0NIM10pW05IXUMoPU8pW05IXWMyW2NIXW5uKFtjSF0yKVtDSDJdQyhGKShGKUY=

> <s_epik_cmdline>
J2VwaWtfcHl0aG9uJywgJy1waCcsICc3LjAnLCAnLXRuJywgJzgnLCAnLW1hJywgJzIwMCcsICctbWV0YWxfYmluZGluZycsICctaW1hZScsICc8aW5maWxlLm1hZT4nLCAnLW9tYWUnLCAnPG91dGZpbGUubWFlPic=

> <r_lp_tautomer_probability>
1

> <r_epik_Ionization_Penalty>
3.3002e-05

> <r_epik_Ionization_Penalty_Charging>
0

> <r_epik_Ionization_Penalty_Neutral>
3.3002e-05

> <r_epik_State_Penalty>
-0

> <r_epik_Charging_Adjusted_Penalty>
0

> <i_epik_Tot_Q>
0

> <i_epik_Tot_abs_Q>
0

> <r_epik_Metal_State_Penalty>
-0

> <b_epik_Metal_Only>
0

> <s_lp_Force_Field>
OPLS_2005

> <r_lp_Energy>
24.6434

> <b_lp_Chiralities_Consistent>
1

> <s_lp_Variant>
AV-unprocessed.smi:2834-1

> <Gold.Version>
5.8.1

> <Gold.Id.Protein>
6NUR|6NUR_protein|mol2

> <Gold.PLP.Fitness>
46.2857

> <Gold.PLP.PLP>
-38.6789

> <Gold.PLP.part.hbond>
-3.0000

> <Gold.PLP.part.metal>
0.0000

> <Gold.PLP.part.buried>
-5.8125

> <Gold.PLP.part.nonpolar>
-29.2941

> <Gold.PLP.part.repulsive>
0.3894

> <Gold.PLP.ligand.clash>
0.0000

> <Gold.PLP.ligand.torsion>
0.6534

> <Gold.PLP.Chemscore.Hbond>
2.9516

> <Gold.PLP.Chemscore.CHOScore>
0.0000

> <Gold.PLP.Chemscore.Metal>
0.0000

> <Gold.Chemscore.Hbonds>
donor molecule, donor type, donor heavy atom, donor atom, acceptor molecule, acceptor atom, score
      L1  H     3    24       P1  8028  1.00
      L1  H     6    25       P1  8028  1.00
      P1  H  7997  8010       L1     9  0.81

> <Gold.PLP.Chemscore.Internal.Correction>
0.0588

> <Gold.Rescore>
     Score         DG    S(hbond)    S(metal)    S(lipo)     H(rot)  DE(clash)    DE(int)     intcor
     15.27     -16.03       1.88        0.00      65.76       1.34       0.01       0.74       ----

> <Gold.Chemscore.Fitness>
15.2721

> <Gold.Chemscore.DG>
-16.0255

> <Gold.Chemscore.ZeroCoef>
-5.4800

> <Gold.Chemscore.Hbond>
1.8820

> <Gold.Chemscore.Metal>
0.0000

> <Gold.Chemscore.Lipo>
65.7622

> <Gold.Chemscore.Internal_Hbond>
0.0000

> <Gold.Chemscore.DEClash>
0.0134

> <Gold.Chemscore.DEInternal>
0.7400

> <Gold.Chemscore.Rot>
1.3417

> <Gold.Chemscore.Internal.Correction>
   9.000000E+99

> <Gold.Chemscore.Hbonds>
donor molecule, donor type, donor heavy atom, donor atom, acceptor molecule, acceptor atom, score
      L1  H     3    24       P1  8028  0.88
      L1  H     6    25       P1  8028  0.91
      P1  H  7997  8010       L1     9  0.68

> <Gold.Chemscore.Hbond.Weighted>
-6.2860

> <Gold.Chemscore.Metal.Weighted>
-0.0000

> <Gold.Chemscore.Lipo.Weighted>
-7.6942

> <Gold.Chemscore.Internal_Hbond.Weighted>
0.0000

> <Gold.Chemscore.DEClash.Weighted>
0.0134

> <Gold.Chemscore.DEInternal.Weighted>
0.7400

> <Gold.Chemscore.Rot.Weighted>
3.4347

> <Gold.Chemscore.Internal.Correction.Weighted>
   9.000000E+99

> <Gold.Protein.RotatedTorsions>
[ 6907 6896 6895 6894 ] final -151.30 input  -60.11 | X-H torsion
[ 7974 7965 7964 7962 ] final -119.65 input  175.53 | X-H torsion
[ 8008 7997 7996 7995 ] final   42.63 input   59.86 | X-H torsion
[ 10167 10162 10161 10158 ] final  -21.78 input  -65.29 | X-H torsion
[ 10718 10713 10712 10709 ] final -128.38 input   66.30 | X-H torsion
[ 10763 10752 10751 10750 ] final  155.71 input  -60.55 | X-H torsion
[ 11005 11000 10999 10996 ] final   89.89 input  -57.11 | X-H torsion

> <Gold.Protein.ActiveResidues>
 VAL166  LYS551  ARG553  GLY616  TRP617  ASP618  TYR619  PRO620  LYS621  CYS622 
 ASP623  PHE694  ASN695  SER759  ASP760  ASP761  ALA762  ILE779  LEU786  VAL792 
 PHE793  MET794  SER795  GLU796  ALA797  LYS798  CYS799  TRP800  GLU811  SER814 

> <Gold.Protein.RotatedAtoms>
  151.2111  133.4555  159.2598 H   0  0  0  0  0  0  0  0  0  0  0  0  # atno 6907 bound_to 6896
  151.0975  134.9953  159.8443 H   0  0  0  0  0  0  0  0  0  0  0  0  # atno 6908 bound_to 6896
  152.5440  134.2040  159.8776 H   0  0  0  0  0  0  0  0  0  0  0  0  # atno 6909 bound_to 6896
  145.0602  140.8284  143.4157 H   0  0  0  0  0  0  0  0  0  0  0  0  # atno 7974 bound_to 7965
  155.2893  140.3377  155.4253 H   0  0  0  0  0  0  0  0  0  0  0  0  # atno 8008 bound_to 7997
  156.2053  140.1749  156.7852 H   0  0  0  0  0  0  0  0  0  0  0  0  # atno 8009 bound_to 7997
  154.5613  140.0687  156.8808 H   0  0  0  0  0  0  0  0  0  0  0  0  # atno 8010 bound_to 7997
  140.7283  143.4595  151.0399 H   0  0  0  0  0  0  0  0  0  0  0  0  # atno 10167 bound_to 10162
  156.1945  130.6817  151.0465 H   0  0  0  0  0  0  0  0  0  0  0  0  # atno 10718 bound_to 10713
  154.1728  135.2803  155.3076 H   0  0  0  0  0  0  0  0  0  0  0  0  # atno 10763 bound_to 10752
  154.6062  135.5513  153.7429 H   0  0  0  0  0  0  0  0  0  0  0  0  # atno 10764 bound_to 10752
  153.0160  135.6404  154.1868 H   0  0  0  0  0  0  0  0  0  0  0  0  # atno 10765 bound_to 10752
  139.8866  134.8579  156.3206 H   0  0  0  0  0  0  0  0  0  0  0  0  # atno 11005 bound_to 11000
  145.1418  139.2567  143.5486 LP  0  0  0  0  0  0  0  0  0  0  0  0  # atno 17320 bound_to 7965
  146.3524  140.1098  142.8604 LP  0  0  0  0  0  0  0  0  0  0  0  0  # atno 17321 bound_to 7965
  139.8279  143.7731  152.3179 LP  0  0  0  0  0  0  0  0  0  0  0  0  # atno 17342 bound_to 10162
  139.7836  144.7435  151.0053 LP  0  0  0  0  0  0  0  0  0  0  0  0  # atno 17343 bound_to 10162
  157.6949  131.0797  150.6997 LP  0  0  0  0  0  0  0  0  0  0  0  0  # atno 17370 bound_to 10713
  156.7054  130.4636  149.5561 LP  0  0  0  0  0  0  0  0  0  0  0  0  # atno 17371 bound_to 10713
  140.9789  133.7280  156.0643 LP  0  0  0  0  0  0  0  0  0  0  0  0  # atno 17394 bound_to 11000
  140.7775  134.3763  157.5495 LP  0  0  0  0  0  0  0  0  0  0  0  0  # atno 17395 bound_to 11000

$$$$
