AV-unprocessed.smi:925|AV-procd|sdf|4181|dock6
  -GOLD-   22720 2 83D 1   1.00000     0.00000
 Structure written by MMmdl.
 29 30  0  0  0  0  0  0  0  0  1 V2000
  150.5740  140.6026  156.0995 O   0  0  0  0  0  0  0  0  0  0  0  0
  150.0323  141.6997  155.9607 C   0  0  0  0  0  0  0  0  0  0  0  0
  148.9779  141.9518  155.1650 N   0  0  0  0  0  0  0  0  0  0  0  0
  148.2683  141.0475  154.3309 C   0  0  0  0  0  0  0  0  0  0  0  0
  148.6485  139.7784  154.1149 N   0  0  0  0  0  0  0  0  0  0  0  0
  147.7786  139.1135  153.2602 N   0  0  0  0  0  0  0  0  0  0  0  0
  146.7778  139.9061  152.8660 C   0  0  0  0  0  0  0  0  0  0  0  0
  146.8001  141.5424  153.5004 S   0  0  0  0  0  0  0  0  0  0  0  0
  150.4330  142.8086  156.6000 N   0  0  0  0  0  0  0  0  0  0  0  0
  151.5523  142.8846  157.5346 C   0  0  0  0  0  0  0  0  0  0  0  0
  151.3776  141.8648  158.6795 C   0  0  0  0  0  0  0  0  0  0  0  0
  152.5084  141.9822  159.7142 C   0  0  0  0  0  0  0  0  0  0  0  0
  152.6187  143.4138  160.2621 C   0  0  0  0  0  0  0  0  0  0  0  0
  152.7975  144.4310  159.1243 C   0  0  0  0  0  0  0  0  0  0  0  0
  151.6644  144.3165  158.0916 C   0  0  0  0  0  0  0  0  0  0  0  0
  148.6431  142.9038  155.1538 H   0  0  0  0  0  0  0  0  0  0  0  0
  146.0209  139.5242  152.1971 H   0  0  0  0  0  0  0  0  0  0  0  0
  149.9293  143.6660  156.4266 H   0  0  0  0  0  0  0  0  0  0  0  0
  152.4766  142.6583  156.9994 H   0  0  0  0  0  0  0  0  0  0  0  0
  150.4181  142.0241  159.1738 H   0  0  0  0  0  0  0  0  0  0  0  0
  151.3541  140.8498  158.2807 H   0  0  0  0  0  0  0  0  0  0  0  0
  152.3367  141.2830  160.5331 H   0  0  0  0  0  0  0  0  0  0  0  0
  153.4544  141.6935  159.2542 H   0  0  0  0  0  0  0  0  0  0  0  0
  151.7215  143.6570  160.8326 H   0  0  0  0  0  0  0  0  0  0  0  0
  153.4560  143.4824  160.9574 H   0  0  0  0  0  0  0  0  0  0  0  0
  152.8289  145.4421  159.5312 H   0  0  0  0  0  0  0  0  0  0  0  0
  153.7574  144.2653  158.6334 H   0  0  0  0  0  0  0  0  0  0  0  0
  151.8377  145.0223  157.2782 H   0  0  0  0  0  0  0  0  0  0  0  0
  150.7217  144.6075  158.5577 H   0  0  0  0  0  0  0  0  0  0  0  0
  1  2  2  0  0  0  0
  2  3  1  0  0  0  0
  2  9  1  0  0  0  0
  3  4  1  0  0  0  0
  3 16  1  0  0  0  0
  4  8  1  0  0  0  0
  4  5  2  0  0  0  0
  5  6  1  0  0  0  0
  6  7  2  0  0  0  0
  7  8  1  0  0  0  0
  7 17  1  0  0  0  0
  9 10  1  0  0  0  0
  9 18  1  0  0  0  0
 10 15  1  0  0  0  0
 10 11  1  0  0  0  0
 10 19  1  0  0  0  0
 11 12  1  0  0  0  0
 11 20  1  0  0  0  0
 11 21  1  0  0  0  0
 12 13  1  0  0  0  0
 12 22  1  0  0  0  0
 12 23  1  0  0  0  0
 13 14  1  0  0  0  0
 13 24  1  0  0  0  0
 13 25  1  0  0  0  0
 14 15  1  0  0  0  0
 14 26  1  0  0  0  0
 14 27  1  0  0  0  0
 15 28  1  0  0  0  0
 15 29  1  0  0  0  0
M  END
> <s_m_source_file>
AV-unprocessed.smi

> <i_m_source_file_index>
925

> <i_lp_mmshare_version>
43012

> <i_f3d_flags>
0

> <s_epik_input>
czFbY0hdbm5jMVtOSF1DKD1PKVtOSF1bQ0hdMltDSDJdW0NIMl1bQ0gyXVtDSDJdW0NIMl0y

> <s_epik_cmdline>
J2VwaWtfcHl0aG9uJywgJy1waCcsICc3LjAnLCAnLXRuJywgJzgnLCAnLW1hJywgJzIwMCcsICctbWV0YWxfYmluZGluZycsICctaW1hZScsICc8aW5maWxlLm1hZT4nLCAnLW9tYWUnLCAnPG91dGZpbGUubWFlPic=

> <r_lp_tautomer_probability>
1

> <r_epik_Ionization_Penalty>
0.000322846

> <r_epik_Ionization_Penalty_Charging>
0

> <r_epik_Ionization_Penalty_Neutral>
0.000322846

> <r_epik_State_Penalty>
-0

> <r_epik_Charging_Adjusted_Penalty>
0

> <i_epik_Tot_Q>
0

> <i_epik_Tot_abs_Q>
0

> <r_epik_Metal_State_Penalty>
0.17121

> <b_epik_Metal_Only>
0

> <s_lp_Force_Field>
OPLS_2005

> <r_lp_Energy>
7.89547

> <b_lp_Chiralities_Consistent>
1

> <s_lp_Variant>
AV-unprocessed.smi:925-1

> <Gold.Version>
5.8.1

> <Gold.Id.Protein>
6NUR|6NUR_protein|mol2

> <Gold.PLP.Fitness>
39.8218

> <Gold.PLP.PLP>
-31.6545

> <Gold.PLP.part.hbond>
-2.0000

> <Gold.PLP.part.metal>
0.0000

> <Gold.PLP.part.buried>
-5.2524

> <Gold.PLP.part.nonpolar>
-25.4846

> <Gold.PLP.part.repulsive>
2.0498

> <Gold.PLP.ligand.clash>
0.0000

> <Gold.PLP.ligand.torsion>
0.0222

> <Gold.PLP.Chemscore.Hbond>
2.0000

> <Gold.PLP.Chemscore.CHOScore>
0.7361

> <Gold.PLP.Chemscore.Metal>
0.0000

> <Gold.Chemscore.Hbonds>
donor molecule, donor type, donor heavy atom, donor atom, acceptor molecule, acceptor atom, score
      L1  H     3    16       P1  8028  1.00
      L1  H     9    18       P1  8028  1.00
      L1  C     7    17       P1 10175  0.74

> <Gold.PLP.Chemscore.Internal.Correction>
0.0032

> <Gold.Rescore>
     Score         DG    S(hbond)    S(metal)    S(lipo)     H(rot)  DE(clash)    DE(int)     intcor
     16.38     -19.22       1.95        0.00      83.54       1.00       0.46       2.38       ----

> <Gold.Chemscore.Fitness>
16.3765

> <Gold.Chemscore.DG>
-19.2194

> <Gold.Chemscore.ZeroCoef>
-5.4800

> <Gold.Chemscore.Hbond>
1.9536

> <Gold.Chemscore.Metal>
0.0000

> <Gold.Chemscore.Lipo>
83.5425

> <Gold.Chemscore.Internal_Hbond>
0.0000

> <Gold.Chemscore.DEClash>
0.4632

> <Gold.Chemscore.DEInternal>
2.3797

> <Gold.Chemscore.Rot>
1.0000

> <Gold.Chemscore.Internal.Correction>
   9.000000E+99

> <Gold.Chemscore.Hbonds>
donor molecule, donor type, donor heavy atom, donor atom, acceptor molecule, acceptor atom, score
      L1  H     3    16       P1  8028  0.94
      L1  H     9    18       P1  8028  0.99

> <Gold.Chemscore.Hbond.Weighted>
-6.5249

> <Gold.Chemscore.Metal.Weighted>
-0.0000

> <Gold.Chemscore.Lipo.Weighted>
-9.7745

> <Gold.Chemscore.Internal_Hbond.Weighted>
0.0000

> <Gold.Chemscore.DEClash.Weighted>
0.4632

> <Gold.Chemscore.DEInternal.Weighted>
2.3797

> <Gold.Chemscore.Rot.Weighted>
2.5600

> <Gold.Chemscore.Internal.Correction.Weighted>
   9.000000E+99

> <Gold.Protein.RotatedTorsions>
[ 6907 6896 6895 6894 ] final   40.33 input  -60.11 | X-H torsion
[ 7974 7965 7964 7962 ] final   33.66 input  175.53 | X-H torsion
[ 8008 7997 7996 7995 ] final   71.25 input   59.86 | X-H torsion
[ 10167 10162 10161 10158 ] final -125.22 input  -65.29 | X-H torsion
[ 10718 10713 10712 10709 ] final   24.92 input   66.30 | X-H torsion
[ 10763 10752 10751 10750 ] final   16.15 input  -60.55 | X-H torsion
[ 11005 11000 10999 10996 ] final   49.45 input  -57.11 | X-H torsion

> <Gold.Protein.ActiveResidues>
 VAL166  LYS551  ARG553  GLY616  TRP617  ASP618  TYR619  PRO620  LYS621  CYS622 
 ASP623  PHE694  ASN695  SER759  ASP760  ASP761  ALA762  ILE779  LEU786  VAL792 
 PHE793  MET794  SER795  GLU796  ALA797  LYS798  CYS799  TRP800  GLU811  SER814 

> <Gold.Protein.RotatedAtoms>
  152.1812  134.8753  160.0525 H   0  0  0  0  0  0  0  0  0  0  0  0  # atno 6907 bound_to 6896
  151.9676  133.3710  159.4067 H   0  0  0  0  0  0  0  0  0  0  0  0  # atno 6908 bound_to 6896
  150.6918  134.4097  159.5200 H   0  0  0  0  0  0  0  0  0  0  0  0  # atno 6909 bound_to 6896
  146.1405  139.6368  142.9166 H   0  0  0  0  0  0  0  0  0  0  0  0  # atno 7974 bound_to 7965
  155.7510  140.3488  155.5150 H   0  0  0  0  0  0  0  0  0  0  0  0  # atno 8008 bound_to 7997
  155.9004  140.1033  157.1375 H   0  0  0  0  0  0  0  0  0  0  0  0  # atno 8009 bound_to 7997
  154.4043  140.1287  156.4416 H   0  0  0  0  0  0  0  0  0  0  0  0  # atno 8010 bound_to 7997
  139.9844  143.5707  152.2366 H   0  0  0  0  0  0  0  0  0  0  0  0  # atno 10167 bound_to 10162
  157.1864  130.6826  149.6133 H   0  0  0  0  0  0  0  0  0  0  0  0  # atno 10718 bound_to 10713
  153.1457  135.6769  153.8958 H   0  0  0  0  0  0  0  0  0  0  0  0  # atno 10763 bound_to 10752
  153.8400  135.3106  155.3426 H   0  0  0  0  0  0  0  0  0  0  0  0  # atno 10764 bound_to 10752
  154.7823  135.4881  153.9956 H   0  0  0  0  0  0  0  0  0  0  0  0  # atno 10765 bound_to 10752
  140.1102  134.4964  155.8684 H   0  0  0  0  0  0  0  0  0  0  0  0  # atno 11005 bound_to 11000
  145.5057  141.0436  143.2516 LP  0  0  0  0  0  0  0  0  0  0  0  0  # atno 17320 bound_to 7965
  144.7787  139.6572  143.7163 LP  0  0  0  0  0  0  0  0  0  0  0  0  # atno 17321 bound_to 7965
  139.6386  144.7652  151.2387 LP  0  0  0  0  0  0  0  0  0  0  0  0  # atno 17342 bound_to 10162
  140.7477  143.6356  150.8382 LP  0  0  0  0  0  0  0  0  0  0  0  0  # atno 17343 bound_to 10162
  155.9717  130.4629  150.6163 LP  0  0  0  0  0  0  0  0  0  0  0  0  # atno 17370 bound_to 10713
  157.3903  131.0794  151.1400 LP  0  0  0  0  0  0  0  0  0  0  0  0  # atno 17371 bound_to 10713
  141.2128  133.6725  156.6690 LP  0  0  0  0  0  0  0  0  0  0  0  0  # atno 17394 bound_to 11000
  140.3101  134.8093  157.4169 LP  0  0  0  0  0  0  0  0  0  0  0  0  # atno 17395 bound_to 11000

$$$$
