AV-unprocessed.smi:2639|AV-procd|sdf|10266|dock1
  -GOLD-   2272014273D 1   1.00000     0.00000
 Structure written by MMmdl.
 44 45  0  0  0  0  0  0  0  0  2 V2000
  148.5680  136.1965  156.8958 C   0  0  0  0  0  0  0  0  0  0  0  0
  149.4164  135.5770  155.7556 C   0  0  1  0  0  0  0  0  0  0  0  0
  149.8408  134.1398  156.1800 C   0  0  0  0  0  0  0  0  0  0  0  0
  150.4707  134.1163  157.4450 O   0  0  0  0  0  0  0  0  0  0  0  0
  148.6152  135.5045  154.5232 N   0  0  0  0  0  0  0  0  0  0  0  0
  147.3021  135.2564  154.3821 C   0  0  0  0  0  0  0  0  0  0  0  0
  146.5333  135.0514  155.3205 O   0  0  0  0  0  0  0  0  0  0  0  0
  146.9460  135.2821  153.0862 N   0  0  0  0  0  0  0  0  0  0  0  0
  145.6658  135.0467  152.5149 C   0  0  0  0  0  0  0  0  0  0  0  0
  145.5586  135.0964  151.1071 C   0  0  0  0  0  0  0  0  0  0  0  0
  144.3117  134.8543  150.4953 C   0  0  0  0  0  0  0  0  0  0  0  0
  143.2338  134.5669  151.2561 N   0  3  0  0  0  0  0  0  0  0  0  0
  143.2902  134.4925  152.6032 C   0  0  0  0  0  0  0  0  0  0  0  0
  144.5097  134.7253  153.2711 C   0  0  0  0  0  0  0  0  0  0  0  0
  150.6630  136.4819  155.4502 C   0  0  0  0  0  0  0  0  0  0  0  0
  151.4920  136.8445  156.7128 C   0  0  0  0  0  0  0  0  0  0  0  0
  152.7343  137.6837  156.3741 C   0  0  0  0  0  0  0  0  0  0  0  0
  152.3556  138.9621  155.6165 C   0  0  0  0  0  0  0  0  0  0  0  0
  151.5543  138.6240  154.3538 C   0  0  0  0  0  0  0  0  0  0  0  0
  150.3088  137.7879  154.6883 C   0  0  0  0  0  0  0  0  0  0  0  0
  149.1876  136.4464  157.7576 H   0  0  0  0  0  0  0  0  0  0  0  0
  147.7981  135.5106  157.2495 H   0  0  0  0  0  0  0  0  0  0  0  0
  148.0558  137.1057  156.5819 H   0  0  0  0  0  0  0  0  0  0  0  0
  148.9792  133.4746  156.2356 H   0  0  0  0  0  0  0  0  0  0  0  0
  150.5149  133.6933  155.4491 H   0  0  0  0  0  0  0  0  0  0  0  0
  151.3572  133.8086  157.3332 H   0  0  0  0  0  0  0  0  0  0  0  0
  149.1352  135.6653  153.6730 H   0  0  0  0  0  0  0  0  0  0  0  0
  147.6681  135.5533  152.4350 H   0  0  0  0  0  0  0  0  0  0  0  0
  146.4216  135.3237  150.4979 H   0  0  0  0  0  0  0  0  0  0  0  0
  144.1463  134.8796  149.4279 H   0  0  0  0  0  0  0  0  0  0  0  0
  142.3660  134.2439  153.1043 H   0  0  0  0  0  0  0  0  0  0  0  0
  144.5361  134.6402  154.3467 H   0  0  0  0  0  0  0  0  0  0  0  0
  151.3298  135.9104  154.8028 H   0  0  0  0  0  0  0  0  0  0  0  0
  150.8772  137.3942  157.4261 H   0  0  0  0  0  0  0  0  0  0  0  0
  151.8286  135.9450  157.2260 H   0  0  0  0  0  0  0  0  0  0  0  0
  153.2688  137.9404  157.2892 H   0  0  0  0  0  0  0  0  0  0  0  0
  153.4227  137.0906  155.7705 H   0  0  0  0  0  0  0  0  0  0  0  0
  151.7667  139.6135  156.2634 H   0  0  0  0  0  0  0  0  0  0  0  0
  153.2549  139.5184  155.3501 H   0  0  0  0  0  0  0  0  0  0  0  0
  151.2589  139.5423  153.8455 H   0  0  0  0  0  0  0  0  0  0  0  0
  152.1863  138.0740  153.6553 H   0  0  0  0  0  0  0  0  0  0  0  0
  149.7988  137.5643  153.7524 H   0  0  0  0  0  0  0  0  0  0  0  0
  149.6195  138.3943  155.2767 H   0  0  0  0  0  0  0  0  0  0  0  0
  142.3407  134.3938  150.7936 H   0  0  0  0  0  0  0  0  0  0  0  0
  1  2  1  0  0  0  0
  1 21  1  0  0  0  0
  1 22  1  0  0  0  0
  1 23  1  0  0  0  0
  2  3  1  0  0  0  0
  2  5  1  0  0  0  0
  2 15  1  0  0  0  0
  3  4  1  0  0  0  0
  3 24  1  0  0  0  0
  3 25  1  0  0  0  0
  4 26  1  0  0  0  0
  5  6  1  0  0  0  0
  5 27  1  0  0  0  0
  6  7  2  0  0  0  0
  6  8  1  0  0  0  0
  8  9  1  0  0  0  0
  8 28  1  0  0  0  0
  9 14  1  0  0  0  0
  9 10  2  0  0  0  0
 10 11  1  0  0  0  0
 10 29  1  0  0  0  0
 11 12  2  0  0  0  0
 11 30  1  0  0  0  0
 12 13  1  0  0  0  0
 12 44  1  0  0  0  0
 13 14  2  0  0  0  0
 13 31  1  0  0  0  0
 14 32  1  0  0  0  0
 15 20  1  0  0  0  0
 15 16  1  0  0  0  0
 15 33  1  0  0  0  0
 16 17  1  0  0  0  0
 16 34  1  0  0  0  0
 16 35  1  0  0  0  0
 17 18  1  0  0  0  0
 17 36  1  0  0  0  0
 17 37  1  0  0  0  0
 18 19  1  0  0  0  0
 18 38  1  0  0  0  0
 18 39  1  0  0  0  0
 19 20  1  0  0  0  0
 19 40  1  0  0  0  0
 19 41  1  0  0  0  0
 20 42  1  0  0  0  0
 20 43  1  0  0  0  0
M  CHG  1  12   1
M  END
> <s_m_source_file>
AV-unprocessed.smi

> <i_m_source_file_index>
2639

> <i_lp_mmshare_version>
43012

> <i_f3d_flags>
0

> <s_epik_input>
W0NIMl0xW0NIMl1bQ0gyXVtDSDJdW0NIMl1bQ0hdMVtDQF0oW0NIM10pKFtDSDJdW09IXSlbTkhdQyg9TylbTkhdYzJbY0hdW2NIXW5bY0hdW2NIXTI=

> <s_epik_cmdline>
J2VwaWtfcHl0aG9uJywgJy1waCcsICc3LjAnLCAnLXRuJywgJzgnLCAnLW1hJywgJzIwMCcsICctbWV0YWxfYmluZGluZycsICctaW1hZScsICc8aW5maWxlLm1hZT4nLCAnLW9tYWUnLCAnPG91dGZpbGUubWFlPic=

> <r_epik_Ionization_Penalty>
1.0096

> <r_epik_Ionization_Penalty_Charging>
1.00958

> <r_epik_Ionization_Penalty_Neutral>
2.00022e-05

> <r_epik_State_Penalty>
1.05889

> <r_epik_Charging_Adjusted_Penalty>
2.06847

> <i_epik_Tot_Q>
1

> <i_epik_Tot_abs_Q>
1

> <r_epik_Metal_State_Penalty>
1.15945

> <b_epik_Metal_Only>
0

> <s_lp_Force_Field>
OPLS_2005

> <r_lp_Energy>
30.6605

> <b_lp_Chiralities_Consistent>
1

> <s_lp_Variant>
AV-unprocessed.smi:2639-3

> <Gold.Version>
5.8.1

> <Gold.Id.Protein>
6NUR|6NUR_protein|mol2

> <Gold.PLP.Fitness>
38.6051

> <Gold.PLP.PLP>
-27.0650

> <Gold.PLP.part.hbond>
-3.8450

> <Gold.PLP.part.metal>
0.0000

> <Gold.PLP.part.buried>
-4.0687

> <Gold.PLP.part.nonpolar>
-20.1759

> <Gold.PLP.part.repulsive>
0.0330

> <Gold.PLP.ligand.clash>
0.0000

> <Gold.PLP.ligand.torsion>
0.7732

> <Gold.PLP.Chemscore.Hbond>
4.3425

> <Gold.PLP.Chemscore.CHOScore>
0.0000

> <Gold.PLP.Chemscore.Metal>
0.0000

> <Gold.Chemscore.Hbonds>
donor molecule, donor type, donor heavy atom, donor atom, acceptor molecule, acceptor atom, score
      L1  H     5    27       P1  7948  0.90
      L1  H     8    28       P1  7948  1.00
      L1  H    12    44       P1 10186  1.70
      P1  H  6896  6907       L1     4  0.30

> <Gold.PLP.Chemscore.Internal.Correction>
0.0589

> <Gold.Rescore>
     Score         DG    S(hbond)    S(metal)    S(lipo)     H(rot)  DE(clash)    DE(int)     intcor
     14.18     -17.58       2.78        0.00      68.20       2.02       0.03       3.37       ----

> <Gold.Chemscore.Fitness>
14.1769

> <Gold.Chemscore.DG>
-17.5816

> <Gold.Chemscore.ZeroCoef>
-5.4800

> <Gold.Chemscore.Hbond>
2.7799

> <Gold.Chemscore.Metal>
0.0000

> <Gold.Chemscore.Lipo>
68.1957

> <Gold.Chemscore.Internal_Hbond>
0.0000

> <Gold.Chemscore.DEClash>
0.0339

> <Gold.Chemscore.DEInternal>
3.3708

> <Gold.Chemscore.Rot>
2.0165

> <Gold.Chemscore.Internal.Correction>
   9.000000E+99

> <Gold.Chemscore.Hbonds>
donor molecule, donor type, donor heavy atom, donor atom, acceptor molecule, acceptor atom, score
      L1  H     5    27       P1  7948  0.64
      L1  H     8    28       P1  7948  0.94
      L1  H    12    44       P1 10186  0.15
      P1  H  6896  6907       L1     4  0.01

> <Gold.Chemscore.Hbond.Weighted>
-9.2849

> <Gold.Chemscore.Metal.Weighted>
-0.0000

> <Gold.Chemscore.Lipo.Weighted>
-7.9789

> <Gold.Chemscore.Internal_Hbond.Weighted>
0.0000

> <Gold.Chemscore.DEClash.Weighted>
0.0339

> <Gold.Chemscore.DEInternal.Weighted>
3.3708

> <Gold.Chemscore.Rot.Weighted>
5.1622

> <Gold.Chemscore.Internal.Correction.Weighted>
   9.000000E+99

> <Gold.Protein.RotatedTorsions>
[ 6907 6896 6895 6894 ] final -104.06 input  -60.11 | X-H torsion
[ 7974 7965 7964 7962 ] final  167.44 input  175.53 | X-H torsion
[ 8008 7997 7996 7995 ] final   -5.66 input   59.86 | X-H torsion
[ 10167 10162 10161 10158 ] final  -56.08 input  -65.29 | X-H torsion
[ 10718 10713 10712 10709 ] final  -27.80 input   66.30 | X-H torsion
[ 10763 10752 10751 10750 ] final  -86.63 input  -60.55 | X-H torsion
[ 11005 11000 10999 10996 ] final -147.91 input  -57.11 | X-H torsion

> <Gold.Protein.ActiveResidues>
 VAL166  LYS551  ARG553  GLY616  TRP617  ASP618  TYR619  PRO620  LYS621  CYS622 
 ASP623  PHE694  ASN695  SER759  ASP760  ASP761  ALA762  ILE779  LEU786  VAL792 
 PHE793  MET794  SER795  GLU796  ALA797  LYS798  CYS799  TRP800  GLU811  SER814 

> <Gold.Protein.RotatedAtoms>
  150.7269  134.0335  159.3741 H   0  0  0  0  0  0  0  0  0  0  0  0  # atno 6907 bound_to 6896
  151.8305  135.0620  160.0445 H   0  0  0  0  0  0  0  0  0  0  0  0  # atno 6908 bound_to 6896
  152.2937  133.5550  159.5610 H   0  0  0  0  0  0  0  0  0  0  0  0  # atno 6909 bound_to 6896
  144.7424  139.8761  143.6392 H   0  0  0  0  0  0  0  0  0  0  0  0  # atno 7974 bound_to 7965
  154.6016  140.2452  155.7785 H   0  0  0  0  0  0  0  0  0  0  0  0  # atno 8008 bound_to 7997
  156.2314  140.2965  156.0151 H   0  0  0  0  0  0  0  0  0  0  0  0  # atno 8009 bound_to 7997
  155.2202  140.0400  157.2937 H   0  0  0  0  0  0  0  0  0  0  0  0  # atno 8010 bound_to 7997
  140.6338  143.2472  151.5172 H   0  0  0  0  0  0  0  0  0  0  0  0  # atno 10167 bound_to 10162
  156.4334  130.4450  149.7101 H   0  0  0  0  0  0  0  0  0  0  0  0  # atno 10718 bound_to 10713
  154.6246  135.5442  153.7612 H   0  0  0  0  0  0  0  0  0  0  0  0  # atno 10763 bound_to 10752
  153.0254  135.6421  154.1391 H   0  0  0  0  0  0  0  0  0  0  0  0  # atno 10764 bound_to 10752
  154.1324  135.2913  155.3162 H   0  0  0  0  0  0  0  0  0  0  0  0  # atno 10765 bound_to 10752
  140.7667  134.3236  157.5086 H   0  0  0  0  0  0  0  0  0  0  0  0  # atno 11005 bound_to 11000
  146.1245  139.4268  143.0207 LP  0  0  0  0  0  0  0  0  0  0  0  0  # atno 17320 bound_to 7965
  145.7256  141.0060  143.1379 LP  0  0  0  0  0  0  0  0  0  0  0  0  # atno 17321 bound_to 7965
  139.5550  144.2299  152.1596 LP  0  0  0  0  0  0  0  0  0  0  0  0  # atno 17342 bound_to 10162
  140.1550  144.5079  150.6665 LP  0  0  0  0  0  0  0  0  0  0  0  0  # atno 17343 bound_to 10162
  156.3995  130.7667  151.2674 LP  0  0  0  0  0  0  0  0  0  0  0  0  # atno 17370 bound_to 10713
  157.7508  131.0244  150.3875 LP  0  0  0  0  0  0  0  0  0  0  0  0  # atno 17371 bound_to 10713
  139.8762  134.9235  156.3328 LP  0  0  0  0  0  0  0  0  0  0  0  0  # atno 17394 bound_to 11000
  140.9612  133.7387  156.0404 LP  0  0  0  0  0  0  0  0  0  0  0  0  # atno 17395 bound_to 11000

$$$$
