AV-unprocessed.smi:1077|AV-procd|sdf|4701|dock3
  -GOLD-   22720 3223D 1   1.00000     0.00000
 Structure written by MMmdl.
 42 43  0  0  0  0  0  0  0  0  1 V2000
  146.9854  141.7235  154.0564 C   0  0  0  0  0  0  0  0  0  0  0  0
  147.0300  140.2610  153.5882 C   0  0  0  0  0  0  0  0  0  0  0  0
  147.8810  139.4336  154.4035 N   0  0  0  0  0  0  0  0  0  0  0  0
  147.4273  138.2597  154.9683 C   0  0  0  0  0  0  0  0  0  0  0  0
  148.2083  137.4758  155.7395 C   0  0  0  0  0  0  0  0  0  0  0  0
  147.7237  136.2637  156.3121 C   0  0  0  0  0  0  0  0  0  0  0  0
  147.3513  135.2770  156.7890 N   0  0  0  0  0  0  0  0  0  0  0  0
  149.5944  137.8392  156.0234 C   0  0  0  0  0  0  0  0  0  0  0  0
  150.3496  137.1510  156.7125 O   0  0  0  0  0  0  0  0  0  0  0  0
  150.0385  139.0554  155.4446 N   0  0  0  0  0  0  0  0  0  0  0  0
  151.4374  139.4748  155.6802 C   0  0  0  0  0  0  0  0  0  0  0  0
  151.6652  140.0614  157.0813 C   0  0  0  0  0  0  0  0  0  0  0  0
  152.2921  139.4337  157.9360 O   0  0  0  0  0  0  0  0  0  0  0  0
  151.1507  141.2818  157.2953 N   0  0  0  0  0  0  0  0  0  0  0  0
  151.2336  142.0277  158.5473 C   0  0  0  0  0  0  0  0  0  0  0  0
  150.7469  143.4793  158.3496 C   0  0  0  0  0  0  0  0  0  0  0  0
  150.9093  144.3091  159.6334 C   0  0  0  0  0  0  0  0  0  0  0  0
  152.3606  144.2800  160.1360 C   0  0  0  0  0  0  0  0  0  0  0  0
  152.8440  142.8366  160.3454 C   0  0  0  0  0  0  0  0  0  0  0  0
  152.6851  142.0037  159.0631 C   0  0  0  0  0  0  0  0  0  0  0  0
  149.2093  139.8639  154.6297 C   0  0  0  0  0  0  0  0  0  0  0  0
  149.6360  140.9089  154.1318 O   0  0  0  0  0  0  0  0  0  0  0  0
  146.2907  142.3016  153.4470 H   0  0  0  0  0  0  0  0  0  0  0  0
  147.9630  142.2002  153.9814 H   0  0  0  0  0  0  0  0  0  0  0  0
  146.6564  141.7950  155.0933 H   0  0  0  0  0  0  0  0  0  0  0  0
  146.0372  139.8119  153.6397 H   0  0  0  0  0  0  0  0  0  0  0  0
  147.3660  140.1597  152.5544 H   0  0  0  0  0  0  0  0  0  0  0  0
  146.4069  137.9543  154.7859 H   0  0  0  0  0  0  0  0  0  0  0  0
  152.1339  138.6470  155.5417 H   0  0  0  0  0  0  0  0  0  0  0  0
  151.7468  140.2066  154.9315 H   0  0  0  0  0  0  0  0  0  0  0  0
  150.6555  141.7249  156.5351 H   0  0  0  0  0  0  0  0  0  0  0  0
  150.6005  141.5401  159.2912 H   0  0  0  0  0  0  0  0  0  0  0  0
  151.3105  143.9502  157.5427 H   0  0  0  0  0  0  0  0  0  0  0  0
  149.7009  143.4898  158.0414 H   0  0  0  0  0  0  0  0  0  0  0  0
  150.5993  145.3386  159.4515 H   0  0  0  0  0  0  0  0  0  0  0  0
  150.2465  143.9185  160.4064 H   0  0  0  0  0  0  0  0  0  0  0  0
  153.0073  144.7821  159.4152 H   0  0  0  0  0  0  0  0  0  0  0  0
  152.4434  144.8397  161.0681 H   0  0  0  0  0  0  0  0  0  0  0  0
  153.8875  142.8364  160.6616 H   0  0  0  0  0  0  0  0  0  0  0  0
  152.2758  142.3745  161.1537 H   0  0  0  0  0  0  0  0  0  0  0  0
  152.9970  140.9760  159.2535 H   0  0  0  0  0  0  0  0  0  0  0  0
  153.3567  142.3930  158.2961 H   0  0  0  0  0  0  0  0  0  0  0  0
  1  2  1  0  0  0  0
  1 23  1  0  0  0  0
  1 24  1  0  0  0  0
  1 25  1  0  0  0  0
  2  3  1  0  0  0  0
  2 26  1  0  0  0  0
  2 27  1  0  0  0  0
  3 21  1  0  0  0  0
  3  4  1  0  0  0  0
  4  5  2  0  0  0  0
  4 28  1  0  0  0  0
  5  6  1  0  0  0  0
  5  8  1  0  0  0  0
  6  7  3  0  0  0  0
  8  9  2  0  0  0  0
  8 10  1  0  0  0  0
 10 11  1  0  0  0  0
 10 21  1  0  0  0  0
 11 12  1  0  0  0  0
 11 29  1  0  0  0  0
 11 30  1  0  0  0  0
 12 13  2  0  0  0  0
 12 14  1  0  0  0  0
 14 15  1  0  0  0  0
 14 31  1  0  0  0  0
 15 20  1  0  0  0  0
 15 16  1  0  0  0  0
 15 32  1  0  0  0  0
 16 17  1  0  0  0  0
 16 33  1  0  0  0  0
 16 34  1  0  0  0  0
 17 18  1  0  0  0  0
 17 35  1  0  0  0  0
 17 36  1  0  0  0  0
 18 19  1  0  0  0  0
 18 37  1  0  0  0  0
 18 38  1  0  0  0  0
 19 20  1  0  0  0  0
 19 39  1  0  0  0  0
 19 40  1  0  0  0  0
 20 41  1  0  0  0  0
 20 42  1  0  0  0  0
 21 22  2  0  0  0  0
M  END
> <s_m_source_file>
AV-unprocessed.smi

> <i_m_source_file_index>
1077

> <i_lp_mmshare_version>
43012

> <i_f3d_flags>
0

> <s_epik_input>
W0NIM11bQ0gyXW4xW2NIXWMoQyNOKWMoPU8pbihjMT1PKVtDSDJdQyg9TylbTkhdW0NIXTJbQ0gyXVtDSDJdW0NIMl1bQ0gyXVtDSDJdMg==

> <s_epik_cmdline>
J2VwaWtfcHl0aG9uJywgJy1waCcsICc3LjAnLCAnLXRuJywgJzgnLCAnLW1hJywgJzIwMCcsICctbWV0YWxfYmluZGluZycsICctaW1hZScsICc8aW5maWxlLm1hZT4nLCAnLW9tYWUnLCAnPG91dGZpbGUubWFlPic=

> <r_lp_tautomer_probability>
1

> <r_epik_Ionization_Penalty>
1.90876e-08

> <r_epik_Ionization_Penalty_Charging>
4.07395e-11

> <r_epik_Ionization_Penalty_Neutral>
1.90469e-08

> <r_epik_State_Penalty>
-0

> <r_epik_Charging_Adjusted_Penalty>
4.07395e-11

> <i_epik_Tot_Q>
0

> <i_epik_Tot_abs_Q>
0

> <r_epik_Metal_State_Penalty>
-0

> <b_epik_Metal_Only>
0

> <s_lp_Force_Field>
OPLS_2005

> <r_lp_Energy>
10.9803

> <b_lp_Chiralities_Consistent>
1

> <s_lp_Variant>
AV-unprocessed.smi:1077-1

> <Gold.Version>
5.8.1

> <Gold.Id.Protein>
6NUR|6NUR_protein|mol2

> <Gold.PLP.Fitness>
42.2713

> <Gold.PLP.PLP>
-36.9411

> <Gold.PLP.part.hbond>
-3.0000

> <Gold.PLP.part.metal>
0.0000

> <Gold.PLP.part.buried>
-3.0786

> <Gold.PLP.part.nonpolar>
-32.2023

> <Gold.PLP.part.repulsive>
0.7515

> <Gold.PLP.ligand.clash>
0.0000

> <Gold.PLP.ligand.torsion>
0.5038

> <Gold.PLP.Chemscore.Hbond>
2.1032

> <Gold.PLP.Chemscore.CHOScore>
0.0000

> <Gold.PLP.Chemscore.Metal>
0.0000

> <Gold.Chemscore.Hbonds>
donor molecule, donor type, donor heavy atom, donor atom, acceptor molecule, acceptor atom, score
      P1  H  7989  7998       L1    22  0.46
      P1  H  8011  8017       L1    22  0.18

> <Gold.PLP.Chemscore.Internal.Correction>
0.0282

> <Gold.Rescore>
     Score         DG    S(hbond)    S(metal)    S(lipo)     H(rot)  DE(clash)    DE(int)     intcor
     14.17     -16.45       1.82        0.00      80.23       1.75       0.58       1.70       ----

> <Gold.Chemscore.Fitness>
14.1676

> <Gold.Chemscore.DG>
-16.4488

> <Gold.Chemscore.ZeroCoef>
-5.4800

> <Gold.Chemscore.Hbond>
1.8163

> <Gold.Chemscore.Metal>
0.0000

> <Gold.Chemscore.Lipo>
80.2346

> <Gold.Chemscore.Internal_Hbond>
0.0000

> <Gold.Chemscore.DEClash>
0.5813

> <Gold.Chemscore.DEInternal>
1.6999

> <Gold.Chemscore.Rot>
1.7520

> <Gold.Chemscore.Internal.Correction>
   9.000000E+99

> <Gold.Chemscore.Hbonds>
donor molecule, donor type, donor heavy atom, donor atom, acceptor molecule, acceptor atom, score
      P1  H  7989  7998       L1    22  0.43
      P1  H  8011  8017       L1    22  0.18

> <Gold.Chemscore.Hbond.Weighted>
-6.0665

> <Gold.Chemscore.Metal.Weighted>
-0.0000

> <Gold.Chemscore.Lipo.Weighted>
-9.3874

> <Gold.Chemscore.Internal_Hbond.Weighted>
0.0000

> <Gold.Chemscore.DEClash.Weighted>
0.5813

> <Gold.Chemscore.DEInternal.Weighted>
1.6999

> <Gold.Chemscore.Rot.Weighted>
4.4852

> <Gold.Chemscore.Internal.Correction.Weighted>
   9.000000E+99

> <Gold.Protein.RotatedTorsions>
[ 6907 6896 6895 6894 ] final -104.78 input  -60.11 | X-H torsion
[ 7974 7965 7964 7962 ] final -103.88 input  175.53 | X-H torsion
[ 8008 7997 7996 7995 ] final   40.59 input   59.86 | X-H torsion
[ 10167 10162 10161 10158 ] final  100.39 input  -65.29 | X-H torsion
[ 10718 10713 10712 10709 ] final  105.70 input   66.30 | X-H torsion
[ 10763 10752 10751 10750 ] final -140.99 input  -60.55 | X-H torsion
[ 11005 11000 10999 10996 ] final -168.52 input  -57.11 | X-H torsion

> <Gold.Protein.ActiveResidues>
 VAL166  LYS551  ARG553  GLY616  TRP617  ASP618  TYR619  PRO620  LYS621  CYS622 
 ASP623  PHE694  ASN695  SER759  ASP760  ASP761  ALA762  ILE779  LEU786  VAL792 
 PHE793  MET794  SER795  GLU796  ALA797  LYS798  CYS799  TRP800  GLU811  SER814 

> <Gold.Protein.RotatedAtoms>
  150.7304  134.0226  159.3706 H   0  0  0  0  0  0  0  0  0  0  0  0  # atno 6907 bound_to 6896
  151.8192  135.0655  160.0432 H   0  0  0  0  0  0  0  0  0  0  0  0  # atno 6908 bound_to 6896
  152.3016  133.5625  159.5658 H   0  0  0  0  0  0  0  0  0  0  0  0  # atno 6909 bound_to 6896
  145.2502  140.9235  143.3100 H   0  0  0  0  0  0  0  0  0  0  0  0  # atno 7974 bound_to 7965
  155.2557  140.3355  155.4278 H   0  0  0  0  0  0  0  0  0  0  0  0  # atno 8008 bound_to 7997
  156.2196  140.1803  156.7550 H   0  0  0  0  0  0  0  0  0  0  0  0  # atno 8009 bound_to 7997
  154.5806  140.0654  156.9083 H   0  0  0  0  0  0  0  0  0  0  0  0  # atno 8010 bound_to 7997
  139.7531  144.6978  151.0402 H   0  0  0  0  0  0  0  0  0  0  0  0  # atno 10167 bound_to 10162
  157.6696  131.0834  150.5896 H   0  0  0  0  0  0  0  0  0  0  0  0  # atno 10718 bound_to 10713
  154.8560  135.3537  154.5796 H   0  0  0  0  0  0  0  0  0  0  0  0  # atno 10763 bound_to 10752
  153.6407  135.6998  153.5247 H   0  0  0  0  0  0  0  0  0  0  0  0  # atno 10764 bound_to 10752
  153.2973  135.4217  155.1180 H   0  0  0  0  0  0  0  0  0  0  0  0  # atno 10765 bound_to 10752
  140.5410  134.5522  157.5099 H   0  0  0  0  0  0  0  0  0  0  0  0  # atno 11005 bound_to 11000
  144.9510  139.4083  143.6402 LP  0  0  0  0  0  0  0  0  0  0  0  0  # atno 17320 bound_to 7965
  146.3304  139.8517  142.8872 LP  0  0  0  0  0  0  0  0  0  0  0  0  # atno 17321 bound_to 7965
  140.7800  143.4785  151.0050 LP  0  0  0  0  0  0  0  0  0  0  0  0  # atno 17342 bound_to 10162
  139.8472  143.7486  152.3179 LP  0  0  0  0  0  0  0  0  0  0  0  0  # atno 17343 bound_to 10162
  156.6197  130.4402  149.5827 LP  0  0  0  0  0  0  0  0  0  0  0  0  # atno 17370 bound_to 10713
  156.2365  130.6826  151.1515 LP  0  0  0  0  0  0  0  0  0  0  0  0  # atno 17371 bound_to 10713
  139.9504  134.7627  156.0463 LP  0  0  0  0  0  0  0  0  0  0  0  0  # atno 17394 bound_to 11000
  141.1227  133.6608  156.3256 LP  0  0  0  0  0  0  0  0  0  0  0  0  # atno 17395 bound_to 11000

$$$$
