AV-unprocessed.smi:234|AV-procd|sdf|1793|dock8
  -GOLD-   2262020353D 1   1.00000     0.00000
 Structure written by MMmdl.
 59 62  0  0  0  0  0  0  0  0  1 V2000
  153.3062  142.0234  161.5706 C   0  0  0  0  0  0  0  0  0  0  0  0
  152.7813  142.1047  160.1357 C   0  0  0  0  0  0  0  0  0  0  0  0
  152.5615  140.7894  159.6528 O   0  0  0  0  0  0  0  0  0  0  0  0
  152.0562  140.7609  158.3232 C   0  0  2  0  0  0  0  0  0  0  0  0
  150.5726  141.1367  158.2617 C   0  0  0  0  0  0  0  0  0  0  0  0
  150.2808  139.6452  158.4799 C   0  0  1  0  0  0  0  0  0  0  0  0
  149.1362  139.1369  157.7158 N   0  0  0  0  0  0  0  0  0  0  0  0
  148.8093  139.7979  156.4567 C   0  0  0  0  0  0  0  0  0  0  0  0
  148.9572  137.7936  157.6507 C   0  0  0  0  0  0  0  0  0  0  0  0
  149.0291  137.1501  156.4547 N   0  0  0  0  0  0  0  0  0  0  0  0
  148.8415  135.8289  156.3894 C   0  0  0  0  0  0  0  0  0  0  0  0
  148.5743  134.9740  157.3785 N   0  0  0  0  0  0  0  0  0  0  0  0
  148.4981  135.6150  158.5799 C   0  0  0  0  0  0  0  0  0  0  0  0
  148.6673  137.0106  158.8017 C   0  0  0  0  0  0  0  0  0  0  0  0
  148.5149  137.2991  160.1522 N   0  0  0  0  0  0  0  0  0  0  0  0
  148.2725  136.1389  160.6986 C   0  0  0  0  0  0  0  0  0  0  0  0
  148.2572  135.0708  159.8295 N   0  0  0  0  0  0  0  0  0  0  0  0
  148.0294  133.6747  160.1702 C   0  0  0  0  0  0  0  0  0  0  0  0
  146.8875  133.4673  161.1960 C   0  0  1  0  0  0  0  0  0  0  0  0
  146.6433  132.0756  161.3150 O   0  0  0  0  0  0  0  0  0  0  0  0
  147.2528  134.0067  162.5834 C   0  0  0  0  0  0  0  0  0  0  0  0
  146.3224  135.1988  162.7763 C   0  0  0  0  0  0  0  0  0  0  0  0
  145.1587  134.8091  162.0693 O   0  0  0  0  0  0  0  0  0  0  0  0
  145.5916  134.2425  160.8412 C   0  0  2  0  0  0  0  0  0  0  0  0
  144.4538  133.4462  160.1808 C   0  0  0  0  0  0  0  0  0  0  0  0
  151.6716  139.3324  157.8595 C   0  0  0  0  0  0  0  0  0  0  0  0
  151.7453  139.1299  156.3368 C   0  0  0  0  0  0  0  0  0  0  0  0
  152.4667  138.1872  158.4930 C   0  0  0  0  0  0  0  0  0  0  0  0
  153.4904  143.0190  161.9748 H   0  0  0  0  0  0  0  0  0  0  0  0
  154.2423  141.4661  161.6131 H   0  0  0  0  0  0  0  0  0  0  0  0
  152.5881  141.5246  162.2220 H   0  0  0  0  0  0  0  0  0  0  0  0
  151.8567  142.6824  160.1121 H   0  0  0  0  0  0  0  0  0  0  0  0
  153.5067  142.6189  159.5037 H   0  0  0  0  0  0  0  0  0  0  0  0
  152.6880  141.2935  157.6103 H   0  0  0  0  0  0  0  0  0  0  0  0
  150.2203  141.7872  159.0623 H   0  0  0  0  0  0  0  0  0  0  0  0
  150.2687  141.5083  157.2816 H   0  0  0  0  0  0  0  0  0  0  0  0
  150.2426  139.3945  159.5416 H   0  0  0  0  0  0  0  0  0  0  0  0
  148.8960  139.1207  155.6053 H   0  0  0  0  0  0  0  0  0  0  0  0
  149.4735  140.6409  156.2693 H   0  0  0  0  0  0  0  0  0  0  0  0
  147.7872  140.1755  156.4887 H   0  0  0  0  0  0  0  0  0  0  0  0
  148.9164  135.3948  155.4033 H   0  0  0  0  0  0  0  0  0  0  0  0
  148.1075  136.0267  161.7606 H   0  0  0  0  0  0  0  0  0  0  0  0
  147.8157  133.1302  159.2494 H   0  0  0  0  0  0  0  0  0  0  0  0
  148.9612  133.2608  160.5581 H   0  0  0  0  0  0  0  0  0  0  0  0
  145.8628  131.9543  161.8341 H   0  0  0  0  0  0  0  0  0  0  0  0
  147.0453  133.2683  163.3599 H   0  0  0  0  0  0  0  0  0  0  0  0
  148.3021  134.2880  162.6781 H   0  0  0  0  0  0  0  0  0  0  0  0
  146.1087  135.4022  163.8259 H   0  0  0  0  0  0  0  0  0  0  0  0
  146.7424  136.1005  162.3272 H   0  0  0  0  0  0  0  0  0  0  0  0
  145.8423  135.0851  160.1959 H   0  0  0  0  0  0  0  0  0  0  0  0
  144.7823  132.9869  159.2482 H   0  0  0  0  0  0  0  0  0  0  0  0
  143.6132  134.0996  159.9472 H   0  0  0  0  0  0  0  0  0  0  0  0
  144.0824  132.6565  160.8344 H   0  0  0  0  0  0  0  0  0  0  0  0
  151.3708  138.1504  156.0389 H   0  0  0  0  0  0  0  0  0  0  0  0
  152.7719  139.2069  155.9772 H   0  0  0  0  0  0  0  0  0  0  0  0
  151.1613  139.8735  155.7943 H   0  0  0  0  0  0  0  0  0  0  0  0
  152.1211  137.2128  158.1476 H   0  0  0  0  0  0  0  0  0  0  0  0
  152.3791  138.1881  159.5798 H   0  0  0  0  0  0  0  0  0  0  0  0
  153.5278  138.2618  158.2539 H   0  0  0  0  0  0  0  0  0  0  0  0
  1  2  1  0  0  0  0
  1 29  1  0  0  0  0
  1 30  1  0  0  0  0
  1 31  1  0  0  0  0
  2  3  1  0  0  0  0
  2 32  1  0  0  0  0
  2 33  1  0  0  0  0
  3  4  1  0  0  0  0
  4 26  1  0  0  0  0
  4  5  1  0  0  0  0
  4 34  1  0  0  0  0
  5  6  1  0  0  0  0
  5 35  1  0  0  0  0
  5 36  1  0  0  0  0
  6  7  1  0  0  0  0
  6 26  1  0  0  0  0
  6 37  1  0  0  0  0
  7  8  1  0  0  0  0
  7  9  1  0  0  0  0
  8 38  1  0  0  0  0
  8 39  1  0  0  0  0
  8 40  1  0  0  0  0
  9 14  1  0  0  0  0
  9 10  2  0  0  0  0
 10 11  1  0  0  0  0
 11 12  2  0  0  0  0
 11 41  1  0  0  0  0
 12 13  1  0  0  0  0
 13 17  1  0  0  0  0
 13 14  2  0  0  0  0
 14 15  1  0  0  0  0
 15 16  2  0  0  0  0
 16 17  1  0  0  0  0
 16 42  1  0  0  0  0
 17 18  1  0  0  0  0
 18 19  1  0  0  0  0
 18 43  1  0  0  0  0
 18 44  1  0  0  0  0
 19 24  1  0  0  0  0
 19 20  1  0  0  0  0
 19 21  1  0  0  0  0
 20 45  1  0  0  0  0
 21 22  1  0  0  0  0
 21 46  1  0  0  0  0
 21 47  1  0  0  0  0
 22 23  1  0  0  0  0
 22 48  1  0  0  0  0
 22 49  1  0  0  0  0
 23 24  1  0  0  0  0
 24 25  1  0  0  0  0
 24 50  1  0  0  0  0
 25 51  1  0  0  0  0
 25 52  1  0  0  0  0
 25 53  1  0  0  0  0
 26 27  1  0  0  0  0
 26 28  1  0  0  0  0
 27 54  1  0  0  0  0
 27 55  1  0  0  0  0
 27 56  1  0  0  0  0
 28 57  1  0  0  0  0
 28 58  1  0  0  0  0
 28 59  1  0  0  0  0
M  END
> <s_m_source_file>
AV-unprocessed.smi

> <i_m_source_file_index>
234

> <i_lp_mmshare_version>
43012

> <i_f3d_flags>
0

> <s_epik_input>
W0NIM11bQ0gyXU9bQ0BASF0oQzEoW0NIM10pW0NIM10pW0NIMl1bQ0BIXTFOKFtDSDNdKWMobltjSF1uMiljKGMyMyluW2NIXW4zW0NIMl1bQ0BAXTQoW09IXSlbQ0gyXVtDSDJdT1tDQEhdNFtDSDNd

> <s_epik_cmdline>
J2VwaWtfcHl0aG9uJywgJy1waCcsICc3LjAnLCAnLXRuJywgJzgnLCAnLW1hJywgJzIwMCcsICctbWV0YWxfYmluZGluZycsICctaW1hZScsICc8aW5maWxlLm1hZT4nLCAnLW9tYWUnLCAnPG91dGZpbGUubWFlPic=

> <r_lp_tautomer_probability>
1

> <r_epik_Ionization_Penalty>
0.00349132

> <r_epik_Ionization_Penalty_Charging>
0

> <r_epik_Ionization_Penalty_Neutral>
0.00349132

> <r_epik_State_Penalty>
0.00242418

> <r_epik_Charging_Adjusted_Penalty>
0.00242418

> <i_epik_Tot_Q>
0

> <i_epik_Tot_abs_Q>
0

> <r_epik_Metal_State_Penalty>
-0

> <b_epik_Metal_Only>
0

> <s_lp_Force_Field>
OPLS_2005

> <r_lp_Energy>
48.0221

> <b_lp_Chiralities_Consistent>
1

> <s_lp_Variant>
AV-unprocessed.smi:234-9

> <Gold.Version>
5.8.1

> <Gold.Id.Protein>
6NUR|6NUR_protein|mol2

> <Gold.PLP.Fitness>
38.1329

> <Gold.PLP.PLP>
-37.1173

> <Gold.PLP.part.hbond>
-2.0000

> <Gold.PLP.part.metal>
0.0000

> <Gold.PLP.part.buried>
-5.8024

> <Gold.PLP.part.nonpolar>
-30.2812

> <Gold.PLP.part.repulsive>
0.0154

> <Gold.PLP.ligand.clash>
0.0000

> <Gold.PLP.ligand.torsion>
1.0450

> <Gold.PLP.Chemscore.Hbond>
0.6298

> <Gold.PLP.Chemscore.CHOScore>
0.0000

> <Gold.PLP.Chemscore.Metal>
0.0000

> <Gold.Chemscore.Hbonds>
donor molecule, donor type, donor heavy atom, donor atom, acceptor molecule, acceptor atom, score
      P1  H  6931  6943       L1    15  0.46
      P1  H  6934  6947       L1    15  0.17

> <Gold.PLP.Chemscore.Internal.Correction>
1.2164

> <Gold.Rescore>
     Score         DG    S(hbond)    S(metal)    S(lipo)     H(rot)  DE(clash)    DE(int)     intcor
      9.64     -10.88       0.53        0.00      88.54       2.62       0.08       1.17       ----

> <Gold.Chemscore.Fitness>
9.6382

> <Gold.Chemscore.DG>
-10.8827

> <Gold.Chemscore.ZeroCoef>
-5.4800

> <Gold.Chemscore.Hbond>
0.5256

> <Gold.Chemscore.Metal>
0.0000

> <Gold.Chemscore.Lipo>
88.5421

> <Gold.Chemscore.Internal_Hbond>
0.0000

> <Gold.Chemscore.DEClash>
0.0759

> <Gold.Chemscore.DEInternal>
1.1687

> <Gold.Chemscore.Rot>
2.6219

> <Gold.Chemscore.Internal.Correction>
   9.000000E+99

> <Gold.Chemscore.Hbonds>
donor molecule, donor type, donor heavy atom, donor atom, acceptor molecule, acceptor atom, score
      P1  H  6931  6943       L1    15  0.07
      P1  H  6934  6947       L1    15  0.15

> <Gold.Chemscore.Hbond.Weighted>
-1.7554

> <Gold.Chemscore.Metal.Weighted>
-0.0000

> <Gold.Chemscore.Lipo.Weighted>
-10.3594

> <Gold.Chemscore.Internal_Hbond.Weighted>
0.0000

> <Gold.Chemscore.DEClash.Weighted>
0.0759

> <Gold.Chemscore.DEInternal.Weighted>
1.1687

> <Gold.Chemscore.Rot.Weighted>
6.7121

> <Gold.Chemscore.Internal.Correction.Weighted>
   9.000000E+99

> <Gold.Protein.RotatedTorsions>
[ 6907 6896 6895 6894 ] final   67.58 input  -60.11 | X-H torsion
[ 7974 7965 7964 7962 ] final   58.89 input  175.53 | X-H torsion
[ 8008 7997 7996 7995 ] final -116.10 input   59.86 | X-H torsion
[ 10167 10162 10161 10158 ] final   66.29 input  -65.29 | X-H torsion
[ 10718 10713 10712 10709 ] final  107.33 input   66.30 | X-H torsion
[ 10763 10752 10751 10750 ] final  170.17 input  -60.55 | X-H torsion
[ 11005 11000 10999 10996 ] final   81.36 input  -57.11 | X-H torsion

> <Gold.Protein.ActiveResidues>
 VAL166  LYS551  ARG553  GLY616  TRP617  ASP618  TYR619  PRO620  LYS621  CYS622 
 ASP623  PHE694  ASN695  SER759  ASP760  ASP761  ALA762  ILE779  LEU786  VAL792 
 PHE793  MET794  SER795  GLU796  ALA797  LYS798  CYS799  TRP800  GLU811  SER814 

> <Gold.Protein.RotatedAtoms>
  152.4562  134.5286  159.9803 H   0  0  0  0  0  0  0  0  0  0  0  0  # atno 6907 bound_to 6896
  151.5346  133.3437  159.2932 H   0  0  0  0  0  0  0  0  0  0  0  0  # atno 6908 bound_to 6896
  150.8507  134.7861  159.7069 H   0  0  0  0  0  0  0  0  0  0  0  0  # atno 6909 bound_to 6896
  145.9132  139.3670  143.0523 H   0  0  0  0  0  0  0  0  0  0  0  0  # atno 7974 bound_to 7965
  155.0625  140.0393  157.2581 H   0  0  0  0  0  0  0  0  0  0  0  0  # atno 8008 bound_to 7997
  154.7048  140.2680  155.6661 H   0  0  0  0  0  0  0  0  0  0  0  0  # atno 8009 bound_to 7997
  156.2771  140.2733  156.1670 H   0  0  0  0  0  0  0  0  0  0  0  0  # atno 8010 bound_to 7997
  140.1020  144.4895  150.7031 H   0  0  0  0  0  0  0  0  0  0  0  0  # atno 10167 bound_to 10162
  157.6633  131.0870  150.6139 H   0  0  0  0  0  0  0  0  0  0  0  0  # atno 10718 bound_to 10713
  154.3938  135.2754  155.2138 H   0  0  0  0  0  0  0  0  0  0  0  0  # atno 10763 bound_to 10752
  154.4193  135.6004  153.6004 H   0  0  0  0  0  0  0  0  0  0  0  0  # atno 10764 bound_to 10752
  152.9831  135.5968  154.4196 H   0  0  0  0  0  0  0  0  0  0  0  0  # atno 10765 bound_to 10752
  139.9101  134.7990  156.2031 H   0  0  0  0  0  0  0  0  0  0  0  0  # atno 11005 bound_to 11000
  145.8645  140.9456  143.0683 LP  0  0  0  0  0  0  0  0  0  0  0  0  # atno 17320 bound_to 7965
  144.6745  140.0573  143.7477 LP  0  0  0  0  0  0  0  0  0  0  0  0  # atno 17321 bound_to 7965
  140.6973  143.2411  151.4966 LP  0  0  0  0  0  0  0  0  0  0  0  0  # atno 17342 bound_to 10162
  139.5666  144.2028  152.1774 LP  0  0  0  0  0  0  0  0  0  0  0  0  # atno 17343 bound_to 10162
  156.6441  130.4466  149.5742 LP  0  0  0  0  0  0  0  0  0  0  0  0  # atno 17370 bound_to 10713
  156.2187  130.6723  151.1345 LP  0  0  0  0  0  0  0  0  0  0  0  0  # atno 17371 bound_to 10713
  141.0512  133.6887  156.1776 LP  0  0  0  0  0  0  0  0  0  0  0  0  # atno 17394 bound_to 11000
  140.6806  134.4771  157.5589 LP  0  0  0  0  0  0  0  0  0  0  0  0  # atno 17395 bound_to 11000

$$$$
