AV-unprocessed.smi:1405|AV-procd|sdf|5708|dock7
  -GOLD-   22720 5343D 1   1.00000     0.00000
 Structure written by MMmdl.
 48 51  0  0  0  0  0  0  0  0  2 V2000
  147.1051  138.2246  155.0997 O   0  0  0  0  0  0  0  0  0  0  0  0
  147.9899  138.7404  155.7820 C   0  0  0  0  0  0  0  0  0  0  0  0
  148.9119  139.7930  155.1412 C   0  0  0  0  0  0  0  0  0  0  0  0
  150.3104  139.3621  154.9586 N   0  0  0  0  0  0  0  0  0  0  0  0
  150.5376  138.2188  154.1721 C   0  0  0  0  0  0  0  0  0  0  0  0
  151.7768  137.7372  153.9589 C   0  0  0  0  0  0  0  0  0  0  0  0
  152.9024  138.4342  154.5683 C   0  0  0  0  0  0  0  0  0  0  0  0
  154.0410  138.0083  154.3851 O   0  0  0  0  0  0  0  0  0  0  0  0
  152.6309  139.5387  155.3235 N   0  5  0  0  0  0  0  0  0  0  0  0
  151.3649  140.0159  155.5336 C   0  0  0  0  0  0  0  0  0  0  0  0
  151.1414  141.0073  156.2284 O   0  0  0  0  0  0  0  0  0  0  0  0
  148.1991  138.4140  157.0675 N   0  0  0  0  0  0  0  0  0  0  0  0
  147.4406  137.4279  157.8228 C   0  0  0  0  0  0  0  0  0  0  0  0
  148.1102  137.1843  159.1881 C   0  0  0  0  0  0  0  0  0  0  0  0
  147.4039  136.1775  160.1315 C   0  0  0  0  0  0  0  0  0  0  0  0
  145.8669  136.3991  160.1487 C   0  0  0  0  0  0  0  0  0  0  0  0
  145.1806  135.3481  161.0478 C   0  0  2  0  0  0  0  0  0  0  0  0
  145.7222  135.4695  162.4878 C   0  0  0  0  0  0  0  0  0  0  0  0
  147.2457  135.2198  162.4822 C   0  0  1  0  0  0  0  0  0  0  0  0
  147.5360  133.8045  161.9421 C   0  0  0  0  0  0  0  0  0  0  0  0
  146.9898  133.6904  160.5045 C   0  0  1  0  0  0  0  0  0  0  0  0
  145.4669  133.9331  160.5050 C   0  0  0  0  0  0  0  0  0  0  0  0
  147.6778  134.7412  159.6083 C   0  0  0  0  0  0  0  0  0  0  0  0
  147.9380  136.2707  161.5867 C   0  0  0  0  0  0  0  0  0  0  0  0
  148.4841  140.0749  154.1782 H   0  0  0  0  0  0  0  0  0  0  0  0
  148.8688  140.7023  155.7431 H   0  0  0  0  0  0  0  0  0  0  0  0
  149.6496  137.7588  153.7636 H   0  0  0  0  0  0  0  0  0  0  0  0
  151.9333  136.8556  153.3547 H   0  0  0  0  0  0  0  0  0  0  0  0
  148.9432  138.8913  157.5563 H   0  0  0  0  0  0  0  0  0  0  0  0
  146.4169  137.7784  157.9594 H   0  0  0  0  0  0  0  0  0  0  0  0
  147.3980  136.5121  157.2342 H   0  0  0  0  0  0  0  0  0  0  0  0
  149.1336  136.8452  159.0192 H   0  0  0  0  0  0  0  0  0  0  0  0
  148.2003  138.1449  159.6979 H   0  0  0  0  0  0  0  0  0  0  0  0
  145.6230  137.3948  160.5188 H   0  0  0  0  0  0  0  0  0  0  0  0
  145.4644  136.3420  159.1365 H   0  0  0  0  0  0  0  0  0  0  0  0
  144.1043  135.5228  161.0500 H   0  0  0  0  0  0  0  0  0  0  0  0
  145.5024  136.4587  162.8918 H   0  0  0  0  0  0  0  0  0  0  0  0
  145.2233  134.7522  163.1405 H   0  0  0  0  0  0  0  0  0  0  0  0
  147.6289  135.3031  163.4996 H   0  0  0  0  0  0  0  0  0  0  0  0
  148.6086  133.6067  161.9564 H   0  0  0  0  0  0  0  0  0  0  0  0
  147.0751  133.0520  162.5830 H   0  0  0  0  0  0  0  0  0  0  0  0
  147.1969  132.6924  160.1170 H   0  0  0  0  0  0  0  0  0  0  0  0
  144.9644  133.1837  161.1180 H   0  0  0  0  0  0  0  0  0  0  0  0
  145.0658  133.8263  159.4964 H   0  0  0  0  0  0  0  0  0  0  0  0
  147.3222  134.6382  158.5821 H   0  0  0  0  0  0  0  0  0  0  0  0
  148.7513  134.5486  159.5772 H   0  0  0  0  0  0  0  0  0  0  0  0
  149.0187  136.1230  161.6047 H   0  0  0  0  0  0  0  0  0  0  0  0
  147.7574  137.2623  162.0023 H   0  0  0  0  0  0  0  0  0  0  0  0
  1  2  2  0  0  0  0
  2  3  1  0  0  0  0
  2 12  1  0  0  0  0
  3  4  1  0  0  0  0
  3 25  1  0  0  0  0
  3 26  1  0  0  0  0
  4 10  1  0  0  0  0
  4  5  1  0  0  0  0
  5  6  2  0  0  0  0
  5 27  1  0  0  0  0
  6  7  1  0  0  0  0
  6 28  1  0  0  0  0
  7  8  2  0  0  0  0
  7  9  1  0  0  0  0
  9 10  1  0  0  0  0
 10 11  2  0  0  0  0
 12 13  1  0  0  0  0
 12 29  1  0  0  0  0
 13 14  1  0  0  0  0
 13 30  1  0  0  0  0
 13 31  1  0  0  0  0
 14 15  1  0  0  0  0
 14 32  1  0  0  0  0
 14 33  1  0  0  0  0
 15 23  1  0  0  0  0
 15 24  1  0  0  0  0
 15 16  1  0  0  0  0
 16 17  1  0  0  0  0
 16 34  1  0  0  0  0
 16 35  1  0  0  0  0
 17 22  1  0  0  0  0
 17 18  1  0  0  0  0
 17 36  1  0  0  0  0
 18 19  1  0  0  0  0
 18 37  1  0  0  0  0
 18 38  1  0  0  0  0
 19 20  1  0  0  0  0
 19 24  1  0  0  0  0
 19 39  1  0  0  0  0
 20 21  1  0  0  0  0
 20 40  1  0  0  0  0
 20 41  1  0  0  0  0
 21 22  1  0  0  0  0
 21 23  1  0  0  0  0
 21 42  1  0  0  0  0
 22 43  1  0  0  0  0
 22 44  1  0  0  0  0
 23 45  1  0  0  0  0
 23 46  1  0  0  0  0
 24 47  1  0  0  0  0
 24 48  1  0  0  0  0
M  CHG  1   9  -1
M  END
> <s_m_source_file>
AV-unprocessed.smi

> <i_m_source_file_index>
1405

> <i_lp_mmshare_version>
43012

> <i_f3d_flags>
0

> <s_epik_input>
Tz1jMVtuSF1jKD1PKVtjSF1bY0hdbjFbQ0gyXUMoPU8pW05IXVtDSDJdW0NIMl1DMjNbQ0gyXVtDQEBIXTRbQ0gyXVtDQEhdKFtDSDJdMylbQ0gyXVtDQEBIXShbQ0gyXTQpW0NIMl0y

> <s_epik_cmdline>
J2VwaWtfcHl0aG9uJywgJy1waCcsICc3LjAnLCAnLXRuJywgJzgnLCAnLW1hJywgJzIwMCcsICctbWV0YWxfYmluZGluZycsICctaW1hZScsICc8aW5maWxlLm1hZT4nLCAnLW9tYWUnLCAnPG91dGZpbGUubWFlPic=

> <r_lp_tautomer_probability>
0.999537

> <r_epik_Ionization_Penalty>
3.12935

> <r_epik_Ionization_Penalty_Charging>
2.8866e-08

> <r_epik_Ionization_Penalty_Neutral>
3.12935

> <r_epik_State_Penalty>
3.12845

> <r_epik_Charging_Adjusted_Penalty>
3.12845

> <i_epik_Tot_Q>
-1

> <i_epik_Tot_abs_Q>
1

> <r_epik_Metal_State_Penalty>
0.464346

> <b_epik_Metal_Only>
1

> <s_lp_Force_Field>
OPLS_2005

> <r_lp_Energy>
42.9683

> <b_lp_Chiralities_Consistent>
1

> <s_lp_Variant>
AV-unprocessed.smi:1405-2

> <Gold.Version>
5.8.1

> <Gold.Id.Protein>
6NUR|6NUR_protein|mol2

> <Gold.PLP.Fitness>
47.1460

> <Gold.PLP.PLP>
-38.9481

> <Gold.PLP.part.hbond>
-3.0237

> <Gold.PLP.part.metal>
0.0000

> <Gold.PLP.part.buried>
-4.3374

> <Gold.PLP.part.nonpolar>
-31.3671

> <Gold.PLP.part.repulsive>
0.1232

> <Gold.PLP.ligand.clash>
0.0000

> <Gold.PLP.ligand.torsion>
0.2783

> <Gold.PLP.Chemscore.Hbond>
2.0000

> <Gold.PLP.Chemscore.CHOScore>
0.9087

> <Gold.PLP.Chemscore.Metal>
0.0000

> <Gold.Chemscore.Hbonds>
donor molecule, donor type, donor heavy atom, donor atom, acceptor molecule, acceptor atom, score
      P1  H  7997  8008       L1     9  2.00
      L1  C     5    27       P1  7948  1.00

> <Gold.PLP.Chemscore.Internal.Correction>
0.0284

> <Gold.Rescore>
     Score         DG    S(hbond)    S(metal)    S(lipo)     H(rot)  DE(clash)    DE(int)     intcor
     13.12     -13.86       0.92        0.00      91.82       2.12       0.35       0.38       ----

> <Gold.Chemscore.Fitness>
13.1242

> <Gold.Chemscore.DG>
-13.8555

> <Gold.Chemscore.ZeroCoef>
-5.4800

> <Gold.Chemscore.Hbond>
0.9174

> <Gold.Chemscore.Metal>
0.0000

> <Gold.Chemscore.Lipo>
91.8199

> <Gold.Chemscore.Internal_Hbond>
0.0000

> <Gold.Chemscore.DEClash>
0.3493

> <Gold.Chemscore.DEInternal>
0.3820

> <Gold.Chemscore.Rot>
2.1216

> <Gold.Chemscore.Internal.Correction>
   9.000000E+99

> <Gold.Chemscore.Hbonds>
donor molecule, donor type, donor heavy atom, donor atom, acceptor molecule, acceptor atom, score
      P1  H  7997  8008       L1     9  0.58

> <Gold.Chemscore.Hbond.Weighted>
-3.0640

> <Gold.Chemscore.Metal.Weighted>
-0.0000

> <Gold.Chemscore.Lipo.Weighted>
-10.7429

> <Gold.Chemscore.Internal_Hbond.Weighted>
0.0000

> <Gold.Chemscore.DEClash.Weighted>
0.3493

> <Gold.Chemscore.DEInternal.Weighted>
0.3820

> <Gold.Chemscore.Rot.Weighted>
5.4314

> <Gold.Chemscore.Internal.Correction.Weighted>
   9.000000E+99

> <Gold.Protein.RotatedTorsions>
[ 6907 6896 6895 6894 ] final  -91.98 input  -60.11 | X-H torsion
[ 7974 7965 7964 7962 ] final  -87.61 input  175.53 | X-H torsion
[ 8008 7997 7996 7995 ] final  -28.75 input   59.86 | X-H torsion
[ 10167 10162 10161 10158 ] final -147.01 input  -65.29 | X-H torsion
[ 10718 10713 10712 10709 ] final  123.77 input   66.30 | X-H torsion
[ 10763 10752 10751 10750 ] final  132.67 input  -60.55 | X-H torsion
[ 11005 11000 10999 10996 ] final   39.30 input  -57.11 | X-H torsion

> <Gold.Protein.ActiveResidues>
 VAL166  LYS551  ARG553  GLY616  TRP617  ASP618  TYR619  PRO620  LYS621  CYS622 
 ASP623  PHE694  ASN695  SER759  ASP760  ASP761  ALA762  ILE779  LEU786  VAL792 
 PHE793  MET794  SER795  GLU796  ALA797  LYS798  CYS799  TRP800  GLU811  SER814 

> <Gold.Protein.RotatedAtoms>
  150.6900  134.2193  159.4389 H   0  0  0  0  0  0  0  0  0  0  0  0  # atno 6907 bound_to 6896
  152.0150  134.9852  160.0578 H   0  0  0  0  0  0  0  0  0  0  0  0  # atno 6908 bound_to 6896
  152.1452  133.4453  159.4823 H   0  0  0  0  0  0  0  0  0  0  0  0  # atno 6909 bound_to 6896
  145.4642  140.9560  143.1953 H   0  0  0  0  0  0  0  0  0  0  0  0  # atno 7974 bound_to 7965
  154.4319  140.1837  156.1139 H   0  0  0  0  0  0  0  0  0  0  0  0  # atno 8008 bound_to 7997
  156.0196  140.3342  155.6999 H   0  0  0  0  0  0  0  0  0  0  0  0  # atno 8009 bound_to 7997
  155.5995  140.0639  157.2727 H   0  0  0  0  0  0  0  0  0  0  0  0  # atno 8010 bound_to 7997
  139.7661  143.8306  152.2616 H   0  0  0  0  0  0  0  0  0  0  0  0  # atno 10167 bound_to 10162
  157.5638  131.1088  150.8490 H   0  0  0  0  0  0  0  0  0  0  0  0  # atno 10718 bound_to 10713
  153.7945  135.3150  155.3382 H   0  0  0  0  0  0  0  0  0  0  0  0  # atno 10763 bound_to 10752
  154.8113  135.4665  154.0527 H   0  0  0  0  0  0  0  0  0  0  0  0  # atno 10764 bound_to 10752
  153.1855  135.6900  153.8508 H   0  0  0  0  0  0  0  0  0  0  0  0  # atno 10765 bound_to 10752
  140.2041  134.3835  155.8081 H   0  0  0  0  0  0  0  0  0  0  0  0  # atno 11005 bound_to 11000
  144.7984  139.6188  143.7082 LP  0  0  0  0  0  0  0  0  0  0  0  0  # atno 17320 bound_to 7965
  146.2434  139.6048  142.9476 LP  0  0  0  0  0  0  0  0  0  0  0  0  # atno 17321 bound_to 7965
  139.8327  144.7246  150.9431 LP  0  0  0  0  0  0  0  0  0  0  0  0  # atno 17342 bound_to 10162
  140.7811  143.4055  151.1077 LP  0  0  0  0  0  0  0  0  0  0  0  0  # atno 17343 bound_to 10162
  156.8980  130.5236  149.5283 LP  0  0  0  0  0  0  0  0  0  0  0  0  # atno 17370 bound_to 10713
  156.0688  130.5726  150.9343 LP  0  0  0  0  0  0  0  0  0  0  0  0  # atno 17371 bound_to 10713
  141.2227  133.7109  156.8307 LP  0  0  0  0  0  0  0  0  0  0  0  0  # atno 17394 bound_to 11000
  140.2022  134.8889  157.3182 LP  0  0  0  0  0  0  0  0  0  0  0  0  # atno 17395 bound_to 11000

$$$$
