AV-unprocessed.smi:1099|AV-procd|sdf|4757|dock9
  -GOLD-   22720 3293D 1   1.00000     0.00000
 Structure written by MMmdl.
 41 43  0  0  0  0  0  0  0  0  1 V2000
  153.7216  139.5703  159.9765 C   0  0  0  0  0  0  0  0  0  0  0  0
  154.4546  140.7350  160.6503 C   0  0  0  0  0  0  0  0  0  0  0  0
  153.5910  141.9417  160.8073 C   0  0  0  0  0  0  0  0  0  0  0  0
  153.1191  142.6505  159.7780 N   0  0  0  0  0  0  0  0  0  0  0  0
  152.3621  143.7533  160.1856 C   0  0  0  0  0  0  0  0  0  0  0  0
  151.7403  144.6560  159.1636 C   0  0  0  0  0  0  0  0  0  0  0  0
  152.1456  144.2805  157.7316 C   0  0  0  0  0  0  0  0  0  0  0  0
  151.0684  143.5615  157.0647 N   0  0  0  0  0  0  0  0  0  0  0  0
  150.9088  142.2307  157.0999 C   0  0  0  0  0  0  0  0  0  0  0  0
  151.6758  141.4814  157.7056 O   0  0  0  0  0  0  0  0  0  0  0  0
  149.6773  141.6781  156.3597 C   0  0  2  0  0  0  0  0  0  0  0  0
  148.8093  140.6990  157.1886 C   0  0  0  0  0  0  0  0  0  0  0  0
  148.6987  139.4695  156.2673 C   0  0  2  0  0  0  0  0  0  0  0  0
  150.0459  138.7238  156.2407 C   0  0  0  0  0  0  0  0  0  0  0  0
  150.9257  139.6455  155.3764 C   0  0  0  0  0  0  0  0  0  0  0  0
  149.9898  140.8408  155.0910 C   0  0  1  0  0  0  0  0  0  0  0  0
  148.6635  140.1145  154.8864 C   0  0  0  0  0  0  0  0  0  0  0  0
  152.2767  143.8763  161.5501 C   0  0  0  0  0  0  0  0  0  0  0  0
  153.1483  142.6125  162.3728 S   0  0  0  0  0  0  0  0  0  0  0  0
  154.3786  138.7068  159.8720 H   0  0  0  0  0  0  0  0  0  0  0  0
  153.3744  139.8473  158.9805 H   0  0  0  0  0  0  0  0  0  0  0  0
  152.8543  139.2609  160.5605 H   0  0  0  0  0  0  0  0  0  0  0  0
  154.8164  140.4292  161.6327 H   0  0  0  0  0  0  0  0  0  0  0  0
  155.3330  141.0087  160.0652 H   0  0  0  0  0  0  0  0  0  0  0  0
  150.6538  144.6211  159.2539 H   0  0  0  0  0  0  0  0  0  0  0  0
  152.0233  145.6907  159.3623 H   0  0  0  0  0  0  0  0  0  0  0  0
  152.3911  145.1779  157.1615 H   0  0  0  0  0  0  0  0  0  0  0  0
  153.0390  143.6542  157.7496 H   0  0  0  0  0  0  0  0  0  0  0  0
  150.3956  144.1112  156.5503 H   0  0  0  0  0  0  0  0  0  0  0  0
  149.0496  142.5232  156.0696 H   0  0  0  0  0  0  0  0  0  0  0  0
  149.2258  140.4402  158.1628 H   0  0  0  0  0  0  0  0  0  0  0  0
  147.8235  141.1309  157.3657 H   0  0  0  0  0  0  0  0  0  0  0  0
  147.8493  138.8262  156.4988 H   0  0  0  0  0  0  0  0  0  0  0  0
  150.4553  138.5782  157.2412 H   0  0  0  0  0  0  0  0  0  0  0  0
  149.9429  137.7433  155.7743 H   0  0  0  0  0  0  0  0  0  0  0  0
  151.8609  139.9198  155.8628 H   0  0  0  0  0  0  0  0  0  0  0  0
  151.1890  139.1441  154.4441 H   0  0  0  0  0  0  0  0  0  0  0  0
  150.3027  141.4454  154.2391 H   0  0  0  0  0  0  0  0  0  0  0  0
  148.6848  139.3906  154.0695 H   0  0  0  0  0  0  0  0  0  0  0  0
  147.8158  140.7874  154.7438 H   0  0  0  0  0  0  0  0  0  0  0  0
  151.7571  144.6327  162.1192 H   0  0  0  0  0  0  0  0  0  0  0  0
  1  2  1  0  0  0  0
  1 20  1  0  0  0  0
  1 21  1  0  0  0  0
  1 22  1  0  0  0  0
  2  3  1  0  0  0  0
  2 23  1  0  0  0  0
  2 24  1  0  0  0  0
  3 19  1  0  0  0  0
  3  4  2  0  0  0  0
  4  5  1  0  0  0  0
  5  6  1  0  0  0  0
  5 18  2  0  0  0  0
  6  7  1  0  0  0  0
  6 25  1  0  0  0  0
  6 26  1  0  0  0  0
  7  8  1  0  0  0  0
  7 27  1  0  0  0  0
  7 28  1  0  0  0  0
  8  9  1  0  0  0  0
  8 29  1  0  0  0  0
  9 10  2  0  0  0  0
  9 11  1  0  0  0  0
 11 16  1  0  0  0  0
 11 12  1  0  0  0  0
 11 30  1  0  0  0  0
 12 13  1  0  0  0  0
 12 31  1  0  0  0  0
 12 32  1  0  0  0  0
 13 17  1  0  0  0  0
 13 14  1  0  0  0  0
 13 33  1  0  0  0  0
 14 15  1  0  0  0  0
 14 34  1  0  0  0  0
 14 35  1  0  0  0  0
 15 16  1  0  0  0  0
 15 36  1  0  0  0  0
 15 37  1  0  0  0  0
 16 17  1  0  0  0  0
 16 38  1  0  0  0  0
 17 39  1  0  0  0  0
 17 40  1  0  0  0  0
 18 19  1  0  0  0  0
 18 41  1  0  0  0  0
M  END
> <s_m_source_file>
AV-unprocessed.smi

> <i_m_source_file_index>
1099

> <i_lp_mmshare_version>
43012

> <i_f3d_flags>
0

> <s_epik_input>
W0NIM11bQ0gyXWMxbmMoW2NIXXMxKVtDSDJdW0NIMl1bTkhdQyg9TylbQ0BIXShbQ0gyXVtDQEBIXTIzKVtDQEBIXShbQ0gyXTMpW0NIMl1bQ0gyXTI=

> <s_epik_cmdline>
J2VwaWtfcHl0aG9uJywgJy1waCcsICc3LjAnLCAnLXRuJywgJzgnLCAnLW1hJywgJzIwMCcsICctbWV0YWxfYmluZGluZycsICctaW1hZScsICc8aW5maWxlLm1hZT4nLCAnLW9tYWUnLCAnPG91dGZpbGUubWFlPic=

> <r_epik_Ionization_Penalty>
0.00110131

> <r_epik_Ionization_Penalty_Charging>
0

> <r_epik_Ionization_Penalty_Neutral>
0.00110131

> <r_epik_State_Penalty>
0.00072257

> <r_epik_Charging_Adjusted_Penalty>
0.00072257

> <i_epik_Tot_Q>
0

> <i_epik_Tot_abs_Q>
0

> <r_epik_Metal_State_Penalty>
-0

> <b_epik_Metal_Only>
0

> <s_lp_Force_Field>
OPLS_2005

> <r_lp_Energy>
38.6178

> <b_lp_Chiralities_Consistent>
1

> <s_lp_Variant>
AV-unprocessed.smi:1099-3

> <Gold.Version>
5.8.1

> <Gold.Id.Protein>
6NUR|6NUR_protein|mol2

> <Gold.PLP.Fitness>
47.0672

> <Gold.PLP.PLP>
-45.4462

> <Gold.PLP.part.hbond>
-1.0000

> <Gold.PLP.part.metal>
0.0000

> <Gold.PLP.part.buried>
-4.9852

> <Gold.PLP.part.nonpolar>
-39.4560

> <Gold.PLP.part.repulsive>
0.0219

> <Gold.PLP.ligand.clash>
0.0000

> <Gold.PLP.ligand.torsion>
0.7152

> <Gold.PLP.Chemscore.Hbond>
1.0000

> <Gold.PLP.Chemscore.CHOScore>
0.0000

> <Gold.PLP.Chemscore.Metal>
0.0000

> <Gold.Chemscore.Hbonds>
donor molecule, donor type, donor heavy atom, donor atom, acceptor molecule, acceptor atom, score
      L1  H     8    29       P1  8028  1.00

> <Gold.PLP.Chemscore.Internal.Correction>
0.0514

> <Gold.Rescore>
     Score         DG    S(hbond)    S(metal)    S(lipo)     H(rot)  DE(clash)    DE(int)     intcor
     16.88     -19.87       1.00        0.00     125.52       1.42       0.17       2.81       ----

> <Gold.Chemscore.Fitness>
16.8818

> <Gold.Chemscore.DG>
-19.8686

> <Gold.Chemscore.ZeroCoef>
-5.4800

> <Gold.Chemscore.Hbond>
0.9968

> <Gold.Chemscore.Metal>
0.0000

> <Gold.Chemscore.Lipo>
125.5163

> <Gold.Chemscore.Internal_Hbond>
0.0000

> <Gold.Chemscore.DEClash>
0.1731

> <Gold.Chemscore.DEInternal>
2.8137

> <Gold.Chemscore.Rot>
1.4165

> <Gold.Chemscore.Internal.Correction>
   9.000000E+99

> <Gold.Chemscore.Hbonds>
donor molecule, donor type, donor heavy atom, donor atom, acceptor molecule, acceptor atom, score
      L1  H     8    29       P1  8028  1.00

> <Gold.Chemscore.Hbond.Weighted>
-3.3294

> <Gold.Chemscore.Metal.Weighted>
-0.0000

> <Gold.Chemscore.Lipo.Weighted>
-14.6854

> <Gold.Chemscore.Internal_Hbond.Weighted>
0.0000

> <Gold.Chemscore.DEClash.Weighted>
0.1731

> <Gold.Chemscore.DEInternal.Weighted>
2.8137

> <Gold.Chemscore.Rot.Weighted>
3.6262

> <Gold.Chemscore.Internal.Correction.Weighted>
   9.000000E+99

> <Gold.Protein.RotatedTorsions>
[ 6907 6896 6895 6894 ] final   61.77 input  -60.11 | X-H torsion
[ 7974 7965 7964 7962 ] final  170.35 input  175.53 | X-H torsion
[ 8008 7997 7996 7995 ] final  -93.79 input   59.86 | X-H torsion
[ 10167 10162 10161 10158 ] final  116.69 input  -65.29 | X-H torsion
[ 10718 10713 10712 10709 ] final -176.01 input   66.30 | X-H torsion
[ 10763 10752 10751 10750 ] final   20.16 input  -60.55 | X-H torsion
[ 11005 11000 10999 10996 ] final  -36.64 input  -57.11 | X-H torsion

> <Gold.Protein.ActiveResidues>
 VAL166  LYS551  ARG553  GLY616  TRP617  ASP618  TYR619  PRO620  LYS621  CYS622 
 ASP623  PHE694  ASN695  SER759  ASP760  ASP761  ALA762  ILE779  LEU786  VAL792 
 PHE793  MET794  SER795  GLU796  ALA797  LYS798  CYS799  TRP800  GLU811  SER814 

> <Gold.Protein.RotatedAtoms>
  152.4116  134.6114  160.0026 H   0  0  0  0  0  0  0  0  0  0  0  0  # atno 6907 bound_to 6896
  151.6289  133.3328  159.3112 H   0  0  0  0  0  0  0  0  0  0  0  0  # atno 6908 bound_to 6896
  150.8007  134.7138  159.6664 H   0  0  0  0  0  0  0  0  0  0  0  0  # atno 6909 bound_to 6896
  144.7326  139.9188  143.6419 H   0  0  0  0  0  0  0  0  0  0  0  0  # atno 7974 bound_to 7965
  154.7402  140.0495  157.0804 H   0  0  0  0  0  0  0  0  0  0  0  0  # atno 8008 bound_to 7997
  155.0188  140.3144  155.4782 H   0  0  0  0  0  0  0  0  0  0  0  0  # atno 8009 bound_to 7997
  156.2862  140.2171  156.5306 H   0  0  0  0  0  0  0  0  0  0  0  0  # atno 8010 bound_to 7997
  139.6230  144.7104  151.2594 H   0  0  0  0  0  0  0  0  0  0  0  0  # atno 10167 bound_to 10162
  156.8083  130.9577  151.3116 H   0  0  0  0  0  0  0  0  0  0  0  0  # atno 10718 bound_to 10713
  153.1100  135.6694  153.9517 H   0  0  0  0  0  0  0  0  0  0  0  0  # atno 10763 bound_to 10752
  153.9063  135.3030  155.3450 H   0  0  0  0  0  0  0  0  0  0  0  0  # atno 10764 bound_to 10752
  154.7520  135.5030  153.9383 H   0  0  0  0  0  0  0  0  0  0  0  0  # atno 10765 bound_to 10752
  140.9890  133.7015  156.1817 H   0  0  0  0  0  0  0  0  0  0  0  0  # atno 11005 bound_to 11000
  146.0945  139.3936  143.0385 LP  0  0  0  0  0  0  0  0  0  0  0  0  # atno 17320 bound_to 7965
  145.7665  140.9914  143.1172 LP  0  0  0  0  0  0  0  0  0  0  0  0  # atno 17321 bound_to 7965
  140.7394  143.6620  150.8156 LP  0  0  0  0  0  0  0  0  0  0  0  0  # atno 17342 bound_to 10162
  140.0234  143.5519  152.2791 LP  0  0  0  0  0  0  0  0  0  0  0  0  # atno 17343 bound_to 10162
  157.6518  130.8891  149.9649 LP  0  0  0  0  0  0  0  0  0  0  0  0  # atno 17370 bound_to 10713
  156.1059  130.3653  150.0134 LP  0  0  0  0  0  0  0  0  0  0  0  0  # atno 17371 bound_to 10713
  140.7069  134.4504  157.5583 LP  0  0  0  0  0  0  0  0  0  0  0  0  # atno 17394 bound_to 11000
  139.8984  134.8615  156.2004 LP  0  0  0  0  0  0  0  0  0  0  0  0  # atno 17395 bound_to 11000

$$$$
