AV-unprocessed.smi:12|AV-procd|sdf|68|dock3
  -GOLD-   2262015193D 1   1.00000     0.00000
 Structure written by MMmdl.
 41 44  0  0  0  0  0  0  0  0  1 V2000
  143.4598  142.2186  157.8862 C   0  0  0  0  0  0  0  0  0  0  0  0
  144.4849  142.2718  156.7679 C   0  0  0  0  0  0  0  0  0  0  0  0
  145.2797  141.2141  156.4802 C   0  0  0  0  0  0  0  0  0  0  0  0
  146.1942  141.3172  155.4696 N   0  0  0  0  0  0  0  0  0  0  0  0
  146.2847  142.5145  154.7274 C   0  0  0  0  0  0  0  0  0  0  0  0
  145.5596  143.5685  154.9393 N   0  0  0  0  0  0  0  0  0  0  0  0
  144.6115  143.5232  155.9794 C   0  0  0  0  0  0  0  0  0  0  0  0
  143.9058  144.5008  156.2233 O   0  0  0  0  0  0  0  0  0  0  0  0
  147.2421  142.3679  153.7710 O   0  0  0  0  0  0  0  0  0  0  0  0
  147.8347  141.0647  153.8696 C   0  0  1  0  0  0  0  0  0  0  0  0
  149.2728  141.1802  154.3687 C   0  0  2  0  0  0  0  0  0  0  0  0
  150.0905  140.1992  153.7587 O   0  0  0  0  0  0  0  0  0  0  0  0
  149.1450  140.9768  155.8849 C   0  0  2  0  0  0  0  0  0  0  0  0
  150.4032  140.4657  156.5995 C   0  0  0  0  0  0  0  0  0  0  0  0
  151.0267  141.5537  157.2614 O   0  0  0  0  0  0  0  0  0  0  0  0
  152.0455  141.3331  158.1136 C   0  0  0  0  0  0  0  0  0  0  0  0
  152.8345  140.3921  158.0052 O   0  0  0  0  0  0  0  0  0  0  0  0
  152.1213  142.3514  159.2008 C   0  0  0  0  0  0  0  0  0  0  0  0
  151.5386  143.6246  159.0005 C   0  0  0  0  0  0  0  0  0  0  0  0
  151.5944  144.6056  160.0095 C   0  0  0  0  0  0  0  0  0  0  0  0
  152.2354  144.3262  161.2305 C   0  0  0  0  0  0  0  0  0  0  0  0
  152.8201  143.0639  161.4415 C   0  0  0  0  0  0  0  0  0  0  0  0
  152.7642  142.0809  160.4341 C   0  0  0  0  0  0  0  0  0  0  0  0
  148.0752  140.0468  155.9974 O   0  0  0  0  0  0  0  0  0  0  0  0
  147.1283  140.2885  155.0005 C   0  0  1  0  0  0  0  0  0  0  0  0
  143.4622  141.2463  158.3797 H   0  0  0  0  0  0  0  0  0  0  0  0
  142.4573  142.3958  157.4954 H   0  0  0  0  0  0  0  0  0  0  0  0
  143.6765  142.9786  158.6375 H   0  0  0  0  0  0  0  0  0  0  0  0
  145.2076  140.2939  157.0413 H   0  0  0  0  0  0  0  0  0  0  0  0
  147.7476  140.5323  152.9212 H   0  0  0  0  0  0  0  0  0  0  0  0
  149.7027  142.1550  154.1354 H   0  0  0  0  0  0  0  0  0  0  0  0
  149.7360  139.9992  152.9057 H   0  0  0  0  0  0  0  0  0  0  0  0
  148.8301  141.9208  156.3340 H   0  0  0  0  0  0  0  0  0  0  0  0
  150.1536  139.6776  157.3113 H   0  0  0  0  0  0  0  0  0  0  0  0
  151.0975  140.0473  155.8693 H   0  0  0  0  0  0  0  0  0  0  0  0
  151.0411  143.8622  158.0713 H   0  0  0  0  0  0  0  0  0  0  0  0
  151.1440  145.5734  159.8457 H   0  0  0  0  0  0  0  0  0  0  0  0
  152.2787  145.0789  162.0039 H   0  0  0  0  0  0  0  0  0  0  0  0
  153.3132  142.8479  162.3779 H   0  0  0  0  0  0  0  0  0  0  0  0
  153.2249  141.1234  160.6282 H   0  0  0  0  0  0  0  0  0  0  0  0
  146.5175  139.4351  154.7049 H   0  0  0  0  0  0  0  0  0  0  0  0
  1  2  1  0  0  0  0
  1 26  1  0  0  0  0
  1 27  1  0  0  0  0
  1 28  1  0  0  0  0
  2  7  1  0  0  0  0
  2  3  2  0  0  0  0
  3  4  1  0  0  0  0
  3 29  1  0  0  0  0
  4 25  1  0  0  0  0
  4  5  1  0  0  0  0
  5  6  2  0  0  0  0
  5  9  1  0  0  0  0
  6  7  1  0  0  0  0
  7  8  2  0  0  0  0
  9 10  1  0  0  0  0
 10 25  1  0  0  0  0
 10 11  1  0  0  0  0
 10 30  1  0  0  0  0
 11 12  1  0  0  0  0
 11 13  1  0  0  0  0
 11 31  1  0  0  0  0
 12 32  1  0  0  0  0
 13 14  1  0  0  0  0
 13 24  1  0  0  0  0
 13 33  1  0  0  0  0
 14 15  1  0  0  0  0
 14 34  1  0  0  0  0
 14 35  1  0  0  0  0
 15 16  1  0  0  0  0
 16 17  2  0  0  0  0
 16 18  1  0  0  0  0
 18 23  1  0  0  0  0
 18 19  2  0  0  0  0
 19 20  1  0  0  0  0
 19 36  1  0  0  0  0
 20 21  2  0  0  0  0
 20 37  1  0  0  0  0
 21 22  1  0  0  0  0
 21 38  1  0  0  0  0
 22 23  2  0  0  0  0
 22 39  1  0  0  0  0
 23 40  1  0  0  0  0
 24 25  1  0  0  0  0
 25 41  1  0  0  0  0
M  END
> <s_m_source_file>
AV-unprocessed.smi

> <i_m_source_file_index>
12

> <i_lp_mmshare_version>
43012

> <i_f3d_flags>
0

> <s_epik_input>
W0NIM11jKFtjSF0xKWMoPU8pbmMobjEyKU9bQ0BIXTNbQ0BASF0yT1tDQEBIXShbQ0BASF0zW09IXSlbQ0gyXU9DKD1PKWM0W2NIXVtjSF1bY0hdW2NIXVtjSF00

> <s_epik_cmdline>
J2VwaWtfcHl0aG9uJywgJy1waCcsICc3LjAnLCAnLXRuJywgJzgnLCAnLW1hJywgJzIwMCcsICctbWV0YWxfYmluZGluZycsICctaW1hZScsICc8aW5maWxlLm1hZT4nLCAnLW9tYWUnLCAnPG91dGZpbGUubWFlPic=

> <r_lp_tautomer_probability>
0.933681

> <r_epik_Ionization_Penalty>
0.00399549

> <r_epik_Ionization_Penalty_Charging>
3.09373e-09

> <r_epik_Ionization_Penalty_Neutral>
0.00399549

> <r_epik_State_Penalty>
0.00284953

> <r_epik_Charging_Adjusted_Penalty>
0.00284953

> <i_epik_Tot_Q>
0

> <i_epik_Tot_abs_Q>
0

> <r_epik_Metal_State_Penalty>
-0

> <b_epik_Metal_Only>
0

> <s_epik_Chemistry_Notes>
This compound has an ester and may undergo hydrolysis at high or low pH. This compound contains an acetal/aminal-like group ( X-CH(R)-Y where X, Y are N, S, or O) that may be acid/base labile, releasing an aldehyde.

> <s_lp_Force_Field>
OPLS_2005

> <r_lp_Energy>
39.7302

> <b_lp_Chiralities_Consistent>
1

> <s_lp_Variant>
AV-unprocessed.smi:12-8

> <Gold.Version>
5.8.1

> <Gold.Id.Protein>
6NUR|6NUR_protein|mol2

> <Gold.PLP.Fitness>
46.6001

> <Gold.PLP.PLP>
-40.9355

> <Gold.PLP.part.hbond>
-3.0000

> <Gold.PLP.part.metal>
0.0000

> <Gold.PLP.part.buried>
-5.1707

> <Gold.PLP.part.nonpolar>
-32.8425

> <Gold.PLP.part.repulsive>
0.4690

> <Gold.PLP.ligand.clash>
0.0000

> <Gold.PLP.ligand.torsion>
1.2071

> <Gold.PLP.Chemscore.Hbond>
2.6888

> <Gold.PLP.Chemscore.CHOScore>
0.0000

> <Gold.PLP.Chemscore.Metal>
0.0000

> <Gold.Chemscore.Hbonds>
donor molecule, donor type, donor heavy atom, donor atom, acceptor molecule, acceptor atom, score
      L1  H    12    32       P1  7957  1.00
      P1  H  7989  7998       L1    12  0.77
      P1  H  7997  8008       L1    17  0.88

> <Gold.PLP.Chemscore.Internal.Correction>
0.0124

> <Gold.Rescore>
     Score         DG    S(hbond)    S(metal)    S(lipo)     H(rot)  DE(clash)    DE(int)     intcor
     17.26     -18.31       2.27        0.00      92.66       2.18       0.02       1.03       ----

> <Gold.Chemscore.Fitness>
17.2556

> <Gold.Chemscore.DG>
-18.3144

> <Gold.Chemscore.ZeroCoef>
-5.4800

> <Gold.Chemscore.Hbond>
2.2677

> <Gold.Chemscore.Metal>
0.0000

> <Gold.Chemscore.Lipo>
92.6580

> <Gold.Chemscore.Internal_Hbond>
0.0000

> <Gold.Chemscore.DEClash>
0.0242

> <Gold.Chemscore.DEInternal>
1.0345

> <Gold.Chemscore.Rot>
2.1800

> <Gold.Chemscore.Internal.Correction>
   9.000000E+99

> <Gold.Chemscore.Hbonds>
donor molecule, donor type, donor heavy atom, donor atom, acceptor molecule, acceptor atom, score
      L1  H    12    32       P1  7957  0.99
      P1  H  7989  7998       L1    12  0.25
      P1  H  7997  8008       L1    17  0.82

> <Gold.Chemscore.Hbond.Weighted>
-7.5741

> <Gold.Chemscore.Metal.Weighted>
-0.0000

> <Gold.Chemscore.Lipo.Weighted>
-10.8410

> <Gold.Chemscore.Internal_Hbond.Weighted>
0.0000

> <Gold.Chemscore.DEClash.Weighted>
0.0242

> <Gold.Chemscore.DEInternal.Weighted>
1.0345

> <Gold.Chemscore.Rot.Weighted>
5.5807

> <Gold.Chemscore.Internal.Correction.Weighted>
   9.000000E+99

> <Gold.Protein.RotatedTorsions>
[ 6907 6896 6895 6894 ] final -146.28 input  -60.11 | X-H torsion
[ 7974 7965 7964 7962 ] final -155.94 input  175.53 | X-H torsion
[ 8008 7997 7996 7995 ] final  -75.82 input   59.86 | X-H torsion
[ 10167 10162 10161 10158 ] final  -23.48 input  -65.29 | X-H torsion
[ 10718 10713 10712 10709 ] final  116.67 input   66.30 | X-H torsion
[ 10763 10752 10751 10750 ] final   89.54 input  -60.55 | X-H torsion
[ 11005 11000 10999 10996 ] final  172.29 input  -57.11 | X-H torsion

> <Gold.Protein.ActiveResidues>
 VAL166  LYS551  ARG553  GLY616  TRP617  ASP618  TYR619  PRO620  LYS621  CYS622 
 ASP623  PHE694  ASN695  SER759  ASP760  ASP761  ALA762  ILE779  LEU786  VAL792 
 PHE793  MET794  SER795  GLU796  ALA797  LYS798  CYS799  TRP800  GLU811  SER814 

> <Gold.Protein.RotatedAtoms>
  151.1394  133.4981  159.2597 H   0  0  0  0  0  0  0  0  0  0  0  0  # atno 6907 bound_to 6896
  151.1671  135.0300  159.8745 H   0  0  0  0  0  0  0  0  0  0  0  0  # atno 6908 bound_to 6896
  152.5462  134.1262  159.8473 H   0  0  0  0  0  0  0  0  0  0  0  0  # atno 6909 bound_to 6896
  144.7616  140.4179  143.5972 H   0  0  0  0  0  0  0  0  0  0  0  0  # atno 7974 bound_to 7965
  154.5450  140.0737  156.8574 H   0  0  0  0  0  0  0  0  0  0  0  0  # atno 8008 bound_to 7997
  155.3105  140.3390  155.4226 H   0  0  0  0  0  0  0  0  0  0  0  0  # atno 8009 bound_to 7997
  156.1910  140.1686  156.8079 H   0  0  0  0  0  0  0  0  0  0  0  0  # atno 8010 bound_to 7997
  140.7288  143.4439  151.0616 H   0  0  0  0  0  0  0  0  0  0  0  0  # atno 10167 bound_to 10162
  157.6145  131.1028  150.7506 H   0  0  0  0  0  0  0  0  0  0  0  0  # atno 10718 bound_to 10713
  153.1882  135.4466  155.0115 H   0  0  0  0  0  0  0  0  0  0  0  0  # atno 10763 bound_to 10752
  154.8073  135.3280  154.7399 H   0  0  0  0  0  0  0  0  0  0  0  0  # atno 10764 bound_to 10752
  153.7856  135.6974  153.4936 H   0  0  0  0  0  0  0  0  0  0  0  0  # atno 10765 bound_to 10752
  140.3282  134.7380  157.4114 H   0  0  0  0  0  0  0  0  0  0  0  0  # atno 11005 bound_to 11000
  145.6601  139.1580  143.2813 LP  0  0  0  0  0  0  0  0  0  0  0  0  # atno 17320 bound_to 7965
  146.1685  140.6682  142.9244 LP  0  0  0  0  0  0  0  0  0  0  0  0  # atno 17321 bound_to 7965
  139.8109  143.7953  152.3171 LP  0  0  0  0  0  0  0  0  0  0  0  0  # atno 17342 bound_to 10162
  139.8002  144.7377  150.9835 LP  0  0  0  0  0  0  0  0  0  0  0  0  # atno 17343 bound_to 10162
  156.7877  130.4880  149.5390 LP  0  0  0  0  0  0  0  0  0  0  0  0  # atno 17370 bound_to 10713
  156.1262  130.6145  151.0266 LP  0  0  0  0  0  0  0  0  0  0  0  0  # atno 17371 bound_to 10713
  140.0884  134.5635  155.8469 LP  0  0  0  0  0  0  0  0  0  0  0  0  # atno 17394 bound_to 11000
  141.2070  133.6660  156.6278 LP  0  0  0  0  0  0  0  0  0  0  0  0  # atno 17395 bound_to 11000

$$$$
