AV-unprocessed.smi:1165|AV-procd|sdf|4932|dock10
  -GOLD-   22720 3513D 1   1.00000     0.00000
 Structure written by MMmdl.
 40 41  0  0  0  0  0  0  0  0  2 V2000
  138.2279  141.0419  153.3834 C   0  0  0  0  0  0  0  0  0  0  0  0
  138.4958  139.5344  153.4498 C   0  0  1  0  0  0  0  0  0  0  0  0
  139.8984  139.2208  154.0017 C   0  0  0  0  0  0  0  0  0  0  0  0
  140.0962  137.7726  154.1782 N   0  0  0  0  0  0  0  0  0  0  0  0
  141.7063  137.2545  154.5725 S   0  0  0  0  0  0  0  0  0  0  0  0
  142.5127  138.4753  154.7339 O   0  0  0  0  0  0  0  0  0  0  0  0
  141.5634  136.3709  155.7416 O   0  0  0  0  0  0  0  0  0  0  0  0
  142.0266  136.4802  153.1826 N   0  5  0  0  0  0  0  0  0  0  0  0
  143.1118  135.5129  153.1372 C   0  0  0  0  0  0  0  0  0  0  0  0
  143.8559  135.5889  151.7837 C   0  0  0  0  0  0  0  0  0  0  0  0
  144.5165  134.2908  151.3311 C   0  0  0  0  0  0  0  0  0  0  0  0
  143.7528  133.1370  151.0488 C   0  0  0  0  0  0  0  0  0  0  0  0
  144.4157  131.9680  150.6290 C   0  0  0  0  0  0  0  0  0  0  0  0
  145.8194  131.9996  150.5111 C   0  0  0  0  0  0  0  0  0  0  0  0
  146.5640  133.0909  150.7887 N   0  0  0  0  0  0  0  0  0  0  0  0
  145.9198  134.2073  151.1906 C   0  0  0  0  0  0  0  0  0  0  0  0
  138.9822  137.1232  154.8975 C   0  0  0  0  0  0  0  0  0  0  0  0
  137.6174  137.5312  154.3156 C   0  0  1  0  0  0  0  0  0  0  0  0
  136.4537  136.9809  155.1475 C   0  0  0  0  0  0  0  0  0  0  0  0
  137.5126  138.9472  154.2892 O   0  0  0  0  0  0  0  0  0  0  0  0
  138.9491  141.5403  152.7350 H   0  0  0  0  0  0  0  0  0  0  0  0
  138.2941  141.4987  154.3711 H   0  0  0  0  0  0  0  0  0  0  0  0
  137.2318  141.2431  152.9891 H   0  0  0  0  0  0  0  0  0  0  0  0
  138.4003  139.1247  152.4426 H   0  0  0  0  0  0  0  0  0  0  0  0
  140.6526  139.6141  153.3203 H   0  0  0  0  0  0  0  0  0  0  0  0
  140.0479  139.7126  154.9638 H   0  0  0  0  0  0  0  0  0  0  0  0
  143.8310  135.7028  153.9340 H   0  0  0  0  0  0  0  0  0  0  0  0
  142.7651  134.4915  153.2989 H   0  0  0  0  0  0  0  0  0  0  0  0
  143.1681  135.9250  151.0065 H   0  0  0  0  0  0  0  0  0  0  0  0
  144.6282  136.3559  151.8461 H   0  0  0  0  0  0  0  0  0  0  0  0
  142.6771  133.1500  151.1448 H   0  0  0  0  0  0  0  0  0  0  0  0
  143.8612  131.0706  150.3992 H   0  0  0  0  0  0  0  0  0  0  0  0
  146.3598  131.1215  150.1896 H   0  0  0  0  0  0  0  0  0  0  0  0
  146.5437  135.0624  151.4037 H   0  0  0  0  0  0  0  0  0  0  0  0
  139.0817  136.0400  154.8469 H   0  0  0  0  0  0  0  0  0  0  0  0
  139.0408  137.3972  155.9517 H   0  0  0  0  0  0  0  0  0  0  0  0
  137.5256  137.1449  153.2990 H   0  0  0  0  0  0  0  0  0  0  0  0
  136.4828  135.8918  155.1894 H   0  0  0  0  0  0  0  0  0  0  0  0
  135.4950  137.2719  154.7180 H   0  0  0  0  0  0  0  0  0  0  0  0
  136.4887  137.3559  156.1708 H   0  0  0  0  0  0  0  0  0  0  0  0
  1  2  1  0  0  0  0
  1 21  1  0  0  0  0
  1 22  1  0  0  0  0
  1 23  1  0  0  0  0
  2 20  1  0  0  0  0
  2  3  1  0  0  0  0
  2 24  1  0  0  0  0
  3  4  1  0  0  0  0
  3 25  1  0  0  0  0
  3 26  1  0  0  0  0
  4  5  1  0  0  0  0
  4 17  1  0  0  0  0
  5  6  2  0  0  0  0
  5  7  2  0  0  0  0
  5  8  1  0  0  0  0
  8  9  1  0  0  0  0
  9 10  1  0  0  0  0
  9 27  1  0  0  0  0
  9 28  1  0  0  0  0
 10 11  1  0  0  0  0
 10 29  1  0  0  0  0
 10 30  1  0  0  0  0
 11 16  1  0  0  0  0
 11 12  2  0  0  0  0
 12 13  1  0  0  0  0
 12 31  1  0  0  0  0
 13 14  2  0  0  0  0
 13 32  1  0  0  0  0
 14 15  1  0  0  0  0
 14 33  1  0  0  0  0
 15 16  2  0  0  0  0
 16 34  1  0  0  0  0
 17 18  1  0  0  0  0
 17 35  1  0  0  0  0
 17 36  1  0  0  0  0
 18 19  1  0  0  0  0
 18 20  1  0  0  0  0
 18 37  1  0  0  0  0
 19 38  1  0  0  0  0
 19 39  1  0  0  0  0
 19 40  1  0  0  0  0
M  CHG  1   8  -1
M  END
> <s_m_source_file>
AV-unprocessed.smi

> <i_m_source_file_index>
1165

> <i_lp_mmshare_version>
43012

> <i_f3d_flags>
0

> <s_epik_input>
W0NIM11bQ0BASF0xW0NIMl1OKFtDSDJdW0NASF0oTzEpW0NIM10pUyg9TykoPU8pW05IXVtDSDJdW0NIMl1jMltjSF1bY0hdW2NIXW5bY0hdMg==

> <s_epik_cmdline>
J2VwaWtfcHl0aG9uJywgJy1waCcsICc3LjAnLCAnLXRuJywgJzgnLCAnLW1hJywgJzIwMCcsICctbWV0YWxfYmluZGluZycsICctaW1hZScsICc8aW5maWxlLm1hZT4nLCAnLW9tYWUnLCAnPG91dGZpbGUubWFlPic=

> <r_epik_Ionization_Penalty>
1.23471

> <r_epik_Ionization_Penalty_Charging>
1.20871

> <r_epik_Ionization_Penalty_Neutral>
0.025996

> <r_epik_State_Penalty>
1.46261

> <r_epik_Charging_Adjusted_Penalty>
2.67132

> <i_epik_Tot_Q>
-1

> <i_epik_Tot_abs_Q>
1

> <r_epik_Metal_State_Penalty>
0.521406

> <b_epik_Metal_Only>
0

> <s_lp_Force_Field>
OPLS_2005

> <r_lp_Energy>
1.53282

> <b_lp_Chiralities_Consistent>
1

> <s_lp_Variant>
AV-unprocessed.smi:1165-5

> <Gold.Version>
5.8.1

> <Gold.Id.Protein>
6NUR|6NUR_protein|mol2

> <Gold.PLP.Fitness>
37.5877

> <Gold.PLP.PLP>
-32.6644

> <Gold.PLP.part.hbond>
-1.0000

> <Gold.PLP.part.metal>
0.0000

> <Gold.PLP.part.buried>
-7.1528

> <Gold.PLP.part.nonpolar>
-26.6620

> <Gold.PLP.part.repulsive>
0.6125

> <Gold.PLP.ligand.clash>
0.0000

> <Gold.PLP.ligand.torsion>
1.2281

> <Gold.PLP.Chemscore.Hbond>
0.0000

> <Gold.PLP.Chemscore.CHOScore>
1.9735

> <Gold.PLP.Chemscore.Metal>
0.0000

> <Gold.Chemscore.Hbonds>
donor molecule, donor type, donor heavy atom, donor atom, acceptor molecule, acceptor atom, score
      L1  C    14    33       P1 10747  0.71
      L1  C    16    34       P1  7948  0.65

> <Gold.PLP.Chemscore.Internal.Correction>
1.4590

> <Gold.Rescore>
     Score         DG    S(hbond)    S(metal)    S(lipo)     H(rot)  DE(clash)    DE(int)     intcor
     11.39     -13.13       0.12        0.00      94.18       1.47       0.07       1.67       ----

> <Gold.Chemscore.Fitness>
11.3879

> <Gold.Chemscore.DG>
-13.1277

> <Gold.Chemscore.ZeroCoef>
-5.4800

> <Gold.Chemscore.Hbond>
0.1195

> <Gold.Chemscore.Metal>
0.0000

> <Gold.Chemscore.Lipo>
94.1846

> <Gold.Chemscore.Internal_Hbond>
0.0000

> <Gold.Chemscore.DEClash>
0.0710

> <Gold.Chemscore.DEInternal>
1.6688

> <Gold.Chemscore.Rot>
1.4731

> <Gold.Chemscore.Internal.Correction>
   9.000000E+99

> <Gold.Chemscore.Hbonds>
donor molecule, donor type, donor heavy atom, donor atom, acceptor molecule, acceptor atom, score
      P1  H 11000 11005       L1     7  0.01

> <Gold.Chemscore.Hbond.Weighted>
-0.3992

> <Gold.Chemscore.Metal.Weighted>
-0.0000

> <Gold.Chemscore.Lipo.Weighted>
-11.0196

> <Gold.Chemscore.Internal_Hbond.Weighted>
0.0000

> <Gold.Chemscore.DEClash.Weighted>
0.0710

> <Gold.Chemscore.DEInternal.Weighted>
1.6688

> <Gold.Chemscore.Rot.Weighted>
3.7712

> <Gold.Chemscore.Internal.Correction.Weighted>
   9.000000E+99

> <Gold.Protein.RotatedTorsions>
[ 6907 6896 6895 6894 ] final   25.79 input  -60.11 | X-H torsion
[ 7974 7965 7964 7962 ] final  -85.80 input  175.53 | X-H torsion
[ 8008 7997 7996 7995 ] final  139.12 input   59.86 | X-H torsion
[ 10167 10162 10161 10158 ] final    9.02 input  -65.29 | X-H torsion
[ 10718 10713 10712 10709 ] final  132.15 input   66.30 | X-H torsion
[ 10763 10752 10751 10750 ] final   -0.65 input  -60.55 | X-H torsion
[ 11005 11000 10999 10996 ] final   29.29 input  -57.11 | X-H torsion

> <Gold.Protein.ActiveResidues>
 VAL166  LYS551  ARG553  GLY616  TRP617  ASP618  TYR619  PRO620  LYS621  CYS622 
 ASP623  PHE694  ASN695  SER759  ASP760  ASP761  ALA762  ILE779  LEU786  VAL792 
 PHE793  MET794  SER795  GLU796  ALA797  LYS798  CYS799  TRP800  GLU811  SER814 

> <Gold.Protein.RotatedAtoms>
  151.9777  135.0044  160.0555 H   0  0  0  0  0  0  0  0  0  0  0  0  # atno 6907 bound_to 6896
  152.1725  133.4648  159.4924 H   0  0  0  0  0  0  0  0  0  0  0  0  # atno 6908 bound_to 6896
  150.6904  134.1853  159.4307 H   0  0  0  0  0  0  0  0  0  0  0  0  # atno 6909 bound_to 6896
  145.4884  140.9554  143.1826 H   0  0  0  0  0  0  0  0  0  0  0  0  # atno 7974 bound_to 7965
  156.2992  140.2376  156.4185 H   0  0  0  0  0  0  0  0  0  0  0  0  # atno 8008 bound_to 7997
  154.8377  140.0430  157.1540 H   0  0  0  0  0  0  0  0  0  0  0  0  # atno 8009 bound_to 7997
  154.9138  140.2994  155.5256 H   0  0  0  0  0  0  0  0  0  0  0  0  # atno 8010 bound_to 7997
  140.6280  143.8058  150.7258 H   0  0  0  0  0  0  0  0  0  0  0  0  # atno 10167 bound_to 10162
  157.4899  131.1090  150.9571 H   0  0  0  0  0  0  0  0  0  0  0  0  # atno 10718 bound_to 10713
  153.3346  135.6977  153.6919 H   0  0  0  0  0  0  0  0  0  0  0  0  # atno 10763 bound_to 10752
  153.5708  135.3517  155.2837 H   0  0  0  0  0  0  0  0  0  0  0  0  # atno 10764 bound_to 10752
  154.8625  135.4271  154.2543 H   0  0  0  0  0  0  0  0  0  0  0  0  # atno 10765 bound_to 10752
  140.3065  134.2698  155.7743 H   0  0  0  0  0  0  0  0  0  0  0  0  # atno 11005 bound_to 11000
  144.7848  139.6450  143.7139 LP  0  0  0  0  0  0  0  0  0  0  0  0  # atno 17320 bound_to 7965
  146.2299  139.5793  142.9562 LP  0  0  0  0  0  0  0  0  0  0  0  0  # atno 17321 bound_to 7965
  140.1663  143.4233  152.2032 LP  0  0  0  0  0  0  0  0  0  0  0  0  # atno 17342 bound_to 10162
  139.5498  144.7328  151.4471 LP  0  0  0  0  0  0  0  0  0  0  0  0  # atno 17343 bound_to 10162
  157.0276  130.5698  149.5339 LP  0  0  0  0  0  0  0  0  0  0  0  0  # atno 17370 bound_to 10713
  156.0167  130.5262  150.8156 LP  0  0  0  0  0  0  0  0  0  0  0  0  # atno 17371 bound_to 10713
  141.2117  133.7680  156.9844 LP  0  0  0  0  0  0  0  0  0  0  0  0  # atno 17394 bound_to 11000
  140.1063  134.9505  157.1998 LP  0  0  0  0  0  0  0  0  0  0  0  0  # atno 17395 bound_to 11000

$$$$
