AV-unprocessed.smi:1079|AV-procd|sdf|4704|dock4
  -GOLD-   22720 3223D 1   1.00000     0.00000
 Structure written by MMmdl.
 44 45  0  0  0  0  0  0  0  0  1 V2000
  145.6060  132.3810  150.9775 C   0  0  0  0  0  0  0  0  0  0  0  0
  146.8767  132.9043  151.3199 O   0  0  0  0  0  0  0  0  0  0  0  0
  147.2326  132.6359  152.6662 C   0  0  0  0  0  0  0  0  0  0  0  0
  148.7268  132.9368  152.8706 C   0  0  0  0  0  0  0  0  0  0  0  0
  149.1159  132.9535  154.2680 N   0  0  0  0  0  0  0  0  0  0  0  0
  149.3772  134.1222  154.9905 C   0  0  0  0  0  0  0  0  0  0  0  0
  149.2632  135.3373  154.3309 N   0  0  0  0  0  0  0  0  0  0  0  0
  149.7665  134.0847  156.2999 C   0  0  0  0  0  0  0  0  0  0  0  0
  149.9943  135.2629  157.0361 N   0  0  0  0  0  0  0  0  0  0  0  0
  148.8139  135.9371  157.5991 C   0  0  0  0  0  0  0  0  0  0  0  0
  148.5372  135.5351  159.0379 C   0  0  0  0  0  0  0  0  0  0  0  0
  148.6252  136.4952  160.0680 C   0  0  0  0  0  0  0  0  0  0  0  0
  148.3571  136.1309  161.4015 C   0  0  0  0  0  0  0  0  0  0  0  0
  148.0011  134.8040  161.7107 C   0  0  0  0  0  0  0  0  0  0  0  0
  147.9125  133.8424  160.6857 C   0  0  0  0  0  0  0  0  0  0  0  0
  148.1801  134.2068  159.3518 C   0  0  0  0  0  0  0  0  0  0  0  0
  151.2393  135.7817  157.1989 C   0  0  0  0  0  0  0  0  0  0  0  0
  151.4313  137.0113  158.0947 C   0  0  0  0  0  0  0  0  0  0  0  0
  152.2386  135.2873  156.6767 O   0  0  0  0  0  0  0  0  0  0  0  0
  149.8973  132.8011  157.0038 C   0  0  0  0  0  0  0  0  0  0  0  0
  150.2052  132.6582  158.1865 O   0  0  0  0  0  0  0  0  0  0  0  0
  149.6404  131.6767  156.2245 N   0  0  0  0  0  0  0  0  0  0  0  0
  149.2681  131.6887  154.8853 C   0  0  0  0  0  0  0  0  0  0  0  0
  149.0888  130.6203  154.2996 O   0  0  0  0  0  0  0  0  0  0  0  0
  149.7348  130.7752  156.6693 H   0  0  0  0  0  0  0  0  0  0  0  0
  145.3816  132.6169  149.9372 H   0  0  0  0  0  0  0  0  0  0  0  0
  144.8205  132.8136  151.5985 H   0  0  0  0  0  0  0  0  0  0  0  0
  145.5839  131.2962  151.0887 H   0  0  0  0  0  0  0  0  0  0  0  0
  146.6406  133.2664  153.3311 H   0  0  0  0  0  0  0  0  0  0  0  0
  147.0094  131.5987  152.9208 H   0  0  0  0  0  0  0  0  0  0  0  0
  149.3560  132.2086  152.3604 H   0  0  0  0  0  0  0  0  0  0  0  0
  149.0064  133.8998  152.4393 H   0  0  0  0  0  0  0  0  0  0  0  0
  148.9997  135.3861  153.3570 H   0  0  0  0  0  0  0  0  0  0  0  0
  149.2558  136.2113  154.8372 H   0  0  0  0  0  0  0  0  0  0  0  0
  148.9132  137.0220  157.5333 H   0  0  0  0  0  0  0  0  0  0  0  0
  147.9288  135.6999  157.0073 H   0  0  0  0  0  0  0  0  0  0  0  0
  148.8937  137.5156  159.8362 H   0  0  0  0  0  0  0  0  0  0  0  0
  148.4234  136.8692  162.1868 H   0  0  0  0  0  0  0  0  0  0  0  0
  147.7953  134.5248  162.7335 H   0  0  0  0  0  0  0  0  0  0  0  0
  147.6382  132.8248  160.9222 H   0  0  0  0  0  0  0  0  0  0  0  0
  148.1067  133.4647  158.5704 H   0  0  0  0  0  0  0  0  0  0  0  0
  150.9405  136.8780  159.0593 H   0  0  0  0  0  0  0  0  0  0  0  0
  151.0311  137.9053  157.6167 H   0  0  0  0  0  0  0  0  0  0  0  0
  152.4914  137.1827  158.2849 H   0  0  0  0  0  0  0  0  0  0  0  0
  1  2  1  0  0  0  0
  1 26  1  0  0  0  0
  1 27  1  0  0  0  0
  1 28  1  0  0  0  0
  2  3  1  0  0  0  0
  3  4  1  0  0  0  0
  3 29  1  0  0  0  0
  3 30  1  0  0  0  0
  4  5  1  0  0  0  0
  4 31  1  0  0  0  0
  4 32  1  0  0  0  0
  5 23  1  0  0  0  0
  5  6  1  0  0  0  0
  6  7  1  0  0  0  0
  6  8  2  0  0  0  0
  7 33  1  0  0  0  0
  7 34  1  0  0  0  0
  8  9  1  0  0  0  0
  8 20  1  0  0  0  0
  9 10  1  0  0  0  0
  9 17  1  0  0  0  0
 10 11  1  0  0  0  0
 10 35  1  0  0  0  0
 10 36  1  0  0  0  0
 11 16  1  0  0  0  0
 11 12  2  0  0  0  0
 12 13  1  0  0  0  0
 12 37  1  0  0  0  0
 13 14  2  0  0  0  0
 13 38  1  0  0  0  0
 14 15  1  0  0  0  0
 14 39  1  0  0  0  0
 15 16  2  0  0  0  0
 15 40  1  0  0  0  0
 16 41  1  0  0  0  0
 17 18  1  0  0  0  0
 17 19  2  0  0  0  0
 18 42  1  0  0  0  0
 18 43  1  0  0  0  0
 18 44  1  0  0  0  0
 20 21  2  0  0  0  0
 20 22  1  0  0  0  0
 22 25  1  0  0  0  0
 22 23  1  0  0  0  0
 23 24  2  0  0  0  0
M  END
> <s_m_source_file>
AV-unprocessed.smi

> <i_m_source_file_index>
1079

> <i_lp_mmshare_version>
43012

> <i_f3d_flags>
0

> <s_epik_input>
W0NIM11PW0NIMl1bQ0gyXW4xYyhbTkgyXSljKGMoPU8pW25IXWMxPU8pTihDKD1PKVtDSDNdKVtDSDJdYzJbY0hdW2NIXVtjSF1bY0hdW2NIXTI=

> <s_epik_cmdline>
J2VwaWtfcHl0aG9uJywgJy1waCcsICc3LjAnLCAnLXRuJywgJzgnLCAnLW1hJywgJzIwMCcsICctbWV0YWxfYmluZGluZycsICctaW1hZScsICc8aW5maWxlLm1hZT4nLCAnLW9tYWUnLCAnPG91dGZpbGUubWFlPic=

> <r_lp_tautomer_probability>
1

> <r_epik_Ionization_Penalty>
1.40243e-05

> <r_epik_Ionization_Penalty_Charging>
7.95939e-06

> <r_epik_Ionization_Penalty_Neutral>
6.06489e-06

> <r_epik_State_Penalty>
-0

> <r_epik_Charging_Adjusted_Penalty>
7.95939e-06

> <i_epik_Tot_Q>
0

> <i_epik_Tot_abs_Q>
0

> <r_epik_Metal_State_Penalty>
0.00752988

> <b_epik_Metal_Only>
0

> <s_epik_Chemistry_Notes>
This compound has an imine and may undergo hydrolysis.

> <s_lp_Force_Field>
OPLS_2005

> <r_lp_Energy>
29.3793

> <b_lp_Chiralities_Consistent>
1

> <s_lp_Variant>
AV-unprocessed.smi:1079-1

> <Gold.Version>
5.8.1

> <Gold.Id.Protein>
6NUR|6NUR_protein|mol2

> <Gold.PLP.Fitness>
39.9569

> <Gold.PLP.PLP>
-32.9984

> <Gold.PLP.part.hbond>
-3.0000

> <Gold.PLP.part.metal>
0.0000

> <Gold.PLP.part.buried>
-5.1114

> <Gold.PLP.part.nonpolar>
-26.8625

> <Gold.PLP.part.repulsive>
0.2723

> <Gold.PLP.ligand.clash>
0.0000

> <Gold.PLP.ligand.torsion>
2.1554

> <Gold.PLP.Chemscore.Hbond>
2.9600

> <Gold.PLP.Chemscore.CHOScore>
0.0000

> <Gold.PLP.Chemscore.Metal>
0.0000

> <Gold.Chemscore.Hbonds>
donor molecule, donor type, donor heavy atom, donor atom, acceptor molecule, acceptor atom, score
      L1  H     7    33       P1  7948  1.00
      P1  H  6896  6908       L1    21  1.00
      P1  H 10752 10763       L1    19  1.00

> <Gold.PLP.Chemscore.Internal.Correction>
2.3892

> <Gold.Rescore>
     Score         DG    S(hbond)    S(metal)    S(lipo)     H(rot)  DE(clash)    DE(int)     intcor
     13.92     -17.51       2.84        0.00      65.94       2.02       0.04       3.56       ----

> <Gold.Chemscore.Fitness>
13.9165

> <Gold.Chemscore.DG>
-17.5085

> <Gold.Chemscore.ZeroCoef>
-5.4800

> <Gold.Chemscore.Hbond>
2.8375

> <Gold.Chemscore.Metal>
0.0000

> <Gold.Chemscore.Lipo>
65.9397

> <Gold.Chemscore.Internal_Hbond>
0.0000

> <Gold.Chemscore.DEClash>
0.0370

> <Gold.Chemscore.DEInternal>
3.5550

> <Gold.Chemscore.Rot>
2.0170

> <Gold.Chemscore.Internal.Correction>
   9.000000E+99

> <Gold.Chemscore.Hbonds>
donor molecule, donor type, donor heavy atom, donor atom, acceptor molecule, acceptor atom, score
      L1  H     7    33       P1  7948  0.53
      P1  H  6896  6908       L1    21  0.98
      P1  H 10752 10763       L1    19  1.00

> <Gold.Chemscore.Hbond.Weighted>
-9.4771

> <Gold.Chemscore.Metal.Weighted>
-0.0000

> <Gold.Chemscore.Lipo.Weighted>
-7.7149

> <Gold.Chemscore.Internal_Hbond.Weighted>
0.0000

> <Gold.Chemscore.DEClash.Weighted>
0.0370

> <Gold.Chemscore.DEInternal.Weighted>
3.5550

> <Gold.Chemscore.Rot.Weighted>
5.1636

> <Gold.Chemscore.Internal.Correction.Weighted>
   9.000000E+99

> <Gold.Protein.RotatedTorsions>
[ 6907 6896 6895 6894 ] final   87.51 input  -60.11 | X-H torsion
[ 7974 7965 7964 7962 ] final  -89.39 input  175.53 | X-H torsion
[ 8008 7997 7996 7995 ] final    3.80 input   59.86 | X-H torsion
[ 10167 10162 10161 10158 ] final   46.99 input  -65.29 | X-H torsion
[ 10718 10713 10712 10709 ] final  -39.87 input   66.30 | X-H torsion
[ 10763 10752 10751 10750 ] final   98.86 input  -60.55 | X-H torsion
[ 11005 11000 10999 10996 ] final   18.58 input  -57.11 | X-H torsion

> <Gold.Protein.ActiveResidues>
 VAL166  LYS551  ARG553  GLY616  TRP617  ASP618  TYR619  PRO620  LYS621  CYS622 
 ASP623  PHE694  ASN695  SER759  ASP760  ASP761  ALA762  ILE779  LEU786  VAL792 
 PHE793  MET794  SER795  GLU796  ALA797  LYS798  CYS799  TRP800  GLU811  SER814 

> <Gold.Protein.RotatedAtoms>
  152.5412  134.2265  159.8808 H   0  0  0  0  0  0  0  0  0  0  0  0  # atno 6907 bound_to 6896
  151.2240  133.4480  159.2609 H   0  0  0  0  0  0  0  0  0  0  0  0  # atno 6908 bound_to 6896
  151.0779  134.9853  159.8397 H   0  0  0  0  0  0  0  0  0  0  0  0  # atno 6909 bound_to 6896
  145.4405  140.9559  143.2078 H   0  0  0  0  0  0  0  0  0  0  0  0  # atno 7974 bound_to 7965
  154.7081  140.2687  155.6655 H   0  0  0  0  0  0  0  0  0  0  0  0  # atno 8008 bound_to 7997
  156.2786  140.2759  156.1637 H   0  0  0  0  0  0  0  0  0  0  0  0  # atno 8009 bound_to 7997
  155.0673  140.0372  157.2587 H   0  0  0  0  0  0  0  0  0  0  0  0  # atno 8010 bound_to 7997
  140.3082  144.2852  150.6205 H   0  0  0  0  0  0  0  0  0  0  0  0  # atno 10167 bound_to 10162
  156.2876  130.4224  149.8272 H   0  0  0  0  0  0  0  0  0  0  0  0  # atno 10718 bound_to 10713
  153.2943  135.4133  155.1195 H   0  0  0  0  0  0  0  0  0  0  0  0  # atno 10763 bound_to 10752
  154.8530  135.3526  154.5938 H   0  0  0  0  0  0  0  0  0  0  0  0  # atno 10764 bound_to 10752
  153.6362  135.7059  153.5316 H   0  0  0  0  0  0  0  0  0  0  0  0  # atno 10765 bound_to 10752
  140.4232  134.1497  155.7674 H   0  0  0  0  0  0  0  0  0  0  0  0  # atno 11005 bound_to 11000
  144.8125  139.5937  143.7023 LP  0  0  0  0  0  0  0  0  0  0  0  0  # atno 17320 bound_to 7965
  146.2559  139.6301  142.9395 LP  0  0  0  0  0  0  0  0  0  0  0  0  # atno 17321 bound_to 7965
  140.5591  143.2194  151.7795 LP  0  0  0  0  0  0  0  0  0  0  0  0  # atno 17342 bound_to 10162
  139.4899  144.4373  151.9805 LP  0  0  0  0  0  0  0  0  0  0  0  0  # atno 17343 bound_to 10162
  156.5696  130.8419  151.3353 LP  0  0  0  0  0  0  0  0  0  0  0  0  # atno 17370 bound_to 10713
  157.7333  130.9728  150.1971 LP  0  0  0  0  0  0  0  0  0  0  0  0  # atno 17371 bound_to 10713
  141.1775  133.8483  157.1370 LP  0  0  0  0  0  0  0  0  0  0  0  0  # atno 17394 bound_to 11000
  140.0185  134.9956  157.0543 LP  0  0  0  0  0  0  0  0  0  0  0  0  # atno 17395 bound_to 11000

$$$$
