AV-unprocessed.smi:2766|AV-procd|sdf|10645|dock6
  -GOLD-   2272015 93D 1   1.00000     0.00000
 Structure written by MMmdl.
 32 33  0  0  0  0  0  0  0  0  1 V2000
  147.1127  140.6084  152.9885 C   0  0  0  0  0  0  0  0  0  0  0  0
  148.1454  140.6452  153.9575 O   0  0  0  0  0  0  0  0  0  0  0  0
  147.8962  141.5911  154.9845 C   0  0  0  0  0  0  0  0  0  0  0  0
  148.8855  141.3590  156.1382 C   0  0  1  0  0  0  0  0  0  0  0  0
  148.5523  140.1393  156.7713 O   0  0  0  0  0  0  0  0  0  0  0  0
  150.3452  141.2975  155.6383 C   0  0  0  0  0  0  0  0  0  0  0  0
  151.3096  141.0659  156.7074 N   0  0  0  0  0  0  0  0  0  0  0  0
  152.0993  139.9780  156.9091 C   0  0  0  0  0  0  0  0  0  0  0  0
  152.0550  138.7702  156.0131 C   0  0  0  0  0  0  0  0  0  0  0  0
  152.8544  137.8063  156.4728 F   0  0  0  0  0  0  0  0  0  0  0  0
  150.8167  138.2801  155.9541 F   0  0  0  0  0  0  0  0  0  0  0  0
  152.4549  139.0704  154.7784 F   0  0  0  0  0  0  0  0  0  0  0  0
  152.8920  140.0344  157.9822 N   0  0  0  0  0  0  0  0  0  0  0  0
  152.5870  141.2650  158.5272 C   0  0  0  0  0  0  0  0  0  0  0  0
  153.0926  141.9084  159.6795 C   0  0  0  0  0  0  0  0  0  0  0  0
  152.6157  143.1818  160.0531 C   0  0  0  0  0  0  0  0  0  0  0  0
  151.6280  143.8280  159.2819 C   0  0  0  0  0  0  0  0  0  0  0  0
  151.1120  143.2042  158.1297 C   0  0  0  0  0  0  0  0  0  0  0  0
  151.5939  141.9340  157.7584 C   0  0  0  0  0  0  0  0  0  0  0  0
  148.7864  142.1634  156.8668 H   0  0  0  0  0  0  0  0  0  0  0  0
  147.3510  139.8654  152.2277 H   0  0  0  0  0  0  0  0  0  0  0  0
  147.0033  141.5739  152.4930 H   0  0  0  0  0  0  0  0  0  0  0  0
  146.1573  140.3346  153.4383 H   0  0  0  0  0  0  0  0  0  0  0  0
  147.9605  142.6145  154.6098 H   0  0  0  0  0  0  0  0  0  0  0  0
  146.8754  141.4424  155.3407 H   0  0  0  0  0  0  0  0  0  0  0  0
  149.2017  139.4931  156.5410 H   0  0  0  0  0  0  0  0  0  0  0  0
  150.4558  140.5048  154.8971 H   0  0  0  0  0  0  0  0  0  0  0  0
  150.6053  142.2221  155.1241 H   0  0  0  0  0  0  0  0  0  0  0  0
  153.8474  141.4200  160.2779 H   0  0  0  0  0  0  0  0  0  0  0  0
  153.0084  143.6642  160.9362 H   0  0  0  0  0  0  0  0  0  0  0  0
  151.2671  144.8031  159.5751 H   0  0  0  0  0  0  0  0  0  0  0  0
  150.3564  143.6981  157.5371 H   0  0  0  0  0  0  0  0  0  0  0  0
  1  2  1  0  0  0  0
  1 21  1  0  0  0  0
  1 22  1  0  0  0  0
  1 23  1  0  0  0  0
  2  3  1  0  0  0  0
  3  4  1  0  0  0  0
  3 24  1  0  0  0  0
  3 25  1  0  0  0  0
  4 20  1  0  0  0  0
  4  5  1  0  0  0  0
  4  6  1  0  0  0  0
  5 26  1  0  0  0  0
  6  7  1  0  0  0  0
  6 27  1  0  0  0  0
  6 28  1  0  0  0  0
  7 19  1  0  0  0  0
  7  8  1  0  0  0  0
  8  9  1  0  0  0  0
  8 13  2  0  0  0  0
  9 10  1  0  0  0  0
  9 11  1  0  0  0  0
  9 12  1  0  0  0  0
 13 14  1  0  0  0  0
 14 19  2  0  0  0  0
 14 15  1  0  0  0  0
 15 16  2  0  0  0  0
 15 29  1  0  0  0  0
 16 17  1  0  0  0  0
 16 30  1  0  0  0  0
 17 18  2  0  0  0  0
 17 31  1  0  0  0  0
 18 19  1  0  0  0  0
 18 32  1  0  0  0  0
M  END
> <s_m_source_file>
AV-unprocessed.smi

> <i_m_source_file_index>
2766

> <i_lp_mmshare_version>
43012

> <i_f3d_flags>
0

> <s_epik_input>
W0NIM11PW0NIMl1bQ0BASF0oW09IXSlbQ0gyXW4oYyhuMSlDKEYpKEYpRiljKGMxMilbY0hdW2NIXVtjSF1bY0hdMg==

> <s_epik_cmdline>
J2VwaWtfcHl0aG9uJywgJy1waCcsICc3LjAnLCAnLXRuJywgJzgnLCAnLW1hJywgJzIwMCcsICctbWV0YWxfYmluZGluZycsICctaW1hZScsICc8aW5maWxlLm1hZT4nLCAnLW9tYWUnLCAnPG91dGZpbGUubWFlPic=

> <r_epik_Ionization_Penalty>
0.00044827

> <r_epik_Ionization_Penalty_Charging>
0

> <r_epik_Ionization_Penalty_Neutral>
0.00044827

> <r_epik_State_Penalty>
0.000276591

> <r_epik_Charging_Adjusted_Penalty>
0.000276591

> <i_epik_Tot_Q>
0

> <i_epik_Tot_abs_Q>
0

> <r_epik_Metal_State_Penalty>
-0

> <b_epik_Metal_Only>
0

> <s_lp_Force_Field>
OPLS_2005

> <r_lp_Energy>
13.5685

> <b_lp_Chiralities_Consistent>
1

> <s_lp_Variant>
AV-unprocessed.smi:2766-1

> <Gold.Version>
5.8.1

> <Gold.Id.Protein>
6NUR|6NUR_protein|mol2

> <Gold.PLP.Fitness>
39.4187

> <Gold.PLP.PLP>
-36.8587

> <Gold.PLP.part.hbond>
-1.0000

> <Gold.PLP.part.metal>
0.0000

> <Gold.PLP.part.buried>
-3.2250

> <Gold.PLP.part.nonpolar>
-32.1901

> <Gold.PLP.part.repulsive>
0.1354

> <Gold.PLP.ligand.clash>
0.0000

> <Gold.PLP.ligand.torsion>
0.1487

> <Gold.PLP.Chemscore.Hbond>
0.9440

> <Gold.PLP.Chemscore.CHOScore>
0.0000

> <Gold.PLP.Chemscore.Metal>
0.0000

> <Gold.Chemscore.Hbonds>
donor molecule, donor type, donor heavy atom, donor atom, acceptor molecule, acceptor atom, score
      P1  H  7997  8008       L1    13  0.93

> <Gold.PLP.Chemscore.Internal.Correction>
0.0253

> <Gold.Rescore>
     Score         DG    S(hbond)    S(metal)    S(lipo)     H(rot)  DE(clash)    DE(int)     intcor
     11.54     -11.69       0.35        0.00      93.71       2.32       0.05       0.10       ----

> <Gold.Chemscore.Fitness>
11.5412

> <Gold.Chemscore.DG>
-11.6939

> <Gold.Chemscore.ZeroCoef>
-5.4800

> <Gold.Chemscore.Hbond>
0.3533

> <Gold.Chemscore.Metal>
0.0000

> <Gold.Chemscore.Lipo>
93.7063

> <Gold.Chemscore.Internal_Hbond>
0.0000

> <Gold.Chemscore.DEClash>
0.0519

> <Gold.Chemscore.DEInternal>
0.1008

> <Gold.Chemscore.Rot>
2.3164

> <Gold.Chemscore.Internal.Correction>
   9.000000E+99

> <Gold.Chemscore.Hbonds>
donor molecule, donor type, donor heavy atom, donor atom, acceptor molecule, acceptor atom, score
      P1  H  7997  8008       L1    13  0.18

> <Gold.Chemscore.Hbond.Weighted>
-1.1802

> <Gold.Chemscore.Metal.Weighted>
-0.0000

> <Gold.Chemscore.Lipo.Weighted>
-10.9636

> <Gold.Chemscore.Internal_Hbond.Weighted>
0.0000

> <Gold.Chemscore.DEClash.Weighted>
0.0519

> <Gold.Chemscore.DEInternal.Weighted>
0.1008

> <Gold.Chemscore.Rot.Weighted>
5.9299

> <Gold.Chemscore.Internal.Correction.Weighted>
   9.000000E+99

> <Gold.Protein.RotatedTorsions>
[ 6907 6896 6895 6894 ] final  -11.60 input  -60.11 | X-H torsion
[ 7974 7965 7964 7962 ] final  -12.76 input  175.53 | X-H torsion
[ 8008 7997 7996 7995 ] final  -92.22 input   59.86 | X-H torsion
[ 10167 10162 10161 10158 ] final  -63.55 input  -65.29 | X-H torsion
[ 10718 10713 10712 10709 ] final  169.04 input   66.30 | X-H torsion
[ 10763 10752 10751 10750 ] final -136.59 input  -60.55 | X-H torsion
[ 11005 11000 10999 10996 ] final   88.21 input  -57.11 | X-H torsion

> <Gold.Protein.ActiveResidues>
 VAL166  LYS551  ARG553  GLY616  TRP617  ASP618  TYR619  PRO620  LYS621  CYS622 
 ASP623  PHE694  ASN695  SER759  ASP760  ASP761  ALA762  ILE779  LEU786  VAL792 
 PHE793  MET794  SER795  GLU796  ALA797  LYS798  CYS799  TRP800  GLU811  SER814 

> <Gold.Protein.RotatedAtoms>
  151.3837  135.0944  159.9503 H   0  0  0  0  0  0  0  0  0  0  0  0  # atno 6907 bound_to 6896
  152.5100  133.9047  159.7469 H   0  0  0  0  0  0  0  0  0  0  0  0  # atno 6908 bound_to 6896
  150.9486  133.6519  159.2805 H   0  0  0  0  0  0  0  0  0  0  0  0  # atno 6909 bound_to 6896
  146.2140  140.3105  142.8382 H   0  0  0  0  0  0  0  0  0  0  0  0  # atno 7974 bound_to 7965
  154.7204  140.0511  157.0634 H   0  0  0  0  0  0  0  0  0  0  0  0  # atno 8008 bound_to 7997
  155.0435  140.3171  155.4697 H   0  0  0  0  0  0  0  0  0  0  0  0  # atno 8009 bound_to 7997
  156.2815  140.2128  156.5559 H   0  0  0  0  0  0  0  0  0  0  0  0  # atno 8010 bound_to 7997
  140.5863  143.2334  151.6236 H   0  0  0  0  0  0  0  0  0  0  0  0  # atno 10167 bound_to 10162
  157.0284  131.0252  151.2752 H   0  0  0  0  0  0  0  0  0  0  0  0  # atno 10718 bound_to 10713
  154.8680  135.3668  154.5085 H   0  0  0  0  0  0  0  0  0  0  0  0  # atno 10763 bound_to 10752
  153.5722  135.7020  153.5505 H   0  0  0  0  0  0  0  0  0  0  0  0  # atno 10764 bound_to 10752
  153.3532  135.4066  155.1625 H   0  0  0  0  0  0  0  0  0  0  0  0  # atno 10765 bound_to 10752
  139.8901  134.8473  156.2968 H   0  0  0  0  0  0  0  0  0  0  0  0  # atno 11005 bound_to 11000
  144.8992  140.7621  143.5878 LP  0  0  0  0  0  0  0  0  0  0  0  0  # atno 17320 bound_to 7965
  145.3030  139.1844  143.4679 LP  0  0  0  0  0  0  0  0  0  0  0  0  # atno 17321 bound_to 7965
  139.5199  144.3238  152.0887 LP  0  0  0  0  0  0  0  0  0  0  0  0  # atno 17342 bound_to 10162
  140.2395  144.4284  150.6266 LP  0  0  0  0  0  0  0  0  0  0  0  0  # atno 17343 bound_to 10162
  157.5196  130.7990  149.7794 LP  0  0  0  0  0  0  0  0  0  0  0  0  # atno 17370 bound_to 10713
  156.0078  130.3847  150.2370 LP  0  0  0  0  0  0  0  0  0  0  0  0  # atno 17371 bound_to 10713
  140.9940  133.7192  156.0857 LP  0  0  0  0  0  0  0  0  0  0  0  0  # atno 17394 bound_to 11000
  140.7588  134.3963  157.5529 LP  0  0  0  0  0  0  0  0  0  0  0  0  # atno 17395 bound_to 11000

$$$$
