AV-unprocessed.smi:1349|AV-procd|sdf|5519|dock7
  -GOLD-   22720 5103D 1   1.00000     0.00000
 Structure written by MMmdl.
 43 45  0  0  0  0  0  0  0  0  2 V2000
  149.5406  137.8533  154.3240 O   0  0  0  0  0  0  0  0  0  0  0  0
  150.6513  138.6941  154.0935 C   0  0  0  0  0  0  0  0  0  0  0  0
  151.0298  139.4473  155.3769 C   0  0  0  0  0  0  0  0  0  0  0  0
  150.1143  140.6476  155.6666 C   0  0  0  0  0  0  0  0  0  0  0  0
  150.6874  141.5293  156.7281 C   0  0  0  0  0  0  0  0  0  0  0  0
  150.7060  142.8919  156.7087 N   0  3  0  0  0  0  0  0  0  0  0  0
  151.3138  143.3730  157.8692 C   0  0  0  0  0  0  0  0  0  0  0  0
  151.5655  144.6736  158.2947 C   0  0  0  0  0  0  0  0  0  0  0  0
  152.2116  144.8181  159.5403 C   0  0  0  0  0  0  0  0  0  0  0  0
  152.5819  143.6959  160.3099 C   0  0  0  0  0  0  0  0  0  0  0  0
  152.3208  142.3819  159.8682 C   0  0  0  0  0  0  0  0  0  0  0  0
  151.6801  142.2486  158.6367 C   0  0  0  0  0  0  0  0  0  0  0  0
  151.2691  141.1344  157.8976 N   0  0  0  0  0  0  0  0  0  0  0  0
  151.5156  139.7877  158.4338 C   0  0  0  0  0  0  0  0  0  0  0  0
  153.0024  139.5452  158.7297 C   0  0  0  0  0  0  0  0  0  0  0  0
  153.1362  138.3351  159.4638 O   0  0  0  0  0  0  0  0  0  0  0  0
  153.7709  138.3757  160.6857 C   0  0  0  0  0  0  0  0  0  0  0  0
  153.7380  137.1981  161.4610 C   0  0  0  0  0  0  0  0  0  0  0  0
  154.3637  137.1473  162.7215 C   0  0  0  0  0  0  0  0  0  0  0  0
  155.0307  138.2810  163.2215 C   0  0  0  0  0  0  0  0  0  0  0  0
  155.0690  139.4636  162.4597 C   0  0  0  0  0  0  0  0  0  0  0  0
  154.4431  139.5140  161.1985 C   0  0  0  0  0  0  0  0  0  0  0  0
  149.3966  137.3254  153.5533 H   0  0  0  0  0  0  0  0  0  0  0  0
  151.4899  138.1008  153.7277 H   0  0  0  0  0  0  0  0  0  0  0  0
  150.3895  139.4028  153.3073 H   0  0  0  0  0  0  0  0  0  0  0  0
  150.9800  138.7539  156.2172 H   0  0  0  0  0  0  0  0  0  0  0  0
  152.0687  139.7743  155.3142 H   0  0  0  0  0  0  0  0  0  0  0  0
  149.9568  141.2363  154.7627 H   0  0  0  0  0  0  0  0  0  0  0  0
  149.1306  140.3019  155.9861 H   0  0  0  0  0  0  0  0  0  0  0  0
  151.2842  145.5342  157.7058 H   0  0  0  0  0  0  0  0  0  0  0  0
  152.4282  145.8090  159.9119 H   0  0  0  0  0  0  0  0  0  0  0  0
  153.0767  143.8453  161.2588 H   0  0  0  0  0  0  0  0  0  0  0  0
  152.6100  141.5287  160.4638 H   0  0  0  0  0  0  0  0  0  0  0  0
  150.9076  139.6444  159.3274 H   0  0  0  0  0  0  0  0  0  0  0  0
  151.1594  139.0651  157.6994 H   0  0  0  0  0  0  0  0  0  0  0  0
  153.5575  139.4813  157.7925 H   0  0  0  0  0  0  0  0  0  0  0  0
  153.4026  140.3828  159.3028 H   0  0  0  0  0  0  0  0  0  0  0  0
  153.2276  136.3236  161.0846 H   0  0  0  0  0  0  0  0  0  0  0  0
  154.3312  136.2386  163.3044 H   0  0  0  0  0  0  0  0  0  0  0  0
  155.5115  138.2437  164.1880 H   0  0  0  0  0  0  0  0  0  0  0  0
  155.5796  140.3347  162.8428 H   0  0  0  0  0  0  0  0  0  0  0  0
  154.4924  140.4389  160.6442 H   0  0  0  0  0  0  0  0  0  0  0  0
  150.3327  143.4501  155.9519 H   0  0  0  0  0  0  0  0  0  0  0  0
  1  2  1  0  0  0  0
  1 23  1  0  0  0  0
  2  3  1  0  0  0  0
  2 24  1  0  0  0  0
  2 25  1  0  0  0  0
  3  4  1  0  0  0  0
  3 26  1  0  0  0  0
  3 27  1  0  0  0  0
  4  5  1  0  0  0  0
  4 28  1  0  0  0  0
  4 29  1  0  0  0  0
  5 13  1  0  0  0  0
  5  6  2  0  0  0  0
  6  7  1  0  0  0  0
  6 43  1  0  0  0  0
  7 12  2  0  0  0  0
  7  8  1  0  0  0  0
  8  9  2  0  0  0  0
  8 30  1  0  0  0  0
  9 10  1  0  0  0  0
  9 31  1  0  0  0  0
 10 11  2  0  0  0  0
 10 32  1  0  0  0  0
 11 12  1  0  0  0  0
 11 33  1  0  0  0  0
 12 13  1  0  0  0  0
 13 14  1  0  0  0  0
 14 15  1  0  0  0  0
 14 34  1  0  0  0  0
 14 35  1  0  0  0  0
 15 16  1  0  0  0  0
 15 36  1  0  0  0  0
 15 37  1  0  0  0  0
 16 17  1  0  0  0  0
 17 22  1  0  0  0  0
 17 18  2  0  0  0  0
 18 19  1  0  0  0  0
 18 38  1  0  0  0  0
 19 20  2  0  0  0  0
 19 39  1  0  0  0  0
 20 21  1  0  0  0  0
 20 40  1  0  0  0  0
 21 22  2  0  0  0  0
 21 41  1  0  0  0  0
 22 42  1  0  0  0  0
M  CHG  1   6   1
M  END
> <s_m_source_file>
AV-unprocessed.smi

> <i_m_source_file_index>
1349

> <i_lp_mmshare_version>
43012

> <i_f3d_flags>
0

> <s_epik_input>
W09IXVtDSDJdW0NIMl1bQ0gyXWMobjEpbihjKGMxMilbY0hdW2NIXVtjSF1bY0hdMilbQ0gyXVtDSDJdT2MzW2NIXVtjSF1bY0hdW2NIXVtjSF0z

> <s_epik_cmdline>
J2VwaWtfcHl0aG9uJywgJy1waCcsICc3LjAnLCAnLXRuJywgJzgnLCAnLW1hJywgJzIwMCcsICctbWV0YWxfYmluZGluZycsICctaW1hZScsICc8aW5maWxlLm1hZT4nLCAnLW9tYWUnLCAnPG91dGZpbGUubWFlPic=

> <r_lp_tautomer_probability>
1

> <r_epik_Ionization_Penalty>
0.856072

> <r_epik_Ionization_Penalty_Charging>
0.856072

> <r_epik_Ionization_Penalty_Neutral>
1.64909e-07

> <r_epik_State_Penalty>
0.892118

> <r_epik_Charging_Adjusted_Penalty>
1.74819

> <i_epik_Tot_Q>
1

> <i_epik_Tot_abs_Q>
1

> <r_epik_Metal_State_Penalty>
4.83641

> <b_epik_Metal_Only>
0

> <s_lp_Force_Field>
OPLS_2005

> <r_lp_Energy>
19.1857

> <b_lp_Chiralities_Consistent>
1

> <s_lp_Variant>
AV-unprocessed.smi:1349-2

> <Gold.Version>
5.8.1

> <Gold.Id.Protein>
6NUR|6NUR_protein|mol2

> <Gold.PLP.Fitness>
56.7693

> <Gold.PLP.PLP>
-50.7258

> <Gold.PLP.part.hbond>
-2.0000

> <Gold.PLP.part.metal>
0.0000

> <Gold.PLP.part.buried>
-6.9790

> <Gold.PLP.part.nonpolar>
-42.8623

> <Gold.PLP.part.repulsive>
0.0524

> <Gold.PLP.ligand.clash>
0.0000

> <Gold.PLP.ligand.torsion>
0.8180

> <Gold.PLP.Chemscore.Hbond>
2.5360

> <Gold.PLP.Chemscore.CHOScore>
0.0000

> <Gold.PLP.Chemscore.Metal>
0.0000

> <Gold.Chemscore.Hbonds>
donor molecule, donor type, donor heavy atom, donor atom, acceptor molecule, acceptor atom, score
      L1  H     1    23       P1  7948  0.99
      L1  H     6    43       P1  8028  1.54

> <Gold.PLP.Chemscore.Internal.Correction>
0.0716

> <Gold.Rescore>
     Score         DG    S(hbond)    S(metal)    S(lipo)     H(rot)  DE(clash)    DE(int)     intcor
     20.75     -21.54       1.76        0.00     141.87       2.51       0.04       0.75       ----

> <Gold.Chemscore.Fitness>
20.7527

> <Gold.Chemscore.DG>
-21.5397

> <Gold.Chemscore.ZeroCoef>
-5.4800

> <Gold.Chemscore.Hbond>
1.7640

> <Gold.Chemscore.Metal>
0.0000

> <Gold.Chemscore.Lipo>
141.8734

> <Gold.Chemscore.Internal_Hbond>
0.0000

> <Gold.Chemscore.DEClash>
0.0412

> <Gold.Chemscore.DEInternal>
0.7458

> <Gold.Chemscore.Rot>
2.5123

> <Gold.Chemscore.Internal.Correction>
   9.000000E+99

> <Gold.Chemscore.Hbonds>
donor molecule, donor type, donor heavy atom, donor atom, acceptor molecule, acceptor atom, score
      L1  H     1    23       P1  7948  0.88
      L1  H     6    43       P1  8028  0.77

> <Gold.Chemscore.Hbond.Weighted>
-5.8919

> <Gold.Chemscore.Metal.Weighted>
-0.0000

> <Gold.Chemscore.Lipo.Weighted>
-16.5992

> <Gold.Chemscore.Internal_Hbond.Weighted>
0.0000

> <Gold.Chemscore.DEClash.Weighted>
0.0412

> <Gold.Chemscore.DEInternal.Weighted>
0.7458

> <Gold.Chemscore.Rot.Weighted>
6.4314

> <Gold.Chemscore.Internal.Correction.Weighted>
   9.000000E+99

> <Gold.Protein.RotatedTorsions>
[ 6907 6896 6895 6894 ] final  112.96 input  -60.11 | X-H torsion
[ 7974 7965 7964 7962 ] final  -13.35 input  175.53 | X-H torsion
[ 8008 7997 7996 7995 ] final  -81.47 input   59.86 | X-H torsion
[ 10167 10162 10161 10158 ] final  176.55 input  -65.29 | X-H torsion
[ 10718 10713 10712 10709 ] final -148.30 input   66.30 | X-H torsion
[ 10763 10752 10751 10750 ] final -111.10 input  -60.55 | X-H torsion
[ 11005 11000 10999 10996 ] final  -68.44 input  -57.11 | X-H torsion

> <Gold.Protein.ActiveResidues>
 VAL166  LYS551  ARG553  GLY616  TRP617  ASP618  TYR619  PRO620  LYS621  CYS622 
 ASP623  PHE694  ASN695  SER759  ASP760  ASP761  ALA762  ILE779  LEU786  VAL792 
 PHE793  MET794  SER795  GLU796  ALA797  LYS798  CYS799  TRP800  GLU811  SER814 

> <Gold.Protein.RotatedAtoms>
  152.4887  133.8442  159.7167 H   0  0  0  0  0  0  0  0  0  0  0  0  # atno 6907 bound_to 6896
  150.8997  133.7125  159.2889 H   0  0  0  0  0  0  0  0  0  0  0  0  # atno 6908 bound_to 6896
  151.4571  135.1039  159.9766 H   0  0  0  0  0  0  0  0  0  0  0  0  # atno 6909 bound_to 6896
  146.2117  140.3190  142.8389 H   0  0  0  0  0  0  0  0  0  0  0  0  # atno 7974 bound_to 7965
  154.5986  140.0647  156.9338 H   0  0  0  0  0  0  0  0  0  0  0  0  # atno 8008 bound_to 7997
  155.2171  140.3327  155.4302 H   0  0  0  0  0  0  0  0  0  0  0  0  # atno 8009 bound_to 7997
  156.2304  140.1838  156.7242 H   0  0  0  0  0  0  0  0  0  0  0  0  # atno 8010 bound_to 7997
  139.5218  144.2903  152.0470 H   0  0  0  0  0  0  0  0  0  0  0  0  # atno 10167 bound_to 10162
  156.4185  130.8017  151.2239 H   0  0  0  0  0  0  0  0  0  0  0  0  # atno 10718 bound_to 10713
  154.8283  135.4540  154.0987 H   0  0  0  0  0  0  0  0  0  0  0  0  # atno 10763 bound_to 10752
  153.2282  135.6902  153.7927 H   0  0  0  0  0  0  0  0  0  0  0  0  # atno 10764 bound_to 10752
  153.7319  135.3325  155.3264 H   0  0  0  0  0  0  0  0  0  0  0  0  # atno 10765 bound_to 10752
  141.1532  133.6741  156.6446 H   0  0  0  0  0  0  0  0  0  0  0  0  # atno 11005 bound_to 11000
  144.8934  140.7552  143.5912 LP  0  0  0  0  0  0  0  0  0  0  0  0  # atno 17320 bound_to 7965
  145.3113  139.1818  143.4637 LP  0  0  0  0  0  0  0  0  0  0  0  0  # atno 17321 bound_to 7965
  140.2354  144.4325  150.6282 LP  0  0  0  0  0  0  0  0  0  0  0  0  # atno 17342 bound_to 10162
  140.6327  143.2190  151.6461 LP  0  0  0  0  0  0  0  0  0  0  0  0  # atno 17343 bound_to 10162
  157.7508  131.0235  150.3838 LP  0  0  0  0  0  0  0  0  0  0  0  0  # atno 17370 bound_to 10713
  156.4151  130.3942  149.6864 LP  0  0  0  0  0  0  0  0  0  0  0  0  # atno 17371 bound_to 10713
  140.3367  134.7883  157.4367 LP  0  0  0  0  0  0  0  0  0  0  0  0  # atno 17394 bound_to 11000
  140.0972  134.5522  155.8387 LP  0  0  0  0  0  0  0  0  0  0  0  0  # atno 17395 bound_to 11000

$$$$
