AV-unprocessed.smi:119|AV-procd|sdf|1134|dock2
  -GOLD-   2262018263D 1   1.00000     0.00000
 Structure written by MMmdl.
 51 54  0  0  0  0  0  0  0  0  1 V2000
  155.0499  138.3230  159.6899 C   0  0  0  0  0  0  0  0  0  0  0  0
  154.0717  139.1455  158.8412 C   0  0  1  0  0  0  0  0  0  0  0  0
  153.2489  138.2349  157.9073 C   0  0  0  0  0  0  0  0  0  0  0  0
  152.4219  138.9834  156.8452 C   0  0  0  0  0  0  0  0  0  0  0  0
  151.2935  139.7124  157.4328 N   0  0  0  0  0  0  0  0  0  0  0  0
  150.1227  139.0824  157.7048 C   0  0  0  0  0  0  0  0  0  0  0  0
  149.1878  139.6538  158.2710 O   0  0  0  0  0  0  0  0  0  0  0  0
  149.9522  137.6053  157.2812 C   0  0  0  0  0  0  0  0  0  0  0  0
  148.7667  136.9574  157.8837 N   0  0  0  0  0  0  0  0  0  0  0  0
  147.7325  136.4926  157.0338 C   0  0  0  0  0  0  0  0  0  0  0  0
  147.7971  136.6341  155.8119 O   0  0  0  0  0  0  0  0  0  0  0  0
  146.6151  135.8362  157.7035 C   0  0  0  0  0  0  0  0  0  0  0  0
  145.5914  135.3577  156.9762 F   0  0  0  0  0  0  0  0  0  0  0  0
  146.5946  135.6950  159.0449 C   0  0  0  0  0  0  0  0  0  0  0  0
  147.6103  136.1566  159.8621 N   0  0  0  0  0  0  0  0  0  0  0  0
  147.5656  135.9657  161.3624 C   0  0  2  0  0  0  0  0  0  0  0  0
  146.3778  135.0767  161.7480 C   0  0  0  0  0  0  0  0  0  0  0  0
  145.3069  136.1026  162.0489 C   0  0  0  0  0  0  0  0  0  0  0  0
  146.1273  137.2316  162.6625 C   0  0  0  0  0  0  0  0  0  0  0  0
  147.3776  137.2084  161.9775 O   0  0  0  0  0  0  0  0  0  0  0  0
  148.7332  136.7913  159.2891 C   0  0  0  0  0  0  0  0  0  0  0  0
  149.6666  137.1790  159.9959 O   0  0  0  0  0  0  0  0  0  0  0  0
  151.5215  141.0694  157.7777 C   0  0  0  0  0  0  0  0  0  0  0  0
  150.9622  142.0941  156.9827 C   0  0  0  0  0  0  0  0  0  0  0  0
  151.1786  143.4450  157.3155 C   0  0  0  0  0  0  0  0  0  0  0  0
  151.9542  143.7772  158.4426 C   0  0  0  0  0  0  0  0  0  0  0  0
  152.5176  142.7590  159.2355 C   0  0  0  0  0  0  0  0  0  0  0  0
  152.3110  141.4055  158.9029 C   0  0  0  0  0  0  0  0  0  0  0  0
  153.0247  140.1568  159.9307 S   0  0  0  0  0  0  0  0  0  0  0  0
  155.7357  137.7546  159.0613 H   0  0  0  0  0  0  0  0  0  0  0  0
  154.5206  137.6169  160.3305 H   0  0  0  0  0  0  0  0  0  0  0  0
  155.6509  138.9686  160.3310 H   0  0  0  0  0  0  0  0  0  0  0  0
  154.6598  139.8333  158.2325 H   0  0  0  0  0  0  0  0  0  0  0  0
  153.9368  137.5734  157.3797 H   0  0  0  0  0  0  0  0  0  0  0  0
  152.6051  137.5796  158.4957 H   0  0  0  0  0  0  0  0  0  0  0  0
  153.0643  139.6787  156.3026 H   0  0  0  0  0  0  0  0  0  0  0  0
  152.0664  138.2792  156.0908 H   0  0  0  0  0  0  0  0  0  0  0  0
  149.8842  137.5349  156.1944 H   0  0  0  0  0  0  0  0  0  0  0  0
  150.8684  137.0677  157.5277 H   0  0  0  0  0  0  0  0  0  0  0  0
  145.7456  135.1926  159.4840 H   0  0  0  0  0  0  0  0  0  0  0  0
  148.5370  135.5577  161.6465 H   0  0  0  0  0  0  0  0  0  0  0  0
  146.1103  134.3711  160.9601 H   0  0  0  0  0  0  0  0  0  0  0  0
  146.6381  134.5193  162.6488 H   0  0  0  0  0  0  0  0  0  0  0  0
  144.8339  136.4359  161.1245 H   0  0  0  0  0  0  0  0  0  0  0  0
  144.5293  135.7285  162.7152 H   0  0  0  0  0  0  0  0  0  0  0  0
  145.6397  138.2024  162.5720 H   0  0  0  0  0  0  0  0  0  0  0  0
  146.3064  137.0384  163.7210 H   0  0  0  0  0  0  0  0  0  0  0  0
  150.3647  141.8455  156.1175 H   0  0  0  0  0  0  0  0  0  0  0  0
  150.7485  144.2267  156.7069 H   0  0  0  0  0  0  0  0  0  0  0  0
  152.1180  144.8134  158.6996 H   0  0  0  0  0  0  0  0  0  0  0  0
  153.1113  143.0202  160.0992 H   0  0  0  0  0  0  0  0  0  0  0  0
  1  2  1  0  0  0  0
  1 30  1  0  0  0  0
  1 31  1  0  0  0  0
  1 32  1  0  0  0  0
  2 29  1  0  0  0  0
  2  3  1  0  0  0  0
  2 33  1  0  0  0  0
  3  4  1  0  0  0  0
  3 34  1  0  0  0  0
  3 35  1  0  0  0  0
  4  5  1  0  0  0  0
  4 36  1  0  0  0  0
  4 37  1  0  0  0  0
  5  6  1  0  0  0  0
  5 23  1  0  0  0  0
  6  7  2  0  0  0  0
  6  8  1  0  0  0  0
  8  9  1  0  0  0  0
  8 38  1  0  0  0  0
  8 39  1  0  0  0  0
  9 21  1  0  0  0  0
  9 10  1  0  0  0  0
 10 11  2  0  0  0  0
 10 12  1  0  0  0  0
 12 13  1  0  0  0  0
 12 14  2  0  0  0  0
 14 15  1  0  0  0  0
 14 40  1  0  0  0  0
 15 16  1  0  0  0  0
 15 21  1  0  0  0  0
 16 20  1  0  0  0  0
 16 17  1  0  0  0  0
 16 41  1  0  0  0  0
 17 18  1  0  0  0  0
 17 42  1  0  0  0  0
 17 43  1  0  0  0  0
 18 19  1  0  0  0  0
 18 44  1  0  0  0  0
 18 45  1  0  0  0  0
 19 20  1  0  0  0  0
 19 46  1  0  0  0  0
 19 47  1  0  0  0  0
 21 22  2  0  0  0  0
 23 28  2  0  0  0  0
 23 24  1  0  0  0  0
 24 25  2  0  0  0  0
 24 48  1  0  0  0  0
 25 26  1  0  0  0  0
 25 49  1  0  0  0  0
 26 27  2  0  0  0  0
 26 50  1  0  0  0  0
 27 28  1  0  0  0  0
 27 51  1  0  0  0  0
 28 29  1  0  0  0  0
M  END
> <s_m_source_file>
AV-unprocessed.smi

> <i_m_source_file_index>
119

> <i_lp_mmshare_version>
43012

> <i_f3d_flags>
0

> <s_epik_input>
W2NIXTFbY0hdW2NIXVtjSF1jKGMxMilTW0NASF0oW0NIM10pW0NIMl1bQ0gyXU4yQyg9TylbQ0gyXW4zYyg9TyljKEYpW2NIXW4oYzM9TylbQ0BASF00W0NIMl1bQ0gyXVtDSDJdTzQ=

> <s_epik_cmdline>
J2VwaWtfcHl0aG9uJywgJy1waCcsICc3LjAnLCAnLXRuJywgJzgnLCAnLW1hJywgJzIwMCcsICctbWV0YWxfYmluZGluZycsICctaW1hZScsICc8aW5maWxlLm1hZT4nLCAnLW9tYWUnLCAnPG91dGZpbGUubWFlPic=

> <r_lp_tautomer_probability>
1

> <r_epik_Ionization_Penalty>
1.68882e-06

> <r_epik_Ionization_Penalty_Charging>
3.67303e-09

> <r_epik_Ionization_Penalty_Neutral>
1.68515e-06

> <r_epik_State_Penalty>
-0

> <r_epik_Charging_Adjusted_Penalty>
3.67303e-09

> <i_epik_Tot_Q>
0

> <i_epik_Tot_abs_Q>
0

> <r_epik_Metal_State_Penalty>
-0

> <b_epik_Metal_Only>
0

> <s_epik_Chemistry_Notes>
This compound contains an acetal/aminal-like group ( X-CH(R)-Y where X, Y are N, S, or O) that may be acid/base labile, releasing an aldehyde.

> <s_lp_Force_Field>
OPLS_2005

> <r_lp_Energy>
49.252

> <b_lp_Chiralities_Consistent>
1

> <s_lp_Variant>
AV-unprocessed.smi:119-2

> <Gold.Version>
5.8.1

> <Gold.Id.Protein>
6NUR|6NUR_protein|mol2

> <Gold.PLP.Fitness>
44.2864

> <Gold.PLP.PLP>
-40.4664

> <Gold.PLP.part.hbond>
-3.2731

> <Gold.PLP.part.metal>
0.0000

> <Gold.PLP.part.buried>
-3.3641

> <Gold.PLP.part.nonpolar>
-33.9117

> <Gold.PLP.part.repulsive>
0.0465

> <Gold.PLP.ligand.clash>
0.0000

> <Gold.PLP.ligand.torsion>
0.3137

> <Gold.PLP.Chemscore.Hbond>
1.4747

> <Gold.PLP.Chemscore.CHOScore>
0.0000

> <Gold.PLP.Chemscore.Metal>
0.0000

> <Gold.Chemscore.Hbonds>
donor molecule, donor type, donor heavy atom, donor atom, acceptor molecule, acceptor atom, score
      P1  H  6931  6943       L1    20  0.88
      P1  H  6934  6947       L1    20  0.55

> <Gold.PLP.Chemscore.Internal.Correction>
0.0231

> <Gold.Rescore>
     Score         DG    S(hbond)    S(metal)    S(lipo)     H(rot)  DE(clash)    DE(int)     intcor
     19.27     -20.92       1.80        0.00     113.89       1.53       0.09       1.56       ----

> <Gold.Chemscore.Fitness>
19.2692

> <Gold.Chemscore.DG>
-20.9223

> <Gold.Chemscore.ZeroCoef>
-5.4800

> <Gold.Chemscore.Hbond>
1.8040

> <Gold.Chemscore.Metal>
0.0000

> <Gold.Chemscore.Lipo>
113.8880

> <Gold.Chemscore.Internal_Hbond>
0.0000

> <Gold.Chemscore.DEClash>
0.0902

> <Gold.Chemscore.DEInternal>
1.5628

> <Gold.Chemscore.Rot>
1.5266

> <Gold.Chemscore.Internal.Correction>
   9.000000E+99

> <Gold.Chemscore.Hbonds>
donor molecule, donor type, donor heavy atom, donor atom, acceptor molecule, acceptor atom, score
      P1  H  6931  6943       L1    20  0.67
      P1  H  6934  6947       L1    20  0.11

> <Gold.Chemscore.Hbond.Weighted>
-6.0255

> <Gold.Chemscore.Metal.Weighted>
-0.0000

> <Gold.Chemscore.Lipo.Weighted>
-13.3249

> <Gold.Chemscore.Internal_Hbond.Weighted>
0.0000

> <Gold.Chemscore.DEClash.Weighted>
0.0902

> <Gold.Chemscore.DEInternal.Weighted>
1.5628

> <Gold.Chemscore.Rot.Weighted>
3.9081

> <Gold.Chemscore.Internal.Correction.Weighted>
   9.000000E+99

> <Gold.Protein.RotatedTorsions>
[ 6907 6896 6895 6894 ] final -152.33 input  -60.11 | X-H torsion
[ 7974 7965 7964 7962 ] final   -2.46 input  175.53 | X-H torsion
[ 8008 7997 7996 7995 ] final   20.20 input   59.86 | X-H torsion
[ 10167 10162 10161 10158 ] final  171.62 input  -65.29 | X-H torsion
[ 10718 10713 10712 10709 ] final -105.47 input   66.30 | X-H torsion
[ 10763 10752 10751 10750 ] final -115.45 input  -60.55 | X-H torsion
[ 11005 11000 10999 10996 ] final  -76.43 input  -57.11 | X-H torsion

> <Gold.Protein.ActiveResidues>
 VAL166  LYS551  ARG553  GLY616  TRP617  ASP618  TYR619  PRO620  LYS621  CYS622 
 ASP623  PHE694  ASN695  SER759  ASP760  ASP761  ALA762  ILE779  LEU786  VAL792 
 PHE793  MET794  SER795  GLU796  ALA797  LYS798  CYS799  TRP800  GLU811  SER814 

> <Gold.Protein.RotatedAtoms>
  151.2262  133.4475  159.2602 H   0  0  0  0  0  0  0  0  0  0  0  0  # atno 6907 bound_to 6896
  151.0838  134.9874  159.8379 H   0  0  0  0  0  0  0  0  0  0  0  0  # atno 6908 bound_to 6896
  152.5427  134.2200  159.8836 H   0  0  0  0  0  0  0  0  0  0  0  0  # atno 6909 bound_to 6896
  146.2404  140.1575  142.8333 H   0  0  0  0  0  0  0  0  0  0  0  0  # atno 7974 bound_to 7965
  154.9320  140.3041  155.5163 H   0  0  0  0  0  0  0  0  0  0  0  0  # atno 8008 bound_to 7997
  156.3003  140.2352  156.4318 H   0  0  0  0  0  0  0  0  0  0  0  0  # atno 8009 bound_to 7997
  154.8228  140.0422  157.1411 H   0  0  0  0  0  0  0  0  0  0  0  0  # atno 8010 bound_to 7997
  139.5052  144.3465  151.9965 H   0  0  0  0  0  0  0  0  0  0  0  0  # atno 10167 bound_to 10162
  156.0347  130.5565  150.7543 H   0  0  0  0  0  0  0  0  0  0  0  0  # atno 10718 bound_to 10713
  154.8481  135.4381  154.1666 H   0  0  0  0  0  0  0  0  0  0  0  0  # atno 10763 bound_to 10752
  153.2789  135.6952  153.7411 H   0  0  0  0  0  0  0  0  0  0  0  0  # atno 10764 bound_to 10752
  153.6623  135.3433  155.3105 H   0  0  0  0  0  0  0  0  0  0  0  0  # atno 10765 bound_to 10752
  141.1654  133.6983  156.7668 H   0  0  0  0  0  0  0  0  0  0  0  0  # atno 11005 bound_to 11000
  145.0117  140.8719  143.5220 LP  0  0  0  0  0  0  0  0  0  0  0  0  # atno 17320 bound_to 7965
  145.1609  139.2459  143.5392 LP  0  0  0  0  0  0  0  0  0  0  0  0  # atno 17321 bound_to 7965
  140.2903  144.3761  150.6091 LP  0  0  0  0  0  0  0  0  0  0  0  0  # atno 17342 bound_to 10162
  140.5952  143.2167  151.7178 LP  0  0  0  0  0  0  0  0  0  0  0  0  # atno 17343 bound_to 10162
  157.5079  131.0923  151.0234 LP  0  0  0  0  0  0  0  0  0  0  0  0  # atno 17370 bound_to 10713
  157.0597  130.5820  149.5384 LP  0  0  0  0  0  0  0  0  0  0  0  0  # atno 17371 bound_to 10713
  140.2493  134.8553  157.3651 LP  0  0  0  0  0  0  0  0  0  0  0  0  # atno 17394 bound_to 11000
  140.1718  134.4599  155.7827 LP  0  0  0  0  0  0  0  0  0  0  0  0  # atno 17395 bound_to 11000

$$$$
