AV-unprocessed.smi:910|AV-procd|sdf|4123|dock3
  -GOLD-   22720 2 23D 1   1.00000     0.00000
 Structure written by MMmdl.
 46 47  0  0  0  0  0  0  0  0  1 V2000
  144.8076  134.9457  163.4380 C   0  0  0  0  0  0  0  0  0  0  0  0
  145.9370  135.1949  162.4625 C   0  0  0  0  0  0  0  0  0  0  0  0
  146.2978  136.4577  162.0781 N   0  0  0  0  0  0  0  0  0  0  0  0
  147.3493  136.3541  161.1806 C   0  0  0  0  0  0  0  0  0  0  0  0
  147.9782  137.3185  160.5832 N   0  0  0  0  0  0  0  0  0  0  0  0
  149.0049  137.0207  159.6993 C   0  0  0  0  0  0  0  0  0  0  0  0
  149.3124  135.9248  159.2196 O   0  0  0  0  0  0  0  0  0  0  0  0
  149.6987  138.1315  159.4103 N   0  0  0  0  0  0  0  0  0  0  0  0
  150.8746  138.1988  158.5483 C   0  0  0  0  0  0  0  0  0  0  0  0
  151.8045  139.3528  158.9502 C   0  0  0  0  0  0  0  0  0  0  0  0
  151.0125  140.4948  159.2420 O   0  0  0  0  0  0  0  0  0  0  0  0
  151.6475  141.7397  158.9804 C   0  0  1  0  0  0  0  0  0  0  0  0
  150.5992  142.7679  158.5062 C   0  0  0  0  0  0  0  0  0  0  0  0
  151.2129  144.1669  158.3480 C   0  0  0  0  0  0  0  0  0  0  0  0
  151.8807  144.6265  159.6514 C   0  0  0  0  0  0  0  0  0  0  0  0
  152.9330  143.6100  160.1200 C   0  0  0  0  0  0  0  0  0  0  0  0
  152.3320  142.1997  160.2872 C   0  0  2  0  0  0  0  0  0  0  0  0
  153.4080  141.2012  160.7466 C   0  0  0  0  0  0  0  0  0  0  0  0
  147.6104  135.0100  161.0427 O   0  0  0  0  0  0  0  0  0  0  0  0
  146.7334  134.3332  161.8344 C   0  0  0  0  0  0  0  0  0  0  0  0
  146.7996  132.8228  161.8628 C   0  0  0  0  0  0  0  0  0  0  0  0
  144.0351  134.3340  162.9716 H   0  0  0  0  0  0  0  0  0  0  0  0
  144.3552  135.8834  163.7620 H   0  0  0  0  0  0  0  0  0  0  0  0
  145.1788  134.4203  164.3181 H   0  0  0  0  0  0  0  0  0  0  0  0
  145.8432  137.2942  162.4139 H   0  0  0  0  0  0  0  0  0  0  0  0
  149.4027  138.9960  159.8401 H   0  0  0  0  0  0  0  0  0  0  0  0
  151.4135  137.2505  158.5786 H   0  0  0  0  0  0  0  0  0  0  0  0
  150.5404  138.3329  157.5193 H   0  0  0  0  0  0  0  0  0  0  0  0
  152.4041  139.0686  159.8164 H   0  0  0  0  0  0  0  0  0  0  0  0
  152.4943  139.5696  158.1348 H   0  0  0  0  0  0  0  0  0  0  0  0
  152.4164  141.6205  158.2145 H   0  0  0  0  0  0  0  0  0  0  0  0
  150.1622  142.4587  157.5573 H   0  0  0  0  0  0  0  0  0  0  0  0
  149.7790  142.8111  159.2240 H   0  0  0  0  0  0  0  0  0  0  0  0
  151.9487  144.1548  157.5428 H   0  0  0  0  0  0  0  0  0  0  0  0
  150.4425  144.8802  158.0533 H   0  0  0  0  0  0  0  0  0  0  0  0
  152.3444  145.6028  159.5076 H   0  0  0  0  0  0  0  0  0  0  0  0
  151.1237  144.7542  160.4262 H   0  0  0  0  0  0  0  0  0  0  0  0
  153.7515  143.5788  159.3992 H   0  0  0  0  0  0  0  0  0  0  0  0
  153.3668  143.9444  161.0631 H   0  0  0  0  0  0  0  0  0  0  0  0
  151.5719  142.2509  161.0684 H   0  0  0  0  0  0  0  0  0  0  0  0
  154.1937  141.0925  159.9984 H   0  0  0  0  0  0  0  0  0  0  0  0
  152.9837  140.2130  160.9267 H   0  0  0  0  0  0  0  0  0  0  0  0
  153.8759  141.5287  161.6752 H   0  0  0  0  0  0  0  0  0  0  0  0
  146.2710  132.4280  162.7307 H   0  0  0  0  0  0  0  0  0  0  0  0
  147.8368  132.4912  161.9101 H   0  0  0  0  0  0  0  0  0  0  0  0
  146.3446  132.4102  160.9624 H   0  0  0  0  0  0  0  0  0  0  0  0
  1 22  1  0  0  0  0
  1 23  1  0  0  0  0
  1 24  1  0  0  0  0
  1  2  1  0  0  0  0
  2  3  1  0  0  0  0
  2 20  2  0  0  0  0
  3 25  1  0  0  0  0
  3  4  1  0  0  0  0
  4 19  1  0  0  0  0
  4  5  2  0  0  0  0
  5  6  1  0  0  0  0
  6  8  1  0  0  0  0
  6  7  2  0  0  0  0
  8  9  1  0  0  0  0
  8 26  1  0  0  0  0
  9 10  1  0  0  0  0
  9 27  1  0  0  0  0
  9 28  1  0  0  0  0
 10 11  1  0  0  0  0
 10 29  1  0  0  0  0
 10 30  1  0  0  0  0
 11 12  1  0  0  0  0
 12 17  1  0  0  0  0
 12 13  1  0  0  0  0
 12 31  1  0  0  0  0
 13 14  1  0  0  0  0
 13 32  1  0  0  0  0
 13 33  1  0  0  0  0
 14 15  1  0  0  0  0
 14 34  1  0  0  0  0
 14 35  1  0  0  0  0
 15 16  1  0  0  0  0
 15 36  1  0  0  0  0
 15 37  1  0  0  0  0
 16 17  1  0  0  0  0
 16 38  1  0  0  0  0
 16 39  1  0  0  0  0
 17 18  1  0  0  0  0
 17 40  1  0  0  0  0
 18 41  1  0  0  0  0
 18 42  1  0  0  0  0
 18 43  1  0  0  0  0
 19 20  1  0  0  0  0
 20 21  1  0  0  0  0
 21 44  1  0  0  0  0
 21 45  1  0  0  0  0
 21 46  1  0  0  0  0
M  END
> <s_m_source_file>
AV-unprocessed.smi

> <i_m_source_file_index>
910

> <i_lp_mmshare_version>
43012

> <i_f3d_flags>
0

> <s_epik_input>
W0NIM11jMW5jKG9jMVtDSDNdKVtOSF1DKD1PKVtOSF1bQ0gyXVtDSDJdT1tDQEBIXTJbQ0gyXVtDSDJdW0NIMl1bQ0gyXVtDQEhdMltDSDNd

> <s_epik_cmdline>
J2VwaWtfcHl0aG9uJywgJy1waCcsICc3LjAnLCAnLXRuJywgJzgnLCAnLW1hJywgJzIwMCcsICctbWV0YWxfYmluZGluZycsICctaW1hZScsICc8aW5maWxlLm1hZT4nLCAnLW9tYWUnLCAnPG91dGZpbGUubWFlPic=

> <r_lp_tautomer_probability>
0.107061

> <r_epik_Ionization_Penalty>
0.727192

> <r_epik_Ionization_Penalty_Charging>
0.726719

> <r_epik_Ionization_Penalty_Neutral>
0.000473387

> <r_epik_State_Penalty>
2.53712

> <r_epik_Charging_Adjusted_Penalty>
3.26383

> <i_epik_Tot_Q>
0

> <i_epik_Tot_abs_Q>
0

> <r_epik_Metal_State_Penalty>
3.71015

> <b_epik_Metal_Only>
0

> <s_lp_Force_Field>
OPLS_2005

> <r_lp_Energy>
30.8064

> <b_lp_Chiralities_Consistent>
1

> <s_lp_Variant>
AV-unprocessed.smi:910-8

> <Gold.Version>
5.8.1

> <Gold.Id.Protein>
6NUR|6NUR_protein|mol2

> <Gold.PLP.Fitness>
46.2170

> <Gold.PLP.PLP>
-42.5066

> <Gold.PLP.part.hbond>
-2.9331

> <Gold.PLP.part.metal>
0.0000

> <Gold.PLP.part.buried>
-6.3555

> <Gold.PLP.part.nonpolar>
-35.9531

> <Gold.PLP.part.repulsive>
0.5176

> <Gold.PLP.ligand.clash>
0.0000

> <Gold.PLP.ligand.torsion>
0.9191

> <Gold.PLP.Chemscore.Hbond>
1.8176

> <Gold.PLP.Chemscore.CHOScore>
0.0000

> <Gold.PLP.Chemscore.Metal>
0.0000

> <Gold.Chemscore.Hbonds>
donor molecule, donor type, donor heavy atom, donor atom, acceptor molecule, acceptor atom, score
      P1  H  6896  6907       L1     7  1.00
      P1  H  6931  6943       L1     5  0.63
      P1  H  6934  6947       L1     5  0.75

> <Gold.PLP.Chemscore.Internal.Correction>
0.0957

> <Gold.Rescore>
     Score         DG    S(hbond)    S(metal)    S(lipo)     H(rot)  DE(clash)    DE(int)     intcor
     14.83     -17.49       1.05        0.00     108.90       1.66       0.00       2.65       ----

> <Gold.Chemscore.Fitness>
14.8318

> <Gold.Chemscore.DG>
-17.4858

> <Gold.Chemscore.ZeroCoef>
-5.4800

> <Gold.Chemscore.Hbond>
1.0502

> <Gold.Chemscore.Metal>
0.0000

> <Gold.Chemscore.Lipo>
108.9040

> <Gold.Chemscore.Internal_Hbond>
0.0000

> <Gold.Chemscore.DEClash>
0.0048

> <Gold.Chemscore.DEInternal>
2.6492

> <Gold.Chemscore.Rot>
1.6576

> <Gold.Chemscore.Internal.Correction>
   9.000000E+99

> <Gold.Chemscore.Hbonds>
donor molecule, donor type, donor heavy atom, donor atom, acceptor molecule, acceptor atom, score
      P1  H  6896  6907       L1     7  0.95
      P1  H  6931  6943       L1     5  0.07
      P1  H  6934  6947       L1     5  0.63

> <Gold.Chemscore.Hbond.Weighted>
-3.5076

> <Gold.Chemscore.Metal.Weighted>
-0.0000

> <Gold.Chemscore.Lipo.Weighted>
-12.7418

> <Gold.Chemscore.Internal_Hbond.Weighted>
0.0000

> <Gold.Chemscore.DEClash.Weighted>
0.0048

> <Gold.Chemscore.DEInternal.Weighted>
2.6492

> <Gold.Chemscore.Rot.Weighted>
4.2436

> <Gold.Chemscore.Internal.Correction.Weighted>
   9.000000E+99

> <Gold.Protein.RotatedTorsions>
[ 6907 6896 6895 6894 ] final  -76.07 input  -60.11 | X-H torsion
[ 7974 7965 7964 7962 ] final   18.72 input  175.53 | X-H torsion
[ 8008 7997 7996 7995 ] final   79.65 input   59.86 | X-H torsion
[ 10167 10162 10161 10158 ] final  140.30 input  -65.29 | X-H torsion
[ 10718 10713 10712 10709 ] final -142.01 input   66.30 | X-H torsion
[ 10763 10752 10751 10750 ] final  -75.69 input  -60.55 | X-H torsion
[ 11005 11000 10999 10996 ] final  167.86 input  -57.11 | X-H torsion

> <Gold.Protein.ActiveResidues>
 VAL166  LYS551  ARG553  GLY616  TRP617  ASP618  TYR619  PRO620  LYS621  CYS622 
 ASP623  PHE694  ASN695  SER759  ASP760  ASP761  ALA762  ILE779  LEU786  VAL792 
 PHE793  MET794  SER795  GLU796  ALA797  LYS798  CYS799  TRP800  GLU811  SER814 

> <Gold.Protein.RotatedAtoms>
  150.7039  134.4626  159.5387 H   0  0  0  0  0  0  0  0  0  0  0  0  # atno 6907 bound_to 6896
  152.2298  134.8330  160.0484 H   0  0  0  0  0  0  0  0  0  0  0  0  # atno 6908 bound_to 6896
  151.9150  133.3536  159.3914 H   0  0  0  0  0  0  0  0  0  0  0  0  # atno 6909 bound_to 6896
  146.2175  139.8416  142.8640 H   0  0  0  0  0  0  0  0  0  0  0  0  # atno 7974 bound_to 7965
  155.8727  140.3448  155.5832 H   0  0  0  0  0  0  0  0  0  0  0  0  # atno 8008 bound_to 7997
  155.7810  140.0858  157.2078 H   0  0  0  0  0  0  0  0  0  0  0  0  # atno 8009 bound_to 7997
  154.4018  140.1501  156.3039 H   0  0  0  0  0  0  0  0  0  0  0  0  # atno 8010 bound_to 7997
  139.5053  144.6242  151.5977 H   0  0  0  0  0  0  0  0  0  0  0  0  # atno 10167 bound_to 10162
  156.3408  130.7636  151.1772 H   0  0  0  0  0  0  0  0  0  0  0  0  # atno 10718 bound_to 10713
  154.4899  135.5822  153.6452 H   0  0  0  0  0  0  0  0  0  0  0  0  # atno 10763 bound_to 10752
  152.9860  135.6110  154.3138 H   0  0  0  0  0  0  0  0  0  0  0  0  # atno 10764 bound_to 10752
  154.3036  135.2846  155.2578 H   0  0  0  0  0  0  0  0  0  0  0  0  # atno 10765 bound_to 10752
  140.2812  134.7749  157.3760 H   0  0  0  0  0  0  0  0  0  0  0  0  # atno 11005 bound_to 11000
  145.2893  141.0162  143.3672 LP  0  0  0  0  0  0  0  0  0  0  0  0  # atno 17320 bound_to 7965
  144.9090  139.4553  143.6596 LP  0  0  0  0  0  0  0  0  0  0  0  0  # atno 17321 bound_to 7965
  140.5954  143.9705  150.6351 LP  0  0  0  0  0  0  0  0  0  0  0  0  # atno 17342 bound_to 10162
  140.2899  143.3331  152.1072 LP  0  0  0  0  0  0  0  0  0  0  0  0  # atno 17343 bound_to 10162
  157.7446  131.0455  150.4846 LP  0  0  0  0  0  0  0  0  0  0  0  0  # atno 17370 bound_to 10713
  156.5026  130.4121  149.6344 LP  0  0  0  0  0  0  0  0  0  0  0  0  # atno 17371 bound_to 10713
  140.1282  134.5130  155.8127 LP  0  0  0  0  0  0  0  0  0  0  0  0  # atno 17394 bound_to 11000
  141.2162  133.6780  156.6990 LP  0  0  0  0  0  0  0  0  0  0  0  0  # atno 17395 bound_to 11000

$$$$
