AV-unprocessed.smi:1075|AV-procd|sdf|4695|dock2
  -GOLD-   22720 3213D 1   1.00000     0.00000
 Structure written by MMmdl.
 50 51  0  0  0  0  0  0  0  0  1 V2000
  151.0377  145.4570  160.0443 C   0  0  0  0  0  0  0  0  0  0  0  0
  151.8171  144.2269  160.4123 C   0  0  0  0  0  0  0  0  0  0  0  0
  152.2247  144.0705  161.6599 N   0  0  0  0  0  0  0  0  0  0  0  0
  152.8858  142.8970  161.6607 N   0  0  0  0  0  0  0  0  0  0  0  0
  153.4752  142.4172  162.8956 C   0  0  0  0  0  0  0  0  0  0  0  0
  152.9001  142.3107  160.4097 C   0  0  0  0  0  0  0  0  0  0  0  0
  153.5837  141.0027  160.1618 C   0  0  0  0  0  0  0  0  0  0  0  0
  152.2090  143.1460  159.5676 C   0  0  0  0  0  0  0  0  0  0  0  0
  151.9161  143.0080  158.0865 C   0  0  2  0  0  0  0  0  0  0  0  0
  151.9300  144.3729  157.3724 C   0  0  0  0  0  0  0  0  0  0  0  0
  150.6057  142.2281  157.8853 C   0  0  0  0  0  0  0  0  0  0  0  0
  150.0740  141.6400  158.8273 O   0  0  0  0  0  0  0  0  0  0  0  0
  150.1080  142.2355  156.6347 N   0  0  0  0  0  0  0  0  0  0  0  0
  148.9285  141.5381  156.1088 C   0  0  1  0  0  0  0  0  0  0  0  0
  147.6651  142.0015  156.8716 C   0  0  0  0  0  0  0  0  0  0  0  0
  148.8356  141.9393  154.6149 C   0  0  0  0  0  0  0  0  0  0  0  0
  147.8214  141.1099  153.8078 C   0  0  0  0  0  0  0  0  0  0  0  0
  148.1036  139.6032  153.9224 C   0  0  2  0  0  0  0  0  0  0  0  0
  147.0932  138.7770  153.1140 C   0  0  0  0  0  0  0  0  0  0  0  0
  148.1210  139.1837  155.4010 C   0  0  0  0  0  0  0  0  0  0  0  0
  149.1375  140.0022  156.2159 C   0  0  0  0  0  0  0  0  0  0  0  0
  151.5323  146.0053  159.2423 H   0  0  0  0  0  0  0  0  0  0  0  0
  150.9288  146.1370  160.8901 H   0  0  0  0  0  0  0  0  0  0  0  0
  150.0372  145.1946  159.7001 H   0  0  0  0  0  0  0  0  0  0  0  0
  154.5618  142.4673  162.8251 H   0  0  0  0  0  0  0  0  0  0  0  0
  153.1751  141.3837  163.0694 H   0  0  0  0  0  0  0  0  0  0  0  0
  153.1472  143.0245  163.7404 H   0  0  0  0  0  0  0  0  0  0  0  0
  153.7951  140.8558  159.1036 H   0  0  0  0  0  0  0  0  0  0  0  0
  152.9608  140.1739  160.4982 H   0  0  0  0  0  0  0  0  0  0  0  0
  154.5344  140.9485  160.6923 H   0  0  0  0  0  0  0  0  0  0  0  0
  152.6911  142.4051  157.6122 H   0  0  0  0  0  0  0  0  0  0  0  0
  151.1704  145.0490  157.7650 H   0  0  0  0  0  0  0  0  0  0  0  0
  151.7530  144.2623  156.3019 H   0  0  0  0  0  0  0  0  0  0  0  0
  152.8977  144.8605  157.4920 H   0  0  0  0  0  0  0  0  0  0  0  0
  150.6352  142.7606  155.9520 H   0  0  0  0  0  0  0  0  0  0  0  0
  146.7556  141.5718  156.4537 H   0  0  0  0  0  0  0  0  0  0  0  0
  147.5573  143.0859  156.8337 H   0  0  0  0  0  0  0  0  0  0  0  0
  147.6936  141.7123  157.9219 H   0  0  0  0  0  0  0  0  0  0  0  0
  148.5947  142.9994  154.5238 H   0  0  0  0  0  0  0  0  0  0  0  0
  149.8142  141.8165  154.1473 H   0  0  0  0  0  0  0  0  0  0  0  0
  146.8079  141.3263  154.1464 H   0  0  0  0  0  0  0  0  0  0  0  0
  147.8607  141.4137  152.7612 H   0  0  0  0  0  0  0  0  0  0  0  0
  149.0935  139.4123  153.5052 H   0  0  0  0  0  0  0  0  0  0  0  0
  146.0774  138.9195  153.4840 H   0  0  0  0  0  0  0  0  0  0  0  0
  147.3222  137.7125  153.1704 H   0  0  0  0  0  0  0  0  0  0  0  0
  147.1068  139.0613  152.0614 H   0  0  0  0  0  0  0  0  0  0  0  0
  147.1257  139.2986  155.8313 H   0  0  0  0  0  0  0  0  0  0  0  0
  148.3649  138.1239  155.4819 H   0  0  0  0  0  0  0  0  0  0  0  0
  150.1391  139.7495  155.8636 H   0  0  0  0  0  0  0  0  0  0  0  0
  149.0970  139.6787  157.2561 H   0  0  0  0  0  0  0  0  0  0  0  0
  1  2  1  0  0  0  0
  1 22  1  0  0  0  0
  1 23  1  0  0  0  0
  1 24  1  0  0  0  0
  2  8  1  0  0  0  0
  2  3  2  0  0  0  0
  3  4  1  0  0  0  0
  4  5  1  0  0  0  0
  4  6  1  0  0  0  0
  5 25  1  0  0  0  0
  5 26  1  0  0  0  0
  5 27  1  0  0  0  0
  6  7  1  0  0  0  0
  6  8  2  0  0  0  0
  7 28  1  0  0  0  0
  7 29  1  0  0  0  0
  7 30  1  0  0  0  0
  8  9  1  0  0  0  0
  9 10  1  0  0  0  0
  9 11  1  0  0  0  0
  9 31  1  0  0  0  0
 10 32  1  0  0  0  0
 10 33  1  0  0  0  0
 10 34  1  0  0  0  0
 11 12  2  0  0  0  0
 11 13  1  0  0  0  0
 13 14  1  0  0  0  0
 13 35  1  0  0  0  0
 14 21  1  0  0  0  0
 14 15  1  0  0  0  0
 14 16  1  0  0  0  0
 15 36  1  0  0  0  0
 15 37  1  0  0  0  0
 15 38  1  0  0  0  0
 16 17  1  0  0  0  0
 16 39  1  0  0  0  0
 16 40  1  0  0  0  0
 17 18  1  0  0  0  0
 17 41  1  0  0  0  0
 17 42  1  0  0  0  0
 18 19  1  0  0  0  0
 18 20  1  0  0  0  0
 18 43  1  0  0  0  0
 19 44  1  0  0  0  0
 19 45  1  0  0  0  0
 19 46  1  0  0  0  0
 20 21  1  0  0  0  0
 20 47  1  0  0  0  0
 20 48  1  0  0  0  0
 21 49  1  0  0  0  0
 21 50  1  0  0  0  0
M  END
> <s_m_source_file>
AV-unprocessed.smi

> <i_m_source_file_index>
1075

> <i_lp_mmshare_version>
43012

> <i_f3d_flags>
0

> <s_epik_input>
W0NIM11jMW5uKFtDSDNdKWMoW0NIM10pYzFbQ0BIXShbQ0gzXSlDKD1PKVtOSF1bQ0BAXTIoW0NIM10pW0NIMl1bQ0gyXVtDQEBIXShbQ0gzXSlbQ0gyXVtDSDJdMg==

> <s_epik_cmdline>
J2VwaWtfcHl0aG9uJywgJy1waCcsICc3LjAnLCAnLXRuJywgJzgnLCAnLW1hJywgJzIwMCcsICctbWV0YWxfYmluZGluZycsICctaW1hZScsICc8aW5maWxlLm1hZT4nLCAnLW9tYWUnLCAnPG91dGZpbGUubWFlPic=

> <r_lp_tautomer_probability>
1

> <r_epik_Ionization_Penalty>
0.00502928

> <r_epik_Ionization_Penalty_Charging>
0

> <r_epik_Ionization_Penalty_Neutral>
0.00502928

> <r_epik_State_Penalty>
0.0036576

> <r_epik_Charging_Adjusted_Penalty>
0.0036576

> <i_epik_Tot_Q>
0

> <i_epik_Tot_abs_Q>
0

> <r_epik_Metal_State_Penalty>
-0

> <b_epik_Metal_Only>
0

> <s_lp_Force_Field>
OPLS_2005

> <r_lp_Energy>
7.43589

> <b_lp_Chiralities_Consistent>
1

> <s_lp_Variant>
AV-unprocessed.smi:1075-3

> <Gold.Version>
5.8.1

> <Gold.Id.Protein>
6NUR|6NUR_protein|mol2

> <Gold.PLP.Fitness>
44.4970

> <Gold.PLP.PLP>
-46.5344

> <Gold.PLP.part.hbond>
-1.8641

> <Gold.PLP.part.metal>
0.0000

> <Gold.PLP.part.buried>
-2.4492

> <Gold.PLP.part.nonpolar>
-42.7052

> <Gold.PLP.part.repulsive>
0.2326

> <Gold.PLP.ligand.clash>
0.0000

> <Gold.PLP.ligand.torsion>
1.0711

> <Gold.PLP.Chemscore.Hbond>
0.0000

> <Gold.PLP.Chemscore.CHOScore>
0.0000

> <Gold.PLP.Chemscore.Metal>
0.0000

> <Gold.PLP.Chemscore.Internal.Correction>
0.1049

> <Gold.Rescore>
     Score         DG    S(hbond)    S(metal)    S(lipo)     H(rot)  DE(clash)    DE(int)     intcor
     15.21     -17.45       0.00        0.00     129.24       1.23       0.22       2.02       ----

> <Gold.Chemscore.Fitness>
15.2088

> <Gold.Chemscore.DG>
-17.4490

> <Gold.Chemscore.ZeroCoef>
-5.4800

> <Gold.Chemscore.Hbond>
0.0007

> <Gold.Chemscore.Metal>
0.0000

> <Gold.Chemscore.Lipo>
129.2363

> <Gold.Chemscore.Internal_Hbond>
0.0000

> <Gold.Chemscore.DEClash>
0.2221

> <Gold.Chemscore.DEInternal>
2.0181

> <Gold.Chemscore.Rot>
1.2321

> <Gold.Chemscore.Internal.Correction>
   9.000000E+99

> <Gold.Chemscore.Hbond.Weighted>
-0.0024

> <Gold.Chemscore.Metal.Weighted>
-0.0000

> <Gold.Chemscore.Lipo.Weighted>
-15.1207

> <Gold.Chemscore.Internal_Hbond.Weighted>
0.0000

> <Gold.Chemscore.DEClash.Weighted>
0.2221

> <Gold.Chemscore.DEInternal.Weighted>
2.0181

> <Gold.Chemscore.Rot.Weighted>
3.1541

> <Gold.Chemscore.Internal.Correction.Weighted>
   9.000000E+99

> <Gold.Protein.RotatedTorsions>
[ 6907 6896 6895 6894 ] final -120.25 input  -60.11 | X-H torsion
[ 7974 7965 7964 7962 ] final  -92.55 input  175.53 | X-H torsion
[ 8008 7997 7996 7995 ] final   81.70 input   59.86 | X-H torsion
[ 10167 10162 10161 10158 ] final   53.72 input  -65.29 | X-H torsion
[ 10718 10713 10712 10709 ] final  -86.61 input   66.30 | X-H torsion
[ 10763 10752 10751 10750 ] final -157.27 input  -60.55 | X-H torsion
[ 11005 11000 10999 10996 ] final -131.39 input  -57.11 | X-H torsion

> <Gold.Protein.ActiveResidues>
 VAL166  LYS551  ARG553  GLY616  TRP617  ASP618  TYR619  PRO620  LYS621  CYS622 
 ASP623  PHE694  ASN695  SER759  ASP760  ASP761  ALA762  ILE779  LEU786  VAL792 
 PHE793  MET794  SER795  GLU796  ALA797  LYS798  CYS799  TRP800  GLU811  SER814 

> <Gold.Protein.RotatedAtoms>
  150.8377  133.7987  159.3073 H   0  0  0  0  0  0  0  0  0  0  0  0  # atno 6907 bound_to 6896
  151.5698  135.1061  160.0002 H   0  0  0  0  0  0  0  0  0  0  0  0  # atno 6908 bound_to 6896
  152.4446  133.7470  159.6729 H   0  0  0  0  0  0  0  0  0  0  0  0  # atno 6909 bound_to 6896
  145.3984  140.9535  143.2301 H   0  0  0  0  0  0  0  0  0  0  0  0  # atno 7974 bound_to 7965
  155.9007  140.3433  155.6024 H   0  0  0  0  0  0  0  0  0  0  0  0  # atno 8008 bound_to 7997
  155.7503  140.0819  157.2223 H   0  0  0  0  0  0  0  0  0  0  0  0  # atno 8009 bound_to 7997
  154.4043  140.1554  156.2703 H   0  0  0  0  0  0  0  0  0  0  0  0  # atno 8010 bound_to 7997
  140.2378  144.3617  150.6391 H   0  0  0  0  0  0  0  0  0  0  0  0  # atno 10167 bound_to 10162
  155.9989  130.4771  150.4741 H   0  0  0  0  0  0  0  0  0  0  0  0  # atno 10718 bound_to 10713
  154.7648  135.3128  154.8307 H   0  0  0  0  0  0  0  0  0  0  0  0  # atno 10763 bound_to 10752
  153.9058  135.6811  153.4757 H   0  0  0  0  0  0  0  0  0  0  0  0  # atno 10764 bound_to 10752
  153.1253  135.4804  154.9195 H   0  0  0  0  0  0  0  0  0  0  0  0  # atno 10765 bound_to 10752
  140.9262  134.1379  157.4273 H   0  0  0  0  0  0  0  0  0  0  0  0  # atno 11005 bound_to 11000
  144.8391  139.5501  143.6908 LP  0  0  0  0  0  0  0  0  0  0  0  0  # atno 17320 bound_to 7965
  146.2764  139.6763  142.9260 LP  0  0  0  0  0  0  0  0  0  0  0  0  # atno 17321 bound_to 7965
  140.6137  143.2171  151.6835 LP  0  0  0  0  0  0  0  0  0  0  0  0  # atno 17342 bound_to 10162
  139.5088  144.3600  152.0571 LP  0  0  0  0  0  0  0  0  0  0  0  0  # atno 17343 bound_to 10162
  157.2753  131.0595  151.2233 LP  0  0  0  0  0  0  0  0  0  0  0  0  # atno 17370 bound_to 10713
  157.3299  130.6979  149.6318 LP  0  0  0  0  0  0  0  0  0  0  0  0  # atno 17371 bound_to 10713
  139.8786  134.9989  156.5926 LP  0  0  0  0  0  0  0  0  0  0  0  0  # atno 17394 bound_to 11000
  140.7922  133.8573  155.8656 LP  0  0  0  0  0  0  0  0  0  0  0  0  # atno 17395 bound_to 11000

$$$$
