AV-unprocessed.smi:3245|AV-procd|sdf|12406|dock4
  -GOLD-   2272018283D 1   1.00000     0.00000
 Structure written by MMmdl.
 35 36  0  0  0  0  0  0  0  0  3 V2000
  145.0734  133.8748  153.6424 C   0  0  0  0  0  0  0  0  0  0  0  0
  146.0472  134.8178  152.9231 C   0  0  2  0  0  0  0  0  0  0  0  0
  145.5489  135.1311  151.4950 C   0  0  0  0  0  0  0  0  0  0  0  0
  145.3308  133.9381  150.6964 N   0  0  0  0  0  0  0  0  0  0  0  0
  144.1900  133.5508  150.0254 C   0  0  0  0  0  0  0  0  0  0  0  0
  144.4718  132.3739  149.3928 C   0  0  0  0  0  0  0  0  0  0  0  0
  145.8263  132.1157  149.7438 C   0  0  0  0  0  0  0  0  0  0  0  0
  146.3369  133.0525  150.5271 N   0  0  0  0  0  0  0  0  0  0  0  0
  147.3960  134.2073  152.8986 N   0  3  0  0  0  0  0  0  0  0  0  0
  147.9048  133.7735  154.2153 C   0  0  0  0  0  0  0  0  0  0  0  0
  149.2728  133.0926  154.0772 C   0  0  0  0  0  0  0  0  0  0  0  0
  149.7844  132.6833  155.3870 N   0  0  0  0  0  0  0  0  0  0  0  0
  150.1506  131.4349  155.6926 C   0  0  0  0  0  0  0  0  0  0  0  0
  150.1169  130.4395  154.9685 O   0  0  0  0  0  0  0  0  0  0  0  0
  150.6518  131.4445  157.1177 C   0  0  0  0  0  0  0  0  0  0  0  0
  150.5143  132.8367  157.4830 N   0  5  0  0  0  0  0  0  0  0  0  0
  150.0049  133.5104  156.4260 C   0  0  0  0  0  0  0  0  0  0  0  0
  149.7665  134.7161  156.3655 O   0  0  0  0  0  0  0  0  0  0  0  0
  144.0765  134.3123  153.7042 H   0  0  0  0  0  0  0  0  0  0  0  0
  145.4048  133.6700  154.6609 H   0  0  0  0  0  0  0  0  0  0  0  0
  144.9855  132.9203  153.1220 H   0  0  0  0  0  0  0  0  0  0  0  0
  146.0845  135.7445  153.4985 H   0  0  0  0  0  0  0  0  0  0  0  0
  144.6231  135.7081  151.5301 H   0  0  0  0  0  0  0  0  0  0  0  0
  146.2786  135.7519  150.9735 H   0  0  0  0  0  0  0  0  0  0  0  0
  143.2856  134.1409  150.0476 H   0  0  0  0  0  0  0  0  0  0  0  0
  143.8118  131.7872  148.7711 H   0  0  0  0  0  0  0  0  0  0  0  0
  146.4499  131.2830  149.4529 H   0  0  0  0  0  0  0  0  0  0  0  0
  147.3722  133.3949  152.2990 H   0  0  0  0  0  0  0  0  0  0  0  0
  147.9925  134.6300  154.8833 H   0  0  0  0  0  0  0  0  0  0  0  0
  147.1825  133.0929  154.6678 H   0  0  0  0  0  0  0  0  0  0  0  0
  149.2002  132.2289  153.4141 H   0  0  0  0  0  0  0  0  0  0  0  0
  149.9808  133.7735  153.6009 H   0  0  0  0  0  0  0  0  0  0  0  0
  150.0448  130.7764  157.7295 H   0  0  0  0  0  0  0  0  0  0  0  0
  151.6826  131.0903  157.1516 H   0  0  0  0  0  0  0  0  0  0  0  0
  148.0397  134.8792  152.5050 H   0  0  0  0  0  0  0  0  0  0  0  0
  1  2  1  0  0  0  0
  1 19  1  0  0  0  0
  1 20  1  0  0  0  0
  1 21  1  0  0  0  0
  2  3  1  0  0  0  0
  2  9  1  0  0  0  0
  2 22  1  0  0  0  0
  3  4  1  0  0  0  0
  3 23  1  0  0  0  0
  3 24  1  0  0  0  0
  4  8  1  0  0  0  0
  4  5  1  0  0  0  0
  5  6  2  0  0  0  0
  5 25  1  0  0  0  0
  6  7  1  0  0  0  0
  6 26  1  0  0  0  0
  7  8  2  0  0  0  0
  7 27  1  0  0  0  0
  9 10  1  0  0  0  0
  9 28  1  0  0  0  0
  9 35  1  0  0  0  0
 10 11  1  0  0  0  0
 10 29  1  0  0  0  0
 10 30  1  0  0  0  0
 11 12  1  0  0  0  0
 11 31  1  0  0  0  0
 11 32  1  0  0  0  0
 12 17  1  0  0  0  0
 12 13  1  0  0  0  0
 13 14  2  0  0  0  0
 13 15  1  0  0  0  0
 15 16  1  0  0  0  0
 15 33  1  0  0  0  0
 15 34  1  0  0  0  0
 16 17  1  0  0  0  0
 17 18  2  0  0  0  0
M  CHG  1   9   1
M  CHG  1  16  -1
M  END
> <s_m_source_file>
AV-unprocessed.smi

> <i_m_source_file_index>
3245

> <i_lp_mmshare_version>
43012

> <i_f3d_flags>
0

> <s_epik_input>
bjFbY0hdW2NIXVtjSF1uMVtDSDJdW0NAQEhdKFtDSDNdKVtOSF1bQ0gyXVtDSDJdTjJDKD1PKVtDSDJdW05IXUMyPU8=

> <s_epik_cmdline>
J2VwaWtfcHl0aG9uJywgJy1waCcsICc3LjAnLCAnLXRuJywgJzgnLCAnLW1hJywgJzIwMCcsICctbWV0YWxfYmluZGluZycsICctaW1hZScsICc8aW5maWxlLm1hZT4nLCAnLW9tYWUnLCAnPG91dGZpbGUubWFlPic=

> <r_lp_tautomer_probability>
1

> <r_epik_Ionization_Penalty>
5.1873

> <r_epik_Ionization_Penalty_Charging>
5.18729

> <r_epik_Ionization_Penalty_Neutral>
3.83745e-06

> <r_epik_State_Penalty>
5.18822

> <r_epik_Charging_Adjusted_Penalty>
10.3755

> <i_epik_Tot_Q>
0

> <i_epik_Tot_abs_Q>
2

> <r_epik_Metal_State_Penalty>
1.25934

> <b_epik_Metal_Only>
1

> <s_lp_Force_Field>
OPLS_2005

> <r_lp_Energy>
10.3219

> <b_lp_Chiralities_Consistent>
1

> <s_lp_Variant>
AV-unprocessed.smi:3245-5

> <Gold.Version>
5.8.1

> <Gold.Id.Protein>
6NUR|6NUR_protein|mol2

> <Gold.PLP.Fitness>
48.1224

> <Gold.PLP.PLP>
-30.3916

> <Gold.PLP.part.hbond>
-2.0000

> <Gold.PLP.part.metal>
0.0000

> <Gold.PLP.part.buried>
-5.0703

> <Gold.PLP.part.nonpolar>
-24.3132

> <Gold.PLP.part.repulsive>
0.2635

> <Gold.PLP.ligand.clash>
0.0000

> <Gold.PLP.ligand.torsion>
0.0692

> <Gold.PLP.Chemscore.Hbond>
4.0000

> <Gold.PLP.Chemscore.CHOScore>
1.9337

> <Gold.PLP.Chemscore.Metal>
0.0000

> <Gold.Chemscore.Hbonds>
donor molecule, donor type, donor heavy atom, donor atom, acceptor molecule, acceptor atom, score
      L1  H     9    35       P1  7948  2.00
      P1  H  6896  6908       L1    16  2.00
      L1  C     5    25       P1 10186  1.00
      L1  C     7    27       P1 10747  0.61

> <Gold.PLP.Chemscore.Internal.Correction>
0.0680

> <Gold.Rescore>
     Score         DG    S(hbond)    S(metal)    S(lipo)     H(rot)  DE(clash)    DE(int)     intcor
     11.50     -11.63       1.94        0.00      55.46       2.66       0.03       0.11       ----

> <Gold.Chemscore.Fitness>
11.4962

> <Gold.Chemscore.DG>
-11.6305

> <Gold.Chemscore.ZeroCoef>
-5.4800

> <Gold.Chemscore.Hbond>
1.9375

> <Gold.Chemscore.Metal>
0.0000

> <Gold.Chemscore.Lipo>
55.4632

> <Gold.Chemscore.Internal_Hbond>
0.0000

> <Gold.Chemscore.DEClash>
0.0263

> <Gold.Chemscore.DEInternal>
0.1080

> <Gold.Chemscore.Rot>
2.6601

> <Gold.Chemscore.Internal.Correction>
   9.000000E+99

> <Gold.Chemscore.Hbonds>
donor molecule, donor type, donor heavy atom, donor atom, acceptor molecule, acceptor atom, score
      L1  H     9    35       P1  7948  0.74
      P1  H  6896  6908       L1    16  0.93

> <Gold.Chemscore.Hbond.Weighted>
-6.4711

> <Gold.Chemscore.Metal.Weighted>
-0.0000

> <Gold.Chemscore.Lipo.Weighted>
-6.4892

> <Gold.Chemscore.Internal_Hbond.Weighted>
0.0000

> <Gold.Chemscore.DEClash.Weighted>
0.0263

> <Gold.Chemscore.DEInternal.Weighted>
0.1080

> <Gold.Chemscore.Rot.Weighted>
6.8098

> <Gold.Chemscore.Internal.Correction.Weighted>
   9.000000E+99

> <Gold.Protein.RotatedTorsions>
[ 6907 6896 6895 6894 ] final   83.91 input  -60.11 | X-H torsion
[ 7974 7965 7964 7962 ] final  116.53 input  175.53 | X-H torsion
[ 8008 7997 7996 7995 ] final -145.98 input   59.86 | X-H torsion
[ 10167 10162 10161 10158 ] final -145.65 input  -65.29 | X-H torsion
[ 10718 10713 10712 10709 ] final  142.26 input   66.30 | X-H torsion
[ 10763 10752 10751 10750 ] final  -79.87 input  -60.55 | X-H torsion
[ 11005 11000 10999 10996 ] final   16.70 input  -57.11 | X-H torsion

> <Gold.Protein.ActiveResidues>
 VAL166  LYS551  ARG553  GLY616  TRP617  ASP618  TYR619  PRO620  LYS621  CYS622 
 ASP623  PHE694  ASN695  SER759  ASP760  ASP761  ALA762  ILE779  LEU786  VAL792 
 PHE793  MET794  SER795  GLU796  ALA797  LYS798  CYS799  TRP800  GLU811  SER814 

> <Gold.Protein.RotatedAtoms>
  152.5339  134.2823  159.9011 H   0  0  0  0  0  0  0  0  0  0  0  0  # atno 6907 bound_to 6896
  151.2777  133.4218  159.2632 H   0  0  0  0  0  0  0  0  0  0  0  0  # atno 6908 bound_to 6896
  151.0311  134.9555  159.8168 H   0  0  0  0  0  0  0  0  0  0  0  0  # atno 6909 bound_to 6896
  145.1785  139.3063  143.4430 H   0  0  0  0  0  0  0  0  0  0  0  0  # atno 7974 bound_to 7965
  155.5520  140.0617  157.2848 H   0  0  0  0  0  0  0  0  0  0  0  0  # atno 8008 bound_to 7997
  154.4417  140.1901  156.0741 H   0  0  0  0  0  0  0  0  0  0  0  0  # atno 8009 bound_to 7997
  156.0509  140.3284  155.7354 H   0  0  0  0  0  0  0  0  0  0  0  0  # atno 8010 bound_to 7997
  139.7786  143.8134  152.2635 H   0  0  0  0  0  0  0  0  0  0  0  0  # atno 10167 bound_to 10162
  157.3826  131.0994  151.0724 H   0  0  0  0  0  0  0  0  0  0  0  0  # atno 10718 bound_to 10713
  154.5441  135.5680  153.6864 H   0  0  0  0  0  0  0  0  0  0  0  0  # atno 10763 bound_to 10752
  152.9971  135.6235  154.2463 H   0  0  0  0  0  0  0  0  0  0  0  0  # atno 10764 bound_to 10752
  154.2395  135.2863  155.2839 H   0  0  0  0  0  0  0  0  0  0  0  0  # atno 10765 bound_to 10752
  140.4442  134.1290  155.7694 H   0  0  0  0  0  0  0  0  0  0  0  0  # atno 11005 bound_to 11000
  146.3457  140.1955  142.8589 LP  0  0  0  0  0  0  0  0  0  0  0  0  # atno 17320 bound_to 7965
  145.0161  140.8754  143.5195 LP  0  0  0  0  0  0  0  0  0  0  0  0  # atno 17321 bound_to 7965
  139.8190  144.7304  150.9598 LP  0  0  0  0  0  0  0  0  0  0  0  0  # atno 17342 bound_to 10162
  140.7817  143.4178  151.0890 LP  0  0  0  0  0  0  0  0  0  0  0  0  # atno 17343 bound_to 10162
  157.1787  130.6300  149.5664 LP  0  0  0  0  0  0  0  0  0  0  0  0  # atno 17370 bound_to 10713
  155.9779  130.4761  150.6624 LP  0  0  0  0  0  0  0  0  0  0  0  0  # atno 17371 bound_to 10713
  141.1692  133.8642  157.1622 LP  0  0  0  0  0  0  0  0  0  0  0  0  # atno 17394 bound_to 11000
  140.0049  135.0012  157.0272 LP  0  0  0  0  0  0  0  0  0  0  0  0  # atno 17395 bound_to 11000

$$$$
