AV-unprocessed.smi:310|AV-procd|sdf|2295|dock7
  -GOLD-   2262022193D 1   1.00000     0.00000
 Structure written by MMmdl.
 41 43  0  0  0  0  0  0  0  0  1 V2000
  144.1901  132.2713  149.8549 C   0  0  0  0  0  0  0  0  0  0  0  0
  144.5247  133.4888  150.6467 C   0  0  0  0  0  0  0  0  0  0  0  0
  145.6518  134.2555  150.7438 C   0  0  0  0  0  0  0  0  0  0  0  0
  145.2776  135.2577  151.6781 C   0  0  0  0  0  0  0  0  0  0  0  0
  146.1902  136.2741  152.0596 N   0  0  0  0  0  0  0  0  0  0  0  0
  145.9048  137.4740  152.5941 C   0  0  0  0  0  0  0  0  0  0  0  0
  144.7728  137.8849  152.8506 O   0  0  0  0  0  0  0  0  0  0  0  0
  147.0199  138.1846  152.8191 N   0  0  0  0  0  0  0  0  0  0  0  0
  147.0616  139.5321  153.3796 C   0  0  0  0  0  0  0  0  0  0  0  0
  148.5202  140.0386  153.4027 C   0  0  0  0  0  0  0  0  0  0  0  0
  148.6276  141.3756  154.1559 C   0  0  0  0  0  0  0  0  0  0  0  0
  148.0980  141.1943  155.5144 N   0  0  0  0  0  0  0  0  0  0  0  0
  148.8237  141.1867  156.6607 C   0  0  0  0  0  0  0  0  0  0  0  0
  148.2948  141.0916  157.7694 O   0  0  0  0  0  0  0  0  0  0  0  0
  150.3149  141.2709  156.5275 C   0  0  0  0  0  0  0  0  0  0  0  0
  151.1639  141.0976  157.7745 C   0  0  0  0  0  0  0  0  0  0  0  0
  150.9931  142.4650  157.1656 C   0  0  0  0  0  0  0  0  0  0  0  0
  146.6573  140.9132  155.4871 C   0  0  0  0  0  0  0  0  0  0  0  0
  146.4308  139.5576  154.7917 C   0  0  0  0  0  0  0  0  0  0  0  0
  144.0348  135.1153  152.1126 N   0  0  0  0  0  0  0  0  0  0  0  0
  143.5462  133.9806  151.4541 O   0  0  0  0  0  0  0  0  0  0  0  0
  145.0095  132.0021  149.1880 H   0  0  0  0  0  0  0  0  0  0  0  0
  143.3007  132.4381  149.2470 H   0  0  0  0  0  0  0  0  0  0  0  0
  143.9971  131.4239  150.5128 H   0  0  0  0  0  0  0  0  0  0  0  0
  146.5905  134.1194  150.2277 H   0  0  0  0  0  0  0  0  0  0  0  0
  147.1655  136.0674  151.9033 H   0  0  0  0  0  0  0  0  0  0  0  0
  147.9068  137.7661  152.5797 H   0  0  0  0  0  0  0  0  0  0  0  0
  146.4908  140.2053  152.7369 H   0  0  0  0  0  0  0  0  0  0  0  0
  149.1642  139.3023  153.8864 H   0  0  0  0  0  0  0  0  0  0  0  0
  148.8919  140.1539  152.3840 H   0  0  0  0  0  0  0  0  0  0  0  0
  149.6498  141.7505  154.1279 H   0  0  0  0  0  0  0  0  0  0  0  0
  148.0368  142.1352  153.6419 H   0  0  0  0  0  0  0  0  0  0  0  0
  150.7475  140.8723  155.6117 H   0  0  0  0  0  0  0  0  0  0  0  0
  150.6771  140.9179  158.7313 H   0  0  0  0  0  0  0  0  0  0  0  0
  152.1242  140.6014  157.6507 H   0  0  0  0  0  0  0  0  0  0  0  0
  151.8361  142.8974  156.6308 H   0  0  0  0  0  0  0  0  0  0  0  0
  150.3742  143.1796  157.7060 H   0  0  0  0  0  0  0  0  0  0  0  0
  146.2078  140.8953  156.4806 H   0  0  0  0  0  0  0  0  0  0  0  0
  146.1415  141.7060  154.9433 H   0  0  0  0  0  0  0  0  0  0  0  0
  145.3624  139.3471  154.7309 H   0  0  0  0  0  0  0  0  0  0  0  0
  146.8662  138.7670  155.4050 H   0  0  0  0  0  0  0  0  0  0  0  0
  1  2  1  0  0  0  0
  1 22  1  0  0  0  0
  1 23  1  0  0  0  0
  1 24  1  0  0  0  0
  2 21  1  0  0  0  0
  2  3  2  0  0  0  0
  3  4  1  0  0  0  0
  3 25  1  0  0  0  0
  4  5  1  0  0  0  0
  4 20  2  0  0  0  0
  5  6  1  0  0  0  0
  5 26  1  0  0  0  0
  6  7  2  0  0  0  0
  6  8  1  0  0  0  0
  8  9  1  0  0  0  0
  8 27  1  0  0  0  0
  9 19  1  0  0  0  0
  9 10  1  0  0  0  0
  9 28  1  0  0  0  0
 10 11  1  0  0  0  0
 10 29  1  0  0  0  0
 10 30  1  0  0  0  0
 11 12  1  0  0  0  0
 11 31  1  0  0  0  0
 11 32  1  0  0  0  0
 12 13  1  0  0  0  0
 12 18  1  0  0  0  0
 13 14  2  0  0  0  0
 13 15  1  0  0  0  0
 15 17  1  0  0  0  0
 15 16  1  0  0  0  0
 15 33  1  0  0  0  0
 16 17  1  0  0  0  0
 16 34  1  0  0  0  0
 16 35  1  0  0  0  0
 17 36  1  0  0  0  0
 17 37  1  0  0  0  0
 18 19  1  0  0  0  0
 18 38  1  0  0  0  0
 18 39  1  0  0  0  0
 19 40  1  0  0  0  0
 19 41  1  0  0  0  0
 20 21  1  0  0  0  0
M  END
> <s_m_source_file>
AV-unprocessed.smi

> <i_m_source_file_index>
310

> <i_lp_mmshare_version>
43012

> <i_f3d_flags>
0

> <s_epik_input>
W0NIM11jMVtjSF1jKG5vMSlbTkhdQyg9TylbTkhdW0NIXTJbQ0gyXVtDSDJdTihbQ0gyXVtDSDJdMilDKD1PKVtDSF0zW0NIMl1bQ0gyXTM=

> <s_epik_cmdline>
J2VwaWtfcHl0aG9uJywgJy1waCcsICc3LjAnLCAnLXRuJywgJzgnLCAnLW1hJywgJzIwMCcsICctbWV0YWxfYmluZGluZycsICctaW1hZScsICc8aW5maWxlLm1hZT4nLCAnLW9tYWUnLCAnPG91dGZpbGUubWFlPic=

> <r_lp_tautomer_probability>
1

> <r_epik_Ionization_Penalty>
2.91812e-05

> <r_epik_Ionization_Penalty_Charging>
0

> <r_epik_Ionization_Penalty_Neutral>
2.91812e-05

> <r_epik_State_Penalty>
-0

> <r_epik_Charging_Adjusted_Penalty>
0

> <i_epik_Tot_Q>
0

> <i_epik_Tot_abs_Q>
0

> <r_epik_Metal_State_Penalty>
0.00922567

> <b_epik_Metal_Only>
0

> <s_lp_Force_Field>
OPLS_2005

> <r_lp_Energy>
27.9216

> <b_lp_Chiralities_Consistent>
1

> <s_lp_Variant>
AV-unprocessed.smi:310-1

> <Gold.Version>
5.8.1

> <Gold.Id.Protein>
6NUR|6NUR_protein|mol2

> <Gold.PLP.Fitness>
35.1821

> <Gold.PLP.PLP>
-29.4042

> <Gold.PLP.part.hbond>
-2.0000

> <Gold.PLP.part.metal>
0.0000

> <Gold.PLP.part.buried>
-2.1527

> <Gold.PLP.part.nonpolar>
-27.5713

> <Gold.PLP.part.repulsive>
1.9723

> <Gold.PLP.ligand.clash>
0.0000

> <Gold.PLP.ligand.torsion>
0.1718

> <Gold.PLP.Chemscore.Hbond>
2.0000

> <Gold.PLP.Chemscore.CHOScore>
0.0000

> <Gold.PLP.Chemscore.Metal>
0.0000

> <Gold.Chemscore.Hbonds>
donor molecule, donor type, donor heavy atom, donor atom, acceptor molecule, acceptor atom, score
      L1  H     5    26       P1  7948  1.00
      L1  H     8    27       P1  7948  1.00

> <Gold.PLP.Chemscore.Internal.Correction>
0.1214

> <Gold.Rescore>
     Score         DG    S(hbond)    S(metal)    S(lipo)     H(rot)  DE(clash)    DE(int)     intcor
     14.26     -17.31       1.96        0.00      72.68       1.26       1.66       1.39       ----

> <Gold.Chemscore.Fitness>
14.2568

> <Gold.Chemscore.DG>
-17.3139

> <Gold.Chemscore.ZeroCoef>
-5.4800

> <Gold.Chemscore.Hbond>
1.9640

> <Gold.Chemscore.Metal>
0.0000

> <Gold.Chemscore.Lipo>
72.6810

> <Gold.Chemscore.Internal_Hbond>
0.0000

> <Gold.Chemscore.DEClash>
1.6646

> <Gold.Chemscore.DEInternal>
1.3925

> <Gold.Chemscore.Rot>
1.2615

> <Gold.Chemscore.Internal.Correction>
   9.000000E+99

> <Gold.Chemscore.Hbonds>
donor molecule, donor type, donor heavy atom, donor atom, acceptor molecule, acceptor atom, score
      L1  H     5    26       P1  7948  1.00
      L1  H     8    27       P1  7948  0.93

> <Gold.Chemscore.Hbond.Weighted>
-6.5598

> <Gold.Chemscore.Metal.Weighted>
-0.0000

> <Gold.Chemscore.Lipo.Weighted>
-8.5037

> <Gold.Chemscore.Internal_Hbond.Weighted>
0.0000

> <Gold.Chemscore.DEClash.Weighted>
1.6646

> <Gold.Chemscore.DEInternal.Weighted>
1.3925

> <Gold.Chemscore.Rot.Weighted>
3.2295

> <Gold.Chemscore.Internal.Correction.Weighted>
   9.000000E+99

> <Gold.Protein.RotatedTorsions>
[ 6907 6896 6895 6894 ] final -102.76 input  -60.11 | X-H torsion
[ 7974 7965 7964 7962 ] final  -84.06 input  175.53 | X-H torsion
[ 8008 7997 7996 7995 ] final -131.32 input   59.86 | X-H torsion
[ 10167 10162 10161 10158 ] final   97.53 input  -65.29 | X-H torsion
[ 10718 10713 10712 10709 ] final   84.96 input   66.30 | X-H torsion
[ 10763 10752 10751 10750 ] final  111.67 input  -60.55 | X-H torsion
[ 11005 11000 10999 10996 ] final  149.81 input  -57.11 | X-H torsion

> <Gold.Protein.ActiveResidues>
 VAL166  LYS551  ARG553  GLY616  TRP617  ASP618  TYR619  PRO620  LYS621  CYS622 
 ASP623  PHE694  ASN695  SER759  ASP760  ASP761  ALA762  ILE779  LEU786  VAL792 
 PHE793  MET794  SER795  GLU796  ALA797  LYS798  CYS799  TRP800  GLU811  SER814 

> <Gold.Protein.RotatedAtoms>
  150.7210  134.0532  159.3805 H   0  0  0  0  0  0  0  0  0  0  0  0  # atno 6907 bound_to 6896
  151.8509  135.0556  160.0468 H   0  0  0  0  0  0  0  0  0  0  0  0  # atno 6908 bound_to 6896
  152.2791  133.5417  159.5523 H   0  0  0  0  0  0  0  0  0  0  0  0  # atno 6909 bound_to 6896
  145.5116  140.9539  143.1704 H   0  0  0  0  0  0  0  0  0  0  0  0  # atno 7974 bound_to 7965
  155.3103  140.0457  157.3034 H   0  0  0  0  0  0  0  0  0  0  0  0  # atno 8008 bound_to 7997
  154.5436  140.2295  155.8566 H   0  0  0  0  0  0  0  0  0  0  0  0  # atno 8009 bound_to 7997
  156.1904  140.3052  155.9327 H   0  0  0  0  0  0  0  0  0  0  0  0  # atno 8010 bound_to 7997
  139.7792  144.6894  151.0046 H   0  0  0  0  0  0  0  0  0  0  0  0  # atno 10167 bound_to 10162
  157.6907  131.0155  150.2750 H   0  0  0  0  0  0  0  0  0  0  0  0  # atno 10718 bound_to 10713
  153.4667  135.3710  155.2368 H   0  0  0  0  0  0  0  0  0  0  0  0  # atno 10763 bound_to 10752
  154.8757  135.3922  154.3860 H   0  0  0  0  0  0  0  0  0  0  0  0  # atno 10764 bound_to 10752
  153.4442  135.7084  153.6214 H   0  0  0  0  0  0  0  0  0  0  0  0  # atno 10765 bound_to 10752
  140.1077  134.8944  157.1890 H   0  0  0  0  0  0  0  0  0  0  0  0  # atno 11005 bound_to 11000
  144.7724  139.6705  143.7189 LP  0  0  0  0  0  0  0  0  0  0  0  0  # atno 17320 bound_to 7965
  146.2163  139.5555  142.9648 LP  0  0  0  0  0  0  0  0  0  0  0  0  # atno 17321 bound_to 7965
  140.7817  143.4501  151.0425 LP  0  0  0  0  0  0  0  0  0  0  0  0  # atno 17342 bound_to 10162
  139.8182  143.7856  152.3175 LP  0  0  0  0  0  0  0  0  0  0  0  0  # atno 17343 bound_to 10162
  156.3306  130.3800  149.7494 LP  0  0  0  0  0  0  0  0  0  0  0  0  # atno 17370 bound_to 10713
  156.5035  130.8139  151.3141 LP  0  0  0  0  0  0  0  0  0  0  0  0  # atno 17371 bound_to 10713
  140.3134  134.2998  155.7262 LP  0  0  0  0  0  0  0  0  0  0  0  0  # atno 17394 bound_to 11000
  141.2122  133.7664  156.9808 LP  0  0  0  0  0  0  0  0  0  0  0  0  # atno 17395 bound_to 11000

$$$$
