AV-unprocessed.smi:937|AV-procd|sdf|4210|dock1
  -GOLD-   22720 2113D 1   1.00000     0.00000
 Structure written by MMmdl.
 45 46  0  0  0  0  0  0  0  0  1 V2000
  149.3999  130.3245  154.1813 C   0  0  0  0  0  0  0  0  0  0  0  0
  149.5134  131.7522  154.6735 C   0  0  0  0  0  0  0  0  0  0  0  0
  150.0576  132.0349  155.9441 C   0  0  0  0  0  0  0  0  0  0  0  0
  150.1466  133.3800  156.3515 C   0  0  0  0  0  0  0  0  0  0  0  0
  149.6909  134.3866  155.4758 C   0  0  0  0  0  0  0  0  0  0  0  0
  149.7620  135.8497  155.8650 C   0  0  0  0  0  0  0  0  0  0  0  0
  151.1896  136.2810  156.2363 C   0  0  0  0  0  0  0  0  0  0  0  0
  151.2509  137.7049  156.5428 N   0  0  0  0  0  0  0  0  0  0  0  0
  151.5622  138.2214  157.7437 C   0  0  0  0  0  0  0  0  0  0  0  0
  151.8530  137.5340  158.7209 O   0  0  0  0  0  0  0  0  0  0  0  0
  151.5321  139.5648  157.8069 N   0  0  0  0  0  0  0  0  0  0  0  0
  151.8162  140.4300  158.9535 C   0  0  1  0  0  0  0  0  0  0  0  0
  153.2250  140.1475  159.5143 C   0  0  0  0  0  0  0  0  0  0  0  0
  153.5679  141.1035  160.6658 C   0  0  0  0  0  0  0  0  0  0  0  0
  153.4372  142.5709  160.2297 C   0  0  0  0  0  0  0  0  0  0  0  0
  152.0310  142.8769  159.6722 C   0  0  1  0  0  0  0  0  0  0  0  0
  151.8897  144.3518  159.2421 C   0  0  0  0  0  0  0  0  0  0  0  0
  152.1128  145.1697  160.2712 F   0  0  0  0  0  0  0  0  0  0  0  0
  152.7615  144.6307  158.2731 F   0  0  0  0  0  0  0  0  0  0  0  0
  150.6622  144.5751  158.7729 F   0  0  0  0  0  0  0  0  0  0  0  0
  151.6923  141.9038  158.5219 C   0  0  0  0  0  0  0  0  0  0  0  0
  149.1626  133.9974  154.2266 C   0  0  0  0  0  0  0  0  0  0  0  0
  149.0740  132.7103  153.8274 N   0  0  0  0  0  0  0  0  0  0  0  0
  149.3406  129.6279  155.0180 H   0  0  0  0  0  0  0  0  0  0  0  0
  150.2710  130.0646  153.5794 H   0  0  0  0  0  0  0  0  0  0  0  0
  148.5071  130.1927  153.5689 H   0  0  0  0  0  0  0  0  0  0  0  0
  150.4000  131.2413  156.5921 H   0  0  0  0  0  0  0  0  0  0  0  0
  150.5566  133.6319  157.3185 H   0  0  0  0  0  0  0  0  0  0  0  0
  149.3898  136.4568  155.0384 H   0  0  0  0  0  0  0  0  0  0  0  0
  149.0839  136.0218  156.7022 H   0  0  0  0  0  0  0  0  0  0  0  0
  151.5580  135.6993  157.0833 H   0  0  0  0  0  0  0  0  0  0  0  0
  151.8670  136.0828  155.4053 H   0  0  0  0  0  0  0  0  0  0  0  0
  151.0296  138.3436  155.7931 H   0  0  0  0  0  0  0  0  0  0  0  0
  151.2989  140.0436  156.9490 H   0  0  0  0  0  0  0  0  0  0  0  0
  151.0763  140.2510  159.7358 H   0  0  0  0  0  0  0  0  0  0  0  0
  153.2980  139.1173  159.8645 H   0  0  0  0  0  0  0  0  0  0  0  0
  153.9666  140.2561  158.7213 H   0  0  0  0  0  0  0  0  0  0  0  0
  152.9047  140.9115  161.5102 H   0  0  0  0  0  0  0  0  0  0  0  0
  154.5814  140.9106  161.0190 H   0  0  0  0  0  0  0  0  0  0  0  0
  153.6540  143.2201  161.0783 H   0  0  0  0  0  0  0  0  0  0  0  0
  154.1910  142.7921  159.4731 H   0  0  0  0  0  0  0  0  0  0  0  0
  151.3124  142.7025  160.4748 H   0  0  0  0  0  0  0  0  0  0  0  0
  152.3553  142.0949  157.6766 H   0  0  0  0  0  0  0  0  0  0  0  0
  150.6792  142.0928  158.1652 H   0  0  0  0  0  0  0  0  0  0  0  0
  148.8000  134.7376  153.5284 H   0  0  0  0  0  0  0  0  0  0  0  0
  1  2  1  0  0  0  0
  1 24  1  0  0  0  0
  1 25  1  0  0  0  0
  1 26  1  0  0  0  0
  2 23  1  0  0  0  0
  2  3  2  0  0  0  0
  3  4  1  0  0  0  0
  3 27  1  0  0  0  0
  4  5  2  0  0  0  0
  4 28  1  0  0  0  0
  5  6  1  0  0  0  0
  5 22  1  0  0  0  0
  6  7  1  0  0  0  0
  6 29  1  0  0  0  0
  6 30  1  0  0  0  0
  7  8  1  0  0  0  0
  7 31  1  0  0  0  0
  7 32  1  0  0  0  0
  8  9  1  0  0  0  0
  8 33  1  0  0  0  0
  9 10  2  0  0  0  0
  9 11  1  0  0  0  0
 11 12  1  0  0  0  0
 11 34  1  0  0  0  0
 12 21  1  0  0  0  0
 12 13  1  0  0  0  0
 12 35  1  0  0  0  0
 13 14  1  0  0  0  0
 13 36  1  0  0  0  0
 13 37  1  0  0  0  0
 14 15  1  0  0  0  0
 14 38  1  0  0  0  0
 14 39  1  0  0  0  0
 15 16  1  0  0  0  0
 15 40  1  0  0  0  0
 15 41  1  0  0  0  0
 16 17  1  0  0  0  0
 16 21  1  0  0  0  0
 16 42  1  0  0  0  0
 17 18  1  0  0  0  0
 17 19  1  0  0  0  0
 17 20  1  0  0  0  0
 21 43  1  0  0  0  0
 21 44  1  0  0  0  0
 22 23  2  0  0  0  0
 22 45  1  0  0  0  0
M  END
> <s_m_source_file>
AV-unprocessed.smi

> <i_m_source_file_index>
937

> <i_lp_mmshare_version>
43012

> <i_f3d_flags>
0

> <s_epik_input>
W0NIM11jMVtjSF1bY0hdYyhbY0hdbjEpW0NIMl1bQ0gyXVtOSF1DKD1PKVtOSF1bQ0BASF0yW0NIMl1bQ0gyXVtDSDJdW0NAQEhdKEMoRikoRilGKVtDSDJdMg==

> <s_epik_cmdline>
J2VwaWtfcHl0aG9uJywgJy1waCcsICc3LjAnLCAnLXRuJywgJzgnLCAnLW1hJywgJzIwMCcsICctbWV0YWxfYmluZGluZycsICctaW1hZScsICc8aW5maWxlLm1hZT4nLCAnLW9tYWUnLCAnPG91dGZpbGUubWFlPic=

> <r_epik_Ionization_Penalty>
0.0563445

> <r_epik_Ionization_Penalty_Charging>
0

> <r_epik_Ionization_Penalty_Neutral>
0.0563445

> <r_epik_State_Penalty>
0.0485409

> <r_epik_Charging_Adjusted_Penalty>
0.0485409

> <i_epik_Tot_Q>
0

> <i_epik_Tot_abs_Q>
0

> <r_epik_Metal_State_Penalty>
0.0443056

> <b_epik_Metal_Only>
0

> <s_lp_Force_Field>
OPLS_2005

> <r_lp_Energy>
17.7613

> <b_lp_Chiralities_Consistent>
1

> <s_lp_Variant>
AV-unprocessed.smi:937-2

> <Gold.Version>
5.8.1

> <Gold.Id.Protein>
6NUR|6NUR_protein|mol2

> <Gold.PLP.Fitness>
51.6592

> <Gold.PLP.PLP>
-48.7128

> <Gold.PLP.part.hbond>
0.0000

> <Gold.PLP.part.metal>
0.0000

> <Gold.PLP.part.buried>
-7.0077

> <Gold.PLP.part.nonpolar>
-42.7930

> <Gold.PLP.part.repulsive>
0.2403

> <Gold.PLP.ligand.clash>
0.0000

> <Gold.PLP.ligand.torsion>
0.0471

> <Gold.PLP.Chemscore.Hbond>
0.0000

> <Gold.PLP.Chemscore.CHOScore>
1.0000

> <Gold.PLP.Chemscore.Metal>
0.0000

> <Gold.Chemscore.Hbonds>
donor molecule, donor type, donor heavy atom, donor atom, acceptor molecule, acceptor atom, score
      L1  C    22    45       P1  7948  1.00

> <Gold.PLP.Chemscore.Internal.Correction>
0.0406

> <Gold.Rescore>
     Score         DG    S(hbond)    S(metal)    S(lipo)     H(rot)  DE(clash)    DE(int)     intcor
     13.74     -13.82       0.00        0.00     105.96       1.58       0.01       0.06       ----

> <Gold.Chemscore.Fitness>
13.7442

> <Gold.Chemscore.DG>
-13.8194

> <Gold.Chemscore.ZeroCoef>
-5.4800

> <Gold.Chemscore.Hbond>
0.0000

> <Gold.Chemscore.Metal>
0.0000

> <Gold.Chemscore.Lipo>
105.9555

> <Gold.Chemscore.Internal_Hbond>
0.0000

> <Gold.Chemscore.DEClash>
0.0129

> <Gold.Chemscore.DEInternal>
0.0623

> <Gold.Chemscore.Rot>
1.5849

> <Gold.Chemscore.Internal.Correction>
   9.000000E+99

> <Gold.Chemscore.Hbond.Weighted>
-0.0000

> <Gold.Chemscore.Metal.Weighted>
-0.0000

> <Gold.Chemscore.Lipo.Weighted>
-12.3968

> <Gold.Chemscore.Internal_Hbond.Weighted>
0.0000

> <Gold.Chemscore.DEClash.Weighted>
0.0129

> <Gold.Chemscore.DEInternal.Weighted>
0.0623

> <Gold.Chemscore.Rot.Weighted>
4.0574

> <Gold.Chemscore.Internal.Correction.Weighted>
   9.000000E+99

> <Gold.Protein.RotatedTorsions>
[ 6907 6896 6895 6894 ] final   92.97 input  -60.11 | X-H torsion
[ 7974 7965 7964 7962 ] final -108.67 input  175.53 | X-H torsion
[ 8008 7997 7996 7995 ] final -144.81 input   59.86 | X-H torsion
[ 10167 10162 10161 10158 ] final   49.43 input  -65.29 | X-H torsion
[ 10718 10713 10712 10709 ] final  -33.20 input   66.30 | X-H torsion
[ 10763 10752 10751 10750 ] final   60.51 input  -60.55 | X-H torsion
[ 11005 11000 10999 10996 ] final   23.07 input  -57.11 | X-H torsion

> <Gold.Protein.ActiveResidues>
 VAL166  LYS551  ARG553  GLY616  TRP617  ASP618  TYR619  PRO620  LYS621  CYS622 
 ASP623  PHE694  ASN695  SER759  ASP760  ASP761  ALA762  ILE779  LEU786  VAL792 
 PHE793  MET794  SER795  GLU796  ALA797  LYS798  CYS799  TRP800  GLU811  SER814 

> <Gold.Protein.RotatedAtoms>
  152.5453  134.1420  159.8482 H   0  0  0  0  0  0  0  0  0  0  0  0  # atno 6907 bound_to 6896
  151.1455  133.4935  159.2603 H   0  0  0  0  0  0  0  0  0  0  0  0  # atno 6908 bound_to 6896
  151.1527  135.0245  159.8730 H   0  0  0  0  0  0  0  0  0  0  0  0  # atno 6909 bound_to 6896
  145.1900  140.9010  143.3430 H   0  0  0  0  0  0  0  0  0  0  0  0  # atno 7974 bound_to 7965
  155.5331  140.0601  157.2885 H   0  0  0  0  0  0  0  0  0  0  0  0  # atno 8008 bound_to 7997
  154.4477  140.1932  156.0559 H   0  0  0  0  0  0  0  0  0  0  0  0  # atno 8009 bound_to 7997
  156.0638  140.3269  155.7497 H   0  0  0  0  0  0  0  0  0  0  0  0  # atno 8010 bound_to 7997
  140.2830  144.3135  150.6259 H   0  0  0  0  0  0  0  0  0  0  0  0  # atno 10167 bound_to 10162
  156.3656  130.4331  149.7588 H   0  0  0  0  0  0  0  0  0  0  0  0  # atno 10718 bound_to 10713
  152.9923  135.5534  154.5885 H   0  0  0  0  0  0  0  0  0  0  0  0  # atno 10763 bound_to 10752
  154.5251  135.2810  155.1231 H   0  0  0  0  0  0  0  0  0  0  0  0  # atno 10764 bound_to 10752
  154.2568  135.6388  153.5313 H   0  0  0  0  0  0  0  0  0  0  0  0  # atno 10765 bound_to 10752
  140.3736  134.1995  155.7666 H   0  0  0  0  0  0  0  0  0  0  0  0  # atno 11005 bound_to 11000
  145.0051  139.3562  143.6148 LP  0  0  0  0  0  0  0  0  0  0  0  0  # atno 17320 bound_to 7965
  146.3438  139.9290  142.8756 LP  0  0  0  0  0  0  0  0  0  0  0  0  # atno 17321 bound_to 7965
  140.5796  143.2174  151.7452 LP  0  0  0  0  0  0  0  0  0  0  0  0  # atno 17342 bound_to 10162
  139.4957  144.4099  152.0091 LP  0  0  0  0  0  0  0  0  0  0  0  0  # atno 17343 bound_to 10162
  156.4735  130.8007  151.3025 LP  0  0  0  0  0  0  0  0  0  0  0  0  # atno 17370 bound_to 10713
  157.7478  131.0028  150.3015 LP  0  0  0  0  0  0  0  0  0  0  0  0  # atno 17371 bound_to 10713
  141.1946  133.8124  157.0749 LP  0  0  0  0  0  0  0  0  0  0  0  0  # atno 17394 bound_to 11000
  140.0532  134.9794  157.1174 LP  0  0  0  0  0  0  0  0  0  0  0  0  # atno 17395 bound_to 11000

$$$$
