AV-unprocessed.smi:2252|AV-procd|sdf|9114|dock7
  -GOLD-   2272012323D 1   1.00000     0.00000
 Structure written by MMmdl.
 44 46  0  0  0  0  0  0  0  0  1 V2000
  152.5356  143.6750  161.9456 C   0  0  0  0  0  0  0  0  0  0  0  0
  153.0598  142.6521  161.0606 N   0  0  0  0  0  0  0  0  0  0  0  0
  153.8873  141.5994  161.4284 C   0  0  0  0  0  0  0  0  0  0  0  0
  154.1315  140.8734  160.2876 C   0  0  0  0  0  0  0  0  0  0  0  0
  153.4678  141.4604  159.2156 N   0  0  0  0  0  0  0  0  0  0  0  0
  152.8544  142.5192  159.7358 C   0  0  0  0  0  0  0  0  0  0  0  0
  151.9895  143.4506  158.9458 C   0  0  0  0  0  0  0  0  0  0  0  0
  150.7481  142.7503  158.3694 C   0  0  0  0  0  0  0  0  0  0  0  0
  151.0442  142.1060  157.0963 N   0  0  0  0  0  0  0  0  0  0  0  0
  150.6571  140.8669  156.7549 C   0  0  0  0  0  0  0  0  0  0  0  0
  150.0079  140.1345  157.5028 O   0  0  0  0  0  0  0  0  0  0  0  0
  151.0342  140.3927  155.3397 C   0  0  1  0  0  0  0  0  0  0  0  0
  151.8325  139.0727  155.4228 C   0  0  0  0  0  0  0  0  0  0  0  0
  153.0989  138.8808  154.6123 C   0  0  0  0  0  0  0  0  0  0  0  0
  151.8591  138.1054  154.2582 C   0  0  0  0  0  0  0  0  0  0  0  0
  149.8525  140.2380  154.4548 N   0  0  0  0  0  0  0  0  0  0  0  0
  149.0417  139.0447  154.6942 C   0  0  0  0  0  0  0  0  0  0  0  0
  147.7483  139.3170  153.9251 C   0  0  0  0  0  0  0  0  0  0  0  0
  147.6674  140.8370  153.8243 C   0  0  0  0  0  0  0  0  0  0  0  0
  148.9030  141.3411  154.5693 C   0  0  0  0  0  0  0  0  0  0  0  0
  152.7708  143.4327  162.9824 H   0  0  0  0  0  0  0  0  0  0  0  0
  151.4526  143.7414  161.8381 H   0  0  0  0  0  0  0  0  0  0  0  0
  152.9809  144.6389  161.6982 H   0  0  0  0  0  0  0  0  0  0  0  0
  154.2224  141.4552  162.4451 H   0  0  0  0  0  0  0  0  0  0  0  0
  154.7260  139.9811  160.1574 H   0  0  0  0  0  0  0  0  0  0  0  0
  151.6999  144.2939  159.5736 H   0  0  0  0  0  0  0  0  0  0  0  0
  152.5855  143.8706  158.1346 H   0  0  0  0  0  0  0  0  0  0  0  0
  150.3939  141.9882  159.0639 H   0  0  0  0  0  0  0  0  0  0  0  0
  149.9292  143.4609  158.2447 H   0  0  0  0  0  0  0  0  0  0  0  0
  151.5682  142.6439  156.4213 H   0  0  0  0  0  0  0  0  0  0  0  0
  151.6838  141.1589  154.9111 H   0  0  0  0  0  0  0  0  0  0  0  0
  151.8526  138.6314  156.4181 H   0  0  0  0  0  0  0  0  0  0  0  0
  153.3988  139.6785  153.9354 H   0  0  0  0  0  0  0  0  0  0  0  0
  153.9158  138.3372  155.0820 H   0  0  0  0  0  0  0  0  0  0  0  0
  151.8453  137.0427  154.4912 H   0  0  0  0  0  0  0  0  0  0  0  0
  151.3298  138.3894  153.3508 H   0  0  0  0  0  0  0  0  0  0  0  0
  149.5288  138.1294  154.3558 H   0  0  0  0  0  0  0  0  0  0  0  0
  148.8281  138.9451  155.7603 H   0  0  0  0  0  0  0  0  0  0  0  0
  147.7958  138.8780  152.9276 H   0  0  0  0  0  0  0  0  0  0  0  0
  146.8838  138.8904  154.4346 H   0  0  0  0  0  0  0  0  0  0  0  0
  147.7025  141.1442  152.7782 H   0  0  0  0  0  0  0  0  0  0  0  0
  146.7479  141.2329  154.2566 H   0  0  0  0  0  0  0  0  0  0  0  0
  148.6580  141.5238  155.6174 H   0  0  0  0  0  0  0  0  0  0  0  0
  149.2883  142.2675  154.1422 H   0  0  0  0  0  0  0  0  0  0  0  0
  1  2  1  0  0  0  0
  1 21  1  0  0  0  0
  1 22  1  0  0  0  0
  1 23  1  0  0  0  0
  2  6  1  0  0  0  0
  2  3  1  0  0  0  0
  3  4  2  0  0  0  0
  3 24  1  0  0  0  0
  4  5  1  0  0  0  0
  4 25  1  0  0  0  0
  5  6  2  0  0  0  0
  6  7  1  0  0  0  0
  7  8  1  0  0  0  0
  7 26  1  0  0  0  0
  7 27  1  0  0  0  0
  8  9  1  0  0  0  0
  8 28  1  0  0  0  0
  8 29  1  0  0  0  0
  9 10  1  0  0  0  0
  9 30  1  0  0  0  0
 10 11  2  0  0  0  0
 10 12  1  0  0  0  0
 12 13  1  0  0  0  0
 12 16  1  0  0  0  0
 12 31  1  0  0  0  0
 13 15  1  0  0  0  0
 13 14  1  0  0  0  0
 13 32  1  0  0  0  0
 14 15  1  0  0  0  0
 14 33  1  0  0  0  0
 14 34  1  0  0  0  0
 15 35  1  0  0  0  0
 15 36  1  0  0  0  0
 16 20  1  0  0  0  0
 16 17  1  0  0  0  0
 17 18  1  0  0  0  0
 17 37  1  0  0  0  0
 17 38  1  0  0  0  0
 18 19  1  0  0  0  0
 18 39  1  0  0  0  0
 18 40  1  0  0  0  0
 19 20  1  0  0  0  0
 19 41  1  0  0  0  0
 19 42  1  0  0  0  0
 20 43  1  0  0  0  0
 20 44  1  0  0  0  0
M  END
> <s_m_source_file>
AV-unprocessed.smi

> <i_m_source_file_index>
2252

> <i_lp_mmshare_version>
43012

> <i_f3d_flags>
0

> <s_epik_input>
W0NIM11uMVtjSF1bY0hdbmMxW0NIMl1bQ0gyXVtOSF1DKD1PKVtDQEhdKFtDSF0yW0NIMl1bQ0gyXTIpTjNbQ0gyXVtDSDJdW0NIMl1bQ0gyXTM=

> <s_epik_cmdline>
J2VwaWtfcHl0aG9uJywgJy1waCcsICc3LjAnLCAnLXRuJywgJzgnLCAnLW1hJywgJzIwMCcsICctbWV0YWxfYmluZGluZycsICctaW1hZScsICc8aW5maWxlLm1hZT4nLCAnLW9tYWUnLCAnPG91dGZpbGUubWFlPic=

> <r_epik_Ionization_Penalty>
3.7689

> <r_epik_Ionization_Penalty_Charging>
1.29411

> <r_epik_Ionization_Penalty_Neutral>
2.4748

> <r_epik_State_Penalty>
3.85943

> <r_epik_Charging_Adjusted_Penalty>
5.15353

> <i_epik_Tot_Q>
0

> <i_epik_Tot_abs_Q>
0

> <r_epik_Metal_State_Penalty>
2.88358

> <b_epik_Metal_Only>
1

> <s_lp_Force_Field>
OPLS_2005

> <r_lp_Energy>
29.995

> <b_lp_Chiralities_Consistent>
1

> <s_lp_Variant>
AV-unprocessed.smi:2252-12

> <Gold.Version>
5.8.1

> <Gold.Id.Protein>
6NUR|6NUR_protein|mol2

> <Gold.PLP.Fitness>
47.3755

> <Gold.PLP.PLP>
-49.1273

> <Gold.PLP.part.hbond>
-1.0000

> <Gold.PLP.part.metal>
0.0000

> <Gold.PLP.part.buried>
-2.9007

> <Gold.PLP.part.nonpolar>
-44.6227

> <Gold.PLP.part.repulsive>
0.1740

> <Gold.PLP.ligand.clash>
0.0000

> <Gold.PLP.ligand.torsion>
1.4671

> <Gold.PLP.Chemscore.Hbond>
0.0000

> <Gold.PLP.Chemscore.CHOScore>
0.0000

> <Gold.PLP.Chemscore.Metal>
0.0000

> <Gold.PLP.Chemscore.Internal.Correction>
1.1824

> <Gold.Rescore>
     Score         DG    S(hbond)    S(metal)    S(lipo)     H(rot)  DE(clash)    DE(int)     intcor
     11.76     -13.17       0.00        0.00     106.45       1.86       0.09       1.31       ----

> <Gold.Chemscore.Fitness>
11.7586

> <Gold.Chemscore.DG>
-13.1680

> <Gold.Chemscore.ZeroCoef>
-5.4800

> <Gold.Chemscore.Hbond>
0.0000

> <Gold.Chemscore.Metal>
0.0000

> <Gold.Chemscore.Lipo>
106.4493

> <Gold.Chemscore.Internal_Hbond>
0.0000

> <Gold.Chemscore.DEClash>
0.0946

> <Gold.Chemscore.DEInternal>
1.3149

> <Gold.Chemscore.Rot>
1.8619

> <Gold.Chemscore.Internal.Correction>
   9.000000E+99

> <Gold.Chemscore.Hbond.Weighted>
-0.0000

> <Gold.Chemscore.Metal.Weighted>
-0.0000

> <Gold.Chemscore.Lipo.Weighted>
-12.4546

> <Gold.Chemscore.Internal_Hbond.Weighted>
0.0000

> <Gold.Chemscore.DEClash.Weighted>
0.0946

> <Gold.Chemscore.DEInternal.Weighted>
1.3149

> <Gold.Chemscore.Rot.Weighted>
4.7665

> <Gold.Chemscore.Internal.Correction.Weighted>
   9.000000E+99

> <Gold.Protein.RotatedTorsions>
[ 6907 6896 6895 6894 ] final   11.51 input  -60.11 | X-H torsion
[ 7974 7965 7964 7962 ] final  -74.47 input  175.53 | X-H torsion
[ 8008 7997 7996 7995 ] final  122.65 input   59.86 | X-H torsion
[ 10167 10162 10161 10158 ] final  114.03 input  -65.29 | X-H torsion
[ 10718 10713 10712 10709 ] final   32.82 input   66.30 | X-H torsion
[ 10763 10752 10751 10750 ] final  102.12 input  -60.55 | X-H torsion
[ 11005 11000 10999 10996 ] final   58.28 input  -57.11 | X-H torsion

> <Gold.Protein.ActiveResidues>
 VAL166  LYS551  ARG553  GLY616  TRP617  ASP618  TYR619  PRO620  LYS621  CYS622 
 ASP623  PHE694  ASN695  SER759  ASP760  ASP761  ALA762  ILE779  LEU786  VAL792 
 PHE793  MET794  SER795  GLU796  ALA797  LYS798  CYS799  TRP800  GLU811  SER814 

> <Gold.Protein.RotatedAtoms>
  151.7555  135.0822  160.0337 H   0  0  0  0  0  0  0  0  0  0  0  0  # atno 6907 bound_to 6896
  152.3388  133.6038  159.5870 H   0  0  0  0  0  0  0  0  0  0  0  0  # atno 6908 bound_to 6896
  150.7467  133.9670  159.3575 H   0  0  0  0  0  0  0  0  0  0  0  0  # atno 6909 bound_to 6896
  145.6387  140.9317  143.1048 H   0  0  0  0  0  0  0  0  0  0  0  0  # atno 7974 bound_to 7965
  156.2736  140.2781  156.1501 H   0  0  0  0  0  0  0  0  0  0  0  0  # atno 8008 bound_to 7997
  155.0862  140.0388  157.2672 H   0  0  0  0  0  0  0  0  0  0  0  0  # atno 8009 bound_to 7997
  154.6925  140.2632  155.6804 H   0  0  0  0  0  0  0  0  0  0  0  0  # atno 8010 bound_to 7997
  139.6418  144.7124  151.2222 H   0  0  0  0  0  0  0  0  0  0  0  0  # atno 10167 bound_to 10162
  157.2901  130.7298  149.6605 H   0  0  0  0  0  0  0  0  0  0  0  0  # atno 10718 bound_to 10713
  153.3354  135.4021  155.1529 H   0  0  0  0  0  0  0  0  0  0  0  0  # atno 10763 bound_to 10752
  154.8632  135.3621  154.5415 H   0  0  0  0  0  0  0  0  0  0  0  0  # atno 10764 bound_to 10752
  153.5856  135.7075  153.5504 H   0  0  0  0  0  0  0  0  0  0  0  0  # atno 10765 bound_to 10752
  140.0389  134.5902  155.9407 H   0  0  0  0  0  0  0  0  0  0  0  0  # atno 11005 bound_to 11000
  144.7166  139.8177  143.7396 LP  0  0  0  0  0  0  0  0  0  0  0  0  # atno 17320 bound_to 7965
  146.1298  139.4332  143.0175 LP  0  0  0  0  0  0  0  0  0  0  0  0  # atno 17321 bound_to 7965
  140.7495  143.6299  150.8433 LP  0  0  0  0  0  0  0  0  0  0  0  0  # atno 17342 bound_to 10162
  139.9937  143.5819  152.2901 LP  0  0  0  0  0  0  0  0  0  0  0  0  # atno 17343 bound_to 10162
  155.9667  130.4311  150.4907 LP  0  0  0  0  0  0  0  0  0  0  0  0  # atno 17370 bound_to 10713
  157.2868  131.0618  151.2160 LP  0  0  0  0  0  0  0  0  0  0  0  0  # atno 17371 bound_to 10713
  141.1872  133.6559  156.5274 LP  0  0  0  0  0  0  0  0  0  0  0  0  # atno 17394 bound_to 11000
  140.4101  134.7280  157.4831 LP  0  0  0  0  0  0  0  0  0  0  0  0  # atno 17395 bound_to 11000

$$$$
