AV-unprocessed.smi:2721|AV-procd|sdf|10502|dock2
  -GOLD-   2272014543D 1   1.00000     0.00000
 Structure written by MMmdl.
 29 30  0  0  0  0  0  0  0  0  2 V2000
  151.1833  138.8888  154.9637 C   0  0  0  0  0  0  0  0  0  0  0  0
  151.3644  139.9209  155.9619 N   0  0  0  0  0  0  0  0  0  0  0  0
  150.5054  140.9388  156.3133 C   0  0  0  0  0  0  0  0  0  0  0  0
  151.1041  141.6661  157.3072 C   0  0  0  0  0  0  0  0  0  0  0  0
  150.6239  142.8769  158.0854 C   0  0  1  0  0  0  0  0  0  0  0  0
  150.7604  142.7291  159.5010 O   0  0  0  0  0  0  0  0  0  0  0  0
  152.0852  142.8320  160.0200 C   0  0  0  0  0  0  0  0  0  0  0  0
  152.7039  144.1908  159.6583 C   0  0  0  0  0  0  0  0  0  0  0  0
  152.6687  144.4195  158.1441 C   0  0  0  0  0  0  0  0  0  0  0  0
  151.2351  144.2262  157.6292 C   0  0  1  0  0  0  0  0  0  0  0  0
  151.1543  144.4038  156.1672 N   0  3  0  0  0  0  0  0  0  0  0  0
  152.3469  140.9923  157.4886 C   0  0  0  0  0  0  0  0  0  0  0  0
  152.4984  139.9512  156.6881 N   0  0  0  0  0  0  0  0  0  0  0  0
  149.5478  142.9623  157.9276 H   0  0  0  0  0  0  0  0  0  0  0  0
  150.6304  145.0212  158.0680 H   0  0  0  0  0  0  0  0  0  0  0  0
  150.2462  139.0454  154.4288 H   0  0  0  0  0  0  0  0  0  0  0  0
  151.1579  137.9110  155.4455 H   0  0  0  0  0  0  0  0  0  0  0  0
  152.0073  138.9156  154.2497 H   0  0  0  0  0  0  0  0  0  0  0  0
  149.5488  141.0517  155.8258 H   0  0  0  0  0  0  0  0  0  0  0  0
  152.0373  142.7270  161.1040 H   0  0  0  0  0  0  0  0  0  0  0  0
  152.7067  142.0122  159.6640 H   0  0  0  0  0  0  0  0  0  0  0  0
  152.1494  144.9852  160.1597 H   0  0  0  0  0  0  0  0  0  0  0  0
  153.7294  144.2478  160.0245 H   0  0  0  0  0  0  0  0  0  0  0  0
  153.0211  145.4259  157.9152 H   0  0  0  0  0  0  0  0  0  0  0  0
  153.3558  143.7357  157.6472 H   0  0  0  0  0  0  0  0  0  0  0  0
  151.5419  145.3020  155.9151 H   0  0  0  0  0  0  0  0  0  0  0  0
  150.1890  144.3584  155.8736 H   0  0  0  0  0  0  0  0  0  0  0  0
  153.1401  141.2273  158.1831 H   0  0  0  0  0  0  0  0  0  0  0  0
  151.6797  143.6728  155.7094 H   0  0  0  0  0  0  0  0  0  0  0  0
  1  2  1  0  0  0  0
  1 16  1  0  0  0  0
  1 17  1  0  0  0  0
  1 18  1  0  0  0  0
  2 13  1  0  0  0  0
  2  3  1  0  0  0  0
  3  4  2  0  0  0  0
  3 19  1  0  0  0  0
  4  5  1  0  0  0  0
  4 12  1  0  0  0  0
  5 14  1  0  0  0  0
  5 10  1  0  0  0  0
  5  6  1  0  0  0  0
  6  7  1  0  0  0  0
  7  8  1  0  0  0  0
  7 20  1  0  0  0  0
  7 21  1  0  0  0  0
  8  9  1  0  0  0  0
  8 22  1  0  0  0  0
  8 23  1  0  0  0  0
  9 10  1  0  0  0  0
  9 24  1  0  0  0  0
  9 25  1  0  0  0  0
 10 15  1  0  0  0  0
 10 11  1  0  0  0  0
 11 26  1  0  0  0  0
 11 27  1  0  0  0  0
 11 29  1  0  0  0  0
 12 13  2  0  0  0  0
 12 28  1  0  0  0  0
M  CHG  1  11   1
M  END
> <s_m_source_file>
AV-unprocessed.smi

> <i_m_source_file_index>
2721

> <i_lp_mmshare_version>
43012

> <i_f3d_flags>
0

> <s_epik_input>
W0NIM11uMVtjSF1jKFtjSF1uMSlbQ0BIXTJPW0NIMl1bQ0gyXVtDSDJdW0NAQEhdMltOSDJd

> <s_epik_cmdline>
J2VwaWtfcHl0aG9uJywgJy1waCcsICc3LjAnLCAnLXRuJywgJzgnLCAnLW1hJywgJzIwMCcsICctbWV0YWxfYmluZGluZycsICctaW1hZScsICc8aW5maWxlLm1hZT4nLCAnLW9tYWUnLCAnPG91dGZpbGUubWFlPic=

> <r_lp_tautomer_probability>
1

> <r_epik_Ionization_Penalty>
0.0061467

> <r_epik_Ionization_Penalty_Charging>
0.00611941

> <r_epik_Ionization_Penalty_Neutral>
2.72888e-05

> <r_epik_State_Penalty>
0.00451057

> <r_epik_Charging_Adjusted_Penalty>
0.01063

> <i_epik_Tot_Q>
1

> <i_epik_Tot_abs_Q>
1

> <r_epik_Metal_State_Penalty>
-0

> <b_epik_Metal_Only>
0

> <s_lp_Force_Field>
OPLS_2005

> <r_lp_Energy>
14.6487

> <b_lp_Chiralities_Consistent>
1

> <s_lp_Variant>
AV-unprocessed.smi:2721-3

> <Gold.Version>
5.8.1

> <Gold.Id.Protein>
6NUR|6NUR_protein|mol2

> <Gold.PLP.Fitness>
36.5253

> <Gold.PLP.PLP>
-28.1788

> <Gold.PLP.part.hbond>
-2.9375

> <Gold.PLP.part.metal>
0.0000

> <Gold.PLP.part.buried>
-1.0649

> <Gold.PLP.part.nonpolar>
-24.7450

> <Gold.PLP.part.repulsive>
0.1657

> <Gold.PLP.ligand.clash>
0.0000

> <Gold.PLP.ligand.torsion>
0.3572

> <Gold.PLP.Chemscore.Hbond>
3.0000

> <Gold.PLP.Chemscore.CHOScore>
0.0000

> <Gold.PLP.Chemscore.Metal>
0.0000

> <Gold.Chemscore.Hbonds>
donor molecule, donor type, donor heavy atom, donor atom, acceptor molecule, acceptor atom, score
      L1  H    11    27       P1  8028  1.07
      P1  H  7997  8008       L1    13  0.90

> <Gold.PLP.Chemscore.Internal.Correction>
0.0610

> <Gold.Rescore>
     Score         DG    S(hbond)    S(metal)    S(lipo)     H(rot)  DE(clash)    DE(int)     intcor
     16.28     -17.79       1.47        0.00      85.03       1.00       1.25       0.26       ----

> <Gold.Chemscore.Fitness>
16.2756

> <Gold.Chemscore.DG>
-17.7910

> <Gold.Chemscore.ZeroCoef>
-5.4800

> <Gold.Chemscore.Hbond>
1.4738

> <Gold.Chemscore.Metal>
0.0000

> <Gold.Chemscore.Lipo>
85.0294

> <Gold.Chemscore.Internal_Hbond>
0.0000

> <Gold.Chemscore.DEClash>
1.2535

> <Gold.Chemscore.DEInternal>
0.2618

> <Gold.Chemscore.Rot>
1.0000

> <Gold.Chemscore.Internal.Correction>
   9.000000E+99

> <Gold.Chemscore.Hbonds>
donor molecule, donor type, donor heavy atom, donor atom, acceptor molecule, acceptor atom, score
      L1  H    11    27       P1  8028  0.52
      P1  H  7997  8008       L1    13  0.18

> <Gold.Chemscore.Hbond.Weighted>
-4.9225

> <Gold.Chemscore.Metal.Weighted>
-0.0000

> <Gold.Chemscore.Lipo.Weighted>
-9.9484

> <Gold.Chemscore.Internal_Hbond.Weighted>
0.0000

> <Gold.Chemscore.DEClash.Weighted>
1.2535

> <Gold.Chemscore.DEInternal.Weighted>
0.2618

> <Gold.Chemscore.Rot.Weighted>
2.5600

> <Gold.Chemscore.Internal.Correction.Weighted>
   9.000000E+99

> <Gold.Protein.RotatedTorsions>
[ 6907 6896 6895 6894 ] final -130.52 input  -60.11 | X-H torsion
[ 7974 7965 7964 7962 ] final   45.52 input  175.53 | X-H torsion
[ 8008 7997 7996 7995 ] final  -45.17 input   59.86 | X-H torsion
[ 10167 10162 10161 10158 ] final   36.93 input  -65.29 | X-H torsion
[ 10718 10713 10712 10709 ] final  -41.30 input   66.30 | X-H torsion
[ 10763 10752 10751 10750 ] final   12.66 input  -60.55 | X-H torsion
[ 11005 11000 10999 10996 ] final  109.50 input  -57.11 | X-H torsion

> <Gold.Protein.ActiveResidues>
 VAL166  LYS551  ARG553  GLY616  TRP617  ASP618  TYR619  PRO620  LYS621  CYS622 
 ASP623  PHE694  ASN695  SER759  ASP760  ASP761  ALA762  ILE779  LEU786  VAL792 
 PHE793  MET794  SER795  GLU796  ALA797  LYS798  CYS799  TRP800  GLU811  SER814 

> <Gold.Protein.RotatedAtoms>
  150.9406  133.6660  159.2791 H   0  0  0  0  0  0  0  0  0  0  0  0  # atno 6907 bound_to 6896
  151.4051  135.0975  159.9577 H   0  0  0  0  0  0  0  0  0  0  0  0  # atno 6908 bound_to 6896
  152.5068  133.8892  159.7440 H   0  0  0  0  0  0  0  0  0  0  0  0  # atno 6909 bound_to 6896
  146.0472  139.4955  142.9741 H   0  0  0  0  0  0  0  0  0  0  0  0  # atno 7974 bound_to 7965
  154.4000  140.1403  156.3803 H   0  0  0  0  0  0  0  0  0  0  0  0  # atno 8008 bound_to 7997
  155.8010  140.3476  155.5382 H   0  0  0  0  0  0  0  0  0  0  0  0  # atno 8009 bound_to 7997
  155.8484  140.0937  157.1681 H   0  0  0  0  0  0  0  0  0  0  0  0  # atno 8010 bound_to 7997
  140.4081  144.1631  150.6137 H   0  0  0  0  0  0  0  0  0  0  0  0  # atno 10167 bound_to 10162
  156.2718  130.4207  149.8429 H   0  0  0  0  0  0  0  0  0  0  0  0  # atno 10718 bound_to 10713
  153.1800  135.6826  153.8491 H   0  0  0  0  0  0  0  0  0  0  0  0  # atno 10763 bound_to 10752
  153.7826  135.3180  155.3369 H   0  0  0  0  0  0  0  0  0  0  0  0  # atno 10764 bound_to 10752
  154.8053  135.4752  154.0472 H   0  0  0  0  0  0  0  0  0  0  0  0  # atno 10765 bound_to 10752
  139.8863  134.9459  156.6134 H   0  0  0  0  0  0  0  0  0  0  0  0  # atno 11005 bound_to 11000
  145.6785  141.0197  143.1619 LP  0  0  0  0  0  0  0  0  0  0  0  0  # atno 17320 bound_to 7965
  144.7104  139.8393  143.7416 LP  0  0  0  0  0  0  0  0  0  0  0  0  # atno 17321 bound_to 7965
  140.4668  143.2428  151.9145 LP  0  0  0  0  0  0  0  0  0  0  0  0  # atno 17342 bound_to 10162
  139.4783  144.5411  151.8526 LP  0  0  0  0  0  0  0  0  0  0  0  0  # atno 17343 bound_to 10162
  156.5908  130.8505  151.3407 LP  0  0  0  0  0  0  0  0  0  0  0  0  # atno 17370 bound_to 10713
  157.7286  130.9660  150.1751 LP  0  0  0  0  0  0  0  0  0  0  0  0  # atno 17371 bound_to 10713
  140.7794  133.8673  155.8555 LP  0  0  0  0  0  0  0  0  0  0  0  0  # atno 17394 bound_to 11000
  140.9774  134.1451  157.4525 LP  0  0  0  0  0  0  0  0  0  0  0  0  # atno 17395 bound_to 11000

$$$$
