AV-unprocessed.smi:1251|AV-procd|sdf|5257|dock2
  -GOLD-   22720 4363D 1   1.00000     0.00000
 Structure written by MMmdl.
 39 40  0  0  0  0  0  0  0  0  1 V2000
  151.2710  143.2936  157.7047 C   0  0  0  0  0  0  0  0  0  0  0  0
  150.8883  141.8409  157.4009 C   0  0  0  0  0  0  0  0  0  0  0  0
  151.1997  141.4400  155.9523 C   0  0  0  0  0  0  0  0  0  0  0  0
  151.0092  139.9801  155.7079 C   0  0  0  0  0  0  0  0  0  0  0  0
  151.7704  139.0439  156.2880 N   0  0  0  0  0  0  0  0  0  0  0  0
  151.4234  137.7612  155.8878 N   0  0  0  0  0  0  0  0  0  0  0  0
  150.4181  137.7684  155.0019 C   0  0  0  0  0  0  0  0  0  0  0  0
  149.8658  136.5941  154.4250 N   0  0  0  0  0  0  0  0  0  0  0  0
  149.9104  135.3347  154.8939 C   0  0  0  0  0  0  0  0  0  0  0  0
  150.4637  134.9833  155.9362 O   0  0  0  0  0  0  0  0  0  0  0  0
  149.2688  134.4900  154.0726 N   0  0  0  0  0  0  0  0  0  0  0  0
  149.1377  133.0475  154.2687 C   0  0  1  0  0  0  0  0  0  0  0  0
  148.4139  132.7990  155.6010 C   0  0  0  0  0  0  0  0  0  0  0  0
  148.3945  132.4193  153.0707 C   0  0  2  0  0  0  0  0  0  0  0  0
  147.0090  133.0129  152.8014 C   0  0  0  0  0  0  0  0  0  0  0  0
  146.3009  131.8629  152.1240 C   0  0  0  0  0  0  0  0  0  0  0  0
  146.8320  130.6748  152.9160 C   0  0  0  0  0  0  0  0  0  0  0  0
  148.1589  131.0285  153.2936 O   0  0  0  0  0  0  0  0  0  0  0  0
  149.8085  139.3596  154.5805 S   0  0  0  0  0  0  0  0  0  0  0  0
  151.0366  143.5488  158.7384 H   0  0  0  0  0  0  0  0  0  0  0  0
  150.7304  143.9868  157.0597 H   0  0  0  0  0  0  0  0  0  0  0  0
  152.3384  143.4590  157.5554 H   0  0  0  0  0  0  0  0  0  0  0  0
  151.4211  141.1797  158.0854 H   0  0  0  0  0  0  0  0  0  0  0  0
  149.8252  141.6992  157.5997 H   0  0  0  0  0  0  0  0  0  0  0  0
  150.5627  141.9974  155.2638 H   0  0  0  0  0  0  0  0  0  0  0  0
  152.2290  141.7010  155.7039 H   0  0  0  0  0  0  0  0  0  0  0  0
  149.3762  136.7296  153.5530 H   0  0  0  0  0  0  0  0  0  0  0  0
  148.8481  134.8705  153.2377 H   0  0  0  0  0  0  0  0  0  0  0  0
  150.1281  132.5946  154.3426 H   0  0  0  0  0  0  0  0  0  0  0  0
  148.3464  131.7342  155.8246 H   0  0  0  0  0  0  0  0  0  0  0  0
  147.4001  133.2004  155.5840 H   0  0  0  0  0  0  0  0  0  0  0  0
  148.9452  133.2699  156.4286 H   0  0  0  0  0  0  0  0  0  0  0  0
  148.9988  132.5057  152.1660 H   0  0  0  0  0  0  0  0  0  0  0  0
  146.5049  133.2573  153.7375 H   0  0  0  0  0  0  0  0  0  0  0  0
  147.0436  133.9126  152.1866 H   0  0  0  0  0  0  0  0  0  0  0  0
  145.2142  131.9464  152.1559 H   0  0  0  0  0  0  0  0  0  0  0  0
  146.6112  131.7913  151.0806 H   0  0  0  0  0  0  0  0  0  0  0  0
  146.2427  130.5277  153.8218 H   0  0  0  0  0  0  0  0  0  0  0  0
  146.8121  129.7474  152.3431 H   0  0  0  0  0  0  0  0  0  0  0  0
  1  2  1  0  0  0  0
  1 20  1  0  0  0  0
  1 21  1  0  0  0  0
  1 22  1  0  0  0  0
  2  3  1  0  0  0  0
  2 23  1  0  0  0  0
  2 24  1  0  0  0  0
  3  4  1  0  0  0  0
  3 25  1  0  0  0  0
  3 26  1  0  0  0  0
  4 19  1  0  0  0  0
  4  5  2  0  0  0  0
  5  6  1  0  0  0  0
  6  7  2  0  0  0  0
  7  8  1  0  0  0  0
  7 19  1  0  0  0  0
  8  9  1  0  0  0  0
  8 27  1  0  0  0  0
  9 10  2  0  0  0  0
  9 11  1  0  0  0  0
 11 12  1  0  0  0  0
 11 28  1  0  0  0  0
 12 13  1  0  0  0  0
 12 14  1  0  0  0  0
 12 29  1  0  0  0  0
 13 30  1  0  0  0  0
 13 31  1  0  0  0  0
 13 32  1  0  0  0  0
 14 18  1  0  0  0  0
 14 15  1  0  0  0  0
 14 33  1  0  0  0  0
 15 16  1  0  0  0  0
 15 34  1  0  0  0  0
 15 35  1  0  0  0  0
 16 17  1  0  0  0  0
 16 36  1  0  0  0  0
 16 37  1  0  0  0  0
 17 18  1  0  0  0  0
 17 38  1  0  0  0  0
 17 39  1  0  0  0  0
M  END
> <s_m_source_file>
AV-unprocessed.smi

> <i_m_source_file_index>
1251

> <i_lp_mmshare_version>
43012

> <i_f3d_flags>
0

> <s_epik_input>
W0NIM11bQ0gyXVtDSDJdYzFubmMoczEpW05IXUMoPU8pW05IXVtDQEhdKFtDSDNdKVtDQEBIXTJbQ0gyXVtDSDJdW0NIMl1PMg==

> <s_epik_cmdline>
J2VwaWtfcHl0aG9uJywgJy1waCcsICc3LjAnLCAnLXRuJywgJzgnLCAnLW1hJywgJzIwMCcsICctbWV0YWxfYmluZGluZycsICctaW1hZScsICc8aW5maWxlLm1hZT4nLCAnLW9tYWUnLCAnPG91dGZpbGUubWFlPic=

> <r_lp_tautomer_probability>
1

> <r_epik_Ionization_Penalty>
0.000503621

> <r_epik_Ionization_Penalty_Charging>
0

> <r_epik_Ionization_Penalty_Neutral>
0.000503621

> <r_epik_State_Penalty>
-0

> <r_epik_Charging_Adjusted_Penalty>
0

> <i_epik_Tot_Q>
0

> <i_epik_Tot_abs_Q>
0

> <r_epik_Metal_State_Penalty>
0.219912

> <b_epik_Metal_Only>
0

> <s_lp_Force_Field>
OPLS_2005

> <r_lp_Energy>
12.879

> <b_lp_Chiralities_Consistent>
1

> <s_lp_Variant>
AV-unprocessed.smi:1251-2

> <Gold.Version>
5.8.1

> <Gold.Id.Protein>
6NUR|6NUR_protein|mol2

> <Gold.PLP.Fitness>
34.9094

> <Gold.PLP.PLP>
-29.2165

> <Gold.PLP.part.hbond>
-2.1222

> <Gold.PLP.part.metal>
0.0000

> <Gold.PLP.part.buried>
-4.1429

> <Gold.PLP.part.nonpolar>
-23.3420

> <Gold.PLP.part.repulsive>
0.1916

> <Gold.PLP.ligand.clash>
0.0000

> <Gold.PLP.ligand.torsion>
0.1670

> <Gold.PLP.Chemscore.Hbond>
2.0000

> <Gold.PLP.Chemscore.CHOScore>
0.0000

> <Gold.PLP.Chemscore.Metal>
0.0000

> <Gold.Chemscore.Hbonds>
donor molecule, donor type, donor heavy atom, donor atom, acceptor molecule, acceptor atom, score
      L1  H     8    27       P1  7948  1.00
      L1  H    11    28       P1  7948  0.91

> <Gold.PLP.Chemscore.Internal.Correction>
0.0268

> <Gold.Rescore>
     Score         DG    S(hbond)    S(metal)    S(lipo)     H(rot)  DE(clash)    DE(int)     intcor
     12.97     -14.57       1.52        0.00      68.94       1.58       0.17       1.43       ----

> <Gold.Chemscore.Fitness>
12.9701

> <Gold.Chemscore.DG>
-14.5675

> <Gold.Chemscore.ZeroCoef>
-5.4800

> <Gold.Chemscore.Hbond>
1.5200

> <Gold.Chemscore.Metal>
0.0000

> <Gold.Chemscore.Lipo>
68.9438

> <Gold.Chemscore.Internal_Hbond>
0.0000

> <Gold.Chemscore.DEClash>
0.1702

> <Gold.Chemscore.DEInternal>
1.4272

> <Gold.Chemscore.Rot>
1.5843

> <Gold.Chemscore.Internal.Correction>
   9.000000E+99

> <Gold.Chemscore.Hbonds>
donor molecule, donor type, donor heavy atom, donor atom, acceptor molecule, acceptor atom, score
      L1  H     8    27       P1  7948  0.86
      L1  H    11    28       P1  7948  0.27

> <Gold.Chemscore.Hbond.Weighted>
-5.0768

> <Gold.Chemscore.Metal.Weighted>
-0.0000

> <Gold.Chemscore.Lipo.Weighted>
-8.0664

> <Gold.Chemscore.Internal_Hbond.Weighted>
0.0000

> <Gold.Chemscore.DEClash.Weighted>
0.1702

> <Gold.Chemscore.DEInternal.Weighted>
1.4272

> <Gold.Chemscore.Rot.Weighted>
4.0558

> <Gold.Chemscore.Internal.Correction.Weighted>
   9.000000E+99

> <Gold.Protein.RotatedTorsions>
[ 6907 6896 6895 6894 ] final   94.86 input  -60.11 | X-H torsion
[ 7974 7965 7964 7962 ] final -123.17 input  175.53 | X-H torsion
[ 8008 7997 7996 7995 ] final   -4.76 input   59.86 | X-H torsion
[ 10167 10162 10161 10158 ] final  139.94 input  -65.29 | X-H torsion
[ 10718 10713 10712 10709 ] final -151.72 input   66.30 | X-H torsion
[ 10763 10752 10751 10750 ] final  -65.19 input  -60.55 | X-H torsion
[ 11005 11000 10999 10996 ] final   83.42 input  -57.11 | X-H torsion

> <Gold.Protein.ActiveResidues>
 VAL166  LYS551  ARG553  GLY616  TRP617  ASP618  TYR619  PRO620  LYS621  CYS622 
 ASP623  PHE694  ASN695  SER759  ASP760  ASP761  ALA762  ILE779  LEU786  VAL792 
 PHE793  MET794  SER795  GLU796  ALA797  LYS798  CYS799  TRP800  GLU811  SER814 

> <Gold.Protein.RotatedAtoms>
  152.5447  134.1129  159.8365 H   0  0  0  0  0  0  0  0  0  0  0  0  # atno 6907 bound_to 6896
  151.1194  133.5108  159.2610 H   0  0  0  0  0  0  0  0  0  0  0  0  # atno 6908 bound_to 6896
  151.1796  135.0364  159.8841 H   0  0  0  0  0  0  0  0  0  0  0  0  # atno 6909 bound_to 6896
  145.0216  140.7992  143.4378 H   0  0  0  0  0  0  0  0  0  0  0  0  # atno 7974 bound_to 7965
  154.6110  140.2476  155.7669 H   0  0  0  0  0  0  0  0  0  0  0  0  # atno 8008 bound_to 7997
  156.2370  140.2946  156.0290 H   0  0  0  0  0  0  0  0  0  0  0  0  # atno 8009 bound_to 7997
  155.2053  140.0395  157.2915 H   0  0  0  0  0  0  0  0  0  0  0  0  # atno 8010 bound_to 7997
  139.5063  144.6264  151.5926 H   0  0  0  0  0  0  0  0  0  0  0  0  # atno 10167 bound_to 10162
  156.4629  130.8222  151.2452 H   0  0  0  0  0  0  0  0  0  0  0  0  # atno 10718 bound_to 10713
  154.3413  135.6156  153.5597 H   0  0  0  0  0  0  0  0  0  0  0  0  # atno 10763 bound_to 10752
  152.9804  135.5770  154.4850 H   0  0  0  0  0  0  0  0  0  0  0  0  # atno 10764 bound_to 10752
  154.4554  135.2854  155.1728 H   0  0  0  0  0  0  0  0  0  0  0  0  # atno 10765 bound_to 10752
  139.9031  134.8143  156.2307 H   0  0  0  0  0  0  0  0  0  0  0  0  # atno 11005 bound_to 11000
  145.1889  139.2312  143.5253 LP  0  0  0  0  0  0  0  0  0  0  0  0  # atno 17320 bound_to 7965
  146.3486  140.1680  142.8590 LP  0  0  0  0  0  0  0  0  0  0  0  0  # atno 17321 bound_to 7965
  140.5982  143.9657  150.6369 LP  0  0  0  0  0  0  0  0  0  0  0  0  # atno 17342 bound_to 10162
  140.2860  143.3357  152.1107 LP  0  0  0  0  0  0  0  0  0  0  0  0  # atno 17343 bound_to 10162
  157.7496  131.0101  150.3294 LP  0  0  0  0  0  0  0  0  0  0  0  0  # atno 17370 bound_to 10713
  156.3698  130.3861  149.7185 LP  0  0  0  0  0  0  0  0  0  0  0  0  # atno 17371 bound_to 10713
  141.0347  133.6969  156.1492 LP  0  0  0  0  0  0  0  0  0  0  0  0  # atno 17394 bound_to 11000
  140.7044  134.4529  157.5585 LP  0  0  0  0  0  0  0  0  0  0  0  0  # atno 17395 bound_to 11000

$$$$
