AV-unprocessed.smi:1047|AV-procd|sdf|4586|dock6
  -GOLD-   22720 3 63D 1   1.00000     0.00000
 Structure written by MMmdl.
 58 60  0  0  0  0  0  0  0  0  4 V2000
  143.7201  136.2147  151.7858 C   0  0  0  0  0  0  0  0  0  0  0  0
  145.1141  136.8267  151.9824 C   0  0  0  0  0  0  0  0  0  0  0  0
  145.0824  138.0358  152.8474 N   0  3  1  0  0  0  0  0  0  0  0  0
  144.2332  137.9103  154.0589 C   0  0  0  0  0  0  0  0  0  0  0  0
  144.9410  137.0992  155.1600 C   0  0  0  0  0  0  0  0  0  0  0  0
  146.2025  137.6888  155.4517 O   0  0  0  0  0  0  0  0  0  0  0  0
  147.0774  137.7009  154.3275 C   0  0  2  0  0  0  0  0  0  0  0  0
  148.4184  138.2975  154.7827 C   0  0  0  0  0  0  0  0  0  0  0  0
  149.3440  138.4796  153.6459 N   0  3  0  0  0  0  0  0  0  0  0  0
  150.6655  139.0194  154.0264 C   0  0  0  0  0  0  0  0  0  0  0  0
  151.1385  138.4483  155.3740 C   0  0  1  0  0  0  0  0  0  0  0  0
  151.7611  137.2000  155.1421 O   0  0  0  0  0  0  0  0  0  0  0  0
  152.1262  139.3946  156.0844 C   0  0  0  0  0  0  0  0  0  0  0  0
  151.5056  140.6601  156.5050 N   0  0  0  0  0  0  0  0  0  0  0  0
  150.6302  141.4603  155.8367 C   0  0  0  0  0  0  0  0  0  0  0  0
  150.3577  142.5294  156.6343 N   0  3  0  0  0  0  0  0  0  0  0  0
  151.0720  142.4142  157.8283 C   0  0  0  0  0  0  0  0  0  0  0  0
  151.1271  143.2487  158.9382 C   0  0  0  0  0  0  0  0  0  0  0  0
  151.9619  142.8486  160.0058 C   0  0  0  0  0  0  0  0  0  0  0  0
  152.0498  143.7423  161.2313 C   0  0  0  0  0  0  0  0  0  0  0  0
  152.7051  141.6416  159.9376 C   0  0  0  0  0  0  0  0  0  0  0  0
  153.6009  141.2206  161.0903 C   0  0  0  0  0  0  0  0  0  0  0  0
  152.6317  140.8041  158.8014 C   0  0  0  0  0  0  0  0  0  0  0  0
  151.8093  141.2159  157.7547 C   0  0  0  0  0  0  0  0  0  0  0  0
  146.4283  138.5463  153.2091 C   0  0  0  0  0  0  0  0  0  0  0  0
  143.7609  135.3898  151.0742 H   0  0  0  0  0  0  0  0  0  0  0  0
  143.0173  136.9513  151.3950 H   0  0  0  0  0  0  0  0  0  0  0  0
  143.3105  135.8183  152.7145 H   0  0  0  0  0  0  0  0  0  0  0  0
  145.8043  136.0815  152.3775 H   0  0  0  0  0  0  0  0  0  0  0  0
  145.4939  137.1028  150.9979 H   0  0  0  0  0  0  0  0  0  0  0  0
  144.0279  138.9143  154.4333 H   0  0  0  0  0  0  0  0  0  0  0  0
  143.2641  137.4737  153.8213 H   0  0  0  0  0  0  0  0  0  0  0  0
  144.3374  137.0991  156.0678 H   0  0  0  0  0  0  0  0  0  0  0  0
  145.0698  136.0558  154.8701 H   0  0  0  0  0  0  0  0  0  0  0  0
  147.2411  136.6808  153.9752 H   0  0  0  0  0  0  0  0  0  0  0  0
  148.2528  139.2683  155.2520 H   0  0  0  0  0  0  0  0  0  0  0  0
  148.8791  137.6530  155.5328 H   0  0  0  0  0  0  0  0  0  0  0  0
  149.4839  137.5843  153.1991 H   0  0  0  0  0  0  0  0  0  0  0  0
  151.3938  138.8061  153.2422 H   0  0  0  0  0  0  0  0  0  0  0  0
  150.5833  140.1049  154.0973 H   0  0  0  0  0  0  0  0  0  0  0  0
  150.2768  138.2864  156.0234 H   0  0  0  0  0  0  0  0  0  0  0  0
  151.2405  136.7160  154.5186 H   0  0  0  0  0  0  0  0  0  0  0  0
  152.5893  138.9123  156.9453 H   0  0  0  0  0  0  0  0  0  0  0  0
  152.9421  139.6521  155.4077 H   0  0  0  0  0  0  0  0  0  0  0  0
  150.2272  141.2834  154.8498 H   0  0  0  0  0  0  0  0  0  0  0  0
  150.5591  144.1666  158.9828 H   0  0  0  0  0  0  0  0  0  0  0  0
  153.0535  144.1569  161.3282 H   0  0  0  0  0  0  0  0  0  0  0  0
  151.8177  143.1810  162.1364 H   0  0  0  0  0  0  0  0  0  0  0  0
  151.3486  144.5752  161.1691 H   0  0  0  0  0  0  0  0  0  0  0  0
  154.1668  140.3207  160.8476 H   0  0  0  0  0  0  0  0  0  0  0  0
  153.0051  141.0120  161.9793 H   0  0  0  0  0  0  0  0  0  0  0  0
  154.3175  142.0070  161.3290 H   0  0  0  0  0  0  0  0  0  0  0  0
  153.1951  139.8841  158.7564 H   0  0  0  0  0  0  0  0  0  0  0  0
  147.0698  138.5866  152.3279 H   0  0  0  0  0  0  0  0  0  0  0  0
  146.3173  139.5766  153.5509 H   0  0  0  0  0  0  0  0  0  0  0  0
  148.9238  139.1111  152.9783 H   0  0  0  0  0  0  0  0  0  0  0  0
  144.6613  138.7536  152.2744 H   0  0  0  0  0  0  0  0  0  0  0  0
  149.7335  143.2838  156.3783 H   0  0  0  0  0  0  0  0  0  0  0  0
  1  2  1  0  0  0  0
  1 26  1  0  0  0  0
  1 27  1  0  0  0  0
  1 28  1  0  0  0  0
  2  3  1  0  0  0  0
  2 29  1  0  0  0  0
  2 30  1  0  0  0  0
  3 25  1  0  0  0  0
  3  4  1  0  0  0  0
  3 57  1  0  0  0  0
  4  5  1  0  0  0  0
  4 31  1  0  0  0  0
  4 32  1  0  0  0  0
  5  6  1  0  0  0  0
  5 33  1  0  0  0  0
  5 34  1  0  0  0  0
  6  7  1  0  0  0  0
  7  8  1  0  0  0  0
  7 25  1  0  0  0  0
  7 35  1  0  0  0  0
  8  9  1  0  0  0  0
  8 36  1  0  0  0  0
  8 37  1  0  0  0  0
  9 10  1  0  0  0  0
  9 38  1  0  0  0  0
  9 56  1  0  0  0  0
 10 11  1  0  0  0  0
 10 39  1  0  0  0  0
 10 40  1  0  0  0  0
 11 12  1  0  0  0  0
 11 13  1  0  0  0  0
 11 41  1  0  0  0  0
 12 42  1  0  0  0  0
 13 14  1  0  0  0  0
 13 43  1  0  0  0  0
 13 44  1  0  0  0  0
 14 24  1  0  0  0  0
 14 15  1  0  0  0  0
 15 16  2  0  0  0  0
 15 45  1  0  0  0  0
 16 17  1  0  0  0  0
 16 58  1  0  0  0  0
 17 24  2  0  0  0  0
 17 18  1  0  0  0  0
 18 19  2  0  0  0  0
 18 46  1  0  0  0  0
 19 20  1  0  0  0  0
 19 21  1  0  0  0  0
 20 47  1  0  0  0  0
 20 48  1  0  0  0  0
 20 49  1  0  0  0  0
 21 22  1  0  0  0  0
 21 23  2  0  0  0  0
 22 50  1  0  0  0  0
 22 51  1  0  0  0  0
 22 52  1  0  0  0  0
 23 24  1  0  0  0  0
 23 53  1  0  0  0  0
 25 54  1  0  0  0  0
 25 55  1  0  0  0  0
M  CHG  1   3   1
M  CHG  1   9   1
M  CHG  1  16   1
M  END
> <s_m_source_file>
AV-unprocessed.smi

> <i_m_source_file_index>
1047

> <i_lp_mmshare_version>
43012

> <i_f3d_flags>
0

> <s_epik_input>
W0NIM11bQ0gyXU4xW0NIMl1bQ0gyXU9bQ0BIXShbQ0gyXTEpW0NIMl1bTkhdW0NIMl1bQ0BIXShbT0hdKVtDSDJdbihbY0hdbjIpYyhjMjMpW2NIXWMoW0NIM10pYyhbY0hdMylbQ0gzXQ==

> <s_epik_cmdline>
J2VwaWtfcHl0aG9uJywgJy1waCcsICc3LjAnLCAnLXRuJywgJzgnLCAnLW1hJywgJzIwMCcsICctbWV0YWxfYmluZGluZycsICctaW1hZScsICc8aW5maWxlLm1hZT4nLCAnLW9tYWUnLCAnPG91dGZpbGUubWFlPic=

> <r_epik_Ionization_Penalty>
1.6114

> <r_epik_Ionization_Penalty_Charging>
1.61139

> <r_epik_Ionization_Penalty_Neutral>
5.04732e-06

> <r_epik_State_Penalty>
1.63724

> <r_epik_Charging_Adjusted_Penalty>
3.24864

> <i_epik_Tot_Q>
3

> <i_epik_Tot_abs_Q>
3

> <r_epik_Metal_State_Penalty>
5.64594

> <b_epik_Metal_Only>
0

> <s_lp_Force_Field>
OPLS_2005

> <r_lp_Energy>
39.9268

> <b_lp_Chiralities_Consistent>
1

> <s_lp_Variant>
AV-unprocessed.smi:1047-27

> <Gold.Version>
5.8.1

> <Gold.Id.Protein>
6NUR|6NUR_protein|mol2

> <Gold.PLP.Fitness>
62.5192

> <Gold.PLP.PLP>
-45.1187

> <Gold.PLP.part.hbond>
-4.8841

> <Gold.PLP.part.metal>
0.0000

> <Gold.PLP.part.buried>
-6.1285

> <Gold.PLP.part.nonpolar>
-34.4367

> <Gold.PLP.part.repulsive>
0.1019

> <Gold.PLP.ligand.clash>
0.0000

> <Gold.PLP.ligand.torsion>
0.7547

> <Gold.PLP.Chemscore.Hbond>
6.2765

> <Gold.PLP.Chemscore.CHOScore>
0.0000

> <Gold.PLP.Chemscore.Metal>
0.0000

> <Gold.Chemscore.Hbonds>
donor molecule, donor type, donor heavy atom, donor atom, acceptor molecule, acceptor atom, score
      L1  H     3    57       P1 10175  1.63
      L1  H     9    38       P1  7948  2.00
      L1  H     9    56       P1  7957  0.48
      L1  H    16    58       P1  8028  2.00
      P1  H 10752 10763       L1    12  0.10

> <Gold.PLP.Chemscore.Internal.Correction>
0.0803

> <Gold.Rescore>
     Score         DG    S(hbond)    S(metal)    S(lipo)     H(rot)  DE(clash)    DE(int)     intcor
     21.68     -22.78       3.15        0.00     118.93       2.78       0.32       0.78       ----

> <Gold.Chemscore.Fitness>
21.6815

> <Gold.Chemscore.DG>
-22.7803

> <Gold.Chemscore.ZeroCoef>
-5.4800

> <Gold.Chemscore.Hbond>
3.1481

> <Gold.Chemscore.Metal>
0.0000

> <Gold.Chemscore.Lipo>
118.9308

> <Gold.Chemscore.Internal_Hbond>
0.0000

> <Gold.Chemscore.DEClash>
0.3177

> <Gold.Chemscore.DEInternal>
0.7812

> <Gold.Chemscore.Rot>
2.7848

> <Gold.Chemscore.Internal.Correction>
   9.000000E+99

> <Gold.Chemscore.Hbonds>
donor molecule, donor type, donor heavy atom, donor atom, acceptor molecule, acceptor atom, score
      L1  H     3    57       P1 10175  0.80
      L1  H     9    38       P1  7948  0.86
      L1  H     9    56       P1  7957  0.48
      L1  H    16    58       P1  8028  1.00

> <Gold.Chemscore.Hbond.Weighted>
-10.5145

> <Gold.Chemscore.Metal.Weighted>
-0.0000

> <Gold.Chemscore.Lipo.Weighted>
-13.9149

> <Gold.Chemscore.Internal_Hbond.Weighted>
0.0000

> <Gold.Chemscore.DEClash.Weighted>
0.3177

> <Gold.Chemscore.DEInternal.Weighted>
0.7812

> <Gold.Chemscore.Rot.Weighted>
7.1291

> <Gold.Chemscore.Internal.Correction.Weighted>
   9.000000E+99

> <Gold.Protein.RotatedTorsions>
[ 6907 6896 6895 6894 ] final  148.75 input  -60.11 | X-H torsion
[ 7974 7965 7964 7962 ] final -108.90 input  175.53 | X-H torsion
[ 8008 7997 7996 7995 ] final -149.07 input   59.86 | X-H torsion
[ 10167 10162 10161 10158 ] final   26.56 input  -65.29 | X-H torsion
[ 10718 10713 10712 10709 ] final   25.07 input   66.30 | X-H torsion
[ 10763 10752 10751 10750 ] final   86.34 input  -60.55 | X-H torsion
[ 11005 11000 10999 10996 ] final   37.41 input  -57.11 | X-H torsion

> <Gold.Protein.ActiveResidues>
 VAL166  LYS551  ARG553  GLY616  TRP617  ASP618  TYR619  PRO620  LYS621  CYS622 
 ASP623  PHE694  ASN695  SER759  ASP760  ASP761  ALA762  ILE779  LEU786  VAL792 
 PHE793  MET794  SER795  GLU796  ALA797  LYS798  CYS799  TRP800  GLU811  SER814 

> <Gold.Protein.RotatedAtoms>
  152.1373  133.4443  159.4749 H   0  0  0  0  0  0  0  0  0  0  0  0  # atno 6907 bound_to 6896
  150.6883  134.2348  159.4458 H   0  0  0  0  0  0  0  0  0  0  0  0  # atno 6908 bound_to 6896
  152.0236  134.9808  160.0622 H   0  0  0  0  0  0  0  0  0  0  0  0  # atno 6909 bound_to 6896
  145.1872  140.8998  143.3445 H   0  0  0  0  0  0  0  0  0  0  0  0  # atno 7974 bound_to 7965
  155.6017  140.0662  157.2731 H   0  0  0  0  0  0  0  0  0  0  0  0  # atno 8008 bound_to 7997
  154.4277  140.1817  156.1227 H   0  0  0  0  0  0  0  0  0  0  0  0  # atno 8009 bound_to 7997
  156.0154  140.3322  155.6987 H   0  0  0  0  0  0  0  0  0  0  0  0  # atno 8010 bound_to 7997
  140.5012  144.0311  150.6334 H   0  0  0  0  0  0  0  0  0  0  0  0  # atno 10167 bound_to 10162
  157.1884  130.6834  149.6140 H   0  0  0  0  0  0  0  0  0  0  0  0  # atno 10718 bound_to 10713
  153.1561  135.4584  154.9706 H   0  0  0  0  0  0  0  0  0  0  0  0  # atno 10763 bound_to 10752
  154.7862  135.3205  154.7882 H   0  0  0  0  0  0  0  0  0  0  0  0  # atno 10764 bound_to 10752
  153.8379  135.6932  153.4861 H   0  0  0  0  0  0  0  0  0  0  0  0  # atno 10765 bound_to 10752
  140.2229  134.3620  155.7997 H   0  0  0  0  0  0  0  0  0  0  0  0  # atno 11005 bound_to 11000
  145.0077  139.3539  143.6136 LP  0  0  0  0  0  0  0  0  0  0  0  0  # atno 17320 bound_to 7965
  146.3443  139.9326  142.8751 LP  0  0  0  0  0  0  0  0  0  0  0  0  # atno 17321 bound_to 7965
  140.3608  143.2909  152.0386 LP  0  0  0  0  0  0  0  0  0  0  0  0  # atno 17342 bound_to 10162
  139.4872  144.6304  151.7081 LP  0  0  0  0  0  0  0  0  0  0  0  0  # atno 17343 bound_to 10162
  155.9715  130.4623  150.6140 LP  0  0  0  0  0  0  0  0  0  0  0  0  # atno 17370 bound_to 10713
  157.3885  131.0792  151.1415 LP  0  0  0  0  0  0  0  0  0  0  0  0  # atno 17371 bound_to 10713
  141.2222  133.7203  156.8605 LP  0  0  0  0  0  0  0  0  0  0  0  0  # atno 17394 bound_to 11000
  140.1831  134.9019  157.2972 LP  0  0  0  0  0  0  0  0  0  0  0  0  # atno 17395 bound_to 11000

$$$$
