AV-unprocessed.smi:287|AV-procd|sdf|2182|dock4
  -GOLD-   2262021553D 1   1.00000     0.00000
 Structure written by MMmdl.
 55 58  0  0  0  0  0  0  0  0  1 V2000
  137.2778  141.7529  153.2815 C   0  0  0  0  0  0  0  0  0  0  0  0
  138.0666  140.5338  153.6168 C   0  0  0  0  0  0  0  0  0  0  0  0
  139.3944  140.2236  153.5666 C   0  0  0  0  0  0  0  0  0  0  0  0
  139.5370  138.8825  154.0326 C   0  0  0  0  0  0  0  0  0  0  0  0
  140.8450  138.1114  154.1526 C   0  0  2  0  0  0  0  0  0  0  0  0
  141.5033  137.9834  152.7688 C   0  0  0  0  0  0  0  0  0  0  0  0
  140.6605  136.7834  154.6035 O   0  0  0  0  0  0  0  0  0  0  0  0
  141.8294  138.7656  155.1491 C   0  0  0  0  0  0  0  0  0  0  0  0
  142.9359  137.8907  155.5151 N   0  0  0  0  0  0  0  0  0  0  0  0
  143.8322  137.4823  154.5923 C   0  0  0  0  0  0  0  0  0  0  0  0
  144.8323  138.3559  154.3251 N   0  0  0  0  0  0  0  0  0  0  0  0
  145.7685  138.0506  153.4222 C   0  0  0  0  0  0  0  0  0  0  0  0
  145.8898  136.9433  152.6877 N   0  0  0  0  0  0  0  0  0  0  0  0
  144.8884  136.0559  152.9548 C   0  0  0  0  0  0  0  0  0  0  0  0
  143.8258  136.2431  153.8845 C   0  0  0  0  0  0  0  0  0  0  0  0
  143.0064  135.1191  153.8704 N   0  0  0  0  0  0  0  0  0  0  0  0
  143.5507  134.3281  152.9859 C   0  0  0  0  0  0  0  0  0  0  0  0
  144.6976  134.8119  152.3943 N   0  0  0  0  0  0  0  0  0  0  0  0
  145.5644  134.1898  151.3424 C   0  0  2  0  0  0  0  0  0  0  0  0
  144.8544  134.1812  150.1403 O   0  0  0  0  0  0  0  0  0  0  0  0
  144.2203  132.9173  149.9730 C   0  0  1  0  0  0  0  0  0  0  0  0
  143.7792  132.6993  148.5152 C   0  0  0  0  0  0  0  0  0  0  0  0
  143.5425  133.9432  147.8907 O   0  0  0  0  0  0  0  0  0  0  0  0
  145.2972  131.9585  150.4940 C   0  0  1  0  0  0  0  0  0  0  0  0
  146.2772  131.7226  149.4954 O   0  0  0  0  0  0  0  0  0  0  0  0
  145.8533  132.7182  151.6985 C   0  0  1  0  0  0  0  0  0  0  0  0
  147.2252  132.4549  151.9275 O   0  0  0  0  0  0  0  0  0  0  0  0
  138.2564  138.4733  154.3189 C   0  0  0  0  0  0  0  0  0  0  0  0
  137.6615  137.2009  154.8250 C   0  0  0  0  0  0  0  0  0  0  0  0
  137.3606  139.4698  154.0739 O   0  0  0  0  0  0  0  0  0  0  0  0
  146.4430  134.8340  151.2848 H   0  0  0  0  0  0  0  0  0  0  0  0
  143.3563  132.8545  150.6376 H   0  0  0  0  0  0  0  0  0  0  0  0
  144.8745  130.9972  150.7876 H   0  0  0  0  0  0  0  0  0  0  0  0
  145.2882  132.4416  152.5902 H   0  0  0  0  0  0  0  0  0  0  0  0
  137.9344  142.6031  153.0965 H   0  0  0  0  0  0  0  0  0  0  0  0
  136.6062  142.0170  154.0988 H   0  0  0  0  0  0  0  0  0  0  0  0
  136.6760  141.5894  152.3875 H   0  0  0  0  0  0  0  0  0  0  0  0
  140.1801  140.8873  153.2377 H   0  0  0  0  0  0  0  0  0  0  0  0
  141.7250  138.9633  152.3443 H   0  0  0  0  0  0  0  0  0  0  0  0
  140.8518  137.4619  152.0664 H   0  0  0  0  0  0  0  0  0  0  0  0
  142.4423  137.4310  152.8216 H   0  0  0  0  0  0  0  0  0  0  0  0
  141.4955  136.4445  154.8877 H   0  0  0  0  0  0  0  0  0  0  0  0
  142.2049  139.7109  154.7550 H   0  0  0  0  0  0  0  0  0  0  0  0
  141.2883  138.9974  156.0676 H   0  0  0  0  0  0  0  0  0  0  0  0
  143.0220  137.6849  156.5002 H   0  0  0  0  0  0  0  0  0  0  0  0
  146.5288  138.8015  153.2658 H   0  0  0  0  0  0  0  0  0  0  0  0
  143.1218  133.3662  152.7447 H   0  0  0  0  0  0  0  0  0  0  0  0
  144.5210  132.1304  147.9539 H   0  0  0  0  0  0  0  0  0  0  0  0
  142.8456  132.1365  148.4857 H   0  0  0  0  0  0  0  0  0  0  0  0
  144.3529  134.2468  147.5108 H   0  0  0  0  0  0  0  0  0  0  0  0
  147.0574  131.3960  149.9178 H   0  0  0  0  0  0  0  0  0  0  0  0
  147.5005  131.7734  151.3327 H   0  0  0  0  0  0  0  0  0  0  0  0
  137.9830  136.3552  154.2172 H   0  0  0  0  0  0  0  0  0  0  0  0
  136.5719  137.2359  154.7983 H   0  0  0  0  0  0  0  0  0  0  0  0
  137.9664  137.0153  155.8549 H   0  0  0  0  0  0  0  0  0  0  0  0
  1  2  1  0  0  0  0
  1 35  1  0  0  0  0
  1 36  1  0  0  0  0
  1 37  1  0  0  0  0
  2 30  1  0  0  0  0
  2  3  2  0  0  0  0
  3  4  1  0  0  0  0
  3 38  1  0  0  0  0
  4  5  1  0  0  0  0
  4 28  2  0  0  0  0
  5  6  1  0  0  0  0
  5  7  1  0  0  0  0
  5  8  1  0  0  0  0
  6 39  1  0  0  0  0
  6 40  1  0  0  0  0
  6 41  1  0  0  0  0
  7 42  1  0  0  0  0
  8  9  1  0  0  0  0
  8 43  1  0  0  0  0
  8 44  1  0  0  0  0
  9 10  1  0  0  0  0
  9 45  1  0  0  0  0
 10 15  1  0  0  0  0
 10 11  2  0  0  0  0
 11 12  1  0  0  0  0
 12 13  2  0  0  0  0
 12 46  1  0  0  0  0
 13 14  1  0  0  0  0
 14 18  1  0  0  0  0
 14 15  2  0  0  0  0
 15 16  1  0  0  0  0
 16 17  2  0  0  0  0
 17 18  1  0  0  0  0
 17 47  1  0  0  0  0
 18 19  1  0  0  0  0
 19 31  1  0  0  0  0
 19 26  1  0  0  0  0
 19 20  1  0  0  0  0
 20 21  1  0  0  0  0
 21 32  1  0  0  0  0
 21 22  1  0  0  0  0
 21 24  1  0  0  0  0
 22 23  1  0  0  0  0
 22 48  1  0  0  0  0
 22 49  1  0  0  0  0
 23 50  1  0  0  0  0
 24 33  1  0  0  0  0
 24 25  1  0  0  0  0
 24 26  1  0  0  0  0
 25 51  1  0  0  0  0
 26 34  1  0  0  0  0
 26 27  1  0  0  0  0
 27 52  1  0  0  0  0
 28 29  1  0  0  0  0
 28 30  1  0  0  0  0
 29 53  1  0  0  0  0
 29 54  1  0  0  0  0
 29 55  1  0  0  0  0
M  END
> <s_m_source_file>
AV-unprocessed.smi

> <i_m_source_file_index>
287

> <i_lp_mmshare_version>
43012

> <i_f3d_flags>
0

> <s_epik_input>
W0NIM11jMVtjSF1jKGMobzEpW0NIM10pW0NAQF0oW0NIM10pKFtPSF0pW0NIMl1bTkhdYyhuW2NIXW4yKWMoYzIzKW5bY0hdbjNbQ0BASF00T1tDQEhdKFtDSDJdW09IXSlbQ0BASF0oW09IXSlbQ0BIXTRbT0hd

> <s_epik_cmdline>
J2VwaWtfcHl0aG9uJywgJy1waCcsICc3LjAnLCAnLXRuJywgJzgnLCAnLW1hJywgJzIwMCcsICctbWV0YWxfYmluZGluZycsICctaW1hZScsICc8aW5maWxlLm1hZT4nLCAnLW9tYWUnLCAnPG91dGZpbGUubWFlPic=

> <r_lp_tautomer_probability>
1

> <r_epik_Ionization_Penalty>
0.000992612

> <r_epik_Ionization_Penalty_Charging>
0

> <r_epik_Ionization_Penalty_Neutral>
0.000992612

> <r_epik_State_Penalty>
-0

> <r_epik_Charging_Adjusted_Penalty>
0

> <i_epik_Tot_Q>
0

> <i_epik_Tot_abs_Q>
0

> <r_epik_Metal_State_Penalty>
-0

> <b_epik_Metal_Only>
0

> <s_epik_Chemistry_Notes>
This compound contains an acetal/aminal-like group ( X-CH(R)-Y where X, Y are N, S, or O) that may be acid/base labile, releasing an aldehyde.

> <s_lp_Force_Field>
OPLS_2005

> <r_lp_Energy>
45.3255

> <b_lp_Chiralities_Consistent>
1

> <s_lp_Variant>
AV-unprocessed.smi:287-6

> <Gold.Version>
5.8.1

> <Gold.Id.Protein>
6NUR|6NUR_protein|mol2

> <Gold.PLP.Fitness>
52.8528

> <Gold.PLP.PLP>
-42.1314

> <Gold.PLP.part.hbond>
-6.6097

> <Gold.PLP.part.metal>
0.0000

> <Gold.PLP.part.buried>
-10.2006

> <Gold.PLP.part.nonpolar>
-28.9316

> <Gold.PLP.part.repulsive>
2.6005

> <Gold.PLP.ligand.clash>
0.0000

> <Gold.PLP.ligand.torsion>
1.6549

> <Gold.PLP.Chemscore.Hbond>
4.0000

> <Gold.PLP.Chemscore.CHOScore>
0.6583

> <Gold.PLP.Chemscore.Metal>
0.0000

> <Gold.Chemscore.Hbonds>
donor molecule, donor type, donor heavy atom, donor atom, acceptor molecule, acceptor atom, score
      L1  H    23    50       P1  7921  1.00
      L1  H    25    51       P1 10747  1.00
      L1  H    27    52       P1 10747  0.98
      P1  H 10192 10197       L1    23  0.86
      L1  C    17    47       P1 10957  0.57

> <Gold.PLP.Chemscore.Internal.Correction>
0.0564

> <Gold.Rescore>
     Score         DG    S(hbond)    S(metal)    S(lipo)     H(rot)  DE(clash)    DE(int)     intcor
      9.18     -15.15       3.72        0.00      91.73       5.27       1.05       4.92       ----

> <Gold.Chemscore.Fitness>
9.1806

> <Gold.Chemscore.DG>
-15.1487

> <Gold.Chemscore.ZeroCoef>
-5.4800

> <Gold.Chemscore.Hbond>
3.7188

> <Gold.Chemscore.Metal>
0.0000

> <Gold.Chemscore.Lipo>
91.7258

> <Gold.Chemscore.Internal_Hbond>
0.0000

> <Gold.Chemscore.DEClash>
1.0454

> <Gold.Chemscore.DEInternal>
4.9227

> <Gold.Chemscore.Rot>
5.2672

> <Gold.Chemscore.Internal.Correction>
   9.000000E+99

> <Gold.Chemscore.Hbonds>
donor molecule, donor type, donor heavy atom, donor atom, acceptor molecule, acceptor atom, score
      L1  H    23    50       P1  7921  0.98
      L1  H    25    51       P1 10747  0.95
      L1  H    27    52       P1 10747  0.86
      P1  H 10192 10197       L1    23  0.51

> <Gold.Chemscore.Hbond.Weighted>
-12.4207

> <Gold.Chemscore.Metal.Weighted>
-0.0000

> <Gold.Chemscore.Lipo.Weighted>
-10.7319

> <Gold.Chemscore.Internal_Hbond.Weighted>
0.0000

> <Gold.Chemscore.DEClash.Weighted>
1.0454

> <Gold.Chemscore.DEInternal.Weighted>
4.9227

> <Gold.Chemscore.Rot.Weighted>
13.4839

> <Gold.Chemscore.Internal.Correction.Weighted>
   9.000000E+99

> <Gold.Protein.RotatedTorsions>
[ 6907 6896 6895 6894 ] final  109.87 input  -60.11 | X-H torsion
[ 7974 7965 7964 7962 ] final  -99.85 input  175.53 | X-H torsion
[ 8008 7997 7996 7995 ] final  141.51 input   59.86 | X-H torsion
[ 10167 10162 10161 10158 ] final   79.25 input  -65.29 | X-H torsion
[ 10718 10713 10712 10709 ] final -178.20 input   66.30 | X-H torsion
[ 10763 10752 10751 10750 ] final   -0.11 input  -60.55 | X-H torsion
[ 11005 11000 10999 10996 ] final  140.38 input  -57.11 | X-H torsion

> <Gold.Protein.ActiveResidues>
 VAL166  LYS551  ARG553  GLY616  TRP617  ASP618  TYR619  PRO620  LYS621  CYS622 
 ASP623  PHE694  ASN695  SER759  ASP760  ASP761  ALA762  ILE779  LEU786  VAL792 
 PHE793  MET794  SER795  GLU796  ALA797  LYS798  CYS799  TRP800  GLU811  SER814 

> <Gold.Protein.RotatedAtoms>
  152.5047  133.8882  159.7380 H   0  0  0  0  0  0  0  0  0  0  0  0  # atno 6907 bound_to 6896
  150.9327  133.6739  159.2814 H   0  0  0  0  0  0  0  0  0  0  0  0  # atno 6908 bound_to 6896
  151.4078  135.0985  159.9628 H   0  0  0  0  0  0  0  0  0  0  0  0  # atno 6909 bound_to 6896
  145.3022  140.9380  143.2817 H   0  0  0  0  0  0  0  0  0  0  0  0  # atno 7974 bound_to 7965
  156.2964  140.2313  156.4576 H   0  0  0  0  0  0  0  0  0  0  0  0  # atno 8008 bound_to 7997
  154.8046  140.0446  157.1319 H   0  0  0  0  0  0  0  0  0  0  0  0  # atno 8009 bound_to 7997
  154.9493  140.3040  155.5086 H   0  0  0  0  0  0  0  0  0  0  0  0  # atno 8010 bound_to 7997
  139.9623  144.5952  150.8061 H   0  0  0  0  0  0  0  0  0  0  0  0  # atno 10167 bound_to 10162
  156.8407  130.9685  151.3100 H   0  0  0  0  0  0  0  0  0  0  0  0  # atno 10718 bound_to 10713
  153.3277  135.6973  153.6974 H   0  0  0  0  0  0  0  0  0  0  0  0  # atno 10763 bound_to 10752
  153.5789  135.3502  155.2868 H   0  0  0  0  0  0  0  0  0  0  0  0  # atno 10764 bound_to 10752
  154.8611  135.4290  154.2458 H   0  0  0  0  0  0  0  0  0  0  0  0  # atno 10765 bound_to 10752
  140.0323  134.9345  157.0687 H   0  0  0  0  0  0  0  0  0  0  0  0  # atno 11005 bound_to 11000
  144.9084  139.4559  143.6598 LP  0  0  0  0  0  0  0  0  0  0  0  0  # atno 17320 bound_to 7965
  146.3148  139.7879  142.8992 LP  0  0  0  0  0  0  0  0  0  0  0  0  # atno 17321 bound_to 7965
  140.7549  143.3036  151.3018 LP  0  0  0  0  0  0  0  0  0  0  0  0  # atno 17342 bound_to 10162
  139.6544  144.0302  152.2649 LP  0  0  0  0  0  0  0  0  0  0  0  0  # atno 17343 bound_to 10162
  157.6357  130.8764  149.9354 LP  0  0  0  0  0  0  0  0  0  0  0  0  # atno 17370 bound_to 10713
  156.0882  130.3666  150.0446 LP  0  0  0  0  0  0  0  0  0  0  0  0  # atno 17371 bound_to 10713
  140.4204  134.1886  155.7164 LP  0  0  0  0  0  0  0  0  0  0  0  0  # atno 17394 bound_to 11000
  141.1838  133.8357  157.1162 LP  0  0  0  0  0  0  0  0  0  0  0  0  # atno 17395 bound_to 11000

$$$$
