AV-unprocessed.smi:2703|AV-procd|sdf|10439|dock2
  -GOLD-   2272014483D 1   1.00000     0.00000
 Structure written by MMmdl.
 42 44  0  0  0  0  0  0  0  0  3 V2000
  154.8165  140.0121  162.7872 C   0  0  0  0  0  0  0  0  0  0  0  0
  154.0969  140.9681  161.8523 C   0  0  0  0  0  0  0  0  0  0  0  0
  153.5470  142.1590  162.3776 C   0  0  0  0  0  0  0  0  0  0  0  0
  152.8680  143.0734  161.5429 C   0  0  0  0  0  0  0  0  0  0  0  0
  152.2585  144.2797  161.8422 N   0  0  0  0  0  0  0  0  0  0  0  0
  151.8035  144.6521  160.6497 C   0  0  0  0  0  0  0  0  0  0  0  0
  152.0486  143.8308  159.6108 N   0  0  0  0  0  0  0  0  0  0  0  0
  151.6461  144.0312  158.2297 C   0  0  0  0  0  0  0  0  0  0  0  0
  150.5665  143.0299  157.7780 C   0  0  1  0  0  0  0  0  0  0  0  0
  149.2874  143.5194  158.1326 O   0  0  0  0  0  0  0  0  0  0  0  0
  150.6118  142.7814  156.2617 C   0  0  0  0  0  0  0  0  0  0  0  0
  150.4978  141.0140  155.8553 S   0  0  0  0  0  0  0  0  0  0  0  0
  149.0297  140.7643  154.8858 C   0  0  0  0  0  0  0  0  0  0  0  0
  148.2040  141.8378  154.4840 C   0  0  0  0  0  0  0  0  0  0  0  0
  147.0565  141.5842  153.7168 C   0  0  0  0  0  0  0  0  0  0  0  0
  146.7552  140.2600  153.3663 C   0  0  0  0  0  0  0  0  0  0  0  0
  147.6056  139.2210  153.7900 C   0  0  0  0  0  0  0  0  0  0  0  0
  148.7245  139.4688  154.5379 N   0  3  0  0  0  0  0  0  0  0  0  0
  149.4708  138.4838  154.8997 O   0  5  0  0  0  0  0  0  0  0  0  0
  152.7543  142.7628  160.1558 C   0  0  0  0  0  0  0  0  0  0  0  0
  153.2995  141.5818  159.6212 C   0  0  0  0  0  0  0  0  0  0  0  0
  153.9731  140.6781  160.4697 C   0  0  0  0  0  0  0  0  0  0  0  0
  154.5540  139.4033  159.8834 C   0  0  0  0  0  0  0  0  0  0  0  0
  154.8055  140.3756  163.8150 H   0  0  0  0  0  0  0  0  0  0  0  0
  155.8575  139.8950  162.4853 H   0  0  0  0  0  0  0  0  0  0  0  0
  154.3386  139.0323  162.7740 H   0  0  0  0  0  0  0  0  0  0  0  0
  153.6409  142.3807  163.4306 H   0  0  0  0  0  0  0  0  0  0  0  0
  151.2608  145.5774  160.5219 H   0  0  0  0  0  0  0  0  0  0  0  0
  151.2916  145.0556  158.1092 H   0  0  0  0  0  0  0  0  0  0  0  0
  152.5336  143.9341  157.6031 H   0  0  0  0  0  0  0  0  0  0  0  0
  150.7219  142.0831  158.2971 H   0  0  0  0  0  0  0  0  0  0  0  0
  149.3889  144.1295  158.8477 H   0  0  0  0  0  0  0  0  0  0  0  0
  149.8049  143.3204  155.7639 H   0  0  0  0  0  0  0  0  0  0  0  0
  151.5513  143.1591  155.8570 H   0  0  0  0  0  0  0  0  0  0  0  0
  148.4358  142.8553  154.7569 H   0  0  0  0  0  0  0  0  0  0  0  0
  146.4157  142.3949  153.4018 H   0  0  0  0  0  0  0  0  0  0  0  0
  145.8777  140.0387  152.7769 H   0  0  0  0  0  0  0  0  0  0  0  0
  147.4378  138.1788  153.5595 H   0  0  0  0  0  0  0  0  0  0  0  0
  153.2006  141.3733  158.5664 H   0  0  0  0  0  0  0  0  0  0  0  0
  154.3993  139.3542  158.8051 H   0  0  0  0  0  0  0  0  0  0  0  0
  154.0803  138.5289  160.3300 H   0  0  0  0  0  0  0  0  0  0  0  0
  155.6268  139.3493  160.0691 H   0  0  0  0  0  0  0  0  0  0  0  0
  1  2  1  0  0  0  0
  1 24  1  0  0  0  0
  1 25  1  0  0  0  0
  1 26  1  0  0  0  0
  2 22  1  0  0  0  0
  2  3  2  0  0  0  0
  3  4  1  0  0  0  0
  3 27  1  0  0  0  0
  4 20  2  0  0  0  0
  4  5  1  0  0  0  0
  5  6  2  0  0  0  0
  6  7  1  0  0  0  0
  6 28  1  0  0  0  0
  7  8  1  0  0  0  0
  7 20  1  0  0  0  0
  8  9  1  0  0  0  0
  8 29  1  0  0  0  0
  8 30  1  0  0  0  0
  9 10  1  0  0  0  0
  9 11  1  0  0  0  0
  9 31  1  0  0  0  0
 10 32  1  0  0  0  0
 11 12  1  0  0  0  0
 11 33  1  0  0  0  0
 11 34  1  0  0  0  0
 12 13  1  0  0  0  0
 13 18  1  0  0  0  0
 13 14  2  0  0  0  0
 14 15  1  0  0  0  0
 14 35  1  0  0  0  0
 15 16  2  0  0  0  0
 15 36  1  0  0  0  0
 16 17  1  0  0  0  0
 16 37  1  0  0  0  0
 17 18  2  0  0  0  0
 17 38  1  0  0  0  0
 18 19  1  0  0  0  0
 20 21  1  0  0  0  0
 21 22  2  0  0  0  0
 21 39  1  0  0  0  0
 22 23  1  0  0  0  0
 23 40  1  0  0  0  0
 23 41  1  0  0  0  0
 23 42  1  0  0  0  0
M  CHG  1  18   1
M  CHG  1  19  -1
M  END
> <s_m_source_file>
AV-unprocessed.smi

> <i_m_source_file_index>
2703

> <i_lp_mmshare_version>
43012

> <i_f3d_flags>
0

> <s_epik_input>
W0NIM11jKFtjSF0xKWMoW0NIM10pW2NIXWMoYzEyKW4oW2NIXW4yKVtDSDJdW0NASF0oW09IXSlbQ0gyXVNjM1tjSF1bY0hdW2NIXVtjSF1bbitdM1tPLV0=

> <s_epik_cmdline>
J2VwaWtfcHl0aG9uJywgJy1waCcsICc3LjAnLCAnLXRuJywgJzgnLCAnLW1hJywgJzIwMCcsICctbWV0YWxfYmluZGluZycsICctaW1hZScsICc8aW5maWxlLm1hZT4nLCAnLW9tYWUnLCAnPG91dGZpbGUubWFlPic=

> <r_epik_Ionization_Penalty>
0.106001

> <r_epik_Ionization_Penalty_Charging>
1.39204e-07

> <r_epik_Ionization_Penalty_Neutral>
0.106001

> <r_epik_State_Penalty>
0.0958598

> <r_epik_Charging_Adjusted_Penalty>
0.0958599

> <i_epik_Tot_Q>
0

> <i_epik_Tot_abs_Q>
2

> <r_epik_Metal_State_Penalty>
0.000104041

> <b_epik_Metal_Only>
0

> <s_lp_Force_Field>
OPLS_2005

> <r_lp_Energy>
17.7295

> <b_lp_Chiralities_Consistent>
1

> <s_lp_Variant>
AV-unprocessed.smi:2703-2

> <Gold.Version>
5.8.1

> <Gold.Id.Protein>
6NUR|6NUR_protein|mol2

> <Gold.PLP.Fitness>
53.4293

> <Gold.PLP.PLP>
-56.0569

> <Gold.PLP.part.hbond>
-1.8741

> <Gold.PLP.part.metal>
0.0000

> <Gold.PLP.part.buried>
-0.2010

> <Gold.PLP.part.nonpolar>
-53.2956

> <Gold.PLP.part.repulsive>
0.4281

> <Gold.PLP.ligand.clash>
0.0000

> <Gold.PLP.ligand.torsion>
1.3974

> <Gold.PLP.Chemscore.Hbond>
0.0000

> <Gold.PLP.Chemscore.CHOScore>
0.0000

> <Gold.PLP.Chemscore.Metal>
0.0000

> <Gold.PLP.Chemscore.Internal.Correction>
0.1672

> <Gold.Rescore>
     Score         DG    S(hbond)    S(metal)    S(lipo)     H(rot)  DE(clash)    DE(int)     intcor
     14.38     -17.68       0.00        0.00     153.59       2.26       1.95       1.35       ----

> <Gold.Chemscore.Fitness>
14.3764

> <Gold.Chemscore.DG>
-17.6756

> <Gold.Chemscore.ZeroCoef>
-5.4800

> <Gold.Chemscore.Hbond>
0.0000

> <Gold.Chemscore.Metal>
0.0000

> <Gold.Chemscore.Lipo>
153.5929

> <Gold.Chemscore.Internal_Hbond>
0.0000

> <Gold.Chemscore.DEClash>
1.9456

> <Gold.Chemscore.DEInternal>
1.3536

> <Gold.Chemscore.Rot>
2.2558

> <Gold.Chemscore.Internal.Correction>
   9.000000E+99

> <Gold.Chemscore.Hbond.Weighted>
-0.0000

> <Gold.Chemscore.Metal.Weighted>
-0.0000

> <Gold.Chemscore.Lipo.Weighted>
-17.9704

> <Gold.Chemscore.Internal_Hbond.Weighted>
0.0000

> <Gold.Chemscore.DEClash.Weighted>
1.9456

> <Gold.Chemscore.DEInternal.Weighted>
1.3536

> <Gold.Chemscore.Rot.Weighted>
5.7748

> <Gold.Chemscore.Internal.Correction.Weighted>
   9.000000E+99

> <Gold.Protein.RotatedTorsions>
[ 6907 6896 6895 6894 ] final -178.50 input  -60.11 | X-H torsion
[ 7974 7965 7964 7962 ] final  162.46 input  175.53 | X-H torsion
[ 8008 7997 7996 7995 ] final -112.30 input   59.86 | X-H torsion
[ 10167 10162 10161 10158 ] final   61.56 input  -65.29 | X-H torsion
[ 10718 10713 10712 10709 ] final -129.28 input   66.30 | X-H torsion
[ 10763 10752 10751 10750 ] final   37.59 input  -60.55 | X-H torsion
[ 11005 11000 10999 10996 ] final  -90.50 input  -57.11 | X-H torsion

> <Gold.Protein.ActiveResidues>
 VAL166  LYS551  ARG553  GLY616  TRP617  ASP618  TYR619  PRO620  LYS621  CYS622 
 ASP623  PHE694  ASN695  SER759  ASP760  ASP761  ALA762  ILE779  LEU786  VAL792 
 PHE793  MET794  SER795  GLU796  ALA797  LYS798  CYS799  TRP800  GLU811  SER814 

> <Gold.Protein.RotatedAtoms>
  151.6382  133.3327  159.3123 H   0  0  0  0  0  0  0  0  0  0  0  0  # atno 6907 bound_to 6896
  150.8021  134.7126  159.6622 H   0  0  0  0  0  0  0  0  0  0  0  0  # atno 6908 bound_to 6896
  152.4114  134.6121  160.0080 H   0  0  0  0  0  0  0  0  0  0  0  0  # atno 6909 bound_to 6896
  144.7636  139.8043  143.6323 H   0  0  0  0  0  0  0  0  0  0  0  0  # atno 7974 bound_to 7965
  155.0032  140.0394  157.2368 H   0  0  0  0  0  0  0  0  0  0  0  0  # atno 8008 bound_to 7997
  154.7526  140.2769  155.6257 H   0  0  0  0  0  0  0  0  0  0  0  0  # atno 8009 bound_to 7997
  156.2888  140.2644  156.2283 H   0  0  0  0  0  0  0  0  0  0  0  0  # atno 8010 bound_to 7997
  140.1535  144.4440  150.6747 H   0  0  0  0  0  0  0  0  0  0  0  0  # atno 10167 bound_to 10162
  156.2031  130.6870  151.0563 H   0  0  0  0  0  0  0  0  0  0  0  0  # atno 10718 bound_to 10713
  153.0032  135.6273  154.2169 H   0  0  0  0  0  0  0  0  0  0  0  0  # atno 10763 bound_to 10752
  154.1912  135.2808  155.3023 H   0  0  0  0  0  0  0  0  0  0  0  0  # atno 10764 bound_to 10752
  154.5758  135.5662  153.7197 H   0  0  0  0  0  0  0  0  0  0  0  0  # atno 10765 bound_to 10752
  141.1564  133.7696  156.9746 H   0  0  0  0  0  0  0  0  0  0  0  0  # atno 11005 bound_to 11000
  146.1722  139.4877  142.9920 LP  0  0  0  0  0  0  0  0  0  0  0  0  # atno 17320 bound_to 7965
  145.6542  141.0256  143.1744 LP  0  0  0  0  0  0  0  0  0  0  0  0  # atno 17321 bound_to 7965
  140.6688  143.2278  151.5677 LP  0  0  0  0  0  0  0  0  0  0  0  0  # atno 17342 bound_to 10162
  139.5415  144.2636  152.1359 LP  0  0  0  0  0  0  0  0  0  0  0  0  # atno 17343 bound_to 10162
  157.6997  131.0780  150.6859 LP  0  0  0  0  0  0  0  0  0  0  0  0  # atno 17370 bound_to 10713
  156.6916  130.4597  149.5598 LP  0  0  0  0  0  0  0  0  0  0  0  0  # atno 17371 bound_to 10713
  140.1106  134.9479  157.2060 LP  0  0  0  0  0  0  0  0  0  0  0  0  # atno 17394 bound_to 11000
  140.3198  134.2929  155.7248 LP  0  0  0  0  0  0  0  0  0  0  0  0  # atno 17395 bound_to 11000

$$$$
