AV-unprocessed.smi:2060|AV-procd|sdf|8357|dock10
  -GOLD-   2272011 23D 1   1.00000     0.00000
 Structure written by MMmdl.
 46 47  0  0  0  0  0  0  0  0  2 V2000
  147.0922  131.4184  155.3170 C   0  0  0  0  0  0  0  0  0  0  0  0
  146.5217  132.5863  154.4922 C   0  0  0  0  0  0  0  0  0  0  0  0
  147.5709  133.4404  153.7156 C   0  0  2  0  0  0  0  0  0  0  0  0
  148.3111  132.4865  152.7412 C   0  0  0  0  0  0  0  0  0  0  0  0
  148.5895  134.0455  154.7322 C   0  0  0  0  0  0  0  0  0  0  0  0
  149.1886  135.3045  154.2895 N   0  0  0  0  0  0  0  0  0  0  0  0
  149.8761  136.1569  155.0640 C   0  0  0  0  0  0  0  0  0  0  0  0
  150.0700  135.9778  156.2666 O   0  0  0  0  0  0  0  0  0  0  0  0
  150.3114  137.2143  154.3583 N   0  0  0  0  0  0  0  0  0  0  0  0
  151.0560  138.3234  154.8342 C   0  0  0  0  0  0  0  0  0  0  0  0
  150.4074  139.4225  155.4569 C   0  0  0  0  0  0  0  0  0  0  0  0
  151.4443  140.2577  155.7644 C   0  0  0  0  0  0  0  0  0  0  0  0
  151.5094  141.5910  156.4275 C   0  0  0  0  0  0  0  0  0  0  0  0
  152.6259  139.7125  155.3664 O   0  0  0  0  0  0  0  0  0  0  0  0
  152.3704  138.4719  154.7704 N   0  0  0  0  0  0  0  0  0  0  0  0
  146.8823  134.5351  152.9377 N   0  3  0  0  0  0  0  0  0  0  0  0
  146.0032  134.0869  151.8202 C   0  0  0  0  0  0  0  0  0  0  0  0
  145.5343  135.2909  150.9874 C   0  0  0  0  0  0  0  0  0  0  0  0
  144.8455  136.2089  151.8245 O   0  0  0  0  0  0  0  0  0  0  0  0
  145.6864  136.7170  152.8505 C   0  0  0  0  0  0  0  0  0  0  0  0
  146.1696  135.5646  153.7472 C   0  0  0  0  0  0  0  0  0  0  0  0
  146.2883  130.8831  155.8224 H   0  0  0  0  0  0  0  0  0  0  0  0
  147.7821  131.7638  156.0865 H   0  0  0  0  0  0  0  0  0  0  0  0
  147.6176  130.6963  154.6922 H   0  0  0  0  0  0  0  0  0  0  0  0
  145.7634  132.2009  153.8110 H   0  0  0  0  0  0  0  0  0  0  0  0
  145.9656  133.2274  155.1771 H   0  0  0  0  0  0  0  0  0  0  0  0
  148.6169  131.5627  153.2332 H   0  0  0  0  0  0  0  0  0  0  0  0
  149.2211  132.9344  152.3417 H   0  0  0  0  0  0  0  0  0  0  0  0
  147.6847  132.2054  151.8944 H   0  0  0  0  0  0  0  0  0  0  0  0
  148.1308  134.1829  155.7116 H   0  0  0  0  0  0  0  0  0  0  0  0
  149.4220  133.3610  154.8901 H   0  0  0  0  0  0  0  0  0  0  0  0
  149.0795  135.5377  153.3134 H   0  0  0  0  0  0  0  0  0  0  0  0
  150.0874  137.2290  153.3743 H   0  0  0  0  0  0  0  0  0  0  0  0
  149.3556  139.5767  155.6474 H   0  0  0  0  0  0  0  0  0  0  0  0
  150.5596  142.1179  156.3346 H   0  0  0  0  0  0  0  0  0  0  0  0
  152.2846  142.2123  155.9785 H   0  0  0  0  0  0  0  0  0  0  0  0
  151.7340  141.4829  157.4888 H   0  0  0  0  0  0  0  0  0  0  0  0
  146.5198  133.3999  151.1533 H   0  0  0  0  0  0  0  0  0  0  0  0
  145.1310  133.5621  152.2104 H   0  0  0  0  0  0  0  0  0  0  0  0
  146.3784  135.7816  150.4998 H   0  0  0  0  0  0  0  0  0  0  0  0
  144.8589  134.9603  150.1981 H   0  0  0  0  0  0  0  0  0  0  0  0
  146.5320  137.2515  152.4144 H   0  0  0  0  0  0  0  0  0  0  0  0
  145.1236  137.4404  153.4407 H   0  0  0  0  0  0  0  0  0  0  0  0
  145.3149  135.1198  154.2573 H   0  0  0  0  0  0  0  0  0  0  0  0
  146.8132  135.9938  154.5124 H   0  0  0  0  0  0  0  0  0  0  0  0
  147.6382  135.0355  152.4924 H   0  0  0  0  0  0  0  0  0  0  0  0
  1  2  1  0  0  0  0
  1 22  1  0  0  0  0
  1 23  1  0  0  0  0
  1 24  1  0  0  0  0
  2  3  1  0  0  0  0
  2 25  1  0  0  0  0
  2 26  1  0  0  0  0
  3  4  1  0  0  0  0
  3  5  1  0  0  0  0
  3 16  1  0  0  0  0
  4 27  1  0  0  0  0
  4 28  1  0  0  0  0
  4 29  1  0  0  0  0
  5  6  1  0  0  0  0
  5 30  1  0  0  0  0
  5 31  1  0  0  0  0
  6  7  1  0  0  0  0
  6 32  1  0  0  0  0
  7  8  2  0  0  0  0
  7  9  1  0  0  0  0
  9 10  1  0  0  0  0
  9 33  1  0  0  0  0
 10 15  2  0  0  0  0
 10 11  1  0  0  0  0
 11 12  2  0  0  0  0
 11 34  1  0  0  0  0
 12 13  1  0  0  0  0
 12 14  1  0  0  0  0
 13 35  1  0  0  0  0
 13 36  1  0  0  0  0
 13 37  1  0  0  0  0
 14 15  1  0  0  0  0
 16 21  1  0  0  0  0
 16 17  1  0  0  0  0
 16 46  1  0  0  0  0
 17 18  1  0  0  0  0
 17 38  1  0  0  0  0
 17 39  1  0  0  0  0
 18 19  1  0  0  0  0
 18 40  1  0  0  0  0
 18 41  1  0  0  0  0
 19 20  1  0  0  0  0
 20 21  1  0  0  0  0
 20 42  1  0  0  0  0
 20 43  1  0  0  0  0
 21 44  1  0  0  0  0
 21 45  1  0  0  0  0
M  CHG  1  16   1
M  END
> <s_m_source_file>
AV-unprocessed.smi

> <i_m_source_file_index>
2060

> <i_lp_mmshare_version>
43012

> <i_f3d_flags>
0

> <s_epik_input>
W0NIMl0xW0NIMl1PW0NIMl1bQ0gyXU4xW0NAQF0oW0NIM10pKFtDSDJdW0NIM10pW0NIMl1bTkhdQyg9TylbTkhdYzJbY0hdYyhbQ0gzXSlvbjI=

> <s_epik_cmdline>
J2VwaWtfcHl0aG9uJywgJy1waCcsICc3LjAnLCAnLXRuJywgJzgnLCAnLW1hJywgJzIwMCcsICctbWV0YWxfYmluZGluZycsICctaW1hZScsICc8aW5maWxlLm1hZT4nLCAnLW9tYWUnLCAnPG91dGZpbGUubWFlPic=

> <r_epik_Ionization_Penalty>
0.563843

> <r_epik_Ionization_Penalty_Charging>
0.563819

> <r_epik_Ionization_Penalty_Neutral>
2.4442e-05

> <r_epik_State_Penalty>
0.575199

> <r_epik_Charging_Adjusted_Penalty>
1.13902

> <i_epik_Tot_Q>
1

> <i_epik_Tot_abs_Q>
1

> <r_epik_Metal_State_Penalty>
0.577669

> <b_epik_Metal_Only>
0

> <s_lp_Force_Field>
OPLS_2005

> <r_lp_Energy>
25.7644

> <b_lp_Chiralities_Consistent>
1

> <s_lp_Variant>
AV-unprocessed.smi:2060-4

> <Gold.Version>
5.8.1

> <Gold.Id.Protein>
6NUR|6NUR_protein|mol2

> <Gold.PLP.Fitness>
39.6088

> <Gold.PLP.PLP>
-27.7693

> <Gold.PLP.part.hbond>
-5.2176

> <Gold.PLP.part.metal>
0.0000

> <Gold.PLP.part.buried>
-2.9825

> <Gold.PLP.part.nonpolar>
-20.4525

> <Gold.PLP.part.repulsive>
0.3356

> <Gold.PLP.ligand.clash>
0.0000

> <Gold.PLP.ligand.torsion>
1.4094

> <Gold.PLP.Chemscore.Hbond>
4.8324

> <Gold.PLP.Chemscore.CHOScore>
0.0000

> <Gold.PLP.Chemscore.Metal>
0.0000

> <Gold.Chemscore.Hbonds>
donor molecule, donor type, donor heavy atom, donor atom, acceptor molecule, acceptor atom, score
      L1  H     6    32       P1  7948  1.00
      L1  H     9    33       P1  7948  0.71
      L1  H    16    46       P1  7948  2.00
      P1  H  7997  8008       L1    14  1.00

> <Gold.PLP.Chemscore.Internal.Correction>
0.1612

> <Gold.Rescore>
     Score         DG    S(hbond)    S(metal)    S(lipo)     H(rot)  DE(clash)    DE(int)     intcor
     16.42     -18.04       3.28        0.00      52.51       1.77       0.08       1.55       ----

> <Gold.Chemscore.Fitness>
16.4212

> <Gold.Chemscore.DG>
-18.0444

> <Gold.Chemscore.ZeroCoef>
-5.4800

> <Gold.Chemscore.Hbond>
3.2768

> <Gold.Chemscore.Metal>
0.0000

> <Gold.Chemscore.Lipo>
52.5059

> <Gold.Chemscore.Internal_Hbond>
0.0000

> <Gold.Chemscore.DEClash>
0.0779

> <Gold.Chemscore.DEInternal>
1.5453

> <Gold.Chemscore.Rot>
1.7670

> <Gold.Chemscore.Internal.Correction>
   9.000000E+99

> <Gold.Chemscore.Hbonds>
donor molecule, donor type, donor heavy atom, donor atom, acceptor molecule, acceptor atom, score
      L1  H     6    32       P1  7948  0.54
      L1  H     9    33       P1  7948  0.15
      L1  H    16    46       P1  7948  0.98
      P1  H  7997  8008       L1    14  0.98

> <Gold.Chemscore.Hbond.Weighted>
-10.9447

> <Gold.Chemscore.Metal.Weighted>
-0.0000

> <Gold.Chemscore.Lipo.Weighted>
-6.1432

> <Gold.Chemscore.Internal_Hbond.Weighted>
0.0000

> <Gold.Chemscore.DEClash.Weighted>
0.0779

> <Gold.Chemscore.DEInternal.Weighted>
1.5453

> <Gold.Chemscore.Rot.Weighted>
4.5235

> <Gold.Chemscore.Internal.Correction.Weighted>
   9.000000E+99

> <Gold.Protein.RotatedTorsions>
[ 6907 6896 6895 6894 ] final -146.10 input  -60.11 | X-H torsion
[ 7974 7965 7964 7962 ] final   59.81 input  175.53 | X-H torsion
[ 8008 7997 7996 7995 ] final  -21.55 input   59.86 | X-H torsion
[ 10167 10162 10161 10158 ] final   76.76 input  -65.29 | X-H torsion
[ 10718 10713 10712 10709 ] final  167.97 input   66.30 | X-H torsion
[ 10763 10752 10751 10750 ] final  168.38 input  -60.55 | X-H torsion
[ 11005 11000 10999 10996 ] final  130.91 input  -57.11 | X-H torsion

> <Gold.Protein.ActiveResidues>
 VAL166  LYS551  ARG553  GLY616  TRP617  ASP618  TYR619  PRO620  LYS621  CYS622 
 ASP623  PHE694  ASN695  SER759  ASP760  ASP761  ALA762  ILE779  LEU786  VAL792 
 PHE793  MET794  SER795  GLU796  ALA797  LYS798  CYS799  TRP800  GLU811  SER814 

> <Gold.Protein.RotatedAtoms>
  151.1370  133.4997  159.2597 H   0  0  0  0  0  0  0  0  0  0  0  0  # atno 6907 bound_to 6896
  151.1696  135.0311  159.8756 H   0  0  0  0  0  0  0  0  0  0  0  0  # atno 6908 bound_to 6896
  152.5461  134.1235  159.8462 H   0  0  0  0  0  0  0  0  0  0  0  0  # atno 6909 bound_to 6896
  145.9031  139.3596  143.0581 H   0  0  0  0  0  0  0  0  0  0  0  0  # atno 7974 bound_to 7965
  154.4699  140.2032  156.0022 H   0  0  0  0  0  0  0  0  0  0  0  0  # atno 8008 bound_to 7997
  156.0992  140.3246  155.7890 H   0  0  0  0  0  0  0  0  0  0  0  0  # atno 8009 bound_to 7997
  155.4826  140.0540  157.2956 H   0  0  0  0  0  0  0  0  0  0  0  0  # atno 8010 bound_to 7997
  139.9887  144.5773  150.7836 H   0  0  0  0  0  0  0  0  0  0  0  0  # atno 10167 bound_to 10162
  157.0438  131.0294  151.2704 H   0  0  0  0  0  0  0  0  0  0  0  0  # atno 10718 bound_to 10713
  154.3677  135.2753  155.2284 H   0  0  0  0  0  0  0  0  0  0  0  0  # atno 10763 bound_to 10752
  154.4445  135.5946  153.6154 H   0  0  0  0  0  0  0  0  0  0  0  0  # atno 10764 bound_to 10752
  152.9840  135.6027  154.3904 H   0  0  0  0  0  0  0  0  0  0  0  0  # atno 10765 bound_to 10752
  139.9699  134.9580  156.9361 H   0  0  0  0  0  0  0  0  0  0  0  0  # atno 11005 bound_to 11000
  145.8766  140.9388  143.0623 LP  0  0  0  0  0  0  0  0  0  0  0  0  # atno 17320 bound_to 7965
  144.6737  140.0725  143.7472 LP  0  0  0  0  0  0  0  0  0  0  0  0  # atno 17321 bound_to 7965
  140.7462  143.2888  151.3389 LP  0  0  0  0  0  0  0  0  0  0  0  0  # atno 17342 bound_to 10162
  139.6356  144.0638  152.2512 LP  0  0  0  0  0  0  0  0  0  0  0  0  # atno 17343 bound_to 10162
  157.5083  130.7923  149.7678 LP  0  0  0  0  0  0  0  0  0  0  0  0  # atno 17370 bound_to 10713
  156.0029  130.3870  150.2537 LP  0  0  0  0  0  0  0  0  0  0  0  0  # atno 17371 bound_to 10713
  140.5316  134.0808  155.7317 LP  0  0  0  0  0  0  0  0  0  0  0  0  # atno 17394 bound_to 11000
  141.1379  133.9190  157.2393 LP  0  0  0  0  0  0  0  0  0  0  0  0  # atno 17395 bound_to 11000

$$$$
