AV-unprocessed.smi:2960|AV-procd|sdf|11311|dock8
  -GOLD-   2272016213D 1   1.00000     0.00000
 Structure written by MMmdl.
 48 50  0  0  0  0  0  0  0  0  1 V2000
  154.6370  143.5646  168.0021 C   0  0  0  0  0  0  0  0  0  0  0  0
  154.9535  142.0873  167.7998 C   0  0  0  0  0  0  0  0  0  0  0  0
  154.9401  141.3149  168.7577 O   0  0  0  0  0  0  0  0  0  0  0  0
  155.2488  141.7104  166.5473 N   0  0  0  0  0  0  0  0  0  0  0  0
  155.5865  140.3502  166.1402 C   0  0  0  0  0  0  0  0  0  0  0  0
  155.8329  140.2219  164.6244 C   0  0  0  0  0  0  0  0  0  0  0  0
  155.5592  138.8482  164.0797 C   0  0  0  0  0  0  0  0  0  0  0  0
  154.9880  137.9072  164.8329 N   0  0  0  0  0  0  0  0  0  0  0  0
  154.9258  136.8255  163.9770 C   0  0  0  0  0  0  0  0  0  0  0  0
  154.4235  135.5205  164.1819 C   0  0  0  0  0  0  0  0  0  0  0  0
  154.4721  134.5661  163.1448 C   0  0  0  0  0  0  0  0  0  0  0  0
  155.0234  134.9019  161.8912 C   0  0  0  0  0  0  0  0  0  0  0  0
  155.5275  136.1971  161.6660 C   0  0  0  0  0  0  0  0  0  0  0  0
  155.4742  137.1473  162.7038 C   0  0  0  0  0  0  0  0  0  0  0  0
  155.8741  138.4762  162.8117 N   0  0  0  0  0  0  0  0  0  0  0  0
  156.5085  139.2620  161.7626 C   0  0  0  0  0  0  0  0  0  0  0  0
  155.4861  140.0486  160.9307 C   0  0  0  0  0  0  0  0  0  0  0  0
  154.4629  140.5423  161.7854 O   0  0  0  0  0  0  0  0  0  0  0  0
  153.6910  141.5934  161.3412 C   0  0  0  0  0  0  0  0  0  0  0  0
  153.1041  142.4154  162.3249 C   0  0  0  0  0  0  0  0  0  0  0  0
  152.3012  143.5136  161.9619 C   0  0  0  0  0  0  0  0  0  0  0  0
  152.0749  143.8049  160.6024 C   0  0  0  0  0  0  0  0  0  0  0  0
  151.2133  144.9896  160.2163 C   0  0  0  0  0  0  0  0  0  0  0  0
  152.6580  142.9911  159.6105 C   0  0  0  0  0  0  0  0  0  0  0  0
  153.4602  141.8922  159.9747 C   0  0  0  0  0  0  0  0  0  0  0  0
  153.8167  143.8721  167.3528 H   0  0  0  0  0  0  0  0  0  0  0  0
  155.5109  144.1738  167.7695 H   0  0  0  0  0  0  0  0  0  0  0  0
  154.3475  143.7614  169.0349 H   0  0  0  0  0  0  0  0  0  0  0  0
  155.2397  142.4147  165.8236 H   0  0  0  0  0  0  0  0  0  0  0  0
  156.4549  139.9923  166.6954 H   0  0  0  0  0  0  0  0  0  0  0  0
  154.7549  139.7063  166.4278 H   0  0  0  0  0  0  0  0  0  0  0  0
  155.2449  140.9671  164.0909 H   0  0  0  0  0  0  0  0  0  0  0  0
  156.8733  140.4688  164.4105 H   0  0  0  0  0  0  0  0  0  0  0  0
  154.0015  135.2527  165.1391 H   0  0  0  0  0  0  0  0  0  0  0  0
  154.0862  133.5712  163.3126 H   0  0  0  0  0  0  0  0  0  0  0  0
  155.0594  134.1646  161.1027 H   0  0  0  0  0  0  0  0  0  0  0  0
  155.9531  136.4559  160.7079 H   0  0  0  0  0  0  0  0  0  0  0  0
  157.2160  139.9506  162.2248 H   0  0  0  0  0  0  0  0  0  0  0  0
  157.1007  138.6097  161.1235 H   0  0  0  0  0  0  0  0  0  0  0  0
  155.9894  140.8747  160.4264 H   0  0  0  0  0  0  0  0  0  0  0  0
  155.0554  139.3997  160.1668 H   0  0  0  0  0  0  0  0  0  0  0  0
  153.2707  142.2005  163.3706 H   0  0  0  0  0  0  0  0  0  0  0  0
  151.8601  144.1320  162.7299 H   0  0  0  0  0  0  0  0  0  0  0  0
  150.9934  144.9895  159.1482 H   0  0  0  0  0  0  0  0  0  0  0  0
  151.7242  145.9214  160.4601 H   0  0  0  0  0  0  0  0  0  0  0  0
  150.2671  144.9642  160.7573 H   0  0  0  0  0  0  0  0  0  0  0  0
  152.4937  143.2058  158.5646 H   0  0  0  0  0  0  0  0  0  0  0  0
  153.8899  141.2946  159.1851 H   0  0  0  0  0  0  0  0  0  0  0  0
  1  2  1  0  0  0  0
  1 26  1  0  0  0  0
  1 27  1  0  0  0  0
  1 28  1  0  0  0  0
  2  3  2  0  0  0  0
  2  4  1  0  0  0  0
  4  5  1  0  0  0  0
  4 29  1  0  0  0  0
  5  6  1  0  0  0  0
  5 30  1  0  0  0  0
  5 31  1  0  0  0  0
  6  7  1  0  0  0  0
  6 32  1  0  0  0  0
  6 33  1  0  0  0  0
  7 15  1  0  0  0  0
  7  8  2  0  0  0  0
  8  9  1  0  0  0  0
  9 14  2  0  0  0  0
  9 10  1  0  0  0  0
 10 11  2  0  0  0  0
 10 34  1  0  0  0  0
 11 12  1  0  0  0  0
 11 35  1  0  0  0  0
 12 13  2  0  0  0  0
 12 36  1  0  0  0  0
 13 14  1  0  0  0  0
 13 37  1  0  0  0  0
 14 15  1  0  0  0  0
 15 16  1  0  0  0  0
 16 17  1  0  0  0  0
 16 38  1  0  0  0  0
 16 39  1  0  0  0  0
 17 18  1  0  0  0  0
 17 40  1  0  0  0  0
 17 41  1  0  0  0  0
 18 19  1  0  0  0  0
 19 25  1  0  0  0  0
 19 20  2  0  0  0  0
 20 21  1  0  0  0  0
 20 42  1  0  0  0  0
 21 22  2  0  0  0  0
 21 43  1  0  0  0  0
 22 23  1  0  0  0  0
 22 24  1  0  0  0  0
 23 44  1  0  0  0  0
 23 45  1  0  0  0  0
 23 46  1  0  0  0  0
 24 25  2  0  0  0  0
 24 47  1  0  0  0  0
 25 48  1  0  0  0  0
M  END
> <s_m_source_file>
AV-unprocessed.smi

> <i_m_source_file_index>
2960

> <i_lp_mmshare_version>
43012

> <i_f3d_flags>
0

> <s_epik_input>
W0NIM11DKD1PKVtOSF1bQ0gyXVtDSDJdYyhuMSluKGMoYzEyKVtjSF1bY0hdW2NIXVtjSF0yKVtDSDJdW0NIMl1PYzNbY0hdW2NIXWMoW0NIM10pW2NIXVtjSF0z

> <s_epik_cmdline>
J2VwaWtfcHl0aG9uJywgJy1waCcsICc3LjAnLCAnLXRuJywgJzgnLCAnLW1hJywgJzIwMCcsICctbWV0YWxfYmluZGluZycsICctaW1hZScsICc8aW5maWxlLm1hZT4nLCAnLW9tYWUnLCAnPG91dGZpbGUubWFlPic=

> <r_lp_tautomer_probability>
1

> <r_epik_Ionization_Penalty>
0.0990099

> <r_epik_Ionization_Penalty_Charging>
0

> <r_epik_Ionization_Penalty_Neutral>
0.0990099

> <r_epik_State_Penalty>
0.0890759

> <r_epik_Charging_Adjusted_Penalty>
0.0890759

> <i_epik_Tot_Q>
0

> <i_epik_Tot_abs_Q>
0

> <r_epik_Metal_State_Penalty>
0.0762215

> <b_epik_Metal_Only>
0

> <s_lp_Force_Field>
OPLS_2005

> <r_lp_Energy>
13.2598

> <b_lp_Chiralities_Consistent>
1

> <s_lp_Variant>
AV-unprocessed.smi:2960-1

> <Gold.Version>
5.8.1

> <Gold.Id.Protein>
6NUR|6NUR_protein|mol2

> <Gold.PLP.Fitness>
52.6107

> <Gold.PLP.PLP>
-54.7798

> <Gold.PLP.part.hbond>
0.0000

> <Gold.PLP.part.metal>
0.0000

> <Gold.PLP.part.buried>
-7.7375

> <Gold.PLP.part.nonpolar>
-46.7601

> <Gold.PLP.part.repulsive>
0.3020

> <Gold.PLP.ligand.clash>
0.0000

> <Gold.PLP.ligand.torsion>
1.1521

> <Gold.PLP.Chemscore.Hbond>
0.0000

> <Gold.PLP.Chemscore.CHOScore>
0.0000

> <Gold.PLP.Chemscore.Metal>
0.0000

> <Gold.PLP.Chemscore.Internal.Correction>
0.1352

> <Gold.Rescore>
     Score         DG    S(hbond)    S(metal)    S(lipo)     H(rot)  DE(clash)    DE(int)     intcor
     16.57     -17.59       0.00        0.00     149.63       2.11       0.04       0.98       ----

> <Gold.Chemscore.Fitness>
16.5678

> <Gold.Chemscore.DG>
-17.5905

> <Gold.Chemscore.ZeroCoef>
-5.4800

> <Gold.Chemscore.Hbond>
0.0000

> <Gold.Chemscore.Metal>
0.0000

> <Gold.Chemscore.Lipo>
149.6285

> <Gold.Chemscore.Internal_Hbond>
0.0000

> <Gold.Chemscore.DEClash>
0.0442

> <Gold.Chemscore.DEInternal>
0.9785

> <Gold.Chemscore.Rot>
2.1078

> <Gold.Chemscore.Internal.Correction>
   9.000000E+99

> <Gold.Chemscore.Hbond.Weighted>
-0.0000

> <Gold.Chemscore.Metal.Weighted>
-0.0000

> <Gold.Chemscore.Lipo.Weighted>
-17.5065

> <Gold.Chemscore.Internal_Hbond.Weighted>
0.0000

> <Gold.Chemscore.DEClash.Weighted>
0.0442

> <Gold.Chemscore.DEInternal.Weighted>
0.9785

> <Gold.Chemscore.Rot.Weighted>
5.3961

> <Gold.Chemscore.Internal.Correction.Weighted>
   9.000000E+99

> <Gold.Protein.RotatedTorsions>
[ 6907 6896 6895 6894 ] final    1.28 input  -60.11 | X-H torsion
[ 7974 7965 7964 7962 ] final -121.67 input  175.53 | X-H torsion
[ 8008 7997 7996 7995 ] final -115.26 input   59.86 | X-H torsion
[ 10167 10162 10161 10158 ] final -175.23 input  -65.29 | X-H torsion
[ 10718 10713 10712 10709 ] final  -80.23 input   66.30 | X-H torsion
[ 10763 10752 10751 10750 ] final -175.17 input  -60.55 | X-H torsion
[ 11005 11000 10999 10996 ] final  152.53 input  -57.11 | X-H torsion

> <Gold.Protein.ActiveResidues>
 VAL166  LYS551  ARG553  GLY616  TRP617  ASP618  TYR619  PRO620  LYS621  CYS622 
 ASP623  PHE694  ASN695  SER759  ASP760  ASP761  ALA762  ILE779  LEU786  VAL792 
 PHE793  MET794  SER795  GLU796  ALA797  LYS798  CYS799  TRP800  GLU811  SER814 

> <Gold.Protein.RotatedAtoms>
  151.5901  135.1054  160.0036 H   0  0  0  0  0  0  0  0  0  0  0  0  # atno 6907 bound_to 6896
  152.4310  133.7274  159.6579 H   0  0  0  0  0  0  0  0  0  0  0  0  # atno 6908 bound_to 6896
  150.8203  133.8194  159.3165 H   0  0  0  0  0  0  0  0  0  0  0  0  # atno 6909 bound_to 6896
  145.0378  140.8120  143.4284 H   0  0  0  0  0  0  0  0  0  0  0  0  # atno 7974 bound_to 7965
  155.0492  140.0393  157.2538 H   0  0  0  0  0  0  0  0  0  0  0  0  # atno 8008 bound_to 7997
  154.7151  140.2700  155.6569 H   0  0  0  0  0  0  0  0  0  0  0  0  # atno 8009 bound_to 7997
  156.2801  140.2714  156.1805 H   0  0  0  0  0  0  0  0  0  0  0  0  # atno 8010 bound_to 7997
  139.5592  144.1912  152.1210 H   0  0  0  0  0  0  0  0  0  0  0  0  # atno 10167 bound_to 10162
  156.0074  130.4568  150.3769 H   0  0  0  0  0  0  0  0  0  0  0  0  # atno 10718 bound_to 10713
  154.5875  135.2842  155.0669 H   0  0  0  0  0  0  0  0  0  0  0  0  # atno 10763 bound_to 10752
  154.1982  135.6429  153.5083 H   0  0  0  0  0  0  0  0  0  0  0  0  # atno 10764 bound_to 10752
  153.0109  135.5462  154.6550 H   0  0  0  0  0  0  0  0  0  0  0  0  # atno 10765 bound_to 10752
  140.1316  134.8798  157.2211 H   0  0  0  0  0  0  0  0  0  0  0  0  # atno 11005 bound_to 11000
  145.1687  139.2417  143.5353 LP  0  0  0  0  0  0  0  0  0  0  0  0  # atno 17320 bound_to 7965
  146.3506  140.1432  142.8594 LP  0  0  0  0  0  0  0  0  0  0  0  0  # atno 17321 bound_to 7965
  140.1423  144.5191  150.6737 LP  0  0  0  0  0  0  0  0  0  0  0  0  # atno 17342 bound_to 10162
  140.6869  143.2355  151.5235 LP  0  0  0  0  0  0  0  0  0  0  0  0  # atno 17343 bound_to 10162
  157.1851  131.0401  151.2729 LP  0  0  0  0  0  0  0  0  0  0  0  0  # atno 17370 bound_to 10713
  157.4111  130.7386  149.6840 LP  0  0  0  0  0  0  0  0  0  0  0  0  # atno 17371 bound_to 10713
  140.2835  134.3323  155.7336 LP  0  0  0  0  0  0  0  0  0  0  0  0  # atno 17394 bound_to 11000
  141.2171  133.7492  156.9398 LP  0  0  0  0  0  0  0  0  0  0  0  0  # atno 17395 bound_to 11000

$$$$
