AV-unprocessed.smi:3265|AV-procd|sdf|12497|dock9
  -GOLD-   2272018403D 1   1.00000     0.00000
 Structure written by MMmdl.
 41 42  0  0  0  0  0  0  0  0  2 V2000
  145.8187  136.1469  150.4529 C   0  0  0  0  0  0  0  0  0  0  0  0
  145.0206  135.0603  151.1947 C   0  0  1  0  0  0  0  0  0  0  0  0
  145.3914  133.6354  150.7441 C   0  0  0  0  0  0  0  0  0  0  0  0
  146.7609  133.2163  151.2966 C   0  0  0  0  0  0  0  0  0  0  0  0
  146.8189  133.3960  152.8218 C   0  0  0  0  0  0  0  0  0  0  0  0
  146.4913  134.7917  153.2122 N   0  3  2  0  0  0  0  0  0  0  0  0
  146.6879  135.0250  154.6651 C   0  0  0  0  0  0  0  0  0  0  0  0
  148.1482  134.8103  155.1063 C   0  0  0  0  0  0  0  0  0  0  0  0
  149.0146  135.8729  154.6122 N   0  0  0  0  0  0  0  0  0  0  0  0
  149.4295  136.9294  155.3319 C   0  0  0  0  0  0  0  0  0  0  0  0
  149.0832  137.1196  156.4974 O   0  0  0  0  0  0  0  0  0  0  0  0
  150.3539  137.9435  154.6440 C   0  0  0  0  0  0  0  0  0  0  0  0
  149.7775  139.2765  154.5533 N   0  0  0  0  0  0  0  0  0  0  0  0
  148.5692  139.6507  154.0027 C   0  0  0  0  0  0  0  0  0  0  0  0
  148.4606  141.0046  154.1424 C   0  0  0  0  0  0  0  0  0  0  0  0
  149.6651  141.3741  154.8039 C   0  0  0  0  0  0  0  0  0  0  0  0
  150.4509  140.3380  155.0491 N   0  0  0  0  0  0  0  0  0  0  0  0
  145.1416  135.1915  152.7272 C   0  0  0  0  0  0  0  0  0  0  0  0
  146.8858  136.0880  150.6672 H   0  0  0  0  0  0  0  0  0  0  0  0
  145.4816  137.1436  150.7388 H   0  0  0  0  0  0  0  0  0  0  0  0
  145.6921  136.0571  149.3736 H   0  0  0  0  0  0  0  0  0  0  0  0
  143.9730  135.2195  150.9356 H   0  0  0  0  0  0  0  0  0  0  0  0
  144.6346  132.9373  151.1042 H   0  0  0  0  0  0  0  0  0  0  0  0
  145.3817  133.5613  149.6562 H   0  0  0  0  0  0  0  0  0  0  0  0
  146.9608  132.1761  151.0381 H   0  0  0  0  0  0  0  0  0  0  0  0
  147.5498  133.8036  150.8256 H   0  0  0  0  0  0  0  0  0  0  0  0
  146.1260  132.7085  153.3100 H   0  0  0  0  0  0  0  0  0  0  0  0
  147.8196  133.1384  153.1706 H   0  0  0  0  0  0  0  0  0  0  0  0
  146.3459  136.0269  154.9295 H   0  0  0  0  0  0  0  0  0  0  0  0
  146.0582  134.3289  155.2211 H   0  0  0  0  0  0  0  0  0  0  0  0
  148.2159  134.7469  156.1940 H   0  0  0  0  0  0  0  0  0  0  0  0
  148.5408  133.8724  154.7163 H   0  0  0  0  0  0  0  0  0  0  0  0
  149.3466  135.7892  153.6620 H   0  0  0  0  0  0  0  0  0  0  0  0
  151.2924  138.0021  155.1960 H   0  0  0  0  0  0  0  0  0  0  0  0
  150.5965  137.5981  153.6377 H   0  0  0  0  0  0  0  0  0  0  0  0
  147.8961  138.9312  153.5600 H   0  0  0  0  0  0  0  0  0  0  0  0
  147.6443  141.6352  153.8227 H   0  0  0  0  0  0  0  0  0  0  0  0
  149.9895  142.3575  155.1103 H   0  0  0  0  0  0  0  0  0  0  0  0
  144.9149  136.2175  153.0143 H   0  0  0  0  0  0  0  0  0  0  0  0
  144.3916  134.5634  153.2107 H   0  0  0  0  0  0  0  0  0  0  0  0
  147.1612  135.3794  152.7366 H   0  0  0  0  0  0  0  0  0  0  0  0
  1  2  1  0  0  0  0
  1 19  1  0  0  0  0
  1 20  1  0  0  0  0
  1 21  1  0  0  0  0
  2 18  1  0  0  0  0
  2  3  1  0  0  0  0
  2 22  1  0  0  0  0
  3  4  1  0  0  0  0
  3 23  1  0  0  0  0
  3 24  1  0  0  0  0
  4  5  1  0  0  0  0
  4 25  1  0  0  0  0
  4 26  1  0  0  0  0
  5  6  1  0  0  0  0
  5 27  1  0  0  0  0
  5 28  1  0  0  0  0
  6  7  1  0  0  0  0
  6 18  1  0  0  0  0
  6 41  1  0  0  0  0
  7  8  1  0  0  0  0
  7 29  1  0  0  0  0
  7 30  1  0  0  0  0
  8  9  1  0  0  0  0
  8 31  1  0  0  0  0
  8 32  1  0  0  0  0
  9 10  1  0  0  0  0
  9 33  1  0  0  0  0
 10 11  2  0  0  0  0
 10 12  1  0  0  0  0
 12 13  1  0  0  0  0
 12 34  1  0  0  0  0
 12 35  1  0  0  0  0
 13 17  1  0  0  0  0
 13 14  1  0  0  0  0
 14 15  2  0  0  0  0
 14 36  1  0  0  0  0
 15 16  1  0  0  0  0
 15 37  1  0  0  0  0
 16 17  2  0  0  0  0
 16 38  1  0  0  0  0
 18 39  1  0  0  0  0
 18 40  1  0  0  0  0
M  CHG  1   6   1
M  END
> <s_m_source_file>
AV-unprocessed.smi

> <i_m_source_file_index>
3265

> <i_lp_mmshare_version>
43012

> <i_f3d_flags>
0

> <s_epik_input>
W0NIM11bQ0BASF0xW0NIMl1bQ0gyXVtDSDJdTihbQ0gyXTEpW0NIMl1bQ0gyXVtOSF1DKD1PKVtDSDJdbjJbY0hdW2NIXVtjSF1uMg==

> <s_epik_cmdline>
J2VwaWtfcHl0aG9uJywgJy1waCcsICc3LjAnLCAnLXRuJywgJzgnLCAnLW1hJywgJzIwMCcsICctbWV0YWxfYmluZGluZycsICctaW1hZScsICc8aW5maWxlLm1hZT4nLCAnLW9tYWUnLCAnPG91dGZpbGUubWFlPic=

> <r_lp_tautomer_probability>
1

> <r_epik_Ionization_Penalty>
0.00231455

> <r_epik_Ionization_Penalty_Charging>
0.00230623

> <r_epik_Ionization_Penalty_Neutral>
8.31727e-06

> <r_epik_State_Penalty>
0.00159065

> <r_epik_Charging_Adjusted_Penalty>
0.00389688

> <i_epik_Tot_Q>
1

> <i_epik_Tot_abs_Q>
1

> <r_epik_Metal_State_Penalty>
-0

> <b_epik_Metal_Only>
0

> <s_lp_Force_Field>
OPLS_2005

> <r_lp_Energy>
19.1739

> <b_lp_Chiralities_Consistent>
1

> <s_lp_Variant>
AV-unprocessed.smi:3265-2

> <Gold.Version>
5.8.1

> <Gold.Id.Protein>
6NUR|6NUR_protein|mol2

> <Gold.PLP.Fitness>
44.2989

> <Gold.PLP.PLP>
-29.8850

> <Gold.PLP.part.hbond>
-3.0000

> <Gold.PLP.part.metal>
0.0000

> <Gold.PLP.part.buried>
-2.3783

> <Gold.PLP.part.nonpolar>
-25.6238

> <Gold.PLP.part.repulsive>
0.1178

> <Gold.PLP.ligand.clash>
0.0000

> <Gold.PLP.ligand.torsion>
0.2239

> <Gold.PLP.Chemscore.Hbond>
3.9440

> <Gold.PLP.Chemscore.CHOScore>
1.0000

> <Gold.PLP.Chemscore.Metal>
0.0000

> <Gold.Chemscore.Hbonds>
donor molecule, donor type, donor heavy atom, donor atom, acceptor molecule, acceptor atom, score
      L1  H     6    41       P1  7948  1.40
      L1  H     9    33       P1  7948  0.91
      P1  H  7989  7998       L1    17  0.45
      L1  C    16    38       P1  8028  0.68

> <Gold.PLP.Chemscore.Internal.Correction>
0.0296

> <Gold.Rescore>
     Score         DG    S(hbond)    S(metal)    S(lipo)     H(rot)  DE(clash)    DE(int)     intcor
     16.30     -16.83       2.50        0.00      65.80       1.84       0.03       0.49       ----

> <Gold.Chemscore.Fitness>
16.3017

> <Gold.Chemscore.DG>
-16.8254

> <Gold.Chemscore.ZeroCoef>
-5.4800

> <Gold.Chemscore.Hbond>
2.5010

> <Gold.Chemscore.Metal>
0.0000

> <Gold.Chemscore.Lipo>
65.8036

> <Gold.Chemscore.Internal_Hbond>
0.0000

> <Gold.Chemscore.DEClash>
0.0310

> <Gold.Chemscore.DEInternal>
0.4927

> <Gold.Chemscore.Rot>
1.8386

> <Gold.Chemscore.Internal.Correction>
   9.000000E+99

> <Gold.Chemscore.Hbonds>
donor molecule, donor type, donor heavy atom, donor atom, acceptor molecule, acceptor atom, score
      L1  H     6    41       P1  7948  0.71
      L1  H     9    33       P1  7948  0.49
      P1  H  7989  7998       L1    17  0.01

> <Gold.Chemscore.Hbond.Weighted>
-8.3532

> <Gold.Chemscore.Metal.Weighted>
-0.0000

> <Gold.Chemscore.Lipo.Weighted>
-7.6990

> <Gold.Chemscore.Internal_Hbond.Weighted>
0.0000

> <Gold.Chemscore.DEClash.Weighted>
0.0310

> <Gold.Chemscore.DEInternal.Weighted>
0.4927

> <Gold.Chemscore.Rot.Weighted>
4.7069

> <Gold.Chemscore.Internal.Correction.Weighted>
   9.000000E+99

> <Gold.Protein.RotatedTorsions>
[ 6907 6896 6895 6894 ] final  -15.75 input  -60.11 | X-H torsion
[ 7974 7965 7964 7962 ] final  -11.92 input  175.53 | X-H torsion
[ 8008 7997 7996 7995 ] final -146.47 input   59.86 | X-H torsion
[ 10167 10162 10161 10158 ] final   -5.85 input  -65.29 | X-H torsion
[ 10718 10713 10712 10709 ] final -123.06 input   66.30 | X-H torsion
[ 10763 10752 10751 10750 ] final  -62.61 input  -60.55 | X-H torsion
[ 11005 11000 10999 10996 ] final -142.07 input  -57.11 | X-H torsion

> <Gold.Protein.ActiveResidues>
 VAL166  LYS551  ARG553  GLY616  TRP617  ASP618  TYR619  PRO620  LYS621  CYS622 
 ASP623  PHE694  ASN695  SER759  ASP760  ASP761  ALA762  ILE779  LEU786  VAL792 
 PHE793  MET794  SER795  GLU796  ALA797  LYS798  CYS799  TRP800  GLU811  SER814 

> <Gold.Protein.RotatedAtoms>
  151.3192  135.0814  159.9299 H   0  0  0  0  0  0  0  0  0  0  0  0  # atno 6907 bound_to 6896
  152.5260  133.9656  159.7748 H   0  0  0  0  0  0  0  0  0  0  0  0  # atno 6908 bound_to 6896
  150.9974  133.6037  159.2730 H   0  0  0  0  0  0  0  0  0  0  0  0  # atno 6909 bound_to 6896
  146.2170  140.2982  142.8373 H   0  0  0  0  0  0  0  0  0  0  0  0  # atno 7974 bound_to 7965
  155.5600  140.0624  157.2831 H   0  0  0  0  0  0  0  0  0  0  0  0  # atno 8008 bound_to 7997
  154.4393  140.1887  156.0818 H   0  0  0  0  0  0  0  0  0  0  0  0  # atno 8009 bound_to 7997
  156.0454  140.3290  155.7294 H   0  0  0  0  0  0  0  0  0  0  0  0  # atno 8010 bound_to 7997
  140.6977  143.6261  150.8567 H   0  0  0  0  0  0  0  0  0  0  0  0  # atno 10167 bound_to 10162
  156.1470  130.6507  150.9857 H   0  0  0  0  0  0  0  0  0  0  0  0  # atno 10718 bound_to 10713
  154.3025  135.6232  153.5431 H   0  0  0  0  0  0  0  0  0  0  0  0  # atno 10763 bound_to 10752
  152.9839  135.5682  154.5268 H   0  0  0  0  0  0  0  0  0  0  0  0  # atno 10764 bound_to 10752
  154.4901  135.2867  155.1479 H   0  0  0  0  0  0  0  0  0  0  0  0  # atno 10765 bound_to 10752
  140.8262  134.2572  157.4878 H   0  0  0  0  0  0  0  0  0  0  0  0  # atno 11005 bound_to 11000
  144.9076  140.7719  143.5827 LP  0  0  0  0  0  0  0  0  0  0  0  0  # atno 17320 bound_to 7965
  145.2911  139.1883  143.4740 LP  0  0  0  0  0  0  0  0  0  0  0  0  # atno 17321 bound_to 7965
  139.9980  143.5775  152.2886 LP  0  0  0  0  0  0  0  0  0  0  0  0  # atno 17342 bound_to 10162
  139.6454  144.7658  151.2255 LP  0  0  0  0  0  0  0  0  0  0  0  0  # atno 17343 bound_to 10162
  157.6625  131.0878  150.7805 LP  0  0  0  0  0  0  0  0  0  0  0  0  # atno 17370 bound_to 10713
  156.7876  130.4879  149.5390 LP  0  0  0  0  0  0  0  0  0  0  0  0  # atno 17371 bound_to 10713
  139.8706  134.9562  156.4229 LP  0  0  0  0  0  0  0  0  0  0  0  0  # atno 17394 bound_to 11000
  140.9047  133.7754  155.9721 LP  0  0  0  0  0  0  0  0  0  0  0  0  # atno 17395 bound_to 11000

$$$$
