AV-unprocessed.smi:2659|AV-procd|sdf|10313|dock1
  -GOLD-   2272014333D 1   1.00000     0.00000
 Structure written by MMmdl.
 47 48  0  0  0  0  0  0  0  0  1 V2000
  146.9065  141.2007  153.9849 C   0  0  0  0  0  0  0  0  0  0  0  0
  148.1995  140.6847  154.3895 N   0  0  0  0  0  0  0  0  0  0  0  0
  149.0332  141.4513  155.1243 N   0  0  0  0  0  0  0  0  0  0  0  0
  150.1102  140.7002  155.3297 C   0  0  0  0  0  0  0  0  0  0  0  0
  151.2605  141.2482  156.1360 C   0  0  0  0  0  0  0  0  0  0  0  0
  151.0288  141.2968  157.6731 C   0  0  0  0  0  0  0  0  0  0  0  0
  150.7375  139.8808  158.2093 C   0  0  0  0  0  0  0  0  0  0  0  0
  149.8051  142.1890  157.9595 C   0  0  0  0  0  0  0  0  0  0  0  0
  152.2449  141.8795  158.4252 C   0  0  0  0  0  0  0  0  0  0  0  0
  150.0072  139.4166  154.7175 C   0  0  0  0  0  0  0  0  0  0  0  0
  148.7697  139.4573  154.1361 C   0  0  0  0  0  0  0  0  0  0  0  0
  148.1331  138.4993  153.4114 N   0  0  0  0  0  0  0  0  0  0  0  0
  146.8432  138.1245  153.4629 C   0  0  0  0  0  0  0  0  0  0  0  0
  145.9875  138.6058  154.2059 O   0  0  0  0  0  0  0  0  0  0  0  0
  146.5916  137.1402  152.5885 N   0  0  0  0  0  0  0  0  0  0  0  0
  145.2960  136.4975  152.4005 C   0  0  0  0  0  0  0  0  0  0  0  0
  145.3689  135.3709  151.3570 C   0  0  1  0  0  0  0  0  0  0  0  0
  146.2666  134.2077  151.7710 C   0  0  0  0  0  0  0  0  0  0  0  0
  145.7187  133.0865  150.9180 C   0  0  0  0  0  0  0  0  0  0  0  0
  144.2199  133.3779  150.9321 C   0  0  0  0  0  0  0  0  0  0  0  0
  144.0872  134.7788  151.1638 O   0  0  0  0  0  0  0  0  0  0  0  0
  146.1217  140.5165  154.3080 H   0  0  0  0  0  0  0  0  0  0  0  0
  146.8742  141.2943  152.8993 H   0  0  0  0  0  0  0  0  0  0  0  0
  146.7262  142.1795  154.4315 H   0  0  0  0  0  0  0  0  0  0  0  0
  152.1293  140.6204  155.9336 H   0  0  0  0  0  0  0  0  0  0  0  0
  151.5403  142.2364  155.7679 H   0  0  0  0  0  0  0  0  0  0  0  0
  150.5204  139.8981  159.2779 H   0  0  0  0  0  0  0  0  0  0  0  0
  151.5869  139.2132  158.0638 H   0  0  0  0  0  0  0  0  0  0  0  0
  149.8783  139.4328  157.7089 H   0  0  0  0  0  0  0  0  0  0  0  0
  148.9158  141.8197  157.4474 H   0  0  0  0  0  0  0  0  0  0  0  0
  149.9731  143.2145  157.6284 H   0  0  0  0  0  0  0  0  0  0  0  0
  149.5780  142.2252  159.0256 H   0  0  0  0  0  0  0  0  0  0  0  0
  152.0364  141.9859  159.4903 H   0  0  0  0  0  0  0  0  0  0  0  0
  152.5098  142.8662  158.0437 H   0  0  0  0  0  0  0  0  0  0  0  0
  153.1251  141.2420  158.3369 H   0  0  0  0  0  0  0  0  0  0  0  0
  150.7306  138.6157  154.7219 H   0  0  0  0  0  0  0  0  0  0  0  0
  148.7103  138.0119  152.7420 H   0  0  0  0  0  0  0  0  0  0  0  0
  147.3530  136.7999  152.0200 H   0  0  0  0  0  0  0  0  0  0  0  0
  144.9343  136.1076  153.3533 H   0  0  0  0  0  0  0  0  0  0  0  0
  144.5788  137.2555  152.0844 H   0  0  0  0  0  0  0  0  0  0  0  0
  145.7129  135.7575  150.3961 H   0  0  0  0  0  0  0  0  0  0  0  0
  147.3246  134.4028  151.5943 H   0  0  0  0  0  0  0  0  0  0  0  0
  146.1322  133.9731  152.8280 H   0  0  0  0  0  0  0  0  0  0  0  0
  146.1074  133.1676  149.9021 H   0  0  0  0  0  0  0  0  0  0  0  0
  145.9644  132.0954  151.3000 H   0  0  0  0  0  0  0  0  0  0  0  0
  143.7357  133.0832  150.0009 H   0  0  0  0  0  0  0  0  0  0  0  0
  143.7333  132.8454  151.7498 H   0  0  0  0  0  0  0  0  0  0  0  0
  1  2  1  0  0  0  0
  1 22  1  0  0  0  0
  1 23  1  0  0  0  0
  1 24  1  0  0  0  0
  2 11  1  0  0  0  0
  2  3  1  0  0  0  0
  3  4  2  0  0  0  0
  4  5  1  0  0  0  0
  4 10  1  0  0  0  0
  5  6  1  0  0  0  0
  5 25  1  0  0  0  0
  5 26  1  0  0  0  0
  6  7  1  0  0  0  0
  6  8  1  0  0  0  0
  6  9  1  0  0  0  0
  7 27  1  0  0  0  0
  7 28  1  0  0  0  0
  7 29  1  0  0  0  0
  8 30  1  0  0  0  0
  8 31  1  0  0  0  0
  8 32  1  0  0  0  0
  9 33  1  0  0  0  0
  9 34  1  0  0  0  0
  9 35  1  0  0  0  0
 10 11  2  0  0  0  0
 10 36  1  0  0  0  0
 11 12  1  0  0  0  0
 12 13  1  0  0  0  0
 12 37  1  0  0  0  0
 13 14  2  0  0  0  0
 13 15  1  0  0  0  0
 15 16  1  0  0  0  0
 15 38  1  0  0  0  0
 16 17  1  0  0  0  0
 16 39  1  0  0  0  0
 16 40  1  0  0  0  0
 17 21  1  0  0  0  0
 17 18  1  0  0  0  0
 17 41  1  0  0  0  0
 18 19  1  0  0  0  0
 18 42  1  0  0  0  0
 18 43  1  0  0  0  0
 19 20  1  0  0  0  0
 19 44  1  0  0  0  0
 19 45  1  0  0  0  0
 20 21  1  0  0  0  0
 20 46  1  0  0  0  0
 20 47  1  0  0  0  0
M  END
> <s_m_source_file>
AV-unprocessed.smi

> <i_m_source_file_index>
2659

> <i_lp_mmshare_version>
43012

> <i_f3d_flags>
0

> <s_epik_input>
W0NIM11uMW5jKFtDSDJdQyhbQ0gzXSkoW0NIM10pW0NIM10pW2NIXWMxW05IXUMoPU8pW05IXVtDSDJdW0NAQEhdMltDSDJdW0NIMl1bQ0gyXU8y

> <s_epik_cmdline>
J2VwaWtfcHl0aG9uJywgJy1waCcsICc3LjAnLCAnLXRuJywgJzgnLCAnLW1hJywgJzIwMCcsICctbWV0YWxfYmluZGluZycsICctaW1hZScsICc8aW5maWxlLm1hZT4nLCAnLW9tYWUnLCAnPG91dGZpbGUubWFlPic=

> <r_lp_tautomer_probability>
1

> <r_epik_Ionization_Penalty>
9.6187e-05

> <r_epik_Ionization_Penalty_Charging>
0

> <r_epik_Ionization_Penalty_Neutral>
9.6187e-05

> <r_epik_State_Penalty>
-0

> <r_epik_Charging_Adjusted_Penalty>
0

> <i_epik_Tot_Q>
0

> <i_epik_Tot_abs_Q>
0

> <r_epik_Metal_State_Penalty>
-0

> <b_epik_Metal_Only>
0

> <s_lp_Force_Field>
OPLS_2005

> <r_lp_Energy>
21.1922

> <b_lp_Chiralities_Consistent>
1

> <s_lp_Variant>
AV-unprocessed.smi:2659-2

> <Gold.Version>
5.8.1

> <Gold.Id.Protein>
6NUR|6NUR_protein|mol2

> <Gold.PLP.Fitness>
42.2361

> <Gold.PLP.PLP>
-37.6593

> <Gold.PLP.part.hbond>
-3.0000

> <Gold.PLP.part.metal>
0.0000

> <Gold.PLP.part.buried>
-4.7629

> <Gold.PLP.part.nonpolar>
-31.2569

> <Gold.PLP.part.repulsive>
0.6562

> <Gold.PLP.ligand.clash>
0.0000

> <Gold.PLP.ligand.torsion>
0.5422

> <Gold.PLP.Chemscore.Hbond>
1.8480

> <Gold.PLP.Chemscore.CHOScore>
0.0000

> <Gold.PLP.Chemscore.Metal>
0.0000

> <Gold.Chemscore.Hbonds>
donor molecule, donor type, donor heavy atom, donor atom, acceptor molecule, acceptor atom, score
      L1  H    12    37       P1  7948  0.88
      L1  H    15    38       P1  7948  1.00

> <Gold.PLP.Chemscore.Internal.Correction>
0.1172

> <Gold.Rescore>
     Score         DG    S(hbond)    S(metal)    S(lipo)     H(rot)  DE(clash)    DE(int)     intcor
     13.89     -16.83       1.88        0.00      76.01       1.49       0.00       2.94       ----

> <Gold.Chemscore.Fitness>
13.8901

> <Gold.Chemscore.DG>
-16.8306

> <Gold.Chemscore.ZeroCoef>
-5.4800

> <Gold.Chemscore.Hbond>
1.8772

> <Gold.Chemscore.Metal>
0.0000

> <Gold.Chemscore.Lipo>
76.0128

> <Gold.Chemscore.Internal_Hbond>
0.0000

> <Gold.Chemscore.DEClash>
0.0029

> <Gold.Chemscore.DEInternal>
2.9376

> <Gold.Chemscore.Rot>
1.4894

> <Gold.Chemscore.Internal.Correction>
   9.000000E+99

> <Gold.Chemscore.Hbonds>
donor molecule, donor type, donor heavy atom, donor atom, acceptor molecule, acceptor atom, score
      L1  H    12    37       P1  7948  0.85
      L1  H    15    38       P1  7948  0.96

> <Gold.Chemscore.Hbond.Weighted>
-6.2700

> <Gold.Chemscore.Metal.Weighted>
-0.0000

> <Gold.Chemscore.Lipo.Weighted>
-8.8935

> <Gold.Chemscore.Internal_Hbond.Weighted>
0.0000

> <Gold.Chemscore.DEClash.Weighted>
0.0029

> <Gold.Chemscore.DEInternal.Weighted>
2.9376

> <Gold.Chemscore.Rot.Weighted>
3.8129

> <Gold.Chemscore.Internal.Correction.Weighted>
   9.000000E+99

> <Gold.Protein.RotatedTorsions>
[ 6907 6896 6895 6894 ] final  -53.15 input  -60.11 | X-H torsion
[ 7974 7965 7964 7962 ] final   79.68 input  175.53 | X-H torsion
[ 8008 7997 7996 7995 ] final  154.94 input   59.86 | X-H torsion
[ 10167 10162 10161 10158 ] final  -75.52 input  -65.29 | X-H torsion
[ 10718 10713 10712 10709 ] final -175.06 input   66.30 | X-H torsion
[ 10763 10752 10751 10750 ] final  140.21 input  -60.55 | X-H torsion
[ 11005 11000 10999 10996 ] final  -96.52 input  -57.11 | X-H torsion

> <Gold.Protein.ActiveResidues>
 VAL166  LYS551  ARG553  GLY616  TRP617  ASP618  TYR619  PRO620  LYS621  CYS622 
 ASP623  PHE694  ASN695  SER759  ASP760  ASP761  ALA762  ILE779  LEU786  VAL792 
 PHE793  MET794  SER795  GLU796  ALA797  LYS798  CYS799  TRP800  GLU811  SER814 

> <Gold.Protein.RotatedAtoms>
  150.8453  134.7760  159.6965 H   0  0  0  0  0  0  0  0  0  0  0  0  # atno 6907 bound_to 6896
  152.4531  134.5347  159.9831 H   0  0  0  0  0  0  0  0  0  0  0  0  # atno 6908 bound_to 6896
  151.5478  133.3384  159.2983 H   0  0  0  0  0  0  0  0  0  0  0  0  # atno 6909 bound_to 6896
  145.6610  139.2471  143.1922 H   0  0  0  0  0  0  0  0  0  0  0  0  # atno 7974 bound_to 7965
  156.2505  140.1953  156.6724 H   0  0  0  0  0  0  0  0  0  0  0  0  # atno 8008 bound_to 7997
  154.6383  140.0587  156.9841 H   0  0  0  0  0  0  0  0  0  0  0  0  # atno 8009 bound_to 7997
  155.1602  140.3259  155.4415 H   0  0  0  0  0  0  0  0  0  0  0  0  # atno 8010 bound_to 7997
  140.4935  143.2375  151.7868 H   0  0  0  0  0  0  0  0  0  0  0  0  # atno 10167 bound_to 10162
  156.7943  130.9529  151.3120 H   0  0  0  0  0  0  0  0  0  0  0  0  # atno 10718 bound_to 10713
  153.9189  135.3003  155.3448 H   0  0  0  0  0  0  0  0  0  0  0  0  # atno 10763 bound_to 10752
  154.7586  135.4945  153.9424 H   0  0  0  0  0  0  0  0  0  0  0  0  # atno 10764 bound_to 10752
  153.1152  135.6769  153.9532 H   0  0  0  0  0  0  0  0  0  0  0  0  # atno 10765 bound_to 10752
  141.1409  133.8103  157.0582 H   0  0  0  0  0  0  0  0  0  0  0  0  # atno 11005 bound_to 11000
  146.1125  140.7411  142.9496 LP  0  0  0  0  0  0  0  0  0  0  0  0  # atno 17320 bound_to 7965
  144.7089  140.3961  143.7096 LP  0  0  0  0  0  0  0  0  0  0  0  0  # atno 17321 bound_to 7965
  139.4856  144.4617  151.9533 LP  0  0  0  0  0  0  0  0  0  0  0  0  # atno 17342 bound_to 10162
  140.3704  144.2862  150.5921 LP  0  0  0  0  0  0  0  0  0  0  0  0  # atno 17343 bound_to 10162
  157.6585  130.8945  149.9779 LP  0  0  0  0  0  0  0  0  0  0  0  0  # atno 17370 bound_to 10713
  156.1140  130.3648  150.0001 LP  0  0  0  0  0  0  0  0  0  0  0  0  # atno 17371 bound_to 10713
  140.0588  134.9766  157.1268 LP  0  0  0  0  0  0  0  0  0  0  0  0  # atno 17394 bound_to 11000
  140.3879  134.2216  155.7167 LP  0  0  0  0  0  0  0  0  0  0  0  0  # atno 17395 bound_to 11000

$$$$
