AV-unprocessed.smi:2090|AV-procd|sdf|8537|dock9
  -GOLD-   2272011263D 1   1.00000     0.00000
 Structure written by MMmdl.
 41 42  0  0  0  0  0  0  0  0  3 V2000
  150.9692  141.6598  156.2553 C   0  0  0  0  0  0  0  0  0  0  0  0
  151.1180  140.2129  155.9304 C   0  0  0  0  0  0  0  0  0  0  0  0
  150.2145  139.2228  155.6662 C   0  0  0  0  0  0  0  0  0  0  0  0
  151.0380  138.0869  155.4438 C   0  0  0  0  0  0  0  0  0  0  0  0
  150.4634  136.8265  155.1311 N   0  0  0  0  0  0  0  0  0  0  0  0
  150.8570  135.6007  155.5219 C   0  0  0  0  0  0  0  0  0  0  0  0
  151.8430  135.4648  156.2564 O   0  0  0  0  0  0  0  0  0  0  0  0
  150.0622  134.6175  155.0147 N   0  5  0  0  0  0  0  0  0  0  0  0
  148.6410  134.7703  154.7074 C   0  0  0  0  0  0  0  0  0  0  0  0
  148.1338  133.5569  153.9012 C   0  0  0  0  0  0  0  0  0  0  0  0
  147.2416  133.9686  152.7852 N   0  3  2  0  0  0  0  0  0  0  0  0
  146.0731  134.7790  153.2280 C   0  0  0  0  0  0  0  0  0  0  0  0
  145.2756  135.3078  152.0227 C   0  0  0  0  0  0  0  0  0  0  0  0
  144.8219  134.1752  151.0834 C   0  0  2  0  0  0  0  0  0  0  0  0
  143.6604  133.3494  151.6638 C   0  0  0  0  0  0  0  0  0  0  0  0
  146.0357  133.3084  150.7014 C   0  0  0  0  0  0  0  0  0  0  0  0
  146.8200  132.8252  151.9347 C   0  0  0  0  0  0  0  0  0  0  0  0
  152.3290  138.3611  155.5606 N   0  0  0  0  0  0  0  0  0  0  0  0
  152.3865  139.7242  155.8741 O   0  0  0  0  0  0  0  0  0  0  0  0
  150.0534  142.0622  155.8222 H   0  0  0  0  0  0  0  0  0  0  0  0
  151.8081  142.2357  155.8642 H   0  0  0  0  0  0  0  0  0  0  0  0
  150.9284  141.8101  157.3342 H   0  0  0  0  0  0  0  0  0  0  0  0
  149.1377  139.2999  155.6381 H   0  0  0  0  0  0  0  0  0  0  0  0
  149.6480  136.8553  154.5372 H   0  0  0  0  0  0  0  0  0  0  0  0
  148.0368  134.8821  155.6085 H   0  0  0  0  0  0  0  0  0  0  0  0
  148.4608  135.6752  154.1266 H   0  0  0  0  0  0  0  0  0  0  0  0
  149.0031  133.0278  153.5069 H   0  0  0  0  0  0  0  0  0  0  0  0
  147.6167  132.8425  154.5440 H   0  0  0  0  0  0  0  0  0  0  0  0
  145.4330  134.1773  153.8746 H   0  0  0  0  0  0  0  0  0  0  0  0
  146.4097  135.6247  153.8284 H   0  0  0  0  0  0  0  0  0  0  0  0
  144.4151  135.8829  152.3666 H   0  0  0  0  0  0  0  0  0  0  0  0
  145.9014  136.0057  151.4646 H   0  0  0  0  0  0  0  0  0  0  0  0
  144.4452  134.6359  150.1693 H   0  0  0  0  0  0  0  0  0  0  0  0
  143.9361  132.8425  152.5883 H   0  0  0  0  0  0  0  0  0  0  0  0
  143.3321  132.5875  150.9563 H   0  0  0  0  0  0  0  0  0  0  0  0
  142.8010  133.9846  151.8804 H   0  0  0  0  0  0  0  0  0  0  0  0
  145.7174  132.4549  150.1017 H   0  0  0  0  0  0  0  0  0  0  0  0
  146.7039  133.8911  150.0655 H   0  0  0  0  0  0  0  0  0  0  0  0
  147.7002  132.2760  151.5985 H   0  0  0  0  0  0  0  0  0  0  0  0
  146.2218  132.1298  152.5250 H   0  0  0  0  0  0  0  0  0  0  0  0
  147.8042  134.5632  152.1935 H   0  0  0  0  0  0  0  0  0  0  0  0
  1  2  1  0  0  0  0
  1 20  1  0  0  0  0
  1 21  1  0  0  0  0
  1 22  1  0  0  0  0
  2 19  1  0  0  0  0
  2  3  2  0  0  0  0
  3  4  1  0  0  0  0
  3 23  1  0  0  0  0
  4  5  1  0  0  0  0
  4 18  2  0  0  0  0
  5  6  1  0  0  0  0
  5 24  1  0  0  0  0
  6  7  2  0  0  0  0
  6  8  1  0  0  0  0
  8  9  1  0  0  0  0
  9 10  1  0  0  0  0
  9 25  1  0  0  0  0
  9 26  1  0  0  0  0
 10 11  1  0  0  0  0
 10 27  1  0  0  0  0
 10 28  1  0  0  0  0
 11 17  1  0  0  0  0
 11 12  1  0  0  0  0
 11 41  1  0  0  0  0
 12 13  1  0  0  0  0
 12 29  1  0  0  0  0
 12 30  1  0  0  0  0
 13 14  1  0  0  0  0
 13 31  1  0  0  0  0
 13 32  1  0  0  0  0
 14 15  1  0  0  0  0
 14 16  1  0  0  0  0
 14 33  1  0  0  0  0
 15 34  1  0  0  0  0
 15 35  1  0  0  0  0
 15 36  1  0  0  0  0
 16 17  1  0  0  0  0
 16 37  1  0  0  0  0
 16 38  1  0  0  0  0
 17 39  1  0  0  0  0
 17 40  1  0  0  0  0
 18 19  1  0  0  0  0
M  CHG  1   8  -1
M  CHG  1  11   1
M  END
> <s_m_source_file>
AV-unprocessed.smi

> <i_m_source_file_index>
2090

> <i_lp_mmshare_version>
43012

> <i_f3d_flags>
0

> <s_epik_input>
W0NIM11jMVtjSF1jKG5vMSlbTkhdQyg9TylbTkhdW0NIMl1bQ0gyXU4yW0NIMl1bQ0gyXVtDSF0oW0NIM10pW0NIMl1bQ0gyXTI=

> <s_epik_cmdline>
J2VwaWtfcHl0aG9uJywgJy1waCcsICc3LjAnLCAnLXRuJywgJzgnLCAnLW1hJywgJzIwMCcsICctbWV0YWxfYmluZGluZycsICctaW1hZScsICc8aW5maWxlLm1hZT4nLCAnLW9tYWUnLCAnPG91dGZpbGUubWFlPic=

> <r_epik_Ionization_Penalty>
6.7721

> <r_epik_Ionization_Penalty_Charging>
6.7721

> <r_epik_Ionization_Penalty_Neutral>
5.78572e-06

> <r_epik_State_Penalty>
6.79704

> <r_epik_Charging_Adjusted_Penalty>
13.5691

> <i_epik_Tot_Q>
0

> <i_epik_Tot_abs_Q>
2

> <r_epik_Metal_State_Penalty>
2.73105

> <b_epik_Metal_Only>
1

> <s_lp_Force_Field>
OPLS_2005

> <r_lp_Energy>
13.6419

> <b_lp_Chiralities_Consistent>
1

> <s_lp_Variant>
AV-unprocessed.smi:2090-6

> <Gold.Version>
5.8.1

> <Gold.Id.Protein>
6NUR|6NUR_protein|mol2

> <Gold.PLP.Fitness>
39.8096

> <Gold.PLP.PLP>
-29.4167

> <Gold.PLP.part.hbond>
-3.0000

> <Gold.PLP.part.metal>
0.0000

> <Gold.PLP.part.buried>
-3.0903

> <Gold.PLP.part.nonpolar>
-23.0894

> <Gold.PLP.part.repulsive>
0.2041

> <Gold.PLP.ligand.clash>
0.0000

> <Gold.PLP.ligand.torsion>
0.8326

> <Gold.PLP.Chemscore.Hbond>
4.0000

> <Gold.PLP.Chemscore.CHOScore>
0.0000

> <Gold.PLP.Chemscore.Metal>
0.0000

> <Gold.Chemscore.Hbonds>
donor molecule, donor type, donor heavy atom, donor atom, acceptor molecule, acceptor atom, score
      L1  H    11    41       P1  7948  2.00
      P1  H  7997  8008       L1    19  0.99
      P1  H 10752 10764       L1     7  1.00

> <Gold.PLP.Chemscore.Internal.Correction>
0.0581

> <Gold.Rescore>
     Score         DG    S(hbond)    S(metal)    S(lipo)     H(rot)  DE(clash)    DE(int)     intcor
     14.86     -16.84       2.62        0.00      56.10       1.54       0.18       1.80       ----

> <Gold.Chemscore.Fitness>
14.8633

> <Gold.Chemscore.DG>
-16.8374

> <Gold.Chemscore.ZeroCoef>
-5.4800

> <Gold.Chemscore.Hbond>
2.6164

> <Gold.Chemscore.Metal>
0.0000

> <Gold.Chemscore.Lipo>
56.0962

> <Gold.Chemscore.Internal_Hbond>
0.0000

> <Gold.Chemscore.DEClash>
0.1778

> <Gold.Chemscore.DEInternal>
1.7963

> <Gold.Chemscore.Rot>
1.5409

> <Gold.Chemscore.Internal.Correction>
   9.000000E+99

> <Gold.Chemscore.Hbonds>
donor molecule, donor type, donor heavy atom, donor atom, acceptor molecule, acceptor atom, score
      L1  H    11    41       P1  7948  0.47
      P1  H  7997  8008       L1    19  0.51
      P1  H 10752 10764       L1     7  0.60

> <Gold.Chemscore.Hbond.Weighted>
-8.7387

> <Gold.Chemscore.Metal.Weighted>
-0.0000

> <Gold.Chemscore.Lipo.Weighted>
-6.5633

> <Gold.Chemscore.Internal_Hbond.Weighted>
0.0000

> <Gold.Chemscore.DEClash.Weighted>
0.1778

> <Gold.Chemscore.DEInternal.Weighted>
1.7963

> <Gold.Chemscore.Rot.Weighted>
3.9446

> <Gold.Chemscore.Internal.Correction.Weighted>
   9.000000E+99

> <Gold.Protein.RotatedTorsions>
[ 6907 6896 6895 6894 ] final  -18.33 input  -60.11 | X-H torsion
[ 7974 7965 7964 7962 ] final -139.30 input  175.53 | X-H torsion
[ 8008 7997 7996 7995 ] final  -31.72 input   59.86 | X-H torsion
[ 10167 10162 10161 10158 ] final -121.78 input  -65.29 | X-H torsion
[ 10718 10713 10712 10709 ] final   91.95 input   66.30 | X-H torsion
[ 10763 10752 10751 10750 ] final  -17.25 input  -60.55 | X-H torsion
[ 11005 11000 10999 10996 ] final  -18.77 input  -57.11 | X-H torsion

> <Gold.Protein.ActiveResidues>
 VAL166  LYS551  ARG553  GLY616  TRP617  ASP618  TYR619  PRO620  LYS621  CYS622 
 ASP623  PHE694  ASN695  SER759  ASP760  ASP761  ALA762  ILE779  LEU786  VAL792 
 PHE793  MET794  SER795  GLU796  ALA797  LYS798  CYS799  TRP800  GLU811  SER814 

> <Gold.Protein.RotatedAtoms>
  151.2798  135.0710  159.9164 H   0  0  0  0  0  0  0  0  0  0  0  0  # atno 6907 bound_to 6896
  152.5336  134.0043  159.7919 H   0  0  0  0  0  0  0  0  0  0  0  0  # atno 6908 bound_to 6896
  151.0295  133.5753  159.2693 H   0  0  0  0  0  0  0  0  0  0  0  0  # atno 6909 bound_to 6896
  144.8688  140.6334  143.5280 H   0  0  0  0  0  0  0  0  0  0  0  0  # atno 7974 bound_to 7965
  154.4204  140.1757  156.1611 H   0  0  0  0  0  0  0  0  0  0  0  0  # atno 8008 bound_to 7997
  155.9837  140.3375  155.6663 H   0  0  0  0  0  0  0  0  0  0  0  0  # atno 8009 bound_to 7997
  155.6466  140.0686  157.2591 H   0  0  0  0  0  0  0  0  0  0  0  0  # atno 8010 bound_to 7997
  140.0213  143.5341  152.2219 H   0  0  0  0  0  0  0  0  0  0  0  0  # atno 10167 bound_to 10162
  157.6959  131.0426  150.3808 H   0  0  0  0  0  0  0  0  0  0  0  0  # atno 10718 bound_to 10713
  153.5710  135.7007  153.5505 H   0  0  0  0  0  0  0  0  0  0  0  0  # atno 10763 bound_to 10752
  153.3344  135.4038  155.1522 H   0  0  0  0  0  0  0  0  0  0  0  0  # atno 10764 bound_to 10752
  154.8633  135.3727  154.5233 H   0  0  0  0  0  0  0  0  0  0  0  0  # atno 10765 bound_to 10752
  140.8301  133.8003  155.9750 H   0  0  0  0  0  0  0  0  0  0  0  0  # atno 11005 bound_to 11000
  145.4171  139.1570  143.4094 LP  0  0  0  0  0  0  0  0  0  0  0  0  # atno 17320 bound_to 7965
  146.2915  140.4278  142.8738 LP  0  0  0  0  0  0  0  0  0  0  0  0  # atno 17321 bound_to 7965
  139.6138  144.7615  151.2892 LP  0  0  0  0  0  0  0  0  0  0  0  0  # atno 17342 bound_to 10162
  140.7341  143.6775  150.8029 LP  0  0  0  0  0  0  0  0  0  0  0  0  # atno 17343 bound_to 10162
  156.4222  130.3955  149.6817 LP  0  0  0  0  0  0  0  0  0  0  0  0  # atno 17370 bound_to 10713
  156.4064  130.7700  151.2711 LP  0  0  0  0  0  0  0  0  0  0  0  0  # atno 17371 bound_to 10713
  140.9007  134.2382  157.5043 LP  0  0  0  0  0  0  0  0  0  0  0  0  # atno 17394 bound_to 11000
  139.8705  134.9705  156.4704 LP  0  0  0  0  0  0  0  0  0  0  0  0  # atno 17395 bound_to 11000

$$$$
