AV-unprocessed.smi:1157|AV-procd|sdf|4908|dock2
  -GOLD-   22720 3483D 1   1.00000     0.00000
 Structure written by MMmdl.
 55 57  0  0  0  0  0  0  0  0  2 V2000
  144.0589  136.6450  152.9800 C   0  0  0  0  0  0  0  0  0  0  0  0
  145.3235  135.9819  152.3827 C   0  0  0  0  0  0  0  0  0  0  0  0
  145.7546  136.8324  151.1603 C   0  0  0  0  0  0  0  0  0  0  0  0
  146.4609  136.1271  153.4341 C   0  0  0  0  0  0  0  0  0  0  0  0
  146.8491  137.5212  153.6353 N   0  0  0  0  0  0  0  0  0  0  0  0
  147.8325  137.9374  154.4431 C   0  0  0  0  0  0  0  0  0  0  0  0
  148.5352  137.1761  155.1074 O   0  0  0  0  0  0  0  0  0  0  0  0
  147.9550  139.2756  154.4105 N   0  0  0  0  0  0  0  0  0  0  0  0
  148.8350  140.0989  155.1638 C   0  0  0  0  0  0  0  0  0  0  0  0
  149.8165  139.4664  155.9556 C   0  0  0  0  0  0  0  0  0  0  0  0
  150.7243  140.2454  156.7023 C   0  0  0  0  0  0  0  0  0  0  0  0
  150.6484  141.6570  156.6450 C   0  0  0  0  0  0  0  0  0  0  0  0
  151.5264  142.4981  157.3540 N   0  0  0  0  0  0  0  0  0  0  0  0
  152.1853  142.0595  158.5759 C   0  0  0  0  0  0  0  0  0  0  0  0
  152.4710  143.3390  159.3713 C   0  0  0  0  0  0  0  0  0  0  0  0
  152.4324  144.4498  158.3214 C   0  0  0  0  0  0  0  0  0  0  0  0
  151.3931  143.9459  157.3212 C   0  0  0  0  0  0  0  0  0  0  0  0
  149.7007  142.2216  155.8594 N   0  3  0  0  0  0  0  0  0  0  0  0
  148.8106  141.5137  155.1307 C   0  0  0  0  0  0  0  0  0  0  0  0
  145.1089  134.5587  151.9961 N   0  0  0  0  0  0  0  0  0  0  0  0
  144.0220  134.3382  151.0345 C   0  0  0  0  0  0  0  0  0  0  0  0
  143.7742  132.8427  150.7745 C   0  0  0  0  0  0  0  0  0  0  0  0
  144.9745  132.2295  150.3205 O   0  0  0  0  0  0  0  0  0  0  0  0
  146.0407  132.3690  151.2512 C   0  0  0  0  0  0  0  0  0  0  0  0
  146.3071  133.8608  151.5156 C   0  0  0  0  0  0  0  0  0  0  0  0
  144.2499  137.6865  153.2411 H   0  0  0  0  0  0  0  0  0  0  0  0
  143.7263  136.1503  153.8924 H   0  0  0  0  0  0  0  0  0  0  0  0
  143.2237  136.6465  152.2800 H   0  0  0  0  0  0  0  0  0  0  0  0
  146.0799  137.8293  151.4605 H   0  0  0  0  0  0  0  0  0  0  0  0
  144.9399  136.9817  150.4520 H   0  0  0  0  0  0  0  0  0  0  0  0
  146.5817  136.3714  150.6192 H   0  0  0  0  0  0  0  0  0  0  0  0
  146.1395  135.6945  154.3837 H   0  0  0  0  0  0  0  0  0  0  0  0
  147.3449  135.5568  153.1480 H   0  0  0  0  0  0  0  0  0  0  0  0
  146.3230  138.2126  153.1208 H   0  0  0  0  0  0  0  0  0  0  0  0
  147.3694  139.7586  153.7450 H   0  0  0  0  0  0  0  0  0  0  0  0
  149.8759  138.3882  155.9950 H   0  0  0  0  0  0  0  0  0  0  0  0
  151.4733  139.7501  157.3026 H   0  0  0  0  0  0  0  0  0  0  0  0
  151.5698  141.3698  159.1542 H   0  0  0  0  0  0  0  0  0  0  0  0
  153.1142  141.5526  158.3126 H   0  0  0  0  0  0  0  0  0  0  0  0
  151.6757  143.5013  160.1002 H   0  0  0  0  0  0  0  0  0  0  0  0
  153.4166  143.2980  159.9123 H   0  0  0  0  0  0  0  0  0  0  0  0
  152.1821  145.4255  158.7387 H   0  0  0  0  0  0  0  0  0  0  0  0
  153.4054  144.5301  157.8351 H   0  0  0  0  0  0  0  0  0  0  0  0
  151.5686  144.3458  156.3219 H   0  0  0  0  0  0  0  0  0  0  0  0
  150.3874  144.2265  157.6367 H   0  0  0  0  0  0  0  0  0  0  0  0
  148.1297  142.1107  154.5429 H   0  0  0  0  0  0  0  0  0  0  0  0
  143.0900  134.7705  151.3936 H   0  0  0  0  0  0  0  0  0  0  0  0
  144.2527  134.8248  150.0866 H   0  0  0  0  0  0  0  0  0  0  0  0
  143.4227  132.3468  151.6807 H   0  0  0  0  0  0  0  0  0  0  0  0
  143.0004  132.7132  150.0180 H   0  0  0  0  0  0  0  0  0  0  0  0
  145.7941  131.8507  152.1791 H   0  0  0  0  0  0  0  0  0  0  0  0
  146.9324  131.8911  150.8453 H   0  0  0  0  0  0  0  0  0  0  0  0
  146.6689  134.3211  150.5961 H   0  0  0  0  0  0  0  0  0  0  0  0
  147.1146  133.9274  152.2426 H   0  0  0  0  0  0  0  0  0  0  0  0
  149.6572  143.2397  155.8114 H   0  0  0  0  0  0  0  0  0  0  0  0
  1  2  1  0  0  0  0
  1 26  1  0  0  0  0
  1 27  1  0  0  0  0
  1 28  1  0  0  0  0
  2  3  1  0  0  0  0
  2  4  1  0  0  0  0
  2 20  1  0  0  0  0
  3 29  1  0  0  0  0
  3 30  1  0  0  0  0
  3 31  1  0  0  0  0
  4  5  1  0  0  0  0
  4 32  1  0  0  0  0
  4 33  1  0  0  0  0
  5  6  1  0  0  0  0
  5 34  1  0  0  0  0
  6  7  2  0  0  0  0
  6  8  1  0  0  0  0
  8  9  1  0  0  0  0
  8 35  1  0  0  0  0
  9 19  1  0  0  0  0
  9 10  2  0  0  0  0
 10 11  1  0  0  0  0
 10 36  1  0  0  0  0
 11 12  2  0  0  0  0
 11 37  1  0  0  0  0
 12 13  1  0  0  0  0
 12 18  1  0  0  0  0
 13 17  1  0  0  0  0
 13 14  1  0  0  0  0
 14 15  1  0  0  0  0
 14 38  1  0  0  0  0
 14 39  1  0  0  0  0
 15 16  1  0  0  0  0
 15 40  1  0  0  0  0
 15 41  1  0  0  0  0
 16 17  1  0  0  0  0
 16 42  1  0  0  0  0
 16 43  1  0  0  0  0
 17 44  1  0  0  0  0
 17 45  1  0  0  0  0
 18 19  2  0  0  0  0
 18 55  1  0  0  0  0
 19 46  1  0  0  0  0
 20 25  1  0  0  0  0
 20 21  1  0  0  0  0
 21 22  1  0  0  0  0
 21 47  1  0  0  0  0
 21 48  1  0  0  0  0
 22 23  1  0  0  0  0
 22 49  1  0  0  0  0
 22 50  1  0  0  0  0
 23 24  1  0  0  0  0
 24 25  1  0  0  0  0
 24 51  1  0  0  0  0
 24 52  1  0  0  0  0
 25 53  1  0  0  0  0
 25 54  1  0  0  0  0
M  CHG  1  18   1
M  END
> <s_m_source_file>
AV-unprocessed.smi

> <i_m_source_file_index>
1157

> <i_lp_mmshare_version>
43012

> <i_f3d_flags>
0

> <s_epik_input>
W0NIMl0xW0NIMl1PW0NIMl1bQ0gyXU4xQyhbQ0gzXSkoW0NIM10pW0NIMl1bTkhdQyg9TylbTkhdYzJbY0hdW2NIXWMobltjSF0yKU4zW0NIMl1bQ0gyXVtDSDJdW0NIMl0z

> <s_epik_cmdline>
J2VwaWtfcHl0aG9uJywgJy1waCcsICc3LjAnLCAnLXRuJywgJzgnLCAnLW1hJywgJzIwMCcsICctbWV0YWxfYmluZGluZycsICctaW1hZScsICc8aW5maWxlLm1hZT4nLCAnLW9tYWUnLCAnPG91dGZpbGUubWFlPic=

> <r_epik_Ionization_Penalty>
1.36967

> <r_epik_Ionization_Penalty_Charging>
1.10366

> <r_epik_Ionization_Penalty_Neutral>
0.266011

> <r_epik_State_Penalty>
1.45237

> <r_epik_Charging_Adjusted_Penalty>
2.55603

> <i_epik_Tot_Q>
1

> <i_epik_Tot_abs_Q>
1

> <r_epik_Metal_State_Penalty>
1.53545

> <b_epik_Metal_Only>
0

> <s_lp_Force_Field>
OPLS_2005

> <r_lp_Energy>
74.6442

> <b_lp_Chiralities_Consistent>
1

> <s_lp_Variant>
AV-unprocessed.smi:1157-3

> <Gold.Version>
5.8.1

> <Gold.Id.Protein>
6NUR|6NUR_protein|mol2

> <Gold.PLP.Fitness>
45.4609

> <Gold.PLP.PLP>
-39.6377

> <Gold.PLP.part.hbond>
-2.0000

> <Gold.PLP.part.metal>
0.0000

> <Gold.PLP.part.buried>
-0.2373

> <Gold.PLP.part.nonpolar>
-39.3178

> <Gold.PLP.part.repulsive>
0.5010

> <Gold.PLP.ligand.clash>
0.0000

> <Gold.PLP.ligand.torsion>
0.2464

> <Gold.PLP.Chemscore.Hbond>
2.0000

> <Gold.PLP.Chemscore.CHOScore>
0.0000

> <Gold.PLP.Chemscore.Metal>
0.0000

> <Gold.Chemscore.Hbonds>
donor molecule, donor type, donor heavy atom, donor atom, acceptor molecule, acceptor atom, score
      L1  H    18    55       P1  8028  2.00

> <Gold.PLP.Chemscore.Internal.Correction>
0.3159

> <Gold.Rescore>
     Score         DG    S(hbond)    S(metal)    S(lipo)     H(rot)  DE(clash)    DE(int)     intcor
     15.56     -18.08       0.98        0.00     110.29       1.40       0.84       1.68       ----

> <Gold.Chemscore.Fitness>
15.5612

> <Gold.Chemscore.DG>
-18.0799

> <Gold.Chemscore.ZeroCoef>
-5.4800

> <Gold.Chemscore.Hbond>
0.9839

> <Gold.Chemscore.Metal>
0.0000

> <Gold.Chemscore.Lipo>
110.2949

> <Gold.Chemscore.Internal_Hbond>
0.0000

> <Gold.Chemscore.DEClash>
0.8428

> <Gold.Chemscore.DEInternal>
1.6759

> <Gold.Chemscore.Rot>
1.4027

> <Gold.Chemscore.Internal.Correction>
   9.000000E+99

> <Gold.Chemscore.Hbonds>
donor molecule, donor type, donor heavy atom, donor atom, acceptor molecule, acceptor atom, score
      L1  H    18    55       P1  8028  0.98

> <Gold.Chemscore.Hbond.Weighted>
-3.2862

> <Gold.Chemscore.Metal.Weighted>
-0.0000

> <Gold.Chemscore.Lipo.Weighted>
-12.9045

> <Gold.Chemscore.Internal_Hbond.Weighted>
0.0000

> <Gold.Chemscore.DEClash.Weighted>
0.8428

> <Gold.Chemscore.DEInternal.Weighted>
1.6759

> <Gold.Chemscore.Rot.Weighted>
3.5908

> <Gold.Chemscore.Internal.Correction.Weighted>
   9.000000E+99

> <Gold.Protein.RotatedTorsions>
[ 6907 6896 6895 6894 ] final  -76.20 input  -60.11 | X-H torsion
[ 7974 7965 7964 7962 ] final  168.47 input  175.53 | X-H torsion
[ 8008 7997 7996 7995 ] final   70.30 input   59.86 | X-H torsion
[ 10167 10162 10161 10158 ] final  122.60 input  -65.29 | X-H torsion
[ 10718 10713 10712 10709 ] final    1.47 input   66.30 | X-H torsion
[ 10763 10752 10751 10750 ] final  -43.93 input  -60.55 | X-H torsion
[ 11005 11000 10999 10996 ] final  -37.39 input  -57.11 | X-H torsion

> <Gold.Protein.ActiveResidues>
 VAL166  LYS551  ARG553  GLY616  TRP617  ASP618  TYR619  PRO620  LYS621  CYS622 
 ASP623  PHE694  ASN695  SER759  ASP760  ASP761  ALA762  ILE779  LEU786  VAL792 
 PHE793  MET794  SER795  GLU796  ALA797  LYS798  CYS799  TRP800  GLU811  SER814 

> <Gold.Protein.RotatedAtoms>
  150.7035  134.4607  159.5379 H   0  0  0  0  0  0  0  0  0  0  0  0  # atno 6907 bound_to 6896
  152.2282  134.8344  160.0486 H   0  0  0  0  0  0  0  0  0  0  0  0  # atno 6908 bound_to 6896
  151.9170  133.3540  159.3920 H   0  0  0  0  0  0  0  0  0  0  0  0  # atno 6909 bound_to 6896
  144.7387  139.8912  143.6403 H   0  0  0  0  0  0  0  0  0  0  0  0  # atno 7974 bound_to 7965
  155.7367  140.3491  155.5085 H   0  0  0  0  0  0  0  0  0  0  0  0  # atno 8008 bound_to 7997
  155.9132  140.1054  157.1285 H   0  0  0  0  0  0  0  0  0  0  0  0  # atno 8009 bound_to 7997
  154.4059  140.1264  156.4571 H   0  0  0  0  0  0  0  0  0  0  0  0  # atno 8010 bound_to 7997
  139.5849  144.7002  151.3434 H   0  0  0  0  0  0  0  0  0  0  0  0  # atno 10167 bound_to 10162
  156.8487  130.5546  149.5671 H   0  0  0  0  0  0  0  0  0  0  0  0  # atno 10718 bound_to 10713
  154.0037  135.6690  153.4761 H   0  0  0  0  0  0  0  0  0  0  0  0  # atno 10763 bound_to 10752
  153.0651  135.5005  154.8178 H   0  0  0  0  0  0  0  0  0  0  0  0  # atno 10764 bound_to 10752
  154.7037  135.3084  154.9265 H   0  0  0  0  0  0  0  0  0  0  0  0  # atno 10765 bound_to 10752
  140.9948  133.6986  156.1915 H   0  0  0  0  0  0  0  0  0  0  0  0  # atno 11005 bound_to 11000
  146.1140  139.4149  143.0269 LP  0  0  0  0  0  0  0  0  0  0  0  0  # atno 17320 bound_to 7965
  145.7401  141.0011  143.1305 LP  0  0  0  0  0  0  0  0  0  0  0  0  # atno 17321 bound_to 7965
  140.7122  143.7360  150.7588 LP  0  0  0  0  0  0  0  0  0  0  0  0  # atno 17342 bound_to 10162
  140.0902  143.4885  152.2483 LP  0  0  0  0  0  0  0  0  0  0  0  0  # atno 17343 bound_to 10162
  156.0840  130.5843  150.9614 LP  0  0  0  0  0  0  0  0  0  0  0  0  # atno 17370 bound_to 10713
  157.6315  131.0920  150.8431 LP  0  0  0  0  0  0  0  0  0  0  0  0  # atno 17371 bound_to 10713
  140.6983  134.4592  157.5587 LP  0  0  0  0  0  0  0  0  0  0  0  0  # atno 17394 bound_to 11000
  139.9009  134.8557  156.1899 LP  0  0  0  0  0  0  0  0  0  0  0  0  # atno 17395 bound_to 11000

$$$$
