AV-unprocessed.smi:2124|AV-procd|sdf|8651|dock9
  -GOLD-   2272011403D 1   1.00000     0.00000
 Structure written by MMmdl.
 47 49  0  0  0  0  0  0  0  0  1 V2000
  148.2361  140.8152  154.1481 C   0  0  0  0  0  0  0  0  0  0  0  0
  149.4417  140.3105  154.9125 C   0  0  0  0  0  0  0  0  0  0  0  0
  150.6059  140.1260  154.3826 N   0  0  0  0  0  0  0  0  0  0  0  0
  151.6497  139.6572  155.1926 C   0  0  0  0  0  0  0  0  0  0  0  0
  152.9864  139.4755  154.4938 C   0  0  0  0  0  0  0  0  0  0  0  0
  151.4618  139.3938  156.5196 C   0  0  0  0  0  0  0  0  0  0  0  0
  152.5684  138.8755  157.4388 C   0  0  0  0  0  0  0  0  0  0  0  0
  152.5470  139.3830  158.8839 C   0  0  0  0  0  0  0  0  0  0  0  0
  152.4894  138.5762  159.8111 O   0  0  0  0  0  0  0  0  0  0  0  0
  152.5799  140.7133  159.0619 N   0  0  0  0  0  0  0  0  0  0  0  0
  152.5546  141.4124  160.3438 C   0  0  1  0  0  0  0  0  0  0  0  0
  153.8460  141.0883  161.1112 C   0  0  0  0  0  0  0  0  0  0  0  0
  152.3800  142.9311  160.1071 C   0  0  2  0  0  0  0  0  0  0  0  0
  151.7532  143.7065  161.2880 C   0  0  0  0  0  0  0  0  0  0  0  0
  150.6312  144.5189  160.6142 C   0  0  2  0  0  0  0  0  0  0  0  0
  149.4724  143.5720  160.2528 C   0  0  0  0  0  0  0  0  0  0  0  0
  150.0449  142.7762  159.0662 C   0  0  0  0  0  0  0  0  0  0  0  0
  151.4701  143.3501  158.9239 C   0  0  1  0  0  0  0  0  0  0  0  0
  151.2287  144.8217  159.2447 C   0  0  0  0  0  0  0  0  0  0  0  0
  150.1270  139.6032  157.1127 C   0  0  0  0  0  0  0  0  0  0  0  0
  149.8475  139.3880  158.2909 O   0  0  0  0  0  0  0  0  0  0  0  0
  149.1833  140.0583  156.2586 N   0  0  0  0  0  0  0  0  0  0  0  0
  148.2533  140.2185  156.6175 H   0  0  0  0  0  0  0  0  0  0  0  0
  147.3545  140.8870  154.7865 H   0  0  0  0  0  0  0  0  0  0  0  0
  148.0054  140.1411  153.3230 H   0  0  0  0  0  0  0  0  0  0  0  0
  148.4401  141.8041  153.7369 H   0  0  0  0  0  0  0  0  0  0  0  0
  153.7224  140.1739  154.8923 H   0  0  0  0  0  0  0  0  0  0  0  0
  152.9006  139.6575  153.4219 H   0  0  0  0  0  0  0  0  0  0  0  0
  153.3627  138.4620  154.6274 H   0  0  0  0  0  0  0  0  0  0  0  0
  152.5344  137.7872  157.4768 H   0  0  0  0  0  0  0  0  0  0  0  0
  153.5402  139.1041  156.9985 H   0  0  0  0  0  0  0  0  0  0  0  0
  152.6222  141.2926  158.2358 H   0  0  0  0  0  0  0  0  0  0  0  0
  151.7195  141.0560  160.9482 H   0  0  0  0  0  0  0  0  0  0  0  0
  153.8573  141.5655  162.0911 H   0  0  0  0  0  0  0  0  0  0  0  0
  154.7279  141.4268  160.5664 H   0  0  0  0  0  0  0  0  0  0  0  0
  153.9462  140.0142  161.2713 H   0  0  0  0  0  0  0  0  0  0  0  0
  153.3693  143.3512  159.9153 H   0  0  0  0  0  0  0  0  0  0  0  0
  151.3626  143.0539  162.0699 H   0  0  0  0  0  0  0  0  0  0  0  0
  152.4922  144.3646  161.7467 H   0  0  0  0  0  0  0  0  0  0  0  0
  150.3188  145.3925  161.1866 H   0  0  0  0  0  0  0  0  0  0  0  0
  149.1871  142.9289  161.0862 H   0  0  0  0  0  0  0  0  0  0  0  0
  148.5898  144.1346  159.9466 H   0  0  0  0  0  0  0  0  0  0  0  0
  150.0245  141.6995  159.2308 H   0  0  0  0  0  0  0  0  0  0  0  0
  149.4644  142.9748  158.1644 H   0  0  0  0  0  0  0  0  0  0  0  0
  151.9151  143.1706  157.9448 H   0  0  0  0  0  0  0  0  0  0  0  0
  150.5264  145.3048  158.5628 H   0  0  0  0  0  0  0  0  0  0  0  0
  152.1449  145.4132  159.2926 H   0  0  0  0  0  0  0  0  0  0  0  0
  1  2  1  0  0  0  0
  1 24  1  0  0  0  0
  1 25  1  0  0  0  0
  1 26  1  0  0  0  0
  2 22  1  0  0  0  0
  2  3  2  0  0  0  0
  3  4  1  0  0  0  0
  4  5  1  0  0  0  0
  4  6  2  0  0  0  0
  5 27  1  0  0  0  0
  5 28  1  0  0  0  0
  5 29  1  0  0  0  0
  6  7  1  0  0  0  0
  6 20  1  0  0  0  0
  7  8  1  0  0  0  0
  7 30  1  0  0  0  0
  7 31  1  0  0  0  0
  8  9  2  0  0  0  0
  8 10  1  0  0  0  0
 10 11  1  0  0  0  0
 10 32  1  0  0  0  0
 11 12  1  0  0  0  0
 11 13  1  0  0  0  0
 11 33  1  0  0  0  0
 12 34  1  0  0  0  0
 12 35  1  0  0  0  0
 12 36  1  0  0  0  0
 13 18  1  0  0  0  0
 13 14  1  0  0  0  0
 13 37  1  0  0  0  0
 14 15  1  0  0  0  0
 14 38  1  0  0  0  0
 14 39  1  0  0  0  0
 15 19  1  0  0  0  0
 15 16  1  0  0  0  0
 15 40  1  0  0  0  0
 16 17  1  0  0  0  0
 16 41  1  0  0  0  0
 16 42  1  0  0  0  0
 17 18  1  0  0  0  0
 17 43  1  0  0  0  0
 17 44  1  0  0  0  0
 18 19  1  0  0  0  0
 18 45  1  0  0  0  0
 19 46  1  0  0  0  0
 19 47  1  0  0  0  0
 20 21  2  0  0  0  0
 20 22  1  0  0  0  0
 22 23  1  0  0  0  0
M  END
> <s_m_source_file>
AV-unprocessed.smi

> <i_m_source_file_index>
2124

> <i_lp_mmshare_version>
43012

> <i_f3d_flags>
0

> <s_epik_input>
W0NIM11jMW5jKFtDSDNdKWMoYyg9TylbbkhdMSlbQ0gyXUMoPU8pW05IXVtDQEhdKFtDSDNdKVtDQEhdKFtDSDJdW0NASF0yMylbQ0BIXShbQ0gyXTMpW0NIMl1bQ0gyXTI=

> <s_epik_cmdline>
J2VwaWtfcHl0aG9uJywgJy1waCcsICc3LjAnLCAnLXRuJywgJzgnLCAnLW1hJywgJzIwMCcsICctbWV0YWxfYmluZGluZycsICctaW1hZScsICc8aW5maWxlLm1hZT4nLCAnLW9tYWUnLCAnPG91dGZpbGUubWFlPic=

> <r_lp_tautomer_probability>
0.839158

> <r_epik_Ionization_Penalty>
0.000383628

> <r_epik_Ionization_Penalty_Charging>
0.00035045

> <r_epik_Ionization_Penalty_Neutral>
3.31781e-05

> <r_epik_State_Penalty>
0.09125

> <r_epik_Charging_Adjusted_Penalty>
0.0916005

> <i_epik_Tot_Q>
0

> <i_epik_Tot_abs_Q>
0

> <r_epik_Metal_State_Penalty>
0.255229

> <b_epik_Metal_Only>
0

> <s_lp_Force_Field>
OPLS_2005

> <r_lp_Energy>
53.2281

> <b_lp_Chiralities_Consistent>
1

> <s_lp_Variant>
AV-unprocessed.smi:2124-2

> <Gold.Version>
5.8.1

> <Gold.Id.Protein>
6NUR|6NUR_protein|mol2

> <Gold.PLP.Fitness>
47.2857

> <Gold.PLP.PLP>
-46.1062

> <Gold.PLP.part.hbond>
-1.5060

> <Gold.PLP.part.metal>
0.0000

> <Gold.PLP.part.buried>
-2.9336

> <Gold.PLP.part.nonpolar>
-42.1678

> <Gold.PLP.part.repulsive>
0.2603

> <Gold.PLP.ligand.clash>
0.0000

> <Gold.PLP.ligand.torsion>
0.9216

> <Gold.PLP.Chemscore.Hbond>
1.0000

> <Gold.PLP.Chemscore.CHOScore>
0.0000

> <Gold.PLP.Chemscore.Metal>
0.0000

> <Gold.Chemscore.Hbonds>
donor molecule, donor type, donor heavy atom, donor atom, acceptor molecule, acceptor atom, score
      P1  H  7989  7998       L1     3  0.50

> <Gold.PLP.Chemscore.Internal.Correction>
0.0227

> <Gold.Rescore>
     Score         DG    S(hbond)    S(metal)    S(lipo)     H(rot)  DE(clash)    DE(int)     intcor
     15.58     -18.02       0.35        0.00     133.44       1.65       2.10       0.34       ----

> <Gold.Chemscore.Fitness>
15.5780

> <Gold.Chemscore.DG>
-18.0187

> <Gold.Chemscore.ZeroCoef>
-5.4800

> <Gold.Chemscore.Hbond>
0.3470

> <Gold.Chemscore.Metal>
0.0000

> <Gold.Chemscore.Lipo>
133.4391

> <Gold.Chemscore.Internal_Hbond>
0.0000

> <Gold.Chemscore.DEClash>
2.0994

> <Gold.Chemscore.DEInternal>
0.3413

> <Gold.Chemscore.Rot>
1.6534

> <Gold.Chemscore.Internal.Correction>
   9.000000E+99

> <Gold.Chemscore.Hbonds>
donor molecule, donor type, donor heavy atom, donor atom, acceptor molecule, acceptor atom, score
      P1  H  7989  7998       L1     3  0.02

> <Gold.Chemscore.Hbond.Weighted>
-1.1589

> <Gold.Chemscore.Metal.Weighted>
-0.0000

> <Gold.Chemscore.Lipo.Weighted>
-15.6124

> <Gold.Chemscore.Internal_Hbond.Weighted>
0.0000

> <Gold.Chemscore.DEClash.Weighted>
2.0994

> <Gold.Chemscore.DEInternal.Weighted>
0.3413

> <Gold.Chemscore.Rot.Weighted>
4.2326

> <Gold.Chemscore.Internal.Correction.Weighted>
   9.000000E+99

> <Gold.Protein.RotatedTorsions>
[ 6907 6896 6895 6894 ] final   90.10 input  -60.11 | X-H torsion
[ 7974 7965 7964 7962 ] final  -44.14 input  175.53 | X-H torsion
[ 8008 7997 7996 7995 ] final  -52.27 input   59.86 | X-H torsion
[ 10167 10162 10161 10158 ] final   35.08 input  -65.29 | X-H torsion
[ 10718 10713 10712 10709 ] final   30.79 input   66.30 | X-H torsion
[ 10763 10752 10751 10750 ] final  -73.52 input  -60.55 | X-H torsion
[ 11005 11000 10999 10996 ] final  -29.52 input  -57.11 | X-H torsion

> <Gold.Protein.ActiveResidues>
 VAL166  LYS551  ARG553  GLY616  TRP617  ASP618  TYR619  PRO620  LYS621  CYS622 
 ASP623  PHE694  ASN695  SER759  ASP760  ASP761  ALA762  ILE779  LEU786  VAL792 
 PHE793  MET794  SER795  GLU796  ALA797  LYS798  CYS799  TRP800  GLU811  SER814 

> <Gold.Protein.RotatedAtoms>
  152.5442  134.1864  159.8656 H   0  0  0  0  0  0  0  0  0  0  0  0  # atno 6907 bound_to 6896
  151.1863  133.4687  159.2602 H   0  0  0  0  0  0  0  0  0  0  0  0  # atno 6908 bound_to 6896
  151.1128  135.0048  159.8557 H   0  0  0  0  0  0  0  0  0  0  0  0  # atno 6909 bound_to 6896
  145.9950  140.7139  142.9298 H   0  0  0  0  0  0  0  0  0  0  0  0  # atno 7974 bound_to 7965
  154.4102  140.1228  156.4964 H   0  0  0  0  0  0  0  0  0  0  0  0  # atno 8008 bound_to 7997
  155.6938  140.3495  155.4885 H   0  0  0  0  0  0  0  0  0  0  0  0  # atno 8009 bound_to 7997
  155.9445  140.1093  157.1018 H   0  0  0  0  0  0  0  0  0  0  0  0  # atno 8010 bound_to 7997
  140.4255  144.1399  150.6153 H   0  0  0  0  0  0  0  0  0  0  0  0  # atno 10167 bound_to 10162
  157.2641  130.7176  149.6469 H   0  0  0  0  0  0  0  0  0  0  0  0  # atno 10718 bound_to 10713
  154.4606  135.5894  153.6253 H   0  0  0  0  0  0  0  0  0  0  0  0  # atno 10763 bound_to 10752
  152.9823  135.6043  154.3490 H   0  0  0  0  0  0  0  0  0  0  0  0  # atno 10764 bound_to 10752
  154.3362  135.2842  155.2425 H   0  0  0  0  0  0  0  0  0  0  0  0  # atno 10765 bound_to 10752
  140.9304  133.7342  156.0928 H   0  0  0  0  0  0  0  0  0  0  0  0  # atno 11005 bound_to 11000
  144.6901  140.3134  143.7244 LP  0  0  0  0  0  0  0  0  0  0  0  0  # atno 17320 bound_to 7965
  145.7574  139.1813  143.2287 LP  0  0  0  0  0  0  0  0  0  0  0  0  # atno 17321 bound_to 7965
  140.4486  143.2496  151.9378 LP  0  0  0  0  0  0  0  0  0  0  0  0  # atno 17342 bound_to 10162
  139.4783  144.5585  151.8277 LP  0  0  0  0  0  0  0  0  0  0  0  0  # atno 17343 bound_to 10162
  155.9663  130.4388  150.5232 LP  0  0  0  0  0  0  0  0  0  0  0  0  # atno 17370 bound_to 10713
  157.3143  131.0670  151.1978 LP  0  0  0  0  0  0  0  0  0  0  0  0  # atno 17371 bound_to 10713
  140.7870  134.3660  157.5474 LP  0  0  0  0  0  0  0  0  0  0  0  0  # atno 17394 bound_to 11000
  139.8795  134.9117  156.3043 LP  0  0  0  0  0  0  0  0  0  0  0  0  # atno 17395 bound_to 11000

$$$$
