AV-unprocessed.smi:3268|AV-procd|sdf|12509|dock4
  -GOLD-   2272018413D 1   1.00000     0.00000
 Structure written by MMmdl.
 40 41  0  0  0  0  0  0  0  0  2 V2000
  146.9001  142.2910  155.0555 C   0  0  0  0  0  0  0  0  0  0  0  0
  147.8724  141.5983  154.0788 C   0  0  1  0  0  0  0  0  0  0  0  0
  149.2612  141.3439  154.6915 C   0  0  0  0  0  0  0  0  0  0  0  0
  149.8952  140.3237  154.4185 O   0  0  0  0  0  0  0  0  0  0  0  0
  149.7253  142.2833  155.5319 N   0  0  0  0  0  0  0  0  0  0  0  0
  151.0290  142.2478  156.1835 C   0  0  0  0  0  0  0  0  0  0  0  0
  151.0538  141.2398  157.3489 C   0  0  0  0  0  0  0  0  0  0  0  0
  152.1494  141.5116  158.3139 N   0  3  0  0  0  0  0  0  0  0  0  0
  152.3481  140.3865  159.2654 C   0  0  0  0  0  0  0  0  0  0  0  0
  153.5760  140.6225  160.1612 C   0  0  0  0  0  0  0  0  0  0  0  0
  153.4617  141.9555  160.9114 C   0  0  0  0  0  0  0  0  0  0  0  0
  153.2242  143.0969  159.9148 C   0  0  0  0  0  0  0  0  0  0  0  0
  152.0013  142.8090  159.0275 C   0  0  0  0  0  0  0  0  0  0  0  0
  147.3101  140.3626  153.5464 N   0  0  0  0  0  0  0  0  0  0  0  0
  147.0786  139.9983  152.2834 C   0  0  0  0  0  0  0  0  0  0  0  0
  146.5854  138.7744  152.1575 N   0  0  0  0  0  0  0  0  0  0  0  0
  146.5359  138.4118  153.4736 C   0  0  0  0  0  0  0  0  0  0  0  0
  146.9664  139.3225  154.3466 N   0  0  0  0  0  0  0  0  0  0  0  0
  147.2930  143.2519  155.3894 H   0  0  0  0  0  0  0  0  0  0  0  0
  146.7111  141.6845  155.9423 H   0  0  0  0  0  0  0  0  0  0  0  0
  145.9392  142.4813  154.5765 H   0  0  0  0  0  0  0  0  0  0  0  0
  148.0190  142.2738  153.2345 H   0  0  0  0  0  0  0  0  0  0  0  0
  149.1455  143.0911  155.7084 H   0  0  0  0  0  0  0  0  0  0  0  0
  151.8043  142.0085  155.4536 H   0  0  0  0  0  0  0  0  0  0  0  0
  151.2367  143.2570  156.5365 H   0  0  0  0  0  0  0  0  0  0  0  0
  150.0954  141.2261  157.8704 H   0  0  0  0  0  0  0  0  0  0  0  0
  151.1925  140.2405  156.9337 H   0  0  0  0  0  0  0  0  0  0  0  0
  151.4530  140.2644  159.8776 H   0  0  0  0  0  0  0  0  0  0  0  0
  152.4846  139.4549  158.7146 H   0  0  0  0  0  0  0  0  0  0  0  0
  153.6820  139.8029  160.8728 H   0  0  0  0  0  0  0  0  0  0  0  0
  154.4800  140.6216  159.5509 H   0  0  0  0  0  0  0  0  0  0  0  0
  152.6368  141.9094  161.6236 H   0  0  0  0  0  0  0  0  0  0  0  0
  154.3663  142.1422  161.4911 H   0  0  0  0  0  0  0  0  0  0  0  0
  153.0837  144.0359  160.4511 H   0  0  0  0  0  0  0  0  0  0  0  0
  154.1082  143.2276  159.2891 H   0  0  0  0  0  0  0  0  0  0  0  0
  151.8873  143.6260  158.3165 H   0  0  0  0  0  0  0  0  0  0  0  0
  151.0944  142.7903  159.6340 H   0  0  0  0  0  0  0  0  0  0  0  0
  147.2785  140.6399  151.4379 H   0  0  0  0  0  0  0  0  0  0  0  0
  146.1776  137.4457  153.7971 H   0  0  0  0  0  0  0  0  0  0  0  0
  152.9987  141.5699  157.7700 H   0  0  0  0  0  0  0  0  0  0  0  0
  1  2  1  0  0  0  0
  1 19  1  0  0  0  0
  1 20  1  0  0  0  0
  1 21  1  0  0  0  0
  2  3  1  0  0  0  0
  2 14  1  0  0  0  0
  2 22  1  0  0  0  0
  3  4  2  0  0  0  0
  3  5  1  0  0  0  0
  5  6  1  0  0  0  0
  5 23  1  0  0  0  0
  6  7  1  0  0  0  0
  6 24  1  0  0  0  0
  6 25  1  0  0  0  0
  7  8  1  0  0  0  0
  7 26  1  0  0  0  0
  7 27  1  0  0  0  0
  8 13  1  0  0  0  0
  8  9  1  0  0  0  0
  8 40  1  0  0  0  0
  9 10  1  0  0  0  0
  9 28  1  0  0  0  0
  9 29  1  0  0  0  0
 10 11  1  0  0  0  0
 10 30  1  0  0  0  0
 10 31  1  0  0  0  0
 11 12  1  0  0  0  0
 11 32  1  0  0  0  0
 11 33  1  0  0  0  0
 12 13  1  0  0  0  0
 12 34  1  0  0  0  0
 12 35  1  0  0  0  0
 13 36  1  0  0  0  0
 13 37  1  0  0  0  0
 14 18  1  0  0  0  0
 14 15  1  0  0  0  0
 15 16  2  0  0  0  0
 15 38  1  0  0  0  0
 16 17  1  0  0  0  0
 17 18  2  0  0  0  0
 17 39  1  0  0  0  0
M  CHG  1   8   1
M  END
> <s_m_source_file>
AV-unprocessed.smi

> <i_m_source_file_index>
3268

> <i_lp_mmshare_version>
43012

> <i_f3d_flags>
0

> <s_epik_input>
bjFbY0hdbltjSF1uMVtDQEhdKFtDSDNdKUMoPU8pW05IXVtDSDJdW0NIMl1OMltDSDJdW0NIMl1bQ0gyXVtDSDJdW0NIMl0y

> <s_epik_cmdline>
J2VwaWtfcHl0aG9uJywgJy1waCcsICc3LjAnLCAnLXRuJywgJzgnLCAnLW1hJywgJzIwMCcsICctbWV0YWxfYmluZGluZycsICctaW1hZScsICc8aW5maWxlLm1hZT4nLCAnLW9tYWUnLCAnPG91dGZpbGUubWFlPic=

> <r_lp_tautomer_probability>
1

> <r_epik_Ionization_Penalty>
0.00266407

> <r_epik_Ionization_Penalty_Charging>
0.00265606

> <r_epik_Ionization_Penalty_Neutral>
8.01095e-06

> <r_epik_State_Penalty>
0.00184955

> <r_epik_Charging_Adjusted_Penalty>
0.00450561

> <i_epik_Tot_Q>
1

> <i_epik_Tot_abs_Q>
1

> <r_epik_Metal_State_Penalty>
-0

> <b_epik_Metal_Only>
0

> <s_lp_Force_Field>
OPLS_2005

> <r_lp_Energy>
21.812

> <b_lp_Chiralities_Consistent>
1

> <s_lp_Variant>
AV-unprocessed.smi:3268-2

> <Gold.Version>
5.8.1

> <Gold.Id.Protein>
6NUR|6NUR_protein|mol2

> <Gold.PLP.Fitness>
41.6553

> <Gold.PLP.PLP>
-36.3893

> <Gold.PLP.part.hbond>
-2.0000

> <Gold.PLP.part.metal>
0.0000

> <Gold.PLP.part.buried>
-2.4569

> <Gold.PLP.part.nonpolar>
-32.3223

> <Gold.PLP.part.repulsive>
0.8322

> <Gold.PLP.ligand.clash>
0.0000

> <Gold.PLP.ligand.torsion>
0.8732

> <Gold.PLP.Chemscore.Hbond>
1.9120

> <Gold.PLP.Chemscore.CHOScore>
0.3812

> <Gold.PLP.Chemscore.Metal>
0.0000

> <Gold.Chemscore.Hbonds>
donor molecule, donor type, donor heavy atom, donor atom, acceptor molecule, acceptor atom, score
      L1  H     5    23       P1  8028  1.00
      P1  H  7989  7998       L1     4  0.90
      L1  C    15    38       P1  7957  0.36

> <Gold.PLP.Chemscore.Internal.Correction>
0.1328

> <Gold.Rescore>
     Score         DG    S(hbond)    S(metal)    S(lipo)     H(rot)  DE(clash)    DE(int)     intcor
     11.28     -13.61       1.60        0.00      79.95       2.57       1.34       0.99       ----

> <Gold.Chemscore.Fitness>
11.2789

> <Gold.Chemscore.DG>
-13.6123

> <Gold.Chemscore.ZeroCoef>
-5.4800

> <Gold.Chemscore.Hbond>
1.6032

> <Gold.Chemscore.Metal>
0.0000

> <Gold.Chemscore.Lipo>
79.9502

> <Gold.Chemscore.Internal_Hbond>
0.0000

> <Gold.Chemscore.DEClash>
1.3386

> <Gold.Chemscore.DEInternal>
0.9947

> <Gold.Chemscore.Rot>
2.5690

> <Gold.Chemscore.Internal.Correction>
   9.000000E+99

> <Gold.Chemscore.Hbonds>
donor molecule, donor type, donor heavy atom, donor atom, acceptor molecule, acceptor atom, score
      L1  H     5    23       P1  8028  0.95
      P1  H  7989  7998       L1     4  0.54

> <Gold.Chemscore.Hbond.Weighted>
-5.3546

> <Gold.Chemscore.Metal.Weighted>
-0.0000

> <Gold.Chemscore.Lipo.Weighted>
-9.3542

> <Gold.Chemscore.Internal_Hbond.Weighted>
0.0000

> <Gold.Chemscore.DEClash.Weighted>
1.3386

> <Gold.Chemscore.DEInternal.Weighted>
0.9947

> <Gold.Chemscore.Rot.Weighted>
6.5766

> <Gold.Chemscore.Internal.Correction.Weighted>
   9.000000E+99

> <Gold.Protein.RotatedTorsions>
[ 6907 6896 6895 6894 ] final   93.92 input  -60.11 | X-H torsion
[ 7974 7965 7964 7962 ] final  108.52 input  175.53 | X-H torsion
[ 8008 7997 7996 7995 ] final -100.59 input   59.86 | X-H torsion
[ 10167 10162 10161 10158 ] final  -30.96 input  -65.29 | X-H torsion
[ 10718 10713 10712 10709 ] final   43.59 input   66.30 | X-H torsion
[ 10763 10752 10751 10750 ] final  103.71 input  -60.55 | X-H torsion
[ 11005 11000 10999 10996 ] final -173.72 input  -57.11 | X-H torsion

> <Gold.Protein.ActiveResidues>
 VAL166  LYS551  ARG553  GLY616  TRP617  ASP618  TYR619  PRO620  LYS621  CYS622 
 ASP623  PHE694  ASN695  SER759  ASP760  ASP761  ALA762  ILE779  LEU786  VAL792 
 PHE793  MET794  SER795  GLU796  ALA797  LYS798  CYS799  TRP800  GLU811  SER814 

> <Gold.Protein.RotatedAtoms>
  152.5451  134.1274  159.8424 H   0  0  0  0  0  0  0  0  0  0  0  0  # atno 6907 bound_to 6896
  151.1323  133.5021  159.2606 H   0  0  0  0  0  0  0  0  0  0  0  0  # atno 6908 bound_to 6896
  151.1662  135.0306  159.8786 H   0  0  0  0  0  0  0  0  0  0  0  0  # atno 6909 bound_to 6896
  145.2797  139.2637  143.3922 H   0  0  0  0  0  0  0  0  0  0  0  0  # atno 7974 bound_to 7965
  154.8307  140.0440  157.1475 H   0  0  0  0  0  0  0  0  0  0  0  0  # atno 8008 bound_to 7997
  154.9155  140.3019  155.5223 H   0  0  0  0  0  0  0  0  0  0  0  0  # atno 8009 bound_to 7997
  156.2987  140.2350  156.4199 H   0  0  0  0  0  0  0  0  0  0  0  0  # atno 8010 bound_to 7997
  140.7242  143.3808  151.1605 H   0  0  0  0  0  0  0  0  0  0  0  0  # atno 10167 bound_to 10162
  157.4176  130.7950  149.7486 H   0  0  0  0  0  0  0  0  0  0  0  0  # atno 10718 bound_to 10713
  153.3563  135.3967  155.1684 H   0  0  0  0  0  0  0  0  0  0  0  0  # atno 10763 bound_to 10752
  154.8671  135.3668  154.5157 H   0  0  0  0  0  0  0  0  0  0  0  0  # atno 10764 bound_to 10752
  153.5613  135.7081  153.5606 H   0  0  0  0  0  0  0  0  0  0  0  0  # atno 10765 bound_to 10752
  140.4826  134.6061  157.4925 H   0  0  0  0  0  0  0  0  0  0  0  0  # atno 11005 bound_to 11000
  146.3220  140.3260  142.8637 LP  0  0  0  0  0  0  0  0  0  0  0  0  # atno 17320 bound_to 7965
  144.9264  140.7926  143.5716 LP  0  0  0  0  0  0  0  0  0  0  0  0  # atno 17321 bound_to 7965
  139.7396  143.8945  152.3046 LP  0  0  0  0  0  0  0  0  0  0  0  0  # atno 17342 bound_to 10162
  139.8762  144.7042  150.8931 LP  0  0  0  0  0  0  0  0  0  0  0  0  # atno 17343 bound_to 10162
  155.9870  130.3970  150.3186 LP  0  0  0  0  0  0  0  0  0  0  0  0  # atno 17370 bound_to 10713
  157.1330  131.0277  151.2961 LP  0  0  0  0  0  0  0  0  0  0  0  0  # atno 17371 bound_to 10713
  139.9817  134.7126  155.9847 LP  0  0  0  0  0  0  0  0  0  0  0  0  # atno 17394 bound_to 11000
  141.1524  133.6547  156.4053 LP  0  0  0  0  0  0  0  0  0  0  0  0  # atno 17395 bound_to 11000

$$$$
