AV-unprocessed.smi:2921|AV-procd|sdf|11197|dock1
  -GOLD-   2272016 83D 1   1.00000     0.00000
 Structure written by MMmdl.
 41 42  0  0  0  0  0  0  0  0  1 V2000
  145.8421  140.5805  154.9235 C   0  0  0  0  0  0  0  0  0  0  0  0
  147.1032  141.4583  154.9173 C   0  0  0  0  0  0  0  0  0  0  0  0
  146.9674  142.6504  153.9556 C   0  0  0  0  0  0  0  0  0  0  0  0
  148.2903  140.6641  154.6157 N   0  0  0  0  0  0  0  0  0  0  0  0
  148.1668  139.4696  153.9905 N   0  0  0  0  0  0  0  0  0  0  0  0
  149.4036  139.0047  153.8774 C   0  0  0  0  0  0  0  0  0  0  0  0
  150.3793  139.8787  154.4337 C   0  0  0  0  0  0  0  0  0  0  0  0
  149.6192  140.9203  154.8919 C   0  0  0  0  0  0  0  0  0  0  0  0
  150.0268  142.0475  155.5340 N   0  0  0  0  0  0  0  0  0  0  0  0
  150.9314  142.1734  156.5205 C   0  0  0  0  0  0  0  0  0  0  0  0
  151.5673  141.2505  157.0300 O   0  0  0  0  0  0  0  0  0  0  0  0
  151.0732  143.4561  156.8830 N   0  0  0  0  0  0  0  0  0  0  0  0
  152.0097  143.9473  157.8883 C   0  0  0  0  0  0  0  0  0  0  0  0
  151.5131  143.7296  159.3313 C   0  0  0  0  0  0  0  0  0  0  0  0
  152.4094  142.8342  160.1711 C   0  0  0  0  0  0  0  0  0  0  0  0
  153.1850  141.8498  159.7180 C   0  0  0  0  0  0  0  0  0  0  0  0
  153.9732  141.1797  160.8096 C   0  0  0  0  0  0  0  0  0  0  0  0
  153.6194  141.9903  162.0755 C   0  0  0  0  0  0  0  0  0  0  0  0
  152.5416  143.0171  161.6628 C   0  0  0  0  0  0  0  0  0  0  0  0
  144.9640  141.1594  155.2110 H   0  0  0  0  0  0  0  0  0  0  0  0
  145.9410  139.7579  155.6326 H   0  0  0  0  0  0  0  0  0  0  0  0
  145.6483  140.1513  153.9401 H   0  0  0  0  0  0  0  0  0  0  0  0
  147.2216  141.8673  155.9207 H   0  0  0  0  0  0  0  0  0  0  0  0
  146.1266  143.2849  154.2368 H   0  0  0  0  0  0  0  0  0  0  0  0
  146.8032  142.3231  152.9283 H   0  0  0  0  0  0  0  0  0  0  0  0
  147.8653  143.2688  153.9694 H   0  0  0  0  0  0  0  0  0  0  0  0
  149.5555  138.0478  153.4003 H   0  0  0  0  0  0  0  0  0  0  0  0
  151.4490  139.7423  154.4824 H   0  0  0  0  0  0  0  0  0  0  0  0
  149.6085  142.9046  155.2042 H   0  0  0  0  0  0  0  0  0  0  0  0
  150.5087  144.1488  156.4134 H   0  0  0  0  0  0  0  0  0  0  0  0
  152.9672  143.4459  157.7448 H   0  0  0  0  0  0  0  0  0  0  0  0
  152.1947  145.0092  157.7183 H   0  0  0  0  0  0  0  0  0  0  0  0
  151.4506  144.7004  159.8241 H   0  0  0  0  0  0  0  0  0  0  0  0
  150.5007  143.3242  159.3376 H   0  0  0  0  0  0  0  0  0  0  0  0
  153.2629  141.5436  158.6852 H   0  0  0  0  0  0  0  0  0  0  0  0
  153.6699  140.1363  160.8996 H   0  0  0  0  0  0  0  0  0  0  0  0
  155.0408  141.2155  160.5906 H   0  0  0  0  0  0  0  0  0  0  0  0
  153.2607  141.3400  162.8741 H   0  0  0  0  0  0  0  0  0  0  0  0
  154.5039  142.5058  162.4515 H   0  0  0  0  0  0  0  0  0  0  0  0
  152.8425  144.0376  161.9013 H   0  0  0  0  0  0  0  0  0  0  0  0
  151.5963  142.8073  162.1619 H   0  0  0  0  0  0  0  0  0  0  0  0
  1  2  1  0  0  0  0
  1 20  1  0  0  0  0
  1 21  1  0  0  0  0
  1 22  1  0  0  0  0
  2  3  1  0  0  0  0
  2  4  1  0  0  0  0
  2 23  1  0  0  0  0
  3 24  1  0  0  0  0
  3 25  1  0  0  0  0
  3 26  1  0  0  0  0
  4  8  1  0  0  0  0
  4  5  1  0  0  0  0
  5  6  2  0  0  0  0
  6  7  1  0  0  0  0
  6 27  1  0  0  0  0
  7  8  2  0  0  0  0
  7 28  1  0  0  0  0
  8  9  1  0  0  0  0
  9 10  1  0  0  0  0
  9 29  1  0  0  0  0
 10 11  2  0  0  0  0
 10 12  1  0  0  0  0
 12 13  1  0  0  0  0
 12 30  1  0  0  0  0
 13 14  1  0  0  0  0
 13 31  1  0  0  0  0
 13 32  1  0  0  0  0
 14 15  1  0  0  0  0
 14 33  1  0  0  0  0
 14 34  1  0  0  0  0
 15 19  1  0  0  0  0
 15 16  2  0  0  0  0
 16 17  1  0  0  0  0
 16 35  1  0  0  0  0
 17 18  1  0  0  0  0
 17 36  1  0  0  0  0
 17 37  1  0  0  0  0
 18 19  1  0  0  0  0
 18 38  1  0  0  0  0
 18 39  1  0  0  0  0
 19 40  1  0  0  0  0
 19 41  1  0  0  0  0
M  END
> <s_m_source_file>
AV-unprocessed.smi

> <i_m_source_file_index>
2921

> <i_lp_mmshare_version>
43012

> <i_f3d_flags>
0

> <s_epik_input>
W0NIM11bQ0hdKFtDSDNdKW4xbltjSF1bY0hdYzFbTkhdQyg9TylbTkhdW0NIMl1bQ0gyXUMyPVtDSF1bQ0gyXVtDSDJdW0NIMl0y

> <s_epik_cmdline>
J2VwaWtfcHl0aG9uJywgJy1waCcsICc3LjAnLCAnLXRuJywgJzgnLCAnLW1hJywgJzIwMCcsICctbWV0YWxfYmluZGluZycsICctaW1hZScsICc8aW5maWxlLm1hZT4nLCAnLW9tYWUnLCAnPG91dGZpbGUubWFlPic=

> <r_lp_tautomer_probability>
1

> <r_epik_Ionization_Penalty>
4.14613e-05

> <r_epik_Ionization_Penalty_Charging>
0

> <r_epik_Ionization_Penalty_Neutral>
4.14613e-05

> <r_epik_State_Penalty>
-0

> <r_epik_Charging_Adjusted_Penalty>
0

> <i_epik_Tot_Q>
0

> <i_epik_Tot_abs_Q>
0

> <r_epik_Metal_State_Penalty>
-0

> <b_epik_Metal_Only>
0

> <s_lp_Force_Field>
OPLS_2005

> <r_lp_Energy>
26.255

> <b_lp_Chiralities_Consistent>
1

> <s_lp_Variant>
AV-unprocessed.smi:2921-1

> <Gold.Version>
5.8.1

> <Gold.Id.Protein>
6NUR|6NUR_protein|mol2

> <Gold.PLP.Fitness>
52.6862

> <Gold.PLP.PLP>
-47.1412

> <Gold.PLP.part.hbond>
-2.0000

> <Gold.PLP.part.metal>
0.0000

> <Gold.PLP.part.buried>
-3.3882

> <Gold.PLP.part.nonpolar>
-41.5491

> <Gold.PLP.part.repulsive>
0.3347

> <Gold.PLP.ligand.clash>
0.0000

> <Gold.PLP.ligand.torsion>
1.7426

> <Gold.PLP.Chemscore.Hbond>
1.9600

> <Gold.PLP.Chemscore.CHOScore>
1.0000

> <Gold.PLP.Chemscore.Metal>
0.0000

> <Gold.Chemscore.Hbonds>
donor molecule, donor type, donor heavy atom, donor atom, acceptor molecule, acceptor atom, score
      L1  H     9    29       P1  8028  0.96
      L1  H    12    30       P1  8028  1.00
      L1  C     6    27       P1  7948  1.00

> <Gold.PLP.Chemscore.Internal.Correction>
0.1502

> <Gold.Rescore>
     Score         DG    S(hbond)    S(metal)    S(lipo)     H(rot)  DE(clash)    DE(int)     intcor
     18.97     -20.54       1.92        0.00     106.79       1.50       0.02       1.56       ----

> <Gold.Chemscore.Fitness>
18.9668

> <Gold.Chemscore.DG>
-20.5403

> <Gold.Chemscore.ZeroCoef>
-5.4800

> <Gold.Chemscore.Hbond>
1.9192

> <Gold.Chemscore.Metal>
0.0000

> <Gold.Chemscore.Lipo>
106.7923

> <Gold.Chemscore.Internal_Hbond>
0.0000

> <Gold.Chemscore.DEClash>
0.0169

> <Gold.Chemscore.DEInternal>
1.5566

> <Gold.Chemscore.Rot>
1.5018

> <Gold.Chemscore.Internal.Correction>
   9.000000E+99

> <Gold.Chemscore.Hbonds>
donor molecule, donor type, donor heavy atom, donor atom, acceptor molecule, acceptor atom, score
      L1  H     9    29       P1  8028  0.89
      L1  H    12    30       P1  8028  0.97

> <Gold.Chemscore.Hbond.Weighted>
-6.4102

> <Gold.Chemscore.Metal.Weighted>
-0.0000

> <Gold.Chemscore.Lipo.Weighted>
-12.4947

> <Gold.Chemscore.Internal_Hbond.Weighted>
0.0000

> <Gold.Chemscore.DEClash.Weighted>
0.0169

> <Gold.Chemscore.DEInternal.Weighted>
1.5566

> <Gold.Chemscore.Rot.Weighted>
3.8446

> <Gold.Chemscore.Internal.Correction.Weighted>
   9.000000E+99

> <Gold.Protein.RotatedTorsions>
[ 6907 6896 6895 6894 ] final  118.56 input  -60.11 | X-H torsion
[ 7974 7965 7964 7962 ] final   49.88 input  175.53 | X-H torsion
[ 8008 7997 7996 7995 ] final   85.43 input   59.86 | X-H torsion
[ 10167 10162 10161 10158 ] final   83.44 input  -65.29 | X-H torsion
[ 10718 10713 10712 10709 ] final  -37.67 input   66.30 | X-H torsion
[ 10763 10752 10751 10750 ] final -129.64 input  -60.55 | X-H torsion
[ 11005 11000 10999 10996 ] final  106.11 input  -57.11 | X-H torsion

> <Gold.Protein.ActiveResidues>
 VAL166  LYS551  ARG553  GLY616  TRP617  ASP618  TYR619  PRO620  LYS621  CYS622 
 ASP623  PHE694  ASN695  SER759  ASP760  ASP761  ALA762  ILE779  LEU786  VAL792 
 PHE793  MET794  SER795  GLU796  ALA797  LYS798  CYS799  TRP800  GLU811  SER814 

> <Gold.Protein.RotatedAtoms>
  152.4534  133.7675  159.6780 H   0  0  0  0  0  0  0  0  0  0  0  0  # atno 6907 bound_to 6896
  150.8453  133.7861  159.3051 H   0  0  0  0  0  0  0  0  0  0  0  0  # atno 6908 bound_to 6896
  151.5474  135.1070  159.9993 H   0  0  0  0  0  0  0  0  0  0  0  0  # atno 6909 bound_to 6896
  146.0066  139.4497  142.9982 H   0  0  0  0  0  0  0  0  0  0  0  0  # atno 7974 bound_to 7965
  155.9499  140.3401  155.6399 H   0  0  0  0  0  0  0  0  0  0  0  0  # atno 8008 bound_to 7997
  155.6933  140.0751  157.2458 H   0  0  0  0  0  0  0  0  0  0  0  0  # atno 8009 bound_to 7997
  154.4119  140.1653  156.2098 H   0  0  0  0  0  0  0  0  0  0  0  0  # atno 8010 bound_to 7997
  139.9184  144.6228  150.8466 H   0  0  0  0  0  0  0  0  0  0  0  0  # atno 10167 bound_to 10162
  156.3125  130.4254  149.8036 H   0  0  0  0  0  0  0  0  0  0  0  0  # atno 10718 bound_to 10713
  154.8757  135.3889  154.3952 H   0  0  0  0  0  0  0  0  0  0  0  0  # atno 10763 bound_to 10752
  153.4683  135.7029  153.6014 H   0  0  0  0  0  0  0  0  0  0  0  0  # atno 10764 bound_to 10752
  153.4482  135.3840  155.2236 H   0  0  0  0  0  0  0  0  0  0  0  0  # atno 10765 bound_to 10752
  139.8810  134.9358  156.5617 H   0  0  0  0  0  0  0  0  0  0  0  0  # atno 11005 bound_to 11000
  145.7406  141.0009  143.1303 LP  0  0  0  0  0  0  0  0  0  0  0  0  # atno 17320 bound_to 7965
  144.6938  139.9094  143.7462 LP  0  0  0  0  0  0  0  0  0  0  0  0  # atno 17321 bound_to 7965
  140.7668  143.3315  151.2400 LP  0  0  0  0  0  0  0  0  0  0  0  0  # atno 17342 bound_to 10162
  139.6883  143.9736  152.2846 LP  0  0  0  0  0  0  0  0  0  0  0  0  # atno 17343 bound_to 10162
  156.5374  130.8285  151.3258 LP  0  0  0  0  0  0  0  0  0  0  0  0  # atno 17370 bound_to 10713
  157.7394  130.9831  150.2312 LP  0  0  0  0  0  0  0  0  0  0  0  0  # atno 17371 bound_to 10713
  140.8165  133.8388  155.8856 LP  0  0  0  0  0  0  0  0  0  0  0  0  # atno 17394 bound_to 11000
  140.9458  134.1842  157.4764 LP  0  0  0  0  0  0  0  0  0  0  0  0  # atno 17395 bound_to 11000

$$$$
