AV-unprocessed.smi:487|AV-procd|sdf|2700|dock7
  -GOLD-   2262023133D 1   1.00000     0.00000
 Structure written by MMmdl.
 40 41  0  0  0  0  0  0  0  0  2 V2000
  150.5198  140.9562  157.1217 O   0  0  0  0  0  0  0  0  0  0  0  0
  150.6086  142.0557  156.5757 C   0  0  0  0  0  0  0  0  0  0  0  0
  150.1388  142.2066  155.1183 C   0  0  0  0  0  0  0  0  0  0  0  0
  149.1565  141.1998  154.6752 N   0  0  0  0  0  0  0  0  0  0  0  0
  147.8151  141.6063  154.5638 C   0  0  0  0  0  0  0  0  0  0  0  0
  146.8448  140.7568  154.1761 C   0  0  0  0  0  0  0  0  0  0  0  0
  147.2148  139.3812  153.8671 C   0  0  0  0  0  0  0  0  0  0  0  0
  146.3423  138.5918  153.5107 O   0  0  0  0  0  0  0  0  0  0  0  0
  148.5292  139.0343  153.9923 N   0  5  0  0  0  0  0  0  0  0  0  0
  149.5050  139.9085  154.3899 C   0  0  0  0  0  0  0  0  0  0  0  0
  150.6833  139.5717  154.5074 O   0  0  0  0  0  0  0  0  0  0  0  0
  151.1076  143.1395  157.1951 N   0  0  0  0  0  0  0  0  0  0  0  0
  151.5914  143.2002  158.5718 C   0  0  0  0  0  0  0  0  0  0  0  0
  152.2364  144.5819  158.8307 C   0  0  0  0  0  0  0  0  0  0  0  0
  151.6365  145.3654  160.0142 C   0  0  0  0  0  0  0  0  0  0  0  0
  151.3578  144.5893  161.3185 C   0  0  0  0  0  0  0  0  0  0  0  0
  152.5263  143.7681  161.8913 C   0  0  0  0  0  0  0  0  0  0  0  0
  152.5882  142.2951  161.4313 C   0  0  0  0  0  0  0  0  0  0  0  0
  153.3748  142.0475  160.1324 C   0  0  0  0  0  0  0  0  0  0  0  0
  152.5510  142.0158  158.8284 C   0  0  0  0  0  0  0  0  0  0  0  0
  149.7221  143.2078  155.0014 H   0  0  0  0  0  0  0  0  0  0  0  0
  151.0157  142.1904  154.4690 H   0  0  0  0  0  0  0  0  0  0  0  0
  147.6250  142.6390  154.8165 H   0  0  0  0  0  0  0  0  0  0  0  0
  145.8187  141.0845  154.0981 H   0  0  0  0  0  0  0  0  0  0  0  0
  151.1345  144.0012  156.6686 H   0  0  0  0  0  0  0  0  0  0  0  0
  150.7215  143.0829  159.2165 H   0  0  0  0  0  0  0  0  0  0  0  0
  153.3114  144.4844  158.9718 H   0  0  0  0  0  0  0  0  0  0  0  0
  152.1470  145.2126  157.9445 H   0  0  0  0  0  0  0  0  0  0  0  0
  152.2956  146.2055  160.2354 H   0  0  0  0  0  0  0  0  0  0  0  0
  150.6966  145.8123  159.6878 H   0  0  0  0  0  0  0  0  0  0  0  0
  151.0754  145.3306  162.0669 H   0  0  0  0  0  0  0  0  0  0  0  0
  150.4740  143.9599  161.2169 H   0  0  0  0  0  0  0  0  0  0  0  0
  153.4775  144.2763  161.7290 H   0  0  0  0  0  0  0  0  0  0  0  0
  152.3947  143.7507  162.9738 H   0  0  0  0  0  0  0  0  0  0  0  0
  153.1032  141.7441  162.2193 H   0  0  0  0  0  0  0  0  0  0  0  0
  151.5934  141.8512  161.3782 H   0  0  0  0  0  0  0  0  0  0  0  0
  154.1976  142.7577  160.0541 H   0  0  0  0  0  0  0  0  0  0  0  0
  153.8632  141.0761  160.2176 H   0  0  0  0  0  0  0  0  0  0  0  0
  151.9715  141.0920  158.8077 H   0  0  0  0  0  0  0  0  0  0  0  0
  153.2532  141.9377  157.9970 H   0  0  0  0  0  0  0  0  0  0  0  0
  1  2  2  0  0  0  0
  2  3  1  0  0  0  0
  2 12  1  0  0  0  0
  3  4  1  0  0  0  0
  3 21  1  0  0  0  0
  3 22  1  0  0  0  0
  4 10  1  0  0  0  0
  4  5  1  0  0  0  0
  5  6  2  0  0  0  0
  5 23  1  0  0  0  0
  6  7  1  0  0  0  0
  6 24  1  0  0  0  0
  7  8  2  0  0  0  0
  7  9  1  0  0  0  0
  9 10  1  0  0  0  0
 10 11  2  0  0  0  0
 12 13  1  0  0  0  0
 12 25  1  0  0  0  0
 13 20  1  0  0  0  0
 13 14  1  0  0  0  0
 13 26  1  0  0  0  0
 14 15  1  0  0  0  0
 14 27  1  0  0  0  0
 14 28  1  0  0  0  0
 15 16  1  0  0  0  0
 15 29  1  0  0  0  0
 15 30  1  0  0  0  0
 16 17  1  0  0  0  0
 16 31  1  0  0  0  0
 16 32  1  0  0  0  0
 17 18  1  0  0  0  0
 17 33  1  0  0  0  0
 17 34  1  0  0  0  0
 18 19  1  0  0  0  0
 18 35  1  0  0  0  0
 18 36  1  0  0  0  0
 19 20  1  0  0  0  0
 19 37  1  0  0  0  0
 19 38  1  0  0  0  0
 20 39  1  0  0  0  0
 20 40  1  0  0  0  0
M  CHG  1   9  -1
M  END
> <s_m_source_file>
AV-unprocessed.smi

> <i_m_source_file_index>
487

> <i_lp_mmshare_version>
43012

> <i_f3d_flags>
0

> <s_epik_input>
Tz1jMVtuSF1jKD1PKVtjSF1bY0hdbjFbQ0gyXUMoPU8pW05IXVtDSF0yW0NIMl1bQ0gyXVtDSDJdW0NIMl1bQ0gyXVtDSDJdW0NIMl0y

> <s_epik_cmdline>
J2VwaWtfcHl0aG9uJywgJy1waCcsICc3LjAnLCAnLXRuJywgJzgnLCAnLW1hJywgJzIwMCcsICctbWV0YWxfYmluZGluZycsICctaW1hZScsICc8aW5maWxlLm1hZT4nLCAnLW9tYWUnLCAnPG91dGZpbGUubWFlPic=

> <r_lp_tautomer_probability>
0.999537

> <r_epik_Ionization_Penalty>
3.09244

> <r_epik_Ionization_Penalty_Charging>
2.84692e-08

> <r_epik_Ionization_Penalty_Neutral>
3.09244

> <r_epik_State_Penalty>
3.09149

> <r_epik_Charging_Adjusted_Penalty>
3.09149

> <i_epik_Tot_Q>
-1

> <i_epik_Tot_abs_Q>
1

> <r_epik_Metal_State_Penalty>
0.461034

> <b_epik_Metal_Only>
1

> <s_lp_Force_Field>
OPLS_2005

> <r_lp_Energy>
30.2877

> <b_lp_Chiralities_Consistent>
1

> <s_lp_Variant>
AV-unprocessed.smi:487-2

> <Gold.Version>
5.8.1

> <Gold.Id.Protein>
6NUR|6NUR_protein|mol2

> <Gold.PLP.Fitness>
45.4597

> <Gold.PLP.PLP>
-40.6568

> <Gold.PLP.part.hbond>
-1.7195

> <Gold.PLP.part.metal>
0.0000

> <Gold.PLP.part.buried>
0.0359

> <Gold.PLP.part.nonpolar>
-39.5164

> <Gold.PLP.part.repulsive>
0.5470

> <Gold.PLP.ligand.clash>
0.0000

> <Gold.PLP.ligand.torsion>
0.6049

> <Gold.PLP.Chemscore.Hbond>
1.0000

> <Gold.PLP.Chemscore.CHOScore>
1.0000

> <Gold.PLP.Chemscore.Metal>
0.0000

> <Gold.Chemscore.Hbonds>
donor molecule, donor type, donor heavy atom, donor atom, acceptor molecule, acceptor atom, score
      P1  H  7989  7998       L1    11  1.00
      L1  C     5    23       P1  8028  0.97

> <Gold.PLP.Chemscore.Internal.Correction>
0.0127

> <Gold.Rescore>
     Score         DG    S(hbond)    S(metal)    S(lipo)     H(rot)  DE(clash)    DE(int)     intcor
     15.82     -19.46       1.71        0.00     106.77       1.64       1.92       1.72       ----

> <Gold.Chemscore.Fitness>
15.8162

> <Gold.Chemscore.DG>
-19.4611

> <Gold.Chemscore.ZeroCoef>
-5.4800

> <Gold.Chemscore.Hbond>
1.7058

> <Gold.Chemscore.Metal>
0.0000

> <Gold.Chemscore.Lipo>
106.7687

> <Gold.Chemscore.Internal_Hbond>
0.0000

> <Gold.Chemscore.DEClash>
1.9233

> <Gold.Chemscore.DEInternal>
1.7217

> <Gold.Chemscore.Rot>
1.6438

> <Gold.Chemscore.Internal.Correction>
   9.000000E+99

> <Gold.Chemscore.Hbonds>
donor molecule, donor type, donor heavy atom, donor atom, acceptor molecule, acceptor atom, score
      P1  H  7989  7998       L1    11  0.45

> <Gold.Chemscore.Hbond.Weighted>
-5.6972

> <Gold.Chemscore.Metal.Weighted>
-0.0000

> <Gold.Chemscore.Lipo.Weighted>
-12.4919

> <Gold.Chemscore.Internal_Hbond.Weighted>
0.0000

> <Gold.Chemscore.DEClash.Weighted>
1.9233

> <Gold.Chemscore.DEInternal.Weighted>
1.7217

> <Gold.Chemscore.Rot.Weighted>
4.2080

> <Gold.Chemscore.Internal.Correction.Weighted>
   9.000000E+99

> <Gold.Protein.RotatedTorsions>
[ 6907 6896 6895 6894 ] final -160.82 input  -60.11 | X-H torsion
[ 7974 7965 7964 7962 ] final   80.72 input  175.53 | X-H torsion
[ 8008 7997 7996 7995 ] final   59.26 input   59.86 | X-H torsion
[ 10167 10162 10161 10158 ] final   51.56 input  -65.29 | X-H torsion
[ 10718 10713 10712 10709 ] final   57.27 input   66.30 | X-H torsion
[ 10763 10752 10751 10750 ] final  -53.41 input  -60.55 | X-H torsion
[ 11005 11000 10999 10996 ] final -113.70 input  -57.11 | X-H torsion

> <Gold.Protein.ActiveResidues>
 VAL166  LYS551  ARG553  GLY616  TRP617  ASP618  TYR619  PRO620  LYS621  CYS622 
 ASP623  PHE694  ASN695  SER759  ASP760  ASP761  ALA762  ILE779  LEU786  VAL792 
 PHE793  MET794  SER795  GLU796  ALA797  LYS798  CYS799  TRP800  GLU811  SER814 

> <Gold.Protein.RotatedAtoms>
  151.3550  133.3911  159.2683 H   0  0  0  0  0  0  0  0  0  0  0  0  # atno 6907 bound_to 6896
  150.9771  134.9134  159.7833 H   0  0  0  0  0  0  0  0  0  0  0  0  # atno 6908 bound_to 6896
  152.5204  134.3513  159.9304 H   0  0  0  0  0  0  0  0  0  0  0  0  # atno 6909 bound_to 6896
  145.6475  139.2440  143.1995 H   0  0  0  0  0  0  0  0  0  0  0  0  # atno 7974 bound_to 7965
  155.5633  140.3488  155.4496 H   0  0  0  0  0  0  0  0  0  0  0  0  # atno 8008 bound_to 7997
  156.0498  140.1315  157.0088 H   0  0  0  0  0  0  0  0  0  0  0  0  # atno 8009 bound_to 7997
  154.4429  140.1007  156.6345 H   0  0  0  0  0  0  0  0  0  0  0  0  # atno 8010 bound_to 7997
  140.2606  144.3377  150.6319 H   0  0  0  0  0  0  0  0  0  0  0  0  # atno 10167 bound_to 10162
  157.5501  130.8759  149.8950 H   0  0  0  0  0  0  0  0  0  0  0  0  # atno 10718 bound_to 10713
  154.1583  135.6479  153.4980 H   0  0  0  0  0  0  0  0  0  0  0  0  # atno 10763 bound_to 10752
  153.0118  135.5354  154.6737 H   0  0  0  0  0  0  0  0  0  0  0  0  # atno 10764 bound_to 10752
  154.6043  135.2947  155.0473 H   0  0  0  0  0  0  0  0  0  0  0  0  # atno 10765 bound_to 10752
  141.0598  133.9554  157.2688 H   0  0  0  0  0  0  0  0  0  0  0  0  # atno 11005 bound_to 11000
  146.1231  140.7284  142.9448 LP  0  0  0  0  0  0  0  0  0  0  0  0  # atno 17320 bound_to 7965
  144.7135  140.4124  143.7062 LP  0  0  0  0  0  0  0  0  0  0  0  0  # atno 17321 bound_to 7965
  140.5969  143.2167  151.7147 LP  0  0  0  0  0  0  0  0  0  0  0  0  # atno 17342 bound_to 10162
  139.5018  144.3854  152.0334 LP  0  0  0  0  0  0  0  0  0  0  0  0  # atno 17343 bound_to 10162
  156.0569  130.3707  150.1070 LP  0  0  0  0  0  0  0  0  0  0  0  0  # atno 17370 bound_to 10713
  156.9244  130.9693  151.3543 LP  0  0  0  0  0  0  0  0  0  0  0  0  # atno 17371 bound_to 10713
  139.9422  135.0189  156.8743 LP  0  0  0  0  0  0  0  0  0  0  0  0  # atno 17394 bound_to 11000
  140.5892  134.0278  155.7493 LP  0  0  0  0  0  0  0  0  0  0  0  0  # atno 17395 bound_to 11000

$$$$
