AV-unprocessed.smi:609|AV-procd|sdf|3051|dock7
  -GOLD-   2262023573D 1   1.00000     0.00000
 Structure written by MMmdl.
 43 45  0  0  0  0  0  0  0  0  2 V2000
  152.2799  144.1954  161.5794 C   0  0  0  0  0  0  0  0  0  0  0  0
  152.1615  143.2995  160.3581 C   0  0  0  0  0  0  0  0  0  0  0  0
  151.3376  143.7213  159.2899 C   0  0  0  0  0  0  0  0  0  0  0  0
  151.2508  142.8814  158.1861 C   0  0  0  0  0  0  0  0  0  0  0  0
  150.5384  143.0096  156.9915 N   0  3  0  0  0  0  0  0  0  0  0  0
  150.7711  141.9221  156.2051 C   0  0  0  0  0  0  0  0  0  0  0  0
  151.6203  141.1020  156.8812 N   0  0  0  0  0  0  0  0  0  0  0  0
  152.1931  139.8073  156.4906 C   0  0  0  0  0  0  0  0  0  0  0  0
  151.2118  138.9390  155.6796 C   0  0  2  0  0  0  0  0  0  0  0  0
  151.0066  139.5230  154.4073 O   0  0  0  0  0  0  0  0  0  0  0  0
  149.8588  138.7849  156.3914 C   0  0  0  0  0  0  0  0  0  0  0  0
  148.5485  138.2412  155.2526 S   0  0  0  0  0  0  0  0  0  0  0  0
  147.8393  139.8053  154.8305 C   0  0  0  0  0  0  0  0  0  0  0  0
  148.5227  140.9315  154.6397 N   0  0  0  0  0  0  0  0  0  0  0  0
  147.5635  141.8899  154.3317 C   0  0  0  0  0  0  0  0  0  0  0  0
  146.3199  141.3077  154.3460 C   0  0  0  0  0  0  0  0  0  0  0  0
  146.5128  139.9706  154.6670 N   0  0  0  0  0  0  0  0  0  0  0  0
  145.4749  138.9664  154.7965 C   0  0  0  0  0  0  0  0  0  0  0  0
  151.9467  141.6589  158.1217 C   0  0  0  0  0  0  0  0  0  0  0  0
  152.7620  141.2271  159.1648 C   0  0  0  0  0  0  0  0  0  0  0  0
  152.8644  142.0680  160.2962 C   0  0  0  0  0  0  0  0  0  0  0  0
  153.7485  141.6252  161.4497 C   0  0  0  0  0  0  0  0  0  0  0  0
  151.7168  145.1207  161.4522 H   0  0  0  0  0  0  0  0  0  0  0  0
  153.3212  144.4624  161.7603 H   0  0  0  0  0  0  0  0  0  0  0  0
  151.8930  143.6885  162.4636 H   0  0  0  0  0  0  0  0  0  0  0  0
  150.8000  144.6574  159.3297 H   0  0  0  0  0  0  0  0  0  0  0  0
  150.3607  141.7440  155.2216 H   0  0  0  0  0  0  0  0  0  0  0  0
  153.1102  139.9915  155.9296 H   0  0  0  0  0  0  0  0  0  0  0  0
  152.4880  139.2910  157.4052 H   0  0  0  0  0  0  0  0  0  0  0  0
  151.6473  137.9506  155.5289 H   0  0  0  0  0  0  0  0  0  0  0  0
  150.4938  138.9255  153.8840 H   0  0  0  0  0  0  0  0  0  0  0  0
  149.9469  138.0440  157.1870 H   0  0  0  0  0  0  0  0  0  0  0  0
  149.5680  139.7267  156.8587 H   0  0  0  0  0  0  0  0  0  0  0  0
  147.8399  142.9136  154.1259 H   0  0  0  0  0  0  0  0  0  0  0  0
  145.3403  141.7231  154.1598 H   0  0  0  0  0  0  0  0  0  0  0  0
  144.4974  139.4062  154.5964 H   0  0  0  0  0  0  0  0  0  0  0  0
  145.4789  138.5603  155.8084 H   0  0  0  0  0  0  0  0  0  0  0  0
  145.6514  138.1595  154.0846 H   0  0  0  0  0  0  0  0  0  0  0  0
  153.2974  140.2905  159.1155 H   0  0  0  0  0  0  0  0  0  0  0  0
  154.1722  140.6366  161.2707 H   0  0  0  0  0  0  0  0  0  0  0  0
  153.1767  141.5778  162.3767 H   0  0  0  0  0  0  0  0  0  0  0  0
  154.5748  142.3228  161.5865 H   0  0  0  0  0  0  0  0  0  0  0  0
  149.9396  143.7818  156.7282 H   0  0  0  0  0  0  0  0  0  0  0  0
  1  2  1  0  0  0  0
  1 23  1  0  0  0  0
  1 24  1  0  0  0  0
  1 25  1  0  0  0  0
  2 21  1  0  0  0  0
  2  3  2  0  0  0  0
  3  4  1  0  0  0  0
  3 26  1  0  0  0  0
  4 19  2  0  0  0  0
  4  5  1  0  0  0  0
  5  6  2  0  0  0  0
  5 43  1  0  0  0  0
  6  7  1  0  0  0  0
  6 27  1  0  0  0  0
  7  8  1  0  0  0  0
  7 19  1  0  0  0  0
  8  9  1  0  0  0  0
  8 28  1  0  0  0  0
  8 29  1  0  0  0  0
  9 10  1  0  0  0  0
  9 11  1  0  0  0  0
  9 30  1  0  0  0  0
 10 31  1  0  0  0  0
 11 12  1  0  0  0  0
 11 32  1  0  0  0  0
 11 33  1  0  0  0  0
 12 13  1  0  0  0  0
 13 17  1  0  0  0  0
 13 14  2  0  0  0  0
 14 15  1  0  0  0  0
 15 16  2  0  0  0  0
 15 34  1  0  0  0  0
 16 17  1  0  0  0  0
 16 35  1  0  0  0  0
 17 18  1  0  0  0  0
 18 36  1  0  0  0  0
 18 37  1  0  0  0  0
 18 38  1  0  0  0  0
 19 20  1  0  0  0  0
 20 21  2  0  0  0  0
 20 39  1  0  0  0  0
 21 22  1  0  0  0  0
 22 40  1  0  0  0  0
 22 41  1  0  0  0  0
 22 42  1  0  0  0  0
M  CHG  1   5   1
M  END
> <s_m_source_file>
AV-unprocessed.smi

> <i_m_source_file_index>
609

> <i_lp_mmshare_version>
43012

> <i_f3d_flags>
0

> <s_epik_input>
W0NIM11jKFtjSF0xKWMoW0NIM10pW2NIXWMoYzEyKW4oW2NIXW4yKVtDSDJdW0NASF0oW09IXSlbQ0gyXVNjM25bY0hdW2NIXW4zW0NIM10=

> <s_epik_cmdline>
J2VwaWtfcHl0aG9uJywgJy1waCcsICc3LjAnLCAnLXRuJywgJzgnLCAnLW1hJywgJzIwMCcsICctbWV0YWxfYmluZGluZycsICctaW1hZScsICc8aW5maWxlLm1hZT4nLCAnLW9tYWUnLCAnPG91dGZpbGUubWFlPic=

> <r_epik_Ionization_Penalty>
2.09683

> <r_epik_Ionization_Penalty_Charging>
2.09682

> <r_epik_Ionization_Penalty_Neutral>
2.49751e-06

> <r_epik_State_Penalty>
2.21514

> <r_epik_Charging_Adjusted_Penalty>
4.31197

> <i_epik_Tot_Q>
1

> <i_epik_Tot_abs_Q>
1

> <r_epik_Metal_State_Penalty>
1.52634

> <b_epik_Metal_Only>
0

> <s_lp_Force_Field>
OPLS_2005

> <r_lp_Energy>
12.8682

> <b_lp_Chiralities_Consistent>
1

> <s_lp_Variant>
AV-unprocessed.smi:609-7

> <Gold.Version>
5.8.1

> <Gold.Id.Protein>
6NUR|6NUR_protein|mol2

> <Gold.PLP.Fitness>
53.2353

> <Gold.PLP.PLP>
-41.8316

> <Gold.PLP.part.hbond>
-2.0000

> <Gold.PLP.part.metal>
0.0000

> <Gold.PLP.part.buried>
-5.3199

> <Gold.PLP.part.nonpolar>
-34.6403

> <Gold.PLP.part.repulsive>
0.1439

> <Gold.PLP.ligand.clash>
0.0000

> <Gold.PLP.ligand.torsion>
1.0989

> <Gold.PLP.Chemscore.Hbond>
3.0000

> <Gold.PLP.Chemscore.CHOScore>
1.5320

> <Gold.PLP.Chemscore.Metal>
0.0000

> <Gold.Chemscore.Hbonds>
donor molecule, donor type, donor heavy atom, donor atom, acceptor molecule, acceptor atom, score
      L1  H     5    43       P1  8028  2.00
      P1  H  7989  7998       L1    10  1.00
      L1  C    15    34       P1  8028  0.96
      L1  C    16    35       P1 10175  0.56

> <Gold.PLP.Chemscore.Internal.Correction>
0.0054

> <Gold.Rescore>
     Score         DG    S(hbond)    S(metal)    S(lipo)     H(rot)  DE(clash)    DE(int)     intcor
     16.43     -19.03       1.90        0.00     115.82       2.48       0.12       2.48       ----

> <Gold.Chemscore.Fitness>
16.4327

> <Gold.Chemscore.DG>
-19.0281

> <Gold.Chemscore.ZeroCoef>
-5.4800

> <Gold.Chemscore.Hbond>
1.8991

> <Gold.Chemscore.Metal>
0.0000

> <Gold.Chemscore.Lipo>
115.8194

> <Gold.Chemscore.Internal_Hbond>
0.0000

> <Gold.Chemscore.DEClash>
0.1202

> <Gold.Chemscore.DEInternal>
2.4753

> <Gold.Chemscore.Rot>
2.4789

> <Gold.Chemscore.Internal.Correction>
   9.000000E+99

> <Gold.Chemscore.Hbonds>
donor molecule, donor type, donor heavy atom, donor atom, acceptor molecule, acceptor atom, score
      L1  H     5    43       P1  8028  0.99
      P1  H  7989  7998       L1    10  0.85

> <Gold.Chemscore.Hbond.Weighted>
-6.3431

> <Gold.Chemscore.Metal.Weighted>
-0.0000

> <Gold.Chemscore.Lipo.Weighted>
-13.5509

> <Gold.Chemscore.Internal_Hbond.Weighted>
0.0000

> <Gold.Chemscore.DEClash.Weighted>
0.1202

> <Gold.Chemscore.DEInternal.Weighted>
2.4753

> <Gold.Chemscore.Rot.Weighted>
6.3459

> <Gold.Chemscore.Internal.Correction.Weighted>
   9.000000E+99

> <Gold.Protein.RotatedTorsions>
[ 6907 6896 6895 6894 ] final   62.36 input  -60.11 | X-H torsion
[ 7974 7965 7964 7962 ] final   72.88 input  175.53 | X-H torsion
[ 8008 7997 7996 7995 ] final  170.07 input   59.86 | X-H torsion
[ 10167 10162 10161 10158 ] final -109.51 input  -65.29 | X-H torsion
[ 10718 10713 10712 10709 ] final   55.95 input   66.30 | X-H torsion
[ 10763 10752 10751 10750 ] final  -38.52 input  -60.55 | X-H torsion
[ 11005 11000 10999 10996 ] final  -35.52 input  -57.11 | X-H torsion

> <Gold.Protein.ActiveResidues>
 VAL166  LYS551  ARG553  GLY616  TRP617  ASP618  TYR619  PRO620  LYS621  CYS622 
 ASP623  PHE694  ASN695  SER759  ASP760  ASP761  ALA762  ILE779  LEU786  VAL792 
 PHE793  MET794  SER795  GLU796  ALA797  LYS798  CYS799  TRP800  GLU811  SER814 

> <Gold.Protein.RotatedAtoms>
  152.4166  134.6031  160.0005 H   0  0  0  0  0  0  0  0  0  0  0  0  # atno 6907 bound_to 6896
  151.6193  133.3335  159.3092 H   0  0  0  0  0  0  0  0  0  0  0  0  # atno 6908 bound_to 6896
  150.8054  134.7215  159.6705 H   0  0  0  0  0  0  0  0  0  0  0  0  # atno 6909 bound_to 6896
  145.7479  139.2747  143.1448 H   0  0  0  0  0  0  0  0  0  0  0  0  # atno 7974 bound_to 7965
  156.1399  140.1547  156.8936 H   0  0  0  0  0  0  0  0  0  0  0  0  # atno 8008 bound_to 7997
  154.4979  140.0833  156.7774 H   0  0  0  0  0  0  0  0  0  0  0  0  # atno 8009 bound_to 7997
  155.4098  140.3418  155.4265 H   0  0  0  0  0  0  0  0  0  0  0  0  # atno 8010 bound_to 7997
  140.1545  143.4171  152.1471 H   0  0  0  0  0  0  0  0  0  0  0  0  # atno 10167 bound_to 10162
  157.5389  130.8683  149.8793 H   0  0  0  0  0  0  0  0  0  0  0  0  # atno 10718 bound_to 10713
  153.9142  135.6789  153.4750 H   0  0  0  0  0  0  0  0  0  0  0  0  # atno 10763 bound_to 10752
  153.1062  135.4804  154.8953 H   0  0  0  0  0  0  0  0  0  0  0  0  # atno 10764 bound_to 10752
  154.7511  135.3185  154.8511 H   0  0  0  0  0  0  0  0  0  0  0  0  # atno 10765 bound_to 10752
  140.9802  133.7060  156.1671 H   0  0  0  0  0  0  0  0  0  0  0  0  # atno 11005 bound_to 11000
  146.0385  140.8188  142.9840 LP  0  0  0  0  0  0  0  0  0  0  0  0  # atno 17320 bound_to 7965
  144.6856  140.2875  143.7283 LP  0  0  0  0  0  0  0  0  0  0  0  0  # atno 17321 bound_to 7965
  139.5410  144.7256  151.4734 LP  0  0  0  0  0  0  0  0  0  0  0  0  # atno 17342 bound_to 10162
  140.6682  143.8352  150.6967 LP  0  0  0  0  0  0  0  0  0  0  0  0  # atno 17343 bound_to 10162
  156.0481  130.3723  150.1268 LP  0  0  0  0  0  0  0  0  0  0  0  0  # atno 17370 bound_to 10713
  156.9449  130.9756  151.3509 LP  0  0  0  0  0  0  0  0  0  0  0  0  # atno 17371 bound_to 10713
  140.7197  134.4371  157.5576 LP  0  0  0  0  0  0  0  0  0  0  0  0  # atno 17394 bound_to 11000
  139.8947  134.8700  156.2164 LP  0  0  0  0  0  0  0  0  0  0  0  0  # atno 17395 bound_to 11000

$$$$
