AV-unprocessed.smi:1751|AV-procd|sdf|7057|dock10
  -GOLD-   22720 8273D 1   1.00000     0.00000
 Structure written by MMmdl.
 35 36  0  0  0  0  0  0  0  0  1 V2000
  151.7837  140.9443  158.4258 C   0  0  0  0  0  0  0  0  0  0  0  0
  151.8373  140.9046  157.0040 O   0  0  0  0  0  0  0  0  0  0  0  0
  151.2744  139.8236  156.3571 C   0  0  0  0  0  0  0  0  0  0  0  0
  150.9788  138.6688  157.1075 C   0  0  0  0  0  0  0  0  0  0  0  0
  150.4114  137.5610  156.4505 C   0  0  0  0  0  0  0  0  0  0  0  0
  150.1591  137.6338  155.0658 C   0  0  0  0  0  0  0  0  0  0  0  0
  149.5782  136.4954  154.4419 N   0  0  0  0  0  0  0  0  0  0  0  0
  149.1187  135.3618  154.9997 C   0  0  0  0  0  0  0  0  0  0  0  0
  149.1241  135.1023  156.2022 O   0  0  0  0  0  0  0  0  0  0  0  0
  148.6352  134.5301  154.0663 N   0  0  0  0  0  0  0  0  0  0  0  0
  148.0676  133.2094  154.3192 C   0  0  0  0  0  0  0  0  0  0  0  0
  147.7022  132.4880  153.0111 C   0  0  1  0  0  0  0  0  0  0  0  0
  146.8508  131.2304  153.1799 C   0  0  0  0  0  0  0  0  0  0  0  0
  146.2211  131.1092  151.8115 C   0  0  0  0  0  0  0  0  0  0  0  0
  145.9679  132.5700  151.4450 C   0  0  0  0  0  0  0  0  0  0  0  0
  146.9189  133.3384  152.1798 O   0  0  0  0  0  0  0  0  0  0  0  0
  150.4798  138.8444  154.4028 C   0  0  0  0  0  0  0  0  0  0  0  0
  151.0249  139.9106  155.0273 N   0  0  0  0  0  0  0  0  0  0  0  0
  152.2571  141.8604  158.7789 H   0  0  0  0  0  0  0  0  0  0  0  0
  152.3189  140.1031  158.8686 H   0  0  0  0  0  0  0  0  0  0  0  0
  150.7543  140.9443  158.7867 H   0  0  0  0  0  0  0  0  0  0  0  0
  151.1851  138.6333  158.1671 H   0  0  0  0  0  0  0  0  0  0  0  0
  150.1768  136.6649  157.0066 H   0  0  0  0  0  0  0  0  0  0  0  0
  149.4574  136.5706  153.4426 H   0  0  0  0  0  0  0  0  0  0  0  0
  148.6681  134.8292  153.1027 H   0  0  0  0  0  0  0  0  0  0  0  0
  148.7426  132.5967  154.9195 H   0  0  0  0  0  0  0  0  0  0  0  0
  147.1682  133.3469  154.9197 H   0  0  0  0  0  0  0  0  0  0  0  0
  148.6091  132.2366  152.4584 H   0  0  0  0  0  0  0  0  0  0  0  0
  147.4346  130.3536  153.4615 H   0  0  0  0  0  0  0  0  0  0  0  0
  146.0783  131.3871  153.9343 H   0  0  0  0  0  0  0  0  0  0  0  0
  146.9317  130.6650  151.1132 H   0  0  0  0  0  0  0  0  0  0  0  0
  145.3141  130.5042  151.8072 H   0  0  0  0  0  0  0  0  0  0  0  0
  146.0611  132.7450  150.3727 H   0  0  0  0  0  0  0  0  0  0  0  0
  144.9667  132.8749  151.7514 H   0  0  0  0  0  0  0  0  0  0  0  0
  150.2920  138.9953  153.3521 H   0  0  0  0  0  0  0  0  0  0  0  0
  1  2  1  0  0  0  0
  1 19  1  0  0  0  0
  1 20  1  0  0  0  0
  1 21  1  0  0  0  0
  2  3  1  0  0  0  0
  3 18  1  0  0  0  0
  3  4  2  0  0  0  0
  4  5  1  0  0  0  0
  4 22  1  0  0  0  0
  5  6  2  0  0  0  0
  5 23  1  0  0  0  0
  6  7  1  0  0  0  0
  6 17  1  0  0  0  0
  7  8  1  0  0  0  0
  7 24  1  0  0  0  0
  8  9  2  0  0  0  0
  8 10  1  0  0  0  0
 10 11  1  0  0  0  0
 10 25  1  0  0  0  0
 11 12  1  0  0  0  0
 11 26  1  0  0  0  0
 11 27  1  0  0  0  0
 12 16  1  0  0  0  0
 12 13  1  0  0  0  0
 12 28  1  0  0  0  0
 13 14  1  0  0  0  0
 13 29  1  0  0  0  0
 13 30  1  0  0  0  0
 14 15  1  0  0  0  0
 14 31  1  0  0  0  0
 14 32  1  0  0  0  0
 15 16  1  0  0  0  0
 15 33  1  0  0  0  0
 15 34  1  0  0  0  0
 17 18  2  0  0  0  0
 17 35  1  0  0  0  0
M  END
> <s_m_source_file>
AV-unprocessed.smi

> <i_m_source_file_index>
1751

> <i_lp_mmshare_version>
43012

> <i_f3d_flags>
0

> <s_epik_input>
W0NIM11PYzFbY0hdW2NIXWMoW2NIXW4xKVtOSF1DKD1PKVtOSF1bQ0gyXVtDQEBIXTJbQ0gyXVtDSDJdW0NIMl1PMg==

> <s_epik_cmdline>
J2VwaWtfcHl0aG9uJywgJy1waCcsICc3LjAnLCAnLXRuJywgJzgnLCAnLW1hJywgJzIwMCcsICctbWV0YWxfYmluZGluZycsICctaW1hZScsICc8aW5maWxlLm1hZT4nLCAnLW9tYWUnLCAnPG91dGZpbGUubWFlPic=

> <r_lp_tautomer_probability>
1

> <r_epik_Ionization_Penalty>
9.01694e-05

> <r_epik_Ionization_Penalty_Charging>
0

> <r_epik_Ionization_Penalty_Neutral>
9.01694e-05

> <r_epik_State_Penalty>
-0

> <r_epik_Charging_Adjusted_Penalty>
0

> <i_epik_Tot_Q>
0

> <i_epik_Tot_abs_Q>
0

> <r_epik_Metal_State_Penalty>
-0

> <b_epik_Metal_Only>
0

> <s_lp_Force_Field>
OPLS_2005

> <r_lp_Energy>
20.1941

> <b_lp_Chiralities_Consistent>
1

> <s_lp_Variant>
AV-unprocessed.smi:1751-2

> <Gold.Version>
5.8.1

> <Gold.Id.Protein>
6NUR|6NUR_protein|mol2

> <Gold.PLP.Fitness>
35.1508

> <Gold.PLP.PLP>
-23.7244

> <Gold.PLP.part.hbond>
-3.0000

> <Gold.PLP.part.metal>
0.0000

> <Gold.PLP.part.buried>
-2.8450

> <Gold.PLP.part.nonpolar>
-17.7151

> <Gold.PLP.part.repulsive>
0.2487

> <Gold.PLP.ligand.clash>
0.0000

> <Gold.PLP.ligand.torsion>
0.2764

> <Gold.PLP.Chemscore.Hbond>
2.9920

> <Gold.PLP.Chemscore.CHOScore>
1.0000

> <Gold.PLP.Chemscore.Metal>
0.0000

> <Gold.Chemscore.Hbonds>
donor molecule, donor type, donor heavy atom, donor atom, acceptor molecule, acceptor atom, score
      L1  H     7    24       P1  7948  1.00
      L1  H    10    25       P1  7948  0.99
      P1  H  7989  7998       L1    18  0.95
      L1  C    17    35       P1  7957  1.00

> <Gold.PLP.Chemscore.Internal.Correction>
0.0033

> <Gold.Rescore>
     Score         DG    S(hbond)    S(metal)    S(lipo)     H(rot)  DE(clash)    DE(int)     intcor
     14.68     -16.29       2.74        0.00      46.79       1.50       0.00       1.60       ----

> <Gold.Chemscore.Fitness>
14.6846

> <Gold.Chemscore.DG>
-16.2875

> <Gold.Chemscore.ZeroCoef>
-5.4800

> <Gold.Chemscore.Hbond>
2.7443

> <Gold.Chemscore.Metal>
0.0000

> <Gold.Chemscore.Lipo>
46.7857

> <Gold.Chemscore.Internal_Hbond>
0.0000

> <Gold.Chemscore.DEClash>
0.0000

> <Gold.Chemscore.DEInternal>
1.6029

> <Gold.Chemscore.Rot>
1.4971

> <Gold.Chemscore.Internal.Correction>
   9.000000E+99

> <Gold.Chemscore.Hbonds>
donor molecule, donor type, donor heavy atom, donor atom, acceptor molecule, acceptor atom, score
      L1  H     7    24       P1  7948  0.78
      L1  H    10    25       P1  7948  0.37
      P1  H  7989  7998       L1    18  0.22

> <Gold.Chemscore.Hbond.Weighted>
-9.1661

> <Gold.Chemscore.Metal.Weighted>
-0.0000

> <Gold.Chemscore.Lipo.Weighted>
-5.4739

> <Gold.Chemscore.Internal_Hbond.Weighted>
0.0000

> <Gold.Chemscore.DEClash.Weighted>
0.0000

> <Gold.Chemscore.DEInternal.Weighted>
1.6029

> <Gold.Chemscore.Rot.Weighted>
3.8326

> <Gold.Chemscore.Internal.Correction.Weighted>
   9.000000E+99

> <Gold.Protein.RotatedTorsions>
[ 6907 6896 6895 6894 ] final   14.53 input  -60.11 | X-H torsion
[ 7974 7965 7964 7962 ] final  147.44 input  175.53 | X-H torsion
[ 8008 7997 7996 7995 ] final  168.53 input   59.86 | X-H torsion
[ 10167 10162 10161 10158 ] final   90.09 input  -65.29 | X-H torsion
[ 10718 10713 10712 10709 ] final   86.45 input   66.30 | X-H torsion
[ 10763 10752 10751 10750 ] final  115.28 input  -60.55 | X-H torsion
[ 11005 11000 10999 10996 ] final -113.67 input  -57.11 | X-H torsion

> <Gold.Protein.ActiveResidues>
 VAL166  LYS551  ARG553  GLY616  TRP617  ASP618  TYR619  PRO620  LYS621  CYS622 
 ASP623  PHE694  ASN695  SER759  ASP760  ASP761  ALA762  ILE779  LEU786  VAL792 
 PHE793  MET794  SER795  GLU796  ALA797  LYS798  CYS799  TRP800  GLU811  SER814 

> <Gold.Protein.RotatedAtoms>
  151.8037  135.0701  160.0403 H   0  0  0  0  0  0  0  0  0  0  0  0  # atno 6907 bound_to 6896
  152.3070  133.5709  159.5664 H   0  0  0  0  0  0  0  0  0  0  0  0  # atno 6908 bound_to 6896
  150.7301  134.0124  159.3716 H   0  0  0  0  0  0  0  0  0  0  0  0  # atno 6909 bound_to 6896
  144.8591  139.6029  143.5939 H   0  0  0  0  0  0  0  0  0  0  0  0  # atno 7974 bound_to 7965
  156.1538  140.1588  156.8725 H   0  0  0  0  0  0  0  0  0  0  0  0  # atno 8008 bound_to 7997
  154.5096  140.0804  156.8000 H   0  0  0  0  0  0  0  0  0  0  0  0  # atno 8009 bound_to 7997
  155.3843  140.3406  155.4250 H   0  0  0  0  0  0  0  0  0  0  0  0  # atno 8010 bound_to 7997
  139.8508  144.6594  150.9172 H   0  0  0  0  0  0  0  0  0  0  0  0  # atno 10167 bound_to 10162
  157.6929  131.0216  150.2974 H   0  0  0  0  0  0  0  0  0  0  0  0  # atno 10718 bound_to 10713
  153.5198  135.3600  155.2626 H   0  0  0  0  0  0  0  0  0  0  0  0  # atno 10763 bound_to 10752
  154.8736  135.4043  154.3272 H   0  0  0  0  0  0  0  0  0  0  0  0  # atno 10764 bound_to 10752
  153.3941  135.7073  153.6540 H   0  0  0  0  0  0  0  0  0  0  0  0  # atno 10765 bound_to 10752
  141.0600  133.9551  157.2684 H   0  0  0  0  0  0  0  0  0  0  0  0  # atno 11005 bound_to 11000
  146.2846  139.6970  142.9204 LP  0  0  0  0  0  0  0  0  0  0  0  0  # atno 17320 bound_to 7965
  145.4348  141.0418  143.2891 LP  0  0  0  0  0  0  0  0  0  0  0  0  # atno 17321 bound_to 7965
  140.7787  143.3829  151.1445 LP  0  0  0  0  0  0  0  0  0  0  0  0  # atno 17342 bound_to 10162
  139.7467  143.8841  152.3065 LP  0  0  0  0  0  0  0  0  0  0  0  0  # atno 17343 bound_to 10162
  156.3495  130.3828  149.7341 LP  0  0  0  0  0  0  0  0  0  0  0  0  # atno 17370 bound_to 10713
  156.4823  130.8047  151.3060 LP  0  0  0  0  0  0  0  0  0  0  0  0  # atno 17371 bound_to 10713
  139.9424  135.0189  156.8749 LP  0  0  0  0  0  0  0  0  0  0  0  0  # atno 17394 bound_to 11000
  140.5888  134.0282  155.7491 LP  0  0  0  0  0  0  0  0  0  0  0  0  # atno 17395 bound_to 11000

$$$$
