AV-unprocessed.smi:2154|AV-procd|sdf|8773|dock5
  -GOLD-   2272011553D 1   1.00000     0.00000
 Structure written by MMmdl.
 32 33  0  0  0  0  0  0  0  0  1 V2000
  151.6820  145.2569  159.0379 C   0  0  0  0  0  0  0  0  0  0  0  0
  152.1737  143.9895  158.3729 C   0  0  1  0  0  0  0  0  0  0  0  0
  152.4879  142.7609  159.1955 C   0  0  0  0  0  0  0  0  0  0  0  0
  151.2835  142.7700  158.2841 C   0  0  2  0  0  0  0  0  0  0  0  0
  151.2607  141.9059  157.0373 C   0  0  0  0  0  0  0  0  0  0  0  0
  150.0978  142.0951  156.1801 N   0  0  0  0  0  0  0  0  0  0  0  0
  149.7641  141.3049  155.1486 C   0  0  0  0  0  0  0  0  0  0  0  0
  150.4172  140.3129  154.8214 O   0  0  0  0  0  0  0  0  0  0  0  0
  148.4845  141.6884  154.3915 C   0  0  0  0  0  0  0  0  0  0  0  0
  147.4909  140.6054  154.3520 N   0  0  0  0  0  0  0  0  0  0  0  0
  147.7820  139.4111  153.7082 C   0  0  0  0  0  0  0  0  0  0  0  0
  146.9115  138.3771  153.6254 C   0  0  0  0  0  0  0  0  0  0  0  0
  145.5868  138.4770  154.2283 C   0  0  0  0  0  0  0  0  0  0  0  0
  144.7304  137.5956  154.2086 O   0  0  0  0  0  0  0  0  0  0  0  0
  145.3307  139.6948  154.8639 N   0  0  0  0  0  0  0  0  0  0  0  0
  146.2223  140.7649  154.9510 C   0  0  0  0  0  0  0  0  0  0  0  0
  145.8929  141.7983  155.5322 O   0  0  0  0  0  0  0  0  0  0  0  0
  144.4244  139.8114  155.2936 H   0  0  0  0  0  0  0  0  0  0  0  0
  151.0358  145.0250  159.8851 H   0  0  0  0  0  0  0  0  0  0  0  0
  151.1177  145.8580  158.3251 H   0  0  0  0  0  0  0  0  0  0  0  0
  152.5278  145.8439  159.3961 H   0  0  0  0  0  0  0  0  0  0  0  0
  152.8268  144.1709  157.5215 H   0  0  0  0  0  0  0  0  0  0  0  0
  153.3477  142.1650  158.8957 H   0  0  0  0  0  0  0  0  0  0  0  0
  152.3047  142.8063  160.2670 H   0  0  0  0  0  0  0  0  0  0  0  0
  150.3219  142.8331  158.7903 H   0  0  0  0  0  0  0  0  0  0  0  0
  152.1534  142.1086  156.4445 H   0  0  0  0  0  0  0  0  0  0  0  0
  151.3264  140.8588  157.3370 H   0  0  0  0  0  0  0  0  0  0  0  0
  149.5041  142.8858  156.3838 H   0  0  0  0  0  0  0  0  0  0  0  0
  148.0601  142.5722  154.8703 H   0  0  0  0  0  0  0  0  0  0  0  0
  148.7364  142.0040  153.3768 H   0  0  0  0  0  0  0  0  0  0  0  0
  148.7504  139.2940  153.2430 H   0  0  0  0  0  0  0  0  0  0  0  0
  147.1967  137.4718  153.1094 H   0  0  0  0  0  0  0  0  0  0  0  0
  1  2  1  0  0  0  0
  1 19  1  0  0  0  0
  1 20  1  0  0  0  0
  1 21  1  0  0  0  0
  2  4  1  0  0  0  0
  2  3  1  0  0  0  0
  2 22  1  0  0  0  0
  3  4  1  0  0  0  0
  3 23  1  0  0  0  0
  3 24  1  0  0  0  0
  4  5  1  0  0  0  0
  4 25  1  0  0  0  0
  5  6  1  0  0  0  0
  5 26  1  0  0  0  0
  5 27  1  0  0  0  0
  6  7  1  0  0  0  0
  6 28  1  0  0  0  0
  7  8  2  0  0  0  0
  7  9  1  0  0  0  0
  9 10  1  0  0  0  0
  9 29  1  0  0  0  0
  9 30  1  0  0  0  0
 10 16  1  0  0  0  0
 10 11  1  0  0  0  0
 11 12  2  0  0  0  0
 11 31  1  0  0  0  0
 12 13  1  0  0  0  0
 12 32  1  0  0  0  0
 13 14  2  0  0  0  0
 13 15  1  0  0  0  0
 15 18  1  0  0  0  0
 15 16  1  0  0  0  0
 16 17  2  0  0  0  0
M  END
> <s_m_source_file>
AV-unprocessed.smi

> <i_m_source_file_index>
2154

> <i_lp_mmshare_version>
43012

> <i_f3d_flags>
0

> <s_epik_input>
W0NIM11bQ0BASF0xW0NIMl1bQ0BIXTFbQ0gyXVtOSF1DKD1PKVtDSDJdbjJbY0hdW2NIXWMoPU8pW25IXWMyPU8=

> <s_epik_cmdline>
J2VwaWtfcHl0aG9uJywgJy1waCcsICc3LjAnLCAnLXRuJywgJzgnLCAnLW1hJywgJzIwMCcsICctbWV0YWxfYmluZGluZycsICctaW1hZScsICc8aW5maWxlLm1hZT4nLCAnLW9tYWUnLCAnPG91dGZpbGUubWFlPic=

> <r_lp_tautomer_probability>
0.999537

> <r_epik_Ionization_Penalty>
0.00305319

> <r_epik_Ionization_Penalty_Charging>
0.00305317

> <r_epik_Ionization_Penalty_Neutral>
2.06703e-08

> <r_epik_State_Penalty>
0.00214626

> <r_epik_Charging_Adjusted_Penalty>
0.00519944

> <i_epik_Tot_Q>
0

> <i_epik_Tot_abs_Q>
0

> <r_epik_Metal_State_Penalty>
0.361976

> <b_epik_Metal_Only>
0

> <s_lp_Force_Field>
OPLS_2005

> <r_lp_Energy>
14.6752

> <b_lp_Chiralities_Consistent>
1

> <s_lp_Variant>
AV-unprocessed.smi:2154-4

> <Gold.Version>
5.8.1

> <Gold.Id.Protein>
6NUR|6NUR_protein|mol2

> <Gold.PLP.Fitness>
40.3135

> <Gold.PLP.PLP>
-31.7050

> <Gold.PLP.part.hbond>
-3.0000

> <Gold.PLP.part.metal>
0.0000

> <Gold.PLP.part.buried>
-2.4805

> <Gold.PLP.part.nonpolar>
-25.7977

> <Gold.PLP.part.repulsive>
0.4039

> <Gold.PLP.ligand.clash>
0.0000

> <Gold.PLP.ligand.torsion>
0.3932

> <Gold.PLP.Chemscore.Hbond>
1.9516

> <Gold.PLP.Chemscore.CHOScore>
0.9978

> <Gold.PLP.Chemscore.Metal>
0.0000

> <Gold.Chemscore.Hbonds>
donor molecule, donor type, donor heavy atom, donor atom, acceptor molecule, acceptor atom, score
      L1  H     6    28       P1  8028  0.79
      P1  H  7989  7998       L1     8  1.00
      L1  C    11    31       P1  7957  1.00

> <Gold.PLP.Chemscore.Internal.Correction>
0.5464

> <Gold.Rescore>
     Score         DG    S(hbond)    S(metal)    S(lipo)     H(rot)  DE(clash)    DE(int)     intcor
     14.04     -14.57       1.65        0.00      74.55       2.01       0.01       0.51       ----

> <Gold.Chemscore.Fitness>
14.0429

> <Gold.Chemscore.DG>
-14.5719

> <Gold.Chemscore.ZeroCoef>
-5.4800

> <Gold.Chemscore.Hbond>
1.6485

> <Gold.Chemscore.Metal>
0.0000

> <Gold.Chemscore.Lipo>
74.5521

> <Gold.Chemscore.Internal_Hbond>
0.0000

> <Gold.Chemscore.DEClash>
0.0145

> <Gold.Chemscore.DEInternal>
0.5145

> <Gold.Chemscore.Rot>
2.0065

> <Gold.Chemscore.Internal.Correction>
   9.000000E+99

> <Gold.Chemscore.Hbonds>
donor molecule, donor type, donor heavy atom, donor atom, acceptor molecule, acceptor atom, score
      L1  H     6    28       P1  8028  0.74
      P1  H  7989  7998       L1     8  0.54

> <Gold.Chemscore.Hbond.Weighted>
-5.5060

> <Gold.Chemscore.Metal.Weighted>
-0.0000

> <Gold.Chemscore.Lipo.Weighted>
-8.7226

> <Gold.Chemscore.Internal_Hbond.Weighted>
0.0000

> <Gold.Chemscore.DEClash.Weighted>
0.0145

> <Gold.Chemscore.DEInternal.Weighted>
0.5145

> <Gold.Chemscore.Rot.Weighted>
5.1366

> <Gold.Chemscore.Internal.Correction.Weighted>
   9.000000E+99

> <Gold.Protein.RotatedTorsions>
[ 6907 6896 6895 6894 ] final -137.01 input  -60.11 | X-H torsion
[ 7974 7965 7964 7962 ] final -150.92 input  175.53 | X-H torsion
[ 8008 7997 7996 7995 ] final  103.02 input   59.86 | X-H torsion
[ 10167 10162 10161 10158 ] final -175.98 input  -65.29 | X-H torsion
[ 10718 10713 10712 10709 ] final  133.34 input   66.30 | X-H torsion
[ 10763 10752 10751 10750 ] final  168.95 input  -60.55 | X-H torsion
[ 11005 11000 10999 10996 ] final  -13.40 input  -57.11 | X-H torsion

> <Gold.Protein.ActiveResidues>
 VAL166  LYS551  ARG553  GLY616  TRP617  ASP618  TYR619  PRO620  LYS621  CYS622 
 ASP623  PHE694  ASN695  SER759  ASP760  ASP761  ALA762  ILE779  LEU786  VAL792 
 PHE793  MET794  SER795  GLU796  ALA797  LYS798  CYS799  TRP800  GLU811  SER814 

> <Gold.Protein.RotatedAtoms>
  151.0172  133.5910  159.2675 H   0  0  0  0  0  0  0  0  0  0  0  0  # atno 6907 bound_to 6896
  151.3040  135.0775  159.9258 H   0  0  0  0  0  0  0  0  0  0  0  0  # atno 6908 bound_to 6896
  152.5314  133.9848  159.7877 H   0  0  0  0  0  0  0  0  0  0  0  0  # atno 6909 bound_to 6896
  144.7880  140.4868  143.5793 H   0  0  0  0  0  0  0  0  0  0  0  0  # atno 7974 bound_to 7965
  156.1446  140.3171  155.8550 H   0  0  0  0  0  0  0  0  0  0  0  0  # atno 8008 bound_to 7997
  155.4088  140.0504  157.3050 H   0  0  0  0  0  0  0  0  0  0  0  0  # atno 8009 bound_to 7997
  154.5005  140.2127  155.9368 H   0  0  0  0  0  0  0  0  0  0  0  0  # atno 8010 bound_to 7997
  139.5553  144.2005  152.1148 H   0  0  0  0  0  0  0  0  0  0  0  0  # atno 10167 bound_to 10162
  157.4782  131.1084  150.9715 H   0  0  0  0  0  0  0  0  0  0  0  0  # atno 10718 bound_to 10713
  154.3760  135.2753  155.2239 H   0  0  0  0  0  0  0  0  0  0  0  0  # atno 10763 bound_to 10752
  154.4366  135.5964  153.6106 H   0  0  0  0  0  0  0  0  0  0  0  0  # atno 10764 bound_to 10752
  152.9836  135.6008  154.3997 H   0  0  0  0  0  0  0  0  0  0  0  0  # atno 10765 bound_to 10752
  140.7757  133.8403  155.9247 H   0  0  0  0  0  0  0  0  0  0  0  0  # atno 11005 bound_to 11000
  145.5871  139.1493  143.3203 LP  0  0  0  0  0  0  0  0  0  0  0  0  # atno 17320 bound_to 7965
  146.2120  140.5998  142.9055 LP  0  0  0  0  0  0  0  0  0  0  0  0  # atno 17321 bound_to 7965
  140.1508  144.5116  150.6688 LP  0  0  0  0  0  0  0  0  0  0  0  0  # atno 17342 bound_to 10162
  140.6824  143.2333  151.5348 LP  0  0  0  0  0  0  0  0  0  0  0  0  # atno 17343 bound_to 10162
  157.0457  130.5767  149.5363 LP  0  0  0  0  0  0  0  0  0  0  0  0  # atno 17370 bound_to 10713
  156.0108  130.5199  150.7981 LP  0  0  0  0  0  0  0  0  0  0  0  0  # atno 17371 bound_to 10713
  140.9531  134.1753  157.4712 LP  0  0  0  0  0  0  0  0  0  0  0  0  # atno 17394 bound_to 11000
  139.8749  134.9916  156.5560 LP  0  0  0  0  0  0  0  0  0  0  0  0  # atno 17395 bound_to 11000

$$$$
