AV-unprocessed.smi:2368|AV-procd|sdf|9431|dock2
  -GOLD-   2272013 63D 1   1.00000     0.00000
 Structure written by MMmdl.
 36 37  0  0  0  0  0  0  0  0  2 V2000
  150.6607  141.4071  155.6305 C   0  0  0  0  0  0  0  0  0  0  0  0
  149.3464  141.1237  154.9292 C   0  0  0  0  0  0  0  0  0  0  0  0
  148.4559  142.1352  154.8327 N   0  3  0  0  0  0  0  0  0  0  0  0
  147.2585  142.0049  154.2254 C   0  0  0  0  0  0  0  0  0  0  0  0
  146.8881  140.7691  153.6607 C   0  0  0  0  0  0  0  0  0  0  0  0
  147.7775  139.6676  153.7468 C   0  0  0  0  0  0  0  0  0  0  0  0
  147.4933  138.3900  153.1865 N   0  0  0  0  0  0  0  0  0  0  0  0
  146.3270  137.7230  153.1589 C   0  0  0  0  0  0  0  0  0  0  0  0
  145.2749  138.1069  153.6690 O   0  0  0  0  0  0  0  0  0  0  0  0
  146.4498  136.5580  152.5076 N   0  0  0  0  0  0  0  0  0  0  0  0
  145.3630  135.6118  152.2813 C   0  0  2  0  0  0  0  0  0  0  0  0
  145.7249  134.2553  152.8209 C   0  0  0  0  0  0  0  0  0  0  0  0
  145.7483  133.3161  151.8777 C   0  0  0  0  0  0  0  0  0  0  0  0
  145.4339  133.8547  150.5066 C   0  0  1  0  0  0  0  0  0  0  0  0
  144.2989  133.0769  149.8207 C   0  0  0  0  0  0  0  0  0  0  0  0
  143.7700  133.8323  148.7514 O   0  0  0  0  0  0  0  0  0  0  0  0
  145.1037  135.3463  150.7748 C   0  0  0  0  0  0  0  0  0  0  0  0
  149.0303  139.8578  154.3819 C   0  0  0  0  0  0  0  0  0  0  0  0
  150.1666  138.5556  154.4949 Cl  0  0  0  0  0  0  0  0  0  0  0  0
  144.4540  135.9548  152.7785 H   0  0  0  0  0  0  0  0  0  0  0  0
  146.3450  133.7766  149.9116 H   0  0  0  0  0  0  0  0  0  0  0  0
  151.4985  141.2214  154.9579 H   0  0  0  0  0  0  0  0  0  0  0  0
  150.7700  140.7637  156.5038 H   0  0  0  0  0  0  0  0  0  0  0  0
  150.7184  142.4436  155.9651 H   0  0  0  0  0  0  0  0  0  0  0  0
  146.6388  142.8895  154.2029 H   0  0  0  0  0  0  0  0  0  0  0  0
  145.9344  140.6968  153.1614 H   0  0  0  0  0  0  0  0  0  0  0  0
  148.2900  137.9018  152.8032 H   0  0  0  0  0  0  0  0  0  0  0  0
  147.3517  136.3135  152.1253 H   0  0  0  0  0  0  0  0  0  0  0  0
  145.9291  134.0885  153.8684 H   0  0  0  0  0  0  0  0  0  0  0  0
  145.9853  132.2758  152.0454 H   0  0  0  0  0  0  0  0  0  0  0  0
  144.6704  132.1314  149.4244 H   0  0  0  0  0  0  0  0  0  0  0  0
  143.5021  132.8411  150.5271 H   0  0  0  0  0  0  0  0  0  0  0  0
  142.9184  134.1554  149.0031 H   0  0  0  0  0  0  0  0  0  0  0  0
  144.0589  135.5603  150.5462 H   0  0  0  0  0  0  0  0  0  0  0  0
  145.6994  135.9932  150.1293 H   0  0  0  0  0  0  0  0  0  0  0  0
  148.7029  143.0407  155.2327 H   0  0  0  0  0  0  0  0  0  0  0  0
  1  2  1  0  0  0  0
  1 22  1  0  0  0  0
  1 23  1  0  0  0  0
  1 24  1  0  0  0  0
  2 18  1  0  0  0  0
  2  3  2  0  0  0  0
  3  4  1  0  0  0  0
  3 36  1  0  0  0  0
  4  5  2  0  0  0  0
  4 25  1  0  0  0  0
  5  6  1  0  0  0  0
  5 26  1  0  0  0  0
  6  7  1  0  0  0  0
  6 18  2  0  0  0  0
  7  8  1  0  0  0  0
  7 27  1  0  0  0  0
  8  9  2  0  0  0  0
  8 10  1  0  0  0  0
 10 11  1  0  0  0  0
 10 28  1  0  0  0  0
 11 20  1  0  0  0  0
 11 17  1  0  0  0  0
 11 12  1  0  0  0  0
 12 13  2  0  0  0  0
 12 29  1  0  0  0  0
 13 14  1  0  0  0  0
 13 30  1  0  0  0  0
 14 21  1  0  0  0  0
 14 15  1  0  0  0  0
 14 17  1  0  0  0  0
 15 16  1  0  0  0  0
 15 31  1  0  0  0  0
 15 32  1  0  0  0  0
 16 33  1  0  0  0  0
 17 34  1  0  0  0  0
 17 35  1  0  0  0  0
 18 19  1  0  0  0  0
M  CHG  1   3   1
M  END
> <s_m_source_file>
AV-unprocessed.smi

> <i_m_source_file_index>
2368

> <i_lp_mmshare_version>
43012

> <i_f3d_flags>
0

> <s_epik_input>
W0NIM11jMW5bY0hdW2NIXWMoYzFDbClbTkhdQyg9TylbTkhdW0NAQEhdMltDSF09W0NIXVtDQEBIXShbQ0gyXTIpW0NIMl1bT0hd

> <s_epik_cmdline>
J2VwaWtfcHl0aG9uJywgJy1waCcsICc3LjAnLCAnLXRuJywgJzgnLCAnLW1hJywgJzIwMCcsICctbWV0YWxfYmluZGluZycsICctaW1hZScsICc8aW5maWxlLm1hZT4nLCAnLW9tYWUnLCAnPG91dGZpbGUubWFlPic=

> <r_epik_Ionization_Penalty>
2.4467

> <r_epik_Ionization_Penalty_Charging>
2.44668

> <r_epik_Ionization_Penalty_Neutral>
1.95078e-05

> <r_epik_State_Penalty>
2.60786

> <r_epik_Charging_Adjusted_Penalty>
5.05454

> <i_epik_Tot_Q>
1

> <i_epik_Tot_abs_Q>
1

> <r_epik_Metal_State_Penalty>
2.61736

> <b_epik_Metal_Only>
0

> <s_lp_Force_Field>
OPLS_2005

> <r_lp_Energy>
25.6865

> <b_lp_Chiralities_Consistent>
1

> <s_lp_Variant>
AV-unprocessed.smi:2368-7

> <Gold.Version>
5.8.1

> <Gold.Id.Protein>
6NUR|6NUR_protein|mol2

> <Gold.PLP.Fitness>
50.4544

> <Gold.PLP.PLP>
-36.4566

> <Gold.PLP.part.hbond>
-5.0000

> <Gold.PLP.part.metal>
0.0000

> <Gold.PLP.part.buried>
-4.9325

> <Gold.PLP.part.nonpolar>
-27.5012

> <Gold.PLP.part.repulsive>
0.7655

> <Gold.PLP.ligand.clash>
0.0000

> <Gold.PLP.ligand.torsion>
0.4247

> <Gold.PLP.Chemscore.Hbond>
4.9440

> <Gold.PLP.Chemscore.CHOScore>
0.0000

> <Gold.PLP.Chemscore.Metal>
0.0000

> <Gold.Chemscore.Hbonds>
donor molecule, donor type, donor heavy atom, donor atom, acceptor molecule, acceptor atom, score
      L1  H     3    36       P1  8028  2.00
      L1  H     7    27       P1  7948  0.94
      L1  H    10    28       P1  7948  1.00
      L1  H    16    33       P1 10186  1.00

> <Gold.PLP.Chemscore.Internal.Correction>
0.0152

> <Gold.Rescore>
     Score         DG    S(hbond)    S(metal)    S(lipo)     H(rot)  DE(clash)    DE(int)     intcor
     22.86     -23.35       3.89        0.00      81.30       1.81       0.07       0.42       ----

> <Gold.Chemscore.Fitness>
22.8634

> <Gold.Chemscore.DG>
-23.3483

> <Gold.Chemscore.ZeroCoef>
-5.4800

> <Gold.Chemscore.Hbond>
3.8863

> <Gold.Chemscore.Metal>
0.0000

> <Gold.Chemscore.Lipo>
81.2979

> <Gold.Chemscore.Internal_Hbond>
0.0000

> <Gold.Chemscore.DEClash>
0.0661

> <Gold.Chemscore.DEInternal>
0.4188

> <Gold.Chemscore.Rot>
1.8061

> <Gold.Chemscore.Internal.Correction>
   9.000000E+99

> <Gold.Chemscore.Hbonds>
donor molecule, donor type, donor heavy atom, donor atom, acceptor molecule, acceptor atom, score
      L1  H     3    36       P1  8028  1.00
      L1  H     7    27       P1  7948  0.87
      L1  H    10    28       P1  7948  0.99
      L1  H    16    33       P1 10186  0.97

> <Gold.Chemscore.Hbond.Weighted>
-12.9801

> <Gold.Chemscore.Metal.Weighted>
-0.0000

> <Gold.Chemscore.Lipo.Weighted>
-9.5119

> <Gold.Chemscore.Internal_Hbond.Weighted>
0.0000

> <Gold.Chemscore.DEClash.Weighted>
0.0661

> <Gold.Chemscore.DEInternal.Weighted>
0.4188

> <Gold.Chemscore.Rot.Weighted>
4.6237

> <Gold.Chemscore.Internal.Correction.Weighted>
   9.000000E+99

> <Gold.Protein.RotatedTorsions>
[ 6907 6896 6895 6894 ] final -126.88 input  -60.11 | X-H torsion
[ 7974 7965 7964 7962 ] final   97.44 input  175.53 | X-H torsion
[ 8008 7997 7996 7995 ] final  171.19 input   59.86 | X-H torsion
[ 10167 10162 10161 10158 ] final   42.95 input  -65.29 | X-H torsion
[ 10718 10713 10712 10709 ] final -154.67 input   66.30 | X-H torsion
[ 10763 10752 10751 10750 ] final  169.97 input  -60.55 | X-H torsion
[ 11005 11000 10999 10996 ] final  -34.60 input  -57.11 | X-H torsion

> <Gold.Protein.ActiveResidues>
 VAL166  LYS551  ARG553  GLY616  TRP617  ASP618  TYR619  PRO620  LYS621  CYS622 
 ASP623  PHE694  ASN695  SER759  ASP760  ASP761  ALA762  ILE779  LEU786  VAL792 
 PHE793  MET794  SER795  GLU796  ALA797  LYS798  CYS799  TRP800  GLU811  SER814 

> <Gold.Protein.RotatedAtoms>
  150.9014  133.7113  159.2877 H   0  0  0  0  0  0  0  0  0  0  0  0  # atno 6907 bound_to 6896
  151.4630  135.1038  159.9740 H   0  0  0  0  0  0  0  0  0  0  0  0  # atno 6908 bound_to 6896
  152.4879  133.8373  159.7189 H   0  0  0  0  0  0  0  0  0  0  0  0  # atno 6909 bound_to 6896
  145.4254  139.2316  143.3173 H   0  0  0  0  0  0  0  0  0  0  0  0  # atno 7974 bound_to 7965
  156.1294  140.1518  156.9087 H   0  0  0  0  0  0  0  0  0  0  0  0  # atno 8008 bound_to 7997
  154.4897  140.0855  156.7607 H   0  0  0  0  0  0  0  0  0  0  0  0  # atno 8009 bound_to 7997
  155.4283  140.3426  155.4280 H   0  0  0  0  0  0  0  0  0  0  0  0  # atno 8010 bound_to 7997
  140.3492  144.2371  150.6147 H   0  0  0  0  0  0  0  0  0  0  0  0  # atno 10167 bound_to 10162
  156.5024  130.8397  151.2614 H   0  0  0  0  0  0  0  0  0  0  0  0  # atno 10718 bound_to 10713
  154.3908  135.2754  155.2156 H   0  0  0  0  0  0  0  0  0  0  0  0  # atno 10763 bound_to 10752
  154.4223  135.5997  153.6021 H   0  0  0  0  0  0  0  0  0  0  0  0  # atno 10764 bound_to 10752
  152.9832  135.5975  154.4163 H   0  0  0  0  0  0  0  0  0  0  0  0  # atno 10765 bound_to 10752
  140.9729  133.7099  156.1553 H   0  0  0  0  0  0  0  0  0  0  0  0  # atno 11005 bound_to 11000
  146.2635  140.4984  142.8844 LP  0  0  0  0  0  0  0  0  0  0  0  0  # atno 17320 bound_to 7965
  144.8217  140.6561  143.6348 LP  0  0  0  0  0  0  0  0  0  0  0  0  # atno 17321 bound_to 7965
  140.5235  143.2260  151.8352 LP  0  0  0  0  0  0  0  0  0  0  0  0  # atno 17342 bound_to 10162
  139.4829  144.4808  151.9309 LP  0  0  0  0  0  0  0  0  0  0  0  0  # atno 17343 bound_to 10162
  157.7461  130.9977  150.2826 LP  0  0  0  0  0  0  0  0  0  0  0  0  # atno 17370 bound_to 10713
  156.3320  130.3802  149.7483 LP  0  0  0  0  0  0  0  0  0  0  0  0  # atno 17371 bound_to 10713
  140.7302  134.4262  157.5566 LP  0  0  0  0  0  0  0  0  0  0  0  0  # atno 17394 bound_to 11000
  139.8919  134.8768  156.2297 LP  0  0  0  0  0  0  0  0  0  0  0  0  # atno 17395 bound_to 11000

$$$$
