AV-unprocessed.smi:2024|AV-procd|sdf|8192|dock10
  -GOLD-   2272010443D 1   1.00000     0.00000
 Structure written by MMmdl.
 44 45  0  0  0  0  0  0  0  0  2 V2000
  151.5008  140.5338  154.6320 C   0  0  0  0  0  0  0  0  0  0  0  0
  150.7464  139.3178  154.3480 N   0  0  0  0  0  0  0  0  0  0  0  0
  149.4068  139.5743  153.8210 C   0  0  0  0  0  0  0  0  0  0  0  0
  149.4457  140.1207  152.3793 C   0  0  0  0  0  0  0  0  0  0  0  0
  150.1480  139.1707  151.4672 N   0  3  0  0  0  0  0  0  0  0  0  0
  150.0552  139.4979  149.9954 C   0  0  0  0  0  0  0  0  0  0  0  0
  148.5834  139.4748  149.5136 C   0  0  0  0  0  0  0  0  0  0  0  0
  150.6265  140.9109  149.7016 C   0  0  0  0  0  0  0  0  0  0  0  0
  150.9175  138.4662  149.2021 C   0  0  0  0  0  0  0  0  0  0  0  0
  150.4108  137.0941  149.2476 N   0  0  0  0  0  0  0  0  0  0  0  0
  150.3995  136.2305  148.2215 C   0  0  0  0  0  0  0  0  0  0  0  0
  150.8350  136.5020  147.1022 O   0  0  0  0  0  0  0  0  0  0  0  0
  149.8628  135.0522  148.5832 N   0  0  0  0  0  0  0  0  0  0  0  0
  149.6970  133.8846  147.7932 C   0  0  0  0  0  0  0  0  0  0  0  0
  148.5515  133.2011  147.6881 N   0  0  0  0  0  0  0  0  0  0  0  0
  148.6763  132.0963  146.8421 C   0  0  0  0  0  0  0  0  0  0  0  0
  149.9322  131.9536  146.3069 C   0  0  0  0  0  0  0  0  0  0  0  0
  151.0149  133.2086  146.8470 S   0  0  0  0  0  0  0  0  0  0  0  0
  151.5160  138.9108  152.0035 C   0  0  0  0  0  0  0  0  0  0  0  0
  151.4528  138.3981  153.4586 C   0  0  0  0  0  0  0  0  0  0  0  0
  150.9563  141.1583  155.3409 H   0  0  0  0  0  0  0  0  0  0  0  0
  151.6951  141.1272  153.7393 H   0  0  0  0  0  0  0  0  0  0  0  0
  152.4613  140.2837  155.0838 H   0  0  0  0  0  0  0  0  0  0  0  0
  148.8375  138.6439  153.8438 H   0  0  0  0  0  0  0  0  0  0  0  0
  148.8850  140.2717  154.4775 H   0  0  0  0  0  0  0  0  0  0  0  0
  148.4176  140.2844  152.0658 H   0  0  0  0  0  0  0  0  0  0  0  0
  149.9280  141.0980  152.3630 H   0  0  0  0  0  0  0  0  0  0  0  0
  148.4927  139.8397  148.4901 H   0  0  0  0  0  0  0  0  0  0  0  0
  147.9453  140.1095  150.1283 H   0  0  0  0  0  0  0  0  0  0  0  0
  148.1635  138.4686  149.5250 H   0  0  0  0  0  0  0  0  0  0  0  0
  150.6687  141.1229  148.6334 H   0  0  0  0  0  0  0  0  0  0  0  0
  151.6384  141.0226  150.0928 H   0  0  0  0  0  0  0  0  0  0  0  0
  150.0083  141.7026  150.1249 H   0  0  0  0  0  0  0  0  0  0  0  0
  150.9562  138.7579  148.1520 H   0  0  0  0  0  0  0  0  0  0  0  0
  151.9531  138.4575  149.5380 H   0  0  0  0  0  0  0  0  0  0  0  0
  150.0321  136.7815  150.1298 H   0  0  0  0  0  0  0  0  0  0  0  0
  149.5399  134.9781  149.5366 H   0  0  0  0  0  0  0  0  0  0  0  0
  147.8175  131.4629  146.6759 H   0  0  0  0  0  0  0  0  0  0  0  0
  150.2842  131.1895  145.6300 H   0  0  0  0  0  0  0  0  0  0  0  0
  152.0211  138.1326  151.4351 H   0  0  0  0  0  0  0  0  0  0  0  0
  152.1328  139.8066  151.9292 H   0  0  0  0  0  0  0  0  0  0  0  0
  152.4579  138.2203  153.8425 H   0  0  0  0  0  0  0  0  0  0  0  0
  150.9408  137.4352  153.4816 H   0  0  0  0  0  0  0  0  0  0  0  0
  149.6628  138.2905  151.5661 H   0  0  0  0  0  0  0  0  0  0  0  0
  1  2  1  0  0  0  0
  1 21  1  0  0  0  0
  1 22  1  0  0  0  0
  1 23  1  0  0  0  0
  2 20  1  0  0  0  0
  2  3  1  0  0  0  0
  3  4  1  0  0  0  0
  3 24  1  0  0  0  0
  3 25  1  0  0  0  0
  4  5  1  0  0  0  0
  4 26  1  0  0  0  0
  4 27  1  0  0  0  0
  5  6  1  0  0  0  0
  5 19  1  0  0  0  0
  5 44  1  0  0  0  0
  6  7  1  0  0  0  0
  6  8  1  0  0  0  0
  6  9  1  0  0  0  0
  7 28  1  0  0  0  0
  7 29  1  0  0  0  0
  7 30  1  0  0  0  0
  8 31  1  0  0  0  0
  8 32  1  0  0  0  0
  8 33  1  0  0  0  0
  9 10  1  0  0  0  0
  9 34  1  0  0  0  0
  9 35  1  0  0  0  0
 10 11  1  0  0  0  0
 10 36  1  0  0  0  0
 11 12  2  0  0  0  0
 11 13  1  0  0  0  0
 13 14  1  0  0  0  0
 13 37  1  0  0  0  0
 14 18  1  0  0  0  0
 14 15  2  0  0  0  0
 15 16  1  0  0  0  0
 16 17  2  0  0  0  0
 16 38  1  0  0  0  0
 17 18  1  0  0  0  0
 17 39  1  0  0  0  0
 19 20  1  0  0  0  0
 19 40  1  0  0  0  0
 19 41  1  0  0  0  0
 20 42  1  0  0  0  0
 20 43  1  0  0  0  0
M  CHG  1   5   1
M  END
> <s_m_source_file>
AV-unprocessed.smi

> <i_m_source_file_index>
2024

> <i_lp_mmshare_version>
43012

> <i_f3d_flags>
0

> <s_epik_input>
W0NIM11OMVtDSDJdW0NIMl1OKFtDSDJdW0NIMl0xKUMoW0NIM10pKFtDSDNdKVtDSDJdW05IXUMoPU8pW05IXWMybltjSF1bY0hdczI=

> <s_epik_cmdline>
J2VwaWtfcHl0aG9uJywgJy1waCcsICc3LjAnLCAnLXRuJywgJzgnLCAnLW1hJywgJzIwMCcsICctbWV0YWxfYmluZGluZycsICctaW1hZScsICc8aW5maWxlLm1hZT4nLCAnLW9tYWUnLCAnPG91dGZpbGUubWFlPic=

> <r_epik_Ionization_Penalty>
0.100627

> <r_epik_Ionization_Penalty_Charging>
0.0985296

> <r_epik_Ionization_Penalty_Neutral>
0.00209722

> <r_epik_State_Penalty>
1.056

> <r_epik_Charging_Adjusted_Penalty>
1.15453

> <i_epik_Tot_Q>
1

> <i_epik_Tot_abs_Q>
1

> <r_epik_Metal_State_Penalty>
1.08856

> <b_epik_Metal_Only>
0

> <s_lp_Force_Field>
OPLS_2005

> <r_lp_Energy>
25.1468

> <b_lp_Chiralities_Consistent>
1

> <s_lp_Variant>
AV-unprocessed.smi:2024-2

> <Gold.Version>
5.8.1

> <Gold.Id.Protein>
6NUR|6NUR_protein|mol2

> <Gold.PLP.Fitness>
44.5147

> <Gold.PLP.PLP>
-30.1401

> <Gold.PLP.part.hbond>
-3.5088

> <Gold.PLP.part.metal>
0.0000

> <Gold.PLP.part.buried>
-4.4296

> <Gold.PLP.part.nonpolar>
-22.9984

> <Gold.PLP.part.repulsive>
1.5097

> <Gold.PLP.ligand.clash>
0.0000

> <Gold.PLP.ligand.torsion>
0.7110

> <Gold.PLP.Chemscore.Hbond>
3.9798

> <Gold.PLP.Chemscore.CHOScore>
1.2589

> <Gold.PLP.Chemscore.Metal>
0.0000

> <Gold.Chemscore.Hbonds>
donor molecule, donor type, donor heavy atom, donor atom, acceptor molecule, acceptor atom, score
      L1  H     5    44       P1  7948  0.99
      L1  C    16    38       P1  7914  0.40

> <Gold.PLP.Chemscore.Internal.Correction>
0.0803

> <Gold.Rescore>
     Score         DG    S(hbond)    S(metal)    S(lipo)     H(rot)  DE(clash)    DE(int)     intcor
     16.00     -16.68       1.96        0.00      74.86       1.60       0.02       0.66       ----

> <Gold.Chemscore.Fitness>
15.9978

> <Gold.Chemscore.DG>
-16.6776

> <Gold.Chemscore.ZeroCoef>
-5.4800

> <Gold.Chemscore.Hbond>
1.9559

> <Gold.Chemscore.Metal>
0.0000

> <Gold.Chemscore.Lipo>
74.8584

> <Gold.Chemscore.Internal_Hbond>
0.0000

> <Gold.Chemscore.DEClash>
0.0211

> <Gold.Chemscore.DEInternal>
0.6586

> <Gold.Chemscore.Rot>
1.5991

> <Gold.Chemscore.Internal.Correction>
   9.000000E+99

> <Gold.Chemscore.Hbonds>
donor molecule, donor type, donor heavy atom, donor atom, acceptor molecule, acceptor atom, score
      L1  H     5    44       P1  7948  0.04

> <Gold.Chemscore.Hbond.Weighted>
-6.5328

> <Gold.Chemscore.Metal.Weighted>
-0.0000

> <Gold.Chemscore.Lipo.Weighted>
-8.7584

> <Gold.Chemscore.Internal_Hbond.Weighted>
0.0000

> <Gold.Chemscore.DEClash.Weighted>
0.0211

> <Gold.Chemscore.DEInternal.Weighted>
0.6586

> <Gold.Chemscore.Rot.Weighted>
4.0936

> <Gold.Chemscore.Internal.Correction.Weighted>
   9.000000E+99

> <Gold.Protein.RotatedTorsions>
[ 6907 6896 6895 6894 ] final   -5.56 input  -60.11 | X-H torsion
[ 7974 7965 7964 7962 ] final  -40.09 input  175.53 | X-H torsion
[ 8008 7997 7996 7995 ] final  -85.76 input   59.86 | X-H torsion
[ 10167 10162 10161 10158 ] final  -81.13 input  -65.29 | X-H torsion
[ 10718 10713 10712 10709 ] final  -54.73 input   66.30 | X-H torsion
[ 10763 10752 10751 10750 ] final   38.32 input  -60.55 | X-H torsion
[ 11005 11000 10999 10996 ] final  154.05 input  -57.11 | X-H torsion

> <Gold.Protein.ActiveResidues>
 VAL166  LYS551  ARG553  GLY616  TRP617  ASP618  TYR619  PRO620  LYS621  CYS622 
 ASP623  PHE694  ASN695  SER759  ASP760  ASP761  ALA762  ILE779  LEU786  VAL792 
 PHE793  MET794  SER795  GLU796  ALA797  LYS798  CYS799  TRP800  GLU811  SER814 

> <Gold.Protein.RotatedAtoms>
  151.4797  135.1051  159.9773 H   0  0  0  0  0  0  0  0  0  0  0  0  # atno 6907 bound_to 6896
  152.4784  133.8190  159.7054 H   0  0  0  0  0  0  0  0  0  0  0  0  # atno 6908 bound_to 6896
  150.8838  133.7274  159.2951 H   0  0  0  0  0  0  0  0  0  0  0  0  # atno 6909 bound_to 6896
  146.0337  140.6699  142.9120 H   0  0  0  0  0  0  0  0  0  0  0  0  # atno 7974 bound_to 7965
  154.6443  140.0587  156.9882 H   0  0  0  0  0  0  0  0  0  0  0  0  # atno 8008 bound_to 7997
  155.1469  140.3270  155.4421 H   0  0  0  0  0  0  0  0  0  0  0  0  # atno 8009 bound_to 7997
  156.2546  140.1954  156.6582 H   0  0  0  0  0  0  0  0  0  0  0  0  # atno 8010 bound_to 7997
  140.4440  143.2505  151.8584 H   0  0  0  0  0  0  0  0  0  0  0  0  # atno 10167 bound_to 10162
  156.1427  130.4154  150.0076 H   0  0  0  0  0  0  0  0  0  0  0  0  # atno 10718 bound_to 10713
  153.0005  135.6252  154.2286 H   0  0  0  0  0  0  0  0  0  0  0  0  # atno 10763 bound_to 10752
  154.2028  135.2803  155.2986 H   0  0  0  0  0  0  0  0  0  0  0  0  # atno 10764 bound_to 10752
  154.5669  135.5688  153.7118 H   0  0  0  0  0  0  0  0  0  0  0  0  # atno 10765 bound_to 10752
  140.1453  134.8711  157.2385 H   0  0  0  0  0  0  0  0  0  0  0  0  # atno 11005 bound_to 11000
  144.7042  140.3781  143.7132 LP  0  0  0  0  0  0  0  0  0  0  0  0  # atno 17320 bound_to 7965
  145.6999  139.1659  143.2598 LP  0  0  0  0  0  0  0  0  0  0  0  0  # atno 17321 bound_to 7965
  139.4791  144.5196  151.8820 LP  0  0  0  0  0  0  0  0  0  0  0  0  # atno 17342 bound_to 10162
  140.4285  144.2148  150.5887 LP  0  0  0  0  0  0  0  0  0  0  0  0  # atno 17343 bound_to 10162
  156.7957  130.9272  151.3646 LP  0  0  0  0  0  0  0  0  0  0  0  0  # atno 17370 bound_to 10713
  157.6590  130.8949  149.9788 LP  0  0  0  0  0  0  0  0  0  0  0  0  # atno 17371 bound_to 10713
  140.2671  134.3504  155.7386 LP  0  0  0  0  0  0  0  0  0  0  0  0  # atno 17394 bound_to 11000
  141.2192  133.7402  156.9167 LP  0  0  0  0  0  0  0  0  0  0  0  0  # atno 17395 bound_to 11000

$$$$
