AV-unprocessed.smi:219|AV-procd|sdf|1679|dock9
  -GOLD-   2262020113D 1   1.00000     0.00000
 Structure written by MMmdl.
 50 53  0  0  0  0  0  0  0  0  1 V2000
  149.1176  140.4991  154.5357 N   0  0  0  0  0  0  0  0  0  0  0  0
  150.1976  140.6553  155.3053 C   0  0  0  0  0  0  0  0  0  0  0  0
  151.3002  140.2159  154.9857 O   0  0  0  0  0  0  0  0  0  0  0  0
  150.0019  141.3797  156.6425 C   0  0  0  0  0  0  0  0  0  0  0  0
  151.3069  141.6345  157.4533 C   0  0  1  0  0  0  0  0  0  0  0  0
  151.0717  142.8248  158.4122 C   0  0  0  0  0  0  0  0  0  0  0  0
  152.3021  143.1274  159.2768 C   0  0  0  0  0  0  0  0  0  0  0  0
  152.7228  141.8666  160.0376 C   0  0  0  0  0  0  0  0  0  0  0  0
  152.9695  140.7151  159.0547 C   0  0  0  0  0  0  0  0  0  0  0  0
  151.7957  140.4674  158.2140 N   0  0  0  0  0  0  0  0  0  0  0  0
  151.9391  139.3182  157.5164 C   0  0  0  0  0  0  0  0  0  0  0  0
  152.9339  139.2006  156.5968 N   0  0  0  0  0  0  0  0  0  0  0  0
  153.0610  138.0696  155.8961 C   0  0  0  0  0  0  0  0  0  0  0  0
  152.3176  136.9623  155.9551 N   0  0  0  0  0  0  0  0  0  0  0  0
  151.3172  137.0831  156.8749 C   0  0  0  0  0  0  0  0  0  0  0  0
  151.0654  138.2150  157.6988 C   0  0  0  0  0  0  0  0  0  0  0  0
  149.9703  137.9778  158.5185 N   0  0  0  0  0  0  0  0  0  0  0  0
  149.5913  136.7718  158.1936 C   0  0  0  0  0  0  0  0  0  0  0  0
  150.3356  136.1652  157.2058 N   0  0  0  0  0  0  0  0  0  0  0  0
  150.1308  134.8363  156.6496 C   0  0  0  0  0  0  0  0  0  0  0  0
  149.4171  134.8381  155.2763 C   0  0  1  0  0  0  0  0  0  0  0  0
  150.0158  135.8135  154.4408 O   0  0  0  0  0  0  0  0  0  0  0  0
  149.4998  133.4904  154.5690 C   0  0  0  0  0  0  0  0  0  0  0  0
  148.2184  133.4594  153.7474 C   0  0  0  0  0  0  0  0  0  0  0  0
  147.2709  134.0436  154.6244 O   0  0  0  0  0  0  0  0  0  0  0  0
  147.8983  135.1090  155.3320 C   0  0  0  0  0  0  0  0  0  0  0  0
  149.2018  140.0323  153.6444 H   0  0  0  0  0  0  0  0  0  0  0  0
  148.2230  140.8516  154.8433 H   0  0  0  0  0  0  0  0  0  0  0  0
  149.5266  142.3314  156.4016 H   0  0  0  0  0  0  0  0  0  0  0  0
  149.2763  140.8404  157.2533 H   0  0  0  0  0  0  0  0  0  0  0  0
  152.0994  141.9251  156.7617 H   0  0  0  0  0  0  0  0  0  0  0  0
  150.8050  143.7171  157.8445 H   0  0  0  0  0  0  0  0  0  0  0  0
  150.2222  142.6076  159.0618 H   0  0  0  0  0  0  0  0  0  0  0  0
  153.1226  143.4713  158.6458 H   0  0  0  0  0  0  0  0  0  0  0  0
  152.0831  143.9348  159.9760 H   0  0  0  0  0  0  0  0  0  0  0  0
  153.6233  142.0617  160.6200 H   0  0  0  0  0  0  0  0  0  0  0  0
  151.9445  141.5853  160.7484 H   0  0  0  0  0  0  0  0  0  0  0  0
  153.8275  140.9547  158.4244 H   0  0  0  0  0  0  0  0  0  0  0  0
  153.2253  139.8114  159.6102 H   0  0  0  0  0  0  0  0  0  0  0  0
  153.8716  138.0501  155.1829 H   0  0  0  0  0  0  0  0  0  0  0  0
  148.7481  136.2906  158.6673 H   0  0  0  0  0  0  0  0  0  0  0  0
  151.1015  134.3456  156.5683 H   0  0  0  0  0  0  0  0  0  0  0  0
  149.5547  134.2544  157.3702 H   0  0  0  0  0  0  0  0  0  0  0  0
  149.5010  135.8908  153.6523 H   0  0  0  0  0  0  0  0  0  0  0  0
  150.4000  133.3641  153.9659 H   0  0  0  0  0  0  0  0  0  0  0  0
  149.4725  132.6783  155.2970 H   0  0  0  0  0  0  0  0  0  0  0  0
  148.3133  134.0696  152.8479 H   0  0  0  0  0  0  0  0  0  0  0  0
  147.9275  132.4507  153.4539 H   0  0  0  0  0  0  0  0  0  0  0  0
  147.5115  135.1132  156.3504 H   0  0  0  0  0  0  0  0  0  0  0  0
  147.6330  136.0655  154.8783 H   0  0  0  0  0  0  0  0  0  0  0  0
  1  2  1  0  0  0  0
  1 27  1  0  0  0  0
  1 28  1  0  0  0  0
  2  3  2  0  0  0  0
  2  4  1  0  0  0  0
  4  5  1  0  0  0  0
  4 29  1  0  0  0  0
  4 30  1  0  0  0  0
  5 10  1  0  0  0  0
  5  6  1  0  0  0  0
  5 31  1  0  0  0  0
  6  7  1  0  0  0  0
  6 32  1  0  0  0  0
  6 33  1  0  0  0  0
  7  8  1  0  0  0  0
  7 34  1  0  0  0  0
  7 35  1  0  0  0  0
  8  9  1  0  0  0  0
  8 36  1  0  0  0  0
  8 37  1  0  0  0  0
  9 10  1  0  0  0  0
  9 38  1  0  0  0  0
  9 39  1  0  0  0  0
 10 11  1  0  0  0  0
 11 16  1  0  0  0  0
 11 12  2  0  0  0  0
 12 13  1  0  0  0  0
 13 14  2  0  0  0  0
 13 40  1  0  0  0  0
 14 15  1  0  0  0  0
 15 19  1  0  0  0  0
 15 16  2  0  0  0  0
 16 17  1  0  0  0  0
 17 18  2  0  0  0  0
 18 19  1  0  0  0  0
 18 41  1  0  0  0  0
 19 20  1  0  0  0  0
 20 21  1  0  0  0  0
 20 42  1  0  0  0  0
 20 43  1  0  0  0  0
 21 26  1  0  0  0  0
 21 22  1  0  0  0  0
 21 23  1  0  0  0  0
 22 44  1  0  0  0  0
 23 24  1  0  0  0  0
 23 45  1  0  0  0  0
 23 46  1  0  0  0  0
 24 25  1  0  0  0  0
 24 47  1  0  0  0  0
 24 48  1  0  0  0  0
 25 26  1  0  0  0  0
 26 49  1  0  0  0  0
 26 50  1  0  0  0  0
M  END
> <s_m_source_file>
AV-unprocessed.smi

> <i_m_source_file_index>
219

> <i_lp_mmshare_version>
43012

> <i_f3d_flags>
0

> <s_epik_input>
W05IMl1DKD1PKVtDSDJdW0NAQEhdMVtDSDJdW0NIMl1bQ0gyXVtDSDJdTjFjKG5bY0hdbjIpYyhjMjMpbltjSF1uM1tDSDJdW0NAQF00KFtPSF0pW0NIMl1bQ0gyXU9bQ0gyXTQ=

> <s_epik_cmdline>
J2VwaWtfcHl0aG9uJywgJy1waCcsICc3LjAnLCAnLXRuJywgJzgnLCAnLW1hJywgJzIwMCcsICctbWV0YWxfYmluZGluZycsICctaW1hZScsICc8aW5maWxlLm1hZT4nLCAnLW9tYWUnLCAnPG91dGZpbGUubWFlPic=

> <r_lp_tautomer_probability>
1

> <r_epik_Ionization_Penalty>
0.00228532

> <r_epik_Ionization_Penalty_Charging>
0

> <r_epik_Ionization_Penalty_Neutral>
0.00228532

> <r_epik_State_Penalty>
0.00140978

> <r_epik_Charging_Adjusted_Penalty>
0.00140978

> <i_epik_Tot_Q>
0

> <i_epik_Tot_abs_Q>
0

> <r_epik_Metal_State_Penalty>
-0

> <b_epik_Metal_Only>
0

> <s_lp_Force_Field>
OPLS_2005

> <r_lp_Energy>
37.1625

> <b_lp_Chiralities_Consistent>
1

> <s_lp_Variant>
AV-unprocessed.smi:219-2

> <Gold.Version>
5.8.1

> <Gold.Id.Protein>
6NUR|6NUR_protein|mol2

> <Gold.PLP.Fitness>
48.5374

> <Gold.PLP.PLP>
-38.2001

> <Gold.PLP.part.hbond>
-4.8269

> <Gold.PLP.part.metal>
0.0000

> <Gold.PLP.part.buried>
-5.2482

> <Gold.PLP.part.nonpolar>
-28.8226

> <Gold.PLP.part.repulsive>
0.2622

> <Gold.PLP.ligand.clash>
0.0000

> <Gold.PLP.ligand.torsion>
0.7808

> <Gold.PLP.Chemscore.Hbond>
3.8800

> <Gold.PLP.Chemscore.CHOScore>
0.0000

> <Gold.PLP.Chemscore.Metal>
0.0000

> <Gold.Chemscore.Hbonds>
donor molecule, donor type, donor heavy atom, donor atom, acceptor molecule, acceptor atom, score
      L1  H    22    44       P1  7948  1.00
      P1  H  7989  7998       L1     3  1.00
      P1  H  7997  8009       L1    12  1.00
      P1  H 10752 10765       L1    14  0.94

> <Gold.PLP.Chemscore.Internal.Correction>
0.2589

> <Gold.Rescore>
     Score         DG    S(hbond)    S(metal)    S(lipo)     H(rot)  DE(clash)    DE(int)     intcor
     14.38     -17.04       3.49        0.00      72.82       3.37       0.16       2.50       ----

> <Gold.Chemscore.Fitness>
14.3846

> <Gold.Chemscore.DG>
-17.0409

> <Gold.Chemscore.ZeroCoef>
-5.4800

> <Gold.Chemscore.Hbond>
3.4931

> <Gold.Chemscore.Metal>
0.0000

> <Gold.Chemscore.Lipo>
72.8239

> <Gold.Chemscore.Internal_Hbond>
0.0000

> <Gold.Chemscore.DEClash>
0.1576

> <Gold.Chemscore.DEInternal>
2.4988

> <Gold.Chemscore.Rot>
3.3697

> <Gold.Chemscore.Internal.Correction>
   9.000000E+99

> <Gold.Chemscore.Hbonds>
donor molecule, donor type, donor heavy atom, donor atom, acceptor molecule, acceptor atom, score
      L1  H     1    27       P1  7957  0.01
      L1  H    22    44       P1  7948  0.40
      P1  H  7989  7998       L1     3  0.54
      P1  H  7997  8009       L1    12  0.70
      P1  H 10752 10765       L1    14  0.74

> <Gold.Chemscore.Hbond.Weighted>
-11.6669

> <Gold.Chemscore.Metal.Weighted>
-0.0000

> <Gold.Chemscore.Lipo.Weighted>
-8.5204

> <Gold.Chemscore.Internal_Hbond.Weighted>
0.0000

> <Gold.Chemscore.DEClash.Weighted>
0.1576

> <Gold.Chemscore.DEInternal.Weighted>
2.4988

> <Gold.Chemscore.Rot.Weighted>
8.6264

> <Gold.Chemscore.Internal.Correction.Weighted>
   9.000000E+99

> <Gold.Protein.RotatedTorsions>
[ 6907 6896 6895 6894 ] final  143.50 input  -60.11 | X-H torsion
[ 7974 7965 7964 7962 ] final  132.53 input  175.53 | X-H torsion
[ 8008 7997 7996 7995 ] final -169.65 input   59.86 | X-H torsion
[ 10167 10162 10161 10158 ] final   31.31 input  -65.29 | X-H torsion
[ 10718 10713 10712 10709 ] final   -4.22 input   66.30 | X-H torsion
[ 10763 10752 10751 10750 ] final -159.96 input  -60.55 | X-H torsion
[ 11005 11000 10999 10996 ] final   77.86 input  -57.11 | X-H torsion

> <Gold.Protein.ActiveResidues>
 VAL166  LYS551  ARG553  GLY616  TRP617  ASP618  TYR619  PRO620  LYS621  CYS622 
 ASP623  PHE694  ASN695  SER759  ASP760  ASP761  ALA762  ILE779  LEU786  VAL792 
 PHE793  MET794  SER795  GLU796  ALA797  LYS798  CYS799  TRP800  GLU811  SER814 

> <Gold.Protein.RotatedAtoms>
  152.2055  133.4872  159.5081 H   0  0  0  0  0  0  0  0  0  0  0  0  # atno 6907 bound_to 6896
  150.6979  134.1535  159.4158 H   0  0  0  0  0  0  0  0  0  0  0  0  # atno 6908 bound_to 6896
  151.9453  135.0194  160.0589 H   0  0  0  0  0  0  0  0  0  0  0  0  # atno 6909 bound_to 6896
  144.9959  139.4360  143.5316 H   0  0  0  0  0  0  0  0  0  0  0  0  # atno 7974 bound_to 7965
  155.9078  140.1052  157.1302 H   0  0  0  0  0  0  0  0  0  0  0  0  # atno 8008 bound_to 7997
  154.4035  140.1280  156.4582 H   0  0  0  0  0  0  0  0  0  0  0  0  # atno 8009 bound_to 7997
  155.7347  140.3468  155.5078 H   0  0  0  0  0  0  0  0  0  0  0  0  # atno 8010 bound_to 7997
  140.4600  144.0920  150.6210 H   0  0  0  0  0  0  0  0  0  0  0  0  # atno 10167 bound_to 10162
  156.7645  130.5280  149.5779 H   0  0  0  0  0  0  0  0  0  0  0  0  # atno 10718 bound_to 10713
  154.7431  135.3073  154.8694 H   0  0  0  0  0  0  0  0  0  0  0  0  # atno 10763 bound_to 10752
  153.9502  135.6764  153.4748 H   0  0  0  0  0  0  0  0  0  0  0  0  # atno 10764 bound_to 10752
  153.1028  135.4903  154.8823 H   0  0  0  0  0  0  0  0  0  0  0  0  # atno 10765 bound_to 10752
  139.9236  134.7717  156.1576 H   0  0  0  0  0  0  0  0  0  0  0  0  # atno 11005 bound_to 11000
  146.3441  139.9318  142.8752 LP  0  0  0  0  0  0  0  0  0  0  0  0  # atno 17320 bound_to 7965
  145.2221  140.9939  143.4039 LP  0  0  0  0  0  0  0  0  0  0  0  0  # atno 17321 bound_to 7965
  140.4104  143.2659  151.9839 LP  0  0  0  0  0  0  0  0  0  0  0  0  # atno 17342 bound_to 10162
  139.4805  144.5920  151.7755 LP  0  0  0  0  0  0  0  0  0  0  0  0  # atno 17343 bound_to 10162
  156.1318  130.6183  151.0344 LP  0  0  0  0  0  0  0  0  0  0  0  0  # atno 17370 bound_to 10713
  157.6719  131.0859  150.7590 LP  0  0  0  0  0  0  0  0  0  0  0  0  # atno 17371 bound_to 10713
  141.0777  133.6768  156.2271 LP  0  0  0  0  0  0  0  0  0  0  0  0  # atno 17394 bound_to 11000
  140.6400  134.5176  157.5568 LP  0  0  0  0  0  0  0  0  0  0  0  0  # atno 17395 bound_to 11000

$$$$
