AV-unprocessed.smi:2362|AV-procd|sdf|9413|dock3
  -GOLD-   2272013 53D 1   1.00000     0.00000
 Structure written by MMmdl.
 45 46  0  0  0  0  0  0  0  0  2 V2000
  140.4186  139.0458  153.6844 C   0  0  0  0  0  0  0  0  0  0  0  0
  141.0697  137.7107  153.3891 C   0  0  0  0  0  0  0  0  0  0  0  0
  140.3989  136.4989  153.6416 C   0  0  0  0  0  0  0  0  0  0  0  0
  141.0540  135.2871  153.3491 C   0  0  0  0  0  0  0  0  0  0  0  0
  142.3603  135.3146  152.8112 C   0  0  0  0  0  0  0  0  0  0  0  0
  142.9333  134.0399  152.5553 N   0  0  0  0  0  0  0  0  0  0  0  0
  144.2108  133.7520  152.2508 C   0  0  0  0  0  0  0  0  0  0  0  0
  145.1113  134.5784  152.1034 O   0  0  0  0  0  0  0  0  0  0  0  0
  144.3998  132.4283  152.1348 N   0  0  0  0  0  0  0  0  0  0  0  0
  145.6610  131.7692  151.7907 C   0  0  2  0  0  0  0  0  0  0  0  0
  145.5817  131.2607  150.3449 C   0  0  0  0  0  0  0  0  0  0  0  0
  145.9857  130.6175  152.7708 C   0  0  0  0  0  0  0  0  0  0  0  0
  147.0749  129.7282  152.2912 N   0  3  0  0  0  0  0  0  0  0  0  0
  147.9403  129.2321  153.3920 C   0  0  0  0  0  0  0  0  0  0  0  0
  149.1452  128.4523  152.8377 C   0  0  0  0  0  0  0  0  0  0  0  0
  148.6883  127.2988  151.9350 C   0  0  0  0  0  0  0  0  0  0  0  0
  147.7643  127.8305  150.8316 C   0  0  0  0  0  0  0  0  0  0  0  0
  146.5874  128.6162  151.4328 C   0  0  0  0  0  0  0  0  0  0  0  0
  142.9992  136.4873  152.5733 N   0  0  0  0  0  0  0  0  0  0  0  0
  142.3706  137.6484  152.8536 C   0  0  0  0  0  0  0  0  0  0  0  0
  139.3999  138.9181  154.0521 H   0  0  0  0  0  0  0  0  0  0  0  0
  140.3810  139.6564  152.7820 H   0  0  0  0  0  0  0  0  0  0  0  0
  140.9897  139.5846  154.4406 H   0  0  0  0  0  0  0  0  0  0  0  0
  139.4001  136.4931  154.0528 H   0  0  0  0  0  0  0  0  0  0  0  0
  140.5530  134.3486  153.5373 H   0  0  0  0  0  0  0  0  0  0  0  0
  142.2984  133.2583  152.6254 H   0  0  0  0  0  0  0  0  0  0  0  0
  143.6009  131.8261  152.2733 H   0  0  0  0  0  0  0  0  0  0  0  0
  146.4661  132.5046  151.8192 H   0  0  0  0  0  0  0  0  0  0  0  0
  146.5240  130.8056  150.0381 H   0  0  0  0  0  0  0  0  0  0  0  0
  145.3715  132.0759  149.6515 H   0  0  0  0  0  0  0  0  0  0  0  0
  144.7978  130.5118  150.2271 H   0  0  0  0  0  0  0  0  0  0  0  0
  146.2775  131.0611  153.7241 H   0  0  0  0  0  0  0  0  0  0  0  0
  145.0944  130.0224  152.9767 H   0  0  0  0  0  0  0  0  0  0  0  0
  148.3042  130.0727  153.9838 H   0  0  0  0  0  0  0  0  0  0  0  0
  147.3547  128.6003  154.0615 H   0  0  0  0  0  0  0  0  0  0  0  0
  149.7877  129.1275  152.2708 H   0  0  0  0  0  0  0  0  0  0  0  0
  149.7501  128.0661  153.6587 H   0  0  0  0  0  0  0  0  0  0  0  0
  149.5515  126.7979  151.4957 H   0  0  0  0  0  0  0  0  0  0  0  0
  148.1613  126.5515  152.5296 H   0  0  0  0  0  0  0  0  0  0  0  0
  148.3293  128.4769  150.1583 H   0  0  0  0  0  0  0  0  0  0  0  0
  147.3913  127.0036  150.2265 H   0  0  0  0  0  0  0  0  0  0  0  0
  145.9527  127.9510  152.0204 H   0  0  0  0  0  0  0  0  0  0  0  0
  145.9706  129.0053  150.6233 H   0  0  0  0  0  0  0  0  0  0  0  0
  142.9237  138.5525  152.6447 H   0  0  0  0  0  0  0  0  0  0  0  0
  147.6677  130.3030  151.7089 H   0  0  0  0  0  0  0  0  0  0  0  0
  1  2  1  0  0  0  0
  1 21  1  0  0  0  0
  1 22  1  0  0  0  0
  1 23  1  0  0  0  0
  2 20  1  0  0  0  0
  2  3  2  0  0  0  0
  3  4  1  0  0  0  0
  3 24  1  0  0  0  0
  4  5  2  0  0  0  0
  4 25  1  0  0  0  0
  5  6  1  0  0  0  0
  5 19  1  0  0  0  0
  6  7  1  0  0  0  0
  6 26  1  0  0  0  0
  7  8  2  0  0  0  0
  7  9  1  0  0  0  0
  9 10  1  0  0  0  0
  9 27  1  0  0  0  0
 10 11  1  0  0  0  0
 10 12  1  0  0  0  0
 10 28  1  0  0  0  0
 11 29  1  0  0  0  0
 11 30  1  0  0  0  0
 11 31  1  0  0  0  0
 12 13  1  0  0  0  0
 12 32  1  0  0  0  0
 12 33  1  0  0  0  0
 13 18  1  0  0  0  0
 13 14  1  0  0  0  0
 13 45  1  0  0  0  0
 14 15  1  0  0  0  0
 14 34  1  0  0  0  0
 14 35  1  0  0  0  0
 15 16  1  0  0  0  0
 15 36  1  0  0  0  0
 15 37  1  0  0  0  0
 16 17  1  0  0  0  0
 16 38  1  0  0  0  0
 16 39  1  0  0  0  0
 17 18  1  0  0  0  0
 17 40  1  0  0  0  0
 17 41  1  0  0  0  0
 18 42  1  0  0  0  0
 18 43  1  0  0  0  0
 19 20  2  0  0  0  0
 20 44  1  0  0  0  0
M  CHG  1  13   1
M  END
> <s_m_source_file>
AV-unprocessed.smi

> <i_m_source_file_index>
2362

> <i_lp_mmshare_version>
43012

> <i_f3d_flags>
0

> <s_epik_input>
W0NIM11jMVtjSF1bY0hdYyhuW2NIXTEpW05IXUMoPU8pW05IXVtDQEhdKFtDSDNdKVtDSDJdTjJbQ0gyXVtDSDJdW0NIMl1bQ0gyXVtDSDJdMg==

> <s_epik_cmdline>
J2VwaWtfcHl0aG9uJywgJy1waCcsICc3LjAnLCAnLXRuJywgJzgnLCAnLW1hJywgJzIwMCcsICctbWV0YWxfYmluZGluZycsICctaW1hZScsICc8aW5maWxlLm1hZT4nLCAnLW9tYWUnLCAnPG91dGZpbGUubWFlPic=

> <r_epik_Ionization_Penalty>
0.00215987

> <r_epik_Ionization_Penalty_Charging>
0.00211816

> <r_epik_Ionization_Penalty_Neutral>
4.17101e-05

> <r_epik_State_Penalty>
0.00145254

> <r_epik_Charging_Adjusted_Penalty>
0.0035707

> <i_epik_Tot_Q>
1

> <i_epik_Tot_abs_Q>
1

> <r_epik_Metal_State_Penalty>
-0

> <b_epik_Metal_Only>
0

> <s_lp_Force_Field>
OPLS_2005

> <r_lp_Energy>
24.6446

> <b_lp_Chiralities_Consistent>
1

> <s_lp_Variant>
AV-unprocessed.smi:2362-1

> <Gold.Version>
5.8.1

> <Gold.Id.Protein>
6NUR|6NUR_protein|mol2

> <Gold.PLP.Fitness>
41.1878

> <Gold.PLP.PLP>
-36.4916

> <Gold.PLP.part.hbond>
-2.3077

> <Gold.PLP.part.metal>
0.0000

> <Gold.PLP.part.buried>
-5.5079

> <Gold.PLP.part.nonpolar>
-30.4224

> <Gold.PLP.part.repulsive>
0.2657

> <Gold.PLP.ligand.clash>
0.0000

> <Gold.PLP.ligand.torsion>
0.6774

> <Gold.PLP.Chemscore.Hbond>
1.0000

> <Gold.PLP.Chemscore.CHOScore>
1.0000

> <Gold.PLP.Chemscore.Metal>
0.0000

> <Gold.Chemscore.Hbonds>
donor molecule, donor type, donor heavy atom, donor atom, acceptor molecule, acceptor atom, score
      L1  H    13    45       P1 10747  1.00
      L1  C    20    44       P1 10175  0.95

> <Gold.PLP.Chemscore.Internal.Correction>
0.0511

> <Gold.Rescore>
     Score         DG    S(hbond)    S(metal)    S(lipo)     H(rot)  DE(clash)    DE(int)     intcor
     14.14     -16.13       0.99        0.00      94.17       1.44       0.09       1.89       ----

> <Gold.Chemscore.Fitness>
14.1371

> <Gold.Chemscore.DG>
-16.1259

> <Gold.Chemscore.ZeroCoef>
-5.4800

> <Gold.Chemscore.Hbond>
0.9926

> <Gold.Chemscore.Metal>
0.0000

> <Gold.Chemscore.Lipo>
94.1737

> <Gold.Chemscore.Internal_Hbond>
0.0000

> <Gold.Chemscore.DEClash>
0.0950

> <Gold.Chemscore.DEInternal>
1.8938

> <Gold.Chemscore.Rot>
1.4404

> <Gold.Chemscore.Internal.Correction>
   9.000000E+99

> <Gold.Chemscore.Hbonds>
donor molecule, donor type, donor heavy atom, donor atom, acceptor molecule, acceptor atom, score
      L1  H    13    45       P1 10747  0.96

> <Gold.Chemscore.Hbond.Weighted>
-3.3151

> <Gold.Chemscore.Metal.Weighted>
-0.0000

> <Gold.Chemscore.Lipo.Weighted>
-11.0183

> <Gold.Chemscore.Internal_Hbond.Weighted>
0.0000

> <Gold.Chemscore.DEClash.Weighted>
0.0950

> <Gold.Chemscore.DEInternal.Weighted>
1.8938

> <Gold.Chemscore.Rot.Weighted>
3.6875

> <Gold.Chemscore.Internal.Correction.Weighted>
   9.000000E+99

> <Gold.Protein.RotatedTorsions>
[ 6907 6896 6895 6894 ] final   39.27 input  -60.11 | X-H torsion
[ 7974 7965 7964 7962 ] final -108.58 input  175.53 | X-H torsion
[ 8008 7997 7996 7995 ] final -127.10 input   59.86 | X-H torsion
[ 10167 10162 10161 10158 ] final  -11.38 input  -65.29 | X-H torsion
[ 10718 10713 10712 10709 ] final   -5.83 input   66.30 | X-H torsion
[ 10763 10752 10751 10750 ] final  -76.74 input  -60.55 | X-H torsion
[ 11005 11000 10999 10996 ] final   34.91 input  -57.11 | X-H torsion

> <Gold.Protein.ActiveResidues>
 VAL166  LYS551  ARG553  GLY616  TRP617  ASP618  TYR619  PRO620  LYS621  CYS622 
 ASP623  PHE694  ASN695  SER759  ASP760  ASP761  ALA762  ILE779  LEU786  VAL792 
 PHE793  MET794  SER795  GLU796  ALA797  LYS798  CYS799  TRP800  GLU811  SER814 

> <Gold.Protein.RotatedAtoms>
  152.1674  134.8863  160.0536 H   0  0  0  0  0  0  0  0  0  0  0  0  # atno 6907 bound_to 6896
  151.9836  133.3761  159.4125 H   0  0  0  0  0  0  0  0  0  0  0  0  # atno 6908 bound_to 6896
  150.6896  134.3935  159.5131 H   0  0  0  0  0  0  0  0  0  0  0  0  # atno 6909 bound_to 6896
  145.1912  140.9015  143.3424 H   0  0  0  0  0  0  0  0  0  0  0  0  # atno 7974 bound_to 7965
  155.2407  140.0428  157.2974 H   0  0  0  0  0  0  0  0  0  0  0  0  # atno 8008 bound_to 7997
  154.5830  140.2406  155.7996 H   0  0  0  0  0  0  0  0  0  0  0  0  # atno 8009 bound_to 7997
  156.2206  140.2971  155.9953 H   0  0  0  0  0  0  0  0  0  0  0  0  # atno 8010 bound_to 7997
  140.7137  143.5646  150.9158 H   0  0  0  0  0  0  0  0  0  0  0  0  # atno 10167 bound_to 10162
  156.7407  130.5209  149.5825 H   0  0  0  0  0  0  0  0  0  0  0  0  # atno 10718 bound_to 10713
  154.5039  135.5787  153.6552 H   0  0  0  0  0  0  0  0  0  0  0  0  # atno 10763 bound_to 10752
  152.9884  135.6142  154.2967 H   0  0  0  0  0  0  0  0  0  0  0  0  # atno 10764 bound_to 10752
  154.2877  135.2849  155.2648 H   0  0  0  0  0  0  0  0  0  0  0  0  # atno 10765 bound_to 10752
  140.2480  134.3336  155.7900 H   0  0  0  0  0  0  0  0  0  0  0  0  # atno 11005 bound_to 11000
  145.0040  139.3572  143.6153 LP  0  0  0  0  0  0  0  0  0  0  0  0  # atno 17320 bound_to 7965
  146.3436  139.9274  142.8758 LP  0  0  0  0  0  0  0  0  0  0  0  0  # atno 17321 bound_to 7965
  139.9372  143.6424  152.3062 LP  0  0  0  0  0  0  0  0  0  0  0  0  # atno 17342 bound_to 10162
  139.6896  144.7648  151.1462 LP  0  0  0  0  0  0  0  0  0  0  0  0  # atno 17343 bound_to 10162
  156.1466  130.6281  151.0540 LP  0  0  0  0  0  0  0  0  0  0  0  0  # atno 17370 bound_to 10713
  157.6819  131.0835  150.7346 LP  0  0  0  0  0  0  0  0  0  0  0  0  # atno 17371 bound_to 10713
  141.2204  133.7337  156.8992 LP  0  0  0  0  0  0  0  0  0  0  0  0  # atno 17394 bound_to 11000
  140.1586  134.9181  157.2686 LP  0  0  0  0  0  0  0  0  0  0  0  0  # atno 17395 bound_to 11000

$$$$
