AV-unprocessed.smi:1217|AV-procd|sdf|5102|dock2
  -GOLD-   22720 4153D 1   1.00000     0.00000
 Structure written by MMmdl.
 34 35  0  0  0  0  0  0  0  0  1 V2000
  148.2321  141.4603  153.7472 C   0  0  0  0  0  0  0  0  0  0  0  0
  149.0328  140.8040  154.8822 C   0  0  2  0  0  0  0  0  0  0  0  0
  149.8697  141.8240  155.5108 N   0  0  0  0  0  0  0  0  0  0  0  0
  150.0806  141.9591  156.8288 C   0  0  0  0  0  0  0  0  0  0  0  0
  149.5793  141.2227  157.6788 O   0  0  0  0  0  0  0  0  0  0  0  0
  150.9067  142.9890  157.0839 N   0  0  0  0  0  0  0  0  0  0  0  0
  151.3299  143.4831  158.3466 C   0  0  0  0  0  0  0  0  0  0  0  0
  151.4032  144.8912  158.4443 C   0  0  0  0  0  0  0  0  0  0  0  0
  151.8067  145.4818  159.6575 C   0  0  0  0  0  0  0  0  0  0  0  0
  152.1242  144.6483  160.7446 C   0  0  0  0  0  0  0  0  0  0  0  0
  152.0240  143.2564  160.5641 C   0  0  0  0  0  0  0  0  0  0  0  0
  151.6389  142.6884  159.4018 N   0  0  0  0  0  0  0  0  0  0  0  0
  149.9135  139.6419  154.3798 C   0  0  2  0  0  0  0  0  0  0  0  0
  149.6245  138.2900  155.0354 C   0  0  0  0  0  0  0  0  0  0  0  0
  150.9430  137.5390  154.9218 C   0  0  0  0  0  0  0  0  0  0  0  0
  151.9538  138.6168  154.5233 C   0  0  0  0  0  0  0  0  0  0  0  0
  151.2747  139.8468  154.7266 O   0  0  0  0  0  0  0  0  0  0  0  0
  147.5543  140.7488  153.2754 H   0  0  0  0  0  0  0  0  0  0  0  0
  148.8904  141.8559  152.9730 H   0  0  0  0  0  0  0  0  0  0  0  0
  147.6256  142.2853  154.1223 H   0  0  0  0  0  0  0  0  0  0  0  0
  148.3168  140.4141  155.6081 H   0  0  0  0  0  0  0  0  0  0  0  0
  150.3289  142.4740  154.8902 H   0  0  0  0  0  0  0  0  0  0  0  0
  151.2639  143.4862  156.2818 H   0  0  0  0  0  0  0  0  0  0  0  0
  151.1541  145.5168  157.5995 H   0  0  0  0  0  0  0  0  0  0  0  0
  151.8701  146.5558  159.7517 H   0  0  0  0  0  0  0  0  0  0  0  0
  152.4359  145.0640  161.6913 H   0  0  0  0  0  0  0  0  0  0  0  0
  152.2578  142.5814  161.3739 H   0  0  0  0  0  0  0  0  0  0  0  0
  149.8388  139.5495  153.2943 H   0  0  0  0  0  0  0  0  0  0  0  0
  149.3761  138.4268  156.0889 H   0  0  0  0  0  0  0  0  0  0  0  0
  148.7961  137.7624  154.5618 H   0  0  0  0  0  0  0  0  0  0  0  0
  151.2062  137.0760  155.8732 H   0  0  0  0  0  0  0  0  0  0  0  0
  150.8970  136.7535  154.1668 H   0  0  0  0  0  0  0  0  0  0  0  0
  152.8715  138.5703  155.1100 H   0  0  0  0  0  0  0  0  0  0  0  0
  152.2184  138.5241  153.4689 H   0  0  0  0  0  0  0  0  0  0  0  0
  1  2  1  0  0  0  0
  1 18  1  0  0  0  0
  1 19  1  0  0  0  0
  1 20  1  0  0  0  0
  2  3  1  0  0  0  0
  2 13  1  0  0  0  0
  2 21  1  0  0  0  0
  3  4  1  0  0  0  0
  3 22  1  0  0  0  0
  4  5  2  0  0  0  0
  4  6  1  0  0  0  0
  6  7  1  0  0  0  0
  6 23  1  0  0  0  0
  7 12  1  0  0  0  0
  7  8  2  0  0  0  0
  8  9  1  0  0  0  0
  8 24  1  0  0  0  0
  9 10  2  0  0  0  0
  9 25  1  0  0  0  0
 10 11  1  0  0  0  0
 10 26  1  0  0  0  0
 11 12  2  0  0  0  0
 11 27  1  0  0  0  0
 13 17  1  0  0  0  0
 13 14  1  0  0  0  0
 13 28  1  0  0  0  0
 14 15  1  0  0  0  0
 14 29  1  0  0  0  0
 14 30  1  0  0  0  0
 15 16  1  0  0  0  0
 15 31  1  0  0  0  0
 15 32  1  0  0  0  0
 16 17  1  0  0  0  0
 16 33  1  0  0  0  0
 16 34  1  0  0  0  0
M  END
> <s_m_source_file>
AV-unprocessed.smi

> <i_m_source_file_index>
1217

> <i_lp_mmshare_version>
43012

> <i_f3d_flags>
0

> <s_epik_input>
TzFbQ0gyXVtDSDJdW0NIMl1bQ0BIXTFbQ0BIXShbQ0gzXSlbTkhdQyg9TylbTkhdYzJbY0hdW2NIXVtjSF1bY0hdbjI=

> <s_epik_cmdline>
J2VwaWtfcHl0aG9uJywgJy1waCcsICc3LjAnLCAnLXRuJywgJzgnLCAnLW1hJywgJzIwMCcsICctbWV0YWxfYmluZGluZycsICctaW1hZScsICc8aW5maWxlLm1hZT4nLCAnLW9tYWUnLCAnPG91dGZpbGUubWFlPic=

> <r_lp_tautomer_probability>
1

> <r_epik_Ionization_Penalty>
4.51768e-05

> <r_epik_Ionization_Penalty_Charging>
0

> <r_epik_Ionization_Penalty_Neutral>
4.51768e-05

> <r_epik_State_Penalty>
-0

> <r_epik_Charging_Adjusted_Penalty>
0

> <i_epik_Tot_Q>
0

> <i_epik_Tot_abs_Q>
0

> <r_epik_Metal_State_Penalty>
-0

> <b_epik_Metal_Only>
0

> <s_lp_Force_Field>
OPLS_2005

> <r_lp_Energy>
20.7335

> <b_lp_Chiralities_Consistent>
1

> <s_lp_Variant>
AV-unprocessed.smi:1217-1

> <Gold.Version>
5.8.1

> <Gold.Id.Protein>
6NUR|6NUR_protein|mol2

> <Gold.PLP.Fitness>
38.4527

> <Gold.PLP.PLP>
-39.5879

> <Gold.PLP.part.hbond>
-2.7572

> <Gold.PLP.part.metal>
0.0000

> <Gold.PLP.part.buried>
-6.2777

> <Gold.PLP.part.nonpolar>
-30.9217

> <Gold.PLP.part.repulsive>
0.2860

> <Gold.PLP.ligand.clash>
0.0000

> <Gold.PLP.ligand.torsion>
2.0812

> <Gold.PLP.Chemscore.Hbond>
1.0000

> <Gold.PLP.Chemscore.CHOScore>
0.0000

> <Gold.PLP.Chemscore.Metal>
0.0000

> <Gold.Chemscore.Hbonds>
donor molecule, donor type, donor heavy atom, donor atom, acceptor molecule, acceptor atom, score
      P1  H  7989  7998       L1    17  0.85

> <Gold.PLP.Chemscore.Internal.Correction>
0.0273

> <Gold.Rescore>
     Score         DG    S(hbond)    S(metal)    S(lipo)     H(rot)  DE(clash)    DE(int)     intcor
     13.35     -15.87       0.94        0.00      89.33       1.25       0.05       2.47       ----

> <Gold.Chemscore.Fitness>
13.3515

> <Gold.Chemscore.DG>
-15.8725

> <Gold.Chemscore.ZeroCoef>
-5.4800

> <Gold.Chemscore.Hbond>
0.9408

> <Gold.Chemscore.Metal>
0.0000

> <Gold.Chemscore.Lipo>
89.3321

> <Gold.Chemscore.Internal_Hbond>
0.0000

> <Gold.Chemscore.DEClash>
0.0522

> <Gold.Chemscore.DEInternal>
2.4688

> <Gold.Chemscore.Rot>
1.2506

> <Gold.Chemscore.Internal.Correction>
   9.000000E+99

> <Gold.Chemscore.Hbonds>
donor molecule, donor type, donor heavy atom, donor atom, acceptor molecule, acceptor atom, score
      P1  H  7989  7998       L1    17  0.10

> <Gold.Chemscore.Hbond.Weighted>
-3.1422

> <Gold.Chemscore.Metal.Weighted>
-0.0000

> <Gold.Chemscore.Lipo.Weighted>
-10.4519

> <Gold.Chemscore.Internal_Hbond.Weighted>
0.0000

> <Gold.Chemscore.DEClash.Weighted>
0.0522

> <Gold.Chemscore.DEInternal.Weighted>
2.4688

> <Gold.Chemscore.Rot.Weighted>
3.2016

> <Gold.Chemscore.Internal.Correction.Weighted>
   9.000000E+99

> <Gold.Protein.RotatedTorsions>
[ 6907 6896 6895 6894 ] final   91.62 input  -60.11 | X-H torsion
[ 7974 7965 7964 7962 ] final -163.26 input  175.53 | X-H torsion
[ 8008 7997 7996 7995 ] final  -56.24 input   59.86 | X-H torsion
[ 10167 10162 10161 10158 ] final    6.86 input  -65.29 | X-H torsion
[ 10718 10713 10712 10709 ] final   -3.82 input   66.30 | X-H torsion
[ 10763 10752 10751 10750 ] final   79.50 input  -60.55 | X-H torsion
[ 11005 11000 10999 10996 ] final   41.58 input  -57.11 | X-H torsion

> <Gold.Protein.ActiveResidues>
 VAL166  LYS551  ARG553  GLY616  TRP617  ASP618  TYR619  PRO620  LYS621  CYS622 
 ASP623  PHE694  ASN695  SER759  ASP760  ASP761  ALA762  ILE779  LEU786  VAL792 
 PHE793  MET794  SER795  GLU796  ALA797  LYS798  CYS799  TRP800  GLU811  SER814 

> <Gold.Protein.RotatedAtoms>
  152.5450  134.1628  159.8564 H   0  0  0  0  0  0  0  0  0  0  0  0  # atno 6907 bound_to 6896
  151.1645  133.4816  159.2601 H   0  0  0  0  0  0  0  0  0  0  0  0  # atno 6908 bound_to 6896
  151.1338  135.0155  159.8650 H   0  0  0  0  0  0  0  0  0  0  0  0  # atno 6909 bound_to 6896
  144.7331  140.3133  143.6184 H   0  0  0  0  0  0  0  0  0  0  0  0  # atno 7974 bound_to 7965
  154.4223  140.1134  156.5606 H   0  0  0  0  0  0  0  0  0  0  0  0  # atno 8008 bound_to 7997
  155.6315  140.3495  155.4665 H   0  0  0  0  0  0  0  0  0  0  0  0  # atno 8009 bound_to 7997
  155.9944  140.1186  157.0597 H   0  0  0  0  0  0  0  0  0  0  0  0  # atno 8010 bound_to 7997
  140.6404  143.7788  150.7420 H   0  0  0  0  0  0  0  0  0  0  0  0  # atno 10167 bound_to 10162
  156.7704  130.5298  149.5768 H   0  0  0  0  0  0  0  0  0  0  0  0  # atno 10718 bound_to 10713
  153.0957  135.4837  154.8774 H   0  0  0  0  0  0  0  0  0  0  0  0  # atno 10763 bound_to 10752
  154.7322  135.3062  154.8875 H   0  0  0  0  0  0  0  0  0  0  0  0  # atno 10764 bound_to 10752
  153.9507  135.6823  153.4797 H   0  0  0  0  0  0  0  0  0  0  0  0  # atno 10765 bound_to 10752
  140.1820  134.4092  155.8194 H   0  0  0  0  0  0  0  0  0  0  0  0  # atno 11005 bound_to 11000
  145.7643  139.1835  143.2249 LP  0  0  0  0  0  0  0  0  0  0  0  0  # atno 17320 bound_to 7965
  146.0962  140.7598  142.9571 LP  0  0  0  0  0  0  0  0  0  0  0  0  # atno 17321 bound_to 7965
  140.1418  143.4434  152.2189 LP  0  0  0  0  0  0  0  0  0  0  0  0  # atno 17342 bound_to 10162
  139.5613  144.7407  151.4147 LP  0  0  0  0  0  0  0  0  0  0  0  0  # atno 17343 bound_to 10162
  156.1281  130.6158  151.0294 LP  0  0  0  0  0  0  0  0  0  0  0  0  # atno 17370 bound_to 10713
  157.6693  131.0865  150.7651 LP  0  0  0  0  0  0  0  0  0  0  0  0  # atno 17371 bound_to 10713
  141.2223  133.7005  156.7948 LP  0  0  0  0  0  0  0  0  0  0  0  0  # atno 17394 bound_to 11000
  140.2256  134.8724  157.3423 LP  0  0  0  0  0  0  0  0  0  0  0  0  # atno 17395 bound_to 11000

$$$$
