AV-unprocessed.smi:3144|AV-procd|sdf|11978|dock2
  -GOLD-   2272017373D 1   1.00000     0.00000
 Structure written by MMmdl.
 40 41  0  0  0  0  0  0  0  0  2 V2000
  150.5582  136.7131  155.4531 C   0  0  0  0  0  0  0  0  0  0  0  0
  150.4525  138.1916  155.2126 C   0  0  0  0  0  0  0  0  0  0  0  0
  150.1166  138.8566  153.9992 C   0  0  0  0  0  0  0  0  0  0  0  0
  150.1117  140.1744  154.1195 N   0  0  0  0  0  0  0  0  0  0  0  0
  150.4426  140.3964  155.4087 N   0  0  0  0  0  0  0  0  0  0  0  0
  150.5333  141.7566  155.9021 C   0  0  0  0  0  0  0  0  0  0  0  0
  150.1207  141.8528  157.3779 C   0  0  0  0  0  0  0  0  0  0  0  0
  150.1918  143.2462  157.8576 N   0  3  0  0  0  0  0  0  0  0  0  0
  151.5319  143.8551  157.7395 C   0  0  0  0  0  0  0  0  0  0  0  0
  152.3352  143.7202  159.0462 C   0  0  0  0  0  0  0  0  0  0  0  0
  152.8294  142.2718  159.2413 C   0  0  0  0  0  0  0  0  0  0  0  0
  153.6397  142.1162  160.5385 C   0  0  0  0  0  0  0  0  0  0  0  0
  152.8287  142.5757  161.7593 C   0  0  0  0  0  0  0  0  0  0  0  0
  152.3285  144.0166  161.5788 C   0  0  0  0  0  0  0  0  0  0  0  0
  151.5202  144.1681  160.2798 C   0  0  0  0  0  0  0  0  0  0  0  0
  150.6533  139.2178  156.0923 C   0  0  0  0  0  0  0  0  0  0  0  0
  149.8748  136.1508  154.8163 H   0  0  0  0  0  0  0  0  0  0  0  0
  150.3215  136.4522  156.4848 H   0  0  0  0  0  0  0  0  0  0  0  0
  151.5637  136.3446  155.2494 H   0  0  0  0  0  0  0  0  0  0  0  0
  149.8776  138.4223  153.0396 H   0  0  0  0  0  0  0  0  0  0  0  0
  151.5580  142.1065  155.7665 H   0  0  0  0  0  0  0  0  0  0  0  0
  149.8969  142.3930  155.2858 H   0  0  0  0  0  0  0  0  0  0  0  0
  149.1042  141.4782  157.5057 H   0  0  0  0  0  0  0  0  0  0  0  0
  150.7736  141.2316  157.9926 H   0  0  0  0  0  0  0  0  0  0  0  0
  149.5384  143.8022  157.3245 H   0  0  0  0  0  0  0  0  0  0  0  0
  152.0733  143.3946  156.9118 H   0  0  0  0  0  0  0  0  0  0  0  0
  151.4078  144.9101  157.4908 H   0  0  0  0  0  0  0  0  0  0  0  0
  153.2160  144.3601  158.9676 H   0  0  0  0  0  0  0  0  0  0  0  0
  151.9775  141.5907  159.2626 H   0  0  0  0  0  0  0  0  0  0  0  0
  153.4441  141.9684  158.3930 H   0  0  0  0  0  0  0  0  0  0  0  0
  153.9435  141.0765  160.6650 H   0  0  0  0  0  0  0  0  0  0  0  0
  154.5587  142.6999  160.4684 H   0  0  0  0  0  0  0  0  0  0  0  0
  151.9781  141.9089  161.9056 H   0  0  0  0  0  0  0  0  0  0  0  0
  153.4375  142.5028  162.6610 H   0  0  0  0  0  0  0  0  0  0  0  0
  151.7170  144.3066  162.4336 H   0  0  0  0  0  0  0  0  0  0  0  0
  153.1792  144.6993  161.5620 H   0  0  0  0  0  0  0  0  0  0  0  0
  151.2082  145.2074  160.1732 H   0  0  0  0  0  0  0  0  0  0  0  0
  150.6051  143.5788  160.3521 H   0  0  0  0  0  0  0  0  0  0  0  0
  150.9266  139.2055  157.1372 H   0  0  0  0  0  0  0  0  0  0  0  0
  149.9164  143.2665  158.8290 H   0  0  0  0  0  0  0  0  0  0  0  0
  1  2  1  0  0  0  0
  1 17  1  0  0  0  0
  1 18  1  0  0  0  0
  1 19  1  0  0  0  0
  2 16  2  0  0  0  0
  2  3  1  0  0  0  0
  3  4  2  0  0  0  0
  3 20  1  0  0  0  0
  4  5  1  0  0  0  0
  5  6  1  0  0  0  0
  5 16  1  0  0  0  0
  6  7  1  0  0  0  0
  6 21  1  0  0  0  0
  6 22  1  0  0  0  0
  7  8  1  0  0  0  0
  7 23  1  0  0  0  0
  7 24  1  0  0  0  0
  8  9  1  0  0  0  0
  8 25  1  0  0  0  0
  8 40  1  0  0  0  0
  9 10  1  0  0  0  0
  9 26  1  0  0  0  0
  9 27  1  0  0  0  0
 10 15  1  0  0  0  0
 10 11  1  0  0  0  0
 10 28  1  0  0  0  0
 11 12  1  0  0  0  0
 11 29  1  0  0  0  0
 11 30  1  0  0  0  0
 12 13  1  0  0  0  0
 12 31  1  0  0  0  0
 12 32  1  0  0  0  0
 13 14  1  0  0  0  0
 13 33  1  0  0  0  0
 13 34  1  0  0  0  0
 14 15  1  0  0  0  0
 14 35  1  0  0  0  0
 14 36  1  0  0  0  0
 15 37  1  0  0  0  0
 15 38  1  0  0  0  0
 16 39  1  0  0  0  0
M  CHG  1   8   1
M  END
> <s_m_source_file>
AV-unprocessed.smi

> <i_m_source_file_index>
3144

> <i_lp_mmshare_version>
43012

> <i_f3d_flags>
0

> <s_epik_input>
W0NIM11jMVtjSF1ubihbY0hdMSlbQ0gyXVtDSDJdW05IXVtDSDJdW0NIXTJbQ0gyXVtDSDJdW0NIMl1bQ0gyXVtDSDJdMg==

> <s_epik_cmdline>
J2VwaWtfcHl0aG9uJywgJy1waCcsICc3LjAnLCAnLXRuJywgJzgnLCAnLW1hJywgJzIwMCcsICctbWV0YWxfYmluZGluZycsICctaW1hZScsICc8aW5maWxlLm1hZT4nLCAnLW9tYWUnLCAnPG91dGZpbGUubWFlPic=

> <r_lp_tautomer_probability>
1

> <r_epik_Ionization_Penalty>
0.0017464

> <r_epik_Ionization_Penalty_Charging>
0.00174052

> <r_epik_Ionization_Penalty_Neutral>
5.87243e-06

> <r_epik_State_Penalty>
-0

> <r_epik_Charging_Adjusted_Penalty>
0.00174052

> <i_epik_Tot_Q>
1

> <i_epik_Tot_abs_Q>
1

> <r_epik_Metal_State_Penalty>
-0

> <b_epik_Metal_Only>
0

> <s_lp_Force_Field>
OPLS_2005

> <r_lp_Energy>
13.1437

> <b_lp_Chiralities_Consistent>
1

> <s_lp_Variant>
AV-unprocessed.smi:3144-1

> <Gold.Version>
5.8.1

> <Gold.Id.Protein>
6NUR|6NUR_protein|mol2

> <Gold.PLP.Fitness>
54.7696

> <Gold.PLP.PLP>
-43.4990

> <Gold.PLP.part.hbond>
-1.9530

> <Gold.PLP.part.metal>
0.0000

> <Gold.PLP.part.buried>
-4.2729

> <Gold.PLP.part.nonpolar>
-37.0617

> <Gold.PLP.part.repulsive>
0.6548

> <Gold.PLP.ligand.clash>
0.0000

> <Gold.PLP.ligand.torsion>
0.6786

> <Gold.PLP.Chemscore.Hbond>
2.9500

> <Gold.PLP.Chemscore.CHOScore>
1.2356

> <Gold.PLP.Chemscore.Metal>
0.0000

> <Gold.Chemscore.Hbonds>
donor molecule, donor type, donor heavy atom, donor atom, acceptor molecule, acceptor atom, score
      L1  H     8    25       P1  8028  2.00
      P1  H  7989  7998       L1     4  0.65
      L1  C     3    20       P1  7948  0.81
      L1  C     3    20       P1  7957  0.73

> <Gold.PLP.Chemscore.Internal.Correction>
0.0711

> <Gold.Rescore>
     Score         DG    S(hbond)    S(metal)    S(lipo)     H(rot)  DE(clash)    DE(int)     intcor
     18.23     -19.11       0.98        0.00     121.30       1.50       0.26       0.61       ----

> <Gold.Chemscore.Fitness>
18.2305

> <Gold.Chemscore.DG>
-19.1070

> <Gold.Chemscore.ZeroCoef>
-5.4800

> <Gold.Chemscore.Hbond>
0.9831

> <Gold.Chemscore.Metal>
0.0000

> <Gold.Chemscore.Lipo>
121.3037

> <Gold.Chemscore.Internal_Hbond>
0.0000

> <Gold.Chemscore.DEClash>
0.2627

> <Gold.Chemscore.DEInternal>
0.6139

> <Gold.Chemscore.Rot>
1.5036

> <Gold.Chemscore.Internal.Correction>
   9.000000E+99

> <Gold.Chemscore.Hbonds>
donor molecule, donor type, donor heavy atom, donor atom, acceptor molecule, acceptor atom, score
      L1  H     8    25       P1  8028  0.57
      P1  H  7989  7998       L1     4  0.05

> <Gold.Chemscore.Hbond.Weighted>
-3.2837

> <Gold.Chemscore.Metal.Weighted>
-0.0000

> <Gold.Chemscore.Lipo.Weighted>
-14.1925

> <Gold.Chemscore.Internal_Hbond.Weighted>
0.0000

> <Gold.Chemscore.DEClash.Weighted>
0.2627

> <Gold.Chemscore.DEInternal.Weighted>
0.6139

> <Gold.Chemscore.Rot.Weighted>
3.8492

> <Gold.Chemscore.Internal.Correction.Weighted>
   9.000000E+99

> <Gold.Protein.RotatedTorsions>
[ 6907 6896 6895 6894 ] final   45.26 input  -60.11 | X-H torsion
[ 7974 7965 7964 7962 ] final  -88.91 input  175.53 | X-H torsion
[ 8008 7997 7996 7995 ] final   53.64 input   59.86 | X-H torsion
[ 10167 10162 10161 10158 ] final   98.47 input  -65.29 | X-H torsion
[ 10718 10713 10712 10709 ] final   -8.38 input   66.30 | X-H torsion
[ 10763 10752 10751 10750 ] final   31.65 input  -60.55 | X-H torsion
[ 11005 11000 10999 10996 ] final   26.69 input  -57.11 | X-H torsion

> <Gold.Protein.ActiveResidues>
 VAL166  LYS551  ARG553  GLY616  TRP617  ASP618  TYR619  PRO620  LYS621  CYS622 
 ASP623  PHE694  ASN695  SER759  ASP760  ASP761  ALA762  ILE779  LEU786  VAL792 
 PHE793  MET794  SER795  GLU796  ALA797  LYS798  CYS799  TRP800  GLU811  SER814 

> <Gold.Protein.RotatedAtoms>
  152.2424  134.8215  160.0458 H   0  0  0  0  0  0  0  0  0  0  0  0  # atno 6907 bound_to 6896
  151.8924  133.3514  159.3811 H   0  0  0  0  0  0  0  0  0  0  0  0  # atno 6908 bound_to 6896
  150.7058  134.4836  159.5526 H   0  0  0  0  0  0  0  0  0  0  0  0  # atno 6909 bound_to 6896
  145.4469  140.9560  143.2044 H   0  0  0  0  0  0  0  0  0  0  0  0  # atno 7974 bound_to 7965
  155.4716  140.3465  155.4326 H   0  0  0  0  0  0  0  0  0  0  0  0  # atno 8008 bound_to 7997
  156.1097  140.1457  156.9385 H   0  0  0  0  0  0  0  0  0  0  0  0  # atno 8009 bound_to 7997
  154.4748  140.0889  156.7213 H   0  0  0  0  0  0  0  0  0  0  0  0  # atno 8010 bound_to 7997
  139.7705  144.6924  151.0162 H   0  0  0  0  0  0  0  0  0  0  0  0  # atno 10167 bound_to 10162
  156.7034  130.5100  149.5911 H   0  0  0  0  0  0  0  0  0  0  0  0  # atno 10718 bound_to 10713
  153.0304  135.6433  154.1232 H   0  0  0  0  0  0  0  0  0  0  0  0  # atno 10763 bound_to 10752
  154.0955  135.2863  155.3264 H   0  0  0  0  0  0  0  0  0  0  0  0  # atno 10764 bound_to 10752
  154.6435  135.5451  153.7880 H   0  0  0  0  0  0  0  0  0  0  0  0  # atno 10765 bound_to 10752
  140.3344  134.2402  155.7698 H   0  0  0  0  0  0  0  0  0  0  0  0  # atno 11005 bound_to 11000
  144.8086  139.6004  143.7039 LP  0  0  0  0  0  0  0  0  0  0  0  0  # atno 17320 bound_to 7965
  146.2526  139.6232  142.9417 LP  0  0  0  0  0  0  0  0  0  0  0  0  # atno 17321 bound_to 7965
  140.7813  143.4594  151.0300 LP  0  0  0  0  0  0  0  0  0  0  0  0  # atno 17342 bound_to 10162
  139.8277  143.7733  152.3179 LP  0  0  0  0  0  0  0  0  0  0  0  0  # atno 17343 bound_to 10162
  156.1712  130.6438  151.0840 LP  0  0  0  0  0  0  0  0  0  0  0  0  # atno 17370 bound_to 10713
  157.6964  131.0792  150.6955 LP  0  0  0  0  0  0  0  0  0  0  0  0  # atno 17371 bound_to 10713
  141.2055  133.7858  157.0229 LP  0  0  0  0  0  0  0  0  0  0  0  0  # atno 17394 bound_to 11000
  140.0834  134.9635  157.1660 LP  0  0  0  0  0  0  0  0  0  0  0  0  # atno 17395 bound_to 11000

$$$$
