AV-unprocessed.smi:1356|AV-procd|sdf|5545|dock5
  -GOLD-   22720 5133D 1   1.00000     0.00000
 Structure written by MMmdl.
 42 43  0  0  0  0  0  0  0  0  2 V2000
  150.6763  131.2941  155.4903 C   0  0  0  0  0  0  0  0  0  0  0  0
  150.0581  131.7844  154.1927 C   0  0  1  0  0  0  0  0  0  0  0  0
  148.6452  132.3157  154.1621 C   0  0  0  0  0  0  0  0  0  0  0  0
  149.8019  133.2497  153.8643 C   0  0  1  0  0  0  0  0  0  0  0  0
  150.1234  134.3128  154.8684 C   0  0  0  0  0  0  0  0  0  0  0  0
  150.5651  134.0768  155.9937 O   0  0  0  0  0  0  0  0  0  0  0  0
  149.8788  135.5573  154.4337 N   0  0  0  0  0  0  0  0  0  0  0  0
  150.1110  136.7621  155.2182 C   0  0  0  0  0  0  0  0  0  0  0  0
  150.9717  137.7655  154.4342 C   0  0  0  0  0  0  0  0  0  0  0  0
  151.3270  138.9870  155.2833 C   0  0  0  0  0  0  0  0  0  0  0  0
  152.1203  139.8260  154.8575 O   0  0  0  0  0  0  0  0  0  0  0  0
  150.7481  139.0662  156.4910 N   0  0  0  0  0  0  0  0  0  0  0  0
  151.0035  140.1097  157.4805 C   0  0  0  0  0  0  0  0  0  0  0  0
  150.8002  141.5361  156.9263 C   0  0  0  0  0  0  0  0  0  0  0  0
  151.3652  142.6268  157.8204 C   0  0  0  0  0  0  0  0  0  0  0  0
  152.2601  142.3439  158.8759 C   0  0  0  0  0  0  0  0  0  0  0  0
  152.7364  143.4010  159.6785 C   0  0  0  0  0  0  0  0  0  0  0  0
  152.3111  144.7181  159.4073 C   0  0  0  0  0  0  0  0  0  0  0  0
  151.4187  144.9442  158.3394 C   0  0  0  0  0  0  0  0  0  0  0  0
  150.9834  143.9044  157.5943 N   0  3  0  0  0  0  0  0  0  0  0  0
  150.1981  131.7445  156.3597 H   0  0  0  0  0  0  0  0  0  0  0  0
  151.7403  131.5306  155.5118 H   0  0  0  0  0  0  0  0  0  0  0  0
  150.5619  130.2129  155.5682 H   0  0  0  0  0  0  0  0  0  0  0  0
  150.3705  131.1884  153.3373 H   0  0  0  0  0  0  0  0  0  0  0  0
  148.0127  132.0323  153.3234 H   0  0  0  0  0  0  0  0  0  0  0  0
  148.1232  132.4167  155.1121 H   0  0  0  0  0  0  0  0  0  0  0  0
  149.9520  133.5270  152.8218 H   0  0  0  0  0  0  0  0  0  0  0  0
  149.5168  135.6757  153.4984 H   0  0  0  0  0  0  0  0  0  0  0  0
  149.1502  137.2124  155.4752 H   0  0  0  0  0  0  0  0  0  0  0  0
  150.6007  136.4892  156.1546 H   0  0  0  0  0  0  0  0  0  0  0  0
  151.8975  137.2904  154.1071 H   0  0  0  0  0  0  0  0  0  0  0  0
  150.4464  138.0819  153.5315 H   0  0  0  0  0  0  0  0  0  0  0  0
  150.0990  138.3382  156.7530 H   0  0  0  0  0  0  0  0  0  0  0  0
  150.3822  139.9515  158.3633 H   0  0  0  0  0  0  0  0  0  0  0  0
  152.0370  139.9943  157.8080 H   0  0  0  0  0  0  0  0  0  0  0  0
  151.2644  141.6174  155.9426 H   0  0  0  0  0  0  0  0  0  0  0  0
  149.7368  141.7202  156.7686 H   0  0  0  0  0  0  0  0  0  0  0  0
  152.5725  141.3285  159.0740 H   0  0  0  0  0  0  0  0  0  0  0  0
  153.4182  143.2035  160.4929 H   0  0  0  0  0  0  0  0  0  0  0  0
  152.6641  145.5425  160.0097 H   0  0  0  0  0  0  0  0  0  0  0  0
  151.0420  145.9178  158.0616 H   0  0  0  0  0  0  0  0  0  0  0  0
  150.3369  144.0915  156.8274 H   0  0  0  0  0  0  0  0  0  0  0  0
  1  2  1  0  0  0  0
  1 21  1  0  0  0  0
  1 22  1  0  0  0  0
  1 23  1  0  0  0  0
  2  4  1  0  0  0  0
  2  3  1  0  0  0  0
  2 24  1  0  0  0  0
  3  4  1  0  0  0  0
  3 25  1  0  0  0  0
  3 26  1  0  0  0  0
  4  5  1  0  0  0  0
  4 27  1  0  0  0  0
  5  6  2  0  0  0  0
  5  7  1  0  0  0  0
  7  8  1  0  0  0  0
  7 28  1  0  0  0  0
  8  9  1  0  0  0  0
  8 29  1  0  0  0  0
  8 30  1  0  0  0  0
  9 10  1  0  0  0  0
  9 31  1  0  0  0  0
  9 32  1  0  0  0  0
 10 11  2  0  0  0  0
 10 12  1  0  0  0  0
 12 13  1  0  0  0  0
 12 33  1  0  0  0  0
 13 14  1  0  0  0  0
 13 34  1  0  0  0  0
 13 35  1  0  0  0  0
 14 15  1  0  0  0  0
 14 36  1  0  0  0  0
 14 37  1  0  0  0  0
 15 20  1  0  0  0  0
 15 16  2  0  0  0  0
 16 17  1  0  0  0  0
 16 38  1  0  0  0  0
 17 18  2  0  0  0  0
 17 39  1  0  0  0  0
 18 19  1  0  0  0  0
 18 40  1  0  0  0  0
 19 20  2  0  0  0  0
 19 41  1  0  0  0  0
 20 42  1  0  0  0  0
M  CHG  1  20   1
M  END
> <s_m_source_file>
AV-unprocessed.smi

> <i_m_source_file_index>
1356

> <i_lp_mmshare_version>
43012

> <i_f3d_flags>
0

> <s_epik_input>
W0NIM11bQ0BASF0xW0NIMl1bQ0BIXTFDKD1PKVtOSF1bQ0gyXVtDSDJdQyg9TylbTkhdW0NIMl1bQ0gyXWMyW2NIXVtjSF1bY0hdW2NIXW4y

> <s_epik_cmdline>
J2VwaWtfcHl0aG9uJywgJy1waCcsICc3LjAnLCAnLXRuJywgJzgnLCAnLW1hJywgJzIwMCcsICctbWV0YWxfYmluZGluZycsICctaW1hZScsICc8aW5maWxlLm1hZT4nLCAnLW9tYWUnLCAnPG91dGZpbGUubWFlPic=

> <r_epik_Ionization_Penalty>
1.86966

> <r_epik_Ionization_Penalty_Charging>
1.86966

> <r_epik_Ionization_Penalty_Neutral>
5.0403e-08

> <r_epik_State_Penalty>
1.98858

> <r_epik_Charging_Adjusted_Penalty>
3.85824

> <i_epik_Tot_Q>
1

> <i_epik_Tot_abs_Q>
1

> <r_epik_Metal_State_Penalty>
2.01347

> <b_epik_Metal_Only>
0

> <s_lp_Force_Field>
OPLS_2005

> <r_lp_Energy>
15.5699

> <b_lp_Chiralities_Consistent>
1

> <s_lp_Variant>
AV-unprocessed.smi:1356-6

> <Gold.Version>
5.8.1

> <Gold.Id.Protein>
6NUR|6NUR_protein|mol2

> <Gold.PLP.Fitness>
53.4606

> <Gold.PLP.PLP>
-43.7339

> <Gold.PLP.part.hbond>
-3.0639

> <Gold.PLP.part.metal>
0.0000

> <Gold.PLP.part.buried>
-6.3375

> <Gold.PLP.part.nonpolar>
-35.0459

> <Gold.PLP.part.repulsive>
0.1436

> <Gold.PLP.ligand.clash>
1.5042

> <Gold.PLP.ligand.torsion>
0.3786

> <Gold.PLP.Chemscore.Hbond>
3.9120

> <Gold.PLP.Chemscore.CHOScore>
0.0000

> <Gold.PLP.Chemscore.Metal>
0.0000

> <Gold.Chemscore.Hbonds>
donor molecule, donor type, donor heavy atom, donor atom, acceptor molecule, acceptor atom, score
      L1  H     7    28       P1  7948  0.95
      L1  H    20    42       P1  8028  2.00
      P1  H  7989  7998       L1    11  0.82

> <Gold.PLP.Chemscore.Internal.Correction>
0.2521

> <Gold.Rescore>
     Score         DG    S(hbond)    S(metal)    S(lipo)     H(rot)  DE(clash)    DE(int)     intcor
     18.22     -21.01       2.86        0.00     101.64       2.31       0.02       2.77       ----

> <Gold.Chemscore.Fitness>
18.2220

> <Gold.Chemscore.DG>
-21.0052

> <Gold.Chemscore.ZeroCoef>
-5.4800

> <Gold.Chemscore.Hbond>
2.8616

> <Gold.Chemscore.Metal>
0.0000

> <Gold.Chemscore.Lipo>
101.6353

> <Gold.Chemscore.Internal_Hbond>
0.0000

> <Gold.Chemscore.DEClash>
0.0178

> <Gold.Chemscore.DEInternal>
2.7654

> <Gold.Chemscore.Rot>
2.3140

> <Gold.Chemscore.Internal.Correction>
   9.000000E+99

> <Gold.Chemscore.Hbonds>
donor molecule, donor type, donor heavy atom, donor atom, acceptor molecule, acceptor atom, score
      L1  H     7    28       P1  7948  0.22
      L1  H    20    42       P1  8028  0.98
      P1  H  7989  7998       L1    11  0.80

> <Gold.Chemscore.Hbond.Weighted>
-9.5577

> <Gold.Chemscore.Metal.Weighted>
-0.0000

> <Gold.Chemscore.Lipo.Weighted>
-11.8913

> <Gold.Chemscore.Internal_Hbond.Weighted>
0.0000

> <Gold.Chemscore.DEClash.Weighted>
0.0178

> <Gold.Chemscore.DEInternal.Weighted>
2.7654

> <Gold.Chemscore.Rot.Weighted>
5.9238

> <Gold.Chemscore.Internal.Correction.Weighted>
   9.000000E+99

> <Gold.Protein.RotatedTorsions>
[ 6907 6896 6895 6894 ] final   62.41 input  -60.11 | X-H torsion
[ 7974 7965 7964 7962 ] final  -43.24 input  175.53 | X-H torsion
[ 8008 7997 7996 7995 ] final -134.34 input   59.86 | X-H torsion
[ 10167 10162 10161 10158 ] final  113.63 input  -65.29 | X-H torsion
[ 10718 10713 10712 10709 ] final   66.10 input   66.30 | X-H torsion
[ 10763 10752 10751 10750 ] final  102.16 input  -60.55 | X-H torsion
[ 11005 11000 10999 10996 ] final -103.92 input  -57.11 | X-H torsion

> <Gold.Protein.ActiveResidues>
 VAL166  LYS551  ARG553  GLY616  TRP617  ASP618  TYR619  PRO620  LYS621  CYS622 
 ASP623  PHE694  ASN695  SER759  ASP760  ASP761  ALA762  ILE779  LEU786  VAL792 
 PHE793  MET794  SER795  GLU796  ALA797  LYS798  CYS799  TRP800  GLU811  SER814 

> <Gold.Protein.RotatedAtoms>
  152.4170  134.6024  160.0003 H   0  0  0  0  0  0  0  0  0  0  0  0  # atno 6907 bound_to 6896
  151.6185  133.3335  159.3091 H   0  0  0  0  0  0  0  0  0  0  0  0  # atno 6908 bound_to 6896
  150.8058  134.7221  159.6709 H   0  0  0  0  0  0  0  0  0  0  0  0  # atno 6909 bound_to 6896
  146.0038  140.7044  142.9257 H   0  0  0  0  0  0  0  0  0  0  0  0  # atno 7974 bound_to 7965
  155.3605  140.0482  157.3046 H   0  0  0  0  0  0  0  0  0  0  0  0  # atno 8008 bound_to 7997
  154.5181  140.2215  155.8992 H   0  0  0  0  0  0  0  0  0  0  0  0  # atno 8009 bound_to 7997
  156.1658  140.3106  155.8893 H   0  0  0  0  0  0  0  0  0  0  0  0  # atno 8010 bound_to 7997
  139.6447  144.7126  151.2167 H   0  0  0  0  0  0  0  0  0  0  0  0  # atno 10167 bound_to 10162
  157.6148  130.9249  150.0064 H   0  0  0  0  0  0  0  0  0  0  0  0  # atno 10718 bound_to 10713
  153.3360  135.4020  155.1534 H   0  0  0  0  0  0  0  0  0  0  0  0  # atno 10763 bound_to 10752
  154.8633  135.3622  154.5408 H   0  0  0  0  0  0  0  0  0  0  0  0  # atno 10764 bound_to 10752
  153.5849  135.7075  153.5507 H   0  0  0  0  0  0  0  0  0  0  0  0  # atno 10765 bound_to 10752
  141.1124  133.8680  157.1546 H   0  0  0  0  0  0  0  0  0  0  0  0  # atno 11005 bound_to 11000
  144.6928  140.3279  143.7221 LP  0  0  0  0  0  0  0  0  0  0  0  0  # atno 17320 bound_to 7965
  145.7447  139.1775  143.2356 LP  0  0  0  0  0  0  0  0  0  0  0  0  # atno 17321 bound_to 7965
  140.7508  143.6252  150.8475 LP  0  0  0  0  0  0  0  0  0  0  0  0  # atno 17342 bound_to 10162
  139.9893  143.5865  152.2916 LP  0  0  0  0  0  0  0  0  0  0  0  0  # atno 17343 bound_to 10162
  156.1265  130.3644  149.9801 LP  0  0  0  0  0  0  0  0  0  0  0  0  # atno 17370 bound_to 10713
  156.7871  130.9242  151.3646 LP  0  0  0  0  0  0  0  0  0  0  0  0  # atno 17371 bound_to 10713
  140.0025  135.0022  157.0222 LP  0  0  0  0  0  0  0  0  0  0  0  0  # atno 17394 bound_to 11000
  140.4739  134.1358  155.7207 LP  0  0  0  0  0  0  0  0  0  0  0  0  # atno 17395 bound_to 11000

$$$$
