AV-unprocessed.smi:2032|AV-procd|sdf|8254|dock4
  -GOLD-   2272010523D 1   1.00000     0.00000
 Structure written by MMmdl.
 42 43  0  0  0  0  0  0  0  0  3 V2000
  149.4787  141.3821  154.6501 C   0  0  0  0  0  0  0  0  0  0  0  0
  149.9713  139.9666  154.9702 C   0  0  1  0  0  0  0  0  0  0  0  0
  149.2432  138.8967  154.1274 C   0  0  0  0  0  0  0  0  0  0  0  0
  149.7816  137.5362  154.4028 N   0  3  2  0  0  0  0  0  0  0  0  0
  149.3799  136.9371  155.7223 C   0  0  1  0  0  0  0  0  0  0  0  0
  149.8840  135.4804  155.8670 C   0  0  0  0  0  0  0  0  0  0  0  0
  149.8751  137.7889  156.9252 C   0  0  0  0  0  0  0  0  0  0  0  0
  148.9380  137.7913  158.0451 N   0  0  0  0  0  0  0  0  0  0  0  0
  149.1053  137.1359  159.2028 C   0  0  0  0  0  0  0  0  0  0  0  0
  150.1104  136.4420  159.3758 O   0  0  0  0  0  0  0  0  0  0  0  0
  148.1039  137.3324  160.0886 N   0  5  0  0  0  0  0  0  0  0  0  0
  147.6092  136.2945  160.7826 C   0  0  0  0  0  0  0  0  0  0  0  0
  146.9483  136.4367  161.9371 N   0  0  0  0  0  0  0  0  0  0  0  0
  146.5272  135.2251  162.4882 C   0  0  0  0  0  0  0  0  0  0  0  0
  146.8832  134.1344  161.7399 C   0  0  0  0  0  0  0  0  0  0  0  0
  147.7639  134.5992  160.3125 S   0  0  0  0  0  0  0  0  0  0  0  0
  151.2445  137.5651  154.1264 C   0  0  0  0  0  0  0  0  0  0  0  0
  151.9532  138.6455  154.9712 C   0  0  1  0  0  0  0  0  0  0  0  0
  153.4492  138.7340  154.6498 C   0  0  0  0  0  0  0  0  0  0  0  0
  151.3661  139.9117  154.6841 O   0  0  0  0  0  0  0  0  0  0  0  0
  148.4156  141.4861  154.8681 H   0  0  0  0  0  0  0  0  0  0  0  0
  149.6303  141.6261  153.5981 H   0  0  0  0  0  0  0  0  0  0  0  0
  150.0129  142.1241  155.2440 H   0  0  0  0  0  0  0  0  0  0  0  0
  149.8145  139.7845  156.0344 H   0  0  0  0  0  0  0  0  0  0  0  0
  148.1647  138.9533  154.2584 H   0  0  0  0  0  0  0  0  0  0  0  0
  149.4024  139.1119  153.0696 H   0  0  0  0  0  0  0  0  0  0  0  0
  148.2922  136.9027  155.7645 H   0  0  0  0  0  0  0  0  0  0  0  0
  149.6805  135.0716  156.8564 H   0  0  0  0  0  0  0  0  0  0  0  0
  150.9599  135.4154  155.7031 H   0  0  0  0  0  0  0  0  0  0  0  0
  149.3898  134.8011  155.1739 H   0  0  0  0  0  0  0  0  0  0  0  0
  150.8319  137.4080  157.2833 H   0  0  0  0  0  0  0  0  0  0  0  0
  150.0368  138.8316  156.6586 H   0  0  0  0  0  0  0  0  0  0  0  0
  148.0990  138.3435  157.9415 H   0  0  0  0  0  0  0  0  0  0  0  0
  145.9801  135.2323  163.4191 H   0  0  0  0  0  0  0  0  0  0  0  0
  146.6844  133.0923  161.9398 H   0  0  0  0  0  0  0  0  0  0  0  0
  151.7170  136.5940  154.2486 H   0  0  0  0  0  0  0  0  0  0  0  0
  151.3796  137.8012  153.0697 H   0  0  0  0  0  0  0  0  0  0  0  0
  151.8474  138.4294  156.0350 H   0  0  0  0  0  0  0  0  0  0  0  0
  153.9518  137.7896  154.8596 H   0  0  0  0  0  0  0  0  0  0  0  0
  153.9317  139.5063  155.2492 H   0  0  0  0  0  0  0  0  0  0  0  0
  153.6147  138.9755  153.5993 H   0  0  0  0  0  0  0  0  0  0  0  0
  149.3761  136.9278  153.7060 H   0  0  0  0  0  0  0  0  0  0  0  0
  1  2  1  0  0  0  0
  1 21  1  0  0  0  0
  1 22  1  0  0  0  0
  1 23  1  0  0  0  0
  2 20  1  0  0  0  0
  2  3  1  0  0  0  0
  2 24  1  0  0  0  0
  3  4  1  0  0  0  0
  3 25  1  0  0  0  0
  3 26  1  0  0  0  0
  4  5  1  0  0  0  0
  4 17  1  0  0  0  0
  4 42  1  0  0  0  0
  5  6  1  0  0  0  0
  5  7  1  0  0  0  0
  5 27  1  0  0  0  0
  6 28  1  0  0  0  0
  6 29  1  0  0  0  0
  6 30  1  0  0  0  0
  7  8  1  0  0  0  0
  7 31  1  0  0  0  0
  7 32  1  0  0  0  0
  8  9  1  0  0  0  0
  8 33  1  0  0  0  0
  9 10  2  0  0  0  0
  9 11  1  0  0  0  0
 11 12  1  0  0  0  0
 12 16  1  0  0  0  0
 12 13  2  0  0  0  0
 13 14  1  0  0  0  0
 14 15  2  0  0  0  0
 14 34  1  0  0  0  0
 15 16  1  0  0  0  0
 15 35  1  0  0  0  0
 17 18  1  0  0  0  0
 17 36  1  0  0  0  0
 17 37  1  0  0  0  0
 18 19  1  0  0  0  0
 18 20  1  0  0  0  0
 18 38  1  0  0  0  0
 19 39  1  0  0  0  0
 19 40  1  0  0  0  0
 19 41  1  0  0  0  0
M  CHG  1   4   1
M  CHG  1  11  -1
M  END
> <s_m_source_file>
AV-unprocessed.smi

> <i_m_source_file_index>
2032

> <i_lp_mmshare_version>
43012

> <i_f3d_flags>
0

> <s_epik_input>
W0NIM11bQ0BASF0xW0NIMl1OKFtDSDJdW0NASF0oTzEpW0NIM10pW0NASF0oW0NIM10pW0NIMl1bTkhdQyg9TylbTkhdYzJuW2NIXVtjSF1zMg==

> <s_epik_cmdline>
J2VwaWtfcHl0aG9uJywgJy1waCcsICc3LjAnLCAnLXRuJywgJzgnLCAnLW1hJywgJzIwMCcsICctbWV0YWxfYmluZGluZycsICctaW1hZScsICc8aW5maWxlLm1hZT4nLCAnLW9tYWUnLCAnPG91dGZpbGUubWFlPic=

> <r_lp_tautomer_probability>
0.999

> <r_epik_Ionization_Penalty>
6.71699

> <r_epik_Ionization_Penalty_Charging>
5.88592

> <r_epik_Ionization_Penalty_Neutral>
0.831074

> <r_epik_State_Penalty>
6.08365

> <r_epik_Charging_Adjusted_Penalty>
11.9696

> <i_epik_Tot_Q>
0

> <i_epik_Tot_abs_Q>
2

> <r_epik_Metal_State_Penalty>
2.0947

> <b_epik_Metal_Only>
1

> <s_lp_Force_Field>
OPLS_2005

> <r_lp_Energy>
10.9106

> <b_lp_Chiralities_Consistent>
1

> <s_lp_Variant>
AV-unprocessed.smi:2032-24

> <Gold.Version>
5.8.1

> <Gold.Id.Protein>
6NUR|6NUR_protein|mol2

> <Gold.PLP.Fitness>
48.1947

> <Gold.PLP.PLP>
-36.8287

> <Gold.PLP.part.hbond>
-4.9429

> <Gold.PLP.part.metal>
0.0000

> <Gold.PLP.part.buried>
-1.8671

> <Gold.PLP.part.nonpolar>
-30.3774

> <Gold.PLP.part.repulsive>
0.2050

> <Gold.PLP.ligand.clash>
3.0941

> <Gold.PLP.ligand.torsion>
0.9808

> <Gold.PLP.Chemscore.Hbond>
5.4358

> <Gold.PLP.Chemscore.CHOScore>
0.0000

> <Gold.PLP.Chemscore.Metal>
0.0000

> <Gold.Chemscore.Hbonds>
donor molecule, donor type, donor heavy atom, donor atom, acceptor molecule, acceptor atom, score
      L1  H     4    42       P1  7948  2.00
      P1  H  6896  6907       L1    10  1.00
      P1  H  6931  6943       L1    11  0.42
      P1  H  6934  6947       L1    11  1.13
      P1  H  7989  7998       L1    20  1.00

> <Gold.PLP.Chemscore.Internal.Correction>
0.1143

> <Gold.Rescore>
     Score         DG    S(hbond)    S(metal)    S(lipo)     H(rot)  DE(clash)    DE(int)     intcor
     18.26     -21.58       3.35        0.00      76.58       1.58       0.03       3.29       ----

> <Gold.Chemscore.Fitness>
18.2585

> <Gold.Chemscore.DG>
-21.5836

> <Gold.Chemscore.ZeroCoef>
-5.4800

> <Gold.Chemscore.Hbond>
3.3492

> <Gold.Chemscore.Metal>
0.0000

> <Gold.Chemscore.Lipo>
76.5806

> <Gold.Chemscore.Internal_Hbond>
0.0000

> <Gold.Chemscore.DEClash>
0.0324

> <Gold.Chemscore.DEInternal>
3.2927

> <Gold.Chemscore.Rot>
1.5791

> <Gold.Chemscore.Internal.Correction>
   9.000000E+99

> <Gold.Chemscore.Hbonds>
donor molecule, donor type, donor heavy atom, donor atom, acceptor molecule, acceptor atom, score
      L1  H     4    42       P1  7948  0.90
      P1  H  6896  6907       L1    10  1.00
      P1  H  6931  6943       L1    11  0.01
      P1  H  6934  6947       L1    11  0.31
      P1  H  7989  7998       L1    20  0.62

> <Gold.Chemscore.Hbond.Weighted>
-11.1862

> <Gold.Chemscore.Metal.Weighted>
-0.0000

> <Gold.Chemscore.Lipo.Weighted>
-8.9599

> <Gold.Chemscore.Internal_Hbond.Weighted>
0.0000

> <Gold.Chemscore.DEClash.Weighted>
0.0324

> <Gold.Chemscore.DEInternal.Weighted>
3.2927

> <Gold.Chemscore.Rot.Weighted>
4.0425

> <Gold.Chemscore.Internal.Correction.Weighted>
   9.000000E+99

> <Gold.Protein.RotatedTorsions>
[ 6907 6896 6895 6894 ] final  -38.26 input  -60.11 | X-H torsion
[ 7974 7965 7964 7962 ] final -143.16 input  175.53 | X-H torsion
[ 8008 7997 7996 7995 ] final  158.46 input   59.86 | X-H torsion
[ 10167 10162 10161 10158 ] final   88.15 input  -65.29 | X-H torsion
[ 10718 10713 10712 10709 ] final  139.31 input   66.30 | X-H torsion
[ 10763 10752 10751 10750 ] final -127.97 input  -60.55 | X-H torsion
[ 11005 11000 10999 10996 ] final -166.68 input  -57.11 | X-H torsion

> <Gold.Protein.ActiveResidues>
 VAL166  LYS551  ARG553  GLY616  TRP617  ASP618  TYR619  PRO620  LYS621  CYS622 
 ASP623  PHE694  ASN695  SER759  ASP760  ASP761  ALA762  ILE779  LEU786  VAL792 
 PHE793  MET794  SER795  GLU796  ALA797  LYS798  CYS799  TRP800  GLU811  SER814 

> <Gold.Protein.RotatedAtoms>
  151.0046  134.9349  159.7972 H   0  0  0  0  0  0  0  0  0  0  0  0  # atno 6907 bound_to 6896
  152.5287  134.3109  159.9123 H   0  0  0  0  0  0  0  0  0  0  0  0  # atno 6908 bound_to 6896
  151.3114  133.4037  159.2681 H   0  0  0  0  0  0  0  0  0  0  0  0  # atno 6909 bound_to 6896
  144.8390  140.5869  143.5465 H   0  0  0  0  0  0  0  0  0  0  0  0  # atno 7974 bound_to 7965
  156.2301  140.1858  156.7263 H   0  0  0  0  0  0  0  0  0  0  0  0  # atno 8008 bound_to 7997
  154.6008  140.0636  156.9394 H   0  0  0  0  0  0  0  0  0  0  0  0  # atno 8009 bound_to 7997
  155.2177  140.3305  155.4322 H   0  0  0  0  0  0  0  0  0  0  0  0  # atno 8010 bound_to 7997
  139.8702  144.6497  150.8958 H   0  0  0  0  0  0  0  0  0  0  0  0  # atno 10167 bound_to 10162
  157.4158  131.1033  151.0406 H   0  0  0  0  0  0  0  0  0  0  0  0  # atno 10718 bound_to 10713
  154.8755  135.3944  154.3681 H   0  0  0  0  0  0  0  0  0  0  0  0  # atno 10763 bound_to 10752
  153.4444  135.7027  153.6153 H   0  0  0  0  0  0  0  0  0  0  0  0  # atno 10764 bound_to 10752
  153.4720  135.3788  155.2365 H   0  0  0  0  0  0  0  0  0  0  0  0  # atno 10765 bound_to 10752
  140.5617  134.5326  157.5144 H   0  0  0  0  0  0  0  0  0  0  0  0  # atno 11005 bound_to 11000
  145.4734  139.1501  143.3802 LP  0  0  0  0  0  0  0  0  0  0  0  0  # atno 17320 bound_to 7965
  146.2685  140.4868  142.8824 LP  0  0  0  0  0  0  0  0  0  0  0  0  # atno 17321 bound_to 7965
  140.7762  143.3670  151.1720 LP  0  0  0  0  0  0  0  0  0  0  0  0  # atno 17342 bound_to 10162
  139.7291  143.9101  152.3013 LP  0  0  0  0  0  0  0  0  0  0  0  0  # atno 17343 bound_to 10162
  157.1354  130.6120  149.5541 LP  0  0  0  0  0  0  0  0  0  0  0  0  # atno 17370 bound_to 10713
  155.9865  130.4899  150.7080 LP  0  0  0  0  0  0  0  0  0  0  0  0  # atno 17371 bound_to 10713
  139.9404  134.7797  156.0693 LP  0  0  0  0  0  0  0  0  0  0  0  0  # atno 17394 bound_to 11000
  141.1110  133.6643  156.2979 LP  0  0  0  0  0  0  0  0  0  0  0  0  # atno 17395 bound_to 11000

$$$$
