AV-unprocessed.smi:2848|AV-procd|sdf|10955|dock6
  -GOLD-   2272015413D 1   1.00000     0.00000
 Structure written by MMmdl.
 27 28  0  0  0  0  0  0  0  0  2 V2000
  148.0127  141.6932  154.7162 Cl  0  0  0  0  0  0  0  0  0  0  0  0
  149.1511  140.4000  154.5687 C   0  0  0  0  0  0  0  0  0  0  0  0
  148.9185  139.3834  153.6194 C   0  0  0  0  0  0  0  0  0  0  0  0
  149.7956  138.3655  153.4909 N   0  3  0  0  0  0  0  0  0  0  0  0
  150.9129  138.2673  154.2416 C   0  0  0  0  0  0  0  0  0  0  0  0
  151.2008  139.2532  155.2071 C   0  0  0  0  0  0  0  0  0  0  0  0
  150.3099  140.3418  155.3821 C   0  0  0  0  0  0  0  0  0  0  0  0
  150.5354  141.3524  156.3292 N   0  0  0  0  0  0  0  0  0  0  0  0
  151.5574  141.2143  157.3564 C   0  0  0  0  0  0  0  0  0  0  0  0
  151.7467  142.4787  158.1702 C   0  0  0  0  0  0  0  0  0  0  0  0
  151.3816  143.7100  157.7571 C   0  0  0  0  0  0  0  0  0  0  0  0
  151.4896  144.8330  158.5376 O   0  0  0  0  0  0  0  0  0  0  0  0
  151.7346  144.5690  159.9148 C   0  0  0  0  0  0  0  0  0  0  0  0
  152.7672  143.4407  160.0721 C   0  0  0  0  0  0  0  0  0  0  0  0
  152.3416  142.2637  159.3915 O   0  0  0  0  0  0  0  0  0  0  0  0
  148.0609  139.3547  152.9630 H   0  0  0  0  0  0  0  0  0  0  0  0
  151.5395  137.4083  154.0497 H   0  0  0  0  0  0  0  0  0  0  0  0
  152.0992  139.1564  155.7980 H   0  0  0  0  0  0  0  0  0  0  0  0
  150.1341  142.2675  156.1769 H   0  0  0  0  0  0  0  0  0  0  0  0
  151.2807  140.4138  158.0431 H   0  0  0  0  0  0  0  0  0  0  0  0
  152.5046  140.9383  156.8911 H   0  0  0  0  0  0  0  0  0  0  0  0
  150.9214  143.9215  156.8031 H   0  0  0  0  0  0  0  0  0  0  0  0
  152.0887  145.4806  160.3966 H   0  0  0  0  0  0  0  0  0  0  0  0
  150.7964  144.2943  160.3988 H   0  0  0  0  0  0  0  0  0  0  0  0
  153.7325  143.7527  159.6711 H   0  0  0  0  0  0  0  0  0  0  0  0
  152.9194  143.2073  161.1260 H   0  0  0  0  0  0  0  0  0  0  0  0
  149.6059  137.6408  152.7981 H   0  0  0  0  0  0  0  0  0  0  0  0
  1  2  1  0  0  0  0
  2  7  1  0  0  0  0
  2  3  2  0  0  0  0
  3  4  1  0  0  0  0
  3 16  1  0  0  0  0
  4  5  2  0  0  0  0
  4 27  1  0  0  0  0
  5  6  1  0  0  0  0
  5 17  1  0  0  0  0
  6  7  2  0  0  0  0
  6 18  1  0  0  0  0
  7  8  1  0  0  0  0
  8  9  1  0  0  0  0
  8 19  1  0  0  0  0
  9 10  1  0  0  0  0
  9 20  1  0  0  0  0
  9 21  1  0  0  0  0
 10 15  1  0  0  0  0
 10 11  2  0  0  0  0
 11 12  1  0  0  0  0
 11 22  1  0  0  0  0
 12 13  1  0  0  0  0
 13 14  1  0  0  0  0
 13 23  1  0  0  0  0
 13 24  1  0  0  0  0
 14 15  1  0  0  0  0
 14 25  1  0  0  0  0
 14 26  1  0  0  0  0
M  CHG  1   4   1
M  END
> <s_m_source_file>
AV-unprocessed.smi

> <i_m_source_file_index>
2848

> <i_lp_mmshare_version>
43012

> <i_f3d_flags>
0

> <s_epik_input>
Q2xjMVtjSF1uW2NIXVtjSF1jMVtOSF1bQ0gyXUMyPVtDSF1PW0NIMl1bQ0gyXU8y

> <s_epik_cmdline>
J2VwaWtfcHl0aG9uJywgJy1waCcsICc3LjAnLCAnLXRuJywgJzgnLCAnLW1hJywgJzIwMCcsICctbWV0YWxfYmluZGluZycsICctaW1hZScsICc8aW5maWxlLm1hZT4nLCAnLW9tYWUnLCAnPG91dGZpbGUubWFlPic=

> <r_lp_tautomer_probability>
1

> <r_epik_Ionization_Penalty>
0.0834524

> <r_epik_Ionization_Penalty_Charging>
0.0831652

> <r_epik_Ionization_Penalty_Neutral>
0.000287151

> <r_epik_State_Penalty>
0.0738416

> <r_epik_Charging_Adjusted_Penalty>
0.157007

> <i_epik_Tot_Q>
1

> <i_epik_Tot_abs_Q>
1

> <r_epik_Metal_State_Penalty>
2.9007

> <b_epik_Metal_Only>
0

> <s_lp_Force_Field>
OPLS_2005

> <r_lp_Energy>
8.04075

> <b_lp_Chiralities_Consistent>
1

> <s_lp_Variant>
AV-unprocessed.smi:2848-1

> <Gold.Version>
5.8.1

> <Gold.Id.Protein>
6NUR|6NUR_protein|mol2

> <Gold.PLP.Fitness>
41.3539

> <Gold.PLP.PLP>
-33.0537

> <Gold.PLP.part.hbond>
-2.0000

> <Gold.PLP.part.metal>
0.0000

> <Gold.PLP.part.buried>
-2.0006

> <Gold.PLP.part.nonpolar>
-29.7524

> <Gold.PLP.part.repulsive>
0.2888

> <Gold.PLP.ligand.clash>
0.0000

> <Gold.PLP.ligand.torsion>
0.3500

> <Gold.PLP.Chemscore.Hbond>
2.0000

> <Gold.PLP.Chemscore.CHOScore>
1.0000

> <Gold.PLP.Chemscore.Metal>
0.0000

> <Gold.Chemscore.Hbonds>
donor molecule, donor type, donor heavy atom, donor atom, acceptor molecule, acceptor atom, score
      L1  H     4    27       P1  7948  2.00
      L1  C    11    22       P1  8028  1.00

> <Gold.PLP.Chemscore.Internal.Correction>
0.0003

> <Gold.Rescore>
     Score         DG    S(hbond)    S(metal)    S(lipo)     H(rot)  DE(clash)    DE(int)     intcor
     16.33     -16.56       1.00        0.00      92.93       1.22       0.08       0.14       ----

> <Gold.Chemscore.Fitness>
16.3295

> <Gold.Chemscore.DG>
-16.5564

> <Gold.Chemscore.ZeroCoef>
-5.4800

> <Gold.Chemscore.Hbond>
0.9965

> <Gold.Chemscore.Metal>
0.0000

> <Gold.Chemscore.Lipo>
92.9300

> <Gold.Chemscore.Internal_Hbond>
0.0000

> <Gold.Chemscore.DEClash>
0.0832

> <Gold.Chemscore.DEInternal>
0.1438

> <Gold.Chemscore.Rot>
1.2206

> <Gold.Chemscore.Internal.Correction>
   9.000000E+99

> <Gold.Chemscore.Hbonds>
donor molecule, donor type, donor heavy atom, donor atom, acceptor molecule, acceptor atom, score
      L1  H     4    27       P1  7948  0.65

> <Gold.Chemscore.Hbond.Weighted>
-3.3283

> <Gold.Chemscore.Metal.Weighted>
-0.0000

> <Gold.Chemscore.Lipo.Weighted>
-10.8728

> <Gold.Chemscore.Internal_Hbond.Weighted>
0.0000

> <Gold.Chemscore.DEClash.Weighted>
0.0832

> <Gold.Chemscore.DEInternal.Weighted>
0.1438

> <Gold.Chemscore.Rot.Weighted>
3.1247

> <Gold.Chemscore.Internal.Correction.Weighted>
   9.000000E+99

> <Gold.Protein.RotatedTorsions>
[ 6907 6896 6895 6894 ] final -178.96 input  -60.11 | X-H torsion
[ 7974 7965 7964 7962 ] final   47.53 input  175.53 | X-H torsion
[ 8008 7997 7996 7995 ] final  173.86 input   59.86 | X-H torsion
[ 10167 10162 10161 10158 ] final  -63.30 input  -65.29 | X-H torsion
[ 10718 10713 10712 10709 ] final  -10.13 input   66.30 | X-H torsion
[ 10763 10752 10751 10750 ] final  132.28 input  -60.55 | X-H torsion
[ 11005 11000 10999 10996 ] final  -67.96 input  -57.11 | X-H torsion

> <Gold.Protein.ActiveResidues>
 VAL166  LYS551  ARG553  GLY616  TRP617  ASP618  TYR619  PRO620  LYS621  CYS622 
 ASP623  PHE694  ASN695  SER759  ASP760  ASP761  ALA762  ILE779  LEU786  VAL792 
 PHE793  MET794  SER795  GLU796  ALA797  LYS798  CYS799  TRP800  GLU811  SER814 

> <Gold.Protein.RotatedAtoms>
  151.6457  133.3323  159.3140 H   0  0  0  0  0  0  0  0  0  0  0  0  # atno 6907 bound_to 6896
  150.7985  134.7066  159.6589 H   0  0  0  0  0  0  0  0  0  0  0  0  # atno 6908 bound_to 6896
  152.4075  134.6186  160.0096 H   0  0  0  0  0  0  0  0  0  0  0  0  # atno 6909 bound_to 6896
  146.0289  139.4740  142.9850 H   0  0  0  0  0  0  0  0  0  0  0  0  # atno 7974 bound_to 7965
  156.1032  140.1449  156.9439 H   0  0  0  0  0  0  0  0  0  0  0  0  # atno 8008 bound_to 7997
  154.4716  140.0908  156.7204 H   0  0  0  0  0  0  0  0  0  0  0  0  # atno 8009 bound_to 7997
  155.4724  140.3442  155.4330 H   0  0  0  0  0  0  0  0  0  0  0  0  # atno 8010 bound_to 7997
  140.5880  143.2337  151.6200 H   0  0  0  0  0  0  0  0  0  0  0  0  # atno 10167 bound_to 10162
  156.6780  130.5028  149.5980 H   0  0  0  0  0  0  0  0  0  0  0  0  # atno 10718 bound_to 10713
  153.7881  135.3159  155.3375 H   0  0  0  0  0  0  0  0  0  0  0  0  # atno 10763 bound_to 10752
  154.8136  135.4651  154.0586 H   0  0  0  0  0  0  0  0  0  0  0  0  # atno 10764 bound_to 10752
  153.1895  135.6906  153.8457 H   0  0  0  0  0  0  0  0  0  0  0  0  # atno 10765 bound_to 10752
  141.1521  133.6730  156.6373 H   0  0  0  0  0  0  0  0  0  0  0  0  # atno 11005 bound_to 11000
  145.7073  141.0117  143.1472 LP  0  0  0  0  0  0  0  0  0  0  0  0  # atno 17320 bound_to 7965
  144.7022  139.8715  143.7441 LP  0  0  0  0  0  0  0  0  0  0  0  0  # atno 17321 bound_to 7965
  139.5210  144.3207  152.0913 LP  0  0  0  0  0  0  0  0  0  0  0  0  # atno 17342 bound_to 10162
  140.2367  144.4312  150.6277 LP  0  0  0  0  0  0  0  0  0  0  0  0  # atno 17343 bound_to 10162
  156.1889  130.6547  151.1038 LP  0  0  0  0  0  0  0  0  0  0  0  0  # atno 17370 bound_to 10713
  157.7054  131.0759  150.6685 LP  0  0  0  0  0  0  0  0  0  0  0  0  # atno 17371 bound_to 10713
  140.3420  134.7841  157.4405 LP  0  0  0  0  0  0  0  0  0  0  0  0  # atno 17394 bound_to 11000
  140.0930  134.5575  155.8426 LP  0  0  0  0  0  0  0  0  0  0  0  0  # atno 17395 bound_to 11000

$$$$
