AV-unprocessed.smi:966|AV-procd|sdf|4283|dock8
  -GOLD-   22720 2193D 1   1.00000     0.00000
 Structure written by MMmdl.
 30 31  0  0  0  0  0  0  0  0  2 V2000
  150.6966  135.4994  155.4472 C   0  0  0  0  0  0  0  0  0  0  0  0
  150.9723  136.8882  155.9945 C   0  0  0  0  0  0  0  0  0  0  0  0
  151.7169  137.8328  155.1927 C   0  0  0  0  0  0  0  0  0  0  0  0
  151.9703  139.0893  155.7079 C   0  0  0  0  0  0  0  0  0  0  0  0
  152.5748  140.0541  155.1835 O   0  5  0  0  0  0  0  0  0  0  0  0
  151.5088  139.4525  157.0176 N   0  0  0  0  0  0  0  0  0  0  0  0
  151.7885  140.7976  157.6007 C   0  0  0  0  0  0  0  0  0  0  0  0
  152.4253  140.6985  159.0016 C   0  0  2  0  0  0  0  0  0  0  0  0
  152.5575  142.0478  159.7069 C   0  0  0  0  0  0  0  0  0  0  0  0
  153.7017  141.7866  160.6589 C   0  0  0  0  0  0  0  0  0  0  0  0
  154.6168  140.9188  159.8020 C   0  0  0  0  0  0  0  0  0  0  0  0
  153.7566  140.1895  158.9314 O   0  0  0  0  0  0  0  0  0  0  0  0
  150.7729  138.5847  157.7830 C   0  0  0  0  0  0  0  0  0  0  0  0
  150.3367  138.8961  158.8942 O   0  0  0  0  0  0  0  0  0  0  0  0
  150.5285  137.2559  157.2141 C   0  0  0  0  0  0  0  0  0  0  0  0
  149.7824  136.3590  158.0393 C   0  0  0  0  0  0  0  0  0  0  0  0
  149.1980  135.6217  158.7149 N   0  0  0  0  0  0  0  0  0  0  0  0
  151.1373  135.3703  154.4582 H   0  0  0  0  0  0  0  0  0  0  0  0
  149.6228  135.3295  155.3627 H   0  0  0  0  0  0  0  0  0  0  0  0
  151.1173  134.7388  156.1055 H   0  0  0  0  0  0  0  0  0  0  0  0
  152.0604  137.5646  154.2041 H   0  0  0  0  0  0  0  0  0  0  0  0
  152.4322  141.3993  156.9572 H   0  0  0  0  0  0  0  0  0  0  0  0
  150.8823  141.4032  157.6480 H   0  0  0  0  0  0  0  0  0  0  0  0
  151.8490  140.0266  159.6391 H   0  0  0  0  0  0  0  0  0  0  0  0
  152.8362  142.8284  158.9973 H   0  0  0  0  0  0  0  0  0  0  0  0
  151.6407  142.3543  160.2110 H   0  0  0  0  0  0  0  0  0  0  0  0
  154.1843  142.6974  161.0141 H   0  0  0  0  0  0  0  0  0  0  0  0
  153.3492  141.2238  161.5243 H   0  0  0  0  0  0  0  0  0  0  0  0
  155.2731  141.5427  159.1943 H   0  0  0  0  0  0  0  0  0  0  0  0
  155.2399  140.2531  160.3995 H   0  0  0  0  0  0  0  0  0  0  0  0
  1  2  1  0  0  0  0
  1 18  1  0  0  0  0
  1 19  1  0  0  0  0
  1 20  1  0  0  0  0
  2 15  2  0  0  0  0
  2  3  1  0  0  0  0
  3  4  2  0  0  0  0
  3 21  1  0  0  0  0
  4  5  1  0  0  0  0
  4  6  1  0  0  0  0
  6  7  1  0  0  0  0
  6 13  1  0  0  0  0
  7  8  1  0  0  0  0
  7 22  1  0  0  0  0
  7 23  1  0  0  0  0
  8 12  1  0  0  0  0
  8  9  1  0  0  0  0
  8 24  1  0  0  0  0
  9 10  1  0  0  0  0
  9 25  1  0  0  0  0
  9 26  1  0  0  0  0
 10 11  1  0  0  0  0
 10 27  1  0  0  0  0
 10 28  1  0  0  0  0
 11 12  1  0  0  0  0
 11 29  1  0  0  0  0
 11 30  1  0  0  0  0
 13 14  2  0  0  0  0
 13 15  1  0  0  0  0
 15 16  1  0  0  0  0
 16 17  3  0  0  0  0
M  CHG  1   5  -1
M  END
> <s_m_source_file>
AV-unprocessed.smi

> <i_m_source_file_index>
966

> <i_lp_mmshare_version>
43012

> <i_f3d_flags>
0

> <s_epik_input>
W0NIM11jMVtjSF1jKFtPSF0pbihjKD1PKWMxQyNOKVtDSDJdW0NAQEhdMltDSDJdW0NIMl1bQ0gyXU8y

> <s_epik_cmdline>
J2VwaWtfcHl0aG9uJywgJy1waCcsICc3LjAnLCAnLXRuJywgJzgnLCAnLW1hJywgJzIwMCcsICctbWV0YWxfYmluZGluZycsICctaW1hZScsICc8aW5maWxlLm1hZT4nLCAnLW9tYWUnLCAnPG91dGZpbGUubWFlPic=

> <r_lp_tautomer_probability>
1

> <r_epik_Ionization_Penalty>
3.48555e-06

> <r_epik_Ionization_Penalty_Charging>
3.48554e-06

> <r_epik_Ionization_Penalty_Neutral>
1.71861e-11

> <r_epik_State_Penalty>
-0

> <r_epik_Charging_Adjusted_Penalty>
3.48554e-06

> <i_epik_Tot_Q>
-1

> <i_epik_Tot_abs_Q>
1

> <r_epik_Metal_State_Penalty>
-0

> <b_epik_Metal_Only>
0

> <s_lp_Force_Field>
OPLS_2005

> <r_lp_Energy>
36.1557

> <b_lp_Chiralities_Consistent>
1

> <s_lp_Variant>
AV-unprocessed.smi:966-1

> <Gold.Version>
5.8.1

> <Gold.Id.Protein>
6NUR|6NUR_protein|mol2

> <Gold.PLP.Fitness>
38.6666

> <Gold.PLP.PLP>
-28.3594

> <Gold.PLP.part.hbond>
-4.4428

> <Gold.PLP.part.metal>
0.0000

> <Gold.PLP.part.buried>
-2.1086

> <Gold.PLP.part.nonpolar>
-21.3945

> <Gold.PLP.part.repulsive>
0.0120

> <Gold.PLP.ligand.clash>
0.0000

> <Gold.PLP.ligand.torsion>
0.0898

> <Gold.PLP.Chemscore.Hbond>
3.4950

> <Gold.PLP.Chemscore.CHOScore>
0.0000

> <Gold.PLP.Chemscore.Metal>
0.0000

> <Gold.Chemscore.Hbonds>
donor molecule, donor type, donor heavy atom, donor atom, acceptor molecule, acceptor atom, score
      P1  H  6896  6907       L1    17  0.98
      P1  H  7989  7998       L1     5  0.50
      P1  H  7997  8010       L1     5  2.00

> <Gold.PLP.Chemscore.Internal.Correction>
0.0018

> <Gold.Rescore>
     Score         DG    S(hbond)    S(metal)    S(lipo)     H(rot)  DE(clash)    DE(int)     intcor
     13.88     -15.43       1.77        0.00      61.80       1.25       0.03       1.53       ----

> <Gold.Chemscore.Fitness>
13.8761

> <Gold.Chemscore.DG>
-15.4331

> <Gold.Chemscore.ZeroCoef>
-5.4800

> <Gold.Chemscore.Hbond>
1.7743

> <Gold.Chemscore.Metal>
0.0000

> <Gold.Chemscore.Lipo>
61.7982

> <Gold.Chemscore.Internal_Hbond>
0.0000

> <Gold.Chemscore.DEClash>
0.0300

> <Gold.Chemscore.DEInternal>
1.5270

> <Gold.Chemscore.Rot>
1.2514

> <Gold.Chemscore.Internal.Correction>
   9.000000E+99

> <Gold.Chemscore.Hbonds>
donor molecule, donor type, donor heavy atom, donor atom, acceptor molecule, acceptor atom, score
      P1  H  6896  6907       L1    17  0.41
      P1  H  7989  7998       L1     5  0.44
      P1  H  7997  8010       L1     5  0.46

> <Gold.Chemscore.Hbond.Weighted>
-5.9263

> <Gold.Chemscore.Metal.Weighted>
-0.0000

> <Gold.Chemscore.Lipo.Weighted>
-7.2304

> <Gold.Chemscore.Internal_Hbond.Weighted>
0.0000

> <Gold.Chemscore.DEClash.Weighted>
0.0300

> <Gold.Chemscore.DEInternal.Weighted>
1.5270

> <Gold.Chemscore.Rot.Weighted>
3.2036

> <Gold.Chemscore.Internal.Correction.Weighted>
   9.000000E+99

> <Gold.Protein.RotatedTorsions>
[ 6907 6896 6895 6894 ] final  -83.53 input  -60.11 | X-H torsion
[ 7974 7965 7964 7962 ] final  -52.15 input  175.53 | X-H torsion
[ 8008 7997 7996 7995 ] final   87.02 input   59.86 | X-H torsion
[ 10167 10162 10161 10158 ] final  -76.61 input  -65.29 | X-H torsion
[ 10718 10713 10712 10709 ] final   81.52 input   66.30 | X-H torsion
[ 10763 10752 10751 10750 ] final   43.36 input  -60.55 | X-H torsion
[ 11005 11000 10999 10996 ] final  -36.58 input  -57.11 | X-H torsion

> <Gold.Protein.ActiveResidues>
 VAL166  LYS551  ARG553  GLY616  TRP617  ASP618  TYR619  PRO620  LYS621  CYS622 
 ASP623  PHE694  ASN695  SER759  ASP760  ASP761  ALA762  ILE779  LEU786  VAL792 
 PHE793  MET794  SER795  GLU796  ALA797  LYS798  CYS799  TRP800  GLU811  SER814 

> <Gold.Protein.RotatedAtoms>
  150.6884  134.3498  159.4903 H   0  0  0  0  0  0  0  0  0  0  0  0  # atno 6907 bound_to 6896
  152.1341  134.9110  160.0566 H   0  0  0  0  0  0  0  0  0  0  0  0  # atno 6908 bound_to 6896
  152.0269  133.3886  159.4318 H   0  0  0  0  0  0  0  0  0  0  0  0  # atno 6909 bound_to 6896
  145.9111  140.7914  142.9695 H   0  0  0  0  0  0  0  0  0  0  0  0  # atno 7974 bound_to 7965
  155.9701  140.3386  155.6568 H   0  0  0  0  0  0  0  0  0  0  0  0  # atno 8008 bound_to 7997
  155.6685  140.0724  157.2547 H   0  0  0  0  0  0  0  0  0  0  0  0  # atno 8009 bound_to 7997
  154.4164  140.1696  156.1841 H   0  0  0  0  0  0  0  0  0  0  0  0  # atno 8010 bound_to 7997
  140.4842  143.2395  151.8010 H   0  0  0  0  0  0  0  0  0  0  0  0  # atno 10167 bound_to 10162
  157.6835  131.0007  150.2239 H   0  0  0  0  0  0  0  0  0  0  0  0  # atno 10718 bound_to 10713
  152.9862  135.6103  154.3099 H   0  0  0  0  0  0  0  0  0  0  0  0  # atno 10763 bound_to 10752
  154.2815  135.2777  155.2696 H   0  0  0  0  0  0  0  0  0  0  0  0  # atno 10764 bound_to 10752
  154.5033  135.5861  153.6604 H   0  0  0  0  0  0  0  0  0  0  0  0  # atno 10765 bound_to 10752
  140.9886  133.7017  156.1809 H   0  0  0  0  0  0  0  0  0  0  0  0  # atno 11005 bound_to 11000
  144.6743  140.1827  143.7404 LP  0  0  0  0  0  0  0  0  0  0  0  0  # atno 17320 bound_to 7965
  145.8670  139.2252  143.1683 LP  0  0  0  0  0  0  0  0  0  0  0  0  # atno 17321 bound_to 7965
  139.4839  144.4733  151.9398 LP  0  0  0  0  0  0  0  0  0  0  0  0  # atno 17342 bound_to 10162
  140.3819  144.2725  150.5908 LP  0  0  0  0  0  0  0  0  0  0  0  0  # atno 17343 bound_to 10162
  156.2885  130.3742  149.7865 LP  0  0  0  0  0  0  0  0  0  0  0  0  # atno 17370 bound_to 10713
  156.5532  130.8351  151.3306 LP  0  0  0  0  0  0  0  0  0  0  0  0  # atno 17371 bound_to 10713
  140.7076  134.4496  157.5583 LP  0  0  0  0  0  0  0  0  0  0  0  0  # atno 17394 bound_to 11000
  139.8981  134.8620  156.2013 LP  0  0  0  0  0  0  0  0  0  0  0  0  # atno 17395 bound_to 11000

$$$$
