AV-unprocessed.smi:2280|AV-procd|sdf|9192|dock1
  -GOLD-   2272012403D 1   1.00000     0.00000
 Structure written by MMmdl.
 41 42  0  0  0  0  0  0  0  0  1 V2000
  146.5961  143.0776  155.3406 C   0  0  0  0  0  0  0  0  0  0  0  0
  147.8839  142.3052  155.5660 C   0  0  0  0  0  0  0  0  0  0  0  0
  148.5512  142.5803  156.7631 N   0  0  0  0  0  0  0  0  0  0  0  0
  149.6560  141.9687  157.0406 C   0  0  0  0  0  0  0  0  0  0  0  0
  150.2135  141.0196  156.1684 N   0  0  0  0  0  0  0  0  0  0  0  0
  151.4752  140.3958  156.6025 C   0  0  0  0  0  0  0  0  0  0  0  0
  151.4257  139.9526  158.0828 C   0  0  1  0  0  0  0  0  0  0  0  0
  151.2321  138.5519  158.1098 O   0  0  0  0  0  0  0  0  0  0  0  0
  152.7474  140.2416  158.8146 C   0  0  0  0  0  0  0  0  0  0  0  0
  152.8186  141.6337  159.0918 O   0  0  0  0  0  0  0  0  0  0  0  0
  153.1046  142.0407  160.3789 C   0  0  0  0  0  0  0  0  0  0  0  0
  153.5702  141.1628  161.3913 C   0  0  0  0  0  0  0  0  0  0  0  0
  153.8436  141.6424  162.6856 C   0  0  0  0  0  0  0  0  0  0  0  0
  153.6571  143.0024  162.9860 C   0  0  0  0  0  0  0  0  0  0  0  0
  153.1969  143.8828  161.9905 C   0  0  0  0  0  0  0  0  0  0  0  0
  152.9187  143.4114  160.6872 C   0  0  0  0  0  0  0  0  0  0  0  0
  152.4210  144.3728  159.6122 C   0  0  0  0  0  0  0  0  0  0  0  0
  152.5124  145.6456  160.0000 F   0  0  0  0  0  0  0  0  0  0  0  0
  153.1457  144.2234  158.5031 F   0  0  0  0  0  0  0  0  0  0  0  0
  151.1433  144.1158  159.3316 F   0  0  0  0  0  0  0  0  0  0  0  0
  149.6324  140.6986  154.9761 C   0  0  0  0  0  0  0  0  0  0  0  0
  150.1376  139.8741  154.2117 O   0  0  0  0  0  0  0  0  0  0  0  0
  148.3754  141.4022  154.6739 C   0  0  0  0  0  0  0  0  0  0  0  0
  147.6930  141.0626  153.3548 C   0  0  0  0  0  0  0  0  0  0  0  0
  145.7558  142.3936  155.2172 H   0  0  0  0  0  0  0  0  0  0  0  0
  146.6753  143.6989  154.4478 H   0  0  0  0  0  0  0  0  0  0  0  0
  146.3725  143.7322  156.1841 H   0  0  0  0  0  0  0  0  0  0  0  0
  150.2189  142.1523  157.9573 H   0  0  0  0  0  0  0  0  0  0  0  0
  151.7654  139.5616  155.9599 H   0  0  0  0  0  0  0  0  0  0  0  0
  152.2761  141.1245  156.4651 H   0  0  0  0  0  0  0  0  0  0  0  0
  150.6071  140.4514  158.6038 H   0  0  0  0  0  0  0  0  0  0  0  0
  150.3042  138.3766  158.1412 H   0  0  0  0  0  0  0  0  0  0  0  0
  152.8286  139.6421  159.7233 H   0  0  0  0  0  0  0  0  0  0  0  0
  153.5864  139.9830  158.1666 H   0  0  0  0  0  0  0  0  0  0  0  0
  153.7282  140.1124  161.2016 H   0  0  0  0  0  0  0  0  0  0  0  0
  154.1973  140.9646  163.4484 H   0  0  0  0  0  0  0  0  0  0  0  0
  153.8671  143.3708  163.9793 H   0  0  0  0  0  0  0  0  0  0  0  0
  153.0606  144.9244  162.2402 H   0  0  0  0  0  0  0  0  0  0  0  0
  148.3679  141.2576  152.5207 H   0  0  0  0  0  0  0  0  0  0  0  0
  146.7842  141.6362  153.1806 H   0  0  0  0  0  0  0  0  0  0  0  0
  147.4245  140.0057  153.3329 H   0  0  0  0  0  0  0  0  0  0  0  0
  1  2  1  0  0  0  0
  1 25  1  0  0  0  0
  1 26  1  0  0  0  0
  1 27  1  0  0  0  0
  2 23  2  0  0  0  0
  2  3  1  0  0  0  0
  3  4  2  0  0  0  0
  4  5  1  0  0  0  0
  4 28  1  0  0  0  0
  5  6  1  0  0  0  0
  5 21  1  0  0  0  0
  6  7  1  0  0  0  0
  6 29  1  0  0  0  0
  6 30  1  0  0  0  0
  7  8  1  0  0  0  0
  7  9  1  0  0  0  0
  7 31  1  0  0  0  0
  8 32  1  0  0  0  0
  9 10  1  0  0  0  0
  9 33  1  0  0  0  0
  9 34  1  0  0  0  0
 10 11  1  0  0  0  0
 11 16  1  0  0  0  0
 11 12  2  0  0  0  0
 12 13  1  0  0  0  0
 12 35  1  0  0  0  0
 13 14  2  0  0  0  0
 13 36  1  0  0  0  0
 14 15  1  0  0  0  0
 14 37  1  0  0  0  0
 15 16  2  0  0  0  0
 15 38  1  0  0  0  0
 16 17  1  0  0  0  0
 17 18  1  0  0  0  0
 17 19  1  0  0  0  0
 17 20  1  0  0  0  0
 21 22  2  0  0  0  0
 21 23  1  0  0  0  0
 23 24  1  0  0  0  0
 24 39  1  0  0  0  0
 24 40  1  0  0  0  0
 24 41  1  0  0  0  0
M  END
> <s_m_source_file>
AV-unprocessed.smi

> <i_m_source_file_index>
2280

> <i_lp_mmshare_version>
43012

> <i_f3d_flags>
0

> <s_epik_input>
W0NIM11jMW5bY0hdbihjKD1PKWMxW0NIM10pW0NIMl1bQ0BIXShbT0hdKVtDSDJdT2MyW2NIXVtjSF1bY0hdW2NIXWMyQyhGKShGKUY=

> <s_epik_cmdline>
J2VwaWtfcHl0aG9uJywgJy1waCcsICc3LjAnLCAnLXRuJywgJzgnLCAnLW1hJywgJzIwMCcsICctbWV0YWxfYmluZGluZycsICctaW1hZScsICc8aW5maWxlLm1hZT4nLCAnLW9tYWUnLCAnPG91dGZpbGUubWFlPic=

> <r_lp_tautomer_probability>
1

> <r_epik_Ionization_Penalty>
3.7476e-05

> <r_epik_Ionization_Penalty_Charging>
8.44705e-08

> <r_epik_Ionization_Penalty_Neutral>
3.73915e-05

> <r_epik_State_Penalty>
-0

> <r_epik_Charging_Adjusted_Penalty>
8.44705e-08

> <i_epik_Tot_Q>
0

> <i_epik_Tot_abs_Q>
0

> <r_epik_Metal_State_Penalty>
-0

> <b_epik_Metal_Only>
0

> <s_lp_Force_Field>
OPLS_2005

> <r_lp_Energy>
26.5065

> <b_lp_Chiralities_Consistent>
1

> <s_lp_Variant>
AV-unprocessed.smi:2280-2

> <Gold.Version>
5.8.1

> <Gold.Id.Protein>
6NUR|6NUR_protein|mol2

> <Gold.PLP.Fitness>
56.4032

> <Gold.PLP.PLP>
-56.1435

> <Gold.PLP.part.hbond>
-1.0000

> <Gold.PLP.part.metal>
0.0000

> <Gold.PLP.part.buried>
-5.0475

> <Gold.PLP.part.nonpolar>
-51.9206

> <Gold.PLP.part.repulsive>
2.2885

> <Gold.PLP.ligand.clash>
0.1610

> <Gold.PLP.ligand.torsion>
1.6462

> <Gold.PLP.Chemscore.Hbond>
1.0000

> <Gold.PLP.Chemscore.CHOScore>
0.0000

> <Gold.PLP.Chemscore.Metal>
0.0000

> <Gold.Chemscore.Hbonds>
donor molecule, donor type, donor heavy atom, donor atom, acceptor molecule, acceptor atom, score
      P1  H  7989  7998       L1    22  1.00

> <Gold.PLP.Chemscore.Internal.Correction>
0.7130

> <Gold.Rescore>
     Score         DG    S(hbond)    S(metal)    S(lipo)     H(rot)  DE(clash)    DE(int)     intcor
      6.95     -12.86       0.00        0.00     122.67       2.73       1.71       4.20       ----

> <Gold.Chemscore.Fitness>
6.9527

> <Gold.Chemscore.DG>
-12.8566

> <Gold.Chemscore.ZeroCoef>
-5.4800

> <Gold.Chemscore.Hbond>
0.0038

> <Gold.Chemscore.Metal>
0.0000

> <Gold.Chemscore.Lipo>
122.6733

> <Gold.Chemscore.Internal_Hbond>
0.0000

> <Gold.Chemscore.DEClash>
1.7089

> <Gold.Chemscore.DEInternal>
4.1950

> <Gold.Chemscore.Rot>
2.7300

> <Gold.Chemscore.Internal.Correction>
   9.000000E+99

> <Gold.Chemscore.Hbonds>
donor molecule, donor type, donor heavy atom, donor atom, acceptor molecule, acceptor atom, score
      P1  H  7989  7998       L1    22  0.34

> <Gold.Chemscore.Hbond.Weighted>
-0.0126

> <Gold.Chemscore.Metal.Weighted>
-0.0000

> <Gold.Chemscore.Lipo.Weighted>
-14.3528

> <Gold.Chemscore.Internal_Hbond.Weighted>
0.0000

> <Gold.Chemscore.DEClash.Weighted>
1.7089

> <Gold.Chemscore.DEInternal.Weighted>
4.1950

> <Gold.Chemscore.Rot.Weighted>
6.9888

> <Gold.Chemscore.Internal.Correction.Weighted>
   9.000000E+99

> <Gold.Protein.RotatedTorsions>
[ 6907 6896 6895 6894 ] final -132.61 input  -60.11 | X-H torsion
[ 7974 7965 7964 7962 ] final -108.50 input  175.53 | X-H torsion
[ 8008 7997 7996 7995 ] final  157.33 input   59.86 | X-H torsion
[ 10167 10162 10161 10158 ] final  -88.73 input  -65.29 | X-H torsion
[ 10718 10713 10712 10709 ] final  -81.74 input   66.30 | X-H torsion
[ 10763 10752 10751 10750 ] final  -43.61 input  -60.55 | X-H torsion
[ 11005 11000 10999 10996 ] final -108.59 input  -57.11 | X-H torsion

> <Gold.Protein.ActiveResidues>
 VAL166  LYS551  ARG553  GLY616  TRP617  ASP618  TYR619  PRO620  LYS621  CYS622 
 ASP623  PHE694  ASN695  SER759  ASP760  ASP761  ALA762  ILE779  LEU786  VAL792 
 PHE793  MET794  SER795  GLU796  ALA797  LYS798  CYS799  TRP800  GLU811  SER814 

> <Gold.Protein.RotatedAtoms>
  150.9644  133.6410  159.2748 H   0  0  0  0  0  0  0  0  0  0  0  0  # atno 6907 bound_to 6896
  151.3721  135.0923  159.9478 H   0  0  0  0  0  0  0  0  0  0  0  0  # atno 6908 bound_to 6896
  152.5160  133.9196  159.7582 H   0  0  0  0  0  0  0  0  0  0  0  0  # atno 6909 bound_to 6896
  145.1920  140.9019  143.3419 H   0  0  0  0  0  0  0  0  0  0  0  0  # atno 7974 bound_to 7965
  156.2370  140.1888  156.7092 H   0  0  0  0  0  0  0  0  0  0  0  0  # atno 8008 bound_to 7997
  154.6125  140.0620  156.9539 H   0  0  0  0  0  0  0  0  0  0  0  0  # atno 8009 bound_to 7997
  155.1993  140.3291  155.4348 H   0  0  0  0  0  0  0  0  0  0  0  0  # atno 8010 bound_to 7997
  140.3718  143.2790  151.9491 H   0  0  0  0  0  0  0  0  0  0  0  0  # atno 10167 bound_to 10162
  156.0045  130.4613  150.3998 H   0  0  0  0  0  0  0  0  0  0  0  0  # atno 10718 bound_to 10713
  153.9983  135.6696  153.4758 H   0  0  0  0  0  0  0  0  0  0  0  0  # atno 10763 bound_to 10752
  153.0674  135.4993  154.8225 H   0  0  0  0  0  0  0  0  0  0  0  0  # atno 10764 bound_to 10752
  154.7068  135.3089  154.9221 H   0  0  0  0  0  0  0  0  0  0  0  0  # atno 10765 bound_to 10752
  141.0893  133.9083  157.2113 H   0  0  0  0  0  0  0  0  0  0  0  0  # atno 11005 bound_to 11000
  145.0031  139.3579  143.6157 LP  0  0  0  0  0  0  0  0  0  0  0  0  # atno 17320 bound_to 7965
  146.3434  139.9263  142.8759 LP  0  0  0  0  0  0  0  0  0  0  0  0  # atno 17321 bound_to 7965
  139.4803  144.5900  151.7789 LP  0  0  0  0  0  0  0  0  0  0  0  0  # atno 17342 bound_to 10162
  140.5025  144.1147  150.5974 LP  0  0  0  0  0  0  0  0  0  0  0  0  # atno 17343 bound_to 10162
  157.2068  131.0451  151.2621 LP  0  0  0  0  0  0  0  0  0  0  0  0  # atno 17370 bound_to 10713
  157.3925  130.7290  149.6708 LP  0  0  0  0  0  0  0  0  0  0  0  0  # atno 17371 bound_to 10713
  139.9716  135.0126  156.9527 LP  0  0  0  0  0  0  0  0  0  0  0  0  # atno 17394 bound_to 11000
  140.5289  134.0833  155.7311 LP  0  0  0  0  0  0  0  0  0  0  0  0  # atno 17395 bound_to 11000

$$$$
