AV-unprocessed.smi:1454|AV-procd|sdf|5913|dock4
  -GOLD-   22720 5593D 1   1.00000     0.00000
 Structure written by MMmdl.
 44 45  0  0  0  0  0  0  0  0  1 V2000
  152.9463  139.4876  154.8557 O   0  0  0  0  0  0  0  0  0  0  0  0
  151.7667  139.2154  155.0821 C   0  0  0  0  0  0  0  0  0  0  0  0
  151.1293  137.9467  154.5054 C   0  0  0  0  0  0  0  0  0  0  0  0
  149.6097  137.8623  154.7516 C   0  0  0  0  0  0  0  0  0  0  0  0
  149.0765  136.5559  154.3826 N   0  0  0  0  0  0  0  0  0  0  0  0
  148.6729  135.6130  155.2478 C   0  0  0  0  0  0  0  0  0  0  0  0
  148.7232  135.7548  156.4703 O   0  0  0  0  0  0  0  0  0  0  0  0
  148.1315  134.3105  154.6354 C   0  0  0  0  0  0  0  0  0  0  0  0
  147.6083  133.3354  155.7165 C   0  0  0  0  0  0  0  0  0  0  0  0
  148.4384  132.0506  155.6008 C   0  0  0  0  0  0  0  0  0  0  0  0
  149.7082  132.4569  154.8585 C   0  0  0  0  0  0  0  0  0  0  0  0
  149.2311  133.5340  153.8856 C   0  0  0  0  0  0  0  0  0  0  0  0
  150.9719  139.9842  155.8402 N   0  0  0  0  0  0  0  0  0  0  0  0
  151.3980  141.2162  156.4898 C   0  0  0  0  0  0  0  0  0  0  0  0
  150.9576  141.2350  157.9596 C   0  0  0  0  0  0  0  0  0  0  0  0
  151.2499  142.5655  158.6249 C   0  0  0  0  0  0  0  0  0  0  0  0
  152.1058  142.6444  159.7428 C   0  0  0  0  0  0  0  0  0  0  0  0
  152.3406  143.9028  160.3295 C   0  0  0  0  0  0  0  0  0  0  0  0
  151.7069  145.0314  159.7721 C   0  0  0  0  0  0  0  0  0  0  0  0
  150.8854  144.9678  158.7020 N   0  0  0  0  0  0  0  0  0  0  0  0
  150.6659  143.7572  158.1453 C   0  0  0  0  0  0  0  0  0  0  0  0
  151.3343  137.9194  153.4347 H   0  0  0  0  0  0  0  0  0  0  0  0
  151.6222  137.0761  154.9405 H   0  0  0  0  0  0  0  0  0  0  0  0
  149.3742  138.0794  155.7950 H   0  0  0  0  0  0  0  0  0  0  0  0
  149.0878  138.6097  154.1530 H   0  0  0  0  0  0  0  0  0  0  0  0
  149.0003  136.3569  153.3954 H   0  0  0  0  0  0  0  0  0  0  0  0
  147.3291  134.5551  153.9373 H   0  0  0  0  0  0  0  0  0  0  0  0
  147.7115  133.7494  156.7213 H   0  0  0  0  0  0  0  0  0  0  0  0
  146.5481  133.1221  155.5771 H   0  0  0  0  0  0  0  0  0  0  0  0
  148.6487  131.5990  156.5709 H   0  0  0  0  0  0  0  0  0  0  0  0
  147.8913  131.3165  155.0075 H   0  0  0  0  0  0  0  0  0  0  0  0
  150.4282  132.8810  155.5596 H   0  0  0  0  0  0  0  0  0  0  0  0
  150.1871  131.6172  154.3546 H   0  0  0  0  0  0  0  0  0  0  0  0
  148.8018  133.0620  153.0009 H   0  0  0  0  0  0  0  0  0  0  0  0
  150.0536  134.1637  153.5427 H   0  0  0  0  0  0  0  0  0  0  0  0
  150.0143  139.6949  155.9794 H   0  0  0  0  0  0  0  0  0  0  0  0
  152.4840  141.3020  156.4252 H   0  0  0  0  0  0  0  0  0  0  0  0
  150.9738  142.0699  155.9588 H   0  0  0  0  0  0  0  0  0  0  0  0
  149.8894  141.0272  158.0341 H   0  0  0  0  0  0  0  0  0  0  0  0
  151.4656  140.4440  158.5133 H   0  0  0  0  0  0  0  0  0  0  0  0
  152.5723  141.7576  160.1461 H   0  0  0  0  0  0  0  0  0  0  0  0
  152.9896  144.0011  161.1871 H   0  0  0  0  0  0  0  0  0  0  0  0
  151.8631  146.0114  160.1980 H   0  0  0  0  0  0  0  0  0  0  0  0
  150.0021  143.7395  157.2934 H   0  0  0  0  0  0  0  0  0  0  0  0
  1  2  2  0  0  0  0
  2  3  1  0  0  0  0
  2 13  1  0  0  0  0
  3  4  1  0  0  0  0
  3 22  1  0  0  0  0
  3 23  1  0  0  0  0
  4  5  1  0  0  0  0
  4 24  1  0  0  0  0
  4 25  1  0  0  0  0
  5  6  1  0  0  0  0
  5 26  1  0  0  0  0
  6  7  2  0  0  0  0
  6  8  1  0  0  0  0
  8 12  1  0  0  0  0
  8  9  1  0  0  0  0
  8 27  1  0  0  0  0
  9 10  1  0  0  0  0
  9 28  1  0  0  0  0
  9 29  1  0  0  0  0
 10 11  1  0  0  0  0
 10 30  1  0  0  0  0
 10 31  1  0  0  0  0
 11 12  1  0  0  0  0
 11 32  1  0  0  0  0
 11 33  1  0  0  0  0
 12 34  1  0  0  0  0
 12 35  1  0  0  0  0
 13 14  1  0  0  0  0
 13 36  1  0  0  0  0
 14 15  1  0  0  0  0
 14 37  1  0  0  0  0
 14 38  1  0  0  0  0
 15 16  1  0  0  0  0
 15 39  1  0  0  0  0
 15 40  1  0  0  0  0
 16 21  1  0  0  0  0
 16 17  2  0  0  0  0
 17 18  1  0  0  0  0
 17 41  1  0  0  0  0
 18 19  2  0  0  0  0
 18 42  1  0  0  0  0
 19 20  1  0  0  0  0
 19 43  1  0  0  0  0
 20 21  2  0  0  0  0
 21 44  1  0  0  0  0
M  END
> <s_m_source_file>
AV-unprocessed.smi

> <i_m_source_file_index>
1454

> <i_lp_mmshare_version>
43012

> <i_f3d_flags>
0

> <s_epik_input>
W2NIXTFuW2NIXVtjSF1bY0hdYzFbQ0gyXVtDSDJdW05IXUMoPU8pW0NIMl1bQ0gyXVtOSF1DKD1PKVtDSF0yW0NIMl1bQ0gyXVtDSDJdW0NIMl0y

> <s_epik_cmdline>
J2VwaWtfcHl0aG9uJywgJy1waCcsICc3LjAnLCAnLXRuJywgJzgnLCAnLW1hJywgJzIwMCcsICctbWV0YWxfYmluZGluZycsICctaW1hZScsICc8aW5maWxlLm1hZT4nLCAnLW9tYWUnLCAnPG91dGZpbGUubWFlPic=

> <r_epik_Ionization_Penalty>
0.013238

> <r_epik_Ionization_Penalty_Charging>
0

> <r_epik_Ionization_Penalty_Neutral>
0.013238

> <r_epik_State_Penalty>
0.0102918

> <r_epik_Charging_Adjusted_Penalty>
0.0102918

> <i_epik_Tot_Q>
0

> <i_epik_Tot_abs_Q>
0

> <r_epik_Metal_State_Penalty>
0.0100665

> <b_epik_Metal_Only>
0

> <s_lp_Force_Field>
OPLS_2005

> <r_lp_Energy>
20.9977

> <b_lp_Chiralities_Consistent>
1

> <s_lp_Variant>
AV-unprocessed.smi:1454-1

> <Gold.Version>
5.8.1

> <Gold.Id.Protein>
6NUR|6NUR_protein|mol2

> <Gold.PLP.Fitness>
47.9971

> <Gold.PLP.PLP>
-39.5188

> <Gold.PLP.part.hbond>
-3.0000

> <Gold.PLP.part.metal>
0.0000

> <Gold.PLP.part.buried>
-5.8168

> <Gold.PLP.part.nonpolar>
-30.2906

> <Gold.PLP.part.repulsive>
0.3159

> <Gold.PLP.ligand.clash>
0.1274

> <Gold.PLP.ligand.torsion>
0.2741

> <Gold.PLP.Chemscore.Hbond>
2.0000

> <Gold.PLP.Chemscore.CHOScore>
1.0000

> <Gold.PLP.Chemscore.Metal>
0.0000

> <Gold.Chemscore.Hbonds>
donor molecule, donor type, donor heavy atom, donor atom, acceptor molecule, acceptor atom, score
      L1  H     5    26       P1  7948  0.98
      P1  H  7997  8008       L1     1  1.00
      L1  C    21    44       P1  8028  1.00

> <Gold.PLP.Chemscore.Internal.Correction>
0.1539

> <Gold.Rescore>
     Score         DG    S(hbond)    S(metal)    S(lipo)     H(rot)  DE(clash)    DE(int)     intcor
     18.08     -18.51       1.99        0.00     100.55       2.10       0.24       0.20       ----

> <Gold.Chemscore.Fitness>
18.0772

> <Gold.Chemscore.DG>
-18.5131

> <Gold.Chemscore.ZeroCoef>
-5.4800

> <Gold.Chemscore.Hbond>
1.9866

> <Gold.Chemscore.Metal>
0.0000

> <Gold.Chemscore.Lipo>
100.5463

> <Gold.Chemscore.Internal_Hbond>
0.0000

> <Gold.Chemscore.DEClash>
0.2395

> <Gold.Chemscore.DEInternal>
0.1964

> <Gold.Chemscore.Rot>
2.0961

> <Gold.Chemscore.Internal.Correction>
   9.000000E+99

> <Gold.Chemscore.Hbonds>
donor molecule, donor type, donor heavy atom, donor atom, acceptor molecule, acceptor atom, score
      L1  H     5    26       P1  7948  0.92
      P1  H  7997  8008       L1     1  0.97

> <Gold.Chemscore.Hbond.Weighted>
-6.6352

> <Gold.Chemscore.Metal.Weighted>
-0.0000

> <Gold.Chemscore.Lipo.Weighted>
-11.7639

> <Gold.Chemscore.Internal_Hbond.Weighted>
0.0000

> <Gold.Chemscore.DEClash.Weighted>
0.2395

> <Gold.Chemscore.DEInternal.Weighted>
0.1964

> <Gold.Chemscore.Rot.Weighted>
5.3660

> <Gold.Chemscore.Internal.Correction.Weighted>
   9.000000E+99

> <Gold.Protein.RotatedTorsions>
[ 6907 6896 6895 6894 ] final -162.98 input  -60.11 | X-H torsion
[ 7974 7965 7964 7962 ] final -168.28 input  175.53 | X-H torsion
[ 8008 7997 7996 7995 ] final   -3.20 input   59.86 | X-H torsion
[ 10167 10162 10161 10158 ] final  -71.16 input  -65.29 | X-H torsion
[ 10718 10713 10712 10709 ] final  -45.77 input   66.30 | X-H torsion
[ 10763 10752 10751 10750 ] final -161.27 input  -60.55 | X-H torsion
[ 11005 11000 10999 10996 ] final -101.50 input  -57.11 | X-H torsion

> <Gold.Protein.ActiveResidues>
 VAL166  LYS551  ARG553  GLY616  TRP617  ASP618  TYR619  PRO620  LYS621  CYS622 
 ASP623  PHE694  ASN695  SER759  ASP760  ASP761  ALA762  ILE779  LEU786  VAL792 
 PHE793  MET794  SER795  GLU796  ALA797  LYS798  CYS799  TRP800  GLU811  SER814 

> <Gold.Protein.RotatedAtoms>
  151.3888  133.3796  159.2718 H   0  0  0  0  0  0  0  0  0  0  0  0  # atno 6907 bound_to 6896
  150.9520  134.8920  159.7688 H   0  0  0  0  0  0  0  0  0  0  0  0  # atno 6908 bound_to 6896
  152.5116  134.3844  159.9414 H   0  0  0  0  0  0  0  0  0  0  0  0  # atno 6909 bound_to 6896
  144.7206  140.2394  143.6293 H   0  0  0  0  0  0  0  0  0  0  0  0  # atno 7974 bound_to 7965
  154.6274  140.2515  155.7475 H   0  0  0  0  0  0  0  0  0  0  0  0  # atno 8008 bound_to 7997
  156.2461  140.2914  156.0530 H   0  0  0  0  0  0  0  0  0  0  0  0  # atno 8009 bound_to 7997
  155.1799  140.0388  157.2870 H   0  0  0  0  0  0  0  0  0  0  0  0  # atno 8010 bound_to 7997
  140.5295  143.2323  151.7287 H   0  0  0  0  0  0  0  0  0  0  0  0  # atno 10167 bound_to 10162
  156.2250  130.4168  149.8945 H   0  0  0  0  0  0  0  0  0  0  0  0  # atno 10718 bound_to 10713
  154.7318  135.3048  154.8878 H   0  0  0  0  0  0  0  0  0  0  0  0  # atno 10763 bound_to 10752
  153.9719  135.6740  153.4751 H   0  0  0  0  0  0  0  0  0  0  0  0  # atno 10764 bound_to 10752
  153.0925  135.4952  154.8639 H   0  0  0  0  0  0  0  0  0  0  0  0  # atno 10765 bound_to 10752
  141.1228  133.8483  157.1239 H   0  0  0  0  0  0  0  0  0  0  0  0  # atno 11005 bound_to 11000
  145.8334  139.2096  143.1869 LP  0  0  0  0  0  0  0  0  0  0  0  0  # atno 17320 bound_to 7965
  146.0411  140.8164  142.9828 LP  0  0  0  0  0  0  0  0  0  0  0  0  # atno 17321 bound_to 7965
  139.4949  144.4135  152.0055 LP  0  0  0  0  0  0  0  0  0  0  0  0  # atno 17342 bound_to 10162
  140.3236  144.3399  150.6003 LP  0  0  0  0  0  0  0  0  0  0  0  0  # atno 17343 bound_to 10162
  156.6578  130.8770  151.3542 LP  0  0  0  0  0  0  0  0  0  0  0  0  # atno 17370 bound_to 10713
  157.7106  130.9436  150.1077 LP  0  0  0  0  0  0  0  0  0  0  0  0  # atno 17371 bound_to 10713
  140.0200  134.9950  157.0572 LP  0  0  0  0  0  0  0  0  0  0  0  0  # atno 17394 bound_to 11000
  140.4455  134.1636  155.7177 LP  0  0  0  0  0  0  0  0  0  0  0  0  # atno 17395 bound_to 11000

$$$$
