AV-unprocessed.smi:160|AV-procd|sdf|1371|dock4
  -GOLD-   2262019 93D 1   1.00000     0.00000
 Structure written by MMmdl.
 28 29  0  0  0  0  0  0  0  0  2 V2000
  152.2453  137.3052  154.3345 N   0  5  0  0  0  0  0  0  0  0  0  0
  152.8073  138.2652  155.1010 C   0  0  0  0  0  0  0  0  0  0  0  0
  153.9930  138.3383  155.4219 O   0  0  0  0  0  0  0  0  0  0  0  0
  151.8463  139.3260  155.5827 C   0  0  0  0  0  0  0  0  0  0  0  0
  152.2391  140.2537  156.5080 N   0  0  0  0  0  0  0  0  0  0  0  0
  151.1097  140.9405  156.6127 C   0  0  0  0  0  0  0  0  0  0  0  0
  150.1226  140.4946  155.8309 N   0  0  0  0  0  0  0  0  0  0  0  0
  148.7179  140.9883  155.6820 C   0  0  2  0  0  0  0  0  0  0  0  0
  147.8703  140.0067  156.1986 O   0  0  0  0  0  0  0  0  0  0  0  0
  146.8074  139.7369  155.2876 C   0  0  2  0  0  0  0  0  0  0  0  0
  146.2668  138.3088  155.4794 C   0  0  0  0  0  0  0  0  0  0  0  0
  145.1877  138.0743  154.5994 O   0  0  0  0  0  0  0  0  0  0  0  0
  147.4099  140.0387  153.9081 C   0  0  2  0  0  0  0  0  0  0  0  0
  148.1246  138.9225  153.4060 O   0  0  0  0  0  0  0  0  0  0  0  0
  148.3110  141.2289  154.2137 C   0  0  2  0  0  0  0  0  0  0  0  0
  149.3740  141.3883  153.2888 O   0  0  0  0  0  0  0  0  0  0  0  0
  150.5861  139.4195  155.1478 N   0  0  0  0  0  0  0  0  0  0  0  0
  148.6824  141.8945  156.2879 H   0  0  0  0  0  0  0  0  0  0  0  0
  146.0148  140.4651  155.4707 H   0  0  0  0  0  0  0  0  0  0  0  0
  146.6407  140.2980  153.1801 H   0  0  0  0  0  0  0  0  0  0  0  0
  147.7065  142.1367  154.1994 H   0  0  0  0  0  0  0  0  0  0  0  0
  151.2205  137.2457  154.3003 H   0  0  0  0  0  0  0  0  0  0  0  0
  151.0000  141.7882  157.2729 H   0  0  0  0  0  0  0  0  0  0  0  0
  147.0414  137.5785  155.2440 H   0  0  0  0  0  0  0  0  0  0  0  0
  145.9590  138.1363  156.5114 H   0  0  0  0  0  0  0  0  0  0  0  0
  144.7620  137.2707  154.8564 H   0  0  0  0  0  0  0  0  0  0  0  0
  148.7725  139.2346  152.7925 H   0  0  0  0  0  0  0  0  0  0  0  0
  149.3780  140.6472  152.7028 H   0  0  0  0  0  0  0  0  0  0  0  0
  1  2  1  0  0  0  0
  1 22  1  0  0  0  0
  2  3  2  0  0  0  0
  2  4  1  0  0  0  0
  4 17  2  0  0  0  0
  4  5  1  0  0  0  0
  5  6  2  0  0  0  0
  6  7  1  0  0  0  0
  6 23  1  0  0  0  0
  7  8  1  0  0  0  0
  7 17  1  0  0  0  0
  8 18  1  0  0  0  0
  8 15  1  0  0  0  0
  8  9  1  0  0  0  0
  9 10  1  0  0  0  0
 10 19  1  0  0  0  0
 10 11  1  0  0  0  0
 10 13  1  0  0  0  0
 11 12  1  0  0  0  0
 11 24  1  0  0  0  0
 11 25  1  0  0  0  0
 12 26  1  0  0  0  0
 13 20  1  0  0  0  0
 13 14  1  0  0  0  0
 13 15  1  0  0  0  0
 14 27  1  0  0  0  0
 15 21  1  0  0  0  0
 15 16  1  0  0  0  0
 16 28  1  0  0  0  0
M  CHG  1   1  -1
M  END
> <s_m_source_file>
AV-unprocessed.smi

> <i_m_source_file_index>
160

> <i_lp_mmshare_version>
43012

> <i_f3d_flags>
0

> <s_epik_input>
W05IMl1DKD1PKWMxbltjSF1uKG4xKVtDQEBIXTJPW0NASF0oW0NIMl1bT0hdKVtDQEBIXShbT0hdKVtDQEhdMltPSF0=

> <s_epik_cmdline>
J2VwaWtfcHl0aG9uJywgJy1waCcsICc3LjAnLCAnLXRuJywgJzgnLCAnLW1hJywgJzIwMCcsICctbWV0YWxfYmluZGluZycsICctaW1hZScsICc8aW5maWxlLm1hZT4nLCAnLW9tYWUnLCAnPG91dGZpbGUubWFlPic=

> <r_lp_tautomer_probability>
1

> <r_epik_Ionization_Penalty>
6.6993

> <r_epik_Ionization_Penalty_Charging>
6.6993

> <r_epik_Ionization_Penalty_Neutral>
6.01698e-06

> <r_epik_State_Penalty>
6.69929

> <r_epik_Charging_Adjusted_Penalty>
13.3986

> <i_epik_Tot_Q>
-1

> <i_epik_Tot_abs_Q>
1

> <r_epik_Metal_State_Penalty>
2.62798

> <b_epik_Metal_Only>
1

> <s_epik_Chemistry_Notes>
This compound contains an acetal/aminal-like group ( X-CH(R)-Y where X, Y are N, S, or O) that may be acid/base labile, releasing an aldehyde.

> <s_lp_Force_Field>
OPLS_2005

> <r_lp_Energy>
51.4861

> <b_lp_Chiralities_Consistent>
1

> <s_lp_Variant>
AV-unprocessed.smi:160-29

> <Gold.Version>
5.8.1

> <Gold.Id.Protein>
6NUR|6NUR_protein|mol2

> <Gold.PLP.Fitness>
43.2109

> <Gold.PLP.PLP>
-26.3526

> <Gold.PLP.part.hbond>
-8.5538

> <Gold.PLP.part.metal>
0.0000

> <Gold.PLP.part.buried>
-1.5675

> <Gold.PLP.part.nonpolar>
-16.0363

> <Gold.PLP.part.repulsive>
0.0868

> <Gold.PLP.ligand.clash>
0.0000

> <Gold.PLP.ligand.torsion>
0.1612

> <Gold.PLP.Chemscore.Hbond>
5.7245

> <Gold.PLP.Chemscore.CHOScore>
0.0000

> <Gold.PLP.Chemscore.Metal>
0.0000

> <Gold.Chemscore.Hbonds>
donor molecule, donor type, donor heavy atom, donor atom, acceptor molecule, acceptor atom, score
      L1  H    14    27       P1  7957  1.00
      L1  H    16    28       P1  7957  0.96
      P1  H  7997  8008       L1     5  0.57
      P1  H  8011  8017       L1    16  0.75
      P1  H 10752 10765       L1     1  1.47

> <Gold.PLP.Chemscore.Internal.Correction>
0.0072

> <Gold.Rescore>
     Score         DG    S(hbond)    S(metal)    S(lipo)     H(rot)  DE(clash)    DE(int)     intcor
      9.04      -9.41       3.70        0.00      16.23       4.04       0.14       0.22       ----

> <Gold.Chemscore.Fitness>
9.0447

> <Gold.Chemscore.DG>
-9.4093

> <Gold.Chemscore.ZeroCoef>
-5.4800

> <Gold.Chemscore.Hbond>
3.7046

> <Gold.Chemscore.Metal>
0.0000

> <Gold.Chemscore.Lipo>
16.2323

> <Gold.Chemscore.Internal_Hbond>
0.0000

> <Gold.Chemscore.DEClash>
0.1446

> <Gold.Chemscore.DEInternal>
0.2201

> <Gold.Chemscore.Rot>
4.0403

> <Gold.Chemscore.Internal.Correction>
   9.000000E+99

> <Gold.Chemscore.Hbonds>
donor molecule, donor type, donor heavy atom, donor atom, acceptor molecule, acceptor atom, score
      L1  H    14    27       P1  7957  0.96
      L1  H    16    28       P1  7957  0.92
      P1  H  7997  8008       L1     3  0.42
      P1  H  8011  8017       L1    16  0.14
      P1  H 10752 10765       L1     1  0.62

> <Gold.Chemscore.Hbond.Weighted>
-12.3732

> <Gold.Chemscore.Metal.Weighted>
-0.0000

> <Gold.Chemscore.Lipo.Weighted>
-1.8992

> <Gold.Chemscore.Internal_Hbond.Weighted>
0.0000

> <Gold.Chemscore.DEClash.Weighted>
0.1446

> <Gold.Chemscore.DEInternal.Weighted>
0.2201

> <Gold.Chemscore.Rot.Weighted>
10.3431

> <Gold.Chemscore.Internal.Correction.Weighted>
   9.000000E+99

> <Gold.Protein.RotatedTorsions>
[ 6907 6896 6895 6894 ] final   -6.72 input  -60.11 | X-H torsion
[ 7974 7965 7964 7962 ] final  -19.77 input  175.53 | X-H torsion
[ 8008 7997 7996 7995 ] final  -29.61 input   59.86 | X-H torsion
[ 10167 10162 10161 10158 ] final   40.37 input  -65.29 | X-H torsion
[ 10718 10713 10712 10709 ] final   66.31 input   66.30 | X-H torsion
[ 10763 10752 10751 10750 ] final  142.45 input  -60.55 | X-H torsion
[ 11005 11000 10999 10996 ] final   19.44 input  -57.11 | X-H torsion

> <Gold.Protein.ActiveResidues>
 VAL166  LYS551  ARG553  GLY616  TRP617  ASP618  TYR619  PRO620  LYS621  CYS622 
 ASP623  PHE694  ASN695  SER759  ASP760  ASP761  ALA762  ILE779  LEU786  VAL792 
 PHE793  MET794  SER795  GLU796  ALA797  LYS798  CYS799  TRP800  GLU811  SER814 

> <Gold.Protein.RotatedAtoms>
  151.4610  135.1038  159.9724 H   0  0  0  0  0  0  0  0  0  0  0  0  # atno 6907 bound_to 6896
  152.4853  133.8352  159.7134 H   0  0  0  0  0  0  0  0  0  0  0  0  # atno 6908 bound_to 6896
  150.8957  133.7124  159.2919 H   0  0  0  0  0  0  0  0  0  0  0  0  # atno 6909 bound_to 6896
  146.1824  140.4109  142.8489 H   0  0  0  0  0  0  0  0  0  0  0  0  # atno 7974 bound_to 7965
  154.4283  140.1813  156.1275 H   0  0  0  0  0  0  0  0  0  0  0  0  # atno 8008 bound_to 7997
  156.0094  140.3352  155.6900 H   0  0  0  0  0  0  0  0  0  0  0  0  # atno 8009 bound_to 7997
  155.6132  140.0652  157.2690 H   0  0  0  0  0  0  0  0  0  0  0  0  # atno 8010 bound_to 7997
  140.3748  144.2057  150.6132 H   0  0  0  0  0  0  0  0  0  0  0  0  # atno 10167 bound_to 10162
  157.6161  130.9261  150.0091 H   0  0  0  0  0  0  0  0  0  0  0  0  # atno 10718 bound_to 10713
  153.9560  135.2965  155.3436 H   0  0  0  0  0  0  0  0  0  0  0  0  # atno 10763 bound_to 10752
  154.7401  135.5029  153.9111 H   0  0  0  0  0  0  0  0  0  0  0  0  # atno 10764 bound_to 10752
  153.0970  135.6724  153.9853 H   0  0  0  0  0  0  0  0  0  0  0  0  # atno 10765 bound_to 10752
  140.4136  134.1592  155.7668 H   0  0  0  0  0  0  0  0  0  0  0  0  # atno 11005 bound_to 11000
  144.8337  140.6748  143.6274 LP  0  0  0  0  0  0  0  0  0  0  0  0  # atno 17320 bound_to 7965
  145.4039  139.1592  143.4163 LP  0  0  0  0  0  0  0  0  0  0  0  0  # atno 17321 bound_to 7965
  140.4997  143.2321  151.8697 LP  0  0  0  0  0  0  0  0  0  0  0  0  # atno 17342 bound_to 10162
  139.4800  144.5073  151.8980 LP  0  0  0  0  0  0  0  0  0  0  0  0  # atno 17343 bound_to 10162
  156.1283  130.3644  149.9773 LP  0  0  0  0  0  0  0  0  0  0  0  0  # atno 17370 bound_to 10713
  156.7839  130.9231  151.3646 LP  0  0  0  0  0  0  0  0  0  0  0  0  # atno 17371 bound_to 10713
  141.1811  133.8411  157.1253 LP  0  0  0  0  0  0  0  0  0  0  0  0  # atno 17394 bound_to 11000
  140.0250  134.9928  157.0667 LP  0  0  0  0  0  0  0  0  0  0  0  0  # atno 17395 bound_to 11000

$$$$
