AV-unprocessed.smi:79|AV-procd|sdf|779|dock3
  -GOLD-   2262017133D 1   1.00000     0.00000
 Structure written by MMmdl.
 56 59  0  0  0  0  0  0  0  0  2 V2000
  145.9982  132.6197  150.0925 C   0  0  0  0  0  0  0  0  0  0  0  0
  146.6725  133.6551  151.0023 C   0  0  2  0  0  0  0  0  0  0  0  0
  147.5514  132.9639  151.8673 O   0  0  0  0  0  0  0  0  0  0  0  0
  145.6399  134.4388  151.8378 C   0  0  0  0  0  0  0  0  0  0  0  0
  146.1813  135.7094  152.3847 N   0  3  1  0  0  0  0  0  0  0  0  0
  145.4710  136.9159  151.8894 C   0  0  0  0  0  0  0  0  0  0  0  0
  146.1312  138.1960  152.4216 C   0  0  0  0  0  0  0  0  0  0  0  0
  146.2422  138.1667  153.8765 N   0  0  0  0  0  0  0  0  0  0  0  0
  146.6691  139.3554  154.3584 C   0  0  0  0  0  0  0  0  0  0  0  0
  145.7397  140.3296  154.5108 N   0  0  0  0  0  0  0  0  0  0  0  0
  146.0999  141.5263  154.9854 C   0  0  0  0  0  0  0  0  0  0  0  0
  147.3116  141.9474  155.3555 N   0  0  0  0  0  0  0  0  0  0  0  0
  148.2485  140.9688  155.1979 C   0  0  0  0  0  0  0  0  0  0  0  0
  148.0162  139.6531  154.7087 C   0  0  0  0  0  0  0  0  0  0  0  0
  149.2077  138.9386  154.6826 N   0  0  0  0  0  0  0  0  0  0  0  0
  150.0946  139.7850  155.1309 C   0  0  0  0  0  0  0  0  0  0  0  0
  149.6041  141.0257  155.4724 N   0  0  0  0  0  0  0  0  0  0  0  0
  150.3644  142.1528  155.9908 C   0  0  0  0  0  0  0  0  0  0  0  0
  150.6025  142.0966  157.5130 C   0  0  0  0  0  0  0  0  0  0  0  0
  151.1911  143.4250  158.0200 C   0  0  0  0  0  0  0  0  0  0  0  0
  150.2377  144.4671  157.9730 O   0  0  0  0  0  0  0  0  0  0  0  0
  149.4338  141.5615  158.3530 C   0  0  0  0  0  0  0  0  0  0  0  0
  150.2751  140.5943  159.0151 O   0  0  0  0  0  0  0  0  0  0  0  0
  151.3066  140.8367  158.0350 C   0  0  0  0  0  0  0  0  0  0  0  0
  146.9157  136.9805  154.4176 C   0  0  1  0  0  0  0  0  0  0  0  0
  146.9245  136.9498  155.9596 C   0  0  0  0  0  0  0  0  0  0  0  0
  146.2551  135.6986  153.8673 C   0  0  0  0  0  0  0  0  0  0  0  0
  145.3228  133.1016  149.3852 H   0  0  0  0  0  0  0  0  0  0  0  0
  145.4162  131.8997  150.6690 H   0  0  0  0  0  0  0  0  0  0  0  0
  146.7371  132.0636  149.5141 H   0  0  0  0  0  0  0  0  0  0  0  0
  147.2611  134.3252  150.3768 H   0  0  0  0  0  0  0  0  0  0  0  0
  147.9811  132.2749  151.3845 H   0  0  0  0  0  0  0  0  0  0  0  0
  144.7530  134.6579  151.2411 H   0  0  0  0  0  0  0  0  0  0  0  0
  145.3023  133.7990  152.6550 H   0  0  0  0  0  0  0  0  0  0  0  0
  145.4709  136.9438  150.8006 H   0  0  0  0  0  0  0  0  0  0  0  0
  144.4273  136.8787  152.2054 H   0  0  0  0  0  0  0  0  0  0  0  0
  147.1236  138.3046  151.9816 H   0  0  0  0  0  0  0  0  0  0  0  0
  145.5487  139.0650  152.1108 H   0  0  0  0  0  0  0  0  0  0  0  0
  145.3038  142.2499  155.0825 H   0  0  0  0  0  0  0  0  0  0  0  0
  151.1389  139.5244  155.2232 H   0  0  0  0  0  0  0  0  0  0  0  0
  151.3160  142.1790  155.4581 H   0  0  0  0  0  0  0  0  0  0  0  0
  149.8533  143.0748  155.7121 H   0  0  0  0  0  0  0  0  0  0  0  0
  151.5738  143.3360  159.0367 H   0  0  0  0  0  0  0  0  0  0  0  0
  152.0397  143.7259  157.4044 H   0  0  0  0  0  0  0  0  0  0  0  0
  149.5910  144.2536  157.3173 H   0  0  0  0  0  0  0  0  0  0  0  0
  149.0096  142.2924  159.0427 H   0  0  0  0  0  0  0  0  0  0  0  0
  148.6497  141.0758  157.7705 H   0  0  0  0  0  0  0  0  0  0  0  0
  151.3691  140.0284  157.3047 H   0  0  0  0  0  0  0  0  0  0  0  0
  152.2799  141.0257  158.4893 H   0  0  0  0  0  0  0  0  0  0  0  0
  147.9505  136.9930  154.0731 H   0  0  0  0  0  0  0  0  0  0  0  0
  147.3886  136.0349  156.3290 H   0  0  0  0  0  0  0  0  0  0  0  0
  145.9117  136.9924  156.3619 H   0  0  0  0  0  0  0  0  0  0  0  0
  147.4869  137.7830  156.3821 H   0  0  0  0  0  0  0  0  0  0  0  0
  145.2476  135.5907  154.2735 H   0  0  0  0  0  0  0  0  0  0  0  0
  146.8251  134.8290  154.1976 H   0  0  0  0  0  0  0  0  0  0  0  0
  147.1356  135.7747  152.0613 H   0  0  0  0  0  0  0  0  0  0  0  0
  1  2  1  0  0  0  0
  1 28  1  0  0  0  0
  1 29  1  0  0  0  0
  1 30  1  0  0  0  0
  2  3  1  0  0  0  0
  2  4  1  0  0  0  0
  2 31  1  0  0  0  0
  3 32  1  0  0  0  0
  4  5  1  0  0  0  0
  4 33  1  0  0  0  0
  4 34  1  0  0  0  0
  5 27  1  0  0  0  0
  5  6  1  0  0  0  0
  5 56  1  0  0  0  0
  6  7  1  0  0  0  0
  6 35  1  0  0  0  0
  6 36  1  0  0  0  0
  7  8  1  0  0  0  0
  7 37  1  0  0  0  0
  7 38  1  0  0  0  0
  8  9  1  0  0  0  0
  8 25  1  0  0  0  0
  9 14  1  0  0  0  0
  9 10  2  0  0  0  0
 10 11  1  0  0  0  0
 11 12  2  0  0  0  0
 11 39  1  0  0  0  0
 12 13  1  0  0  0  0
 13 17  1  0  0  0  0
 13 14  2  0  0  0  0
 14 15  1  0  0  0  0
 15 16  2  0  0  0  0
 16 17  1  0  0  0  0
 16 40  1  0  0  0  0
 17 18  1  0  0  0  0
 18 19  1  0  0  0  0
 18 41  1  0  0  0  0
 18 42  1  0  0  0  0
 19 24  1  0  0  0  0
 19 20  1  0  0  0  0
 19 22  1  0  0  0  0
 20 21  1  0  0  0  0
 20 43  1  0  0  0  0
 20 44  1  0  0  0  0
 21 45  1  0  0  0  0
 22 23  1  0  0  0  0
 22 46  1  0  0  0  0
 22 47  1  0  0  0  0
 23 24  1  0  0  0  0
 24 48  1  0  0  0  0
 24 49  1  0  0  0  0
 25 26  1  0  0  0  0
 25 27  1  0  0  0  0
 25 50  1  0  0  0  0
 26 51  1  0  0  0  0
 26 52  1  0  0  0  0
 26 53  1  0  0  0  0
 27 54  1  0  0  0  0
 27 55  1  0  0  0  0
M  CHG  1   5   1
M  END
> <s_m_source_file>
AV-unprocessed.smi

> <i_m_source_file_index>
79

> <i_lp_mmshare_version>
43012

> <i_f3d_flags>
0

> <s_epik_input>
W0NIM11bQ0BIXShbT0hdKVtDSDJdTjFbQ0gyXVtDSDJdTihbQ0BASF0oW0NIM10pW0NIMl0xKWMobltjSF1uMiljKGMyMyluW2NIXW4zW0NIMl1DNChbQ0gyXVtPSF0pW0NIMl1PW0NIMl00

> <s_epik_cmdline>
J2VwaWtfcHl0aG9uJywgJy1waCcsICc3LjAnLCAnLXRuJywgJzgnLCAnLW1hJywgJzIwMCcsICctbWV0YWxfYmluZGluZycsICctaW1hZScsICc8aW5maWxlLm1hZT4nLCAnLW9tYWUnLCAnPG91dGZpbGUubWFlPic=

> <r_lp_tautomer_probability>
1

> <r_epik_Ionization_Penalty>
0.00515943

> <r_epik_Ionization_Penalty_Charging>
0.00509693

> <r_epik_Ionization_Penalty_Neutral>
6.25007e-05

> <r_epik_State_Penalty>
-0

> <r_epik_Charging_Adjusted_Penalty>
0.00509693

> <i_epik_Tot_Q>
1

> <i_epik_Tot_abs_Q>
1

> <r_epik_Metal_State_Penalty>
-0

> <b_epik_Metal_Only>
0

> <s_lp_Force_Field>
OPLS_2005

> <r_lp_Energy>
50.7064

> <b_lp_Chiralities_Consistent>
1

> <s_lp_Variant>
AV-unprocessed.smi:79-3

> <Gold.Version>
5.8.1

> <Gold.Id.Protein>
6NUR|6NUR_protein|mol2

> <Gold.PLP.Fitness>
44.0962

> <Gold.PLP.PLP>
-35.8438

> <Gold.PLP.part.hbond>
-3.4296

> <Gold.PLP.part.metal>
0.0000

> <Gold.PLP.part.buried>
-5.4798

> <Gold.PLP.part.nonpolar>
-29.1902

> <Gold.PLP.part.repulsive>
1.6144

> <Gold.PLP.ligand.clash>
0.0000

> <Gold.PLP.ligand.torsion>
2.1869

> <Gold.PLP.Chemscore.Hbond>
4.0000

> <Gold.PLP.Chemscore.CHOScore>
0.0000

> <Gold.PLP.Chemscore.Metal>
0.0000

> <Gold.Chemscore.Hbonds>
donor molecule, donor type, donor heavy atom, donor atom, acceptor molecule, acceptor atom, score
      L1  H     3    32       P1 10747  0.94
      L1  H     5    56       P1  7948  2.00
      L1  H    21    45       P1  8028  0.88

> <Gold.PLP.Chemscore.Internal.Correction>
0.6264

> <Gold.Rescore>
     Score         DG    S(hbond)    S(metal)    S(lipo)     H(rot)  DE(clash)    DE(int)     intcor
     10.92     -14.69       2.87        0.00      78.40       3.72       0.57       3.21       ----

> <Gold.Chemscore.Fitness>
10.9154

> <Gold.Chemscore.DG>
-14.6927

> <Gold.Chemscore.ZeroCoef>
-5.4800

> <Gold.Chemscore.Hbond>
2.8652

> <Gold.Chemscore.Metal>
0.0000

> <Gold.Chemscore.Lipo>
78.3982

> <Gold.Chemscore.Internal_Hbond>
0.0000

> <Gold.Chemscore.DEClash>
0.5719

> <Gold.Chemscore.DEInternal>
3.2054

> <Gold.Chemscore.Rot>
3.7226

> <Gold.Chemscore.Internal.Correction>
   9.000000E+99

> <Gold.Chemscore.Hbonds>
donor molecule, donor type, donor heavy atom, donor atom, acceptor molecule, acceptor atom, score
      L1  H     3    32       P1 10747  0.90
      L1  H     5    56       P1  7948  1.00
      L1  H    21    45       P1  8028  0.22

> <Gold.Chemscore.Hbond.Weighted>
-9.5699

> <Gold.Chemscore.Metal.Weighted>
-0.0000

> <Gold.Chemscore.Lipo.Weighted>
-9.1726

> <Gold.Chemscore.Internal_Hbond.Weighted>
0.0000

> <Gold.Chemscore.DEClash.Weighted>
0.5719

> <Gold.Chemscore.DEInternal.Weighted>
3.2054

> <Gold.Chemscore.Rot.Weighted>
9.5298

> <Gold.Chemscore.Internal.Correction.Weighted>
   9.000000E+99

> <Gold.Protein.RotatedTorsions>
[ 6907 6896 6895 6894 ] final  172.04 input  -60.11 | X-H torsion
[ 7974 7965 7964 7962 ] final   23.99 input  175.53 | X-H torsion
[ 8008 7997 7996 7995 ] final   38.61 input   59.86 | X-H torsion
[ 10167 10162 10161 10158 ] final -115.99 input  -65.29 | X-H torsion
[ 10718 10713 10712 10709 ] final -132.31 input   66.30 | X-H torsion
[ 10763 10752 10751 10750 ] final   12.45 input  -60.55 | X-H torsion
[ 11005 11000 10999 10996 ] final  129.16 input  -57.11 | X-H torsion

> <Gold.Protein.ActiveResidues>
 VAL166  LYS551  ARG553  GLY616  TRP617  ASP618  TYR619  PRO620  LYS621  CYS622 
 ASP623  PHE694  ASN695  SER759  ASP760  ASP761  ALA762  ILE779  LEU786  VAL792 
 PHE793  MET794  SER795  GLU796  ALA797  LYS798  CYS799  TRP800  GLU811  SER814 

> <Gold.Protein.RotatedAtoms>
  151.7906  133.3359  159.3497 H   0  0  0  0  0  0  0  0  0  0  0  0  # atno 6907 bound_to 6896
  150.7393  134.5846  159.5965 H   0  0  0  0  0  0  0  0  0  0  0  0  # atno 6908 bound_to 6896
  152.3212  134.7379  160.0364 H   0  0  0  0  0  0  0  0  0  0  0  0  # atno 6909 bound_to 6896
  146.1959  139.7668  142.8798 H   0  0  0  0  0  0  0  0  0  0  0  0  # atno 7974 bound_to 7965
  155.2230  140.3332  155.4313 H   0  0  0  0  0  0  0  0  0  0  0  0  # atno 8008 bound_to 7997
  156.2326  140.1857  156.7251 H   0  0  0  0  0  0  0  0  0  0  0  0  # atno 8009 bound_to 7997
  154.6003  140.0624  156.9345 H   0  0  0  0  0  0  0  0  0  0  0  0  # atno 8010 bound_to 7997
  140.0841  143.4761  152.1909 H   0  0  0  0  0  0  0  0  0  0  0  0  # atno 10167 bound_to 10162
  156.2333  130.7051  151.0881 H   0  0  0  0  0  0  0  0  0  0  0  0  # atno 10718 bound_to 10713
  153.1821  135.6829  153.8464 H   0  0  0  0  0  0  0  0  0  0  0  0  # atno 10763 bound_to 10752
  153.7792  135.3185  155.3364 H   0  0  0  0  0  0  0  0  0  0  0  0  # atno 10764 bound_to 10752
  154.8066  135.4744  154.0503 H   0  0  0  0  0  0  0  0  0  0  0  0  # atno 10765 bound_to 10752
  139.9600  134.9604  156.9107 H   0  0  0  0  0  0  0  0  0  0  0  0  # atno 11005 bound_to 11000
  145.3646  141.0332  143.3266 LP  0  0  0  0  0  0  0  0  0  0  0  0  # atno 17320 bound_to 7965
  144.8579  139.5222  143.6826 LP  0  0  0  0  0  0  0  0  0  0  0  0  # atno 17321 bound_to 7965
  139.5763  144.7489  151.3757 LP  0  0  0  0  0  0  0  0  0  0  0  0  # atno 17342 bound_to 10162
  140.7063  143.7506  150.7487 LP  0  0  0  0  0  0  0  0  0  0  0  0  # atno 17343 bound_to 10162
  157.7143  131.0718  150.6387 LP  0  0  0  0  0  0  0  0  0  0  0  0  # atno 17370 bound_to 10713
  156.6455  130.4470  149.5737 LP  0  0  0  0  0  0  0  0  0  0  0  0  # atno 17371 bound_to 10713
  140.5522  134.0616  155.7372 LP  0  0  0  0  0  0  0  0  0  0  0  0  # atno 17394 bound_to 11000
  141.1276  133.9357  157.2603 LP  0  0  0  0  0  0  0  0  0  0  0  0  # atno 17395 bound_to 11000

$$$$
