AV-unprocessed.smi:1554|AV-procd|sdf|6244|dock2
  -GOLD-   22720 6423D 1   1.00000     0.00000
 Structure written by MMmdl.
 48 50  0  0  0  0  0  0  0  0  2 V2000
  152.8793  143.1378  161.8113 C   0  0  0  0  0  0  0  0  0  0  0  0
  152.3865  142.7720  160.4224 C   0  0  0  0  0  0  0  0  0  0  0  0
  152.7944  141.5466  159.8486 C   0  0  0  0  0  0  0  0  0  0  0  0
  152.3588  141.1701  158.5593 C   0  0  0  0  0  0  0  0  0  0  0  0
  152.6324  140.0369  157.8127 N   0  0  0  0  0  0  0  0  0  0  0  0
  151.9375  140.2716  156.7036 C   0  0  0  0  0  0  0  0  0  0  0  0
  151.2465  141.4261  156.6415 N   0  0  0  0  0  0  0  0  0  0  0  0
  150.4230  141.8936  155.5403 C   0  0  0  0  0  0  0  0  0  0  0  0
  149.2477  140.9447  155.2356 C   0  0  2  0  0  0  0  0  0  0  0  0
  149.7498  139.7248  154.7237 O   0  0  0  0  0  0  0  0  0  0  0  0
  148.2811  141.5528  154.1997 C   0  0  0  0  0  0  0  0  0  0  0  0
  147.2257  142.3932  154.8211 N   0  3  1  0  0  0  0  0  0  0  0  0
  146.0658  142.6525  153.9330 C   0  0  0  0  0  0  0  0  0  0  0  0
  145.0494  143.5670  154.6358 C   0  0  0  0  0  0  0  0  0  0  0  0
  144.6418  142.9736  155.8622 O   0  0  0  0  0  0  0  0  0  0  0  0
  145.7286  142.7990  156.7646 C   0  0  1  0  0  0  0  0  0  0  0  0
  145.1731  142.2413  158.0798 C   0  0  0  0  0  0  0  0  0  0  0  0
  146.7678  141.8572  156.1254 C   0  0  0  0  0  0  0  0  0  0  0  0
  151.4953  142.0591  157.8548 C   0  0  0  0  0  0  0  0  0  0  0  0
  151.0831  143.2812  158.4146 C   0  0  0  0  0  0  0  0  0  0  0  0
  151.5298  143.6433  159.7026 C   0  0  0  0  0  0  0  0  0  0  0  0
  151.0819  144.9671  160.2964 C   0  0  0  0  0  0  0  0  0  0  0  0
  153.4784  142.3367  162.2450 H   0  0  0  0  0  0  0  0  0  0  0  0
  152.0386  143.3238  162.4800 H   0  0  0  0  0  0  0  0  0  0  0  0
  153.4969  144.0353  161.7719 H   0  0  0  0  0  0  0  0  0  0  0  0
  153.4487  140.8839  160.3959 H   0  0  0  0  0  0  0  0  0  0  0  0
  151.9314  139.5635  155.8876 H   0  0  0  0  0  0  0  0  0  0  0  0
  150.0482  142.8862  155.7937 H   0  0  0  0  0  0  0  0  0  0  0  0
  151.0561  142.0175  154.6604 H   0  0  0  0  0  0  0  0  0  0  0  0
  148.7240  140.7344  156.1678 H   0  0  0  0  0  0  0  0  0  0  0  0
  150.3123  139.9163  153.9878 H   0  0  0  0  0  0  0  0  0  0  0  0
  148.8289  142.1462  153.4660 H   0  0  0  0  0  0  0  0  0  0  0  0
  147.8151  140.7371  153.6445 H   0  0  0  0  0  0  0  0  0  0  0  0
  146.3894  143.1242  153.0059 H   0  0  0  0  0  0  0  0  0  0  0  0
  145.5913  141.7079  153.6626 H   0  0  0  0  0  0  0  0  0  0  0  0
  145.4741  144.5554  154.8180 H   0  0  0  0  0  0  0  0  0  0  0  0
  144.1725  143.7092  154.0039 H   0  0  0  0  0  0  0  0  0  0  0  0
  146.1869  143.7689  156.9655 H   0  0  0  0  0  0  0  0  0  0  0  0
  145.9677  142.0962  158.8124 H   0  0  0  0  0  0  0  0  0  0  0  0
  144.6807  141.2807  157.9255 H   0  0  0  0  0  0  0  0  0  0  0  0
  144.4421  142.9236  158.5143 H   0  0  0  0  0  0  0  0  0  0  0  0
  146.3415  140.8628  155.9813 H   0  0  0  0  0  0  0  0  0  0  0  0
  147.6209  141.7464  156.7962 H   0  0  0  0  0  0  0  0  0  0  0  0
  150.4304  143.9358  157.8562 H   0  0  0  0  0  0  0  0  0  0  0  0
  150.4666  145.5298  159.5939 H   0  0  0  0  0  0  0  0  0  0  0  0
  151.9438  145.5833  160.5533 H   0  0  0  0  0  0  0  0  0  0  0  0
  150.4932  144.8004  161.1987 H   0  0  0  0  0  0  0  0  0  0  0  0
  147.6559  143.2862  155.0179 H   0  0  0  0  0  0  0  0  0  0  0  0
  1  2  1  0  0  0  0
  1 23  1  0  0  0  0
  1 24  1  0  0  0  0
  1 25  1  0  0  0  0
  2 21  1  0  0  0  0
  2  3  2  0  0  0  0
  3  4  1  0  0  0  0
  3 26  1  0  0  0  0
  4 19  2  0  0  0  0
  4  5  1  0  0  0  0
  5  6  2  0  0  0  0
  6  7  1  0  0  0  0
  6 27  1  0  0  0  0
  7  8  1  0  0  0  0
  7 19  1  0  0  0  0
  8  9  1  0  0  0  0
  8 28  1  0  0  0  0
  8 29  1  0  0  0  0
  9 10  1  0  0  0  0
  9 11  1  0  0  0  0
  9 30  1  0  0  0  0
 10 31  1  0  0  0  0
 11 12  1  0  0  0  0
 11 32  1  0  0  0  0
 11 33  1  0  0  0  0
 12 18  1  0  0  0  0
 12 13  1  0  0  0  0
 12 48  1  0  0  0  0
 13 14  1  0  0  0  0
 13 34  1  0  0  0  0
 13 35  1  0  0  0  0
 14 15  1  0  0  0  0
 14 36  1  0  0  0  0
 14 37  1  0  0  0  0
 15 16  1  0  0  0  0
 16 17  1  0  0  0  0
 16 18  1  0  0  0  0
 16 38  1  0  0  0  0
 17 39  1  0  0  0  0
 17 40  1  0  0  0  0
 17 41  1  0  0  0  0
 18 42  1  0  0  0  0
 18 43  1  0  0  0  0
 19 20  1  0  0  0  0
 20 21  2  0  0  0  0
 20 44  1  0  0  0  0
 21 22  1  0  0  0  0
 22 45  1  0  0  0  0
 22 46  1  0  0  0  0
 22 47  1  0  0  0  0
M  CHG  1  12   1
M  END
> <s_m_source_file>
AV-unprocessed.smi

> <i_m_source_file_index>
1554

> <i_lp_mmshare_version>
43012

> <i_f3d_flags>
0

> <s_epik_input>
W0NIM11jKFtjSF0xKWMoW0NIM10pW2NIXWMoYzEyKW4oW2NIXW4yKVtDSDJdW0NASF0oW09IXSlbQ0gyXU4zW0NIMl1bQ0gyXU9bQ0BASF0oW0NIM10pW0NIMl0z

> <s_epik_cmdline>
J2VwaWtfcHl0aG9uJywgJy1waCcsICc3LjAnLCAnLXRuJywgJzgnLCAnLW1hJywgJzIwMCcsICctbWV0YWxfYmluZGluZycsICctaW1hZScsICc8aW5maWxlLm1hZT4nLCAnLW9tYWUnLCAnPG91dGZpbGUubWFlPic=

> <r_epik_Ionization_Penalty>
0.695251

> <r_epik_Ionization_Penalty_Charging>
0.608065

> <r_epik_Ionization_Penalty_Neutral>
0.0871863

> <r_epik_State_Penalty>
0.731955

> <r_epik_Charging_Adjusted_Penalty>
1.34002

> <i_epik_Tot_Q>
1

> <i_epik_Tot_abs_Q>
1

> <r_epik_Metal_State_Penalty>
0.652186

> <b_epik_Metal_Only>
0

> <s_lp_Force_Field>
OPLS_2005

> <r_lp_Energy>
20.8571

> <b_lp_Chiralities_Consistent>
1

> <s_lp_Variant>
AV-unprocessed.smi:1554-5

> <Gold.Version>
5.8.1

> <Gold.Id.Protein>
6NUR|6NUR_protein|mol2

> <Gold.PLP.Fitness>
52.9992

> <Gold.PLP.PLP>
-45.1225

> <Gold.PLP.part.hbond>
-2.0000

> <Gold.PLP.part.metal>
0.0000

> <Gold.PLP.part.buried>
-5.7691

> <Gold.PLP.part.nonpolar>
-35.3360

> <Gold.PLP.part.repulsive>
0.2502

> <Gold.PLP.ligand.clash>
0.0000

> <Gold.PLP.ligand.torsion>
0.5716

> <Gold.PLP.Chemscore.Hbond>
3.0000

> <Gold.PLP.Chemscore.CHOScore>
0.0000

> <Gold.PLP.Chemscore.Metal>
0.0000

> <Gold.Chemscore.Hbonds>
donor molecule, donor type, donor heavy atom, donor atom, acceptor molecule, acceptor atom, score
      L1  H    12    48       P1  8028  2.00
      P1  H  7997  8009       L1     5  0.76

> <Gold.PLP.Chemscore.Internal.Correction>
0.0199

> <Gold.Rescore>
     Score         DG    S(hbond)    S(metal)    S(lipo)     H(rot)  DE(clash)    DE(int)     intcor
     16.77     -17.57       0.96        0.00     120.96       2.05       0.27       0.54       ----

> <Gold.Chemscore.Fitness>
16.7698

> <Gold.Chemscore.DG>
-17.5743

> <Gold.Chemscore.ZeroCoef>
-5.4800

> <Gold.Chemscore.Hbond>
0.9585

> <Gold.Chemscore.Metal>
0.0000

> <Gold.Chemscore.Lipo>
120.9619

> <Gold.Chemscore.Internal_Hbond>
0.0000

> <Gold.Chemscore.DEClash>
0.2654

> <Gold.Chemscore.DEInternal>
0.5391

> <Gold.Chemscore.Rot>
2.0546

> <Gold.Chemscore.Internal.Correction>
   9.000000E+99

> <Gold.Chemscore.Hbonds>
donor molecule, donor type, donor heavy atom, donor atom, acceptor molecule, acceptor atom, score
      L1  H    12    48       P1  8028  0.39
      P1  H  7997  8009       L1     5  0.10

> <Gold.Chemscore.Hbond.Weighted>
-3.2014

> <Gold.Chemscore.Metal.Weighted>
-0.0000

> <Gold.Chemscore.Lipo.Weighted>
-14.1525

> <Gold.Chemscore.Internal_Hbond.Weighted>
0.0000

> <Gold.Chemscore.DEClash.Weighted>
0.2654

> <Gold.Chemscore.DEInternal.Weighted>
0.5391

> <Gold.Chemscore.Rot.Weighted>
5.2597

> <Gold.Chemscore.Internal.Correction.Weighted>
   9.000000E+99

> <Gold.Protein.RotatedTorsions>
[ 6907 6896 6895 6894 ] final  141.26 input  -60.11 | X-H torsion
[ 7974 7965 7964 7962 ] final  -11.98 input  175.53 | X-H torsion
[ 8008 7997 7996 7995 ] final  160.91 input   59.86 | X-H torsion
[ 10167 10162 10161 10158 ] final  170.98 input  -65.29 | X-H torsion
[ 10718 10713 10712 10709 ] final  157.63 input   66.30 | X-H torsion
[ 10763 10752 10751 10750 ] final  127.90 input  -60.55 | X-H torsion
[ 11005 11000 10999 10996 ] final   48.39 input  -57.11 | X-H torsion

> <Gold.Protein.ActiveResidues>
 VAL166  LYS551  ARG553  GLY616  TRP617  ASP618  TYR619  PRO620  LYS621  CYS622 
 ASP623  PHE694  ASN695  SER759  ASP760  ASP761  ALA762  ILE779  LEU786  VAL792 
 PHE793  MET794  SER795  GLU796  ALA797  LYS798  CYS799  TRP800  GLU811  SER814 

> <Gold.Protein.RotatedAtoms>
  152.2331  133.5074  159.5226 H   0  0  0  0  0  0  0  0  0  0  0  0  # atno 6907 bound_to 6896
  150.7043  134.1190  159.4037 H   0  0  0  0  0  0  0  0  0  0  0  0  # atno 6908 bound_to 6896
  151.9111  135.0338  160.0565 H   0  0  0  0  0  0  0  0  0  0  0  0  # atno 6909 bound_to 6896
  146.2168  140.2990  142.8374 H   0  0  0  0  0  0  0  0  0  0  0  0  # atno 7974 bound_to 7965
  156.2140  140.1791  156.7632 H   0  0  0  0  0  0  0  0  0  0  0  0  # atno 8008 bound_to 7997
  154.5763  140.0674  156.9068 H   0  0  0  0  0  0  0  0  0  0  0  0  # atno 8009 bound_to 7997
  155.2582  140.3334  155.4278 H   0  0  0  0  0  0  0  0  0  0  0  0  # atno 8010 bound_to 7997
  139.5034  144.3536  151.9897 H   0  0  0  0  0  0  0  0  0  0  0  0  # atno 10167 bound_to 10162
  157.1888  131.0650  151.2091 H   0  0  0  0  0  0  0  0  0  0  0  0  # atno 10718 bound_to 10713
  153.7169  135.3259  155.3258 H   0  0  0  0  0  0  0  0  0  0  0  0  # atno 10763 bound_to 10752
  154.8368  135.4490  154.1257 H   0  0  0  0  0  0  0  0  0  0  0  0  # atno 10764 bound_to 10752
  153.2366  135.6966  153.7909 H   0  0  0  0  0  0  0  0  0  0  0  0  # atno 10765 bound_to 10752
  140.1195  134.4848  155.8609 H   0  0  0  0  0  0  0  0  0  0  0  0  # atno 11005 bound_to 11000
  144.9071  140.7713  143.5830 LP  0  0  0  0  0  0  0  0  0  0  0  0  # atno 17320 bound_to 7965
  145.2919  139.1881  143.4736 LP  0  0  0  0  0  0  0  0  0  0  0  0  # atno 17321 bound_to 7965
  140.2973  144.3686  150.6070 LP  0  0  0  0  0  0  0  0  0  0  0  0  # atno 17342 bound_to 10162
  140.5901  143.2168  151.7269 LP  0  0  0  0  0  0  0  0  0  0  0  0  # atno 17343 bound_to 10162
  157.3881  130.7267  149.6677 LP  0  0  0  0  0  0  0  0  0  0  0  0  # atno 17370 bound_to 10713
  155.9714  130.4154  150.4180 LP  0  0  0  0  0  0  0  0  0  0  0  0  # atno 17371 bound_to 10713
  141.2148  133.6755  156.6861 LP  0  0  0  0  0  0  0  0  0  0  0  0  # atno 17394 bound_to 11000
  140.2984  134.8184  157.4077 LP  0  0  0  0  0  0  0  0  0  0  0  0  # atno 17395 bound_to 11000

$$$$
