AV-unprocessed.smi:3061|AV-procd|sdf|11682|dock3
  -GOLD-   2272017 83D 1   1.00000     0.00000
 Structure written by MMmdl.
 35 36  0  0  0  0  0  0  0  0  1 V2000
  151.3933  138.0633  154.7855 C   0  0  0  0  0  0  0  0  0  0  0  0
  150.5889  139.3566  154.5887 C   0  0  1  0  0  0  0  0  0  0  0  0
  149.2005  139.0788  153.9816 C   0  0  0  0  0  0  0  0  0  0  0  0
  148.3495  140.2551  154.0039 N   0  0  0  0  0  0  0  0  0  0  0  0
  147.0263  140.3656  154.1299 C   0  0  0  0  0  0  0  0  0  0  0  0
  146.5874  141.6159  154.0879 N   0  0  0  0  0  0  0  0  0  0  0  0
  147.7760  142.2697  153.9247 C   0  0  0  0  0  0  0  0  0  0  0  0
  148.8632  141.5005  153.8681 N   0  0  0  0  0  0  0  0  0  0  0  0
  150.4455  140.0491  155.8675 N   0  0  0  0  0  0  0  0  0  0  0  0
  151.4390  140.3103  156.7302 C   0  0  0  0  0  0  0  0  0  0  0  0
  152.6025  139.9476  156.5535 O   0  0  0  0  0  0  0  0  0  0  0  0
  151.0596  141.1154  157.9825 C   0  0  1  0  0  0  0  0  0  0  0  0
  152.0817  140.9128  159.1197 C   0  0  0  0  0  0  0  0  0  0  0  0
  152.7459  142.2718  159.2644 C   0  0  0  0  0  0  0  0  0  0  0  0
  153.6915  142.4757  160.0238 O   0  0  0  0  0  0  0  0  0  0  0  0
  152.1697  143.1734  158.4647 N   0  0  0  0  0  0  0  0  0  0  0  0
  152.5535  144.5732  158.3454 C   0  0  0  0  0  0  0  0  0  0  0  0
  151.0453  142.6370  157.7175 C   0  0  0  0  0  0  0  0  0  0  0  0
  151.5283  137.5386  153.8394 H   0  0  0  0  0  0  0  0  0  0  0  0
  150.8910  137.3833  155.4745 H   0  0  0  0  0  0  0  0  0  0  0  0
  152.3847  138.2737  155.1880 H   0  0  0  0  0  0  0  0  0  0  0  0
  151.1374  139.9899  153.8886 H   0  0  0  0  0  0  0  0  0  0  0  0
  149.3016  138.7590  152.9439 H   0  0  0  0  0  0  0  0  0  0  0  0
  148.7018  138.2653  154.5115 H   0  0  0  0  0  0  0  0  0  0  0  0
  146.3712  139.5150  154.2482 H   0  0  0  0  0  0  0  0  0  0  0  0
  147.8420  143.3447  153.8445 H   0  0  0  0  0  0  0  0  0  0  0  0
  149.5226  140.3898  156.0958 H   0  0  0  0  0  0  0  0  0  0  0  0
  150.0710  140.7999  158.3210 H   0  0  0  0  0  0  0  0  0  0  0  0
  151.5831  140.6515  160.0536 H   0  0  0  0  0  0  0  0  0  0  0  0
  152.8275  140.1440  158.9100 H   0  0  0  0  0  0  0  0  0  0  0  0
  152.4454  145.0820  159.3038 H   0  0  0  0  0  0  0  0  0  0  0  0
  151.9304  145.0909  157.6155 H   0  0  0  0  0  0  0  0  0  0  0  0
  153.5923  144.6591  158.0253 H   0  0  0  0  0  0  0  0  0  0  0  0
  151.1356  142.8877  156.6588 H   0  0  0  0  0  0  0  0  0  0  0  0
  150.1208  143.0856  158.0834 H   0  0  0  0  0  0  0  0  0  0  0  0
  1  2  1  0  0  0  0
  1 19  1  0  0  0  0
  1 20  1  0  0  0  0
  1 21  1  0  0  0  0
  2  3  1  0  0  0  0
  2  9  1  0  0  0  0
  2 22  1  0  0  0  0
  3  4  1  0  0  0  0
  3 23  1  0  0  0  0
  3 24  1  0  0  0  0
  4  8  1  0  0  0  0
  4  5  1  0  0  0  0
  5  6  2  0  0  0  0
  5 25  1  0  0  0  0
  6  7  1  0  0  0  0
  7  8  2  0  0  0  0
  7 26  1  0  0  0  0
  9 10  1  0  0  0  0
  9 27  1  0  0  0  0
 10 11  2  0  0  0  0
 10 12  1  0  0  0  0
 12 18  1  0  0  0  0
 12 13  1  0  0  0  0
 12 28  1  0  0  0  0
 13 14  1  0  0  0  0
 13 29  1  0  0  0  0
 13 30  1  0  0  0  0
 14 15  2  0  0  0  0
 14 16  1  0  0  0  0
 16 17  1  0  0  0  0
 16 18  1  0  0  0  0
 17 31  1  0  0  0  0
 17 32  1  0  0  0  0
 17 33  1  0  0  0  0
 18 34  1  0  0  0  0
 18 35  1  0  0  0  0
M  END
> <s_m_source_file>
AV-unprocessed.smi

> <i_m_source_file_index>
3061

> <i_lp_mmshare_version>
43012

> <i_f3d_flags>
0

> <s_epik_input>
bjFbY0hdbltjSF1uMVtDSDJdW0NAQEhdKFtDSDNdKVtOSF1DKD1PKVtDQEBIXTJbQ0gyXUMoPU8pTihbQ0gzXSlbQ0gyXTI=

> <s_epik_cmdline>
J2VwaWtfcHl0aG9uJywgJy1waCcsICc3LjAnLCAnLXRuJywgJzgnLCAnLW1hJywgJzIwMCcsICctbWV0YWxfYmluZGluZycsICctaW1hZScsICc8aW5maWxlLm1hZT4nLCAnLW9tYWUnLCAnPG91dGZpbGUubWFlPic=

> <r_lp_tautomer_probability>
1

> <r_epik_Ionization_Penalty>
4.97611e-05

> <r_epik_Ionization_Penalty_Charging>
0

> <r_epik_Ionization_Penalty_Neutral>
4.97611e-05

> <r_epik_State_Penalty>
-0

> <r_epik_Charging_Adjusted_Penalty>
0

> <i_epik_Tot_Q>
0

> <i_epik_Tot_abs_Q>
0

> <r_epik_Metal_State_Penalty>
-0

> <b_epik_Metal_Only>
0

> <s_lp_Force_Field>
OPLS_2005

> <r_lp_Energy>
11.8838

> <b_lp_Chiralities_Consistent>
1

> <s_lp_Variant>
AV-unprocessed.smi:3061-4

> <Gold.Version>
5.8.1

> <Gold.Id.Protein>
6NUR|6NUR_protein|mol2

> <Gold.PLP.Fitness>
42.0647

> <Gold.PLP.PLP>
-37.1996

> <Gold.PLP.part.hbond>
-2.0000

> <Gold.PLP.part.metal>
0.0000

> <Gold.PLP.part.buried>
-2.3220

> <Gold.PLP.part.nonpolar>
-32.1652

> <Gold.PLP.part.repulsive>
0.4069

> <Gold.PLP.ligand.clash>
0.0000

> <Gold.PLP.ligand.torsion>
1.1613

> <Gold.PLP.Chemscore.Hbond>
1.5227

> <Gold.PLP.Chemscore.CHOScore>
0.8661

> <Gold.PLP.Chemscore.Metal>
0.0000

> <Gold.Chemscore.Hbonds>
donor molecule, donor type, donor heavy atom, donor atom, acceptor molecule, acceptor atom, score
      P1  H  7997  8009       L1    11  1.00
      P1  H  8011  8017       L1     8  0.63
      L1  C     7    26       P1  8028  0.85

> <Gold.PLP.Chemscore.Internal.Correction>
0.0214

> <Gold.Rescore>
     Score         DG    S(hbond)    S(metal)    S(lipo)     H(rot)  DE(clash)    DE(int)     intcor
      7.37      -9.84       1.09        0.00      59.19       2.42       0.08       2.39       ----

> <Gold.Chemscore.Fitness>
7.3683

> <Gold.Chemscore.DG>
-9.8426

> <Gold.Chemscore.ZeroCoef>
-5.4800

> <Gold.Chemscore.Hbond>
1.0872

> <Gold.Chemscore.Metal>
0.0000

> <Gold.Chemscore.Lipo>
59.1949

> <Gold.Chemscore.Internal_Hbond>
0.0000

> <Gold.Chemscore.DEClash>
0.0816

> <Gold.Chemscore.DEInternal>
2.3927

> <Gold.Chemscore.Rot>
2.4197

> <Gold.Chemscore.Internal.Correction>
   9.000000E+99

> <Gold.Chemscore.Hbonds>
donor molecule, donor type, donor heavy atom, donor atom, acceptor molecule, acceptor atom, score
      P1  H  7997  8009       L1    11  0.99
      P1  H  8011  8017       L1     8  0.12

> <Gold.Chemscore.Hbond.Weighted>
-3.6313

> <Gold.Chemscore.Metal.Weighted>
-0.0000

> <Gold.Chemscore.Lipo.Weighted>
-6.9258

> <Gold.Chemscore.Internal_Hbond.Weighted>
0.0000

> <Gold.Chemscore.DEClash.Weighted>
0.0816

> <Gold.Chemscore.DEInternal.Weighted>
2.3927

> <Gold.Chemscore.Rot.Weighted>
6.1945

> <Gold.Chemscore.Internal.Correction.Weighted>
   9.000000E+99

> <Gold.Protein.RotatedTorsions>
[ 6907 6896 6895 6894 ] final   20.07 input  -60.11 | X-H torsion
[ 7974 7965 7964 7962 ] final  -92.56 input  175.53 | X-H torsion
[ 8008 7997 7996 7995 ] final -158.56 input   59.86 | X-H torsion
[ 10167 10162 10161 10158 ] final -126.70 input  -65.29 | X-H torsion
[ 10718 10713 10712 10709 ] final  154.70 input   66.30 | X-H torsion
[ 10763 10752 10751 10750 ] final -141.38 input  -60.55 | X-H torsion
[ 11005 11000 10999 10996 ] final   -6.61 input  -57.11 | X-H torsion

> <Gold.Protein.ActiveResidues>
 VAL166  LYS551  ARG553  GLY616  TRP617  ASP618  TYR619  PRO620  LYS621  CYS622 
 ASP623  PHE694  ASN695  SER759  ASP760  ASP761  ALA762  ILE779  LEU786  VAL792 
 PHE793  MET794  SER795  GLU796  ALA797  LYS798  CYS799  TRP800  GLU811  SER814 

> <Gold.Protein.RotatedAtoms>
  151.8907  135.0417  160.0497 H   0  0  0  0  0  0  0  0  0  0  0  0  # atno 6907 bound_to 6896
  152.2438  133.5153  159.5294 H   0  0  0  0  0  0  0  0  0  0  0  0  # atno 6908 bound_to 6896
  150.7062  134.0969  159.3994 H   0  0  0  0  0  0  0  0  0  0  0  0  # atno 6909 bound_to 6896
  145.3982  140.9535  143.2302 H   0  0  0  0  0  0  0  0  0  0  0  0  # atno 7974 bound_to 7965
  155.7494  140.0824  157.2208 H   0  0  0  0  0  0  0  0  0  0  0  0  # atno 8008 bound_to 7997
  154.4013  140.1563  156.2762 H   0  0  0  0  0  0  0  0  0  0  0  0  # atno 8009 bound_to 7997
  155.8945  140.3413  155.5983 H   0  0  0  0  0  0  0  0  0  0  0  0  # atno 8010 bound_to 7997
  139.9686  143.5870  152.2420 H   0  0  0  0  0  0  0  0  0  0  0  0  # atno 10167 bound_to 10162
  157.2282  131.0733  151.1870 H   0  0  0  0  0  0  0  0  0  0  0  0  # atno 10718 bound_to 10713
  154.8547  135.3526  154.5859 H   0  0  0  0  0  0  0  0  0  0  0  0  # atno 10763 bound_to 10752
  153.6469  135.6996  153.5227 H   0  0  0  0  0  0  0  0  0  0  0  0  # atno 10764 bound_to 10752
  153.2926  135.4230  155.1138 H   0  0  0  0  0  0  0  0  0  0  0  0  # atno 10765 bound_to 10752
  140.7039  133.8966  155.8702 H   0  0  0  0  0  0  0  0  0  0  0  0  # atno 11005 bound_to 11000
  144.8392  139.5499  143.6908 LP  0  0  0  0  0  0  0  0  0  0  0  0  # atno 17320 bound_to 7965
  146.2765  139.6765  142.9259 LP  0  0  0  0  0  0  0  0  0  0  0  0  # atno 17321 bound_to 7965
  139.6498  144.7660  151.2170 LP  0  0  0  0  0  0  0  0  0  0  0  0  # atno 17342 bound_to 10162
  140.7529  143.6179  150.8541 LP  0  0  0  0  0  0  0  0  0  0  0  0  # atno 17343 bound_to 10162
  157.3506  130.7080  149.6438 LP  0  0  0  0  0  0  0  0  0  0  0  0  # atno 17370 bound_to 10713
  155.9677  130.4253  150.4650 LP  0  0  0  0  0  0  0  0  0  0  0  0  # atno 17371 bound_to 10713
  141.0141  134.0980  157.4191 LP  0  0  0  0  0  0  0  0  0  0  0  0  # atno 17394 bound_to 11000
  139.8889  135.0101  156.6650 LP  0  0  0  0  0  0  0  0  0  0  0  0  # atno 17395 bound_to 11000

$$$$
