AV-unprocessed.smi:1435|AV-procd|sdf|5858|dock8
  -GOLD-   22720 5533D 1   1.00000     0.00000
 Structure written by MMmdl.
 44 45  0  0  0  0  0  0  0  0  2 V2000
  146.1599  136.8974  155.1488 O   0  0  0  0  0  0  0  0  0  0  0  0
  146.6469  135.8938  155.6696 C   0  0  0  0  0  0  0  0  0  0  0  0
  147.6074  136.0319  156.8519 C   0  0  0  0  0  0  0  0  0  0  0  0
  146.9048  136.5374  158.1243 C   0  0  0  0  0  0  0  0  0  0  0  0
  147.8825  136.1522  159.6457 S   0  0  0  0  0  0  0  0  0  0  0  0
  149.1036  135.4389  159.2412 O   0  0  0  0  0  0  0  0  0  0  0  0
  148.0022  137.3854  160.4392 O   0  0  0  0  0  0  0  0  0  0  0  0
  146.7689  134.9653  160.5354 C   0  0  0  0  0  0  0  0  0  0  0  0
  145.4860  135.6468  161.0291 C   0  0  0  0  0  0  0  0  0  0  0  0
  145.8017  136.1972  162.4282 C   0  0  0  0  0  0  0  0  0  0  0  0
  147.1122  135.5331  162.8756 C   0  0  0  0  0  0  0  0  0  0  0  0
  147.4203  134.4623  161.8262 C   0  0  0  0  0  0  0  0  0  0  0  0
  146.3988  134.6467  155.2423 N   0  0  0  0  0  0  0  0  0  0  0  0
  145.5839  134.3115  154.0817 C   0  0  0  0  0  0  0  0  0  0  0  0
  146.4089  133.5720  153.0151 C   0  0  0  0  0  0  0  0  0  0  0  0
  145.6167  133.3289  151.7458 C   0  0  0  0  0  0  0  0  0  0  0  0
  146.1751  132.5908  150.6791 C   0  0  0  0  0  0  0  0  0  0  0  0
  145.4121  132.3785  149.5119 C   0  0  0  0  0  0  0  0  0  0  0  0
  144.1079  132.9094  149.4382 C   0  0  0  0  0  0  0  0  0  0  0  0
  143.6071  133.6099  150.4794 N   0  3  0  0  0  0  0  0  0  0  0  0
  144.3056  133.8350  151.6140 C   0  0  0  0  0  0  0  0  0  0  0  0
  148.0365  135.0484  157.0445 H   0  0  0  0  0  0  0  0  0  0  0  0
  148.4426  136.6854  156.5958 H   0  0  0  0  0  0  0  0  0  0  0  0
  146.7273  137.6120  158.0800 H   0  0  0  0  0  0  0  0  0  0  0  0
  145.9332  136.0545  158.2252 H   0  0  0  0  0  0  0  0  0  0  0  0
  146.5557  134.1419  159.8534 H   0  0  0  0  0  0  0  0  0  0  0  0
  145.1243  136.4215  160.3537 H   0  0  0  0  0  0  0  0  0  0  0  0
  144.6954  134.8998  161.1101 H   0  0  0  0  0  0  0  0  0  0  0  0
  145.9198  137.2812  162.4015 H   0  0  0  0  0  0  0  0  0  0  0  0
  144.9882  135.9768  163.1202 H   0  0  0  0  0  0  0  0  0  0  0  0
  147.9117  136.2747  162.8924 H   0  0  0  0  0  0  0  0  0  0  0  0
  147.0405  135.1110  163.8784 H   0  0  0  0  0  0  0  0  0  0  0  0
  146.9513  133.5232  162.1227 H   0  0  0  0  0  0  0  0  0  0  0  0
  148.4890  134.2726  161.7218 H   0  0  0  0  0  0  0  0  0  0  0  0
  146.8414  133.8806  155.7294 H   0  0  0  0  0  0  0  0  0  0  0  0
  144.7575  133.6838  154.4161 H   0  0  0  0  0  0  0  0  0  0  0  0
  145.1392  135.2169  153.6647 H   0  0  0  0  0  0  0  0  0  0  0  0
  147.3038  134.1433  152.7638 H   0  0  0  0  0  0  0  0  0  0  0  0
  146.7582  132.6160  153.4076 H   0  0  0  0  0  0  0  0  0  0  0  0
  147.1759  132.1904  150.7535 H   0  0  0  0  0  0  0  0  0  0  0  0
  145.8218  131.8162  148.6854 H   0  0  0  0  0  0  0  0  0  0  0  0
  143.4550  132.7953  148.5851 H   0  0  0  0  0  0  0  0  0  0  0  0
  143.7978  134.4082  152.3765 H   0  0  0  0  0  0  0  0  0  0  0  0
  142.6610  133.9848  150.4054 H   0  0  0  0  0  0  0  0  0  0  0  0
  1  2  2  0  0  0  0
  2  3  1  0  0  0  0
  2 13  1  0  0  0  0
  3  4  1  0  0  0  0
  3 22  1  0  0  0  0
  3 23  1  0  0  0  0
  4  5  1  0  0  0  0
  4 24  1  0  0  0  0
  4 25  1  0  0  0  0
  5  6  2  0  0  0  0
  5  7  2  0  0  0  0
  5  8  1  0  0  0  0
  8 12  1  0  0  0  0
  8  9  1  0  0  0  0
  8 26  1  0  0  0  0
  9 10  1  0  0  0  0
  9 27  1  0  0  0  0
  9 28  1  0  0  0  0
 10 11  1  0  0  0  0
 10 29  1  0  0  0  0
 10 30  1  0  0  0  0
 11 12  1  0  0  0  0
 11 31  1  0  0  0  0
 11 32  1  0  0  0  0
 12 33  1  0  0  0  0
 12 34  1  0  0  0  0
 13 14  1  0  0  0  0
 13 35  1  0  0  0  0
 14 15  1  0  0  0  0
 14 36  1  0  0  0  0
 14 37  1  0  0  0  0
 15 16  1  0  0  0  0
 15 38  1  0  0  0  0
 15 39  1  0  0  0  0
 16 21  1  0  0  0  0
 16 17  2  0  0  0  0
 17 18  1  0  0  0  0
 17 40  1  0  0  0  0
 18 19  2  0  0  0  0
 18 41  1  0  0  0  0
 19 20  1  0  0  0  0
 19 42  1  0  0  0  0
 20 21  2  0  0  0  0
 20 44  1  0  0  0  0
 21 43  1  0  0  0  0
M  CHG  1  20   1
M  END
> <s_m_source_file>
AV-unprocessed.smi

> <i_m_source_file_index>
1435

> <i_lp_mmshare_version>
43012

> <i_f3d_flags>
0

> <s_epik_input>
W0NIMl0xW0NIMl1bQ0gyXVtDSDJdW0NIXTFTKD1PKSg9TylbQ0gyXVtDSDJdQyg9TylbTkhdW0NIMl1bQ0gyXWMyW2NIXVtjSF1bY0hdbltjSF0y

> <s_epik_cmdline>
J2VwaWtfcHl0aG9uJywgJy1waCcsICc3LjAnLCAnLXRuJywgJzgnLCAnLW1hJywgJzIwMCcsICctbWV0YWxfYmluZGluZycsICctaW1hZScsICc8aW5maWxlLm1hZT4nLCAnLW9tYWUnLCAnPG91dGZpbGUubWFlPic=

> <r_epik_Ionization_Penalty>
2.2792

> <r_epik_Ionization_Penalty_Charging>
2.2792

> <r_epik_Ionization_Penalty_Neutral>
6.52611e-08

> <r_epik_State_Penalty>
2.42836

> <r_epik_Charging_Adjusted_Penalty>
4.70756

> <i_epik_Tot_Q>
1

> <i_epik_Tot_abs_Q>
1

> <r_epik_Metal_State_Penalty>
2.44099

> <b_epik_Metal_Only>
0

> <s_lp_Force_Field>
OPLS_2005

> <r_lp_Energy>
17.5712

> <b_lp_Chiralities_Consistent>
1

> <s_lp_Variant>
AV-unprocessed.smi:1435-2

> <Gold.Version>
5.8.1

> <Gold.Id.Protein>
6NUR|6NUR_protein|mol2

> <Gold.PLP.Fitness>
46.3389

> <Gold.PLP.PLP>
-33.5901

> <Gold.PLP.part.hbond>
-4.0000

> <Gold.PLP.part.metal>
0.0000

> <Gold.PLP.part.buried>
-5.4026

> <Gold.PLP.part.nonpolar>
-24.4609

> <Gold.PLP.part.repulsive>
0.0458

> <Gold.PLP.ligand.clash>
0.0000

> <Gold.PLP.ligand.torsion>
0.3849

> <Gold.PLP.Chemscore.Hbond>
4.4079

> <Gold.PLP.Chemscore.CHOScore>
0.0000

> <Gold.PLP.Chemscore.Metal>
0.0000

> <Gold.Chemscore.Hbonds>
donor molecule, donor type, donor heavy atom, donor atom, acceptor molecule, acceptor atom, score
      L1  H    20    44       P1 10186  2.00
      P1  H  6896  6909       L1     6  1.00
      P1  H  6931  6943       L1     7  0.66
      P1  H  6934  6947       L1     7  0.72

> <Gold.PLP.Chemscore.Internal.Correction>
0.2948

> <Gold.Rescore>
     Score         DG    S(hbond)    S(metal)    S(lipo)     H(rot)  DE(clash)    DE(int)     intcor
     20.60     -21.00       3.33        0.00      84.40       2.14       0.01       0.38       ----

> <Gold.Chemscore.Fitness>
20.5997

> <Gold.Chemscore.DG>
-20.9951

> <Gold.Chemscore.ZeroCoef>
-5.4800

> <Gold.Chemscore.Hbond>
3.3296

> <Gold.Chemscore.Metal>
0.0000

> <Gold.Chemscore.Lipo>
84.3985

> <Gold.Chemscore.Internal_Hbond>
0.0000

> <Gold.Chemscore.DEClash>
0.0106

> <Gold.Chemscore.DEInternal>
0.3848

> <Gold.Chemscore.Rot>
2.1408

> <Gold.Chemscore.Internal.Correction>
   9.000000E+99

> <Gold.Chemscore.Hbonds>
donor molecule, donor type, donor heavy atom, donor atom, acceptor molecule, acceptor atom, score
      L1  H    20    44       P1 10186  0.91
      P1  H  6896  6909       L1     6  1.00
      P1  H  6931  6943       L1     7  0.64
      P1  H  6934  6947       L1     7  0.72

> <Gold.Chemscore.Hbond.Weighted>
-11.1209

> <Gold.Chemscore.Metal.Weighted>
-0.0000

> <Gold.Chemscore.Lipo.Weighted>
-9.8746

> <Gold.Chemscore.Internal_Hbond.Weighted>
0.0000

> <Gold.Chemscore.DEClash.Weighted>
0.0106

> <Gold.Chemscore.DEInternal.Weighted>
0.3848

> <Gold.Chemscore.Rot.Weighted>
5.4805

> <Gold.Chemscore.Internal.Correction.Weighted>
   9.000000E+99

> <Gold.Protein.RotatedTorsions>
[ 6907 6896 6895 6894 ] final   42.27 input  -60.11 | X-H torsion
[ 7974 7965 7964 7962 ] final  158.82 input  175.53 | X-H torsion
[ 8008 7997 7996 7995 ] final   55.94 input   59.86 | X-H torsion
[ 10167 10162 10161 10158 ] final  129.80 input  -65.29 | X-H torsion
[ 10718 10713 10712 10709 ] final   99.48 input   66.30 | X-H torsion
[ 10763 10752 10751 10750 ] final  -45.55 input  -60.55 | X-H torsion
[ 11005 11000 10999 10996 ] final  158.45 input  -57.11 | X-H torsion

> <Gold.Protein.ActiveResidues>
 VAL166  LYS551  ARG553  GLY616  TRP617  ASP618  TYR619  PRO620  LYS621  CYS622 
 ASP623  PHE694  ASN695  SER759  ASP760  ASP761  ALA762  ILE779  LEU786  VAL792 
 PHE793  MET794  SER795  GLU796  ALA797  LYS798  CYS799  TRP800  GLU811  SER814 

> <Gold.Protein.RotatedAtoms>
  152.2058  134.8547  160.0502 H   0  0  0  0  0  0  0  0  0  0  0  0  # atno 6907 bound_to 6896
  151.9383  133.3625  159.3964 H   0  0  0  0  0  0  0  0  0  0  0  0  # atno 6908 bound_to 6896
  150.6965  134.4390  159.5327 H   0  0  0  0  0  0  0  0  0  0  0  0  # atno 6909 bound_to 6896
  144.7824  139.7531  143.6254 H   0  0  0  0  0  0  0  0  0  0  0  0  # atno 7974 bound_to 7965
  155.5093  140.3476  155.4385 H   0  0  0  0  0  0  0  0  0  0  0  0  # atno 8008 bound_to 7997
  156.0860  140.1398  156.9680 H   0  0  0  0  0  0  0  0  0  0  0  0  # atno 8009 bound_to 7997
  154.4607  140.0936  156.6861 H   0  0  0  0  0  0  0  0  0  0  0  0  # atno 8010 bound_to 7997
  139.5460  144.6774  151.4471 H   0  0  0  0  0  0  0  0  0  0  0  0  # atno 10167 bound_to 10162
  157.6875  131.0671  150.4955 H   0  0  0  0  0  0  0  0  0  0  0  0  # atno 10718 bound_to 10713
  154.0304  135.6657  153.4780 H   0  0  0  0  0  0  0  0  0  0  0  0  # atno 10763 bound_to 10752
  153.0543  135.5065  154.7938 H   0  0  0  0  0  0  0  0  0  0  0  0  # atno 10764 bound_to 10752
  154.6882  135.3056  154.9482 H   0  0  0  0  0  0  0  0  0  0  0  0  # atno 10765 bound_to 10752
  140.1866  134.8437  157.2864 H   0  0  0  0  0  0  0  0  0  0  0  0  # atno 11005 bound_to 11000
  146.2039  139.5351  142.9725 LP  0  0  0  0  0  0  0  0  0  0  0  0  # atno 17320 bound_to 7965
  145.6013  141.0355  143.2017 LP  0  0  0  0  0  0  0  0  0  0  0  0  # atno 17321 bound_to 7965
  140.6708  143.8297  150.6997 LP  0  0  0  0  0  0  0  0  0  0  0  0  # atno 17342 bound_to 10162
  140.1721  143.4186  152.1994 LP  0  0  0  0  0  0  0  0  0  0  0  0  # atno 17343 bound_to 10162
  156.5279  130.4178  149.6216 LP  0  0  0  0  0  0  0  0  0  0  0  0  # atno 17370 bound_to 10713
  156.3095  130.7221  151.2111 LP  0  0  0  0  0  0  0  0  0  0  0  0  # atno 17371 bound_to 10713
  140.2207  134.4027  155.7567 LP  0  0  0  0  0  0  0  0  0  0  0  0  # atno 17394 bound_to 11000
  141.2225  133.7164  156.8485 LP  0  0  0  0  0  0  0  0  0  0  0  0  # atno 17395 bound_to 11000

$$$$
