AV-unprocessed.smi:2861|AV-procd|sdf|11007|dock8
  -GOLD-   2272015463D 1   1.00000     0.00000
 Structure written by MMmdl.
 33 35  0  0  0  0  0  0  0  0  1 V2000
  151.8481  136.5272  156.1623 O   0  0  0  0  0  0  0  0  0  0  0  0
  151.2308  136.7108  155.1121 C   0  0  0  0  0  0  0  0  0  0  0  0
  151.5062  137.9504  154.2532 C   0  0  0  0  0  0  0  0  0  0  0  0
  151.0836  139.2070  154.9603 C   0  0  0  0  0  0  0  0  0  0  0  0
  150.0713  140.0607  154.5943 C   0  0  0  0  0  0  0  0  0  0  0  0
  149.9215  141.4056  155.6920 S   0  0  0  0  0  0  0  0  0  0  0  0
  151.2566  140.7435  156.6331 C   0  0  0  0  0  0  0  0  0  0  0  0
  151.7701  141.3625  157.8119 N   0  0  0  0  0  0  0  0  0  0  0  0
  151.3235  142.6872  158.2260 C   0  0  0  0  0  0  0  0  0  0  0  0
  152.2436  143.1004  159.3799 C   0  0  0  0  0  0  0  0  0  0  0  0
  152.9453  141.8167  159.8186 C   0  0  0  0  0  0  0  0  0  0  0  0
  152.6606  140.8493  158.6819 C   0  0  0  0  0  0  0  0  0  0  0  0
  153.2034  139.7463  158.6241 O   0  0  0  0  0  0  0  0  0  0  0  0
  151.7449  139.6049  156.1268 N   0  0  0  0  0  0  0  0  0  0  0  0
  150.2907  135.8707  154.6536 N   0  0  0  0  0  0  0  0  0  0  0  0
  149.8751  134.6632  155.2913 C   0  0  0  0  0  0  0  0  0  0  0  0
  149.1652  133.6299  154.4433 C   0  0  0  0  0  0  0  0  0  0  0  0
  148.3887  134.4290  155.4532 C   0  0  0  0  0  0  0  0  0  0  0  0
  152.5670  138.0010  154.0030 H   0  0  0  0  0  0  0  0  0  0  0  0
  150.9727  137.8383  153.3085 H   0  0  0  0  0  0  0  0  0  0  0  0
  149.4115  139.9833  153.7431 H   0  0  0  0  0  0  0  0  0  0  0  0
  151.3766  143.4031  157.4046 H   0  0  0  0  0  0  0  0  0  0  0  0
  150.2865  142.6278  158.5598 H   0  0  0  0  0  0  0  0  0  0  0  0
  152.9815  143.8240  159.0307 H   0  0  0  0  0  0  0  0  0  0  0  0
  151.6880  143.5647  160.1954 H   0  0  0  0  0  0  0  0  0  0  0  0
  154.0167  141.9607  159.9617 H   0  0  0  0  0  0  0  0  0  0  0  0
  152.5175  141.4251  160.7421 H   0  0  0  0  0  0  0  0  0  0  0  0
  149.8313  136.1055  153.7855 H   0  0  0  0  0  0  0  0  0  0  0  0
  150.5102  134.2719  156.0851 H   0  0  0  0  0  0  0  0  0  0  0  0
  149.0020  133.8576  153.3915 H   0  0  0  0  0  0  0  0  0  0  0  0
  149.3528  132.5821  154.6688 H   0  0  0  0  0  0  0  0  0  0  0  0
  148.0577  133.9154  156.3536 H   0  0  0  0  0  0  0  0  0  0  0  0
  147.7086  135.1901  155.0753 H   0  0  0  0  0  0  0  0  0  0  0  0
  1  2  2  0  0  0  0
  2  3  1  0  0  0  0
  2 15  1  0  0  0  0
  3  4  1  0  0  0  0
  3 19  1  0  0  0  0
  3 20  1  0  0  0  0
  4 14  1  0  0  0  0
  4  5  2  0  0  0  0
  5  6  1  0  0  0  0
  5 21  1  0  0  0  0
  6  7  1  0  0  0  0
  7  8  1  0  0  0  0
  7 14  2  0  0  0  0
  8 12  1  0  0  0  0
  8  9  1  0  0  0  0
  9 10  1  0  0  0  0
  9 22  1  0  0  0  0
  9 23  1  0  0  0  0
 10 11  1  0  0  0  0
 10 24  1  0  0  0  0
 10 25  1  0  0  0  0
 11 12  1  0  0  0  0
 11 26  1  0  0  0  0
 11 27  1  0  0  0  0
 12 13  2  0  0  0  0
 15 16  1  0  0  0  0
 15 28  1  0  0  0  0
 16 18  1  0  0  0  0
 16 17  1  0  0  0  0
 16 29  1  0  0  0  0
 17 18  1  0  0  0  0
 17 30  1  0  0  0  0
 17 31  1  0  0  0  0
 18 32  1  0  0  0  0
 18 33  1  0  0  0  0
M  END
> <s_m_source_file>
AV-unprocessed.smi

> <i_m_source_file_index>
2861

> <i_lp_mmshare_version>
43012

> <i_f3d_flags>
0

> <s_epik_input>
W0NIMl0xW0NIMl1bQ0hdMVtOSF1DKD1PKVtDSDJdYzJbY0hdc2MobjIpTjNbQ0gyXVtDSDJdW0NIMl1DMz1P

> <s_epik_cmdline>
J2VwaWtfcHl0aG9uJywgJy1waCcsICc3LjAnLCAnLXRuJywgJzgnLCAnLW1hJywgJzIwMCcsICctbWV0YWxfYmluZGluZycsICctaW1hZScsICc8aW5maWxlLm1hZT4nLCAnLW9tYWUnLCAnPG91dGZpbGUubWFlPic=

> <r_lp_tautomer_probability>
1

> <r_epik_Ionization_Penalty>
2.96745e-05

> <r_epik_Ionization_Penalty_Charging>
0

> <r_epik_Ionization_Penalty_Neutral>
2.96745e-05

> <r_epik_State_Penalty>
-0

> <r_epik_Charging_Adjusted_Penalty>
0

> <i_epik_Tot_Q>
0

> <i_epik_Tot_abs_Q>
0

> <r_epik_Metal_State_Penalty>
-0

> <b_epik_Metal_Only>
0

> <s_lp_Force_Field>
OPLS_2005

> <r_lp_Energy>
30.3521

> <b_lp_Chiralities_Consistent>
1

> <s_lp_Variant>
AV-unprocessed.smi:2861-1

> <Gold.Version>
5.8.1

> <Gold.Id.Protein>
6NUR|6NUR_protein|mol2

> <Gold.PLP.Fitness>
46.9705

> <Gold.PLP.PLP>
-35.7129

> <Gold.PLP.part.hbond>
-3.9981

> <Gold.PLP.part.metal>
0.0000

> <Gold.PLP.part.buried>
-0.6060

> <Gold.PLP.part.nonpolar>
-30.7464

> <Gold.PLP.part.repulsive>
0.0980

> <Gold.PLP.ligand.clash>
0.0000

> <Gold.PLP.ligand.torsion>
0.3137

> <Gold.PLP.Chemscore.Hbond>
3.0000

> <Gold.PLP.Chemscore.CHOScore>
0.9478

> <Gold.PLP.Chemscore.Metal>
0.0000

> <Gold.Chemscore.Hbonds>
donor molecule, donor type, donor heavy atom, donor atom, acceptor molecule, acceptor atom, score
      L1  H    15    28       P1  7948  0.83
      P1  H  7997  8010       L1    13  0.63
      P1  H 10752 10764       L1     1  0.45
      L1  C     5    21       P1  7957  0.85

> <Gold.PLP.Chemscore.Internal.Correction>
0.0417

> <Gold.Rescore>
     Score         DG    S(hbond)    S(metal)    S(lipo)     H(rot)  DE(clash)    DE(int)     intcor
     16.17     -17.81       2.29        0.00      72.71       1.49       0.03       1.61       ----

> <Gold.Chemscore.Fitness>
16.1698

> <Gold.Chemscore.DG>
-17.8083

> <Gold.Chemscore.ZeroCoef>
-5.4800

> <Gold.Chemscore.Hbond>
2.2875

> <Gold.Chemscore.Metal>
0.0000

> <Gold.Chemscore.Lipo>
72.7135

> <Gold.Chemscore.Internal_Hbond>
0.0000

> <Gold.Chemscore.DEClash>
0.0334

> <Gold.Chemscore.DEInternal>
1.6051

> <Gold.Chemscore.Rot>
1.4920

> <Gold.Chemscore.Internal.Correction>
   9.000000E+99

> <Gold.Chemscore.Hbonds>
donor molecule, donor type, donor heavy atom, donor atom, acceptor molecule, acceptor atom, score
      L1  H    15    28       P1  7948  0.18
      P1  H  7997  8010       L1    13  0.15
      P1  H 10752 10764       L1     1  0.01

> <Gold.Chemscore.Hbond.Weighted>
-7.6402

> <Gold.Chemscore.Metal.Weighted>
-0.0000

> <Gold.Chemscore.Lipo.Weighted>
-8.5075

> <Gold.Chemscore.Internal_Hbond.Weighted>
0.0000

> <Gold.Chemscore.DEClash.Weighted>
0.0334

> <Gold.Chemscore.DEInternal.Weighted>
1.6051

> <Gold.Chemscore.Rot.Weighted>
3.8194

> <Gold.Chemscore.Internal.Correction.Weighted>
   9.000000E+99

> <Gold.Protein.RotatedTorsions>
[ 6907 6896 6895 6894 ] final   36.03 input  -60.11 | X-H torsion
[ 7974 7965 7964 7962 ] final   19.89 input  175.53 | X-H torsion
[ 8008 7997 7996 7995 ] final   45.44 input   59.86 | X-H torsion
[ 10167 10162 10161 10158 ] final   56.73 input  -65.29 | X-H torsion
[ 10718 10713 10712 10709 ] final  154.43 input   66.30 | X-H torsion
[ 10763 10752 10751 10750 ] final  -22.29 input  -60.55 | X-H torsion
[ 11005 11000 10999 10996 ] final -179.54 input  -57.11 | X-H torsion

> <Gold.Protein.ActiveResidues>
 VAL166  LYS551  ARG553  GLY616  TRP617  ASP618  TYR619  PRO620  LYS621  CYS622 
 ASP623  PHE694  ASN695  SER759  ASP760  ASP761  ALA762  ILE779  LEU786  VAL792 
 PHE793  MET794  SER795  GLU796  ALA797  LYS798  CYS799  TRP800  GLU811  SER814 

> <Gold.Protein.RotatedAtoms>
  152.1243  134.9182  160.0561 H   0  0  0  0  0  0  0  0  0  0  0  0  # atno 6907 bound_to 6896
  152.0311  133.3933  159.4306 H   0  0  0  0  0  0  0  0  0  0  0  0  # atno 6908 bound_to 6896
  150.6851  134.3440  159.4924 H   0  0  0  0  0  0  0  0  0  0  0  0  # atno 6909 bound_to 6896
  146.2132  139.8248  142.8672 H   0  0  0  0  0  0  0  0  0  0  0  0  # atno 7974 bound_to 7965
  155.3359  140.3405  155.4239 H   0  0  0  0  0  0  0  0  0  0  0  0  # atno 8008 bound_to 7997
  156.1838  140.1673  156.8260 H   0  0  0  0  0  0  0  0  0  0  0  0  # atno 8009 bound_to 7997
  154.5363  140.0734  156.8416 H   0  0  0  0  0  0  0  0  0  0  0  0  # atno 8010 bound_to 7997
  140.2056  144.3943  150.6510 H   0  0  0  0  0  0  0  0  0  0  0  0  # atno 10167 bound_to 10162
  157.2317  131.0740  151.1849 H   0  0  0  0  0  0  0  0  0  0  0  0  # atno 10718 bound_to 10713
  153.6496  135.6981  153.5213 H   0  0  0  0  0  0  0  0  0  0  0  0  # atno 10763 bound_to 10752
  153.2717  135.4213  155.0993 H   0  0  0  0  0  0  0  0  0  0  0  0  # atno 10764 bound_to 10752
  154.8479  135.3580  154.6041 H   0  0  0  0  0  0  0  0  0  0  0  0  # atno 10765 bound_to 10752
  140.4174  134.6636  157.4646 H   0  0  0  0  0  0  0  0  0  0  0  0  # atno 11005 bound_to 11000
  145.3059  141.0207  143.3582 LP  0  0  0  0  0  0  0  0  0  0  0  0  # atno 17320 bound_to 7965
  144.8972  139.4697  143.6650 LP  0  0  0  0  0  0  0  0  0  0  0  0  # atno 17321 bound_to 7965
  140.6360  143.2195  151.6394 LP  0  0  0  0  0  0  0  0  0  0  0  0  # atno 17342 bound_to 10162
  139.5200  144.3237  152.0888 LP  0  0  0  0  0  0  0  0  0  0  0  0  # atno 17343 bound_to 10162
  157.3471  130.7063  149.6417 LP  0  0  0  0  0  0  0  0  0  0  0  0  # atno 17370 bound_to 10713
  155.9675  130.4263  150.4693 LP  0  0  0  0  0  0  0  0  0  0  0  0  # atno 17371 bound_to 10713
  140.0224  134.6527  155.9221 LP  0  0  0  0  0  0  0  0  0  0  0  0  # atno 17394 bound_to 11000
  141.1797  133.6545  156.4971 LP  0  0  0  0  0  0  0  0  0  0  0  0  # atno 17395 bound_to 11000

$$$$
