AV-unprocessed.smi:1680|AV-procd|sdf|6739|dock1
  -GOLD-   22720 7493D 1   1.00000     0.00000
 Structure written by MMmdl.
 37 38  0  0  0  0  0  0  0  0  2 V2000
  151.7642  145.6463  160.1926 C   0  0  0  0  0  0  0  0  0  0  0  0
  152.2963  144.2542  160.5392 C   0  0  0  0  0  0  0  0  0  0  0  0
  152.5761  144.0180  161.7148 O   0  0  0  0  0  0  0  0  0  0  0  0
  152.4406  143.3370  159.5536 N   0  0  0  0  0  0  0  0  0  0  0  0
  152.0608  143.5854  158.1604 C   0  0  0  0  0  0  0  0  0  0  0  0
  150.9000  142.6440  157.7847 C   0  0  0  0  0  0  0  0  0  0  0  0
  151.3030  141.2460  157.9620 N   0  0  0  0  0  0  0  0  0  0  0  0
  150.2008  140.3692  157.5661 C   0  0  0  0  0  0  0  0  0  0  0  0
  150.6218  138.8948  157.3953 C   0  0  0  0  0  0  0  0  0  0  0  0
  149.5920  137.9752  157.8721 N   0  0  0  0  0  0  0  0  0  0  0  0
  149.7359  137.0548  158.8368 C   0  0  0  0  0  0  0  0  0  0  0  0
  150.8171  136.9315  159.4172 O   0  0  0  0  0  0  0  0  0  0  0  0
  148.6157  136.3339  159.0718 N   0  5  0  0  0  0  0  0  0  0  0  0
  148.2396  136.0706  160.3341 C   0  0  0  0  0  0  0  0  0  0  0  0
  148.3102  136.9894  161.3109 N   0  0  0  0  0  0  0  0  0  0  0  0
  147.8774  136.5129  162.5410 N   0  0  0  0  0  0  0  0  0  0  0  0
  147.4965  135.2381  162.4615 C   0  0  0  0  0  0  0  0  0  0  0  0
  147.6361  134.5026  160.8787 S   0  0  0  0  0  0  0  0  0  0  0  0
  151.7087  141.0120  159.3531 C   0  0  0  0  0  0  0  0  0  0  0  0
  152.8742  141.9472  159.7275 C   0  0  0  0  0  0  0  0  0  0  0  0
  152.4222  146.1456  159.4808 H   0  0  0  0  0  0  0  0  0  0  0  0
  151.7063  146.2692  161.0859 H   0  0  0  0  0  0  0  0  0  0  0  0
  150.7629  145.5814  159.7663 H   0  0  0  0  0  0  0  0  0  0  0  0
  151.7632  144.6195  157.9828 H   0  0  0  0  0  0  0  0  0  0  0  0
  152.9200  143.4051  157.5126 H   0  0  0  0  0  0  0  0  0  0  0  0
  150.0227  142.8625  158.3957 H   0  0  0  0  0  0  0  0  0  0  0  0
  150.6192  142.8139  156.7447 H   0  0  0  0  0  0  0  0  0  0  0  0
  149.3920  140.4476  158.2941 H   0  0  0  0  0  0  0  0  0  0  0  0
  149.7923  140.7141  156.6150 H   0  0  0  0  0  0  0  0  0  0  0  0
  150.9230  138.6658  156.3732 H   0  0  0  0  0  0  0  0  0  0  0  0
  151.5088  138.7160  158.0029 H   0  0  0  0  0  0  0  0  0  0  0  0
  148.6888  138.0348  157.4255 H   0  0  0  0  0  0  0  0  0  0  0  0
  147.1353  134.7265  163.3411 H   0  0  0  0  0  0  0  0  0  0  0  0
  150.8638  141.1731  160.0245 H   0  0  0  0  0  0  0  0  0  0  0  0
  152.0321  139.9809  159.4864 H   0  0  0  0  0  0  0  0  0  0  0  0
  153.7319  141.7539  159.0810 H   0  0  0  0  0  0  0  0  0  0  0  0
  153.2111  141.7181  160.7371 H   0  0  0  0  0  0  0  0  0  0  0  0
  1  2  1  0  0  0  0
  1 21  1  0  0  0  0
  1 22  1  0  0  0  0
  1 23  1  0  0  0  0
  2  3  2  0  0  0  0
  2  4  1  0  0  0  0
  4 20  1  0  0  0  0
  4  5  1  0  0  0  0
  5  6  1  0  0  0  0
  5 24  1  0  0  0  0
  5 25  1  0  0  0  0
  6  7  1  0  0  0  0
  6 26  1  0  0  0  0
  6 27  1  0  0  0  0
  7  8  1  0  0  0  0
  7 19  1  0  0  0  0
  8  9  1  0  0  0  0
  8 28  1  0  0  0  0
  8 29  1  0  0  0  0
  9 10  1  0  0  0  0
  9 30  1  0  0  0  0
  9 31  1  0  0  0  0
 10 11  1  0  0  0  0
 10 32  1  0  0  0  0
 11 12  2  0  0  0  0
 11 13  1  0  0  0  0
 13 14  1  0  0  0  0
 14 18  1  0  0  0  0
 14 15  2  0  0  0  0
 15 16  1  0  0  0  0
 16 17  2  0  0  0  0
 17 18  1  0  0  0  0
 17 33  1  0  0  0  0
 19 20  1  0  0  0  0
 19 34  1  0  0  0  0
 19 35  1  0  0  0  0
 20 36  1  0  0  0  0
 20 37  1  0  0  0  0
M  CHG  1  13  -1
M  END
> <s_m_source_file>
AV-unprocessed.smi

> <i_m_source_file_index>
1680

> <i_lp_mmshare_version>
43012

> <i_f3d_flags>
0

> <s_epik_input>
W0NIM11DKD1PKU4xW0NIMl1bQ0gyXU4oW0NIMl1bQ0gyXTEpW0NIMl1bQ0gyXVtOSF1DKD1PKVtOSF1jMm5uW2NIXXMy

> <s_epik_cmdline>
J2VwaWtfcHl0aG9uJywgJy1waCcsICc3LjAnLCAnLXRuJywgJzgnLCAnLW1hJywgJzIwMCcsICctbWV0YWxfYmluZGluZycsICctaW1hZScsICc8aW5maWxlLm1hZT4nLCAnLW9tYWUnLCAnPG91dGZpbGUubWFlPic=

> <r_lp_tautomer_probability>
1

> <r_epik_Ionization_Penalty>
3.80493

> <r_epik_Ionization_Penalty_Charging>
3.53258

> <r_epik_Ionization_Penalty_Neutral>
0.272353

> <r_epik_State_Penalty>
3.75006

> <r_epik_Charging_Adjusted_Penalty>
7.28264

> <i_epik_Tot_Q>
-1

> <i_epik_Tot_abs_Q>
1

> <r_epik_Metal_State_Penalty>
0.749383

> <b_epik_Metal_Only>
1

> <s_lp_Force_Field>
OPLS_2005

> <r_lp_Energy>
35.6067

> <b_lp_Chiralities_Consistent>
1

> <s_lp_Variant>
AV-unprocessed.smi:1680-3

> <Gold.Version>
5.8.1

> <Gold.Id.Protein>
6NUR|6NUR_protein|mol2

> <Gold.PLP.Fitness>
45.7549

> <Gold.PLP.PLP>
-39.9508

> <Gold.PLP.part.hbond>
-3.6637

> <Gold.PLP.part.metal>
0.0000

> <Gold.PLP.part.buried>
-5.2328

> <Gold.PLP.part.nonpolar>
-31.6744

> <Gold.PLP.part.repulsive>
0.2648

> <Gold.PLP.ligand.clash>
0.0000

> <Gold.PLP.ligand.torsion>
1.0287

> <Gold.PLP.Chemscore.Hbond>
2.5720

> <Gold.PLP.Chemscore.CHOScore>
0.0000

> <Gold.PLP.Chemscore.Metal>
0.0000

> <Gold.Chemscore.Hbonds>
donor molecule, donor type, donor heavy atom, donor atom, acceptor molecule, acceptor atom, score
      P1  H  6896  6908       L1    12  1.00
      P1  H  6931  6943       L1    15  0.75
      P1  H  6934  6947       L1    15  0.13

> <Gold.PLP.Chemscore.Internal.Correction>
0.1455

> <Gold.Rescore>
     Score         DG    S(hbond)    S(metal)    S(lipo)     H(rot)  DE(clash)    DE(int)     intcor
     15.96     -17.02       2.40        0.00      68.71       1.77       0.03       1.04       ----

> <Gold.Chemscore.Fitness>
15.9609

> <Gold.Chemscore.DG>
-17.0241

> <Gold.Chemscore.ZeroCoef>
-5.4800

> <Gold.Chemscore.Hbond>
2.4029

> <Gold.Chemscore.Metal>
0.0000

> <Gold.Chemscore.Lipo>
68.7065

> <Gold.Chemscore.Internal_Hbond>
0.0000

> <Gold.Chemscore.DEClash>
0.0253

> <Gold.Chemscore.DEInternal>
1.0379

> <Gold.Chemscore.Rot>
1.7657

> <Gold.Chemscore.Internal.Correction>
   9.000000E+99

> <Gold.Chemscore.Hbonds>
donor molecule, donor type, donor heavy atom, donor atom, acceptor molecule, acceptor atom, score
      P1  H  6896  6908       L1    12  0.78
      P1  H  6931  6943       L1    15  0.09
      P1  H  6934  6947       L1    15  0.07

> <Gold.Chemscore.Hbond.Weighted>
-8.0256

> <Gold.Chemscore.Metal.Weighted>
-0.0000

> <Gold.Chemscore.Lipo.Weighted>
-8.0387

> <Gold.Chemscore.Internal_Hbond.Weighted>
0.0000

> <Gold.Chemscore.DEClash.Weighted>
0.0253

> <Gold.Chemscore.DEInternal.Weighted>
1.0379

> <Gold.Chemscore.Rot.Weighted>
4.5201

> <Gold.Chemscore.Internal.Correction.Weighted>
   9.000000E+99

> <Gold.Protein.RotatedTorsions>
[ 6907 6896 6895 6894 ] final -146.61 input  -60.11 | X-H torsion
[ 7974 7965 7964 7962 ] final  -35.67 input  175.53 | X-H torsion
[ 8008 7997 7996 7995 ] final  -62.36 input   59.86 | X-H torsion
[ 10167 10162 10161 10158 ] final   58.32 input  -65.29 | X-H torsion
[ 10718 10713 10712 10709 ] final -128.09 input   66.30 | X-H torsion
[ 10763 10752 10751 10750 ] final  -54.99 input  -60.55 | X-H torsion
[ 11005 11000 10999 10996 ] final  -98.55 input  -57.11 | X-H torsion

> <Gold.Protein.ActiveResidues>
 VAL166  LYS551  ARG553  GLY616  TRP617  ASP618  TYR619  PRO620  LYS621  CYS622 
 ASP623  PHE694  ASN695  SER759  ASP760  ASP761  ALA762  ILE779  LEU786  VAL792 
 PHE793  MET794  SER795  GLU796  ALA797  LYS798  CYS799  TRP800  GLU811  SER814 

> <Gold.Protein.RotatedAtoms>
  151.1440  133.4952  159.2596 H   0  0  0  0  0  0  0  0  0  0  0  0  # atno 6907 bound_to 6896
  151.1624  135.0279  159.8726 H   0  0  0  0  0  0  0  0  0  0  0  0  # atno 6908 bound_to 6896
  152.5463  134.1313  159.8493 H   0  0  0  0  0  0  0  0  0  0  0  0  # atno 6909 bound_to 6896
  146.0727  140.6187  142.8945 H   0  0  0  0  0  0  0  0  0  0  0  0  # atno 7974 bound_to 7965
  154.4495  140.0998  156.6574 H   0  0  0  0  0  0  0  0  0  0  0  0  # atno 8008 bound_to 7997
  155.5330  140.3482  155.4412 H   0  0  0  0  0  0  0  0  0  0  0  0  # atno 8009 bound_to 7997
  156.0651  140.1335  156.9885 H   0  0  0  0  0  0  0  0  0  0  0  0  # atno 8010 bound_to 7997
  140.1884  144.4110  150.6582 H   0  0  0  0  0  0  0  0  0  0  0  0  # atno 10167 bound_to 10162
  156.1918  130.6800  151.0433 H   0  0  0  0  0  0  0  0  0  0  0  0  # atno 10718 bound_to 10713
  154.1836  135.6439  153.5041 H   0  0  0  0  0  0  0  0  0  0  0  0  # atno 10763 bound_to 10752
  153.0053  135.5412  154.6488 H   0  0  0  0  0  0  0  0  0  0  0  0  # atno 10764 bound_to 10752
  154.5859  135.2929  155.0658 H   0  0  0  0  0  0  0  0  0  0  0  0  # atno 10765 bound_to 10752
  141.1340  133.8254  157.0855 H   0  0  0  0  0  0  0  0  0  0  0  0  # atno 11005 bound_to 11000
  144.7241  140.4470  143.6986 LP  0  0  0  0  0  0  0  0  0  0  0  0  # atno 17320 bound_to 7965
  145.6363  139.1543  143.2941 LP  0  0  0  0  0  0  0  0  0  0  0  0  # atno 17321 bound_to 7965
  140.6472  143.2216  151.6159 LP  0  0  0  0  0  0  0  0  0  0  0  0  # atno 17342 bound_to 10162
  139.5266  144.3041  152.1049 LP  0  0  0  0  0  0  0  0  0  0  0  0  # atno 17343 bound_to 10162
  157.6933  131.0802  150.7042 LP  0  0  0  0  0  0  0  0  0  0  0  0  # atno 17370 bound_to 10713
  156.7099  130.4648  149.5550 LP  0  0  0  0  0  0  0  0  0  0  0  0  # atno 17371 bound_to 10713
  140.0425  134.9847  157.0988 LP  0  0  0  0  0  0  0  0  0  0  0  0  # atno 17394 bound_to 11000
  140.4113  134.1978  155.7163 LP  0  0  0  0  0  0  0  0  0  0  0  0  # atno 17395 bound_to 11000

$$$$
