AV-unprocessed.smi:54|AV-procd|sdf|540|dock3
  -GOLD-   2262016423D 1   1.00000     0.00000
 Structure written by MMmdl.
 44 46  0  0  0  0  0  0  0  0  1 V2000
  145.2729  135.9560  161.5116 C   0  0  0  0  0  0  0  0  0  0  0  0
  146.5893  135.2490  161.1503 C   0  0  0  0  0  0  0  0  0  0  0  0
  147.3619  134.8293  162.4112 C   0  0  0  0  0  0  0  0  0  0  0  0
  147.4557  136.1459  160.2590 C   0  0  0  0  0  0  0  0  0  0  0  0
  147.9031  137.2225  160.6559 O   0  0  0  0  0  0  0  0  0  0  0  0
  147.7073  135.6372  158.9220 N   0  0  0  0  0  0  0  0  0  0  0  0
  148.4247  136.2259  157.9365 C   0  0  0  0  0  0  0  0  0  0  0  0
  147.8764  136.9481  156.9697 N   0  0  0  0  0  0  0  0  0  0  0  0
  148.7659  137.4510  156.0617 C   0  0  0  0  0  0  0  0  0  0  0  0
  150.1342  137.2814  156.0682 C   0  0  0  0  0  0  0  0  0  0  0  0
  150.7034  137.9360  154.9816 N   0  0  0  0  0  0  0  0  0  0  0  0
  149.6848  138.4633  154.3609 C   0  0  0  0  0  0  0  0  0  0  0  0
  148.4691  138.2148  154.9544 N   0  0  0  0  0  0  0  0  0  0  0  0
  147.1002  138.6415  154.5331 C   0  0  1  0  0  0  0  0  0  0  0  0
  146.6968  139.6772  155.3804 O   0  0  0  0  0  0  0  0  0  0  0  0
  146.4596  140.8735  154.6448 C   0  0  1  0  0  0  0  0  0  0  0  0
  146.8020  142.1152  155.4865 C   0  0  0  0  0  0  0  0  0  0  0  0
  148.1897  142.1665  155.7404 O   0  0  0  0  0  0  0  0  0  0  0  0
  147.2125  140.6987  153.3181 C   0  0  1  0  0  0  0  0  0  0  0  0
  148.5554  141.1367  153.4131 O   0  0  0  0  0  0  0  0  0  0  0  0
  147.1547  139.1947  153.1005 C   0  0  2  0  0  0  0  0  0  0  0  0
  146.0016  138.8291  152.3691 O   0  0  0  0  0  0  0  0  0  0  0  0
  150.7440  136.5093  157.1120 C   0  0  0  0  0  0  0  0  0  0  0  0
  151.9358  136.2581  157.2769 O   0  0  0  0  0  0  0  0  0  0  0  0
  149.8003  136.0085  158.0189 N   0  0  0  0  0  0  0  0  0  0  0  0
  146.4862  137.7477  154.6537 H   0  0  0  0  0  0  0  0  0  0  0  0
  145.3904  140.8813  154.4259 H   0  0  0  0  0  0  0  0  0  0  0  0
  146.7401  141.2551  152.5075 H   0  0  0  0  0  0  0  0  0  0  0  0
  148.0230  138.8141  152.5596 H   0  0  0  0  0  0  0  0  0  0  0  0
  144.7271  136.2595  160.6176 H   0  0  0  0  0  0  0  0  0  0  0  0
  145.4485  136.8485  162.1138 H   0  0  0  0  0  0  0  0  0  0  0  0
  144.6207  135.2958  162.0838 H   0  0  0  0  0  0  0  0  0  0  0  0
  146.3444  134.3457  160.5896 H   0  0  0  0  0  0  0  0  0  0  0  0
  148.3013  134.3372  162.1563 H   0  0  0  0  0  0  0  0  0  0  0  0
  146.7786  134.1291  163.0096 H   0  0  0  0  0  0  0  0  0  0  0  0
  147.5959  135.6875  163.0428 H   0  0  0  0  0  0  0  0  0  0  0  0
  147.2912  134.7436  158.7058 H   0  0  0  0  0  0  0  0  0  0  0  0
  149.7963  139.0400  153.4542 H   0  0  0  0  0  0  0  0  0  0  0  0
  146.5205  143.0186  154.9451 H   0  0  0  0  0  0  0  0  0  0  0  0
  146.2526  142.1271  156.4281 H   0  0  0  0  0  0  0  0  0  0  0  0
  148.5279  142.9810  155.4002 H   0  0  0  0  0  0  0  0  0  0  0  0
  149.0171  140.8514  152.6391 H   0  0  0  0  0  0  0  0  0  0  0  0
  145.4538  139.5930  152.2709 H   0  0  0  0  0  0  0  0  0  0  0  0
  150.1596  135.4503  158.7792 H   0  0  0  0  0  0  0  0  0  0  0  0
  1  2  1  0  0  0  0
  1 30  1  0  0  0  0
  1 31  1  0  0  0  0
  1 32  1  0  0  0  0
  2  3  1  0  0  0  0
  2  4  1  0  0  0  0
  2 33  1  0  0  0  0
  3 34  1  0  0  0  0
  3 35  1  0  0  0  0
  3 36  1  0  0  0  0
  4  5  2  0  0  0  0
  4  6  1  0  0  0  0
  6 37  1  0  0  0  0
  6  7  1  0  0  0  0
  7 25  1  0  0  0  0
  7  8  2  0  0  0  0
  8  9  1  0  0  0  0
  9 13  1  0  0  0  0
  9 10  2  0  0  0  0
 10 11  1  0  0  0  0
 10 23  1  0  0  0  0
 11 12  2  0  0  0  0
 12 13  1  0  0  0  0
 12 38  1  0  0  0  0
 13 14  1  0  0  0  0
 14 26  1  0  0  0  0
 14 21  1  0  0  0  0
 14 15  1  0  0  0  0
 15 16  1  0  0  0  0
 16 27  1  0  0  0  0
 16 17  1  0  0  0  0
 16 19  1  0  0  0  0
 17 18  1  0  0  0  0
 17 39  1  0  0  0  0
 17 40  1  0  0  0  0
 18 41  1  0  0  0  0
 19 28  1  0  0  0  0
 19 20  1  0  0  0  0
 19 21  1  0  0  0  0
 20 42  1  0  0  0  0
 21 29  1  0  0  0  0
 21 22  1  0  0  0  0
 22 43  1  0  0  0  0
 23 24  2  0  0  0  0
 23 25  1  0  0  0  0
 25 44  1  0  0  0  0
M  END
> <s_m_source_file>
AV-unprocessed.smi

> <i_m_source_file_index>
54

> <i_lp_mmshare_version>
43012

> <i_f3d_flags>
0

> <s_epik_input>
W0NIM11bQ0hdKFtDSDNdKUMoPU8pW05IXWMobjEpW25IXWMoPU8pYyhjMTIpbltjSF1uMltDQEBIXTNPW0NASF0oW0NIMl1bT0hdKVtDQEBIXShbT0hdKVtDQEhdM1tPSF0=

> <s_epik_cmdline>
J2VwaWtfcHl0aG9uJywgJy1waCcsICc3LjAnLCAnLXRuJywgJzgnLCAnLW1hJywgJzIwMCcsICctbWV0YWxfYmluZGluZycsICctaW1hZScsICc8aW5maWxlLm1hZT4nLCAnLW9tYWUnLCAnPG91dGZpbGUubWFlPic=

> <r_lp_tautomer_probability>
0.85571

> <r_epik_Ionization_Penalty>
0.0316551

> <r_epik_Ionization_Penalty_Charging>
0.0316043

> <r_epik_Ionization_Penalty_Neutral>
5.07097e-05

> <r_epik_State_Penalty>
3.15494e-07

> <r_epik_Charging_Adjusted_Penalty>
0.0316047

> <i_epik_Tot_Q>
0

> <i_epik_Tot_abs_Q>
0

> <r_epik_Metal_State_Penalty>
0.421206

> <b_epik_Metal_Only>
0

> <s_epik_Chemistry_Notes>
This compound contains an acetal/aminal-like group ( X-CH(R)-Y where X, Y are N, S, or O) that may be acid/base labile, releasing an aldehyde.

> <s_lp_Force_Field>
OPLS_2005

> <r_lp_Energy>
34.69

> <b_lp_Chiralities_Consistent>
1

> <s_lp_Variant>
AV-unprocessed.smi:54-12

> <Gold.Version>
5.8.1

> <Gold.Id.Protein>
6NUR|6NUR_protein|mol2

> <Gold.PLP.Fitness>
43.2590

> <Gold.PLP.PLP>
-28.5910

> <Gold.PLP.part.hbond>
-6.0000

> <Gold.PLP.part.metal>
0.0000

> <Gold.PLP.part.buried>
-5.7874

> <Gold.PLP.part.nonpolar>
-17.7203

> <Gold.PLP.part.repulsive>
0.3104

> <Gold.PLP.ligand.clash>
0.0000

> <Gold.PLP.ligand.torsion>
1.1030

> <Gold.PLP.Chemscore.Hbond>
4.6160

> <Gold.PLP.Chemscore.CHOScore>
1.0000

> <Gold.PLP.Chemscore.Metal>
0.0000

> <Gold.Chemscore.Hbonds>
donor molecule, donor type, donor heavy atom, donor atom, acceptor molecule, acceptor atom, score
      L1  H    18    41       P1  8028  0.98
      L1  H    20    42       P1  7957  1.00
      L1  H    22    43       P1 10175  1.00
      P1  H  6931  6943       L1     5  0.80
      P1  H  6934  6947       L1     5  0.80
      L1  C    12    38       P1  7957  1.00

> <Gold.PLP.Chemscore.Internal.Correction>
0.0261

> <Gold.Rescore>
     Score         DG    S(hbond)    S(metal)    S(lipo)     H(rot)  DE(clash)    DE(int)     intcor
     13.92     -15.67       4.55        0.00      45.81       4.05       0.03       1.73       ----

> <Gold.Chemscore.Fitness>
13.9156

> <Gold.Chemscore.DG>
-15.6682

> <Gold.Chemscore.ZeroCoef>
-5.4800

> <Gold.Chemscore.Hbond>
4.5492

> <Gold.Chemscore.Metal>
0.0000

> <Gold.Chemscore.Lipo>
45.8139

> <Gold.Chemscore.Internal_Hbond>
0.0000

> <Gold.Chemscore.DEClash>
0.0263

> <Gold.Chemscore.DEInternal>
1.7264

> <Gold.Chemscore.Rot>
4.0493

> <Gold.Chemscore.Internal.Correction>
   9.000000E+99

> <Gold.Chemscore.Hbonds>
donor molecule, donor type, donor heavy atom, donor atom, acceptor molecule, acceptor atom, score
      L1  H    18    41       P1  8028  0.93
      L1  H    20    42       P1  7957  1.00
      L1  H    22    43       P1 10175  0.91
      P1  H  6931  6943       L1     5  0.78
      P1  H  6934  6947       L1     5  0.79

> <Gold.Chemscore.Hbond.Weighted>
-15.1942

> <Gold.Chemscore.Metal.Weighted>
-0.0000

> <Gold.Chemscore.Lipo.Weighted>
-5.3602

> <Gold.Chemscore.Internal_Hbond.Weighted>
0.0000

> <Gold.Chemscore.DEClash.Weighted>
0.0263

> <Gold.Chemscore.DEInternal.Weighted>
1.7264

> <Gold.Chemscore.Rot.Weighted>
10.3662

> <Gold.Chemscore.Internal.Correction.Weighted>
   9.000000E+99

> <Gold.Protein.RotatedTorsions>
[ 6907 6896 6895 6894 ] final -165.68 input  -60.11 | X-H torsion
[ 7974 7965 7964 7962 ] final  135.49 input  175.53 | X-H torsion
[ 8008 7997 7996 7995 ] final  -68.11 input   59.86 | X-H torsion
[ 10167 10162 10161 10158 ] final -146.88 input  -65.29 | X-H torsion
[ 10718 10713 10712 10709 ] final -139.83 input   66.30 | X-H torsion
[ 10763 10752 10751 10750 ] final  -15.01 input  -60.55 | X-H torsion
[ 11005 11000 10999 10996 ] final  -36.57 input  -57.11 | X-H torsion

> <Gold.Protein.ActiveResidues>
 VAL166  LYS551  ARG553  GLY616  TRP617  ASP618  TYR619  PRO620  LYS621  CYS622 
 ASP623  PHE694  ASN695  SER759  ASP760  ASP761  ALA762  ILE779  LEU786  VAL792 
 PHE793  MET794  SER795  GLU796  ALA797  LYS798  CYS799  TRP800  GLU811  SER814 

> <Gold.Protein.RotatedAtoms>
  151.4316  133.3668  159.2769 H   0  0  0  0  0  0  0  0  0  0  0  0  # atno 6907 bound_to 6896
  150.9221  134.8640  159.7506 H   0  0  0  0  0  0  0  0  0  0  0  0  # atno 6908 bound_to 6896
  152.4987  134.4255  159.9546 H   0  0  0  0  0  0  0  0  0  0  0  0  # atno 6909 bound_to 6896
  144.9659  139.4659  143.5457 H   0  0  0  0  0  0  0  0  0  0  0  0  # atno 7974 bound_to 7965
  154.4845  140.0879  156.7455 H   0  0  0  0  0  0  0  0  0  0  0  0  # atno 8008 bound_to 7997
  155.4385  140.3452  155.4269 H   0  0  0  0  0  0  0  0  0  0  0  0  # atno 8009 bound_to 7997
  156.1241  140.1482  156.9150 H   0  0  0  0  0  0  0  0  0  0  0  0  # atno 8010 bound_to 7997
  139.7673  143.8289  152.2618 H   0  0  0  0  0  0  0  0  0  0  0  0  # atno 10167 bound_to 10162
  156.3152  130.7504  151.1589 H   0  0  0  0  0  0  0  0  0  0  0  0  # atno 10718 bound_to 10713
  153.5369  135.7014  153.5656 H   0  0  0  0  0  0  0  0  0  0  0  0  # atno 10763 bound_to 10752
  153.3639  135.3962  155.1738 H   0  0  0  0  0  0  0  0  0  0  0  0  # atno 10764 bound_to 10752
  154.8678  135.3795  154.4870 H   0  0  0  0  0  0  0  0  0  0  0  0  # atno 10765 bound_to 10752
  140.9885  133.7017  156.1808 H   0  0  0  0  0  0  0  0  0  0  0  0  # atno 11005 bound_to 11000
  146.3367  139.8839  142.8820 LP  0  0  0  0  0  0  0  0  0  0  0  0  # atno 17320 bound_to 7965
  145.2631  141.0084  143.3815 LP  0  0  0  0  0  0  0  0  0  0  0  0  # atno 17321 bound_to 7965
  139.8313  144.7252  150.9447 LP  0  0  0  0  0  0  0  0  0  0  0  0  # atno 17342 bound_to 10162
  140.7811  143.4067  151.1059 LP  0  0  0  0  0  0  0  0  0  0  0  0  # atno 17343 bound_to 10162
  157.7400  131.0522  150.5195 LP  0  0  0  0  0  0  0  0  0  0  0  0  # atno 17370 bound_to 10713
  156.5340  130.4192  149.6187 LP  0  0  0  0  0  0  0  0  0  0  0  0  # atno 17371 bound_to 10713
  140.7077  134.4495  157.5583 LP  0  0  0  0  0  0  0  0  0  0  0  0  # atno 17394 bound_to 11000
  139.8981  134.8620  156.2014 LP  0  0  0  0  0  0  0  0  0  0  0  0  # atno 17395 bound_to 11000

$$$$
