AV-unprocessed.smi:2442|AV-procd|sdf|9626|dock8
  -GOLD-   2272013263D 1   1.00000     0.00000
 Structure written by MMmdl.
 46 47  0  0  0  0  0  0  0  0  1 V2000
  147.2090  132.5117  153.6676 C   0  0  0  0  0  0  0  0  0  0  0  0
  147.7476  132.7944  152.3860 O   0  0  0  0  0  0  0  0  0  0  0  0
  146.7750  132.9341  151.3564 C   0  0  1  0  0  0  0  0  0  0  0  0
  146.0096  131.6053  151.1775 C   0  0  0  0  0  0  0  0  0  0  0  0
  144.8462  131.7473  150.1850 C   0  0  0  0  0  0  0  0  0  0  0  0
  143.8890  132.8664  150.6166 C   0  0  0  0  0  0  0  0  0  0  0  0
  144.6380  134.1973  150.7731 C   0  0  0  0  0  0  0  0  0  0  0  0
  145.8152  134.0771  151.7604 C   0  0  2  0  0  0  0  0  0  0  0  0
  146.5307  135.3508  151.7908 N   0  0  0  0  0  0  0  0  0  0  0  0
  145.9606  136.5619  151.8529 C   0  0  0  0  0  0  0  0  0  0  0  0
  144.7458  136.7540  151.9103 O   0  0  0  0  0  0  0  0  0  0  0  0
  146.8764  137.5410  151.8245 N   0  0  0  0  0  0  0  0  0  0  0  0
  146.5819  138.9718  151.8111 C   0  0  0  0  0  0  0  0  0  0  0  0
  146.5511  139.5843  153.2272 C   0  0  0  0  0  0  0  0  0  0  0  0
  147.9222  139.9449  153.7879 C   0  0  0  0  0  0  0  0  0  0  0  0
  148.8776  138.9253  153.9894 C   0  0  0  0  0  0  0  0  0  0  0  0
  150.1491  139.2732  154.4837 C   0  0  0  0  0  0  0  0  0  0  0  0
  150.5061  140.5388  154.7832 N   0  0  0  0  0  0  0  0  0  0  0  0
  149.5903  141.5119  154.5948 C   0  0  0  0  0  0  0  0  0  0  0  0
  148.2870  141.2773  154.1049 C   0  0  0  0  0  0  0  0  0  0  0  0
  147.3322  142.4436  153.9248 C   0  0  0  0  0  0  0  0  0  0  0  0
  148.0231  132.3899  154.3821 H   0  0  0  0  0  0  0  0  0  0  0  0
  146.6336  131.5852  153.6577 H   0  0  0  0  0  0  0  0  0  0  0  0
  146.5706  133.3181  154.0277 H   0  0  0  0  0  0  0  0  0  0  0  0
  147.2584  133.2047  150.4155 H   0  0  0  0  0  0  0  0  0  0  0  0
  146.6801  130.8198  150.8302 H   0  0  0  0  0  0  0  0  0  0  0  0
  145.6229  131.2757  152.1428 H   0  0  0  0  0  0  0  0  0  0  0  0
  145.2372  131.9623  149.1897 H   0  0  0  0  0  0  0  0  0  0  0  0
  144.3052  130.8039  150.1091 H   0  0  0  0  0  0  0  0  0  0  0  0
  143.0874  132.9746  149.8853 H   0  0  0  0  0  0  0  0  0  0  0  0
  143.4133  132.5994  151.5613 H   0  0  0  0  0  0  0  0  0  0  0  0
  145.0047  134.5181  149.7968 H   0  0  0  0  0  0  0  0  0  0  0  0
  143.9455  134.9693  151.1117 H   0  0  0  0  0  0  0  0  0  0  0  0
  145.4005  133.8560  152.7461 H   0  0  0  0  0  0  0  0  0  0  0  0
  147.5379  135.3039  151.7482 H   0  0  0  0  0  0  0  0  0  0  0  0
  147.8499  137.2776  151.7808 H   0  0  0  0  0  0  0  0  0  0  0  0
  147.3002  139.4998  151.1833 H   0  0  0  0  0  0  0  0  0  0  0  0
  145.6119  139.1138  151.3346 H   0  0  0  0  0  0  0  0  0  0  0  0
  145.9086  140.4646  153.2352 H   0  0  0  0  0  0  0  0  0  0  0  0
  146.0765  138.8767  153.9082 H   0  0  0  0  0  0  0  0  0  0  0  0
  148.6480  137.8957  153.7582 H   0  0  0  0  0  0  0  0  0  0  0  0
  150.9008  138.5139  154.6402 H   0  0  0  0  0  0  0  0  0  0  0  0
  149.9118  142.5124  154.8443 H   0  0  0  0  0  0  0  0  0  0  0  0
  147.7643  143.3668  154.3117 H   0  0  0  0  0  0  0  0  0  0  0  0
  146.3984  142.2675  154.4582 H   0  0  0  0  0  0  0  0  0  0  0  0
  147.1106  142.5989  152.8696 H   0  0  0  0  0  0  0  0  0  0  0  0
  1  2  1  0  0  0  0
  1 22  1  0  0  0  0
  1 23  1  0  0  0  0
  1 24  1  0  0  0  0
  2  3  1  0  0  0  0
  3  8  1  0  0  0  0
  3  4  1  0  0  0  0
  3 25  1  0  0  0  0
  4  5  1  0  0  0  0
  4 26  1  0  0  0  0
  4 27  1  0  0  0  0
  5  6  1  0  0  0  0
  5 28  1  0  0  0  0
  5 29  1  0  0  0  0
  6  7  1  0  0  0  0
  6 30  1  0  0  0  0
  6 31  1  0  0  0  0
  7  8  1  0  0  0  0
  7 32  1  0  0  0  0
  7 33  1  0  0  0  0
  8  9  1  0  0  0  0
  8 34  1  0  0  0  0
  9 10  1  0  0  0  0
  9 35  1  0  0  0  0
 10 11  2  0  0  0  0
 10 12  1  0  0  0  0
 12 13  1  0  0  0  0
 12 36  1  0  0  0  0
 13 14  1  0  0  0  0
 13 37  1  0  0  0  0
 13 38  1  0  0  0  0
 14 15  1  0  0  0  0
 14 39  1  0  0  0  0
 14 40  1  0  0  0  0
 15 20  1  0  0  0  0
 15 16  2  0  0  0  0
 16 17  1  0  0  0  0
 16 41  1  0  0  0  0
 17 18  2  0  0  0  0
 17 42  1  0  0  0  0
 18 19  1  0  0  0  0
 19 20  2  0  0  0  0
 19 43  1  0  0  0  0
 20 21  1  0  0  0  0
 21 44  1  0  0  0  0
 21 45  1  0  0  0  0
 21 46  1  0  0  0  0
M  END
> <s_m_source_file>
AV-unprocessed.smi

> <i_m_source_file_index>
2442

> <i_lp_mmshare_version>
43012

> <i_f3d_flags>
0

> <s_epik_input>
W0NIM11PW0NAQEhdMVtDSDJdW0NIMl1bQ0gyXVtDSDJdW0NASF0xW05IXUMoPU8pW05IXVtDSDJdW0NIMl1jMltjSF1bY0hdbltjSF1jMltDSDNd

> <s_epik_cmdline>
J2VwaWtfcHl0aG9uJywgJy1waCcsICc3LjAnLCAnLXRuJywgJzgnLCAnLW1hJywgJzIwMCcsICctbWV0YWxfYmluZGluZycsICctaW1hZScsICc8aW5maWxlLm1hZT4nLCAnLW9tYWUnLCAnPG91dGZpbGUubWFlPic=

> <r_epik_Ionization_Penalty>
0.106136

> <r_epik_Ionization_Penalty_Charging>
0

> <r_epik_Ionization_Penalty_Neutral>
0.106136

> <r_epik_State_Penalty>
0.0959393

> <r_epik_Charging_Adjusted_Penalty>
0.0959393

> <i_epik_Tot_Q>
0

> <i_epik_Tot_abs_Q>
0

> <r_epik_Metal_State_Penalty>
0.0812517

> <b_epik_Metal_Only>
0

> <s_lp_Force_Field>
OPLS_2005

> <r_lp_Energy>
10.54

> <b_lp_Chiralities_Consistent>
1

> <s_lp_Variant>
AV-unprocessed.smi:2442-4

> <Gold.Version>
5.8.1

> <Gold.Id.Protein>
6NUR|6NUR_protein|mol2

> <Gold.PLP.Fitness>
51.0538

> <Gold.PLP.PLP>
-40.1650

> <Gold.PLP.part.hbond>
-2.9252

> <Gold.PLP.part.metal>
0.0000

> <Gold.PLP.part.buried>
-1.6820

> <Gold.PLP.part.nonpolar>
-36.9244

> <Gold.PLP.part.repulsive>
1.5055

> <Gold.PLP.ligand.clash>
0.0000

> <Gold.PLP.ligand.torsion>
0.4812

> <Gold.PLP.Chemscore.Hbond>
2.9440

> <Gold.PLP.Chemscore.CHOScore>
1.0000

> <Gold.PLP.Chemscore.Metal>
0.0000

> <Gold.Chemscore.Hbonds>
donor molecule, donor type, donor heavy atom, donor atom, acceptor molecule, acceptor atom, score
      L1  H     9    35       P1  7948  0.90
      L1  H    12    36       P1  7948  0.91
      P1  H  7989  7998       L1    18  0.99
      L1  C    19    43       P1  8028  0.93

> <Gold.PLP.Chemscore.Internal.Correction>
0.0192

> <Gold.Rescore>
     Score         DG    S(hbond)    S(metal)    S(lipo)     H(rot)  DE(clash)    DE(int)     intcor
     18.21     -20.37       1.98        0.00     106.47       1.64       0.57       1.59       ----

> <Gold.Chemscore.Fitness>
18.2073

> <Gold.Chemscore.DG>
-20.3698

> <Gold.Chemscore.ZeroCoef>
-5.4800

> <Gold.Chemscore.Hbond>
1.9840

> <Gold.Chemscore.Metal>
0.0000

> <Gold.Chemscore.Lipo>
106.4684

> <Gold.Chemscore.Internal_Hbond>
0.0000

> <Gold.Chemscore.DEClash>
0.5720

> <Gold.Chemscore.DEInternal>
1.5906

> <Gold.Chemscore.Rot>
1.6380

> <Gold.Chemscore.Internal.Correction>
   9.000000E+99

> <Gold.Chemscore.Hbonds>
donor molecule, donor type, donor heavy atom, donor atom, acceptor molecule, acceptor atom, score
      L1  H     9    35       P1  7948  0.81
      L1  H    12    36       P1  7948  0.84
      P1  H  7989  7998       L1    18  0.08

> <Gold.Chemscore.Hbond.Weighted>
-6.6264

> <Gold.Chemscore.Metal.Weighted>
-0.0000

> <Gold.Chemscore.Lipo.Weighted>
-12.4568

> <Gold.Chemscore.Internal_Hbond.Weighted>
0.0000

> <Gold.Chemscore.DEClash.Weighted>
0.5720

> <Gold.Chemscore.DEInternal.Weighted>
1.5906

> <Gold.Chemscore.Rot.Weighted>
4.1934

> <Gold.Chemscore.Internal.Correction.Weighted>
   9.000000E+99

> <Gold.Protein.RotatedTorsions>
[ 6907 6896 6895 6894 ] final -133.55 input  -60.11 | X-H torsion
[ 7974 7965 7964 7962 ] final -105.78 input  175.53 | X-H torsion
[ 8008 7997 7996 7995 ] final  127.76 input   59.86 | X-H torsion
[ 10167 10162 10161 10158 ] final  -67.11 input  -65.29 | X-H torsion
[ 10718 10713 10712 10709 ] final   82.26 input   66.30 | X-H torsion
[ 10763 10752 10751 10750 ] final   77.63 input  -60.55 | X-H torsion
[ 11005 11000 10999 10996 ] final   16.63 input  -57.11 | X-H torsion

> <Gold.Protein.ActiveResidues>
 VAL166  LYS551  ARG553  GLY616  TRP617  ASP618  TYR619  PRO620  LYS621  CYS622 
 ASP623  PHE694  ASN695  SER759  ASP760  ASP761  ALA762  ILE779  LEU786  VAL792 
 PHE793  MET794  SER795  GLU796  ALA797  LYS798  CYS799  TRP800  GLU811  SER814 

> <Gold.Protein.RotatedAtoms>
  150.9754  133.6301  159.2730 H   0  0  0  0  0  0  0  0  0  0  0  0  # atno 6907 bound_to 6896
  151.3575  135.0896  159.9433 H   0  0  0  0  0  0  0  0  0  0  0  0  # atno 6908 bound_to 6896
  152.5197  133.9334  159.7646 H   0  0  0  0  0  0  0  0  0  0  0  0  # atno 6909 bound_to 6896
  145.2261  140.9153  143.3231 H   0  0  0  0  0  0  0  0  0  0  0  0  # atno 7974 bound_to 7965
  156.2899  140.2661  156.2325 H   0  0  0  0  0  0  0  0  0  0  0  0  # atno 8008 bound_to 7997
  155.0058  140.0387  157.2397 H   0  0  0  0  0  0  0  0  0  0  0  0  # atno 8009 bound_to 7997
  154.7561  140.2752  155.6257 H   0  0  0  0  0  0  0  0  0  0  0  0  # atno 8010 bound_to 7997
  140.5607  143.2313  151.6733 H   0  0  0  0  0  0  0  0  0  0  0  0  # atno 10167 bound_to 10162
  157.6853  131.0040  150.2349 H   0  0  0  0  0  0  0  0  0  0  0  0  # atno 10718 bound_to 10713
  153.0813  135.4907  154.8508 H   0  0  0  0  0  0  0  0  0  0  0  0  # atno 10763 bound_to 10752
  154.7154  135.3028  154.9134 H   0  0  0  0  0  0  0  0  0  0  0  0  # atno 10764 bound_to 10752
  153.9815  135.6789  153.4803 H   0  0  0  0  0  0  0  0  0  0  0  0  # atno 10765 bound_to 10752
  140.4450  134.1283  155.7695 H   0  0  0  0  0  0  0  0  0  0  0  0  # atno 11005 bound_to 11000
  144.9720  139.3871  143.6304 LP  0  0  0  0  0  0  0  0  0  0  0  0  # atno 17320 bound_to 7965
  146.3364  139.8822  142.8822 LP  0  0  0  0  0  0  0  0  0  0  0  0  # atno 17321 bound_to 7965
  139.5069  144.3666  152.0511 LP  0  0  0  0  0  0  0  0  0  0  0  0  # atno 17342 bound_to 10162
  140.2792  144.3878  150.6124 LP  0  0  0  0  0  0  0  0  0  0  0  0  # atno 17343 bound_to 10162
  156.2974  130.3754  149.7783 LP  0  0  0  0  0  0  0  0  0  0  0  0  # atno 17370 bound_to 10713
  156.5423  130.8305  151.3273 LP  0  0  0  0  0  0  0  0  0  0  0  0  # atno 17371 bound_to 10713
  141.1689  133.8648  157.1631 LP  0  0  0  0  0  0  0  0  0  0  0  0  # atno 17394 bound_to 11000
  140.0044  135.0014  157.0261 LP  0  0  0  0  0  0  0  0  0  0  0  0  # atno 17395 bound_to 11000

$$$$
