AV-unprocessed.smi:3333|AV-procd|sdf|12834|dock7
  -GOLD-   2272019213D 1   1.00000     0.00000
 Structure written by MMmdl.
 41 43  0  0  0  0  0  0  0  0  1 V2000
  145.7859  138.9343  157.7363 C   0  0  0  0  0  0  0  0  0  0  0  0
  145.4726  138.3207  156.3677 C   0  0  0  0  0  0  0  0  0  0  0  0
  146.2380  138.9662  155.2618 C   0  0  0  0  0  0  0  0  0  0  0  0
  147.0645  139.9998  155.4430 N   0  0  0  0  0  0  0  0  0  0  0  0
  147.6346  140.4501  154.2476 C   0  0  0  0  0  0  0  0  0  0  0  0
  148.5940  141.6053  154.2617 C   0  0  0  0  0  0  0  0  0  0  0  0
  149.8300  141.2770  155.1049 C   0  0  0  0  0  0  0  0  0  0  0  0
  150.4880  140.2616  154.8750 O   0  0  0  0  0  0  0  0  0  0  0  0
  150.1288  142.1390  156.0893 N   0  0  0  0  0  0  0  0  0  0  0  0
  151.2441  141.9976  157.0198 C   0  0  0  0  0  0  0  0  0  0  0  0
  151.1123  142.9365  158.2390 C   0  0  1  0  0  0  0  0  0  0  0  0
  152.0231  142.5269  159.4178 C   0  0  0  0  0  0  0  0  0  0  0  0
  152.8068  143.8176  159.7181 C   0  0  2  0  0  0  0  0  0  0  0  0
  151.8575  144.8727  160.3166 C   0  0  0  0  0  0  0  0  0  0  0  0
  151.0097  145.2943  159.1014 C   0  0  0  0  0  0  0  0  0  0  0  0
  151.5587  144.3957  157.9772 C   0  0  1  0  0  0  0  0  0  0  0  0
  153.0457  144.3642  158.3168 C   0  0  0  0  0  0  0  0  0  0  0  0
  147.2231  139.7343  153.1500 C   0  0  0  0  0  0  0  0  0  0  0  0
  146.0887  138.4835  153.5763 S   0  0  0  0  0  0  0  0  0  0  0  0
  145.2067  138.4483  158.5214 H   0  0  0  0  0  0  0  0  0  0  0  0
  145.5459  139.9978  157.7546 H   0  0  0  0  0  0  0  0  0  0  0  0
  146.8420  138.8242  157.9841 H   0  0  0  0  0  0  0  0  0  0  0  0
  145.6966  137.2534  156.3764 H   0  0  0  0  0  0  0  0  0  0  0  0
  144.4074  138.4146  156.1545 H   0  0  0  0  0  0  0  0  0  0  0  0
  148.8912  141.8680  153.2452 H   0  0  0  0  0  0  0  0  0  0  0  0
  148.1175  142.4920  154.6809 H   0  0  0  0  0  0  0  0  0  0  0  0
  149.5359  142.9474  156.2081 H   0  0  0  0  0  0  0  0  0  0  0  0
  151.3136  140.9598  157.3502 H   0  0  0  0  0  0  0  0  0  0  0  0
  152.1648  142.2069  156.4748 H   0  0  0  0  0  0  0  0  0  0  0  0
  150.0724  142.9248  158.5687 H   0  0  0  0  0  0  0  0  0  0  0  0
  151.4533  142.1773  160.2795 H   0  0  0  0  0  0  0  0  0  0  0  0
  152.7083  141.7280  159.1303 H   0  0  0  0  0  0  0  0  0  0  0  0
  153.7082  143.6536  160.3092 H   0  0  0  0  0  0  0  0  0  0  0  0
  151.2504  144.4695  161.1280 H   0  0  0  0  0  0  0  0  0  0  0  0
  152.4169  145.7239  160.7066 H   0  0  0  0  0  0  0  0  0  0  0  0
  149.9410  145.1526  159.2670 H   0  0  0  0  0  0  0  0  0  0  0  0
  151.1734  146.3470  158.8678 H   0  0  0  0  0  0  0  0  0  0  0  0
  151.3234  144.7673  156.9798 H   0  0  0  0  0  0  0  0  0  0  0  0
  153.5121  145.3511  158.3116 H   0  0  0  0  0  0  0  0  0  0  0  0
  153.6263  143.6929  157.6824 H   0  0  0  0  0  0  0  0  0  0  0  0
  147.5091  139.8761  152.1183 H   0  0  0  0  0  0  0  0  0  0  0  0
  1  2  1  0  0  0  0
  1 20  1  0  0  0  0
  1 21  1  0  0  0  0
  1 22  1  0  0  0  0
  2  3  1  0  0  0  0
  2 23  1  0  0  0  0
  2 24  1  0  0  0  0
  3 19  1  0  0  0  0
  3  4  2  0  0  0  0
  4  5  1  0  0  0  0
  5  6  1  0  0  0  0
  5 18  2  0  0  0  0
  6  7  1  0  0  0  0
  6 25  1  0  0  0  0
  6 26  1  0  0  0  0
  7  8  2  0  0  0  0
  7  9  1  0  0  0  0
  9 10  1  0  0  0  0
  9 27  1  0  0  0  0
 10 11  1  0  0  0  0
 10 28  1  0  0  0  0
 10 29  1  0  0  0  0
 11 16  1  0  0  0  0
 11 12  1  0  0  0  0
 11 30  1  0  0  0  0
 12 13  1  0  0  0  0
 12 31  1  0  0  0  0
 12 32  1  0  0  0  0
 13 17  1  0  0  0  0
 13 14  1  0  0  0  0
 13 33  1  0  0  0  0
 14 15  1  0  0  0  0
 14 34  1  0  0  0  0
 14 35  1  0  0  0  0
 15 16  1  0  0  0  0
 15 36  1  0  0  0  0
 15 37  1  0  0  0  0
 16 17  1  0  0  0  0
 16 38  1  0  0  0  0
 17 39  1  0  0  0  0
 17 40  1  0  0  0  0
 18 19  1  0  0  0  0
 18 41  1  0  0  0  0
M  END
> <s_m_source_file>
AV-unprocessed.smi

> <i_m_source_file_index>
3333

> <i_lp_mmshare_version>
43012

> <i_f3d_flags>
0

> <s_epik_input>
W0NIM11bQ0gyXWMxbmMoW2NIXXMxKVtDSDJdQyg9TylbTkhdW0NIMl1bQ0BIXShbQ0gyXVtDQEBIXTIzKVtDQEBIXShbQ0gyXTMpW0NIMl1bQ0gyXTI=

> <s_epik_cmdline>
J2VwaWtfcHl0aG9uJywgJy1waCcsICc3LjAnLCAnLXRuJywgJzgnLCAnLW1hJywgJzIwMCcsICctbWV0YWxfYmluZGluZycsICctaW1hZScsICc8aW5maWxlLm1hZT4nLCAnLW9tYWUnLCAnPG91dGZpbGUubWFlPic=

> <r_lp_tautomer_probability>
1

> <r_epik_Ionization_Penalty>
6.68371e-05

> <r_epik_Ionization_Penalty_Charging>
0

> <r_epik_Ionization_Penalty_Neutral>
6.68371e-05

> <r_epik_State_Penalty>
-0

> <r_epik_Charging_Adjusted_Penalty>
0

> <i_epik_Tot_Q>
0

> <i_epik_Tot_abs_Q>
0

> <r_epik_Metal_State_Penalty>
-0

> <b_epik_Metal_Only>
0

> <s_lp_Force_Field>
OPLS_2005

> <r_lp_Energy>
43.9975

> <b_lp_Chiralities_Consistent>
1

> <s_lp_Variant>
AV-unprocessed.smi:3333-4

> <Gold.Version>
5.8.1

> <Gold.Id.Protein>
6NUR|6NUR_protein|mol2

> <Gold.PLP.Fitness>
49.1879

> <Gold.PLP.PLP>
-40.7686

> <Gold.PLP.part.hbond>
-2.0000

> <Gold.PLP.part.metal>
0.0000

> <Gold.PLP.part.buried>
-4.2523

> <Gold.PLP.part.nonpolar>
-33.8417

> <Gold.PLP.part.repulsive>
0.1960

> <Gold.PLP.ligand.clash>
0.0000

> <Gold.PLP.ligand.torsion>
0.2967

> <Gold.PLP.Chemscore.Hbond>
1.9920

> <Gold.PLP.Chemscore.CHOScore>
1.0000

> <Gold.PLP.Chemscore.Metal>
0.0000

> <Gold.Chemscore.Hbonds>
donor molecule, donor type, donor heavy atom, donor atom, acceptor molecule, acceptor atom, score
      L1  H     9    27       P1  8028  1.00
      P1  H  7989  7998       L1     8  1.00
      L1  C    18    41       P1  7957  1.00

> <Gold.PLP.Chemscore.Internal.Correction>
0.0367

> <Gold.Rescore>
     Score         DG    S(hbond)    S(metal)    S(lipo)     H(rot)  DE(clash)    DE(int)     intcor
     21.06     -21.45       1.67        0.00     119.96       1.42       0.10       0.28       ----

> <Gold.Chemscore.Fitness>
21.0610

> <Gold.Chemscore.DG>
-21.4464

> <Gold.Chemscore.ZeroCoef>
-5.4800

> <Gold.Chemscore.Hbond>
1.6685

> <Gold.Chemscore.Metal>
0.0000

> <Gold.Chemscore.Lipo>
119.9631

> <Gold.Chemscore.Internal_Hbond>
0.0000

> <Gold.Chemscore.DEClash>
0.1026

> <Gold.Chemscore.DEInternal>
0.2828

> <Gold.Chemscore.Rot>
1.4227

> <Gold.Chemscore.Internal.Correction>
   9.000000E+99

> <Gold.Chemscore.Hbonds>
donor molecule, donor type, donor heavy atom, donor atom, acceptor molecule, acceptor atom, score
      L1  H     9    27       P1  8028  0.95
      P1  H  7989  7998       L1     8  0.30

> <Gold.Chemscore.Hbond.Weighted>
-5.5728

> <Gold.Chemscore.Metal.Weighted>
-0.0000

> <Gold.Chemscore.Lipo.Weighted>
-14.0357

> <Gold.Chemscore.Internal_Hbond.Weighted>
0.0000

> <Gold.Chemscore.DEClash.Weighted>
0.1026

> <Gold.Chemscore.DEInternal.Weighted>
0.2828

> <Gold.Chemscore.Rot.Weighted>
3.6421

> <Gold.Chemscore.Internal.Correction.Weighted>
   9.000000E+99

> <Gold.Protein.RotatedTorsions>
[ 6907 6896 6895 6894 ] final  -59.73 input  -60.11 | X-H torsion
[ 7974 7965 7964 7962 ] final   19.91 input  175.53 | X-H torsion
[ 8008 7997 7996 7995 ] final  168.80 input   59.86 | X-H torsion
[ 10167 10162 10161 10158 ] final   -1.15 input  -65.29 | X-H torsion
[ 10718 10713 10712 10709 ] final  153.74 input   66.30 | X-H torsion
[ 10763 10752 10751 10750 ] final -125.34 input  -60.55 | X-H torsion
[ 11005 11000 10999 10996 ] final   92.13 input  -57.11 | X-H torsion

> <Gold.Protein.ActiveResidues>
 VAL166  LYS551  ARG553  GLY616  TRP617  ASP618  TYR619  PRO620  LYS621  CYS622 
 ASP623  PHE694  ASN695  SER759  ASP760  ASP761  ALA762  ILE779  LEU786  VAL792 
 PHE793  MET794  SER795  GLU796  ALA797  LYS798  CYS799  TRP800  GLU811  SER814 

> <Gold.Protein.RotatedAtoms>
  150.7908  134.6930  159.6507 H   0  0  0  0  0  0  0  0  0  0  0  0  # atno 6907 bound_to 6896
  152.4013  134.6278  160.0077 H   0  0  0  0  0  0  0  0  0  0  0  0  # atno 6908 bound_to 6896
  151.6548  133.3282  159.3196 H   0  0  0  0  0  0  0  0  0  0  0  0  # atno 6909 bound_to 6896
  146.2131  139.8245  142.8673 H   0  0  0  0  0  0  0  0  0  0  0  0  # atno 7974 bound_to 7965
  156.1514  140.1581  156.8763 H   0  0  0  0  0  0  0  0  0  0  0  0  # atno 8008 bound_to 7997
  154.5075  140.0809  156.7960 H   0  0  0  0  0  0  0  0  0  0  0  0  # atno 8009 bound_to 7997
  155.3888  140.3409  155.4252 H   0  0  0  0  0  0  0  0  0  0  0  0  # atno 8010 bound_to 7997
  140.6798  143.6809  150.8106 H   0  0  0  0  0  0  0  0  0  0  0  0  # atno 10167 bound_to 10162
  157.2408  131.0758  151.1794 H   0  0  0  0  0  0  0  0  0  0  0  0  # atno 10718 bound_to 10713
  154.8734  135.4033  154.3252 H   0  0  0  0  0  0  0  0  0  0  0  0  # atno 10763 bound_to 10752
  153.4074  135.7020  153.6388 H   0  0  0  0  0  0  0  0  0  0  0  0  # atno 10764 bound_to 10752
  153.5105  135.3708  155.2555 H   0  0  0  0  0  0  0  0  0  0  0  0  # atno 10765 bound_to 10752
  139.8828  134.8715  156.3528 H   0  0  0  0  0  0  0  0  0  0  0  0  # atno 11005 bound_to 11000
  145.3062  141.0207  143.3580 LP  0  0  0  0  0  0  0  0  0  0  0  0  # atno 17320 bound_to 7965
  144.8969  139.4700  143.6651 LP  0  0  0  0  0  0  0  0  0  0  0  0  # atno 17321 bound_to 7965
  140.0508  143.5252  152.2674 LP  0  0  0  0  0  0  0  0  0  0  0  0  # atno 17342 bound_to 10162
  139.6113  144.7609  151.2946 LP  0  0  0  0  0  0  0  0  0  0  0  0  # atno 17343 bound_to 10162
  157.3381  130.7019  149.6365 LP  0  0  0  0  0  0  0  0  0  0  0  0  # atno 17370 bound_to 10713
  155.9670  130.4288  150.4803 LP  0  0  0  0  0  0  0  0  0  0  0  0  # atno 17371 bound_to 10713
  140.9582  133.7406  156.0365 LP  0  0  0  0  0  0  0  0  0  0  0  0  # atno 17394 bound_to 11000
  140.8022  134.3496  157.5436 LP  0  0  0  0  0  0  0  0  0  0  0  0  # atno 17395 bound_to 11000

$$$$
