AV-unprocessed.smi:2021|AV-procd|sdf|8186|dock2
  -GOLD-   2272010443D 1   1.00000     0.00000
 Structure written by MMmdl.
 40 41  0  0  0  0  0  0  0  0  2 V2000
  152.2772  142.7391  159.9623 C   0  0  0  0  0  0  0  0  0  0  0  0
  151.8580  143.3260  158.6036 C   0  0  0  0  0  0  0  0  0  0  0  0
  151.5187  144.8165  158.7603 C   0  0  0  0  0  0  0  0  0  0  0  0
  150.6724  142.5502  157.9833 C   0  0  0  0  0  0  0  0  0  0  0  0
  150.9432  141.1542  157.6373 N   0  0  0  0  0  0  0  0  0  0  0  0
  151.7114  141.0651  156.4006 C   0  0  0  0  0  0  0  0  0  0  0  0
  152.0109  139.6080  156.0133 C   0  0  0  0  0  0  0  0  0  0  0  0
  150.7878  138.8892  155.9033 O   0  0  0  0  0  0  0  0  0  0  0  0
  150.0281  138.8957  157.1101 C   0  0  2  0  0  0  0  0  0  0  0  0
  148.7419  138.0882  156.8860 C   0  0  0  0  0  0  0  0  0  0  0  0
  147.8730  138.1634  158.0533 N   0  0  0  0  0  0  0  0  0  0  0  0
  147.8647  137.2857  159.0648 C   0  0  0  0  0  0  0  0  0  0  0  0
  148.6384  136.3254  159.0497 O   0  0  0  0  0  0  0  0  0  0  0  0
  146.9629  137.5741  160.0309 N   0  5  0  0  0  0  0  0  0  0  0  0
  146.4328  136.5866  160.7714 C   0  0  0  0  0  0  0  0  0  0  0  0
  145.9990  136.7832  162.0270 N   0  0  0  0  0  0  0  0  0  0  0  0
  145.4920  135.6329  162.6163 N   0  0  0  0  0  0  0  0  0  0  0  0
  145.5650  134.5909  161.7886 C   0  0  0  0  0  0  0  0  0  0  0  0
  146.2624  134.9188  160.2163 S   0  0  0  0  0  0  0  0  0  0  0  0
  149.7266  140.3572  157.4988 C   0  0  0  0  0  0  0  0  0  0  0  0
  151.4707  142.8177  160.6920 H   0  0  0  0  0  0  0  0  0  0  0  0
  153.1409  143.2674  160.3670 H   0  0  0  0  0  0  0  0  0  0  0  0
  152.5474  141.6868  159.8852 H   0  0  0  0  0  0  0  0  0  0  0  0
  152.7116  143.2681  157.9268 H   0  0  0  0  0  0  0  0  0  0  0  0
  150.6638  144.9619  159.4213 H   0  0  0  0  0  0  0  0  0  0  0  0
  151.2773  145.2673  157.7973 H   0  0  0  0  0  0  0  0  0  0  0  0
  152.3601  145.3703  159.1774 H   0  0  0  0  0  0  0  0  0  0  0  0
  149.8006  142.6118  158.6365 H   0  0  0  0  0  0  0  0  0  0  0  0
  150.3767  143.0656  157.0683 H   0  0  0  0  0  0  0  0  0  0  0  0
  151.1634  141.5466  155.5892 H   0  0  0  0  0  0  0  0  0  0  0  0
  152.6509  141.6084  156.5072 H   0  0  0  0  0  0  0  0  0  0  0  0
  152.5347  139.5689  155.0581 H   0  0  0  0  0  0  0  0  0  0  0  0
  152.6565  139.1340  156.7543 H   0  0  0  0  0  0  0  0  0  0  0  0
  150.6121  138.4257  157.9039 H   0  0  0  0  0  0  0  0  0  0  0  0
  148.2038  138.4807  156.0217 H   0  0  0  0  0  0  0  0  0  0  0  0
  148.9817  137.0456  156.6708 H   0  0  0  0  0  0  0  0  0  0  0  0
  147.2300  138.9404  158.0991 H   0  0  0  0  0  0  0  0  0  0  0  0
  145.2096  133.6224  162.1072 H   0  0  0  0  0  0  0  0  0  0  0  0
  149.1743  140.3550  158.4379 H   0  0  0  0  0  0  0  0  0  0  0  0
  149.0734  140.8073  156.7496 H   0  0  0  0  0  0  0  0  0  0  0  0
  1  2  1  0  0  0  0
  1 21  1  0  0  0  0
  1 22  1  0  0  0  0
  1 23  1  0  0  0  0
  2  3  1  0  0  0  0
  2  4  1  0  0  0  0
  2 24  1  0  0  0  0
  3 25  1  0  0  0  0
  3 26  1  0  0  0  0
  3 27  1  0  0  0  0
  4  5  1  0  0  0  0
  4 28  1  0  0  0  0
  4 29  1  0  0  0  0
  5 20  1  0  0  0  0
  5  6  1  0  0  0  0
  6  7  1  0  0  0  0
  6 30  1  0  0  0  0
  6 31  1  0  0  0  0
  7  8  1  0  0  0  0
  7 32  1  0  0  0  0
  7 33  1  0  0  0  0
  8  9  1  0  0  0  0
  9 10  1  0  0  0  0
  9 20  1  0  0  0  0
  9 34  1  0  0  0  0
 10 11  1  0  0  0  0
 10 35  1  0  0  0  0
 10 36  1  0  0  0  0
 11 12  1  0  0  0  0
 11 37  1  0  0  0  0
 12 13  2  0  0  0  0
 12 14  1  0  0  0  0
 14 15  1  0  0  0  0
 15 19  1  0  0  0  0
 15 16  2  0  0  0  0
 16 17  1  0  0  0  0
 17 18  2  0  0  0  0
 18 19  1  0  0  0  0
 18 38  1  0  0  0  0
 20 39  1  0  0  0  0
 20 40  1  0  0  0  0
M  CHG  1  14  -1
M  END
> <s_m_source_file>
AV-unprocessed.smi

> <i_m_source_file_index>
2021

> <i_lp_mmshare_version>
43012

> <i_f3d_flags>
0

> <s_epik_input>
W0NIM11bQ0hdKFtDSDNdKVtDSDJdTjFbQ0gyXVtDSDJdT1tDQEhdKFtDSDJdMSlbQ0gyXVtOSF1DKD1PKVtOSF1jMm5uW2NIXXMy

> <s_epik_cmdline>
J2VwaWtfcHl0aG9uJywgJy1waCcsICc3LjAnLCAnLXRuJywgJzgnLCAnLW1hJywgJzIwMCcsICctbWV0YWxfYmluZGluZycsICctaW1hZScsICc8aW5maWxlLm1hZT4nLCAnLW9tYWUnLCAnPG91dGZpbGUubWFlPic=

> <r_lp_tautomer_probability>
1

> <r_epik_Ionization_Penalty>
4.44864

> <r_epik_Ionization_Penalty_Charging>
3.27383

> <r_epik_Ionization_Penalty_Neutral>
1.17482

> <r_epik_State_Penalty>
4.44168

> <r_epik_Charging_Adjusted_Penalty>
7.7155

> <i_epik_Tot_Q>
-1

> <i_epik_Tot_abs_Q>
1

> <r_epik_Metal_State_Penalty>
1.66628

> <b_epik_Metal_Only>
1

> <s_lp_Force_Field>
OPLS_2005

> <r_lp_Energy>
22.4741

> <b_lp_Chiralities_Consistent>
1

> <s_lp_Variant>
AV-unprocessed.smi:2021-12

> <Gold.Version>
5.8.1

> <Gold.Id.Protein>
6NUR|6NUR_protein|mol2

> <Gold.PLP.Fitness>
49.8121

> <Gold.PLP.PLP>
-38.4057

> <Gold.PLP.part.hbond>
-4.1420

> <Gold.PLP.part.metal>
0.0000

> <Gold.PLP.part.buried>
-6.4540

> <Gold.PLP.part.nonpolar>
-27.3871

> <Gold.PLP.part.repulsive>
0.2175

> <Gold.PLP.ligand.clash>
0.0000

> <Gold.PLP.ligand.torsion>
0.7017

> <Gold.PLP.Chemscore.Hbond>
4.2503

> <Gold.PLP.Chemscore.CHOScore>
0.0000

> <Gold.PLP.Chemscore.Metal>
0.0000

> <Gold.Chemscore.Hbonds>
donor molecule, donor type, donor heavy atom, donor atom, acceptor molecule, acceptor atom, score
      P1  H  6934  6947       L1    14  2.00

> <Gold.PLP.Chemscore.Internal.Correction>
0.0589

> <Gold.Rescore>
     Score         DG    S(hbond)    S(metal)    S(lipo)     H(rot)  DE(clash)    DE(int)     intcor
     16.25     -17.32       2.24        0.00      76.67       1.81       0.11       0.97       ----

> <Gold.Chemscore.Fitness>
16.2468

> <Gold.Chemscore.DG>
-17.3200

> <Gold.Chemscore.ZeroCoef>
-5.4800

> <Gold.Chemscore.Hbond>
2.2431

> <Gold.Chemscore.Metal>
0.0000

> <Gold.Chemscore.Lipo>
76.6712

> <Gold.Chemscore.Internal_Hbond>
0.0000

> <Gold.Chemscore.DEClash>
0.1058

> <Gold.Chemscore.DEInternal>
0.9675

> <Gold.Chemscore.Rot>
1.8056

> <Gold.Chemscore.Internal.Correction>
   9.000000E+99

> <Gold.Chemscore.Hbonds>
donor molecule, donor type, donor heavy atom, donor atom, acceptor molecule, acceptor atom, score
      P1  H  6934  6947       L1    14  0.80

> <Gold.Chemscore.Hbond.Weighted>
-7.4918

> <Gold.Chemscore.Metal.Weighted>
-0.0000

> <Gold.Chemscore.Lipo.Weighted>
-8.9705

> <Gold.Chemscore.Internal_Hbond.Weighted>
0.0000

> <Gold.Chemscore.DEClash.Weighted>
0.1058

> <Gold.Chemscore.DEInternal.Weighted>
0.9675

> <Gold.Chemscore.Rot.Weighted>
4.6224

> <Gold.Chemscore.Internal.Correction.Weighted>
   9.000000E+99

> <Gold.Protein.RotatedTorsions>
[ 6907 6896 6895 6894 ] final   48.63 input  -60.11 | X-H torsion
[ 7974 7965 7964 7962 ] final  177.42 input  175.53 | X-H torsion
[ 8008 7997 7996 7995 ] final   25.71 input   59.86 | X-H torsion
[ 10167 10162 10161 10158 ] final -118.02 input  -65.29 | X-H torsion
[ 10718 10713 10712 10709 ] final  -87.31 input   66.30 | X-H torsion
[ 10763 10752 10751 10750 ] final   46.52 input  -60.55 | X-H torsion
[ 11005 11000 10999 10996 ] final -105.88 input  -57.11 | X-H torsion

> <Gold.Protein.ActiveResidues>
 VAL166  LYS551  ARG553  GLY616  TRP617  ASP618  TYR619  PRO620  LYS621  CYS622 
 ASP623  PHE694  ASN695  SER759  ASP760  ASP761  ALA762  ILE779  LEU786  VAL792 
 PHE793  MET794  SER795  GLU796  ALA797  LYS798  CYS799  TRP800  GLU811  SER814 

> <Gold.Protein.RotatedAtoms>
  152.2817  134.7821  160.0394 H   0  0  0  0  0  0  0  0  0  0  0  0  # atno 6907 bound_to 6896
  151.8397  133.3416  159.3647 H   0  0  0  0  0  0  0  0  0  0  0  0  # atno 6908 bound_to 6896
  150.7192  134.5331  159.5754 H   0  0  0  0  0  0  0  0  0  0  0  0  # atno 6909 bound_to 6896
  144.7169  140.0245  143.6439 H   0  0  0  0  0  0  0  0  0  0  0  0  # atno 7974 bound_to 7965
  155.0159  140.3142  155.4812 H   0  0  0  0  0  0  0  0  0  0  0  0  # atno 8008 bound_to 7997
  156.2901  140.2206  156.5217 H   0  0  0  0  0  0  0  0  0  0  0  0  # atno 8009 bound_to 7997
  154.7494  140.0467  157.0868 H   0  0  0  0  0  0  0  0  0  0  0  0  # atno 8010 bound_to 7997
  140.0620  143.4958  152.2026 H   0  0  0  0  0  0  0  0  0  0  0  0  # atno 10167 bound_to 10162
  155.9986  130.4795  150.4847 H   0  0  0  0  0  0  0  0  0  0  0  0  # atno 10718 bound_to 10713
  152.9810  135.6005  154.3612 H   0  0  0  0  0  0  0  0  0  0  0  0  # atno 10763 bound_to 10752
  154.3294  135.2769  155.2481 H   0  0  0  0  0  0  0  0  0  0  0  0  # atno 10764 bound_to 10752
  154.4612  135.5965  153.6312 H   0  0  0  0  0  0  0  0  0  0  0  0  # atno 10765 bound_to 10752
  141.1032  133.8845  157.1788 H   0  0  0  0  0  0  0  0  0  0  0  0  # atno 11005 bound_to 11000
  146.0153  139.3205  143.0845 LP  0  0  0  0  0  0  0  0  0  0  0  0  # atno 17320 bound_to 7965
  145.8633  140.9463  143.0689 LP  0  0  0  0  0  0  0  0  0  0  0  0  # atno 17321 bound_to 7965
  139.5888  144.7542  151.3453 LP  0  0  0  0  0  0  0  0  0  0  0  0  # atno 17342 bound_to 10162
  140.7167  143.7247  150.7669 LP  0  0  0  0  0  0  0  0  0  0  0  0  # atno 17343 bound_to 10162
  157.2848  131.0614  151.2173 LP  0  0  0  0  0  0  0  0  0  0  0  0  # atno 17370 bound_to 10713
  157.3207  130.6935  149.6267 LP  0  0  0  0  0  0  0  0  0  0  0  0  # atno 17371 bound_to 10713
  139.9891  135.0071  156.9933 LP  0  0  0  0  0  0  0  0  0  0  0  0  # atno 17394 bound_to 11000
  140.4969  134.1136  155.7243 LP  0  0  0  0  0  0  0  0  0  0  0  0  # atno 17395 bound_to 11000

$$$$
