AV-unprocessed.smi:2807|AV-procd|sdf|10816|dock2
  -GOLD-   2272015253D 1   1.00000     0.00000
 Structure written by MMmdl.
 32 33  0  0  0  0  0  0  0  0  1 V2000
  152.4076  139.9471  155.6936 O   0  0  0  0  0  0  0  0  0  0  0  0
  151.4658  140.1647  156.4571 C   0  0  0  0  0  0  0  0  0  0  0  0
  150.2026  140.3300  156.0322 N   0  0  0  0  0  0  0  0  0  0  0  0
  149.7651  140.2997  154.6400 C   0  0  2  0  0  0  0  0  0  0  0  0
  148.9428  141.5599  154.3080 C   0  0  0  0  0  0  0  0  0  0  0  0
  147.6988  141.0712  153.5659 C   0  0  0  0  0  0  0  0  0  0  0  0
  147.4403  139.6805  154.1384 C   0  0  0  0  0  0  0  0  0  0  0  0
  148.8359  139.0926  154.3740 C   0  0  1  0  0  0  0  0  0  0  0  0
  149.2599  138.4098  153.2109 O   0  0  0  0  0  0  0  0  0  0  0  0
  151.6997  140.2647  157.9725 C   0  0  0  0  0  0  0  0  0  0  0  0
  150.7078  139.6323  158.6042 F   0  0  0  0  0  0  0  0  0  0  0  0
  152.8409  139.6427  158.2790 F   0  0  0  0  0  0  0  0  0  0  0  0
  151.7656  141.7263  158.4092 C   0  0  0  0  0  0  0  0  0  0  0  0
  152.3077  142.0848  159.6643 C   0  0  0  0  0  0  0  0  0  0  0  0
  152.3667  143.4485  160.0101 C   0  0  0  0  0  0  0  0  0  0  0  0
  151.8864  144.4026  159.0934 C   0  0  0  0  0  0  0  0  0  0  0  0
  151.3659  143.9487  157.8662 C   0  0  0  0  0  0  0  0  0  0  0  0
  151.3055  142.6439  157.5245 N   0  0  0  0  0  0  0  0  0  0  0  0
  149.4925  140.5061  156.7287 H   0  0  0  0  0  0  0  0  0  0  0  0
  150.6394  140.2649  153.9863 H   0  0  0  0  0  0  0  0  0  0  0  0
  148.6312  142.0683  155.2223 H   0  0  0  0  0  0  0  0  0  0  0  0
  149.5122  142.2797  153.7193 H   0  0  0  0  0  0  0  0  0  0  0  0
  146.8474  141.7416  153.6877 H   0  0  0  0  0  0  0  0  0  0  0  0
  147.9128  140.9951  152.4990 H   0  0  0  0  0  0  0  0  0  0  0  0
  146.9252  139.7790  155.0951 H   0  0  0  0  0  0  0  0  0  0  0  0
  146.8133  139.0645  153.4927 H   0  0  0  0  0  0  0  0  0  0  0  0
  148.8252  138.3766  155.1970 H   0  0  0  0  0  0  0  0  0  0  0  0
  149.3022  139.0292  152.4986 H   0  0  0  0  0  0  0  0  0  0  0  0
  152.6779  141.3338  160.3463 H   0  0  0  0  0  0  0  0  0  0  0  0
  152.7760  143.7573  160.9605 H   0  0  0  0  0  0  0  0  0  0  0  0
  151.9172  145.4571  159.3243 H   0  0  0  0  0  0  0  0  0  0  0  0
  150.9897  144.6521  157.1380 H   0  0  0  0  0  0  0  0  0  0  0  0
  1  2  2  0  0  0  0
  2  3  1  0  0  0  0
  2 10  1  0  0  0  0
  3  4  1  0  0  0  0
  3 19  1  0  0  0  0
  4  8  1  0  0  0  0
  4  5  1  0  0  0  0
  4 20  1  0  0  0  0
  5  6  1  0  0  0  0
  5 21  1  0  0  0  0
  5 22  1  0  0  0  0
  6  7  1  0  0  0  0
  6 23  1  0  0  0  0
  6 24  1  0  0  0  0
  7  8  1  0  0  0  0
  7 25  1  0  0  0  0
  7 26  1  0  0  0  0
  8  9  1  0  0  0  0
  8 27  1  0  0  0  0
  9 28  1  0  0  0  0
 10 11  1  0  0  0  0
 10 12  1  0  0  0  0
 10 13  1  0  0  0  0
 13 18  1  0  0  0  0
 13 14  2  0  0  0  0
 14 15  1  0  0  0  0
 14 29  1  0  0  0  0
 15 16  2  0  0  0  0
 15 30  1  0  0  0  0
 16 17  1  0  0  0  0
 16 31  1  0  0  0  0
 17 18  2  0  0  0  0
 17 32  1  0  0  0  0
M  END
> <s_m_source_file>
AV-unprocessed.smi

> <i_m_source_file_index>
2807

> <i_lp_mmshare_version>
43012

> <i_f3d_flags>
0

> <s_epik_input>
bjFbY0hdW2NIXVtjSF1bY0hdYzFDKEYpKEYpQyg9TylbTkhdW0NAQEhdMltDSDJdW0NIMl1bQ0gyXVtDQEhdMltPSF0=

> <s_epik_cmdline>
J2VwaWtfcHl0aG9uJywgJy1waCcsICc3LjAnLCAnLXRuJywgJzgnLCAnLW1hJywgJzIwMCcsICctbWV0YWxfYmluZGluZycsICctaW1hZScsICc8aW5maWxlLm1hZT4nLCAnLW9tYWUnLCAnPG91dGZpbGUubWFlPic=

> <r_lp_tautomer_probability>
1

> <r_epik_Ionization_Penalty>
4.08325e-05

> <r_epik_Ionization_Penalty_Charging>
0

> <r_epik_Ionization_Penalty_Neutral>
4.08325e-05

> <r_epik_State_Penalty>
-0

> <r_epik_Charging_Adjusted_Penalty>
0

> <i_epik_Tot_Q>
0

> <i_epik_Tot_abs_Q>
0

> <r_epik_Metal_State_Penalty>
0.034564

> <b_epik_Metal_Only>
0

> <s_lp_Force_Field>
OPLS_2005

> <r_lp_Energy>
23.2382

> <b_lp_Chiralities_Consistent>
1

> <s_lp_Variant>
AV-unprocessed.smi:2807-1

> <Gold.Version>
5.8.1

> <Gold.Id.Protein>
6NUR|6NUR_protein|mol2

> <Gold.PLP.Fitness>
43.7472

> <Gold.PLP.PLP>
-37.7412

> <Gold.PLP.part.hbond>
-3.2843

> <Gold.PLP.part.metal>
0.0000

> <Gold.PLP.part.buried>
-1.7239

> <Gold.PLP.part.nonpolar>
-33.1362

> <Gold.PLP.part.repulsive>
0.1400

> <Gold.PLP.ligand.clash>
0.0000

> <Gold.PLP.ligand.torsion>
1.5067

> <Gold.PLP.Chemscore.Hbond>
2.0000

> <Gold.PLP.Chemscore.CHOScore>
1.0000

> <Gold.PLP.Chemscore.Metal>
0.0000

> <Gold.Chemscore.Hbonds>
donor molecule, donor type, donor heavy atom, donor atom, acceptor molecule, acceptor atom, score
      L1  H     9    28       P1  7957  1.00
      P1  H  7997  8010       L1     1  1.00
      L1  C    17    32       P1  8028  0.99

> <Gold.PLP.Chemscore.Internal.Correction>
0.0194

> <Gold.Rescore>
     Score         DG    S(hbond)    S(metal)    S(lipo)     H(rot)  DE(clash)    DE(int)     intcor
     15.33     -17.91       1.97        0.00      94.74       2.05       0.36       2.22       ----

> <Gold.Chemscore.Fitness>
15.3254

> <Gold.Chemscore.DG>
-17.9096

> <Gold.Chemscore.ZeroCoef>
-5.4800

> <Gold.Chemscore.Hbond>
1.9708

> <Gold.Chemscore.Metal>
0.0000

> <Gold.Chemscore.Lipo>
94.7368

> <Gold.Chemscore.Internal_Hbond>
0.0000

> <Gold.Chemscore.DEClash>
0.3641

> <Gold.Chemscore.DEInternal>
2.2201

> <Gold.Chemscore.Rot>
2.0457

> <Gold.Chemscore.Internal.Correction>
   9.000000E+99

> <Gold.Chemscore.Hbonds>
donor molecule, donor type, donor heavy atom, donor atom, acceptor molecule, acceptor atom, score
      L1  H     9    28       P1  7957  0.97
      P1  H  7989  7998       L1     1  0.01
      P1  H  7997  8010       L1     1  0.95

> <Gold.Chemscore.Hbond.Weighted>
-6.5825

> <Gold.Chemscore.Metal.Weighted>
-0.0000

> <Gold.Chemscore.Lipo.Weighted>
-11.0842

> <Gold.Chemscore.Internal_Hbond.Weighted>
0.0000

> <Gold.Chemscore.DEClash.Weighted>
0.3641

> <Gold.Chemscore.DEInternal.Weighted>
2.2201

> <Gold.Chemscore.Rot.Weighted>
5.2371

> <Gold.Chemscore.Internal.Correction.Weighted>
   9.000000E+99

> <Gold.Protein.RotatedTorsions>
[ 6907 6896 6895 6894 ] final -178.27 input  -60.11 | X-H torsion
[ 7974 7965 7964 7962 ] final  178.17 input  175.53 | X-H torsion
[ 8008 7997 7996 7995 ] final   89.55 input   59.86 | X-H torsion
[ 10167 10162 10161 10158 ] final  -21.57 input  -65.29 | X-H torsion
[ 10718 10713 10712 10709 ] final   -6.64 input   66.30 | X-H torsion
[ 10763 10752 10751 10750 ] final -167.36 input  -60.55 | X-H torsion
[ 11005 11000 10999 10996 ] final -132.85 input  -57.11 | X-H torsion

> <Gold.Protein.ActiveResidues>
 VAL166  LYS551  ARG553  GLY616  TRP617  ASP618  TYR619  PRO620  LYS621  CYS622 
 ASP623  PHE694  ASN695  SER759  ASP760  ASP761  ALA762  ILE779  LEU786  VAL792 
 PHE793  MET794  SER795  GLU796  ALA797  LYS798  CYS799  TRP800  GLU811  SER814 

> <Gold.Protein.RotatedAtoms>
  151.6346  133.3330  159.3116 H   0  0  0  0  0  0  0  0  0  0  0  0  # atno 6907 bound_to 6896
  150.8039  134.7155  159.6637 H   0  0  0  0  0  0  0  0  0  0  0  0  # atno 6908 bound_to 6896
  152.4133  134.6090  160.0072 H   0  0  0  0  0  0  0  0  0  0  0  0  # atno 6909 bound_to 6896
  144.7159  140.0357  143.6438 H   0  0  0  0  0  0  0  0  0  0  0  0  # atno 7974 bound_to 7965
  156.0013  140.3359  155.6848 H   0  0  0  0  0  0  0  0  0  0  0  0  # atno 8008 bound_to 7997
  155.6286  140.0682  157.2674 H   0  0  0  0  0  0  0  0  0  0  0  0  # atno 8009 bound_to 7997
  154.4250  140.1763  156.1436 H   0  0  0  0  0  0  0  0  0  0  0  0  # atno 8010 bound_to 7997
  140.7282  143.4615  151.0372 H   0  0  0  0  0  0  0  0  0  0  0  0  # atno 10167 bound_to 10162
  156.7289  130.5174  149.5850 H   0  0  0  0  0  0  0  0  0  0  0  0  # atno 10718 bound_to 10713
  154.6740  135.2944  154.9704 H   0  0  0  0  0  0  0  0  0  0  0  0  # atno 10763 bound_to 10752
  154.0721  135.6616  153.4830 H   0  0  0  0  0  0  0  0  0  0  0  0  # atno 10764 bound_to 10752
  153.0504  135.5177  154.7750 H   0  0  0  0  0  0  0  0  0  0  0  0  # atno 10765 bound_to 10752
  140.9133  134.1539  157.4372 H   0  0  0  0  0  0  0  0  0  0  0  0  # atno 11005 bound_to 11000
  146.0066  139.3134  143.0896 LP  0  0  0  0  0  0  0  0  0  0  0  0  # atno 17320 bound_to 7965
  145.8731  140.9408  143.0640 LP  0  0  0  0  0  0  0  0  0  0  0  0  # atno 17321 bound_to 7965
  139.8300  143.7703  152.3179 LP  0  0  0  0  0  0  0  0  0  0  0  0  # atno 17342 bound_to 10162
  139.7816  144.7442  151.0080 LP  0  0  0  0  0  0  0  0  0  0  0  0  # atno 17343 bound_to 10162
  156.1543  130.6331  151.0636 LP  0  0  0  0  0  0  0  0  0  0  0  0  # atno 17370 bound_to 10713
  157.6867  131.0822  150.7223 LP  0  0  0  0  0  0  0  0  0  0  0  0  # atno 17371 bound_to 10713
  139.8761  134.9944  156.5692 LP  0  0  0  0  0  0  0  0  0  0  0  0  # atno 17394 bound_to 11000
  140.8082  133.8450  155.8786 LP  0  0  0  0  0  0  0  0  0  0  0  0  # atno 17395 bound_to 11000

$$$$
