AV-unprocessed.smi:10|AV-procd|sdf|54|dock7
  -GOLD-   2262015173D 1   1.00000     0.00000
 Structure written by MMmdl.
 34 36  0  0  0  0  0  0  0  0  1 V2000
  152.1404  144.3480  161.0587 C   0  0  0  0  0  0  0  0  0  0  0  0
  152.4615  143.0879  160.4209 N   0  0  0  0  0  0  0  0  0  0  0  0
  153.3178  142.1453  160.8574 C   0  0  0  0  0  0  0  0  0  0  0  0
  153.4281  141.0747  160.0726 N   0  0  0  0  0  0  0  0  0  0  0  0
  152.5522  141.3754  159.0355 C   0  0  0  0  0  0  0  0  0  0  0  0
  152.1971  140.6076  157.8200 C   0  0  0  0  0  0  0  0  0  0  0  0
  152.6807  139.5024  157.5732 O   0  0  0  0  0  0  0  0  0  0  0  0
  151.2924  141.2526  157.0242 N   0  0  0  0  0  0  0  0  0  0  0  0
  150.8291  140.6485  155.7654 C   0  0  0  0  0  0  0  0  0  0  0  0
  149.6138  141.3930  155.1707 C   0  0  1  0  0  0  0  0  0  0  0  0
  149.5431  141.0975  153.7891 O   0  0  0  0  0  0  0  0  0  0  0  0
  148.3015  140.9633  155.8341 C   0  0  0  0  0  0  0  0  0  0  0  0
  146.9709  141.6491  155.4844 C   0  0  0  0  0  0  0  0  0  0  0  0
  146.5248  141.4093  156.9308 C   0  0  0  0  0  0  0  0  0  0  0  0
  148.0056  141.2895  157.3073 C   0  0  0  0  0  0  0  0  0  0  0  0
  150.7418  142.5263  157.3592 C   0  0  0  0  0  0  0  0  0  0  0  0
  151.0346  143.2263  158.4243 N   0  0  0  0  0  0  0  0  0  0  0  0
  151.9550  142.5900  159.2267 C   0  0  0  0  0  0  0  0  0  0  0  0
  152.6594  144.4313  162.0140 H   0  0  0  0  0  0  0  0  0  0  0  0
  151.0657  144.4086  161.2319 H   0  0  0  0  0  0  0  0  0  0  0  0
  152.4466  145.1727  160.4148 H   0  0  0  0  0  0  0  0  0  0  0  0
  153.8772  142.2464  161.7760 H   0  0  0  0  0  0  0  0  0  0  0  0
  151.6307  140.5715  155.0276 H   0  0  0  0  0  0  0  0  0  0  0  0
  150.5524  139.6119  155.9673 H   0  0  0  0  0  0  0  0  0  0  0  0
  149.7333  142.4711  155.2846 H   0  0  0  0  0  0  0  0  0  0  0  0
  148.8667  140.4510  153.6561 H   0  0  0  0  0  0  0  0  0  0  0  0
  148.1643  139.8874  155.7026 H   0  0  0  0  0  0  0  0  0  0  0  0
  147.0800  142.7091  155.2499 H   0  0  0  0  0  0  0  0  0  0  0  0
  146.3765  141.1314  154.7308 H   0  0  0  0  0  0  0  0  0  0  0  0
  146.0025  142.2478  157.3923 H   0  0  0  0  0  0  0  0  0  0  0  0
  145.9790  140.4728  157.0554 H   0  0  0  0  0  0  0  0  0  0  0  0
  148.2342  140.4846  158.0062 H   0  0  0  0  0  0  0  0  0  0  0  0
  148.4285  142.2390  157.6386 H   0  0  0  0  0  0  0  0  0  0  0  0
  150.0190  142.8960  156.6297 H   0  0  0  0  0  0  0  0  0  0  0  0
  1  2  1  0  0  0  0
  1 19  1  0  0  0  0
  1 20  1  0  0  0  0
  1 21  1  0  0  0  0
  2 18  1  0  0  0  0
  2  3  1  0  0  0  0
  3  4  2  0  0  0  0
  3 22  1  0  0  0  0
  4  5  1  0  0  0  0
  5 18  2  0  0  0  0
  5  6  1  0  0  0  0
  6  7  2  0  0  0  0
  6  8  1  0  0  0  0
  8  9  1  0  0  0  0
  8 16  1  0  0  0  0
  9 10  1  0  0  0  0
  9 23  1  0  0  0  0
  9 24  1  0  0  0  0
 10 11  1  0  0  0  0
 10 12  1  0  0  0  0
 10 25  1  0  0  0  0
 11 26  1  0  0  0  0
 12 15  1  0  0  0  0
 12 13  1  0  0  0  0
 12 27  1  0  0  0  0
 13 14  1  0  0  0  0
 13 28  1  0  0  0  0
 13 29  1  0  0  0  0
 14 15  1  0  0  0  0
 14 30  1  0  0  0  0
 14 31  1  0  0  0  0
 15 32  1  0  0  0  0
 15 33  1  0  0  0  0
 16 17  2  0  0  0  0
 16 34  1  0  0  0  0
 17 18  1  0  0  0  0
M  END
> <s_m_source_file>
AV-unprocessed.smi

> <i_m_source_file_index>
10

> <i_lp_mmshare_version>
43012

> <i_f3d_flags>
0

> <s_epik_input>
bjFbY0hdbihbQ0gzXSljKGMxMiluW2NIXW4oYzI9TylbQ0gyXVtDQEhdKFtPSF0pW0NIXTNbQ0gyXVtDSDJdW0NIMl0z

> <s_epik_cmdline>
J2VwaWtfcHl0aG9uJywgJy1waCcsICc3LjAnLCAnLXRuJywgJzgnLCAnLW1hJywgJzIwMCcsICctbWV0YWxfYmluZGluZycsICctaW1hZScsICc8aW5maWxlLm1hZT4nLCAnLW9tYWUnLCAnPG91dGZpbGUubWFlPic=

> <r_lp_tautomer_probability>
1

> <r_epik_Ionization_Penalty>
0.0003743

> <r_epik_Ionization_Penalty_Charging>
2.98177e-12

> <r_epik_Ionization_Penalty_Neutral>
0.000374299

> <r_epik_State_Penalty>
0.000224514

> <r_epik_Charging_Adjusted_Penalty>
0.000224514

> <i_epik_Tot_Q>
0

> <i_epik_Tot_abs_Q>
0

> <r_epik_Metal_State_Penalty>
-0

> <b_epik_Metal_Only>
0

> <s_lp_Force_Field>
OPLS_2005

> <r_lp_Energy>
33.6231

> <b_lp_Chiralities_Consistent>
1

> <s_lp_Variant>
AV-unprocessed.smi:10-2

> <Gold.Version>
5.8.1

> <Gold.Id.Protein>
6NUR|6NUR_protein|mol2

> <Gold.PLP.Fitness>
44.9129

> <Gold.PLP.PLP>
-37.5282

> <Gold.PLP.part.hbond>
-4.0000

> <Gold.PLP.part.metal>
0.0000

> <Gold.PLP.part.buried>
-5.4367

> <Gold.PLP.part.nonpolar>
-28.8138

> <Gold.PLP.part.repulsive>
0.0993

> <Gold.PLP.ligand.clash>
1.4291

> <Gold.PLP.ligand.torsion>
0.3692

> <Gold.PLP.Chemscore.Hbond>
2.1578

> <Gold.PLP.Chemscore.CHOScore>
1.0000

> <Gold.PLP.Chemscore.Metal>
0.0000

> <Gold.Chemscore.Hbonds>
donor molecule, donor type, donor heavy atom, donor atom, acceptor molecule, acceptor atom, score
      P1  H  7989  7998       L1    11  0.23
      P1  H  7997  8008       L1     7  0.95
      P1  H  8011  8017       L1    11  0.93
      L1  C    16    34       P1  8028  1.00

> <Gold.PLP.Chemscore.Internal.Correction>
0.0787

> <Gold.Rescore>
     Score         DG    S(hbond)    S(metal)    S(lipo)     H(rot)  DE(clash)    DE(int)     intcor
     10.47     -11.00       1.88        0.00      43.33       2.28       0.09       0.44       ----

> <Gold.Chemscore.Fitness>
10.4667

> <Gold.Chemscore.DG>
-10.9957

> <Gold.Chemscore.ZeroCoef>
-5.4800

> <Gold.Chemscore.Hbond>
1.8829

> <Gold.Chemscore.Metal>
0.0000

> <Gold.Chemscore.Lipo>
43.3319

> <Gold.Chemscore.Internal_Hbond>
0.0000

> <Gold.Chemscore.DEClash>
0.0921

> <Gold.Chemscore.DEInternal>
0.4369

> <Gold.Chemscore.Rot>
2.2824

> <Gold.Chemscore.Internal.Correction>
   9.000000E+99

> <Gold.Chemscore.Hbonds>
donor molecule, donor type, donor heavy atom, donor atom, acceptor molecule, acceptor atom, score
      P1  H  7989  7998       L1    11  0.04
      P1  H  7997  8008       L1     7  0.20
      P1  H  8011  8017       L1    11  0.82

> <Gold.Chemscore.Hbond.Weighted>
-6.2889

> <Gold.Chemscore.Metal.Weighted>
-0.0000

> <Gold.Chemscore.Lipo.Weighted>
-5.0698

> <Gold.Chemscore.Internal_Hbond.Weighted>
0.0000

> <Gold.Chemscore.DEClash.Weighted>
0.0921

> <Gold.Chemscore.DEInternal.Weighted>
0.4369

> <Gold.Chemscore.Rot.Weighted>
5.8431

> <Gold.Chemscore.Internal.Correction.Weighted>
   9.000000E+99

> <Gold.Protein.RotatedTorsions>
[ 6907 6896 6895 6894 ] final  -54.74 input  -60.11 | X-H torsion
[ 7974 7965 7964 7962 ] final  145.80 input  175.53 | X-H torsion
[ 8008 7997 7996 7995 ] final  -59.89 input   59.86 | X-H torsion
[ 10167 10162 10161 10158 ] final   35.53 input  -65.29 | X-H torsion
[ 10718 10713 10712 10709 ] final  -11.19 input   66.30 | X-H torsion
[ 10763 10752 10751 10750 ] final   65.02 input  -60.55 | X-H torsion
[ 11005 11000 10999 10996 ] final   39.83 input  -57.11 | X-H torsion

> <Gold.Protein.ActiveResidues>
 VAL166  LYS551  ARG553  GLY616  TRP617  ASP618  TYR619  PRO620  LYS621  CYS622 
 ASP623  PHE694  ASN695  SER759  ASP760  ASP761  ALA762  ILE779  LEU786  VAL792 
 PHE793  MET794  SER795  GLU796  ALA797  LYS798  CYS799  TRP800  GLU811  SER814 

> <Gold.Protein.RotatedAtoms>
  150.8312  134.7565  159.6854 H   0  0  0  0  0  0  0  0  0  0  0  0  # atno 6907 bound_to 6896
  152.4416  134.5576  159.9895 H   0  0  0  0  0  0  0  0  0  0  0  0  # atno 6908 bound_to 6896
  151.5737  133.3349  159.3030 H   0  0  0  0  0  0  0  0  0  0  0  0  # atno 6909 bound_to 6896
  144.8723  139.5827  143.5881 H   0  0  0  0  0  0  0  0  0  0  0  0  # atno 7974 bound_to 7965
  154.4373  140.1051  156.6188 H   0  0  0  0  0  0  0  0  0  0  0  0  # atno 8008 bound_to 7997
  155.5730  140.3489  155.4501 H   0  0  0  0  0  0  0  0  0  0  0  0  # atno 8009 bound_to 7997
  156.0375  140.1274  157.0181 H   0  0  0  0  0  0  0  0  0  0  0  0  # atno 8010 bound_to 7997
  140.4213  144.1455  150.6148 H   0  0  0  0  0  0  0  0  0  0  0  0  # atno 10167 bound_to 10162
  156.6626  130.4986  149.6025 H   0  0  0  0  0  0  0  0  0  0  0  0  # atno 10718 bound_to 10713
  153.0079  135.5372  154.6602 H   0  0  0  0  0  0  0  0  0  0  0  0  # atno 10763 bound_to 10752
  154.5812  135.2850  155.0733 H   0  0  0  0  0  0  0  0  0  0  0  0  # atno 10764 bound_to 10752
  154.1861  135.6508  153.5100 H   0  0  0  0  0  0  0  0  0  0  0  0  # atno 10765 bound_to 10752
  140.1990  134.3894  155.8106 H   0  0  0  0  0  0  0  0  0  0  0  0  # atno 11005 bound_to 11000
  146.2938  139.7218  142.9141 LP  0  0  0  0  0  0  0  0  0  0  0  0  # atno 17320 bound_to 7965
  145.4108  141.0396  143.3018 LP  0  0  0  0  0  0  0  0  0  0  0  0  # atno 17321 bound_to 7965
  140.4530  143.2479  151.9322 LP  0  0  0  0  0  0  0  0  0  0  0  0  # atno 17342 bound_to 10162
  139.4782  144.5543  151.8337 LP  0  0  0  0  0  0  0  0  0  0  0  0  # atno 17343 bound_to 10162
  156.1999  130.6613  151.1156 LP  0  0  0  0  0  0  0  0  0  0  0  0  # atno 17370 bound_to 10713
  157.7104  131.0736  150.6519 LP  0  0  0  0  0  0  0  0  0  0  0  0  # atno 17371 bound_to 10713
  141.2227  133.7084  156.8225 LP  0  0  0  0  0  0  0  0  0  0  0  0  # atno 17394 bound_to 11000
  140.2075  134.8852  157.3238 LP  0  0  0  0  0  0  0  0  0  0  0  0  # atno 17395 bound_to 11000

$$$$
