AV-unprocessed.smi:102|AV-procd|sdf|964|dock4
  -GOLD-   2262017503D 1   1.00000     0.00000
 Structure written by MMmdl.
 43 44  0  0  0  0  0  0  0  0  2 V2000
  153.4292  135.2850  157.9935 C   0  0  0  0  0  0  0  0  0  0  0  0
  152.1039  135.9386  157.6228 C   0  0  0  0  0  0  0  0  0  0  0  0
  151.0416  135.5547  158.1123 O   0  0  0  0  0  0  0  0  0  0  0  0
  152.2492  136.9367  156.7387 O   0  0  0  0  0  0  0  0  0  0  0  0
  151.1061  137.6451  156.2904 C   0  0  0  0  0  0  0  0  0  0  0  0
  150.8744  137.3496  154.7961 C   0  0  1  0  0  0  0  0  0  0  0  0
  150.6935  135.9487  154.6205 O   0  0  0  0  0  0  0  0  0  0  0  0
  149.3527  135.6241  154.8344 C   0  0  2  0  0  0  0  0  0  0  0  0
  148.9666  134.4847  153.9184 N   0  0  0  0  0  0  0  0  0  0  0  0
  148.9109  134.7114  152.5546 C   0  0  0  0  0  0  0  0  0  0  0  0
  148.5403  133.7400  151.6957 C   0  0  0  0  0  0  0  0  0  0  0  0
  148.5021  133.9917  150.3759 F   0  0  0  0  0  0  0  0  0  0  0  0
  148.1806  132.4202  152.2098 C   0  0  0  0  0  0  0  0  0  0  0  0
  147.8571  131.5330  151.4214 O   0  0  0  0  0  0  0  0  0  0  0  0
  148.2187  132.2309  153.5605 N   0  5  0  0  0  0  0  0  0  0  0  0
  148.5837  133.2142  154.4345 C   0  0  0  0  0  0  0  0  0  0  0  0
  148.5934  133.0524  155.6535 O   0  0  0  0  0  0  0  0  0  0  0  0
  148.5089  136.8943  154.6183 C   0  0  1  0  0  0  0  0  0  0  0  0
  147.8558  137.2150  155.8437 O   0  0  0  0  0  0  0  0  0  0  0  0
  147.1118  136.2962  156.4842 C   0  0  0  0  0  0  0  0  0  0  0  0
  146.3739  136.8816  157.6807 C   0  0  0  0  0  0  0  0  0  0  0  0
  146.9956  135.1104  156.1757 O   0  0  0  0  0  0  0  0  0  0  0  0
  149.5688  137.9262  154.2303 C   0  0  1  0  0  0  0  0  0  0  0  0
  149.2601  139.2401  154.6860 O   0  0  0  0  0  0  0  0  0  0  0  0
  150.1885  140.2105  154.6458 C   0  0  0  0  0  0  0  0  0  0  0  0
  149.6359  141.5596  155.0857 C   0  0  0  0  0  0  0  0  0  0  0  0
  151.3655  140.0760  154.3116 O   0  0  0  0  0  0  0  0  0  0  0  0
  154.2475  135.6998  157.4044 H   0  0  0  0  0  0  0  0  0  0  0  0
  153.3841  134.2111  157.8119 H   0  0  0  0  0  0  0  0  0  0  0  0
  153.6468  135.4481  159.0491 H   0  0  0  0  0  0  0  0  0  0  0  0
  150.2319  137.3785  156.8853 H   0  0  0  0  0  0  0  0  0  0  0  0
  151.2867  138.7104  156.4384 H   0  0  0  0  0  0  0  0  0  0  0  0
  151.7273  137.7006  154.2141 H   0  0  0  0  0  0  0  0  0  0  0  0
  149.2504  135.2317  155.8474 H   0  0  0  0  0  0  0  0  0  0  0  0
  149.1717  135.6826  152.1604 H   0  0  0  0  0  0  0  0  0  0  0  0
  147.7893  136.7373  153.8137 H   0  0  0  0  0  0  0  0  0  0  0  0
  147.0374  137.5234  158.2607 H   0  0  0  0  0  0  0  0  0  0  0  0
  146.0082  136.0867  158.3310 H   0  0  0  0  0  0  0  0  0  0  0  0
  145.5225  137.4739  157.3453 H   0  0  0  0  0  0  0  0  0  0  0  0
  149.6386  137.9304  153.1419 H   0  0  0  0  0  0  0  0  0  0  0  0
  148.6151  141.6911  154.7262 H   0  0  0  0  0  0  0  0  0  0  0  0
  150.2484  142.3701  154.6903 H   0  0  0  0  0  0  0  0  0  0  0  0
  149.6322  141.6275  156.1736 H   0  0  0  0  0  0  0  0  0  0  0  0
  1  2  1  0  0  0  0
  1 28  1  0  0  0  0
  1 29  1  0  0  0  0
  1 30  1  0  0  0  0
  2  3  2  0  0  0  0
  2  4  1  0  0  0  0
  4  5  1  0  0  0  0
  5  6  1  0  0  0  0
  5 31  1  0  0  0  0
  5 32  1  0  0  0  0
  6 23  1  0  0  0  0
  6  7  1  0  0  0  0
  6 33  1  0  0  0  0
  7  8  1  0  0  0  0
  8  9  1  0  0  0  0
  8 18  1  0  0  0  0
  8 34  1  0  0  0  0
  9 16  1  0  0  0  0
  9 10  1  0  0  0  0
 10 11  2  0  0  0  0
 10 35  1  0  0  0  0
 11 12  1  0  0  0  0
 11 13  1  0  0  0  0
 13 14  2  0  0  0  0
 13 15  1  0  0  0  0
 15 16  1  0  0  0  0
 16 17  2  0  0  0  0
 18 19  1  0  0  0  0
 18 23  1  0  0  0  0
 18 36  1  0  0  0  0
 19 20  1  0  0  0  0
 20 21  1  0  0  0  0
 20 22  2  0  0  0  0
 21 37  1  0  0  0  0
 21 38  1  0  0  0  0
 21 39  1  0  0  0  0
 23 24  1  0  0  0  0
 23 40  1  0  0  0  0
 24 25  1  0  0  0  0
 25 26  1  0  0  0  0
 25 27  2  0  0  0  0
 26 41  1  0  0  0  0
 26 42  1  0  0  0  0
 26 43  1  0  0  0  0
M  CHG  1  15  -1
M  END
> <s_m_source_file>
AV-unprocessed.smi

> <i_m_source_file_index>
102

> <i_lp_mmshare_version>
43012

> <i_f3d_flags>
0

> <s_epik_input>
W0NIM11DKD1PKU9bQ0gyXVtDQEBIXTFPW0NASF0oW0NAQEhdKE9DKD1PKVtDSDNdKVtDQEhdMU9DKD1PKVtDSDNdKW4yW2NIXWMoRiljKD1PKVtuSF1jMj1P

> <s_epik_cmdline>
J2VwaWtfcHl0aG9uJywgJy1waCcsICc3LjAnLCAnLXRuJywgJzgnLCAnLW1hJywgJzIwMCcsICctbWV0YWxfYmluZGluZycsICctaW1hZScsICc8aW5maWxlLm1hZT4nLCAnLW9tYWUnLCAnPG91dGZpbGUubWFlPic=

> <r_epik_Ionization_Penalty>
1.40304

> <r_epik_Ionization_Penalty_Charging>
1.43915e-08

> <r_epik_Ionization_Penalty_Neutral>
1.40304

> <r_epik_State_Penalty>
1.48536

> <r_epik_Charging_Adjusted_Penalty>
1.48536

> <i_epik_Tot_Q>
-1

> <i_epik_Tot_abs_Q>
1

> <r_epik_Metal_State_Penalty>
0.00663881

> <b_epik_Metal_Only>
0

> <s_epik_Chemistry_Notes>
This compound has an ester and may undergo hydrolysis at high or low pH. This compound contains an acetal/aminal-like group ( X-CH(R)-Y where X, Y are N, S, or O) that may be acid/base labile, releasing an aldehyde.

> <s_lp_Force_Field>
OPLS_2005

> <r_lp_Energy>
22.8402

> <b_lp_Chiralities_Consistent>
1

> <s_lp_Variant>
AV-unprocessed.smi:102-20

> <Gold.Version>
5.8.1

> <Gold.Id.Protein>
6NUR|6NUR_protein|mol2

> <Gold.PLP.Fitness>
45.3929

> <Gold.PLP.PLP>
-33.4112

> <Gold.PLP.part.hbond>
-5.5429

> <Gold.PLP.part.metal>
0.0000

> <Gold.PLP.part.buried>
-5.0634

> <Gold.PLP.part.nonpolar>
-24.4050

> <Gold.PLP.part.repulsive>
0.2182

> <Gold.PLP.ligand.clash>
0.0000

> <Gold.PLP.ligand.torsion>
0.6344

> <Gold.PLP.Chemscore.Hbond>
3.3728

> <Gold.PLP.Chemscore.CHOScore>
0.9998

> <Gold.PLP.Chemscore.Metal>
0.0000

> <Gold.Chemscore.Hbonds>
donor molecule, donor type, donor heavy atom, donor atom, acceptor molecule, acceptor atom, score
      P1  H  6896  6907       L1     3  0.34
      P1  H  7989  7998       L1    27  0.08
      P1  H 10752 10764       L1     7  0.23

> <Gold.PLP.Chemscore.Internal.Correction>
0.1324

> <Gold.Rescore>
     Score         DG    S(hbond)    S(metal)    S(lipo)     H(rot)  DE(clash)    DE(int)     intcor
      9.20     -10.32       3.19        0.00      37.68       4.00       0.03       1.09       ----

> <Gold.Chemscore.Fitness>
9.1987

> <Gold.Chemscore.DG>
-10.3237

> <Gold.Chemscore.ZeroCoef>
-5.4800

> <Gold.Chemscore.Hbond>
3.1925

> <Gold.Chemscore.Metal>
0.0000

> <Gold.Chemscore.Lipo>
37.6763

> <Gold.Chemscore.Internal_Hbond>
0.0000

> <Gold.Chemscore.DEClash>
0.0311

> <Gold.Chemscore.DEInternal>
1.0939

> <Gold.Chemscore.Rot>
3.9951

> <Gold.Chemscore.Internal.Correction>
   9.000000E+99

> <Gold.Chemscore.Hbonds>
donor molecule, donor type, donor heavy atom, donor atom, acceptor molecule, acceptor atom, score
      P1  H  6896  6907       L1     3  0.34
      P1  H  7989  7998       L1    27  0.09
      P1  H 10752 10764       L1     7  0.02

> <Gold.Chemscore.Hbond.Weighted>
-10.6630

> <Gold.Chemscore.Metal.Weighted>
-0.0000

> <Gold.Chemscore.Lipo.Weighted>
-4.4081

> <Gold.Chemscore.Internal_Hbond.Weighted>
0.0000

> <Gold.Chemscore.DEClash.Weighted>
0.0311

> <Gold.Chemscore.DEInternal.Weighted>
1.0939

> <Gold.Chemscore.Rot.Weighted>
10.2274

> <Gold.Chemscore.Internal.Correction.Weighted>
   9.000000E+99

> <Gold.Protein.RotatedTorsions>
[ 6907 6896 6895 6894 ] final  -46.82 input  -60.11 | X-H torsion
[ 7974 7965 7964 7962 ] final  -97.37 input  175.53 | X-H torsion
[ 8008 7997 7996 7995 ] final   27.13 input   59.86 | X-H torsion
[ 10167 10162 10161 10158 ] final -170.28 input  -65.29 | X-H torsion
[ 10718 10713 10712 10709 ] final    8.77 input   66.30 | X-H torsion
[ 10763 10752 10751 10750 ] final  -53.23 input  -60.55 | X-H torsion
[ 11005 11000 10999 10996 ] final -135.79 input  -57.11 | X-H torsion

> <Gold.Protein.ActiveResidues>
 VAL166  LYS551  ARG553  GLY616  TRP617  ASP618  TYR619  PRO620  LYS621  CYS622 
 ASP623  PHE694  ASN695  SER759  ASP760  ASP761  ALA762  ILE779  LEU786  VAL792 
 PHE793  MET794  SER795  GLU796  ALA797  LYS798  CYS799  TRP800  GLU811  SER814 

> <Gold.Protein.RotatedAtoms>
  150.9072  134.8488  159.7400 H   0  0  0  0  0  0  0  0  0  0  0  0  # atno 6907 bound_to 6896
  152.4925  134.4413  159.9554 H   0  0  0  0  0  0  0  0  0  0  0  0  # atno 6908 bound_to 6896
  151.4459  133.3591  159.2823 H   0  0  0  0  0  0  0  0  0  0  0  0  # atno 6909 bound_to 6896
  145.3346  140.9448  143.2642 H   0  0  0  0  0  0  0  0  0  0  0  0  # atno 7974 bound_to 7965
  155.0381  140.3166  155.4734 H   0  0  0  0  0  0  0  0  0  0  0  0  # atno 8008 bound_to 7997
  156.2860  140.2168  156.5447 H   0  0  0  0  0  0  0  0  0  0  0  0  # atno 8009 bound_to 7997
  154.7313  140.0481  157.0717 H   0  0  0  0  0  0  0  0  0  0  0  0  # atno 8010 bound_to 7997
  139.5871  144.1294  152.1589 H   0  0  0  0  0  0  0  0  0  0  0  0  # atno 10167 bound_to 10162
  156.9565  130.5917  149.5659 H   0  0  0  0  0  0  0  0  0  0  0  0  # atno 10718 bound_to 10713
  154.1555  135.6483  153.4973 H   0  0  0  0  0  0  0  0  0  0  0  0  # atno 10763 bound_to 10752
  153.0125  135.5348  154.6764 H   0  0  0  0  0  0  0  0  0  0  0  0  # atno 10764 bound_to 10752
  154.6063  135.2949  155.0452 H   0  0  0  0  0  0  0  0  0  0  0  0  # atno 10765 bound_to 10752
  140.8865  134.1866  157.4556 H   0  0  0  0  0  0  0  0  0  0  0  0  # atno 11005 bound_to 11000
  144.8837  139.4868  143.6711 LP  0  0  0  0  0  0  0  0  0  0  0  0  # atno 17320 bound_to 7965
  146.3032  139.7493  142.9076 LP  0  0  0  0  0  0  0  0  0  0  0  0  # atno 17321 bound_to 7965
  140.0860  144.5661  150.7088 LP  0  0  0  0  0  0  0  0  0  0  0  0  # atno 17342 bound_to 10162
  140.7141  143.2529  151.4489 LP  0  0  0  0  0  0  0  0  0  0  0  0  # atno 17343 bound_to 10162
  156.0340  130.5429  150.8607 LP  0  0  0  0  0  0  0  0  0  0  0  0  # atno 17370 bound_to 10713
  157.5686  131.0946  150.9451 LP  0  0  0  0  0  0  0  0  0  0  0  0  # atno 17371 bound_to 10713
  139.8725  134.9840  156.5221 LP  0  0  0  0  0  0  0  0  0  0  0  0  # atno 17394 bound_to 11000
  140.8398  133.8214  155.9064 LP  0  0  0  0  0  0  0  0  0  0  0  0  # atno 17395 bound_to 11000

$$$$
