AV-unprocessed.smi:1438|AV-procd|sdf|5867|dock9
  -GOLD-   22720 5543D 1   1.00000     0.00000
 Structure written by MMmdl.
 43 44  0  0  0  0  0  0  0  0  1 V2000
  144.8725  144.1653  155.8139 C   0  0  0  0  0  0  0  0  0  0  0  0
  146.0842  143.5661  156.5464 C   0  0  2  0  0  0  0  0  0  0  0  0
  146.5531  142.2556  155.8995 C   0  0  0  0  0  0  0  0  0  0  0  0
  145.8227  141.2645  155.8895 O   0  0  0  0  0  0  0  0  0  0  0  0
  147.7828  142.2620  155.3653 N   0  0  0  0  0  0  0  0  0  0  0  0
  148.4301  141.1031  154.7678 C   0  0  0  0  0  0  0  0  0  0  0  0
  149.7239  140.7531  155.4768 C   0  0  0  0  0  0  0  0  0  0  0  0
  150.4319  139.5787  155.1479 C   0  0  0  0  0  0  0  0  0  0  0  0
  151.6308  139.3039  155.8337 C   0  0  0  0  0  0  0  0  0  0  0  0
  152.1388  140.1102  156.7897 N   0  0  0  0  0  0  0  0  0  0  0  0
  151.4587  141.2384  157.1056 C   0  0  0  0  0  0  0  0  0  0  0  0
  151.9895  142.0852  158.0888 N   0  0  0  0  0  0  0  0  0  0  0  0
  151.6354  143.4886  157.9157 C   0  0  0  0  0  0  0  0  0  0  0  0
  152.3651  144.3466  158.9637 C   0  0  0  0  0  0  0  0  0  0  0  0
  152.0551  143.8691  160.2700 O   0  0  0  0  0  0  0  0  0  0  0  0
  152.4664  142.5176  160.4576 C   0  0  0  0  0  0  0  0  0  0  0  0
  151.7439  141.6121  159.4451 C   0  0  0  0  0  0  0  0  0  0  0  0
  150.2487  141.5984  156.4760 C   0  0  0  0  0  0  0  0  0  0  0  0
  145.6651  143.2762  158.3297 S   0  0  0  0  0  0  0  0  0  0  0  0
  146.7984  144.4257  159.2192 C   0  0  0  0  0  0  0  0  0  0  0  0
  144.2838  143.7303  158.5525 O   0  0  0  0  0  0  0  0  0  0  0  0
  146.0375  141.8995  158.6906 O   0  0  0  0  0  0  0  0  0  0  0  0
  145.0861  144.3221  154.7560 H   0  0  0  0  0  0  0  0  0  0  0  0
  144.6009  145.1314  156.2397 H   0  0  0  0  0  0  0  0  0  0  0  0
  143.9982  143.5175  155.8878 H   0  0  0  0  0  0  0  0  0  0  0  0
  146.8986  144.2912  156.5218 H   0  0  0  0  0  0  0  0  0  0  0  0
  148.3206  143.1157  155.4029 H   0  0  0  0  0  0  0  0  0  0  0  0
  147.7520  140.2482  154.7928 H   0  0  0  0  0  0  0  0  0  0  0  0
  148.6472  141.3104  153.7189 H   0  0  0  0  0  0  0  0  0  0  0  0
  150.0652  138.9010  154.3908 H   0  0  0  0  0  0  0  0  0  0  0  0
  152.1981  138.4132  155.6074 H   0  0  0  0  0  0  0  0  0  0  0  0
  151.9030  143.8153  156.9101 H   0  0  0  0  0  0  0  0  0  0  0  0
  150.5571  143.6155  158.0219 H   0  0  0  0  0  0  0  0  0  0  0  0
  153.4442  144.3237  158.8033 H   0  0  0  0  0  0  0  0  0  0  0  0
  152.0526  145.3877  158.8817 H   0  0  0  0  0  0  0  0  0  0  0  0
  153.5491  142.4376  160.3471 H   0  0  0  0  0  0  0  0  0  0  0  0
  152.2263  142.2104  161.4755 H   0  0  0  0  0  0  0  0  0  0  0  0
  150.6716  141.6132  159.6465 H   0  0  0  0  0  0  0  0  0  0  0  0
  152.0908  140.5832  159.5472 H   0  0  0  0  0  0  0  0  0  0  0  0
  149.7366  142.5084  156.7539 H   0  0  0  0  0  0  0  0  0  0  0  0
  146.5719  144.3988  160.2848 H   0  0  0  0  0  0  0  0  0  0  0  0
  146.6594  145.4403  158.8470 H   0  0  0  0  0  0  0  0  0  0  0  0
  147.8331  144.1185  159.0698 H   0  0  0  0  0  0  0  0  0  0  0  0
  1  2  1  0  0  0  0
  1 23  1  0  0  0  0
  1 24  1  0  0  0  0
  1 25  1  0  0  0  0
  2  3  1  0  0  0  0
  2 19  1  0  0  0  0
  2 26  1  0  0  0  0
  3  4  2  0  0  0  0
  3  5  1  0  0  0  0
  5  6  1  0  0  0  0
  5 27  1  0  0  0  0
  6  7  1  0  0  0  0
  6 28  1  0  0  0  0
  6 29  1  0  0  0  0
  7 18  1  0  0  0  0
  7  8  2  0  0  0  0
  8  9  1  0  0  0  0
  8 30  1  0  0  0  0
  9 10  2  0  0  0  0
  9 31  1  0  0  0  0
 10 11  1  0  0  0  0
 11 12  1  0  0  0  0
 11 18  2  0  0  0  0
 12 17  1  0  0  0  0
 12 13  1  0  0  0  0
 13 14  1  0  0  0  0
 13 32  1  0  0  0  0
 13 33  1  0  0  0  0
 14 15  1  0  0  0  0
 14 34  1  0  0  0  0
 14 35  1  0  0  0  0
 15 16  1  0  0  0  0
 16 17  1  0  0  0  0
 16 36  1  0  0  0  0
 16 37  1  0  0  0  0
 17 38  1  0  0  0  0
 17 39  1  0  0  0  0
 18 40  1  0  0  0  0
 19 20  1  0  0  0  0
 19 21  2  0  0  0  0
 19 22  2  0  0  0  0
 20 41  1  0  0  0  0
 20 42  1  0  0  0  0
 20 43  1  0  0  0  0
M  END
> <s_m_source_file>
AV-unprocessed.smi

> <i_m_source_file_index>
1438

> <i_lp_mmshare_version>
43012

> <i_f3d_flags>
0

> <s_epik_input>
W0NIM11TKD1PKSg9TylbQ0BIXShbQ0gzXSlDKD1PKVtOSF1bQ0gyXWMxW2NIXVtjSF1uYyhbY0hdMSlOMltDSDJdW0NIMl1PW0NIMl1bQ0gyXTI=

> <s_epik_cmdline>
J2VwaWtfcHl0aG9uJywgJy1waCcsICc3LjAnLCAnLXRuJywgJzgnLCAnLW1hJywgJzIwMCcsICctbWV0YWxfYmluZGluZycsICctaW1hZScsICc8aW5maWxlLm1hZT4nLCAnLW9tYWUnLCAnPG91dGZpbGUubWFlPic=

> <r_lp_tautomer_probability>
1

> <r_epik_Ionization_Penalty>
0.00387635

> <r_epik_Ionization_Penalty_Charging>
0

> <r_epik_Ionization_Penalty_Neutral>
0.00387635

> <r_epik_State_Penalty>
0.0027681

> <r_epik_Charging_Adjusted_Penalty>
0.0027681

> <i_epik_Tot_Q>
0

> <i_epik_Tot_abs_Q>
0

> <r_epik_Metal_State_Penalty>
-0

> <b_epik_Metal_Only>
0

> <s_lp_Force_Field>
OPLS_2005

> <r_lp_Energy>
15.2281

> <b_lp_Chiralities_Consistent>
1

> <s_lp_Variant>
AV-unprocessed.smi:1438-1

> <Gold.Version>
5.8.1

> <Gold.Id.Protein>
6NUR|6NUR_protein|mol2

> <Gold.PLP.Fitness>
42.1808

> <Gold.PLP.PLP>
-35.4387

> <Gold.PLP.part.hbond>
-3.0000

> <Gold.PLP.part.metal>
0.0000

> <Gold.PLP.part.buried>
-2.6364

> <Gold.PLP.part.nonpolar>
-29.1858

> <Gold.PLP.part.repulsive>
0.1932

> <Gold.PLP.ligand.clash>
0.0000

> <Gold.PLP.ligand.torsion>
0.7848

> <Gold.PLP.Chemscore.Hbond>
2.6820

> <Gold.PLP.Chemscore.CHOScore>
0.0000

> <Gold.PLP.Chemscore.Metal>
0.0000

> <Gold.Chemscore.Hbonds>
donor molecule, donor type, donor heavy atom, donor atom, acceptor molecule, acceptor atom, score
      L1  H     5    27       P1  8028  1.00
      P1  H  6934  6946       L1    22  0.01
      P1  H  7997  8008       L1    10  0.52

> <Gold.PLP.Chemscore.Internal.Correction>
0.2658

> <Gold.Rescore>
     Score         DG    S(hbond)    S(metal)    S(lipo)     H(rot)  DE(clash)    DE(int)     intcor
     15.56     -17.87       2.33        0.00      84.76       2.08       0.20       2.12       ----

> <Gold.Chemscore.Fitness>
15.5603

> <Gold.Chemscore.DG>
-17.8750

> <Gold.Chemscore.ZeroCoef>
-5.4800

> <Gold.Chemscore.Hbond>
2.3333

> <Gold.Chemscore.Metal>
0.0000

> <Gold.Chemscore.Lipo>
84.7620

> <Gold.Chemscore.Internal_Hbond>
0.0000

> <Gold.Chemscore.DEClash>
0.1970

> <Gold.Chemscore.DEInternal>
2.1176

> <Gold.Chemscore.Rot>
2.0764

> <Gold.Chemscore.Internal.Correction>
   9.000000E+99

> <Gold.Chemscore.Hbonds>
donor molecule, donor type, donor heavy atom, donor atom, acceptor molecule, acceptor atom, score
      L1  H     5    27       P1  8028  0.98
      P1  H  6934  6946       L1    22  0.06
      P1  H  7997  8008       L1    10  0.25

> <Gold.Chemscore.Hbond.Weighted>
-7.7934

> <Gold.Chemscore.Metal.Weighted>
-0.0000

> <Gold.Chemscore.Lipo.Weighted>
-9.9172

> <Gold.Chemscore.Internal_Hbond.Weighted>
0.0000

> <Gold.Chemscore.DEClash.Weighted>
0.1970

> <Gold.Chemscore.DEInternal.Weighted>
2.1176

> <Gold.Chemscore.Rot.Weighted>
5.3155

> <Gold.Chemscore.Internal.Correction.Weighted>
   9.000000E+99

> <Gold.Protein.RotatedTorsions>
[ 6907 6896 6895 6894 ] final  138.53 input  -60.11 | X-H torsion
[ 7974 7965 7964 7962 ] final -109.39 input  175.53 | X-H torsion
[ 8008 7997 7996 7995 ] final  -48.30 input   59.86 | X-H torsion
[ 10167 10162 10161 10158 ] final  105.40 input  -65.29 | X-H torsion
[ 10718 10713 10712 10709 ] final   -5.03 input   66.30 | X-H torsion
[ 10763 10752 10751 10750 ] final -117.99 input  -60.55 | X-H torsion
[ 11005 11000 10999 10996 ] final -124.38 input  -57.11 | X-H torsion

> <Gold.Protein.ActiveResidues>
 VAL166  LYS551  ARG553  GLY616  TRP617  ASP618  TYR619  PRO620  LYS621  CYS622 
 ASP623  PHE694  ASN695  SER759  ASP760  ASP761  ALA762  ILE779  LEU786  VAL792 
 PHE793  MET794  SER795  GLU796  ALA797  LYS798  CYS799  TRP800  GLU811  SER814 

> <Gold.Protein.RotatedAtoms>
  152.2655  133.5336  159.5407 H   0  0  0  0  0  0  0  0  0  0  0  0  # atno 6907 bound_to 6896
  150.7140  134.0770  159.3893 H   0  0  0  0  0  0  0  0  0  0  0  0  # atno 6908 bound_to 6896
  151.8686  135.0498  160.0527 H   0  0  0  0  0  0  0  0  0  0  0  0  # atno 6909 bound_to 6896
  145.1811  140.8971  143.3479 H   0  0  0  0  0  0  0  0  0  0  0  0  # atno 7974 bound_to 7965
  154.4027  140.1325  156.4317 H   0  0  0  0  0  0  0  0  0  0  0  0  # atno 8008 bound_to 7997
  155.7545  140.3487  155.5146 H   0  0  0  0  0  0  0  0  0  0  0  0  # atno 8009 bound_to 7997
  155.8918  140.1004  157.1403 H   0  0  0  0  0  0  0  0  0  0  0  0  # atno 8010 bound_to 7997
  139.7096  144.7080  151.1050 H   0  0  0  0  0  0  0  0  0  0  0  0  # atno 10167 bound_to 10162
  156.7526  130.5244  149.5801 H   0  0  0  0  0  0  0  0  0  0  0  0  # atno 10718 bound_to 10713
  154.8573  135.4290  154.2068 H   0  0  0  0  0  0  0  0  0  0  0  0  # atno 10763 bound_to 10752
  153.3102  135.6975  153.7128 H   0  0  0  0  0  0  0  0  0  0  0  0  # atno 10764 bound_to 10752
  153.6224  135.3499  155.2989 H   0  0  0  0  0  0  0  0  0  0  0  0  # atno 10765 bound_to 10752
  140.9846  134.0625  157.3726 H   0  0  0  0  0  0  0  0  0  0  0  0  # atno 11005 bound_to 11000
  145.0135  139.3488  143.6108 LP  0  0  0  0  0  0  0  0  0  0  0  0  # atno 17320 bound_to 7965
  146.3453  139.9407  142.8741 LP  0  0  0  0  0  0  0  0  0  0  0  0  # atno 17321 bound_to 7965
  140.7730  143.5312  150.9421 LP  0  0  0  0  0  0  0  0  0  0  0  0  # atno 17342 bound_to 10162
  139.8996  143.6852  152.3133 LP  0  0  0  0  0  0  0  0  0  0  0  0  # atno 17343 bound_to 10162
  156.1391  130.6232  151.0442 LP  0  0  0  0  0  0  0  0  0  0  0  0  # atno 17370 bound_to 10713
  157.6770  131.0848  150.7469 LP  0  0  0  0  0  0  0  0  0  0  0  0  # atno 17371 bound_to 10713
  139.8965  135.0146  156.7053 LP  0  0  0  0  0  0  0  0  0  0  0  0  # atno 17394 bound_to 11000
  140.7134  133.9203  155.8099 LP  0  0  0  0  0  0  0  0  0  0  0  0  # atno 17395 bound_to 11000

$$$$
