AV-unprocessed.smi:2194|AV-procd|sdf|8903|dock3
  -GOLD-   2272012113D 1   1.00000     0.00000
 Structure written by MMmdl.
 45 47  0  0  0  0  0  0  0  0  1 V2000
  144.0468  143.6537  155.2456 C   0  0  0  0  0  0  0  0  0  0  0  0
  145.3901  143.0125  154.9646 C   0  0  0  0  0  0  0  0  0  0  0  0
  146.0466  143.2456  153.7401 C   0  0  0  0  0  0  0  0  0  0  0  0
  147.2959  142.6486  153.4838 C   0  0  0  0  0  0  0  0  0  0  0  0
  147.9086  141.8144  154.4414 C   0  0  0  0  0  0  0  0  0  0  0  0
  149.1310  141.2717  154.1078 O   0  0  0  0  0  0  0  0  0  0  0  0
  149.4832  140.0129  154.6662 C   0  0  0  0  0  0  0  0  0  0  0  0
  149.9316  140.2182  156.1206 C   0  0  1  0  0  0  0  0  0  0  0  0
  150.0178  138.9510  156.7421 O   0  0  0  0  0  0  0  0  0  0  0  0
  151.2804  140.9595  156.2204 C   0  0  0  0  0  0  0  0  0  0  0  0
  151.3635  141.8144  157.3953 N   0  0  0  0  0  0  0  0  0  0  0  0
  150.6643  142.9490  157.5995 C   0  0  0  0  0  0  0  0  0  0  0  0
  150.8963  143.5676  158.7575 N   0  0  0  0  0  0  0  0  0  0  0  0
  151.8430  142.7369  159.3474 C   0  0  0  0  0  0  0  0  0  0  0  0
  152.1379  141.6822  158.5481 C   0  0  0  0  0  0  0  0  0  0  0  0
  153.0999  140.6406  158.9248 C   0  0  0  0  0  0  0  0  0  0  0  0
  153.3420  139.6885  158.1816 O   0  0  0  0  0  0  0  0  0  0  0  0
  153.6747  140.8310  160.1533 N   0  0  0  0  0  0  0  0  0  0  0  0
  154.6473  139.8105  160.5886 C   0  0  0  0  0  0  0  0  0  0  0  0
  153.3863  141.8763  161.0148 C   0  0  0  0  0  0  0  0  0  0  0  0
  153.9082  141.9540  162.1303 O   0  0  0  0  0  0  0  0  0  0  0  0
  152.4936  142.8353  160.6044 N   0  0  0  0  0  0  0  0  0  0  0  0
  152.1797  143.9670  161.4814 C   0  0  0  0  0  0  0  0  0  0  0  0
  147.2438  141.5868  155.6731 C   0  0  0  0  0  0  0  0  0  0  0  0
  145.9938  142.1830  155.9301 C   0  0  0  0  0  0  0  0  0  0  0  0
  143.5122  143.8630  154.3184 H   0  0  0  0  0  0  0  0  0  0  0  0
  144.1829  144.5919  155.7837 H   0  0  0  0  0  0  0  0  0  0  0  0
  143.4234  142.9964  155.8529 H   0  0  0  0  0  0  0  0  0  0  0  0
  145.5953  143.8825  152.9932 H   0  0  0  0  0  0  0  0  0  0  0  0
  147.7900  142.8336  152.5411 H   0  0  0  0  0  0  0  0  0  0  0  0
  148.6145  139.3527  154.6405 H   0  0  0  0  0  0  0  0  0  0  0  0
  150.2829  139.5428  154.0909 H   0  0  0  0  0  0  0  0  0  0  0  0
  149.1663  140.7862  156.6513 H   0  0  0  0  0  0  0  0  0  0  0  0
  149.6957  138.2984  156.1393 H   0  0  0  0  0  0  0  0  0  0  0  0
  152.1145  140.2592  156.2180 H   0  0  0  0  0  0  0  0  0  0  0  0
  151.4199  141.5879  155.3399 H   0  0  0  0  0  0  0  0  0  0  0  0
  149.9585  143.3313  156.8767 H   0  0  0  0  0  0  0  0  0  0  0  0
  155.3381  140.1568  161.3581 H   0  0  0  0  0  0  0  0  0  0  0  0
  155.2817  139.4710  159.7678 H   0  0  0  0  0  0  0  0  0  0  0  0
  154.1207  138.9416  160.9852 H   0  0  0  0  0  0  0  0  0  0  0  0
  153.0904  144.4830  161.7894 H   0  0  0  0  0  0  0  0  0  0  0  0
  151.6633  143.6209  162.3777 H   0  0  0  0  0  0  0  0  0  0  0  0
  151.5412  144.7081  161.0008 H   0  0  0  0  0  0  0  0  0  0  0  0
  147.6722  140.9590  156.4395 H   0  0  0  0  0  0  0  0  0  0  0  0
  145.4997  142.0011  156.8733 H   0  0  0  0  0  0  0  0  0  0  0  0
  1  2  1  0  0  0  0
  1 26  1  0  0  0  0
  1 27  1  0  0  0  0
  1 28  1  0  0  0  0
  2 25  1  0  0  0  0
  2  3  2  0  0  0  0
  3  4  1  0  0  0  0
  3 29  1  0  0  0  0
  4  5  2  0  0  0  0
  4 30  1  0  0  0  0
  5  6  1  0  0  0  0
  5 24  1  0  0  0  0
  6  7  1  0  0  0  0
  7  8  1  0  0  0  0
  7 31  1  0  0  0  0
  7 32  1  0  0  0  0
  8  9  1  0  0  0  0
  8 10  1  0  0  0  0
  8 33  1  0  0  0  0
  9 34  1  0  0  0  0
 10 11  1  0  0  0  0
 10 35  1  0  0  0  0
 10 36  1  0  0  0  0
 11 15  1  0  0  0  0
 11 12  1  0  0  0  0
 12 13  2  0  0  0  0
 12 37  1  0  0  0  0
 13 14  1  0  0  0  0
 14 22  1  0  0  0  0
 14 15  2  0  0  0  0
 15 16  1  0  0  0  0
 16 17  2  0  0  0  0
 16 18  1  0  0  0  0
 18 19  1  0  0  0  0
 18 20  1  0  0  0  0
 19 38  1  0  0  0  0
 19 39  1  0  0  0  0
 19 40  1  0  0  0  0
 20 21  2  0  0  0  0
 20 22  1  0  0  0  0
 22 23  1  0  0  0  0
 23 41  1  0  0  0  0
 23 42  1  0  0  0  0
 23 43  1  0  0  0  0
 24 25  2  0  0  0  0
 24 44  1  0  0  0  0
 25 45  1  0  0  0  0
M  END
> <s_m_source_file>
AV-unprocessed.smi

> <i_m_source_file_index>
2194

> <i_lp_mmshare_version>
43012

> <i_f3d_flags>
0

> <s_epik_input>
W0NIM11jMVtjSF1bY0hdYyhbY0hdW2NIXTEpT1tDSDJdW0NASF0oW09IXSlbQ0gyXW4oW2NIXW4yKWMoYzIzKWMoPU8pbihbQ0gzXSljKD1PKW4zW0NIM10=

> <s_epik_cmdline>
J2VwaWtfcHl0aG9uJywgJy1waCcsICc3LjAnLCAnLXRuJywgJzgnLCAnLW1hJywgJzIwMCcsICctbWV0YWxfYmluZGluZycsICctaW1hZScsICc8aW5maWxlLm1hZT4nLCAnLW9tYWUnLCAnPG91dGZpbGUubWFlPic=

> <r_lp_tautomer_probability>
1

> <r_epik_Ionization_Penalty>
1.06124e-06

> <r_epik_Ionization_Penalty_Charging>
3.25921e-09

> <r_epik_Ionization_Penalty_Neutral>
1.05798e-06

> <r_epik_State_Penalty>
-0

> <r_epik_Charging_Adjusted_Penalty>
3.25921e-09

> <i_epik_Tot_Q>
0

> <i_epik_Tot_abs_Q>
0

> <r_epik_Metal_State_Penalty>
-0

> <b_epik_Metal_Only>
0

> <s_lp_Force_Field>
OPLS_2005

> <r_lp_Energy>
38.6758

> <b_lp_Chiralities_Consistent>
1

> <s_lp_Variant>
AV-unprocessed.smi:2194-2

> <Gold.Version>
5.8.1

> <Gold.Id.Protein>
6NUR|6NUR_protein|mol2

> <Gold.PLP.Fitness>
54.9452

> <Gold.PLP.PLP>
-49.9118

> <Gold.PLP.part.hbond>
-3.2907

> <Gold.PLP.part.metal>
0.0000

> <Gold.PLP.part.buried>
-4.7488

> <Gold.PLP.part.nonpolar>
-40.0017

> <Gold.PLP.part.repulsive>
0.2817

> <Gold.PLP.ligand.clash>
0.0000

> <Gold.PLP.ligand.torsion>
1.0164

> <Gold.PLP.Chemscore.Hbond>
1.3494

> <Gold.PLP.Chemscore.CHOScore>
1.0000

> <Gold.PLP.Chemscore.Metal>
0.0000

> <Gold.Chemscore.Hbonds>
donor molecule, donor type, donor heavy atom, donor atom, acceptor molecule, acceptor atom, score
      P1  H  7997  8010       L1    17  1.00
      P1  H  8011  8017       L1     6  0.42
      L1  C    12    37       P1  8028  1.00

> <Gold.PLP.Chemscore.Internal.Correction>
0.0179

> <Gold.Rescore>
     Score         DG    S(hbond)    S(metal)    S(lipo)     H(rot)  DE(clash)    DE(int)     intcor
      9.91     -11.08       1.00        0.00      78.19       2.69       0.25       0.92       ----

> <Gold.Chemscore.Fitness>
9.9093

> <Gold.Chemscore.DG>
-11.0770

> <Gold.Chemscore.ZeroCoef>
-5.4800

> <Gold.Chemscore.Hbond>
0.9974

> <Gold.Chemscore.Metal>
0.0000

> <Gold.Chemscore.Lipo>
78.1908

> <Gold.Chemscore.Internal_Hbond>
0.0000

> <Gold.Chemscore.DEClash>
0.2463

> <Gold.Chemscore.DEInternal>
0.9214

> <Gold.Chemscore.Rot>
2.6885

> <Gold.Chemscore.Internal.Correction>
   9.000000E+99

> <Gold.Chemscore.Hbonds>
donor molecule, donor type, donor heavy atom, donor atom, acceptor molecule, acceptor atom, score
      P1  H  7997  8010       L1    17  0.77
      P1  H  8011  8017       L1     6  0.21

> <Gold.Chemscore.Hbond.Weighted>
-3.3312

> <Gold.Chemscore.Metal.Weighted>
-0.0000

> <Gold.Chemscore.Lipo.Weighted>
-9.1483

> <Gold.Chemscore.Internal_Hbond.Weighted>
0.0000

> <Gold.Chemscore.DEClash.Weighted>
0.2463

> <Gold.Chemscore.DEInternal.Weighted>
0.9214

> <Gold.Chemscore.Rot.Weighted>
6.8825

> <Gold.Chemscore.Internal.Correction.Weighted>
   9.000000E+99

> <Gold.Protein.RotatedTorsions>
[ 6907 6896 6895 6894 ] final -155.95 input  -60.11 | X-H torsion
[ 7974 7965 7964 7962 ] final -101.15 input  175.53 | X-H torsion
[ 8008 7997 7996 7995 ] final   20.90 input   59.86 | X-H torsion
[ 10167 10162 10161 10158 ] final  110.66 input  -65.29 | X-H torsion
[ 10718 10713 10712 10709 ] final -111.35 input   66.30 | X-H torsion
[ 10763 10752 10751 10750 ] final   30.63 input  -60.55 | X-H torsion
[ 11005 11000 10999 10996 ] final   83.19 input  -57.11 | X-H torsion

> <Gold.Protein.ActiveResidues>
 VAL166  LYS551  ARG553  GLY616  TRP617  ASP618  TYR619  PRO620  LYS621  CYS622 
 ASP623  PHE694  ASN695  SER759  ASP760  ASP761  ALA762  ILE779  LEU786  VAL792 
 PHE793  MET794  SER795  GLU796  ALA797  LYS798  CYS799  TRP800  GLU811  SER814 

> <Gold.Protein.RotatedAtoms>
  151.2802  133.4213  159.2626 H   0  0  0  0  0  0  0  0  0  0  0  0  # atno 6907 bound_to 6896
  151.0368  134.9579  159.8150 H   0  0  0  0  0  0  0  0  0  0  0  0  # atno 6908 bound_to 6896
  152.5357  134.2761  159.9042 H   0  0  0  0  0  0  0  0  0  0  0  0  # atno 6909 bound_to 6896
  145.2853  140.9338  143.2909 H   0  0  0  0  0  0  0  0  0  0  0  0  # atno 7974 bound_to 7965
  154.9425  140.3055  155.5114 H   0  0  0  0  0  0  0  0  0  0  0  0  # atno 8008 bound_to 7997
  156.2994  140.2333  156.4433 H   0  0  0  0  0  0  0  0  0  0  0  0  # atno 8009 bound_to 7997
  154.8132  140.0427  157.1346 H   0  0  0  0  0  0  0  0  0  0  0  0  # atno 8010 bound_to 7997
  139.6671  144.7127  151.1756 H   0  0  0  0  0  0  0  0  0  0  0  0  # atno 10167 bound_to 10162
  156.0642  130.5863  150.8361 H   0  0  0  0  0  0  0  0  0  0  0  0  # atno 10718 bound_to 10713
  153.0361  135.6459  154.1074 H   0  0  0  0  0  0  0  0  0  0  0  0  # atno 10763 bound_to 10752
  154.0788  135.2875  155.3296 H   0  0  0  0  0  0  0  0  0  0  0  0  # atno 10764 bound_to 10752
  154.6544  135.5414  153.8005 H   0  0  0  0  0  0  0  0  0  0  0  0  # atno 10765 bound_to 10752
  139.9039  134.8126  156.2276 H   0  0  0  0  0  0  0  0  0  0  0  0  # atno 11005 bound_to 11000
  144.9219  139.4402  143.6537 LP  0  0  0  0  0  0  0  0  0  0  0  0  # atno 17320 bound_to 7965
  146.3203  139.8083  142.8951 LP  0  0  0  0  0  0  0  0  0  0  0  0  # atno 17321 bound_to 7965
  140.7603  143.5902  150.8804 LP  0  0  0  0  0  0  0  0  0  0  0  0  # atno 17342 bound_to 10162
  139.9564  143.6213  152.3015 LP  0  0  0  0  0  0  0  0  0  0  0  0  # atno 17343 bound_to 10162
  157.5672  131.0946  150.9472 LP  0  0  0  0  0  0  0  0  0  0  0  0  # atno 17370 bound_to 10713
  156.9696  130.5486  149.5290 LP  0  0  0  0  0  0  0  0  0  0  0  0  # atno 17371 bound_to 10713
  141.0366  133.6960  156.1523 LP  0  0  0  0  0  0  0  0  0  0  0  0  # atno 17394 bound_to 11000
  140.7018  134.4556  157.5586 LP  0  0  0  0  0  0  0  0  0  0  0  0  # atno 17395 bound_to 11000

$$$$
