AV-unprocessed.smi:731|AV-procd|sdf|3526|dock5
  -GOLD-   22720 0523D 1   1.00000     0.00000
 Structure written by MMmdl.
 34 35  0  0  0  0  0  0  0  0  1 V2000
  151.0836  140.8667  157.8269 O   0  0  0  0  0  0  0  0  0  0  0  0
  150.6040  141.9366  157.4498 C   0  0  0  0  0  0  0  0  0  0  0  0
  149.9101  142.0714  156.3080 N   0  0  0  0  0  0  0  0  0  0  0  0
  149.6467  141.0052  155.3439 C   0  0  0  0  0  0  0  0  0  0  0  0
  148.6731  141.4396  154.2308 C   0  0  0  0  0  0  0  0  0  0  0  0
  147.4320  142.1067  154.7301 C   0  0  0  0  0  0  0  0  0  0  0  0
  147.1041  142.1737  156.0227 N   0  0  0  0  0  0  0  0  0  0  0  0
  145.8681  142.7933  156.2369 C   0  0  0  0  0  0  0  0  0  0  0  0
  145.3426  142.9440  157.6352 C   0  0  0  0  0  0  0  0  0  0  0  0
  146.2243  142.5174  158.5397 F   0  0  0  0  0  0  0  0  0  0  0  0
  145.0701  144.2192  157.9111 F   0  0  0  0  0  0  0  0  0  0  0  0
  144.2220  142.2427  157.8055 F   0  0  0  0  0  0  0  0  0  0  0  0
  145.2632  143.2021  155.0730 C   0  0  0  0  0  0  0  0  0  0  0  0
  146.2211  142.8199  153.6698 S   0  0  0  0  0  0  0  0  0  0  0  0
  150.8007  143.2129  158.2834 C   0  0  0  0  0  0  0  0  0  0  0  0
  151.5137  144.3223  157.4744 C   0  0  0  0  0  0  0  0  0  0  0  0
  152.8081  144.6608  158.2239 C   0  0  0  0  0  0  0  0  0  0  0  0
  153.0905  143.4476  159.1049 C   0  0  0  0  0  0  0  0  0  0  0  0
  151.6998  142.9617  159.5098 C   0  0  0  0  0  0  0  0  0  0  0  0
  149.5534  142.9879  156.0796 H   0  0  0  0  0  0  0  0  0  0  0  0
  150.5787  140.6473  154.9029 H   0  0  0  0  0  0  0  0  0  0  0  0
  149.2248  140.1578  155.8845 H   0  0  0  0  0  0  0  0  0  0  0  0
  149.1800  142.1184  153.5440 H   0  0  0  0  0  0  0  0  0  0  0  0
  148.3805  140.5705  153.6406 H   0  0  0  0  0  0  0  0  0  0  0  0
  144.3123  143.7007  154.9569 H   0  0  0  0  0  0  0  0  0  0  0  0
  149.8262  143.5685  158.6219 H   0  0  0  0  0  0  0  0  0  0  0  0
  151.7544  143.9953  156.4612 H   0  0  0  0  0  0  0  0  0  0  0  0
  150.8833  145.2063  157.3730 H   0  0  0  0  0  0  0  0  0  0  0  0
  153.6344  144.8886  157.5500 H   0  0  0  0  0  0  0  0  0  0  0  0
  152.6457  145.5364  158.8543 H   0  0  0  0  0  0  0  0  0  0  0  0
  153.5994  142.6774  158.5235 H   0  0  0  0  0  0  0  0  0  0  0  0
  153.7181  143.6883  159.9635 H   0  0  0  0  0  0  0  0  0  0  0  0
  151.3372  143.5533  160.3514 H   0  0  0  0  0  0  0  0  0  0  0  0
  151.7134  141.9202  159.8355 H   0  0  0  0  0  0  0  0  0  0  0  0
  1  2  2  0  0  0  0
  2  3  1  0  0  0  0
  2 15  1  0  0  0  0
  3  4  1  0  0  0  0
  3 20  1  0  0  0  0
  4  5  1  0  0  0  0
  4 21  1  0  0  0  0
  4 22  1  0  0  0  0
  5  6  1  0  0  0  0
  5 23  1  0  0  0  0
  5 24  1  0  0  0  0
  6 14  1  0  0  0  0
  6  7  2  0  0  0  0
  7  8  1  0  0  0  0
  8  9  1  0  0  0  0
  8 13  2  0  0  0  0
  9 10  1  0  0  0  0
  9 11  1  0  0  0  0
  9 12  1  0  0  0  0
 13 14  1  0  0  0  0
 13 25  1  0  0  0  0
 15 19  1  0  0  0  0
 15 16  1  0  0  0  0
 15 26  1  0  0  0  0
 16 17  1  0  0  0  0
 16 27  1  0  0  0  0
 16 28  1  0  0  0  0
 17 18  1  0  0  0  0
 17 29  1  0  0  0  0
 17 30  1  0  0  0  0
 18 19  1  0  0  0  0
 18 31  1  0  0  0  0
 18 32  1  0  0  0  0
 19 33  1  0  0  0  0
 19 34  1  0  0  0  0
M  END
> <s_m_source_file>
AV-unprocessed.smi

> <i_m_source_file_index>
731

> <i_lp_mmshare_version>
43012

> <i_f3d_flags>
0

> <s_epik_input>
W0NIMl0xW0NIMl1bQ0gyXVtDSDJdW0NIXTFDKD1PKVtOSF1bQ0gyXVtDSDJdYzJuYyhDKEYpKEYpRilbY0hdczI=

> <s_epik_cmdline>
J2VwaWtfcHl0aG9uJywgJy1waCcsICc3LjAnLCAnLXRuJywgJzgnLCAnLW1hJywgJzIwMCcsICctbWV0YWxfYmluZGluZycsICctaW1hZScsICc8aW5maWxlLm1hZT4nLCAnLW9tYWUnLCAnPG91dGZpbGUubWFlPic=

> <r_lp_tautomer_probability>
1

> <r_epik_Ionization_Penalty>
2.28973e-08

> <r_epik_Ionization_Penalty_Charging>
0

> <r_epik_Ionization_Penalty_Neutral>
2.28973e-08

> <r_epik_State_Penalty>
-0

> <r_epik_Charging_Adjusted_Penalty>
0

> <i_epik_Tot_Q>
0

> <i_epik_Tot_abs_Q>
0

> <r_epik_Metal_State_Penalty>
-0

> <b_epik_Metal_Only>
0

> <s_lp_Force_Field>
OPLS_2005

> <r_lp_Energy>
15.4873

> <b_lp_Chiralities_Consistent>
1

> <s_lp_Variant>
AV-unprocessed.smi:731-1

> <Gold.Version>
5.8.1

> <Gold.Id.Protein>
6NUR|6NUR_protein|mol2

> <Gold.PLP.Fitness>
41.2004

> <Gold.PLP.PLP>
-38.5204

> <Gold.PLP.part.hbond>
-1.0000

> <Gold.PLP.part.metal>
0.0000

> <Gold.PLP.part.buried>
-3.4143

> <Gold.PLP.part.nonpolar>
-34.5585

> <Gold.PLP.part.repulsive>
0.3554

> <Gold.PLP.ligand.clash>
0.0000

> <Gold.PLP.ligand.torsion>
0.1765

> <Gold.PLP.Chemscore.Hbond>
1.0000

> <Gold.PLP.Chemscore.CHOScore>
0.0000

> <Gold.PLP.Chemscore.Metal>
0.0000

> <Gold.Chemscore.Hbonds>
donor molecule, donor type, donor heavy atom, donor atom, acceptor molecule, acceptor atom, score
      L1  H     3    20       P1  8028  1.00

> <Gold.PLP.Chemscore.Internal.Correction>
0.0330

> <Gold.Rescore>
     Score         DG    S(hbond)    S(metal)    S(lipo)     H(rot)  DE(clash)    DE(int)     intcor
     14.00     -15.63       1.00        0.00      96.10       1.73       0.04       1.58       ----

> <Gold.Chemscore.Fitness>
14.0044

> <Gold.Chemscore.DG>
-15.6282

> <Gold.Chemscore.ZeroCoef>
-5.4800

> <Gold.Chemscore.Hbond>
0.9953

> <Gold.Chemscore.Metal>
0.0000

> <Gold.Chemscore.Lipo>
96.0973

> <Gold.Chemscore.Internal_Hbond>
0.0000

> <Gold.Chemscore.DEClash>
0.0437

> <Gold.Chemscore.DEInternal>
1.5801

> <Gold.Chemscore.Rot>
1.7264

> <Gold.Chemscore.Internal.Correction>
   9.000000E+99

> <Gold.Chemscore.Hbonds>
donor molecule, donor type, donor heavy atom, donor atom, acceptor molecule, acceptor atom, score
      L1  H     3    20       P1  8028  1.00

> <Gold.Chemscore.Hbond.Weighted>
-3.3244

> <Gold.Chemscore.Metal.Weighted>
-0.0000

> <Gold.Chemscore.Lipo.Weighted>
-11.2434

> <Gold.Chemscore.Internal_Hbond.Weighted>
0.0000

> <Gold.Chemscore.DEClash.Weighted>
0.0437

> <Gold.Chemscore.DEInternal.Weighted>
1.5801

> <Gold.Chemscore.Rot.Weighted>
4.4196

> <Gold.Chemscore.Internal.Correction.Weighted>
   9.000000E+99

> <Gold.Protein.RotatedTorsions>
[ 6907 6896 6895 6894 ] final  -23.35 input  -60.11 | X-H torsion
[ 7974 7965 7964 7962 ] final  128.79 input  175.53 | X-H torsion
[ 8008 7997 7996 7995 ] final  -85.57 input   59.86 | X-H torsion
[ 10167 10162 10161 10158 ] final   44.72 input  -65.29 | X-H torsion
[ 10718 10713 10712 10709 ] final -159.94 input   66.30 | X-H torsion
[ 10763 10752 10751 10750 ] final  105.76 input  -60.55 | X-H torsion
[ 11005 11000 10999 10996 ] final -137.36 input  -57.11 | X-H torsion

> <Gold.Protein.ActiveResidues>
 VAL166  LYS551  ARG553  GLY616  TRP617  ASP618  TYR619  PRO620  LYS621  CYS622 
 ASP623  PHE694  ASN695  SER759  ASP760  ASP761  ALA762  ILE779  LEU786  VAL792 
 PHE793  MET794  SER795  GLU796  ALA797  LYS798  CYS799  TRP800  GLU811  SER814 

> <Gold.Protein.RotatedAtoms>
  151.2052  135.0459  159.8888 H   0  0  0  0  0  0  0  0  0  0  0  0  # atno 6907 bound_to 6896
  152.5429  134.0805  159.8244 H   0  0  0  0  0  0  0  0  0  0  0  0  # atno 6908 bound_to 6896
  151.0951  133.5238  159.2645 H   0  0  0  0  0  0  0  0  0  0  0  0  # atno 6909 bound_to 6896
  145.0357  139.4007  143.5127 H   0  0  0  0  0  0  0  0  0  0  0  0  # atno 7974 bound_to 7965
  154.6422  140.0590  156.9858 H   0  0  0  0  0  0  0  0  0  0  0  0  # atno 8008 bound_to 7997
  155.1500  140.3273  155.4415 H   0  0  0  0  0  0  0  0  0  0  0  0  # atno 8009 bound_to 7997
  156.2536  140.1949  156.6612 H   0  0  0  0  0  0  0  0  0  0  0  0  # atno 8010 bound_to 7997
  140.3314  144.2584  150.6167 H   0  0  0  0  0  0  0  0  0  0  0  0  # atno 10167 bound_to 10162
  156.5752  130.8705  151.2849 H   0  0  0  0  0  0  0  0  0  0  0  0  # atno 10718 bound_to 10713
  153.3837  135.3899  155.1875 H   0  0  0  0  0  0  0  0  0  0  0  0  # atno 10763 bound_to 10752
  154.8711  135.3731  154.4825 H   0  0  0  0  0  0  0  0  0  0  0  0  # atno 10764 bound_to 10752
  153.5304  135.7086  153.5747 H   0  0  0  0  0  0  0  0  0  0  0  0  # atno 10765 bound_to 10752
  140.8718  134.2041  157.4646 H   0  0  0  0  0  0  0  0  0  0  0  0  # atno 11005 bound_to 11000
  146.3504  139.9931  142.8683 LP  0  0  0  0  0  0  0  0  0  0  0  0  # atno 17320 bound_to 7965
  145.1713  140.9722  143.4320 LP  0  0  0  0  0  0  0  0  0  0  0  0  # atno 17321 bound_to 7965
  140.5394  143.2226  151.8110 LP  0  0  0  0  0  0  0  0  0  0  0  0  # atno 17342 bound_to 10162
  139.4856  144.4620  151.9529 LP  0  0  0  0  0  0  0  0  0  0  0  0  # atno 17343 bound_to 10162
  157.7339  130.9738  150.2002 LP  0  0  0  0  0  0  0  0  0  0  0  0  # atno 17370 bound_to 10713
  156.2679  130.3718  149.8061 LP  0  0  0  0  0  0  0  0  0  0  0  0  # atno 17371 bound_to 10713
  139.8712  134.9777  156.4971 LP  0  0  0  0  0  0  0  0  0  0  0  0  # atno 17394 bound_to 11000
  140.8564  133.8093  155.9221 LP  0  0  0  0  0  0  0  0  0  0  0  0  # atno 17395 bound_to 11000

$$$$
