AV-unprocessed.smi:2698|AV-procd|sdf|10419|dock2
  -GOLD-   2272014453D 1   1.00000     0.00000
 Structure written by MMmdl.
 33 33  0  0  0  0  0  0  0  0  2 V2000
  153.1804  142.0311  160.4055 C   0  0  0  0  0  0  0  0  0  0  0  0
  152.6843  142.2382  158.9624 C   0  0  0  0  0  0  0  0  0  0  0  0
  152.3276  143.7129  158.7234 C   0  0  0  0  0  0  0  0  0  0  0  0
  151.4936  141.3256  158.5881 C   0  0  0  0  0  0  0  0  0  0  0  0
  151.2854  141.1945  157.0779 C   0  0  0  0  0  0  0  0  0  0  0  0
  151.0046  142.1868  156.4058 O   0  0  0  0  0  0  0  0  0  0  0  0
  151.4222  139.9613  156.5676 N   0  0  0  0  0  0  0  0  0  0  0  0
  151.2495  139.5812  155.1660 C   0  0  2  0  0  0  0  0  0  0  0  0
  149.8399  138.9793  154.9725 C   0  0  0  0  0  0  0  0  0  0  0  0
  148.7605  139.9617  154.5758 C   0  0  0  0  0  0  0  0  0  0  0  0
  148.7631  141.3323  154.4178 C   0  0  0  0  0  0  0  0  0  0  0  0
  147.4965  141.7691  154.0221 N   0  0  0  0  0  0  0  0  0  0  0  0
  146.7815  140.6534  153.9423 C   0  0  0  0  0  0  0  0  0  0  0  0
  147.4775  139.5563  154.2518 N   0  0  0  0  0  0  0  0  0  0  0  0
  152.3291  138.5598  154.7831 C   0  0  0  0  0  0  0  0  0  0  0  0
  153.5236  138.9305  154.8349 O   0  0  0  0  0  0  0  0  0  0  0  0
  151.9403  137.4208  154.4439 O   0  5  0  0  0  0  0  0  0  0  0  0
  147.1311  138.6075  154.2557 H   0  0  0  0  0  0  0  0  0  0  0  0
  152.3833  142.2106  161.1275 H   0  0  0  0  0  0  0  0  0  0  0  0
  153.9992  142.7123  160.6385 H   0  0  0  0  0  0  0  0  0  0  0  0
  153.5537  141.0196  160.5647 H   0  0  0  0  0  0  0  0  0  0  0  0
  153.5140  141.9988  158.2952 H   0  0  0  0  0  0  0  0  0  0  0  0
  151.5000  144.0279  159.3597 H   0  0  0  0  0  0  0  0  0  0  0  0
  152.0349  143.8841  157.6870 H   0  0  0  0  0  0  0  0  0  0  0  0
  153.1767  144.3633  158.9352 H   0  0  0  0  0  0  0  0  0  0  0  0
  151.6372  140.3306  159.0117 H   0  0  0  0  0  0  0  0  0  0  0  0
  150.5745  141.7124  159.0312 H   0  0  0  0  0  0  0  0  0  0  0  0
  151.6760  139.2157  157.1991 H   0  0  0  0  0  0  0  0  0  0  0  0
  151.3550  140.4477  154.5102 H   0  0  0  0  0  0  0  0  0  0  0  0
  149.8712  138.2040  154.2057 H   0  0  0  0  0  0  0  0  0  0  0  0
  149.5208  138.4854  155.8920 H   0  0  0  0  0  0  0  0  0  0  0  0
  149.5717  142.0345  154.5571 H   0  0  0  0  0  0  0  0  0  0  0  0
  145.7411  140.6347  153.6534 H   0  0  0  0  0  0  0  0  0  0  0  0
  1  2  1  0  0  0  0
  1 19  1  0  0  0  0
  1 20  1  0  0  0  0
  1 21  1  0  0  0  0
  2  3  1  0  0  0  0
  2  4  1  0  0  0  0
  2 22  1  0  0  0  0
  3 23  1  0  0  0  0
  3 24  1  0  0  0  0
  3 25  1  0  0  0  0
  4  5  1  0  0  0  0
  4 26  1  0  0  0  0
  4 27  1  0  0  0  0
  5  6  2  0  0  0  0
  5  7  1  0  0  0  0
  7  8  1  0  0  0  0
  7 28  1  0  0  0  0
  8  9  1  0  0  0  0
  8 15  1  0  0  0  0
  8 29  1  0  0  0  0
  9 30  1  0  0  0  0
  9 31  1  0  0  0  0
  9 10  1  0  0  0  0
 10 11  2  0  0  0  0
 10 14  1  0  0  0  0
 11 32  1  0  0  0  0
 11 12  1  0  0  0  0
 12 13  2  0  0  0  0
 13 14  1  0  0  0  0
 13 33  1  0  0  0  0
 14 18  1  0  0  0  0
 15 16  2  0  0  0  0
 15 17  1  0  0  0  0
M  CHG  1  17  -1
M  END
> <s_m_source_file>
AV-unprocessed.smi

> <i_m_source_file_index>
2698

> <i_lp_mmshare_version>
43012

> <i_f3d_flags>
0

> <s_epik_input>
W0NIM11bQ0hdKFtDSDNdKVtDSDJdQyg9TylbTkhdW0NAQEhdKEMoPU8pW09IXSlbQ0gyXWMxW2NIXVtuSF1bY0hdbjE=

> <s_epik_cmdline>
J2VwaWtfcHl0aG9uJywgJy1waCcsICc3LjAnLCAnLXRuJywgJzgnLCAnLW1hJywgJzIwMCcsICctbWV0YWxfYmluZGluZycsICctaW1hZScsICc8aW5maWxlLm1hZT4nLCAnLW9tYWUnLCAnPG91dGZpbGUubWFlPic=

> <r_lp_tautomer_probability>
0.5

> <r_epik_Ionization_Penalty>
0.536153

> <r_epik_Ionization_Penalty_Charging>
0.536153

> <r_epik_Ionization_Penalty_Neutral>
4.95393e-08

> <r_epik_State_Penalty>
0.778213

> <r_epik_Charging_Adjusted_Penalty>
1.31437

> <i_epik_Tot_Q>
-1

> <i_epik_Tot_abs_Q>
1

> <r_epik_Metal_State_Penalty>
0.658344

> <b_epik_Metal_Only>
0

> <s_lp_Force_Field>
OPLS_2005

> <r_lp_Energy>
3.7745

> <b_lp_Chiralities_Consistent>
1

> <s_lp_Variant>
AV-unprocessed.smi:2698-3

> <Gold.Version>
5.8.1

> <Gold.Id.Protein>
6NUR|6NUR_protein|mol2

> <Gold.PLP.Fitness>
47.8617

> <Gold.PLP.PLP>
-35.0596

> <Gold.PLP.part.hbond>
-2.0000

> <Gold.PLP.part.metal>
0.0000

> <Gold.PLP.part.buried>
-3.7605

> <Gold.PLP.part.nonpolar>
-29.4207

> <Gold.PLP.part.repulsive>
0.5106

> <Gold.PLP.ligand.clash>
0.0000

> <Gold.PLP.ligand.torsion>
0.8789

> <Gold.PLP.Chemscore.Hbond>
3.7920

> <Gold.PLP.Chemscore.CHOScore>
1.0000

> <Gold.PLP.Chemscore.Metal>
0.0000

> <Gold.Chemscore.Hbonds>
donor molecule, donor type, donor heavy atom, donor atom, acceptor molecule, acceptor atom, score
      P1  H  7997  8009       L1    16  2.00
      P1  H 10752 10765       L1    17  1.86
      L1  C    13    33       P1 10175  1.00

> <Gold.PLP.Chemscore.Internal.Correction>
0.1841

> <Gold.Rescore>
     Score         DG    S(hbond)    S(metal)    S(lipo)     H(rot)  DE(clash)    DE(int)     intcor
     11.08     -12.02       1.83        0.00      69.74       3.01       0.04       0.90       ----

> <Gold.Chemscore.Fitness>
11.0807

> <Gold.Chemscore.DG>
-12.0215

> <Gold.Chemscore.ZeroCoef>
-5.4800

> <Gold.Chemscore.Hbond>
1.8261

> <Gold.Chemscore.Metal>
0.0000

> <Gold.Chemscore.Lipo>
69.7396

> <Gold.Chemscore.Internal_Hbond>
0.0000

> <Gold.Chemscore.DEClash>
0.0425

> <Gold.Chemscore.DEInternal>
0.8983

> <Gold.Chemscore.Rot>
3.0145

> <Gold.Chemscore.Internal.Correction>
   9.000000E+99

> <Gold.Chemscore.Hbonds>
donor molecule, donor type, donor heavy atom, donor atom, acceptor molecule, acceptor atom, score
      P1  H  7997  8009       L1    16  0.98
      P1  H 10752 10765       L1    17  0.85

> <Gold.Chemscore.Hbond.Weighted>
-6.0991

> <Gold.Chemscore.Metal.Weighted>
-0.0000

> <Gold.Chemscore.Lipo.Weighted>
-8.1595

> <Gold.Chemscore.Internal_Hbond.Weighted>
0.0000

> <Gold.Chemscore.DEClash.Weighted>
0.0425

> <Gold.Chemscore.DEInternal.Weighted>
0.8983

> <Gold.Chemscore.Rot.Weighted>
7.7171

> <Gold.Chemscore.Internal.Correction.Weighted>
   9.000000E+99

> <Gold.Protein.RotatedTorsions>
[ 6907 6896 6895 6894 ] final   76.95 input  -60.11 | X-H torsion
[ 7974 7965 7964 7962 ] final   92.63 input  175.53 | X-H torsion
[ 8008 7997 7996 7995 ] final -126.86 input   59.86 | X-H torsion
[ 10167 10162 10161 10158 ] final  148.15 input  -65.29 | X-H torsion
[ 10718 10713 10712 10709 ] final  -49.09 input   66.30 | X-H torsion
[ 10763 10752 10751 10750 ] final  164.54 input  -60.55 | X-H torsion
[ 11005 11000 10999 10996 ] final -141.38 input  -57.11 | X-H torsion

> <Gold.Protein.ActiveResidues>
 VAL166  LYS551  ARG553  GLY616  TRP617  ASP618  TYR619  PRO620  LYS621  CYS622 
 ASP623  PHE694  ASN695  SER759  ASP760  ASP761  ALA762  ILE779  LEU786  VAL792 
 PHE793  MET794  SER795  GLU796  ALA797  LYS798  CYS799  TRP800  GLU811  SER814 

> <Gold.Protein.RotatedAtoms>
  152.5096  134.3891  159.9377 H   0  0  0  0  0  0  0  0  0  0  0  0  # atno 6907 bound_to 6896
  151.3850  133.3802  159.2722 H   0  0  0  0  0  0  0  0  0  0  0  0  # atno 6908 bound_to 6896
  150.9476  134.8899  159.7710 H   0  0  0  0  0  0  0  0  0  0  0  0  # atno 6909 bound_to 6896
  145.4898  139.2276  143.2836 H   0  0  0  0  0  0  0  0  0  0  0  0  # atno 7974 bound_to 7965
  155.2367  140.0427  157.2969 H   0  0  0  0  0  0  0  0  0  0  0  0  # atno 8008 bound_to 7997
  154.5854  140.2412  155.7965 H   0  0  0  0  0  0  0  0  0  0  0  0  # atno 8009 bound_to 7997
  156.2222  140.2966  155.9989 H   0  0  0  0  0  0  0  0  0  0  0  0  # atno 8010 bound_to 7997
  139.4879  144.5701  151.7070 H   0  0  0  0  0  0  0  0  0  0  0  0  # atno 10167 bound_to 10162
  156.1926  130.4153  149.9351 H   0  0  0  0  0  0  0  0  0  0  0  0  # atno 10718 bound_to 10713
  154.3105  135.2757  155.2568 H   0  0  0  0  0  0  0  0  0  0  0  0  # atno 10763 bound_to 10752
  154.4965  135.5819  153.6502 H   0  0  0  0  0  0  0  0  0  0  0  0  # atno 10764 bound_to 10752
  152.9888  135.6147  154.3282 H   0  0  0  0  0  0  0  0  0  0  0  0  # atno 10765 bound_to 10752
  140.8330  134.2493  157.4847 H   0  0  0  0  0  0  0  0  0  0  0  0  # atno 11005 bound_to 11000
  146.2291  140.5691  142.8983 LP  0  0  0  0  0  0  0  0  0  0  0  0  # atno 17320 bound_to 7965
  144.7840  140.5900  143.6586 LP  0  0  0  0  0  0  0  0  0  0  0  0  # atno 17321 bound_to 7965
  140.5287  144.0765  150.6046 LP  0  0  0  0  0  0  0  0  0  0  0  0  # atno 17342 bound_to 10162
  140.3748  143.2835  152.0238 LP  0  0  0  0  0  0  0  0  0  0  0  0  # atno 17343 bound_to 10162
  156.7086  130.8961  151.3607 LP  0  0  0  0  0  0  0  0  0  0  0  0  # atno 17370 bound_to 10713
  157.6938  130.9261  150.0587 LP  0  0  0  0  0  0  0  0  0  0  0  0  # atno 17371 bound_to 10713
  139.8704  134.9596  156.4337 LP  0  0  0  0  0  0  0  0  0  0  0  0  # atno 17394 bound_to 11000
  140.8977  133.7802  155.9644 LP  0  0  0  0  0  0  0  0  0  0  0  0  # atno 17395 bound_to 11000

$$$$
