AV-unprocessed.smi:329|AV-procd|sdf|2348|dock3
  -GOLD-   2262022263D 1   1.00000     0.00000
 Structure written by MMmdl.
 18 18  0  0  0  0  0  0  0  0  1 V2000
  142.5687  132.4789  149.8431 N   0  0  0  0  0  0  0  0  0  0  0  0
  143.8247  132.5172  150.2940 C   0  0  0  0  0  0  0  0  0  0  0  0
  144.4467  131.4927  150.5726 O   0  0  0  0  0  0  0  0  0  0  0  0
  144.4496  133.9098  150.4521 C   0  0  0  0  0  0  0  0  0  0  0  0
  143.7696  134.7269  151.4444 N   0  0  0  0  0  0  0  0  0  0  0  0
  143.9095  136.0789  151.6828 C   0  0  0  0  0  0  0  0  0  0  0  0
  143.0639  136.3998  152.7058 C   0  0  0  0  0  0  0  0  0  0  0  0
  142.8770  137.6737  153.2743 N   0  0  0  0  0  0  0  0  0  0  0  0
  142.4433  135.1620  153.0343 C   0  0  0  0  0  0  0  0  0  0  0  0
  142.8689  134.1621  152.2789 N   0  0  0  0  0  0  0  0  0  0  0  0
  142.1097  131.5882  149.7187 H   0  0  0  0  0  0  0  0  0  0  0  0
  142.0827  133.3370  149.6265 H   0  0  0  0  0  0  0  0  0  0  0  0
  145.5008  133.8101  150.7277 H   0  0  0  0  0  0  0  0  0  0  0  0
  144.4162  134.4314  149.4948 H   0  0  0  0  0  0  0  0  0  0  0  0
  144.5879  136.6911  151.1069 H   0  0  0  0  0  0  0  0  0  0  0  0
  143.3841  138.4831  152.9460 H   0  0  0  0  0  0  0  0  0  0  0  0
  142.2780  137.8181  154.0745 H   0  0  0  0  0  0  0  0  0  0  0  0
  141.7020  134.9613  153.7937 H   0  0  0  0  0  0  0  0  0  0  0  0
  1  2  1  0  0  0  0
  1 11  1  0  0  0  0
  1 12  1  0  0  0  0
  2  3  2  0  0  0  0
  2  4  1  0  0  0  0
  4  5  1  0  0  0  0
  4 13  1  0  0  0  0
  4 14  1  0  0  0  0
  5 10  1  0  0  0  0
  5  6  1  0  0  0  0
  6  7  2  0  0  0  0
  6 15  1  0  0  0  0
  7  8  1  0  0  0  0
  7  9  1  0  0  0  0
  8 16  1  0  0  0  0
  8 17  1  0  0  0  0
  9 10  2  0  0  0  0
  9 18  1  0  0  0  0
M  END
> <s_m_source_file>
AV-unprocessed.smi

> <i_m_source_file_index>
329

> <i_lp_mmshare_version>
43012

> <i_f3d_flags>
0

> <s_epik_input>
W05IMl1DKD1PKVtDSDJdbjFbY0hdYyhbTkgyXSlbY0hdbjE=

> <s_epik_cmdline>
J2VwaWtfcHl0aG9uJywgJy1waCcsICc3LjAnLCAnLXRuJywgJzgnLCAnLW1hJywgJzIwMCcsICctbWV0YWxfYmluZGluZycsICctaW1hZScsICc8aW5maWxlLm1hZT4nLCAnLW9tYWUnLCAnPG91dGZpbGUubWFlPic=

> <r_lp_tautomer_probability>
1

> <r_epik_Ionization_Penalty>
9.33273e-05

> <r_epik_Ionization_Penalty_Charging>
0

> <r_epik_Ionization_Penalty_Neutral>
9.33273e-05

> <r_epik_State_Penalty>
-0

> <r_epik_Charging_Adjusted_Penalty>
0

> <i_epik_Tot_Q>
0

> <i_epik_Tot_abs_Q>
0

> <r_epik_Metal_State_Penalty>
-0

> <b_epik_Metal_Only>
0

> <s_lp_Force_Field>
OPLS_2005

> <r_lp_Energy>
3.96238

> <b_lp_Chiralities_Consistent>
1

> <s_lp_Variant>
AV-unprocessed.smi:329-1

> <Gold.Version>
5.8.1

> <Gold.Id.Protein>
6NUR|6NUR_protein|mol2

> <Gold.PLP.Fitness>
30.2494

> <Gold.PLP.PLP>
-18.8282

> <Gold.PLP.part.hbond>
-3.0000

> <Gold.PLP.part.metal>
0.0000

> <Gold.PLP.part.buried>
-4.6866

> <Gold.PLP.part.nonpolar>
-11.4349

> <Gold.PLP.part.repulsive>
0.4750

> <Gold.PLP.ligand.clash>
0.0000

> <Gold.PLP.ligand.torsion>
0.1457

> <Gold.PLP.Chemscore.Hbond>
3.0000

> <Gold.PLP.Chemscore.CHOScore>
0.9041

> <Gold.PLP.Chemscore.Metal>
0.0000

> <Gold.Chemscore.Hbonds>
donor molecule, donor type, donor heavy atom, donor atom, acceptor molecule, acceptor atom, score
      L1  H     1    11       P1 10952  1.00
      L1  H     1    12       P1 10186  0.99
      L1  H     8    16       P1 10175  1.00
      L1  C     6    15       P1 10171  0.86

> <Gold.PLP.Chemscore.Internal.Correction>
0.0002

> <Gold.Rescore>
     Score         DG    S(hbond)    S(metal)    S(lipo)     H(rot)  DE(clash)    DE(int)     intcor
     13.14     -13.50       2.93        0.00      20.41       1.63       0.07       0.29       ----

> <Gold.Chemscore.Fitness>
13.1448

> <Gold.Chemscore.DG>
-13.5045

> <Gold.Chemscore.ZeroCoef>
-5.4800

> <Gold.Chemscore.Hbond>
2.9348

> <Gold.Chemscore.Metal>
0.0000

> <Gold.Chemscore.Lipo>
20.4132

> <Gold.Chemscore.Internal_Hbond>
0.0000

> <Gold.Chemscore.DEClash>
0.0650

> <Gold.Chemscore.DEInternal>
0.2947

> <Gold.Chemscore.Rot>
1.6274

> <Gold.Chemscore.Internal.Correction>
   9.000000E+99

> <Gold.Chemscore.Hbonds>
donor molecule, donor type, donor heavy atom, donor atom, acceptor molecule, acceptor atom, score
      L1  H     1    11       P1 10952  0.99
      L1  H     1    12       P1 10186  0.92
      L1  H     8    16       P1 10175  0.92

> <Gold.Chemscore.Hbond.Weighted>
-9.8024

> <Gold.Chemscore.Metal.Weighted>
-0.0000

> <Gold.Chemscore.Lipo.Weighted>
-2.3883

> <Gold.Chemscore.Internal_Hbond.Weighted>
0.0000

> <Gold.Chemscore.DEClash.Weighted>
0.0650

> <Gold.Chemscore.DEInternal.Weighted>
0.2947

> <Gold.Chemscore.Rot.Weighted>
4.1662

> <Gold.Chemscore.Internal.Correction.Weighted>
   9.000000E+99

> <Gold.Protein.RotatedTorsions>
[ 6907 6896 6895 6894 ] final   54.57 input  -60.11 | X-H torsion
[ 7974 7965 7964 7962 ] final   85.60 input  175.53 | X-H torsion
[ 8008 7997 7996 7995 ] final  -37.36 input   59.86 | X-H torsion
[ 10167 10162 10161 10158 ] final   22.89 input  -65.29 | X-H torsion
[ 10718 10713 10712 10709 ] final  -59.88 input   66.30 | X-H torsion
[ 10763 10752 10751 10750 ] final  132.29 input  -60.55 | X-H torsion
[ 11005 11000 10999 10996 ] final   75.54 input  -57.11 | X-H torsion

> <Gold.Protein.ActiveResidues>
 VAL166  LYS551  ARG553  GLY616  TRP617  ASP618  TYR619  PRO620  LYS621  CYS622 
 ASP623  PHE694  ASN695  SER759  ASP760  ASP761  ALA762  ILE779  LEU786  VAL792 
 PHE793  MET794  SER795  GLU796  ALA797  LYS798  CYS799  TRP800  GLU811  SER814 

> <Gold.Protein.RotatedAtoms>
  152.3452  134.7081  160.0252 H   0  0  0  0  0  0  0  0  0  0  0  0  # atno 6907 bound_to 6896
  151.7453  133.3319  159.3385 H   0  0  0  0  0  0  0  0  0  0  0  0  # atno 6908 bound_to 6896
  150.7504  134.6174  159.6162 H   0  0  0  0  0  0  0  0  0  0  0  0  # atno 6909 bound_to 6896
  145.5834  139.2328  143.2340 H   0  0  0  0  0  0  0  0  0  0  0  0  # atno 7974 bound_to 7965
  154.4055  140.1606  156.2524 H   0  0  0  0  0  0  0  0  0  0  0  0  # atno 8008 bound_to 7997
  155.9107  140.3427  155.6074 H   0  0  0  0  0  0  0  0  0  0  0  0  # atno 8009 bound_to 7997
  155.7339  140.0784  157.2267 H   0  0  0  0  0  0  0  0  0  0  0  0  # atno 8010 bound_to 7997
  140.5313  143.9837  150.6467 H   0  0  0  0  0  0  0  0  0  0  0  0  # atno 10167 bound_to 10162
  156.1030  130.4184  150.0777 H   0  0  0  0  0  0  0  0  0  0  0  0  # atno 10718 bound_to 10713
  153.7883  135.3159  155.3375 H   0  0  0  0  0  0  0  0  0  0  0  0  # atno 10763 bound_to 10752
  154.8135  135.4651  154.0584 H   0  0  0  0  0  0  0  0  0  0  0  0  # atno 10764 bound_to 10752
  153.1894  135.6906  153.8459 H   0  0  0  0  0  0  0  0  0  0  0  0  # atno 10765 bound_to 10752
  139.9339  134.7526  156.1283 H   0  0  0  0  0  0  0  0  0  0  0  0  # atno 11005 bound_to 11000
  146.1699  140.6661  142.9238 LP  0  0  0  0  0  0  0  0  0  0  0  0  # atno 17320 bound_to 7965
  144.7383  140.4872  143.6887 LP  0  0  0  0  0  0  0  0  0  0  0  0  # atno 17321 bound_to 7965
  140.3212  143.3136  152.0782 LP  0  0  0  0  0  0  0  0  0  0  0  0  # atno 17342 bound_to 10162
  139.4955  144.6572  151.6546 LP  0  0  0  0  0  0  0  0  0  0  0  0  # atno 17343 bound_to 10162
  156.8760  130.9540  151.3604 LP  0  0  0  0  0  0  0  0  0  0  0  0  # atno 17370 bound_to 10713
  157.6202  130.8649  149.9097 LP  0  0  0  0  0  0  0  0  0  0  0  0  # atno 17371 bound_to 10713
  141.0943  133.6702  156.2609 LP  0  0  0  0  0  0  0  0  0  0  0  0  # atno 17394 bound_to 11000
  140.6127  134.5441  157.5536 LP  0  0  0  0  0  0  0  0  0  0  0  0  # atno 17395 bound_to 11000

$$$$
