AV-unprocessed.smi:2568|AV-procd|sdf|10094|dock6
  -GOLD-   2272014113D 1   1.00000     0.00000
 Structure written by MMmdl.
 25 26  0  0  0  0  0  0  0  0  2 V2000
  149.4849  132.6949  154.0802 C   0  0  0  0  0  0  0  0  0  0  0  0
  148.2452  133.2170  153.4366 C   0  0  0  0  0  0  0  0  0  0  0  0
  147.3264  133.9735  154.0438 N   0  0  0  0  0  0  0  0  0  0  0  0
  146.3613  134.2232  153.0831 N   0  0  0  0  0  0  0  0  0  0  0  0
  146.7824  133.5935  151.9809 C   0  0  0  0  0  0  0  0  0  0  0  0
  146.0651  133.5885  150.6676 C   0  0  2  0  0  0  0  0  0  0  0  0
  144.6854  134.2702  150.7485 C   0  0  0  0  0  0  0  0  0  0  0  0
  143.9835  134.1449  149.4562 N   0  3  0  0  0  0  0  0  0  0  0  0
  143.8892  132.7354  149.0274 C   0  0  0  0  0  0  0  0  0  0  0  0
  145.2879  132.0941  149.0035 C   0  0  0  0  0  0  0  0  0  0  0  0
  145.8991  132.2258  150.2830 O   0  0  0  0  0  0  0  0  0  0  0  0
  147.9514  132.9588  152.1544 N   0  0  0  0  0  0  0  0  0  0  0  0
  148.4803  132.4162  151.4870 H   0  0  0  0  0  0  0  0  0  0  0  0
  149.4664  132.8848  155.1539 H   0  0  0  0  0  0  0  0  0  0  0  0
  150.3615  133.1838  153.6549 H   0  0  0  0  0  0  0  0  0  0  0  0
  149.5681  131.6196  153.9197 H   0  0  0  0  0  0  0  0  0  0  0  0
  146.6903  134.0950  149.9295 H   0  0  0  0  0  0  0  0  0  0  0  0
  144.0767  133.8093  151.5279 H   0  0  0  0  0  0  0  0  0  0  0  0
  144.7900  135.3251  151.0034 H   0  0  0  0  0  0  0  0  0  0  0  0
  143.0547  134.5338  149.5391 H   0  0  0  0  0  0  0  0  0  0  0  0
  143.2389  132.1942  149.7161 H   0  0  0  0  0  0  0  0  0  0  0  0
  143.4264  132.6861  148.0415 H   0  0  0  0  0  0  0  0  0  0  0  0
  145.2123  131.0354  148.7548 H   0  0  0  0  0  0  0  0  0  0  0  0
  145.9155  132.5561  148.2396 H   0  0  0  0  0  0  0  0  0  0  0  0
  144.4959  134.6628  148.7565 H   0  0  0  0  0  0  0  0  0  0  0  0
  1 14  1  0  0  0  0
  1 15  1  0  0  0  0
  1 16  1  0  0  0  0
  1  2  1  0  0  0  0
  2  3  2  0  0  0  0
  2 12  1  0  0  0  0
  3  4  1  0  0  0  0
  4  5  2  0  0  0  0
  5 12  1  0  0  0  0
  5  6  1  0  0  0  0
  6 11  1  0  0  0  0
  6  7  1  0  0  0  0
  6 17  1  0  0  0  0
  7  8  1  0  0  0  0
  7 18  1  0  0  0  0
  7 19  1  0  0  0  0
  8  9  1  0  0  0  0
  8 20  1  0  0  0  0
  8 25  1  0  0  0  0
  9 10  1  0  0  0  0
  9 21  1  0  0  0  0
  9 22  1  0  0  0  0
 10 11  1  0  0  0  0
 10 23  1  0  0  0  0
 10 24  1  0  0  0  0
 12 13  1  0  0  0  0
M  CHG  1   8   1
M  END
> <s_m_source_file>
AV-unprocessed.smi

> <i_m_source_file_index>
2568

> <i_lp_mmshare_version>
43012

> <i_f3d_flags>
0

> <s_epik_input>
W0NIM11jMW5bbkhdYyhuMSlbQ0BASF0yW0NIMl1bTkhdW0NIMl1bQ0gyXU8y

> <s_epik_cmdline>
J2VwaWtfcHl0aG9uJywgJy1waCcsICc3LjAnLCAnLXRuJywgJzgnLCAnLW1hJywgJzIwMCcsICctbWV0YWxfYmluZGluZycsICctaW1hZScsICc8aW5maWxlLm1hZT4nLCAnLW9tYWUnLCAnPG91dGZpbGUubWFlPic=

> <r_lp_tautomer_probability>
0.0517155

> <r_epik_Ionization_Penalty>
0.290065

> <r_epik_Ionization_Penalty_Charging>
0.125708

> <r_epik_Ionization_Penalty_Neutral>
0.164357

> <r_epik_State_Penalty>
2.14308

> <r_epik_Charging_Adjusted_Penalty>
2.26879

> <i_epik_Tot_Q>
1

> <i_epik_Tot_abs_Q>
1

> <r_epik_Metal_State_Penalty>
2.44434

> <b_epik_Metal_Only>
0

> <s_lp_Force_Field>
OPLS_2005

> <r_lp_Energy>
13.5699

> <b_lp_Chiralities_Consistent>
1

> <s_lp_Variant>
AV-unprocessed.smi:2568-7

> <Gold.Version>
5.8.1

> <Gold.Id.Protein>
6NUR|6NUR_protein|mol2

> <Gold.PLP.Fitness>
35.9504

> <Gold.PLP.PLP>
-24.2620

> <Gold.PLP.part.hbond>
-3.0000

> <Gold.PLP.part.metal>
0.0000

> <Gold.PLP.part.buried>
-3.3386

> <Gold.PLP.part.nonpolar>
-18.1502

> <Gold.PLP.part.repulsive>
0.4435

> <Gold.PLP.ligand.clash>
0.0000

> <Gold.PLP.ligand.torsion>
0.0701

> <Gold.PLP.Chemscore.Hbond>
3.9425

> <Gold.PLP.Chemscore.CHOScore>
0.0000

> <Gold.PLP.Chemscore.Metal>
0.0000

> <Gold.Chemscore.Hbonds>
donor molecule, donor type, donor heavy atom, donor atom, acceptor molecule, acceptor atom, score
      L1  H     8    20       P1 10186  1.95
      L1  H     8    25       P1  7921  0.96
      L1  H    12    13       P1 10747  1.00

> <Gold.PLP.Chemscore.Internal.Correction>
0.0009

> <Gold.Rescore>
     Score         DG    S(hbond)    S(metal)    S(lipo)     H(rot)  DE(clash)    DE(int)     intcor
     17.93     -18.01       2.89        0.00      46.59       1.00       0.07       0.01       ----

> <Gold.Chemscore.Fitness>
17.9302

> <Gold.Chemscore.DG>
-18.0134

> <Gold.Chemscore.ZeroCoef>
-5.4800

> <Gold.Chemscore.Hbond>
2.8870

> <Gold.Chemscore.Metal>
0.0000

> <Gold.Chemscore.Lipo>
46.5873

> <Gold.Chemscore.Internal_Hbond>
0.0000

> <Gold.Chemscore.DEClash>
0.0727

> <Gold.Chemscore.DEInternal>
0.0105

> <Gold.Chemscore.Rot>
1.0000

> <Gold.Chemscore.Internal.Correction>
   9.000000E+99

> <Gold.Chemscore.Hbonds>
donor molecule, donor type, donor heavy atom, donor atom, acceptor molecule, acceptor atom, score
      L1  H     8    20       P1 10186  0.87
      L1  H     8    25       P1  7921  0.90
      L1  H    12    13       P1 10747  0.94

> <Gold.Chemscore.Hbond.Weighted>
-9.6427

> <Gold.Chemscore.Metal.Weighted>
-0.0000

> <Gold.Chemscore.Lipo.Weighted>
-5.4507

> <Gold.Chemscore.Internal_Hbond.Weighted>
0.0000

> <Gold.Chemscore.DEClash.Weighted>
0.0727

> <Gold.Chemscore.DEInternal.Weighted>
0.0105

> <Gold.Chemscore.Rot.Weighted>
2.5600

> <Gold.Chemscore.Internal.Correction.Weighted>
   9.000000E+99

> <Gold.Protein.RotatedTorsions>
[ 6907 6896 6895 6894 ] final    0.46 input  -60.11 | X-H torsion
[ 7974 7965 7964 7962 ] final  -83.08 input  175.53 | X-H torsion
[ 8008 7997 7996 7995 ] final   34.21 input   59.86 | X-H torsion
[ 10167 10162 10161 10158 ] final -139.62 input  -65.29 | X-H torsion
[ 10718 10713 10712 10709 ] final   71.48 input   66.30 | X-H torsion
[ 10763 10752 10751 10750 ] final  169.91 input  -60.55 | X-H torsion
[ 11005 11000 10999 10996 ] final -161.76 input  -57.11 | X-H torsion

> <Gold.Protein.ActiveResidues>
 VAL166  LYS551  ARG553  GLY616  TRP617  ASP618  TYR619  PRO620  LYS621  CYS622 
 ASP623  PHE694  ASN695  SER759  ASP760  ASP761  ALA762  ILE779  LEU786  VAL792 
 PHE793  MET794  SER795  GLU796  ALA797  LYS798  CYS799  TRP800  GLU811  SER814 

> <Gold.Protein.RotatedAtoms>
  151.5768  135.1060  160.0007 H   0  0  0  0  0  0  0  0  0  0  0  0  # atno 6907 bound_to 6896
  152.4374  133.7381  159.6636 H   0  0  0  0  0  0  0  0  0  0  0  0  # atno 6908 bound_to 6896
  150.8273  133.8080  159.3136 H   0  0  0  0  0  0  0  0  0  0  0  0  # atno 6909 bound_to 6896
  145.5247  140.9527  143.1635 H   0  0  0  0  0  0  0  0  0  0  0  0  # atno 7974 bound_to 7965
  155.1511  140.3275  155.4431 H   0  0  0  0  0  0  0  0  0  0  0  0  # atno 8008 bound_to 7997
  156.2574  140.1976  156.6573 H   0  0  0  0  0  0  0  0  0  0  0  0  # atno 8009 bound_to 7997
  154.6472  140.0563  156.9901 H   0  0  0  0  0  0  0  0  0  0  0  0  # atno 8010 bound_to 7997
  139.8361  143.7383  152.2665 H   0  0  0  0  0  0  0  0  0  0  0  0  # atno 10167 bound_to 10162
  157.6454  130.9530  150.0796 H   0  0  0  0  0  0  0  0  0  0  0  0  # atno 10718 bound_to 10713
  154.3899  135.2754  155.2161 H   0  0  0  0  0  0  0  0  0  0  0  0  # atno 10763 bound_to 10752
  154.4231  135.5995  153.6026 H   0  0  0  0  0  0  0  0  0  0  0  0  # atno 10764 bound_to 10752
  152.9832  135.5977  154.4153 H   0  0  0  0  0  0  0  0  0  0  0  0  # atno 10765 bound_to 10752
  140.6168  134.4792  157.5220 H   0  0  0  0  0  0  0  0  0  0  0  0  # atno 11005 bound_to 11000
  144.7657  139.6851  143.7216 LP  0  0  0  0  0  0  0  0  0  0  0  0  # atno 17320 bound_to 7965
  146.2083  139.5422  142.9698 LP  0  0  0  0  0  0  0  0  0  0  0  0  # atno 17321 bound_to 7965
  139.7605  144.7508  151.0370 LP  0  0  0  0  0  0  0  0  0  0  0  0  # atno 17342 bound_to 10162
  140.7802  143.4756  151.0087 LP  0  0  0  0  0  0  0  0  0  0  0  0  # atno 17343 bound_to 10162
  156.1776  130.3649  149.9079 LP  0  0  0  0  0  0  0  0  0  0  0  0  # atno 17370 bound_to 10713
  156.7039  130.8944  151.3602 LP  0  0  0  0  0  0  0  0  0  0  0  0  # atno 17371 bound_to 10713
  139.9169  134.8227  156.1336 LP  0  0  0  0  0  0  0  0  0  0  0  0  # atno 17394 bound_to 11000
  141.0770  133.6771  156.2256 LP  0  0  0  0  0  0  0  0  0  0  0  0  # atno 17395 bound_to 11000

$$$$
