AV-unprocessed.smi:654|AV-procd|sdf|3213|dock7
  -GOLD-   22720 0153D 1   1.00000     0.00000
 Structure written by MMmdl.
 48 50  0  0  0  0  0  0  0  0  2 V2000
  150.0848  132.8387  157.9755 O   0  0  0  0  0  0  0  0  0  0  0  0
  148.9342  132.6124  157.5993 C   0  0  0  0  0  0  0  0  0  0  0  0
  148.6014  132.5996  156.2974 N   0  0  0  0  0  0  0  0  0  0  0  0
  149.5196  132.8290  155.1856 C   0  0  0  0  0  0  0  0  0  0  0  0
  149.1267  132.0580  153.9094 C   0  0  0  0  0  0  0  0  0  0  0  0
  147.7710  132.4559  153.3513 C   0  0  0  0  0  0  0  0  0  0  0  0
  147.6712  133.1145  152.1061 C   0  0  0  0  0  0  0  0  0  0  0  0
  146.3996  133.4802  151.6170 C   0  0  0  0  0  0  0  0  0  0  0  0
  145.2561  133.1777  152.3844 C   0  0  0  0  0  0  0  0  0  0  0  0
  145.3905  132.5455  153.5708 N   0  3  0  0  0  0  0  0  0  0  0  0
  146.5895  132.1787  154.0734 C   0  0  0  0  0  0  0  0  0  0  0  0
  147.9069  132.3647  158.4522 N   0  0  0  0  0  0  0  0  0  0  0  0
  146.5066  132.1164  158.0754 C   0  0  0  0  0  0  0  0  0  0  0  0
  145.6826  133.3772  158.3653 C   0  0  0  0  0  0  0  0  0  0  0  0
  145.6886  133.7574  160.1441 S   0  0  0  0  0  0  0  0  0  0  0  0
  147.4804  133.6960  160.5301 C   0  0  0  0  0  0  0  0  0  0  0  0
  148.1994  134.9628  159.9916 C   0  0  0  0  0  0  0  0  0  0  0  0
  147.7910  136.2553  160.7215 C   0  0  0  0  0  0  0  0  0  0  0  0
  148.0061  136.1342  162.2355 C   0  0  0  0  0  0  0  0  0  0  0  0
  147.2583  134.9182  162.7969 C   0  0  0  0  0  0  0  0  0  0  0  0
  147.6675  133.6262  162.0667 C   0  0  0  0  0  0  0  0  0  0  0  0
  148.0768  132.4013  159.9124 C   0  0  0  0  0  0  0  0  0  0  0  0
  147.6366  132.4193  156.0611 H   0  0  0  0  0  0  0  0  0  0  0  0
  149.5122  133.8993  154.9784 H   0  0  0  0  0  0  0  0  0  0  0  0
  150.5400  132.5809  155.4821 H   0  0  0  0  0  0  0  0  0  0  0  0
  149.8847  132.2114  153.1404 H   0  0  0  0  0  0  0  0  0  0  0  0
  149.1228  130.9867  154.1140 H   0  0  0  0  0  0  0  0  0  0  0  0
  148.5587  133.3404  151.5329 H   0  0  0  0  0  0  0  0  0  0  0  0
  146.3033  133.9857  150.6671 H   0  0  0  0  0  0  0  0  0  0  0  0
  144.2461  133.4203  152.0875 H   0  0  0  0  0  0  0  0  0  0  0  0
  146.5679  131.6834  155.0336 H   0  0  0  0  0  0  0  0  0  0  0  0
  146.3827  131.8237  157.0327 H   0  0  0  0  0  0  0  0  0  0  0  0
  146.1125  131.2758  158.6482 H   0  0  0  0  0  0  0  0  0  0  0  0
  146.0747  134.2295  157.8096 H   0  0  0  0  0  0  0  0  0  0  0  0
  144.6503  133.2374  158.0447 H   0  0  0  0  0  0  0  0  0  0  0  0
  149.2774  134.8328  160.0958 H   0  0  0  0  0  0  0  0  0  0  0  0
  148.0175  135.0900  158.9249 H   0  0  0  0  0  0  0  0  0  0  0  0
  148.3691  137.0946  160.3342 H   0  0  0  0  0  0  0  0  0  0  0  0
  146.7453  136.4859  160.5162 H   0  0  0  0  0  0  0  0  0  0  0  0
  149.0718  136.0398  162.4482 H   0  0  0  0  0  0  0  0  0  0  0  0
  147.6691  137.0432  162.7346 H   0  0  0  0  0  0  0  0  0  0  0  0
  147.4648  134.8192  163.8628 H   0  0  0  0  0  0  0  0  0  0  0  0
  146.1829  135.0754  162.7096 H   0  0  0  0  0  0  0  0  0  0  0  0
  147.1044  132.7858  162.4742 H   0  0  0  0  0  0  0  0  0  0  0  0
  148.7148  133.4222  162.2942 H   0  0  0  0  0  0  0  0  0  0  0  0
  147.5945  131.5255  160.3495 H   0  0  0  0  0  0  0  0  0  0  0  0
  149.1266  132.3061  160.1948 H   0  0  0  0  0  0  0  0  0  0  0  0
  144.5504  132.3356  154.1107 H   0  0  0  0  0  0  0  0  0  0  0  0
  1  2  2  0  0  0  0
  2  3  1  0  0  0  0
  2 12  1  0  0  0  0
  3  4  1  0  0  0  0
  3 23  1  0  0  0  0
  4  5  1  0  0  0  0
  4 24  1  0  0  0  0
  4 25  1  0  0  0  0
  5  6  1  0  0  0  0
  5 26  1  0  0  0  0
  5 27  1  0  0  0  0
  6 11  1  0  0  0  0
  6  7  2  0  0  0  0
  7  8  1  0  0  0  0
  7 28  1  0  0  0  0
  8  9  2  0  0  0  0
  8 29  1  0  0  0  0
  9 10  1  0  0  0  0
  9 30  1  0  0  0  0
 10 11  2  0  0  0  0
 10 48  1  0  0  0  0
 11 31  1  0  0  0  0
 12 22  1  0  0  0  0
 12 13  1  0  0  0  0
 13 14  1  0  0  0  0
 13 32  1  0  0  0  0
 13 33  1  0  0  0  0
 14 15  1  0  0  0  0
 14 34  1  0  0  0  0
 14 35  1  0  0  0  0
 15 16  1  0  0  0  0
 16 21  1  0  0  0  0
 16 17  1  0  0  0  0
 16 22  1  0  0  0  0
 17 18  1  0  0  0  0
 17 36  1  0  0  0  0
 17 37  1  0  0  0  0
 18 19  1  0  0  0  0
 18 38  1  0  0  0  0
 18 39  1  0  0  0  0
 19 20  1  0  0  0  0
 19 40  1  0  0  0  0
 19 41  1  0  0  0  0
 20 21  1  0  0  0  0
 20 42  1  0  0  0  0
 20 43  1  0  0  0  0
 21 44  1  0  0  0  0
 21 45  1  0  0  0  0
 22 46  1  0  0  0  0
 22 47  1  0  0  0  0
M  CHG  1  10   1
M  END
> <s_m_source_file>
AV-unprocessed.smi

> <i_m_source_file_index>
654

> <i_lp_mmshare_version>
43012

> <i_f3d_flags>
0

> <s_epik_input>
W2NIXTFuW2NIXVtjSF1bY0hdYzFbQ0gyXVtDSDJdW05IXUMoPU8pTihbQ0gyXTIpW0NIMl1bQ0gyXVNDMjNbQ0gyXVtDSDJdW0NIMl1bQ0gyXVtDSDJdMw==

> <s_epik_cmdline>
J2VwaWtfcHl0aG9uJywgJy1waCcsICc3LjAnLCAnLXRuJywgJzgnLCAnLW1hJywgJzIwMCcsICctbWV0YWxfYmluZGluZycsICctaW1hZScsICc8aW5maWxlLm1hZT4nLCAnLW9tYWUnLCAnPG91dGZpbGUubWFlPic=

> <r_epik_Ionization_Penalty>
2.2093

> <r_epik_Ionization_Penalty_Charging>
2.20925

> <r_epik_Ionization_Penalty_Neutral>
4.66963e-05

> <r_epik_State_Penalty>
2.35335

> <r_epik_Charging_Adjusted_Penalty>
4.5626

> <i_epik_Tot_Q>
1

> <i_epik_Tot_abs_Q>
1

> <r_epik_Metal_State_Penalty>
2.36748

> <b_epik_Metal_Only>
0

> <s_lp_Force_Field>
OPLS_2005

> <r_lp_Energy>
39.5462

> <b_lp_Chiralities_Consistent>
1

> <s_lp_Variant>
AV-unprocessed.smi:654-2

> <Gold.Version>
5.8.1

> <Gold.Id.Protein>
6NUR|6NUR_protein|mol2

> <Gold.PLP.Fitness>
43.4656

> <Gold.PLP.PLP>
-34.9286

> <Gold.PLP.part.hbond>
-2.0000

> <Gold.PLP.part.metal>
0.0000

> <Gold.PLP.part.buried>
-3.8309

> <Gold.PLP.part.nonpolar>
-29.4830

> <Gold.PLP.part.repulsive>
0.0019

> <Gold.PLP.ligand.clash>
0.0000

> <Gold.PLP.ligand.torsion>
0.2344

> <Gold.PLP.Chemscore.Hbond>
3.0000

> <Gold.PLP.Chemscore.CHOScore>
0.0000

> <Gold.PLP.Chemscore.Metal>
0.0000

> <Gold.Chemscore.Hbonds>
donor molecule, donor type, donor heavy atom, donor atom, acceptor molecule, acceptor atom, score
      L1  H    10    48       P1 10957  1.85
      P1  H  6896  6909       L1     1  1.00

> <Gold.PLP.Chemscore.Internal.Correction>
0.0058

> <Gold.Rescore>
     Score         DG    S(hbond)    S(metal)    S(lipo)     H(rot)  DE(clash)    DE(int)     intcor
     17.61     -18.89       1.89        0.00      88.98       1.30       0.00       1.28       ----

> <Gold.Chemscore.Fitness>
17.6137

> <Gold.Chemscore.DG>
-18.8940

> <Gold.Chemscore.ZeroCoef>
-5.4800

> <Gold.Chemscore.Hbond>
1.8920

> <Gold.Chemscore.Metal>
0.0000

> <Gold.Chemscore.Lipo>
88.9784

> <Gold.Chemscore.Internal_Hbond>
0.0000

> <Gold.Chemscore.DEClash>
0.0000

> <Gold.Chemscore.DEInternal>
1.2803

> <Gold.Chemscore.Rot>
1.2953

> <Gold.Chemscore.Internal.Correction>
   9.000000E+99

> <Gold.Chemscore.Hbonds>
donor molecule, donor type, donor heavy atom, donor atom, acceptor molecule, acceptor atom, score
      L1  H    10    48       P1 10957  0.35
      P1  H  6896  6909       L1     1  1.00

> <Gold.Chemscore.Hbond.Weighted>
-6.3194

> <Gold.Chemscore.Metal.Weighted>
-0.0000

> <Gold.Chemscore.Lipo.Weighted>
-10.4105

> <Gold.Chemscore.Internal_Hbond.Weighted>
0.0000

> <Gold.Chemscore.DEClash.Weighted>
0.0000

> <Gold.Chemscore.DEInternal.Weighted>
1.2803

> <Gold.Chemscore.Rot.Weighted>
3.3159

> <Gold.Chemscore.Internal.Correction.Weighted>
   9.000000E+99

> <Gold.Protein.RotatedTorsions>
[ 6907 6896 6895 6894 ] final  -21.85 input  -60.11 | X-H torsion
[ 7974 7965 7964 7962 ] final   55.34 input  175.53 | X-H torsion
[ 8008 7997 7996 7995 ] final -114.84 input   59.86 | X-H torsion
[ 10167 10162 10161 10158 ] final  -76.82 input  -65.29 | X-H torsion
[ 10718 10713 10712 10709 ] final   42.64 input   66.30 | X-H torsion
[ 10763 10752 10751 10750 ] final -131.45 input  -60.55 | X-H torsion
[ 11005 11000 10999 10996 ] final  108.14 input  -57.11 | X-H torsion

> <Gold.Protein.ActiveResidues>
 VAL166  LYS551  ARG553  GLY616  TRP617  ASP618  TYR619  PRO620  LYS621  CYS622 
 ASP623  PHE694  ASN695  SER759  ASP760  ASP761  ALA762  ILE779  LEU786  VAL792 
 PHE793  MET794  SER795  GLU796  ALA797  LYS798  CYS799  TRP800  GLU811  SER814 

> <Gold.Protein.RotatedAtoms>
  151.2273  135.0541  159.8973 H   0  0  0  0  0  0  0  0  0  0  0  0  # atno 6907 bound_to 6896
  152.5409  134.0575  159.8147 H   0  0  0  0  0  0  0  0  0  0  0  0  # atno 6908 bound_to 6896
  151.0750  133.5387  159.2656 H   0  0  0  0  0  0  0  0  0  0  0  0  # atno 6909 bound_to 6896
  145.9514  139.3976  143.0303 H   0  0  0  0  0  0  0  0  0  0  0  0  # atno 7974 bound_to 7965
  155.0426  140.0392  157.2515 H   0  0  0  0  0  0  0  0  0  0  0  0  # atno 8008 bound_to 7997
  154.7203  140.2710  155.6523 H   0  0  0  0  0  0  0  0  0  0  0  0  # atno 8009 bound_to 7997
  156.2815  140.2704  156.1873 H   0  0  0  0  0  0  0  0  0  0  0  0  # atno 8010 bound_to 7997
  140.4824  143.2399  151.8037 H   0  0  0  0  0  0  0  0  0  0  0  0  # atno 10167 bound_to 10162
  157.4071  130.7893  149.7398 H   0  0  0  0  0  0  0  0  0  0  0  0  # atno 10718 bound_to 10713
  154.8750  135.3830  154.4248 H   0  0  0  0  0  0  0  0  0  0  0  0  # atno 10763 bound_to 10752
  153.4948  135.7030  153.5869 H   0  0  0  0  0  0  0  0  0  0  0  0  # atno 10764 bound_to 10752
  153.4227  135.3897  155.2088 H   0  0  0  0  0  0  0  0  0  0  0  0  # atno 10765 bound_to 10752
  139.8839  134.9422  156.5927 H   0  0  0  0  0  0  0  0  0  0  0  0  # atno 11005 bound_to 11000
  145.8166  140.9700  143.0921 LP  0  0  0  0  0  0  0  0  0  0  0  0  # atno 17320 bound_to 7965
  144.6796  139.9988  143.7484 LP  0  0  0  0  0  0  0  0  0  0  0  0  # atno 17321 bound_to 7965
  139.4836  144.4756  151.9371 LP  0  0  0  0  0  0  0  0  0  0  0  0  # atno 17342 bound_to 10162
  140.3841  144.2698  150.5905 LP  0  0  0  0  0  0  0  0  0  0  0  0  # atno 17343 bound_to 10162
  155.9839  130.3996  150.3336 LP  0  0  0  0  0  0  0  0  0  0  0  0  # atno 17370 bound_to 10713
  157.1470  131.0311  151.2902 LP  0  0  0  0  0  0  0  0  0  0  0  0  # atno 17371 bound_to 10713
  140.7943  133.8557  155.8672 LP  0  0  0  0  0  0  0  0  0  0  0  0  # atno 17394 bound_to 11000
  140.9649  134.1607  157.4624 LP  0  0  0  0  0  0  0  0  0  0  0  0  # atno 17395 bound_to 11000

$$$$
