AV-unprocessed.smi:234|AV-procd|sdf|1800|dock8
  -GOLD-   2262020373D 1   1.00000     0.00000
 Structure written by MMmdl.
 59 62  0  0  0  0  0  0  0  0  1 V2000
  150.0139  141.6386  157.0632 C   0  0  0  0  0  0  0  0  0  0  0  0
  151.2928  141.3663  156.2685 C   0  0  0  0  0  0  0  0  0  0  0  0
  150.9675  140.5884  155.1285 O   0  0  0  0  0  0  0  0  0  0  0  0
  150.4791  139.2976  155.4592 C   0  0  1  0  0  0  0  0  0  0  0  0
  149.9344  138.5570  154.2391 C   0  0  0  0  0  0  0  0  0  0  0  0
  150.6041  137.2834  154.7908 C   0  0  2  0  0  0  0  0  0  0  0  0
  149.7496  136.3823  155.5854 N   0  0  0  0  0  0  0  0  0  0  0  0
  148.9727  136.9056  156.7001 C   0  0  0  0  0  0  0  0  0  0  0  0
  149.4589  135.1156  155.2151 C   0  0  0  0  0  0  0  0  0  0  0  0
  150.3699  134.1373  155.4489 N   0  0  0  0  0  0  0  0  0  0  0  0
  150.1060  132.8794  155.0823 C   0  0  0  0  0  0  0  0  0  0  0  0
  149.0219  132.3982  154.4694 N   0  0  0  0  0  0  0  0  0  0  0  0
  148.1149  133.3852  154.2167 C   0  0  0  0  0  0  0  0  0  0  0  0
  148.2539  134.7603  154.5521 C   0  0  0  0  0  0  0  0  0  0  0  0
  147.1338  135.4692  154.1371 N   0  0  0  0  0  0  0  0  0  0  0  0
  146.3708  134.5611  153.5921 C   0  0  0  0  0  0  0  0  0  0  0  0
  146.8870  133.2840  153.5864 N   0  0  0  0  0  0  0  0  0  0  0  0
  146.2576  132.0914  153.0390 C   0  0  0  0  0  0  0  0  0  0  0  0
  145.8766  132.2277  151.5411 C   0  0  2  0  0  0  0  0  0  0  0  0
  147.0269  132.6514  150.8292 O   0  0  0  0  0  0  0  0  0  0  0  0
  144.7678  133.2484  151.2880 C   0  0  0  0  0  0  0  0  0  0  0  0
  144.0502  132.6894  150.0690 C   0  0  0  0  0  0  0  0  0  0  0  0
  144.0585  131.2976  150.3292 O   0  0  0  0  0  0  0  0  0  0  0  0
  145.3382  130.9449  150.8454 C   0  0  2  0  0  0  0  0  0  0  0  0
  145.1737  129.6922  151.7203 C   0  0  0  0  0  0  0  0  0  0  0  0
  151.5606  138.1984  155.6172 C   0  0  0  0  0  0  0  0  0  0  0  0
  152.8978  138.4736  154.9143 C   0  0  0  0  0  0  0  0  0  0  0  0
  151.9141  137.8010  157.0558 C   0  0  0  0  0  0  0  0  0  0  0  0
  150.2272  142.2319  157.9524 H   0  0  0  0  0  0  0  0  0  0  0  0
  149.5475  140.7077  157.3857 H   0  0  0  0  0  0  0  0  0  0  0  0
  149.2893  142.1863  156.4602 H   0  0  0  0  0  0  0  0  0  0  0  0
  151.7497  142.3099  155.9704 H   0  0  0  0  0  0  0  0  0  0  0  0
  152.0125  140.8341  156.8919 H   0  0  0  0  0  0  0  0  0  0  0  0
  149.7500  139.3106  156.2716 H   0  0  0  0  0  0  0  0  0  0  0  0
  148.8507  138.5697  154.1460 H   0  0  0  0  0  0  0  0  0  0  0  0
  150.3961  138.8930  153.3097 H   0  0  0  0  0  0  0  0  0  0  0  0
  151.1333  136.7447  154.0040 H   0  0  0  0  0  0  0  0  0  0  0  0
  149.0901  136.2693  157.5778 H   0  0  0  0  0  0  0  0  0  0  0  0
  147.9125  136.9544  156.4505 H   0  0  0  0  0  0  0  0  0  0  0  0
  149.3051  137.9097  156.9646 H   0  0  0  0  0  0  0  0  0  0  0  0
  150.8738  132.1551  155.3118 H   0  0  0  0  0  0  0  0  0  0  0  0
  145.4056  134.8014  153.1703 H   0  0  0  0  0  0  0  0  0  0  0  0
  146.9355  131.2495  153.1869 H   0  0  0  0  0  0  0  0  0  0  0  0
  145.3716  131.8842  153.6394 H   0  0  0  0  0  0  0  0  0  0  0  0
  147.7334  132.0523  151.0163 H   0  0  0  0  0  0  0  0  0  0  0  0
  144.0686  133.2585  152.1250 H   0  0  0  0  0  0  0  0  0  0  0  0
  145.1278  134.2685  151.1444 H   0  0  0  0  0  0  0  0  0  0  0  0
  143.0358  133.0741  149.9614 H   0  0  0  0  0  0  0  0  0  0  0  0
  144.6033  132.9004  149.1524 H   0  0  0  0  0  0  0  0  0  0  0  0
  145.9688  130.6849  149.9929 H   0  0  0  0  0  0  0  0  0  0  0  0
  146.1279  129.3706  152.1378 H   0  0  0  0  0  0  0  0  0  0  0  0
  144.7806  128.8635  151.1313 H   0  0  0  0  0  0  0  0  0  0  0  0
  144.4791  129.8642  152.5426 H   0  0  0  0  0  0  0  0  0  0  0  0
  153.5299  137.5853  154.9006 H   0  0  0  0  0  0  0  0  0  0  0  0
  153.4598  139.2665  155.4085 H   0  0  0  0  0  0  0  0  0  0  0  0
  152.7576  138.7814  153.8780 H   0  0  0  0  0  0  0  0  0  0  0  0
  152.4609  136.8584  157.0882 H   0  0  0  0  0  0  0  0  0  0  0  0
  151.0277  137.6888  157.6787 H   0  0  0  0  0  0  0  0  0  0  0  0
  152.5388  138.5525  157.5390 H   0  0  0  0  0  0  0  0  0  0  0  0
  1  2  1  0  0  0  0
  1 29  1  0  0  0  0
  1 30  1  0  0  0  0
  1 31  1  0  0  0  0
  2  3  1  0  0  0  0
  2 32  1  0  0  0  0
  2 33  1  0  0  0  0
  3  4  1  0  0  0  0
  4 26  1  0  0  0  0
  4  5  1  0  0  0  0
  4 34  1  0  0  0  0
  5  6  1  0  0  0  0
  5 35  1  0  0  0  0
  5 36  1  0  0  0  0
  6  7  1  0  0  0  0
  6 26  1  0  0  0  0
  6 37  1  0  0  0  0
  7  8  1  0  0  0  0
  7  9  1  0  0  0  0
  8 38  1  0  0  0  0
  8 39  1  0  0  0  0
  8 40  1  0  0  0  0
  9 14  1  0  0  0  0
  9 10  2  0  0  0  0
 10 11  1  0  0  0  0
 11 12  2  0  0  0  0
 11 41  1  0  0  0  0
 12 13  1  0  0  0  0
 13 17  1  0  0  0  0
 13 14  2  0  0  0  0
 14 15  1  0  0  0  0
 15 16  2  0  0  0  0
 16 17  1  0  0  0  0
 16 42  1  0  0  0  0
 17 18  1  0  0  0  0
 18 19  1  0  0  0  0
 18 43  1  0  0  0  0
 18 44  1  0  0  0  0
 19 24  1  0  0  0  0
 19 20  1  0  0  0  0
 19 21  1  0  0  0  0
 20 45  1  0  0  0  0
 21 22  1  0  0  0  0
 21 46  1  0  0  0  0
 21 47  1  0  0  0  0
 22 23  1  0  0  0  0
 22 48  1  0  0  0  0
 22 49  1  0  0  0  0
 23 24  1  0  0  0  0
 24 25  1  0  0  0  0
 24 50  1  0  0  0  0
 25 51  1  0  0  0  0
 25 52  1  0  0  0  0
 25 53  1  0  0  0  0
 26 27  1  0  0  0  0
 26 28  1  0  0  0  0
 27 54  1  0  0  0  0
 27 55  1  0  0  0  0
 27 56  1  0  0  0  0
 28 57  1  0  0  0  0
 28 58  1  0  0  0  0
 28 59  1  0  0  0  0
M  END
> <s_m_source_file>
AV-unprocessed.smi

> <i_m_source_file_index>
234

> <i_lp_mmshare_version>
43012

> <i_f3d_flags>
0

> <s_epik_input>
W0NIM11bQ0gyXU9bQ0BASF0oQzEoW0NIM10pW0NIM10pW0NIMl1bQ0BIXTFOKFtDSDNdKWMobltjSF1uMiljKGMyMyluW2NIXW4zW0NIMl1bQ0BAXTQoW09IXSlbQ0gyXVtDSDJdT1tDQEhdNFtDSDNd

> <s_epik_cmdline>
J2VwaWtfcHl0aG9uJywgJy1waCcsICc3LjAnLCAnLXRuJywgJzgnLCAnLW1hJywgJzIwMCcsICctbWV0YWxfYmluZGluZycsICctaW1hZScsICc8aW5maWxlLm1hZT4nLCAnLW9tYWUnLCAnPG91dGZpbGUubWFlPic=

> <r_lp_tautomer_probability>
1

> <r_epik_Ionization_Penalty>
0.00349132

> <r_epik_Ionization_Penalty_Charging>
0

> <r_epik_Ionization_Penalty_Neutral>
0.00349132

> <r_epik_State_Penalty>
0.00242418

> <r_epik_Charging_Adjusted_Penalty>
0.00242418

> <i_epik_Tot_Q>
0

> <i_epik_Tot_abs_Q>
0

> <r_epik_Metal_State_Penalty>
-0

> <b_epik_Metal_Only>
0

> <s_lp_Force_Field>
OPLS_2005

> <r_lp_Energy>
53.0859

> <b_lp_Chiralities_Consistent>
1

> <s_lp_Variant>
AV-unprocessed.smi:234-16

> <Gold.Version>
5.8.1

> <Gold.Id.Protein>
6NUR|6NUR_protein|mol2

> <Gold.PLP.Fitness>
45.8533

> <Gold.PLP.PLP>
-41.7398

> <Gold.PLP.part.hbond>
-3.0000

> <Gold.PLP.part.metal>
0.0000

> <Gold.PLP.part.buried>
-6.7673

> <Gold.PLP.part.nonpolar>
-32.8367

> <Gold.PLP.part.repulsive>
1.0862

> <Gold.PLP.ligand.clash>
0.0000

> <Gold.PLP.ligand.torsion>
1.8894

> <Gold.PLP.Chemscore.Hbond>
2.4135

> <Gold.PLP.Chemscore.CHOScore>
0.0000

> <Gold.PLP.Chemscore.Metal>
0.0000

> <Gold.Chemscore.Hbonds>
donor molecule, donor type, donor heavy atom, donor atom, acceptor molecule, acceptor atom, score
      L1  H    20    45       P1 10747  0.90
      P1  H  7989  7998       L1     3  0.94
      P1  H 10785 10796       L1    23  0.45

> <Gold.PLP.Chemscore.Internal.Correction>
0.6518

> <Gold.Rescore>
     Score         DG    S(hbond)    S(metal)    S(lipo)     H(rot)  DE(clash)    DE(int)     intcor
     16.87     -19.25       2.31        0.00     103.54       2.37       0.16       2.23       ----

> <Gold.Chemscore.Fitness>
16.8654

> <Gold.Chemscore.DG>
-19.2502

> <Gold.Chemscore.ZeroCoef>
-5.4800

> <Gold.Chemscore.Hbond>
2.3106

> <Gold.Chemscore.Metal>
0.0000

> <Gold.Chemscore.Lipo>
103.5354

> <Gold.Chemscore.Internal_Hbond>
0.0000

> <Gold.Chemscore.DEClash>
0.1575

> <Gold.Chemscore.DEInternal>
2.2274

> <Gold.Chemscore.Rot>
2.3676

> <Gold.Chemscore.Internal.Correction>
   9.000000E+99

> <Gold.Chemscore.Hbonds>
donor molecule, donor type, donor heavy atom, donor atom, acceptor molecule, acceptor atom, score
      L1  H    20    45       P1 10747  0.88
      P1  H  7989  7998       L1     3  0.88
      P1  H 10785 10796       L1    23  0.38

> <Gold.Chemscore.Hbond.Weighted>
-7.7176

> <Gold.Chemscore.Metal.Weighted>
-0.0000

> <Gold.Chemscore.Lipo.Weighted>
-12.1136

> <Gold.Chemscore.Internal_Hbond.Weighted>
0.0000

> <Gold.Chemscore.DEClash.Weighted>
0.1575

> <Gold.Chemscore.DEInternal.Weighted>
2.2274

> <Gold.Chemscore.Rot.Weighted>
6.0610

> <Gold.Chemscore.Internal.Correction.Weighted>
   9.000000E+99

> <Gold.Protein.RotatedTorsions>
[ 6907 6896 6895 6894 ] final  156.45 input  -60.11 | X-H torsion
[ 7974 7965 7964 7962 ] final  146.15 input  175.53 | X-H torsion
[ 8008 7997 7996 7995 ] final  159.90 input   59.86 | X-H torsion
[ 10167 10162 10161 10158 ] final   58.80 input  -65.29 | X-H torsion
[ 10718 10713 10712 10709 ] final -106.14 input   66.30 | X-H torsion
[ 10763 10752 10751 10750 ] final  175.40 input  -60.55 | X-H torsion
[ 11005 11000 10999 10996 ] final  -88.78 input  -57.11 | X-H torsion

> <Gold.Protein.ActiveResidues>
 VAL166  LYS551  ARG553  GLY616  TRP617  ASP618  TYR619  PRO620  LYS621  CYS622 
 ASP623  PHE694  ASN695  SER759  ASP760  ASP761  ALA762  ILE779  LEU786  VAL792 
 PHE793  MET794  SER795  GLU796  ALA797  LYS798  CYS799  TRP800  GLU811  SER814 

> <Gold.Protein.RotatedAtoms>
  152.0295  133.3931  159.4291 H   0  0  0  0  0  0  0  0  0  0  0  0  # atno 6907 bound_to 6896
  150.6883  134.3536  159.4929 H   0  0  0  0  0  0  0  0  0  0  0  0  # atno 6908 bound_to 6896
  152.1321  134.9127  160.0609 H   0  0  0  0  0  0  0  0  0  0  0  0  # atno 6909 bound_to 6896
  144.8694  139.5870  143.5894 H   0  0  0  0  0  0  0  0  0  0  0  0  # atno 7974 bound_to 7965
  156.2208  140.1818  156.7481 H   0  0  0  0  0  0  0  0  0  0  0  0  # atno 8008 bound_to 7997
  154.5862  140.0658  156.9203 H   0  0  0  0  0  0  0  0  0  0  0  0  # atno 8009 bound_to 7997
  155.2415  140.3322  155.4294 H   0  0  0  0  0  0  0  0  0  0  0  0  # atno 8010 bound_to 7997
  140.1833  144.4160  150.6605 H   0  0  0  0  0  0  0  0  0  0  0  0  # atno 10167 bound_to 10162
  156.0377  130.5598  150.7638 H   0  0  0  0  0  0  0  0  0  0  0  0  # atno 10718 bound_to 10713
  154.4671  135.2770  155.1670 H   0  0  0  0  0  0  0  0  0  0  0  0  # atno 10763 bound_to 10752
  154.3435  135.6165  153.5611 H   0  0  0  0  0  0  0  0  0  0  0  0  # atno 10764 bound_to 10752
  152.9860  135.5794  154.5044 H   0  0  0  0  0  0  0  0  0  0  0  0  # atno 10765 bound_to 10752
  141.1596  133.7590  156.9500 H   0  0  0  0  0  0  0  0  0  0  0  0  # atno 11005 bound_to 11000
  146.2919  139.7165  142.9154 LP  0  0  0  0  0  0  0  0  0  0  0  0  # atno 17320 bound_to 7965
  145.4159  141.0401  143.2991 LP  0  0  0  0  0  0  0  0  0  0  0  0  # atno 17321 bound_to 7965
  140.6505  143.2224  151.6088 LP  0  0  0  0  0  0  0  0  0  0  0  0  # atno 17342 bound_to 10162
  139.5287  144.2982  152.1096 LP  0  0  0  0  0  0  0  0  0  0  0  0  # atno 17343 bound_to 10162
  157.5150  131.0928  151.0150 LP  0  0  0  0  0  0  0  0  0  0  0  0  # atno 17370 bound_to 10713
  157.0496  130.5781  149.5368 LP  0  0  0  0  0  0  0  0  0  0  0  0  # atno 17371 bound_to 10713
  140.1263  134.9384  157.2275 LP  0  0  0  0  0  0  0  0  0  0  0  0  # atno 17394 bound_to 11000
  140.3008  134.3134  155.7290 LP  0  0  0  0  0  0  0  0  0  0  0  0  # atno 17395 bound_to 11000

$$$$
