AV-unprocessed.smi:2816|AV-procd|sdf|10843|dock8
  -GOLD-   2272015283D 1   1.00000     0.00000
 Structure written by MMmdl.
 43 45  0  0  0  0  0  0  0  0  1 V2000
  154.2871  135.9930  161.2549 C   0  0  0  0  0  0  0  0  0  0  0  0
  154.8516  136.3102  162.6507 C   0  0  0  0  0  0  0  0  0  0  0  0
  153.7175  136.8117  163.5632 C   0  0  0  0  0  0  0  0  0  0  0  0
  155.4961  135.0429  163.2419 C   0  0  0  0  0  0  0  0  0  0  0  0
  156.1317  137.6477  162.4539 S   0  0  0  0  0  0  0  0  0  0  0  0
  156.5694  138.0727  163.7931 O   0  0  0  0  0  0  0  0  0  0  0  0
  157.1354  137.1700  161.4896 O   0  0  0  0  0  0  0  0  0  0  0  0
  155.2805  139.0362  161.7009 C   0  0  0  0  0  0  0  0  0  0  0  0
  154.8468  140.1139  162.4990 C   0  0  0  0  0  0  0  0  0  0  0  0
  154.2234  141.2029  161.8619 C   0  0  0  0  0  0  0  0  0  0  0  0
  154.0674  141.1788  160.4554 C   0  0  0  0  0  0  0  0  0  0  0  0
  153.4677  142.2159  159.7263 N   0  0  0  0  0  0  0  0  0  0  0  0
  152.1698  142.7631  160.1058 C   0  0  1  0  0  0  0  0  0  0  0  0
  152.2413  143.8929  161.1398 C   0  0  0  0  0  0  0  0  0  0  0  0
  151.4444  145.0059  160.4451 C   0  0  1  0  0  0  0  0  0  0  0  0
  152.2558  145.6580  159.3190 C   0  0  0  0  0  0  0  0  0  0  0  0
  152.2437  144.5624  158.2552 C   0  0  0  0  0  0  0  0  0  0  0  0
  151.4298  143.4536  158.9458 C   0  0  2  0  0  0  0  0  0  0  0  0
  150.5172  144.2451  159.6881 O   0  0  0  0  0  0  0  0  0  0  0  0
  154.5470  140.0477  159.7597 C   0  0  0  0  0  0  0  0  0  0  0  0
  155.1478  138.9980  160.3579 N   0  0  0  0  0  0  0  0  0  0  0  0
  153.5292  135.2103  161.3002 H   0  0  0  0  0  0  0  0  0  0  0  0
  155.0722  135.6532  160.5788 H   0  0  0  0  0  0  0  0  0  0  0  0
  153.8250  136.8721  160.8047 H   0  0  0  0  0  0  0  0  0  0  0  0
  153.2669  137.7252  163.1741 H   0  0  0  0  0  0  0  0  0  0  0  0
  154.0760  137.0233  164.5704 H   0  0  0  0  0  0  0  0  0  0  0  0
  152.9253  136.0676  163.6517 H   0  0  0  0  0  0  0  0  0  0  0  0
  154.7786  134.2231  163.2876 H   0  0  0  0  0  0  0  0  0  0  0  0
  155.8572  135.2078  164.2562 H   0  0  0  0  0  0  0  0  0  0  0  0
  156.3395  134.7052  162.6388 H   0  0  0  0  0  0  0  0  0  0  0  0
  154.9891  140.1120  163.5694 H   0  0  0  0  0  0  0  0  0  0  0  0
  153.8810  142.0351  162.4578 H   0  0  0  0  0  0  0  0  0  0  0  0
  154.0207  142.7261  159.0524 H   0  0  0  0  0  0  0  0  0  0  0  0
  151.5357  141.9596  160.4824 H   0  0  0  0  0  0  0  0  0  0  0  0
  151.7564  143.5866  162.0673 H   0  0  0  0  0  0  0  0  0  0  0  0
  153.2580  144.2090  161.3782 H   0  0  0  0  0  0  0  0  0  0  0  0
  150.9892  145.7195  161.1320 H   0  0  0  0  0  0  0  0  0  0  0  0
  151.7577  146.5551  158.9496 H   0  0  0  0  0  0  0  0  0  0  0  0
  153.2629  145.9311  159.6355 H   0  0  0  0  0  0  0  0  0  0  0  0
  151.7286  144.9126  157.3599 H   0  0  0  0  0  0  0  0  0  0  0  0
  153.2438  144.2432  157.9619 H   0  0  0  0  0  0  0  0  0  0  0  0
  150.9554  142.7591  158.2520 H   0  0  0  0  0  0  0  0  0  0  0  0
  154.4527  139.9853  158.6853 H   0  0  0  0  0  0  0  0  0  0  0  0
  1  2  1  0  0  0  0
  1 22  1  0  0  0  0
  1 23  1  0  0  0  0
  1 24  1  0  0  0  0
  2  3  1  0  0  0  0
  2  4  1  0  0  0  0
  2  5  1  0  0  0  0
  3 25  1  0  0  0  0
  3 26  1  0  0  0  0
  3 27  1  0  0  0  0
  4 28  1  0  0  0  0
  4 29  1  0  0  0  0
  4 30  1  0  0  0  0
  5  6  2  0  0  0  0
  5  7  2  0  0  0  0
  5  8  1  0  0  0  0
  8 21  1  0  0  0  0
  8  9  2  0  0  0  0
  9 10  1  0  0  0  0
  9 31  1  0  0  0  0
 10 11  2  0  0  0  0
 10 32  1  0  0  0  0
 11 12  1  0  0  0  0
 11 20  1  0  0  0  0
 12 13  1  0  0  0  0
 12 33  1  0  0  0  0
 13 18  1  0  0  0  0
 13 14  1  0  0  0  0
 13 34  1  0  0  0  0
 14 15  1  0  0  0  0
 14 35  1  0  0  0  0
 14 36  1  0  0  0  0
 15 19  1  0  0  0  0
 15 16  1  0  0  0  0
 15 37  1  0  0  0  0
 16 17  1  0  0  0  0
 16 38  1  0  0  0  0
 16 39  1  0  0  0  0
 17 18  1  0  0  0  0
 17 40  1  0  0  0  0
 17 41  1  0  0  0  0
 18 19  1  0  0  0  0
 18 42  1  0  0  0  0
 20 21  2  0  0  0  0
 20 43  1  0  0  0  0
M  END
> <s_m_source_file>
AV-unprocessed.smi

> <i_m_source_file_index>
2816

> <i_lp_mmshare_version>
43012

> <i_f3d_flags>
0

> <s_epik_input>
W0NIM11DKFtDSDNdKShbQ0gzXSlTKD1PKSg9TyljMVtjSF1bY0hdYyhbY0hdbjEpW05IXVtDQEhdKFtDSDJdW0NAQEhdMjMpW0NAQEhdKE8zKVtDSDJdW0NIMl0y

> <s_epik_cmdline>
J2VwaWtfcHl0aG9uJywgJy1waCcsICc3LjAnLCAnLXRuJywgJzgnLCAnLW1hJywgJzIwMCcsICctbWV0YWxfYmluZGluZycsICctaW1hZScsICc8aW5maWxlLm1hZT4nLCAnLW9tYWUnLCAnPG91dGZpbGUubWFlPic=

> <r_lp_tautomer_probability>
1

> <r_epik_Ionization_Penalty>
1.94439e-07

> <r_epik_Ionization_Penalty_Charging>
0

> <r_epik_Ionization_Penalty_Neutral>
1.94439e-07

> <r_epik_State_Penalty>
-0

> <r_epik_Charging_Adjusted_Penalty>
0

> <i_epik_Tot_Q>
0

> <i_epik_Tot_abs_Q>
0

> <r_epik_Metal_State_Penalty>
-0

> <b_epik_Metal_Only>
0

> <s_lp_Force_Field>
OPLS_2005

> <r_lp_Energy>
43.8741

> <b_lp_Chiralities_Consistent>
1

> <s_lp_Variant>
AV-unprocessed.smi:2816-2

> <Gold.Version>
5.8.1

> <Gold.Id.Protein>
6NUR|6NUR_protein|mol2

> <Gold.PLP.Fitness>
41.7451

> <Gold.PLP.PLP>
-43.3271

> <Gold.PLP.part.hbond>
0.0000

> <Gold.PLP.part.metal>
0.0000

> <Gold.PLP.part.buried>
-3.7663

> <Gold.PLP.part.nonpolar>
-38.5086

> <Gold.PLP.part.repulsive>
0.1900

> <Gold.PLP.ligand.clash>
0.0000

> <Gold.PLP.ligand.torsion>
1.9036

> <Gold.PLP.Chemscore.Hbond>
0.0000

> <Gold.PLP.Chemscore.CHOScore>
0.0000

> <Gold.PLP.Chemscore.Metal>
0.0000

> <Gold.PLP.Chemscore.Internal.Correction>
2.2251

> <Gold.Rescore>
     Score         DG    S(hbond)    S(metal)    S(lipo)     H(rot)  DE(clash)    DE(int)     intcor
     16.52     -18.53       0.00        0.00     136.63       1.15       0.13       1.88       ----

> <Gold.Chemscore.Fitness>
16.5185

> <Gold.Chemscore.DG>
-18.5290

> <Gold.Chemscore.ZeroCoef>
-5.4800

> <Gold.Chemscore.Hbond>
0.0000

> <Gold.Chemscore.Metal>
0.0000

> <Gold.Chemscore.Lipo>
136.6291

> <Gold.Chemscore.Internal_Hbond>
0.0000

> <Gold.Chemscore.DEClash>
0.1325

> <Gold.Chemscore.DEInternal>
1.8780

> <Gold.Chemscore.Rot>
1.1471

> <Gold.Chemscore.Internal.Correction>
   9.000000E+99

> <Gold.Chemscore.Hbond.Weighted>
-0.0000

> <Gold.Chemscore.Metal.Weighted>
-0.0000

> <Gold.Chemscore.Lipo.Weighted>
-15.9856

> <Gold.Chemscore.Internal_Hbond.Weighted>
0.0000

> <Gold.Chemscore.DEClash.Weighted>
0.1325

> <Gold.Chemscore.DEInternal.Weighted>
1.8780

> <Gold.Chemscore.Rot.Weighted>
2.9366

> <Gold.Chemscore.Internal.Correction.Weighted>
   9.000000E+99

> <Gold.Protein.RotatedTorsions>
[ 6907 6896 6895 6894 ] final  135.10 input  -60.11 | X-H torsion
[ 7974 7965 7964 7962 ] final  148.48 input  175.53 | X-H torsion
[ 8008 7997 7996 7995 ] final   78.56 input   59.86 | X-H torsion
[ 10167 10162 10161 10158 ] final -156.26 input  -65.29 | X-H torsion
[ 10718 10713 10712 10709 ] final   98.01 input   66.30 | X-H torsion
[ 10763 10752 10751 10750 ] final  149.66 input  -60.55 | X-H torsion
[ 11005 11000 10999 10996 ] final -175.77 input  -57.11 | X-H torsion

> <Gold.Protein.ActiveResidues>
 VAL166  LYS551  ARG553  GLY616  TRP617  ASP618  TYR619  PRO620  LYS621  CYS622 
 ASP623  PHE694  ASN695  SER759  ASP760  ASP761  ALA762  ILE779  LEU786  VAL792 
 PHE793  MET794  SER795  GLU796  ALA797  LYS798  CYS799  TRP800  GLU811  SER814 

> <Gold.Protein.RotatedAtoms>
  152.3041  133.5685  159.5637 H   0  0  0  0  0  0  0  0  0  0  0  0  # atno 6907 bound_to 6896
  150.7291  134.0249  159.3722 H   0  0  0  0  0  0  0  0  0  0  0  0  # atno 6908 bound_to 6896
  151.8146  135.0670  160.0468 H   0  0  0  0  0  0  0  0  0  0  0  0  # atno 6909 bound_to 6896
  144.8511  139.6159  143.5973 H   0  0  0  0  0  0  0  0  0  0  0  0  # atno 7974 bound_to 7965
  155.8574  140.3455  155.5734 H   0  0  0  0  0  0  0  0  0  0  0  0  # atno 8008 bound_to 7997
  155.7971  140.0880  157.1997 H   0  0  0  0  0  0  0  0  0  0  0  0  # atno 8009 bound_to 7997
  154.4010  140.1472  156.3218 H   0  0  0  0  0  0  0  0  0  0  0  0  # atno 8010 bound_to 7997
  139.6865  143.9493  152.2363 H   0  0  0  0  0  0  0  0  0  0  0  0  # atno 10167 bound_to 10162
  157.6903  131.0627  150.4732 H   0  0  0  0  0  0  0  0  0  0  0  0  # atno 10718 bound_to 10713
  154.0747  135.2864  155.3301 H   0  0  0  0  0  0  0  0  0  0  0  0  # atno 10763 bound_to 10752
  154.6723  135.5295  153.8158 H   0  0  0  0  0  0  0  0  0  0  0  0  # atno 10764 bound_to 10752
  153.0471  135.6561  154.0926 H   0  0  0  0  0  0  0  0  0  0  0  0  # atno 10765 bound_to 10752
  140.4596  134.6267  157.4837 H   0  0  0  0  0  0  0  0  0  0  0  0  # atno 11005 bound_to 11000
  146.2785  139.6815  142.9246 LP  0  0  0  0  0  0  0  0  0  0  0  0  # atno 17320 bound_to 7965
  145.4499  141.0427  143.2810 LP  0  0  0  0  0  0  0  0  0  0  0  0  # atno 17321 bound_to 7965
  139.9297  144.6749  150.8375 LP  0  0  0  0  0  0  0  0  0  0  0  0  # atno 17342 bound_to 10162
  140.7669  143.3317  151.2396 LP  0  0  0  0  0  0  0  0  0  0  0  0  # atno 17343 bound_to 10162
  156.5068  130.4130  149.6323 LP  0  0  0  0  0  0  0  0  0  0  0  0  # atno 17370 bound_to 10713
  156.3277  130.7315  151.2238 LP  0  0  0  0  0  0  0  0  0  0  0  0  # atno 17371 bound_to 10713
  139.9954  134.6919  155.9618 LP  0  0  0  0  0  0  0  0  0  0  0  0  # atno 17394 bound_to 11000
  141.1627  133.6538  156.4374 LP  0  0  0  0  0  0  0  0  0  0  0  0  # atno 17395 bound_to 11000

$$$$
