AV-unprocessed.smi:952|AV-procd|sdf|4256|dock4
  -GOLD-   22720 2163D 1   1.00000     0.00000
 Structure written by MMmdl.
 35 35  0  0  0  0  0  0  0  0  1 V2000
  147.3524  139.2144  153.4054 C   0  0  0  0  0  0  0  0  0  0  0  0
  147.0593  140.7081  153.5802 C   0  0  0  0  0  0  0  0  0  0  0  0
  148.3035  141.5046  154.0056 C   0  0  0  0  0  0  0  0  0  0  0  0
  148.6691  141.2284  155.3899 N   0  0  0  0  0  0  0  0  0  0  0  0
  149.8640  140.7725  155.7954 C   0  0  0  0  0  0  0  0  0  0  0  0
  150.7881  140.5189  155.0210 O   0  0  0  0  0  0  0  0  0  0  0  0
  150.0232  140.5539  157.3051 C   0  0  0  0  0  0  0  0  0  0  0  0
  150.8440  141.5777  157.9464 N   0  0  0  0  0  0  0  0  0  0  0  0
  152.1488  141.4540  158.2397 C   0  0  0  0  0  0  0  0  0  0  0  0
  152.8030  140.4429  157.9802 O   0  0  0  0  0  0  0  0  0  0  0  0
  152.8062  142.6610  158.9268 C   0  0  1  0  0  0  0  0  0  0  0  0
  151.9307  143.9266  158.8769 C   0  0  0  0  0  0  0  0  0  0  0  0
  153.1672  142.3293  160.2990 N   0  0  0  0  0  0  0  0  0  0  0  0
  153.9970  141.3249  160.7595 C   0  0  0  0  0  0  0  0  0  0  0  0
  154.0232  141.4078  162.1219 C   0  0  0  0  0  0  0  0  0  0  0  0
  153.1653  142.5055  162.4094 C   0  0  0  0  0  0  0  0  0  0  0  0
  152.6539  143.0528  161.3187 N   0  0  0  0  0  0  0  0  0  0  0  0
  146.4518  138.6740  153.1128 H   0  0  0  0  0  0  0  0  0  0  0  0
  147.7194  138.7732  154.3326 H   0  0  0  0  0  0  0  0  0  0  0  0
  148.1048  139.0494  152.6336 H   0  0  0  0  0  0  0  0  0  0  0  0
  146.6666  141.1050  152.6434 H   0  0  0  0  0  0  0  0  0  0  0  0
  146.2710  140.8351  154.3232 H   0  0  0  0  0  0  0  0  0  0  0  0
  149.1501  141.2359  153.3729 H   0  0  0  0  0  0  0  0  0  0  0  0
  148.1399  142.5747  153.8665 H   0  0  0  0  0  0  0  0  0  0  0  0
  147.9651  141.4051  156.0919 H   0  0  0  0  0  0  0  0  0  0  0  0
  149.0433  140.5070  157.7840 H   0  0  0  0  0  0  0  0  0  0  0  0
  150.4967  139.5853  157.4661 H   0  0  0  0  0  0  0  0  0  0  0  0
  150.3831  142.4408  158.1961 H   0  0  0  0  0  0  0  0  0  0  0  0
  153.7244  142.8812  158.3779 H   0  0  0  0  0  0  0  0  0  0  0  0
  151.6660  144.1838  157.8506 H   0  0  0  0  0  0  0  0  0  0  0  0
  152.4600  144.7804  159.3007 H   0  0  0  0  0  0  0  0  0  0  0  0
  151.0043  143.8017  159.4390 H   0  0  0  0  0  0  0  0  0  0  0  0
  154.4948  140.6433  160.0856 H   0  0  0  0  0  0  0  0  0  0  0  0
  154.5707  140.7794  162.8085 H   0  0  0  0  0  0  0  0  0  0  0  0
  152.9001  142.9178  163.3719 H   0  0  0  0  0  0  0  0  0  0  0  0
  1  2  1  0  0  0  0
  1 18  1  0  0  0  0
  1 19  1  0  0  0  0
  1 20  1  0  0  0  0
  2  3  1  0  0  0  0
  2 21  1  0  0  0  0
  2 22  1  0  0  0  0
  3  4  1  0  0  0  0
  3 23  1  0  0  0  0
  3 24  1  0  0  0  0
  4  5  1  0  0  0  0
  4 25  1  0  0  0  0
  5  6  2  0  0  0  0
  5  7  1  0  0  0  0
  7  8  1  0  0  0  0
  7 26  1  0  0  0  0
  7 27  1  0  0  0  0
  8  9  1  0  0  0  0
  8 28  1  0  0  0  0
  9 10  2  0  0  0  0
  9 11  1  0  0  0  0
 11 12  1  0  0  0  0
 11 13  1  0  0  0  0
 11 29  1  0  0  0  0
 12 30  1  0  0  0  0
 12 31  1  0  0  0  0
 12 32  1  0  0  0  0
 13 17  1  0  0  0  0
 13 14  1  0  0  0  0
 14 15  2  0  0  0  0
 14 33  1  0  0  0  0
 15 16  1  0  0  0  0
 15 34  1  0  0  0  0
 16 17  2  0  0  0  0
 16 35  1  0  0  0  0
M  END
> <s_m_source_file>
AV-unprocessed.smi

> <i_m_source_file_index>
952

> <i_lp_mmshare_version>
43012

> <i_f3d_flags>
0

> <s_epik_input>
W0NIM11bQ0gyXVtDSDJdW05IXUMoPU8pW0NIMl1bTkhdQyg9TylbQ0BIXShbQ0gzXSluMVtjSF1bY0hdW2NIXW4x

> <s_epik_cmdline>
J2VwaWtfcHl0aG9uJywgJy1waCcsICc3LjAnLCAnLXRuJywgJzgnLCAnLW1hJywgJzIwMCcsICctbWV0YWxfYmluZGluZycsICctaW1hZScsICc8aW5maWxlLm1hZT4nLCAnLW9tYWUnLCAnPG91dGZpbGUubWFlPic=

> <r_lp_tautomer_probability>
1

> <r_epik_Ionization_Penalty>
2.62173e-05

> <r_epik_Ionization_Penalty_Charging>
0

> <r_epik_Ionization_Penalty_Neutral>
2.62173e-05

> <r_epik_State_Penalty>
-0

> <r_epik_Charging_Adjusted_Penalty>
0

> <i_epik_Tot_Q>
0

> <i_epik_Tot_abs_Q>
0

> <r_epik_Metal_State_Penalty>
-0

> <b_epik_Metal_Only>
0

> <s_lp_Force_Field>
OPLS_2005

> <r_lp_Energy>
2.421

> <b_lp_Chiralities_Consistent>
1

> <s_lp_Variant>
AV-unprocessed.smi:952-2

> <Gold.Version>
5.8.1

> <Gold.Id.Protein>
6NUR|6NUR_protein|mol2

> <Gold.PLP.Fitness>
42.8865

> <Gold.PLP.PLP>
-38.4933

> <Gold.PLP.part.hbond>
-2.0000

> <Gold.PLP.part.metal>
0.0000

> <Gold.PLP.part.buried>
-2.4430

> <Gold.PLP.part.nonpolar>
-32.3167

> <Gold.PLP.part.repulsive>
0.2947

> <Gold.PLP.ligand.clash>
0.0000

> <Gold.PLP.ligand.torsion>
0.6186

> <Gold.PLP.Chemscore.Hbond>
1.8406

> <Gold.PLP.Chemscore.CHOScore>
0.0000

> <Gold.PLP.Chemscore.Metal>
0.0000

> <Gold.Chemscore.Hbonds>
donor molecule, donor type, donor heavy atom, donor atom, acceptor molecule, acceptor atom, score
      P1  H  7989  7998       L1     6  1.00
      P1  H  7997  8009       L1    10  0.86

> <Gold.PLP.Chemscore.Internal.Correction>
0.1088

> <Gold.Rescore>
     Score         DG    S(hbond)    S(metal)    S(lipo)     H(rot)  DE(clash)    DE(int)     intcor
     14.92     -15.43       1.89        0.00      80.02       2.24       0.03       0.48       ----

> <Gold.Chemscore.Fitness>
14.9179

> <Gold.Chemscore.DG>
-15.4322

> <Gold.Chemscore.ZeroCoef>
-5.4800

> <Gold.Chemscore.Hbond>
1.8906

> <Gold.Chemscore.Metal>
0.0000

> <Gold.Chemscore.Lipo>
80.0230

> <Gold.Chemscore.Internal_Hbond>
0.0000

> <Gold.Chemscore.DEClash>
0.0320

> <Gold.Chemscore.DEInternal>
0.4824

> <Gold.Chemscore.Rot>
2.2364

> <Gold.Chemscore.Internal.Correction>
   9.000000E+99

> <Gold.Chemscore.Hbonds>
donor molecule, donor type, donor heavy atom, donor atom, acceptor molecule, acceptor atom, score
      P1  H  7989  7998       L1     6  0.95
      P1  H  7997  8009       L1    10  0.78

> <Gold.Chemscore.Hbond.Weighted>
-6.3147

> <Gold.Chemscore.Metal.Weighted>
-0.0000

> <Gold.Chemscore.Lipo.Weighted>
-9.3627

> <Gold.Chemscore.Internal_Hbond.Weighted>
0.0000

> <Gold.Chemscore.DEClash.Weighted>
0.0320

> <Gold.Chemscore.DEInternal.Weighted>
0.4824

> <Gold.Chemscore.Rot.Weighted>
5.7251

> <Gold.Chemscore.Internal.Correction.Weighted>
   9.000000E+99

> <Gold.Protein.RotatedTorsions>
[ 6907 6896 6895 6894 ] final  -98.97 input  -60.11 | X-H torsion
[ 7974 7965 7964 7962 ] final  -52.69 input  175.53 | X-H torsion
[ 8008 7997 7996 7995 ] final  162.45 input   59.86 | X-H torsion
[ 10167 10162 10161 10158 ] final -176.77 input  -65.29 | X-H torsion
[ 10718 10713 10712 10709 ] final  -63.97 input   66.30 | X-H torsion
[ 10763 10752 10751 10750 ] final   12.49 input  -60.55 | X-H torsion
[ 11005 11000 10999 10996 ] final   98.18 input  -57.11 | X-H torsion

> <Gold.Protein.ActiveResidues>
 VAL166  LYS551  ARG553  GLY616  TRP617  ASP618  TYR619  PRO620  LYS621  CYS622 
 ASP623  PHE694  ASN695  SER759  ASP760  ASP761  ALA762  ILE779  LEU786  VAL792 
 PHE793  MET794  SER795  GLU796  ALA797  LYS798  CYS799  TRP800  GLU811  SER814 

> <Gold.Protein.RotatedAtoms>
  150.7064  134.1113  159.4000 H   0  0  0  0  0  0  0  0  0  0  0  0  # atno 6907 bound_to 6896
  151.9099  135.0341  160.0523 H   0  0  0  0  0  0  0  0  0  0  0  0  # atno 6908 bound_to 6896
  152.2344  133.5049  159.5271 H   0  0  0  0  0  0  0  0  0  0  0  0  # atno 6909 bound_to 6896
  145.9052  140.7961  142.9723 H   0  0  0  0  0  0  0  0  0  0  0  0  # atno 7974 bound_to 7965
  156.2030  140.1750  156.7859 H   0  0  0  0  0  0  0  0  0  0  0  0  # atno 8008 bound_to 7997
  154.5617  140.0698  156.8859 H   0  0  0  0  0  0  0  0  0  0  0  0  # atno 8009 bound_to 7997
  155.2836  140.3350  155.4259 H   0  0  0  0  0  0  0  0  0  0  0  0  # atno 8010 bound_to 7997
  139.5513  144.2102  152.1081 H   0  0  0  0  0  0  0  0  0  0  0  0  # atno 10167 bound_to 10162
  156.0758  130.4227  150.1353 H   0  0  0  0  0  0  0  0  0  0  0  0  # atno 10718 bound_to 10713
  153.1817  135.6829  153.8469 H   0  0  0  0  0  0  0  0  0  0  0  0  # atno 10763 bound_to 10752
  153.7799  135.3184  155.3365 H   0  0  0  0  0  0  0  0  0  0  0  0  # atno 10764 bound_to 10752
  154.8063  135.4746  154.0497 H   0  0  0  0  0  0  0  0  0  0  0  0  # atno 10765 bound_to 10752
  139.8773  134.9037  156.4418 H   0  0  0  0  0  0  0  0  0  0  0  0  # atno 11005 bound_to 11000
  144.6738  140.1738  143.7412 LP  0  0  0  0  0  0  0  0  0  0  0  0  # atno 17320 bound_to 7965
  145.8741  139.2288  143.1643 LP  0  0  0  0  0  0  0  0  0  0  0  0  # atno 17321 bound_to 7965
  140.1598  144.5036  150.6639 LP  0  0  0  0  0  0  0  0  0  0  0  0  # atno 17342 bound_to 10162
  140.6776  143.2312  151.5467 LP  0  0  0  0  0  0  0  0  0  0  0  0  # atno 17343 bound_to 10162
  156.9395  130.9739  151.3519 LP  0  0  0  0  0  0  0  0  0  0  0  0  # atno 17370 bound_to 10713
  157.5852  130.8405  149.8579 LP  0  0  0  0  0  0  0  0  0  0  0  0  # atno 17371 bound_to 10713
  140.8994  133.7790  155.9663 LP  0  0  0  0  0  0  0  0  0  0  0  0  # atno 17394 bound_to 11000
  140.8667  134.2775  157.5210 LP  0  0  0  0  0  0  0  0  0  0  0  0  # atno 17395 bound_to 11000

$$$$
