AV-unprocessed.smi:308|AV-procd|sdf|2286|dock3
  -GOLD-   2262022183D 1   1.00000     0.00000
 Structure written by MMmdl.
 51 52  0  0  0  0  0  0  0  0  3 V2000
  144.1324  132.2132  151.0929 C   0  0  0  0  0  0  0  0  0  0  0  0
  145.0730  133.0399  150.1982 C   0  0  2  0  0  0  0  0  0  0  0  0
  146.3846  133.4249  150.9059 C   0  0  0  0  0  0  0  0  0  0  0  0
  146.1771  134.5329  151.9540 C   0  0  0  0  0  0  0  0  0  0  0  0
  145.5371  135.7322  151.3548 N   0  3  2  0  0  0  0  0  0  0  0  0
  145.4410  136.8552  152.3229 C   0  0  0  0  0  0  0  0  0  0  0  0
  146.2790  138.0888  151.9227 C   0  0  0  0  0  0  0  0  0  0  0  0
  147.4849  138.2559  152.7311 N   0  0  0  0  0  0  0  0  0  0  0  0
  147.7436  139.3140  153.5131 C   0  0  0  0  0  0  0  0  0  0  0  0
  146.9531  140.2428  153.6730 O   0  0  0  0  0  0  0  0  0  0  0  0
  148.9632  139.2226  154.0719 N   0  0  0  0  0  0  0  0  0  0  0  0
  149.6214  140.1489  154.9275 C   0  0  0  0  0  0  0  0  0  0  0  0
  150.7194  139.6808  155.6795 C   0  0  0  0  0  0  0  0  0  0  0  0
  151.4018  140.5568  156.5481 C   0  0  0  0  0  0  0  0  0  0  0  0
  150.9777  141.9028  156.6683 C   0  0  0  0  0  0  0  0  0  0  0  0
  151.6099  142.8404  157.5137 N   0  0  0  0  0  0  0  0  0  0  0  0
  152.3853  142.3764  158.6568 C   0  0  0  0  0  0  0  0  0  0  0  0
  151.5808  144.2582  157.1717 C   0  0  0  0  0  0  0  0  0  0  0  0
  149.9099  142.3028  155.9355 N   0  3  0  0  0  0  0  0  0  0  0  0
  149.2285  141.4989  155.0910 C   0  0  0  0  0  0  0  0  0  0  0  0
  144.2366  135.4001  150.7149 C   0  0  0  0  0  0  0  0  0  0  0  0
  144.4031  134.3090  149.6418 C   0  0  0  0  0  0  0  0  0  0  0  0
  143.8124  132.7648  151.9766 H   0  0  0  0  0  0  0  0  0  0  0  0
  144.6214  131.3005  151.4343 H   0  0  0  0  0  0  0  0  0  0  0  0
  143.2359  131.9172  150.5473 H   0  0  0  0  0  0  0  0  0  0  0  0
  145.3300  132.4030  149.3506 H   0  0  0  0  0  0  0  0  0  0  0  0
  146.8345  132.5476  151.3721 H   0  0  0  0  0  0  0  0  0  0  0  0
  147.1029  133.7724  150.1619 H   0  0  0  0  0  0  0  0  0  0  0  0
  145.5687  134.1680  152.7824 H   0  0  0  0  0  0  0  0  0  0  0  0
  147.1455  134.8072  152.3746 H   0  0  0  0  0  0  0  0  0  0  0  0
  144.3962  137.1356  152.4643 H   0  0  0  0  0  0  0  0  0  0  0  0
  145.7928  136.5104  153.2964 H   0  0  0  0  0  0  0  0  0  0  0  0
  146.5849  138.0136  150.8796 H   0  0  0  0  0  0  0  0  0  0  0  0
  145.6666  138.9898  151.9865 H   0  0  0  0  0  0  0  0  0  0  0  0
  148.1915  137.5391  152.6489 H   0  0  0  0  0  0  0  0  0  0  0  0
  149.5145  138.4221  153.7989 H   0  0  0  0  0  0  0  0  0  0  0  0
  151.0458  138.6549  155.5907 H   0  0  0  0  0  0  0  0  0  0  0  0
  152.2428  140.1784  157.1097 H   0  0  0  0  0  0  0  0  0  0  0  0
  151.7476  141.8407  159.3605 H   0  0  0  0  0  0  0  0  0  0  0  0
  152.8422  143.2099  159.1906 H   0  0  0  0  0  0  0  0  0  0  0  0
  153.1852  141.7099  158.3330 H   0  0  0  0  0  0  0  0  0  0  0  0
  150.5530  144.6175  157.1093 H   0  0  0  0  0  0  0  0  0  0  0  0
  152.0682  144.4304  156.2113 H   0  0  0  0  0  0  0  0  0  0  0  0
  152.0971  144.8582  157.9215 H   0  0  0  0  0  0  0  0  0  0  0  0
  148.3968  141.9734  154.5933 H   0  0  0  0  0  0  0  0  0  0  0  0
  143.5236  135.0816  151.4764 H   0  0  0  0  0  0  0  0  0  0  0  0
  143.8137  136.2871  150.2442 H   0  0  0  0  0  0  0  0  0  0  0  0
  145.0102  134.7054  148.8266 H   0  0  0  0  0  0  0  0  0  0  0  0
  143.4346  134.0639  149.2045 H   0  0  0  0  0  0  0  0  0  0  0  0
  146.1559  136.0427  150.6196 H   0  0  0  0  0  0  0  0  0  0  0  0
  149.6004  143.2707  156.0269 H   0  0  0  0  0  0  0  0  0  0  0  0
  1  2  1  0  0  0  0
  1 23  1  0  0  0  0
  1 24  1  0  0  0  0
  1 25  1  0  0  0  0
  2 22  1  0  0  0  0
  2  3  1  0  0  0  0
  2 26  1  0  0  0  0
  3  4  1  0  0  0  0
  3 27  1  0  0  0  0
  3 28  1  0  0  0  0
  4  5  1  0  0  0  0
  4 29  1  0  0  0  0
  4 30  1  0  0  0  0
  5  6  1  0  0  0  0
  5 21  1  0  0  0  0
  5 50  1  0  0  0  0
  6  7  1  0  0  0  0
  6 31  1  0  0  0  0
  6 32  1  0  0  0  0
  7  8  1  0  0  0  0
  7 33  1  0  0  0  0
  7 34  1  0  0  0  0
  8  9  1  0  0  0  0
  8 35  1  0  0  0  0
  9 10  2  0  0  0  0
  9 11  1  0  0  0  0
 11 12  1  0  0  0  0
 11 36  1  0  0  0  0
 12 20  1  0  0  0  0
 12 13  2  0  0  0  0
 13 14  1  0  0  0  0
 13 37  1  0  0  0  0
 14 15  2  0  0  0  0
 14 38  1  0  0  0  0
 15 16  1  0  0  0  0
 15 19  1  0  0  0  0
 16 17  1  0  0  0  0
 16 18  1  0  0  0  0
 17 39  1  0  0  0  0
 17 40  1  0  0  0  0
 17 41  1  0  0  0  0
 18 42  1  0  0  0  0
 18 43  1  0  0  0  0
 18 44  1  0  0  0  0
 19 20  2  0  0  0  0
 19 51  1  0  0  0  0
 20 45  1  0  0  0  0
 21 22  1  0  0  0  0
 21 46  1  0  0  0  0
 21 47  1  0  0  0  0
 22 48  1  0  0  0  0
 22 49  1  0  0  0  0
M  CHG  1   5   1
M  CHG  1  19   1
M  END
> <s_m_source_file>
AV-unprocessed.smi

> <i_m_source_file_index>
308

> <i_lp_mmshare_version>
43012

> <i_f3d_flags>
0

> <s_epik_input>
W0NIM11bQ0hdMVtDSDJdW0NIMl1OKFtDSDJdW0NIMl0xKVtDSDJdW0NIMl1bTkhdQyg9TylbTkhdYzJbY0hdW2NIXWMoTihbQ0gzXSlbQ0gzXSluW2NIXTI=

> <s_epik_cmdline>
J2VwaWtfcHl0aG9uJywgJy1waCcsICc3LjAnLCAnLXRuJywgJzgnLCAnLW1hJywgJzIwMCcsICctbWV0YWxfYmluZGluZycsICctaW1hZScsICc8aW5maWxlLm1hZT4nLCAnLW9tYWUnLCAnPG91dGZpbGUubWFlPic=

> <r_lp_tautomer_probability>
0.999994

> <r_epik_Ionization_Penalty>
0.309846

> <r_epik_Ionization_Penalty_Charging>
0.309826

> <r_epik_Ionization_Penalty_Neutral>
1.97883e-05

> <r_epik_State_Penalty>
0.302329

> <r_epik_Charging_Adjusted_Penalty>
0.612155

> <i_epik_Tot_Q>
2

> <i_epik_Tot_abs_Q>
2

> <r_epik_Metal_State_Penalty>
0.577265

> <b_epik_Metal_Only>
0

> <s_lp_Force_Field>
OPLS_2005

> <r_lp_Energy>
37.2755

> <b_lp_Chiralities_Consistent>
1

> <s_lp_Variant>
AV-unprocessed.smi:308-2

> <Gold.Version>
5.8.1

> <Gold.Id.Protein>
6NUR|6NUR_protein|mol2

> <Gold.PLP.Fitness>
47.3509

> <Gold.PLP.PLP>
-41.1394

> <Gold.PLP.part.hbond>
-3.2246

> <Gold.PLP.part.metal>
0.0000

> <Gold.PLP.part.buried>
-1.0857

> <Gold.PLP.part.nonpolar>
-37.2902

> <Gold.PLP.part.repulsive>
0.4316

> <Gold.PLP.ligand.clash>
0.0000

> <Gold.PLP.ligand.torsion>
1.4256

> <Gold.PLP.Chemscore.Hbond>
3.0000

> <Gold.PLP.Chemscore.CHOScore>
0.0000

> <Gold.PLP.Chemscore.Metal>
0.0000

> <Gold.Chemscore.Hbonds>
donor molecule, donor type, donor heavy atom, donor atom, acceptor molecule, acceptor atom, score
      L1  H     8    35       P1  7948  1.00
      L1  H    19    51       P1  8028  2.00

> <Gold.PLP.Chemscore.Internal.Correction>
0.0626

> <Gold.Rescore>
     Score         DG    S(hbond)    S(metal)    S(lipo)     H(rot)  DE(clash)    DE(int)     intcor
     17.73     -20.31       1.96        0.00     102.31       1.45       0.21       2.36       ----

> <Gold.Chemscore.Fitness>
17.7335

> <Gold.Chemscore.DG>
-20.3055

> <Gold.Chemscore.ZeroCoef>
-5.4800

> <Gold.Chemscore.Hbond>
1.9647

> <Gold.Chemscore.Metal>
0.0000

> <Gold.Chemscore.Lipo>
102.3080

> <Gold.Chemscore.Internal_Hbond>
0.0000

> <Gold.Chemscore.DEClash>
0.2143

> <Gold.Chemscore.DEInternal>
2.3577

> <Gold.Chemscore.Rot>
1.4479

> <Gold.Chemscore.Internal.Correction>
   9.000000E+99

> <Gold.Chemscore.Hbonds>
donor molecule, donor type, donor heavy atom, donor atom, acceptor molecule, acceptor atom, score
      L1  H     8    35       P1  7948  0.97
      L1  H    19    51       P1  8028  0.99

> <Gold.Chemscore.Hbond.Weighted>
-6.5620

> <Gold.Chemscore.Metal.Weighted>
-0.0000

> <Gold.Chemscore.Lipo.Weighted>
-11.9700

> <Gold.Chemscore.Internal_Hbond.Weighted>
0.0000

> <Gold.Chemscore.DEClash.Weighted>
0.2143

> <Gold.Chemscore.DEInternal.Weighted>
2.3577

> <Gold.Chemscore.Rot.Weighted>
3.7065

> <Gold.Chemscore.Internal.Correction.Weighted>
   9.000000E+99

> <Gold.Protein.RotatedTorsions>
[ 6907 6896 6895 6894 ] final  -12.63 input  -60.11 | X-H torsion
[ 7974 7965 7964 7962 ] final  -64.15 input  175.53 | X-H torsion
[ 8008 7997 7996 7995 ] final  176.24 input   59.86 | X-H torsion
[ 10167 10162 10161 10158 ] final   67.67 input  -65.29 | X-H torsion
[ 10718 10713 10712 10709 ] final -133.92 input   66.30 | X-H torsion
[ 10763 10752 10751 10750 ] final   53.85 input  -60.55 | X-H torsion
[ 11005 11000 10999 10996 ] final -132.82 input  -57.11 | X-H torsion

> <Gold.Protein.ActiveResidues>
 VAL166  LYS551  ARG553  GLY616  TRP617  ASP618  TYR619  PRO620  LYS621  CYS622 
 ASP623  PHE694  ASN695  SER759  ASP760  ASP761  ALA762  ILE779  LEU786  VAL792 
 PHE793  MET794  SER795  GLU796  ALA797  LYS798  CYS799  TRP800  GLU811  SER814 

> <Gold.Protein.RotatedAtoms>
  151.3675  135.0916  159.9454 H   0  0  0  0  0  0  0  0  0  0  0  0  # atno 6907 bound_to 6896
  152.5145  133.9197  159.7539 H   0  0  0  0  0  0  0  0  0  0  0  0  # atno 6908 bound_to 6896
  150.9604  133.6397  159.2784 H   0  0  0  0  0  0  0  0  0  0  0  0  # atno 6909 bound_to 6896
  145.7703  140.8816  143.0383 H   0  0  0  0  0  0  0  0  0  0  0  0  # atno 7974 bound_to 7965
  156.0786  140.1388  156.9741 H   0  0  0  0  0  0  0  0  0  0  0  0  # atno 8008 bound_to 7997
  154.4572  140.0957  156.6840 H   0  0  0  0  0  0  0  0  0  0  0  0  # atno 8009 bound_to 7997
  155.5113  140.3454  155.4391 H   0  0  0  0  0  0  0  0  0  0  0  0  # atno 8010 bound_to 7997
  140.0871  144.5021  150.7123 H   0  0  0  0  0  0  0  0  0  0  0  0  # atno 10167 bound_to 10162
  156.2500  130.7147  151.1043 H   0  0  0  0  0  0  0  0  0  0  0  0  # atno 10718 bound_to 10713
  152.9799  135.5765  154.4809 H   0  0  0  0  0  0  0  0  0  0  0  0  # atno 10763 bound_to 10752
  154.4358  135.2774  155.1883 H   0  0  0  0  0  0  0  0  0  0  0  0  # atno 10764 bound_to 10752
  154.3572  135.6196  153.5726 H   0  0  0  0  0  0  0  0  0  0  0  0  # atno 10765 bound_to 10752
  140.9136  134.1536  157.4370 H   0  0  0  0  0  0  0  0  0  0  0  0  # atno 11005 bound_to 11000
  144.6814  139.9846  143.7484 LP  0  0  0  0  0  0  0  0  0  0  0  0  # atno 17320 bound_to 7965
  146.0177  139.3223  143.0832 LP  0  0  0  0  0  0  0  0  0  0  0  0  # atno 17321 bound_to 7965
  140.7048  143.2460  151.4759 LP  0  0  0  0  0  0  0  0  0  0  0  0  # atno 17342 bound_to 10162
  139.5746  144.1849  152.1885 LP  0  0  0  0  0  0  0  0  0  0  0  0  # atno 17343 bound_to 10162
  157.7211  131.0681  150.6133 LP  0  0  0  0  0  0  0  0  0  0  0  0  # atno 17370 bound_to 10713
  156.6212  130.4406  149.5821 LP  0  0  0  0  0  0  0  0  0  0  0  0  # atno 17371 bound_to 10713
  139.8762  134.9945  156.5697 LP  0  0  0  0  0  0  0  0  0  0  0  0  # atno 17394 bound_to 11000
  140.8078  133.8453  155.8783 LP  0  0  0  0  0  0  0  0  0  0  0  0  # atno 17395 bound_to 11000

$$$$
