AV-unprocessed.smi:2037|AV-procd|sdf|8277|dock5
  -GOLD-   2272010543D 1   1.00000     0.00000
 Structure written by MMmdl.
 39 40  0  0  0  0  0  0  0  0  2 V2000
  145.5031  132.2911  149.2450 C   0  0  0  0  0  0  0  0  0  0  0  0
  144.9588  132.5409  150.6624 C   0  0  2  0  0  0  0  0  0  0  0  0
  145.5771  133.7836  151.3280 C   0  0  0  0  0  0  0  0  0  0  0  0
  147.0289  133.5416  151.7792 C   0  0  0  0  0  0  0  0  0  0  0  0
  147.1268  132.3650  152.6815 N   0  3  2  0  0  0  0  0  0  0  0  0
  148.4961  132.1932  153.2296 C   0  0  0  0  0  0  0  0  0  0  0  0
  148.7356  133.0418  154.4941 C   0  0  0  0  0  0  0  0  0  0  0  0
  149.2050  134.3824  154.1622 N   0  0  0  0  0  0  0  0  0  0  0  0
  150.1124  135.0724  154.8683 C   0  0  0  0  0  0  0  0  0  0  0  0
  150.6417  134.6394  155.8924 O   0  0  0  0  0  0  0  0  0  0  0  0
  150.3561  136.2724  154.3131 N   0  0  0  0  0  0  0  0  0  0  0  0
  151.2279  137.2918  154.7781 C   0  0  0  0  0  0  0  0  0  0  0  0
  152.3794  137.0642  155.4208 N   0  0  0  0  0  0  0  0  0  0  0  0
  153.0304  138.2511  155.7664 C   0  0  0  0  0  0  0  0  0  0  0  0
  152.3552  139.3811  155.3767 C   0  0  0  0  0  0  0  0  0  0  0  0
  150.8647  138.9974  154.5578 S   0  0  0  0  0  0  0  0  0  0  0  0
  146.5942  131.1355  152.0360 C   0  0  0  0  0  0  0  0  0  0  0  0
  145.1329  131.3260  151.5910 C   0  0  0  0  0  0  0  0  0  0  0  0
  146.5763  132.1031  149.2421 H   0  0  0  0  0  0  0  0  0  0  0  0
  145.3178  133.1500  148.5995 H   0  0  0  0  0  0  0  0  0  0  0  0
  145.0170  131.4293  148.7868 H   0  0  0  0  0  0  0  0  0  0  0  0
  143.8886  132.7224  150.5537 H   0  0  0  0  0  0  0  0  0  0  0  0
  145.5328  134.6371  150.6505 H   0  0  0  0  0  0  0  0  0  0  0  0
  144.9783  134.0581  152.1976 H   0  0  0  0  0  0  0  0  0  0  0  0
  147.6807  133.3975  150.9164 H   0  0  0  0  0  0  0  0  0  0  0  0
  147.3885  134.4317  152.2970 H   0  0  0  0  0  0  0  0  0  0  0  0
  148.6871  131.1374  153.4279 H   0  0  0  0  0  0  0  0  0  0  0  0
  149.2184  132.4970  152.4705 H   0  0  0  0  0  0  0  0  0  0  0  0
  147.8234  133.1061  155.0900 H   0  0  0  0  0  0  0  0  0  0  0  0
  149.4916  132.5855  155.1319 H   0  0  0  0  0  0  0  0  0  0  0  0
  148.8206  134.8096  153.3319 H   0  0  0  0  0  0  0  0  0  0  0  0
  149.8591  136.4846  153.4604 H   0  0  0  0  0  0  0  0  0  0  0  0
  153.9732  138.1989  156.2905 H   0  0  0  0  0  0  0  0  0  0  0  0
  152.6429  140.4116  155.5222 H   0  0  0  0  0  0  0  0  0  0  0  0
  147.2200  130.8675  151.1839 H   0  0  0  0  0  0  0  0  0  0  0  0
  146.6376  130.2962  152.7287 H   0  0  0  0  0  0  0  0  0  0  0  0
  144.5096  131.4610  152.4759 H   0  0  0  0  0  0  0  0  0  0  0  0
  144.7692  130.4217  151.1016 H   0  0  0  0  0  0  0  0  0  0  0  0
  146.5285  132.5684  153.4695 H   0  0  0  0  0  0  0  0  0  0  0  0
  1  2  1  0  0  0  0
  1 19  1  0  0  0  0
  1 20  1  0  0  0  0
  1 21  1  0  0  0  0
  2 18  1  0  0  0  0
  2  3  1  0  0  0  0
  2 22  1  0  0  0  0
  3  4  1  0  0  0  0
  3 23  1  0  0  0  0
  3 24  1  0  0  0  0
  4  5  1  0  0  0  0
  4 25  1  0  0  0  0
  4 26  1  0  0  0  0
  5  6  1  0  0  0  0
  5 17  1  0  0  0  0
  5 39  1  0  0  0  0
  6  7  1  0  0  0  0
  6 27  1  0  0  0  0
  6 28  1  0  0  0  0
  7  8  1  0  0  0  0
  7 29  1  0  0  0  0
  7 30  1  0  0  0  0
  8  9  1  0  0  0  0
  8 31  1  0  0  0  0
  9 10  2  0  0  0  0
  9 11  1  0  0  0  0
 11 12  1  0  0  0  0
 11 32  1  0  0  0  0
 12 16  1  0  0  0  0
 12 13  2  0  0  0  0
 13 14  1  0  0  0  0
 14 15  2  0  0  0  0
 14 33  1  0  0  0  0
 15 16  1  0  0  0  0
 15 34  1  0  0  0  0
 17 18  1  0  0  0  0
 17 35  1  0  0  0  0
 17 36  1  0  0  0  0
 18 37  1  0  0  0  0
 18 38  1  0  0  0  0
M  CHG  1   5   1
M  END
> <s_m_source_file>
AV-unprocessed.smi

> <i_m_source_file_index>
2037

> <i_lp_mmshare_version>
43012

> <i_f3d_flags>
0

> <s_epik_input>
W0NIM11bQ0hdMVtDSDJdW0NIMl1OKFtDSDJdW0NIMl0xKVtDSDJdW0NIMl1bTkhdQyg9TylbTkhdYzJuW2NIXVtjSF1zMg==

> <s_epik_cmdline>
J2VwaWtfcHl0aG9uJywgJy1waCcsICc3LjAnLCAnLXRuJywgJzgnLCAnLW1hJywgJzIwMCcsICctbWV0YWxfYmluZGluZycsICctaW1hZScsICc8aW5maWxlLm1hZT4nLCAnLW9tYWUnLCAnPG91dGZpbGUubWFlPic=

> <r_lp_tautomer_probability>
0.999

> <r_epik_Ionization_Penalty>
0.00182893

> <r_epik_Ionization_Penalty_Charging>
0.00168873

> <r_epik_Ionization_Penalty_Neutral>
0.000140204

> <r_epik_State_Penalty>
0.00114045

> <r_epik_Charging_Adjusted_Penalty>
0.00282917

> <i_epik_Tot_Q>
1

> <i_epik_Tot_abs_Q>
1

> <r_epik_Metal_State_Penalty>
0.0569426

> <b_epik_Metal_Only>
0

> <s_lp_Force_Field>
OPLS_2005

> <r_lp_Energy>
15.966

> <b_lp_Chiralities_Consistent>
1

> <s_lp_Variant>
AV-unprocessed.smi:2037-2

> <Gold.Version>
5.8.1

> <Gold.Id.Protein>
6NUR|6NUR_protein|mol2

> <Gold.PLP.Fitness>
43.1147

> <Gold.PLP.PLP>
-36.5020

> <Gold.PLP.part.hbond>
-4.0000

> <Gold.PLP.part.metal>
0.0000

> <Gold.PLP.part.buried>
-1.8325

> <Gold.PLP.part.nonpolar>
-29.6637

> <Gold.PLP.part.repulsive>
0.1334

> <Gold.PLP.ligand.clash>
0.0000

> <Gold.PLP.ligand.torsion>
0.9140

> <Gold.PLP.Chemscore.Hbond>
2.8080

> <Gold.PLP.Chemscore.CHOScore>
0.0000

> <Gold.PLP.Chemscore.Metal>
0.0000

> <Gold.Chemscore.Hbonds>
donor molecule, donor type, donor heavy atom, donor atom, acceptor molecule, acceptor atom, score
      L1  H     8    31       P1  7948  0.98
      L1  H    11    32       P1  7948  0.95
      P1  H 10752 10763       L1    13  0.77

> <Gold.PLP.Chemscore.Internal.Correction>
0.0166

> <Gold.Rescore>
     Score         DG    S(hbond)    S(metal)    S(lipo)     H(rot)  DE(clash)    DE(int)     intcor
     16.53     -17.66       2.02        0.00      81.35       1.60       0.01       1.12       ----

> <Gold.Chemscore.Fitness>
16.5301

> <Gold.Chemscore.DG>
-17.6582

> <Gold.Chemscore.ZeroCoef>
-5.4800

> <Gold.Chemscore.Hbond>
2.0228

> <Gold.Chemscore.Metal>
0.0000

> <Gold.Chemscore.Lipo>
81.3524

> <Gold.Chemscore.Internal_Hbond>
0.0000

> <Gold.Chemscore.DEClash>
0.0081

> <Gold.Chemscore.DEInternal>
1.1200

> <Gold.Chemscore.Rot>
1.6001

> <Gold.Chemscore.Internal.Correction>
   9.000000E+99

> <Gold.Chemscore.Hbonds>
donor molecule, donor type, donor heavy atom, donor atom, acceptor molecule, acceptor atom, score
      L1  H     8    31       P1  7948  0.27
      L1  H    11    32       P1  7948  0.21
      P1  H 10752 10763       L1    13  0.39

> <Gold.Chemscore.Hbond.Weighted>
-6.7562

> <Gold.Chemscore.Metal.Weighted>
-0.0000

> <Gold.Chemscore.Lipo.Weighted>
-9.5182

> <Gold.Chemscore.Internal_Hbond.Weighted>
0.0000

> <Gold.Chemscore.DEClash.Weighted>
0.0081

> <Gold.Chemscore.DEInternal.Weighted>
1.1200

> <Gold.Chemscore.Rot.Weighted>
4.0963

> <Gold.Chemscore.Internal.Correction.Weighted>
   9.000000E+99

> <Gold.Protein.RotatedTorsions>
[ 6907 6896 6895 6894 ] final   33.46 input  -60.11 | X-H torsion
[ 7974 7965 7964 7962 ] final  102.17 input  175.53 | X-H torsion
[ 8008 7997 7996 7995 ] final  105.88 input   59.86 | X-H torsion
[ 10167 10162 10161 10158 ] final -167.89 input  -65.29 | X-H torsion
[ 10718 10713 10712 10709 ] final -113.74 input   66.30 | X-H torsion
[ 10763 10752 10751 10750 ] final   67.45 input  -60.55 | X-H torsion
[ 11005 11000 10999 10996 ] final -140.88 input  -57.11 | X-H torsion

> <Gold.Protein.ActiveResidues>
 VAL166  LYS551  ARG553  GLY616  TRP617  ASP618  TYR619  PRO620  LYS621  CYS622 
 ASP623  PHE694  ASN695  SER759  ASP760  ASP761  ALA762  ILE779  LEU786  VAL792 
 PHE793  MET794  SER795  GLU796  ALA797  LYS798  CYS799  TRP800  GLU811  SER814 

> <Gold.Protein.RotatedAtoms>
  152.0888  134.9421  160.0572 H   0  0  0  0  0  0  0  0  0  0  0  0  # atno 6907 bound_to 6896
  152.0681  133.4089  159.4455 H   0  0  0  0  0  0  0  0  0  0  0  0  # atno 6908 bound_to 6896
  150.6836  134.3043  159.4763 H   0  0  0  0  0  0  0  0  0  0  0  0  # atno 6909 bound_to 6896
  145.3626  139.2415  143.3498 H   0  0  0  0  0  0  0  0  0  0  0  0  # atno 7974 bound_to 7965
  156.1697  140.3122  155.8951 H   0  0  0  0  0  0  0  0  0  0  0  0  # atno 8008 bound_to 7997
  155.3613  140.0476  157.3063 H   0  0  0  0  0  0  0  0  0  0  0  0  # atno 8009 bound_to 7997
  154.5228  140.2204  155.8955 H   0  0  0  0  0  0  0  0  0  0  0  0  # atno 8010 bound_to 7997
  139.6020  144.0990  152.1753 H   0  0  0  0  0  0  0  0  0  0  0  0  # atno 10167 bound_to 10162
  156.0786  130.5989  150.8682 H   0  0  0  0  0  0  0  0  0  0  0  0  # atno 10718 bound_to 10713
  153.0187  135.5283  154.6981 H   0  0  0  0  0  0  0  0  0  0  0  0  # atno 10763 bound_to 10752
  154.6097  135.2877  155.0448 H   0  0  0  0  0  0  0  0  0  0  0  0  # atno 10764 bound_to 10752
  154.1474  135.6568  153.5008 H   0  0  0  0  0  0  0  0  0  0  0  0  # atno 10765 bound_to 10752
  140.8380  134.2437  157.4824 H   0  0  0  0  0  0  0  0  0  0  0  0  # atno 11005 bound_to 11000
  146.2920  140.4263  142.8736 LP  0  0  0  0  0  0  0  0  0  0  0  0  # atno 17320 bound_to 7965
  144.8635  140.7173  143.6092 LP  0  0  0  0  0  0  0  0  0  0  0  0  # atno 17321 bound_to 7965
  140.0589  144.5873  150.7278 LP  0  0  0  0  0  0  0  0  0  0  0  0  # atno 17342 bound_to 10162
  140.7257  143.2634  151.4129 LP  0  0  0  0  0  0  0  0  0  0  0  0  # atno 17343 bound_to 10162
  157.5892  131.0945  150.9146 LP  0  0  0  0  0  0  0  0  0  0  0  0  # atno 17370 bound_to 10713
  156.9325  130.5355  149.5279 LP  0  0  0  0  0  0  0  0  0  0  0  0  # atno 17371 bound_to 10713
  139.8703  134.9620  156.4416 LP  0  0  0  0  0  0  0  0  0  0  0  0  # atno 17394 bound_to 11000
  140.8927  133.7837  155.9590 LP  0  0  0  0  0  0  0  0  0  0  0  0  # atno 17395 bound_to 11000

$$$$
