AV-unprocessed.smi:72|AV-procd|sdf|698|dock6
  -GOLD-   2262017 13D 1   1.00000     0.00000
 Structure written by MMmdl.
 30 31  0  0  0  0  0  0  0  0  2 V2000
  143.3857  142.7367  155.0732 N   0  0  0  0  0  0  0  0  0  0  0  0
  144.6471  142.3391  155.4644 C   0  0  0  0  0  0  0  0  0  0  0  0
  145.2973  141.4026  154.6807 N   0  3  0  0  0  0  0  0  0  0  0  0
  146.5194  140.9108  154.9240 C   0  0  0  0  0  0  0  0  0  0  0  0
  147.1797  141.3312  155.9827 N   0  0  0  0  0  0  0  0  0  0  0  0
  148.5581  140.8021  156.2815 C   0  0  1  0  0  0  0  0  0  0  0  0
  148.4594  139.4152  156.3982 O   0  0  0  0  0  0  0  0  0  0  0  0
  149.5138  138.7959  155.6697 C   0  0  1  0  0  0  0  0  0  0  0  0
  149.1655  137.3376  155.3221 C   0  0  0  0  0  0  0  0  0  0  0  0
  150.1230  136.8061  154.4317 O   0  0  0  0  0  0  0  0  0  0  0  0
  149.7676  139.7529  154.4966 C   0  0  1  0  0  0  0  0  0  0  0  0
  148.8452  139.5222  153.4441 O   0  0  0  0  0  0  0  0  0  0  0  0
  149.5664  141.1126  155.1552 C   0  0  1  0  0  0  0  0  0  0  0  0
  149.1819  142.1190  154.2337 O   0  0  0  0  0  0  0  0  0  0  0  0
  146.5996  142.2994  156.8424 C   0  0  0  0  0  0  0  0  0  0  0  0
  147.2145  142.7156  157.8231 O   0  0  0  0  0  0  0  0  0  0  0  0
  145.3141  142.7499  156.5073 N   0  0  0  0  0  0  0  0  0  0  0  0
  148.8552  141.2126  157.2474 H   0  0  0  0  0  0  0  0  0  0  0  0
  150.3913  138.8052  156.3195 H   0  0  0  0  0  0  0  0  0  0  0  0
  150.7762  139.6452  154.0958 H   0  0  0  0  0  0  0  0  0  0  0  0
  150.4963  141.4190  155.6362 H   0  0  0  0  0  0  0  0  0  0  0  0
  142.8375  143.4150  155.5836 H   0  0  0  0  0  0  0  0  0  0  0  0
  142.9122  142.3890  154.2517 H   0  0  0  0  0  0  0  0  0  0  0  0
  146.9454  140.1775  154.2516 H   0  0  0  0  0  0  0  0  0  0  0  0
  149.1656  136.7312  156.2280 H   0  0  0  0  0  0  0  0  0  0  0  0
  148.1701  137.2536  154.8856 H   0  0  0  0  0  0  0  0  0  0  0  0
  149.7068  136.6522  153.5970 H   0  0  0  0  0  0  0  0  0  0  0  0
  149.1448  139.9915  152.6797 H   0  0  0  0  0  0  0  0  0  0  0  0
  149.0746  142.9308  154.7058 H   0  0  0  0  0  0  0  0  0  0  0  0
  144.8103  141.0659  153.8625 H   0  0  0  0  0  0  0  0  0  0  0  0
  1  2  1  0  0  0  0
  1 22  1  0  0  0  0
  1 23  1  0  0  0  0
  2 17  2  0  0  0  0
  2  3  1  0  0  0  0
  3  4  2  0  0  0  0
  3 30  1  0  0  0  0
  4  5  1  0  0  0  0
  4 24  1  0  0  0  0
  5  6  1  0  0  0  0
  5 15  1  0  0  0  0
  6 18  1  0  0  0  0
  6 13  1  0  0  0  0
  6  7  1  0  0  0  0
  7  8  1  0  0  0  0
  8 19  1  0  0  0  0
  8  9  1  0  0  0  0
  8 11  1  0  0  0  0
  9 10  1  0  0  0  0
  9 25  1  0  0  0  0
  9 26  1  0  0  0  0
 10 27  1  0  0  0  0
 11 20  1  0  0  0  0
 11 12  1  0  0  0  0
 11 13  1  0  0  0  0
 12 28  1  0  0  0  0
 13 21  1  0  0  0  0
 13 14  1  0  0  0  0
 14 29  1  0  0  0  0
 15 16  2  0  0  0  0
 15 17  1  0  0  0  0
M  CHG  1   3   1
M  END
> <s_m_source_file>
AV-unprocessed.smi

> <i_m_source_file_index>
72

> <i_lp_mmshare_version>
43012

> <i_f3d_flags>
0

> <s_epik_input>
W05IMl1jMW5bY0hdbihjKD1PKW4xKVtDQEBIXTJPW0NASF0oW0NIMl1bT0hdKVtDQEBIXShbT0hdKVtDQEhdMltPSF0=

> <s_epik_cmdline>
J2VwaWtfcHl0aG9uJywgJy1waCcsICc3LjAnLCAnLXRuJywgJzgnLCAnLW1hJywgJzIwMCcsICctbWV0YWxfYmluZGluZycsICctaW1hZScsICc8aW5maWxlLm1hZT4nLCAnLW9tYWUnLCAnPG91dGZpbGUubWFlPic=

> <r_lp_tautomer_probability>
4.77166e-05

> <r_epik_Ionization_Penalty>
0.104979

> <r_epik_Ionization_Penalty_Charging>
0.0999619

> <r_epik_Ionization_Penalty_Neutral>
0.00501745

> <r_epik_State_Penalty>
2.51541

> <r_epik_Charging_Adjusted_Penalty>
2.61537

> <i_epik_Tot_Q>
1

> <i_epik_Tot_abs_Q>
1

> <r_epik_Metal_State_Penalty>
3.53763

> <b_epik_Metal_Only>
0

> <s_epik_Chemistry_Notes>
This compound contains an acetal/aminal-like group ( X-CH(R)-Y where X, Y are N, S, or O) that may be acid/base labile, releasing an aldehyde.

> <s_lp_Force_Field>
OPLS_2005

> <r_lp_Energy>
38.8596

> <b_lp_Chiralities_Consistent>
1

> <s_lp_Variant>
AV-unprocessed.smi:72-36

> <Gold.Version>
5.8.1

> <Gold.Id.Protein>
6NUR|6NUR_protein|mol2

> <Gold.PLP.Fitness>
37.4745

> <Gold.PLP.PLP>
-18.5809

> <Gold.PLP.part.hbond>
-6.5167

> <Gold.PLP.part.metal>
0.0000

> <Gold.PLP.part.buried>
-3.3321

> <Gold.PLP.part.nonpolar>
-9.5453

> <Gold.PLP.part.repulsive>
0.2758

> <Gold.PLP.ligand.clash>
0.0000

> <Gold.PLP.ligand.torsion>
0.0458

> <Gold.PLP.Chemscore.Hbond>
6.3200

> <Gold.PLP.Chemscore.CHOScore>
0.0000

> <Gold.PLP.Chemscore.Metal>
0.0000

> <Gold.Chemscore.Hbonds>
donor molecule, donor type, donor heavy atom, donor atom, acceptor molecule, acceptor atom, score
      L1  H     1    23       P1 10174  0.73
      L1  H     3    30       P1 10175  2.00
      L1  H    10    27       P1  7948  1.00
      L1  H    12    28       P1  7957  1.00
      L1  H    14    29       P1  8028  1.00
      P1  H  8011  8017       L1    14  0.32

> <Gold.PLP.Chemscore.Internal.Correction>
0.0252

> <Gold.Rescore>
     Score         DG    S(hbond)    S(metal)    S(lipo)     H(rot)  DE(clash)    DE(int)     intcor
     11.11     -11.49       4.29        0.00      18.28       4.08       0.00       0.38       ----

> <Gold.Chemscore.Fitness>
11.1076

> <Gold.Chemscore.DG>
-11.4935

> <Gold.Chemscore.ZeroCoef>
-5.4800

> <Gold.Chemscore.Hbond>
4.2859

> <Gold.Chemscore.Metal>
0.0000

> <Gold.Chemscore.Lipo>
18.2815

> <Gold.Chemscore.Internal_Hbond>
0.0000

> <Gold.Chemscore.DEClash>
0.0021

> <Gold.Chemscore.DEInternal>
0.3838

> <Gold.Chemscore.Rot>
4.0783

> <Gold.Chemscore.Internal.Correction>
   9.000000E+99

> <Gold.Chemscore.Hbonds>
donor molecule, donor type, donor heavy atom, donor atom, acceptor molecule, acceptor atom, score
      L1  H     1    23       P1 10174  0.21
      L1  H     3    30       P1 10175  0.74
      L1  H    10    27       P1  7948  0.55
      L1  H    12    28       P1  7957  0.95
      L1  H    14    29       P1  8028  0.94
      P1  H  8011  8017       L1    14  0.24

> <Gold.Chemscore.Hbond.Weighted>
-14.3150

> <Gold.Chemscore.Metal.Weighted>
-0.0000

> <Gold.Chemscore.Lipo.Weighted>
-2.1389

> <Gold.Chemscore.Internal_Hbond.Weighted>
0.0000

> <Gold.Chemscore.DEClash.Weighted>
0.0021

> <Gold.Chemscore.DEInternal.Weighted>
0.3838

> <Gold.Chemscore.Rot.Weighted>
10.4404

> <Gold.Chemscore.Internal.Correction.Weighted>
   9.000000E+99

> <Gold.Protein.RotatedTorsions>
[ 6907 6896 6895 6894 ] final  -41.54 input  -60.11 | X-H torsion
[ 7974 7965 7964 7962 ] final  -94.96 input  175.53 | X-H torsion
[ 8008 7997 7996 7995 ] final  -49.41 input   59.86 | X-H torsion
[ 10167 10162 10161 10158 ] final   51.37 input  -65.29 | X-H torsion
[ 10718 10713 10712 10709 ] final   80.49 input   66.30 | X-H torsion
[ 10763 10752 10751 10750 ] final    4.60 input  -60.55 | X-H torsion
[ 11005 11000 10999 10996 ] final -137.95 input  -57.11 | X-H torsion

> <Gold.Protein.ActiveResidues>
 VAL166  LYS551  ARG553  GLY616  TRP617  ASP618  TYR619  PRO620  LYS621  CYS622 
 ASP623  PHE694  ASN695  SER759  ASP760  ASP761  ALA762  ILE779  LEU786  VAL792 
 PHE793  MET794  SER795  GLU796  ALA797  LYS798  CYS799  TRP800  GLU811  SER814 

> <Gold.Protein.RotatedAtoms>
  150.9655  134.9036  159.7756 H   0  0  0  0  0  0  0  0  0  0  0  0  # atno 6907 bound_to 6896
  152.5172  134.3613  159.9295 H   0  0  0  0  0  0  0  0  0  0  0  0  # atno 6908 bound_to 6896
  151.3624  133.3844  159.2726 H   0  0  0  0  0  0  0  0  0  0  0  0  # atno 6909 bound_to 6896
  145.3664  140.9499  143.2472 H   0  0  0  0  0  0  0  0  0  0  0  0  # atno 7974 bound_to 7965
  154.4044  140.1297  156.4499 H   0  0  0  0  0  0  0  0  0  0  0  0  # atno 8008 bound_to 7997
  155.7377  140.3490  155.5069 H   0  0  0  0  0  0  0  0  0  0  0  0  # atno 8009 bound_to 7997
  155.9068  140.1029  157.1299 H   0  0  0  0  0  0  0  0  0  0  0  0  # atno 8010 bound_to 7997
  140.2626  144.3356  150.6313 H   0  0  0  0  0  0  0  0  0  0  0  0  # atno 10167 bound_to 10162
  157.6807  130.9962  150.2087 H   0  0  0  0  0  0  0  0  0  0  0  0  # atno 10718 bound_to 10713
  153.2694  135.6931  153.7496 H   0  0  0  0  0  0  0  0  0  0  0  0  # atno 10763 bound_to 10752
  153.6526  135.3374  155.3105 H   0  0  0  0  0  0  0  0  0  0  0  0  # atno 10764 bound_to 10752
  154.8458  135.4458  154.1711 H   0  0  0  0  0  0  0  0  0  0  0  0  # atno 10765 bound_to 10752
  140.8662  134.2108  157.4678 H   0  0  0  0  0  0  0  0  0  0  0  0  # atno 11005 bound_to 11000
  144.8608  139.5180  143.6813 LP  0  0  0  0  0  0  0  0  0  0  0  0  # atno 17320 bound_to 7965
  146.2905  139.7125  142.9164 LP  0  0  0  0  0  0  0  0  0  0  0  0  # atno 17321 bound_to 7965
  140.5954  143.2167  151.7174 LP  0  0  0  0  0  0  0  0  0  0  0  0  # atno 17342 bound_to 10162
  139.5012  144.3875  152.0313 LP  0  0  0  0  0  0  0  0  0  0  0  0  # atno 17343 bound_to 10162
  156.2763  130.3728  149.7981 LP  0  0  0  0  0  0  0  0  0  0  0  0  # atno 17370 bound_to 10713
  156.5683  130.8413  151.3349 LP  0  0  0  0  0  0  0  0  0  0  0  0  # atno 17371 bound_to 10713
  139.8709  134.9753  156.4877 LP  0  0  0  0  0  0  0  0  0  0  0  0  # atno 17394 bound_to 11000
  140.8626  133.8048  155.9281 LP  0  0  0  0  0  0  0  0  0  0  0  0  # atno 17395 bound_to 11000

$$$$
