AV-unprocessed.smi:2647|AV-procd|sdf|10283|dock10
  -GOLD-   2272014293D 1   1.00000     0.00000
 Structure written by MMmdl.
 32 33  0  0  0  0  0  0  0  0  1 V2000
  148.8819  133.4144  155.3459 O   0  0  0  0  0  0  0  0  0  0  0  0
  148.8888  134.2827  154.4729 C   0  0  0  0  0  0  0  0  0  0  0  0
  149.5147  135.4606  154.6073 N   0  0  0  0  0  0  0  0  0  0  0  0
  150.2720  135.8773  155.7831 C   0  0  0  0  0  0  0  0  0  0  0  0
  151.3380  136.9355  155.4487 C   0  0  0  0  0  0  0  0  0  0  0  0
  150.9229  137.8918  154.3145 C   0  0  0  0  0  0  0  0  0  0  0  0
  150.6692  139.2430  154.8237 N   0  0  0  0  0  0  0  0  0  0  0  0
  149.5181  139.9076  154.6501 C   0  0  0  0  0  0  0  0  0  0  0  0
  148.5280  139.5031  154.0413 O   0  0  0  0  0  0  0  0  0  0  0  0
  149.5676  141.2720  155.3242 C   0  0  0  0  0  0  0  0  0  0  0  0
  150.9681  141.3007  155.9450 C   0  0  0  0  0  0  0  0  0  0  0  0
  151.5475  139.9488  155.5501 C   0  0  0  0  0  0  0  0  0  0  0  0
  152.6770  139.5884  155.8802 O   0  0  0  0  0  0  0  0  0  0  0  0
  148.2865  134.1866  153.2745 N   0  0  0  0  0  0  0  0  0  0  0  0
  147.5133  133.1119  152.7614 C   0  0  0  0  0  0  0  0  0  0  0  0
  147.2960  131.9662  153.4262 N   0  0  0  0  0  0  0  0  0  0  0  0
  146.5036  131.0863  152.7003 N   0  0  0  0  0  0  0  0  0  0  0  0
  146.1554  131.6018  151.5179 C   0  0  0  0  0  0  0  0  0  0  0  0
  146.7610  133.2134  151.1759 S   0  0  0  0  0  0  0  0  0  0  0  0
  149.4689  136.1157  153.8406 H   0  0  0  0  0  0  0  0  0  0  0  0
  149.5710  136.2770  156.5162 H   0  0  0  0  0  0  0  0  0  0  0  0
  150.7401  135.0083  156.2487 H   0  0  0  0  0  0  0  0  0  0  0  0
  151.5453  137.5151  156.3488 H   0  0  0  0  0  0  0  0  0  0  0  0
  152.2748  136.4409  155.1882 H   0  0  0  0  0  0  0  0  0  0  0  0
  151.6973  137.9280  153.5465 H   0  0  0  0  0  0  0  0  0  0  0  0
  150.0321  137.5086  153.8135 H   0  0  0  0  0  0  0  0  0  0  0  0
  149.4314  142.0668  154.5901 H   0  0  0  0  0  0  0  0  0  0  0  0
  148.7863  141.3531  156.0806 H   0  0  0  0  0  0  0  0  0  0  0  0
  151.5759  142.1106  155.5401 H   0  0  0  0  0  0  0  0  0  0  0  0
  150.9295  141.3974  157.0305 H   0  0  0  0  0  0  0  0  0  0  0  0
  148.3879  134.9790  152.6579 H   0  0  0  0  0  0  0  0  0  0  0  0
  145.5374  131.0295  150.8422 H   0  0  0  0  0  0  0  0  0  0  0  0
  1  2  2  0  0  0  0
  2  3  1  0  0  0  0
  2 14  1  0  0  0  0
  3  4  1  0  0  0  0
  3 20  1  0  0  0  0
  4  5  1  0  0  0  0
  4 21  1  0  0  0  0
  4 22  1  0  0  0  0
  5  6  1  0  0  0  0
  5 23  1  0  0  0  0
  5 24  1  0  0  0  0
  6  7  1  0  0  0  0
  6 25  1  0  0  0  0
  6 26  1  0  0  0  0
  7 12  1  0  0  0  0
  7  8  1  0  0  0  0
  8  9  2  0  0  0  0
  8 10  1  0  0  0  0
 10 11  1  0  0  0  0
 10 27  1  0  0  0  0
 10 28  1  0  0  0  0
 11 12  1  0  0  0  0
 11 29  1  0  0  0  0
 11 30  1  0  0  0  0
 12 13  2  0  0  0  0
 14 15  1  0  0  0  0
 14 31  1  0  0  0  0
 15 19  1  0  0  0  0
 15 16  2  0  0  0  0
 16 17  1  0  0  0  0
 17 18  2  0  0  0  0
 18 19  1  0  0  0  0
 18 32  1  0  0  0  0
M  END
> <s_m_source_file>
AV-unprocessed.smi

> <i_m_source_file_index>
2647

> <i_lp_mmshare_version>
43012

> <i_f3d_flags>
0

> <s_epik_input>
czFbY0hdbm5jMVtOSF1DKD1PKVtOSF1bQ0gyXVtDSDJdW0NIMl1OMkMoPU8pW0NIMl1bQ0gyXUMyPU8=

> <s_epik_cmdline>
J2VwaWtfcHl0aG9uJywgJy1waCcsICc3LjAnLCAnLXRuJywgJzgnLCAnLW1hJywgJzIwMCcsICctbWV0YWxfYmluZGluZycsICctaW1hZScsICc8aW5maWxlLm1hZT4nLCAnLW9tYWUnLCAnPG91dGZpbGUubWFlPic=

> <r_lp_tautomer_probability>
1

> <r_epik_Ionization_Penalty>
0.00175263

> <r_epik_Ionization_Penalty_Charging>
0

> <r_epik_Ionization_Penalty_Neutral>
0.00175263

> <r_epik_State_Penalty>
-0

> <r_epik_Charging_Adjusted_Penalty>
0

> <i_epik_Tot_Q>
0

> <i_epik_Tot_abs_Q>
0

> <r_epik_Metal_State_Penalty>
0.330668

> <b_epik_Metal_Only>
0

> <s_lp_Force_Field>
OPLS_2005

> <r_lp_Energy>
10.1998

> <b_lp_Chiralities_Consistent>
1

> <s_lp_Variant>
AV-unprocessed.smi:2647-1

> <Gold.Version>
5.8.1

> <Gold.Id.Protein>
6NUR|6NUR_protein|mol2

> <Gold.PLP.Fitness>
39.4456

> <Gold.PLP.PLP>
-32.2997

> <Gold.PLP.part.hbond>
-3.0000

> <Gold.PLP.part.metal>
0.0000

> <Gold.PLP.part.buried>
-2.3835

> <Gold.PLP.part.nonpolar>
-26.8842

> <Gold.PLP.part.repulsive>
0.8990

> <Gold.PLP.ligand.clash>
0.0000

> <Gold.PLP.ligand.torsion>
0.7048

> <Gold.PLP.Chemscore.Hbond>
2.8480

> <Gold.PLP.Chemscore.CHOScore>
0.0000

> <Gold.PLP.Chemscore.Metal>
0.0000

> <Gold.Chemscore.Hbonds>
donor molecule, donor type, donor heavy atom, donor atom, acceptor molecule, acceptor atom, score
      L1  H     3    20       P1  7948  0.83
      L1  H    14    31       P1  7948  1.00
      P1  H  7997  8010       L1    13  1.00

> <Gold.PLP.Chemscore.Internal.Correction>
0.0116

> <Gold.Rescore>
     Score         DG    S(hbond)    S(metal)    S(lipo)     H(rot)  DE(clash)    DE(int)     intcor
     11.23     -13.25       2.58        0.00      44.48       2.36       0.03       1.99       ----

> <Gold.Chemscore.Fitness>
11.2298

> <Gold.Chemscore.DG>
-13.2467

> <Gold.Chemscore.ZeroCoef>
-5.4800

> <Gold.Chemscore.Hbond>
2.5782

> <Gold.Chemscore.Metal>
0.0000

> <Gold.Chemscore.Lipo>
44.4831

> <Gold.Chemscore.Internal_Hbond>
0.0000

> <Gold.Chemscore.DEClash>
0.0270

> <Gold.Chemscore.DEInternal>
1.9899

> <Gold.Chemscore.Rot>
2.3629

> <Gold.Chemscore.Internal.Correction>
   9.000000E+99

> <Gold.Chemscore.Hbonds>
donor molecule, donor type, donor heavy atom, donor atom, acceptor molecule, acceptor atom, score
      L1  H     3    20       P1  7948  0.50
      L1  H    14    31       P1  7948  0.57
      P1  H  7997  8010       L1    13  0.99

> <Gold.Chemscore.Hbond.Weighted>
-8.6112

> <Gold.Chemscore.Metal.Weighted>
-0.0000

> <Gold.Chemscore.Lipo.Weighted>
-5.2045

> <Gold.Chemscore.Internal_Hbond.Weighted>
0.0000

> <Gold.Chemscore.DEClash.Weighted>
0.0270

> <Gold.Chemscore.DEInternal.Weighted>
1.9899

> <Gold.Chemscore.Rot.Weighted>
6.0490

> <Gold.Chemscore.Internal.Correction.Weighted>
   9.000000E+99

> <Gold.Protein.RotatedTorsions>
[ 6907 6896 6895 6894 ] final  -88.24 input  -60.11 | X-H torsion
[ 7974 7965 7964 7962 ] final -167.80 input  175.53 | X-H torsion
[ 8008 7997 7996 7995 ] final   69.32 input   59.86 | X-H torsion
[ 10167 10162 10161 10158 ] final    9.84 input  -65.29 | X-H torsion
[ 10718 10713 10712 10709 ] final  -59.46 input   66.30 | X-H torsion
[ 10763 10752 10751 10750 ] final -158.49 input  -60.55 | X-H torsion
[ 11005 11000 10999 10996 ] final   51.76 input  -57.11 | X-H torsion

> <Gold.Protein.ActiveResidues>
 VAL166  LYS551  ARG553  GLY616  TRP617  ASP618  TYR619  PRO620  LYS621  CYS622 
 ASP623  PHE694  ASN695  SER759  ASP760  ASP761  ALA762  ILE779  LEU786  VAL792 
 PHE793  MET794  SER795  GLU796  ALA797  LYS798  CYS799  TRP800  GLU811  SER814 

> <Gold.Protein.RotatedAtoms>
  150.6868  134.2772  159.4612 H   0  0  0  0  0  0  0  0  0  0  0  0  # atno 6907 bound_to 6896
  152.0689  134.9544  160.0584 H   0  0  0  0  0  0  0  0  0  0  0  0  # atno 6908 bound_to 6896
  152.0941  133.4181  159.4594 H   0  0  0  0  0  0  0  0  0  0  0  0  # atno 6909 bound_to 6896
  144.7215  140.2464  143.6284 H   0  0  0  0  0  0  0  0  0  0  0  0  # atno 7974 bound_to 7965
  155.7218  140.3493  155.5019 H   0  0  0  0  0  0  0  0  0  0  0  0  # atno 8008 bound_to 7997
  155.9263  140.1076  157.1189 H   0  0  0  0  0  0  0  0  0  0  0  0  # atno 8009 bound_to 7997
  154.4078  140.1240  156.4731 H   0  0  0  0  0  0  0  0  0  0  0  0  # atno 8010 bound_to 7997
  140.6230  143.8162  150.7199 H   0  0  0  0  0  0  0  0  0  0  0  0  # atno 10167 bound_to 10162
  156.1060  130.4180  150.0718 H   0  0  0  0  0  0  0  0  0  0  0  0  # atno 10718 bound_to 10713
  154.7552  135.3103  154.8483 H   0  0  0  0  0  0  0  0  0  0  0  0  # atno 10763 bound_to 10752
  153.9259  135.6790  153.4751 H   0  0  0  0  0  0  0  0  0  0  0  0  # atno 10764 bound_to 10752
  153.1149  135.4849  154.9028 H   0  0  0  0  0  0  0  0  0  0  0  0  # atno 10765 bound_to 10752
  140.0906  134.5215  155.8856 H   0  0  0  0  0  0  0  0  0  0  0  0  # atno 11005 bound_to 11000
  145.8270  139.2069  143.1905 LP  0  0  0  0  0  0  0  0  0  0  0  0  # atno 17320 bound_to 7965
  146.0464  140.8113  142.9803 LP  0  0  0  0  0  0  0  0  0  0  0  0  # atno 17321 bound_to 7965
  140.1757  143.4157  152.1969 LP  0  0  0  0  0  0  0  0  0  0  0  0  # atno 17342 bound_to 10162
  139.5455  144.7295  151.4596 LP  0  0  0  0  0  0  0  0  0  0  0  0  # atno 17343 bound_to 10162
  156.8694  130.9519  151.3611 LP  0  0  0  0  0  0  0  0  0  0  0  0  # atno 17370 bound_to 10713
  157.6237  130.8675  149.9152 LP  0  0  0  0  0  0  0  0  0  0  0  0  # atno 17371 bound_to 10713
  141.2076  133.6666  156.6319 LP  0  0  0  0  0  0  0  0  0  0  0  0  # atno 17394 bound_to 11000
  140.3358  134.7890  157.4361 LP  0  0  0  0  0  0  0  0  0  0  0  0  # atno 17395 bound_to 11000

$$$$
