AV-unprocessed.smi:3303|AV-procd|sdf|12694|dock5
  -GOLD-   2272019 23D 1   1.00000     0.00000
 Structure written by MMmdl.
 44 45  0  0  0  0  0  0  0  0  2 V2000
  147.2163  141.6892  153.9898 C   0  0  0  0  0  0  0  0  0  0  0  0
  148.1142  140.5462  154.4949 C   0  0  1  0  0  0  0  0  0  0  0  0
  147.9724  139.3198  153.5639 C   0  0  0  0  0  0  0  0  0  0  0  0
  148.8389  138.1850  153.9738 N   0  3  2  0  0  0  0  0  0  0  0  0
  148.3315  137.4748  155.1755 C   0  0  0  0  0  0  0  0  0  0  0  0
  150.2738  138.5860  154.0222 C   0  0  2  0  0  0  0  0  0  0  0  0
  151.2165  137.4082  154.3239 C   0  0  0  0  0  0  0  0  0  0  0  0
  150.4881  139.7715  154.9827 C   0  0  0  0  0  0  0  0  0  0  0  0
  149.5985  140.9723  154.6083 C   0  0  2  0  0  0  0  0  0  0  0  0
  149.7530  141.9690  155.6615 N   0  0  0  0  0  0  0  0  0  0  0  0
  149.4819  141.4011  156.9735 C   0  0  0  0  0  0  0  0  0  0  0  0
  150.8047  141.1705  157.7166 C   0  0  0  0  0  0  0  0  0  0  0  0
  151.4045  142.4638  158.2352 C   0  0  0  0  0  0  0  0  0  0  0  0
  152.6322  142.4606  158.9310 C   0  0  0  0  0  0  0  0  0  0  0  0
  153.1444  143.6884  159.3934 C   0  0  0  0  0  0  0  0  0  0  0  0
  152.4127  144.8657  159.1450 C   0  0  0  0  0  0  0  0  0  0  0  0
  151.1961  144.7622  158.4415 C   0  0  0  0  0  0  0  0  0  0  0  0
  150.6959  143.5901  157.9937 N   0  0  0  0  0  0  0  0  0  0  0  0
  147.5436  142.0489  153.0138 H   0  0  0  0  0  0  0  0  0  0  0  0
  147.2214  142.5360  154.6761 H   0  0  0  0  0  0  0  0  0  0  0  0
  146.1811  141.3608  153.8928 H   0  0  0  0  0  0  0  0  0  0  0  0
  147.7566  140.2635  155.4862 H   0  0  0  0  0  0  0  0  0  0  0  0
  146.9335  138.9900  153.5213 H   0  0  0  0  0  0  0  0  0  0  0  0
  148.2402  139.6020  152.5446 H   0  0  0  0  0  0  0  0  0  0  0  0
  148.4286  138.0754  156.0794 H   0  0  0  0  0  0  0  0  0  0  0  0
  148.8597  136.5349  155.3329 H   0  0  0  0  0  0  0  0  0  0  0  0
  147.2773  137.2254  155.0525 H   0  0  0  0  0  0  0  0  0  0  0  0
  150.5260  138.9300  153.0177 H   0  0  0  0  0  0  0  0  0  0  0  0
  152.2574  137.7066  154.1960 H   0  0  0  0  0  0  0  0  0  0  0  0
  151.0318  136.5707  153.6504 H   0  0  0  0  0  0  0  0  0  0  0  0
  151.1100  137.0501  155.3480 H   0  0  0  0  0  0  0  0  0  0  0  0
  150.2901  139.4577  156.0087 H   0  0  0  0  0  0  0  0  0  0  0  0
  151.5357  140.0751  154.9583 H   0  0  0  0  0  0  0  0  0  0  0  0
  149.9344  141.3637  153.6460 H   0  0  0  0  0  0  0  0  0  0  0  0
  149.1183  142.7379  155.4982 H   0  0  0  0  0  0  0  0  0  0  0  0
  148.8469  142.0826  157.5413 H   0  0  0  0  0  0  0  0  0  0  0  0
  148.9419  140.4594  156.8675 H   0  0  0  0  0  0  0  0  0  0  0  0
  150.6489  140.4880  158.5533 H   0  0  0  0  0  0  0  0  0  0  0  0
  151.5278  140.6879  157.0573 H   0  0  0  0  0  0  0  0  0  0  0  0
  153.1700  141.5407  159.1075 H   0  0  0  0  0  0  0  0  0  0  0  0
  154.0814  143.7261  159.9290 H   0  0  0  0  0  0  0  0  0  0  0  0
  152.7746  145.8245  159.4855 H   0  0  0  0  0  0  0  0  0  0  0  0
  150.6091  145.6444  158.2333 H   0  0  0  0  0  0  0  0  0  0  0  0
  148.7684  137.5097  153.2258 H   0  0  0  0  0  0  0  0  0  0  0  0
  1  2  1  0  0  0  0
  1 19  1  0  0  0  0
  1 20  1  0  0  0  0
  1 21  1  0  0  0  0
  2  9  1  0  0  0  0
  2  3  1  0  0  0  0
  2 22  1  0  0  0  0
  3  4  1  0  0  0  0
  3 23  1  0  0  0  0
  3 24  1  0  0  0  0
  4  5  1  0  0  0  0
  4  6  1  0  0  0  0
  4 44  1  0  0  0  0
  5 25  1  0  0  0  0
  5 26  1  0  0  0  0
  5 27  1  0  0  0  0
  6  7  1  0  0  0  0
  6  8  1  0  0  0  0
  6 28  1  0  0  0  0
  7 29  1  0  0  0  0
  7 30  1  0  0  0  0
  7 31  1  0  0  0  0
  8  9  1  0  0  0  0
  8 32  1  0  0  0  0
  8 33  1  0  0  0  0
  9 10  1  0  0  0  0
  9 34  1  0  0  0  0
 10 11  1  0  0  0  0
 10 35  1  0  0  0  0
 11 12  1  0  0  0  0
 11 36  1  0  0  0  0
 11 37  1  0  0  0  0
 12 13  1  0  0  0  0
 12 38  1  0  0  0  0
 12 39  1  0  0  0  0
 13 18  1  0  0  0  0
 13 14  2  0  0  0  0
 14 15  1  0  0  0  0
 14 40  1  0  0  0  0
 15 16  2  0  0  0  0
 15 41  1  0  0  0  0
 16 17  1  0  0  0  0
 16 42  1  0  0  0  0
 17 18  2  0  0  0  0
 17 43  1  0  0  0  0
M  CHG  1   4   1
M  END
> <s_m_source_file>
AV-unprocessed.smi

> <i_m_source_file_index>
3303

> <i_lp_mmshare_version>
43012

> <i_f3d_flags>
0

> <s_epik_input>
W0NIM11bQ0BASF0xW0NIMl1OKFtDSDNdKVtDQEBIXShbQ0gzXSlbQ0gyXVtDQEhdMVtOSF1bQ0gyXVtDSDJdYzJbY0hdW2NIXVtjSF1bY0hdbjI=

> <s_epik_cmdline>
J2VwaWtfcHl0aG9uJywgJy1waCcsICc3LjAnLCAnLXRuJywgJzgnLCAnLW1hJywgJzIwMCcsICctbWV0YWxfYmluZGluZycsICctaW1hZScsICc8aW5maWxlLm1hZT4nLCAnLW9tYWUnLCAnPG91dGZpbGUubWFlPic=

> <r_epik_Ionization_Penalty>
2.31085

> <r_epik_Ionization_Penalty_Charging>
0.000313057

> <r_epik_Ionization_Penalty_Neutral>
2.31054

> <r_epik_State_Penalty>
2.4087

> <r_epik_Charging_Adjusted_Penalty>
2.40902

> <i_epik_Tot_Q>
1

> <i_epik_Tot_abs_Q>
1

> <r_epik_Metal_State_Penalty>
2.30979

> <b_epik_Metal_Only>
0

> <s_lp_Force_Field>
OPLS_2005

> <r_lp_Energy>
26.2858

> <b_lp_Chiralities_Consistent>
1

> <s_lp_Variant>
AV-unprocessed.smi:3303-38

> <Gold.Version>
5.8.1

> <Gold.Id.Protein>
6NUR|6NUR_protein|mol2

> <Gold.PLP.Fitness>
50.5681

> <Gold.PLP.PLP>
-40.0902

> <Gold.PLP.part.hbond>
-2.0000

> <Gold.PLP.part.metal>
0.0000

> <Gold.PLP.part.buried>
-3.5870

> <Gold.PLP.part.nonpolar>
-35.9410

> <Gold.PLP.part.repulsive>
0.7090

> <Gold.PLP.ligand.clash>
0.0000

> <Gold.PLP.ligand.torsion>
0.3916

> <Gold.PLP.Chemscore.Hbond>
2.7520

> <Gold.PLP.Chemscore.CHOScore>
1.0000

> <Gold.PLP.Chemscore.Metal>
0.0000

> <Gold.Chemscore.Hbonds>
donor molecule, donor type, donor heavy atom, donor atom, acceptor molecule, acceptor atom, score
      L1  H     4    44       P1  7948  2.00
      L1  H    10    35       P1  8028  0.90
      L1  C    17    43       P1  8029  0.15

> <Gold.PLP.Chemscore.Internal.Correction>
0.0051

> <Gold.Rescore>
     Score         DG    S(hbond)    S(metal)    S(lipo)     H(rot)  DE(clash)    DE(int)     intcor
     21.39     -22.14       1.86        0.00     118.25       1.33       0.17       0.58       ----

> <Gold.Chemscore.Fitness>
21.3912

> <Gold.Chemscore.DG>
-22.1357

> <Gold.Chemscore.ZeroCoef>
-5.4800

> <Gold.Chemscore.Hbond>
1.8617

> <Gold.Chemscore.Metal>
0.0000

> <Gold.Chemscore.Lipo>
118.2511

> <Gold.Chemscore.Internal_Hbond>
0.0000

> <Gold.Chemscore.DEClash>
0.1686

> <Gold.Chemscore.DEInternal>
0.5759

> <Gold.Chemscore.Rot>
1.3272

> <Gold.Chemscore.Internal.Correction>
   9.000000E+99

> <Gold.Chemscore.Hbonds>
donor molecule, donor type, donor heavy atom, donor atom, acceptor molecule, acceptor atom, score
      L1  H     4    44       P1  7948  1.00
      L1  H    10    35       P1  8028  0.85

> <Gold.Chemscore.Hbond.Weighted>
-6.2180

> <Gold.Chemscore.Metal.Weighted>
-0.0000

> <Gold.Chemscore.Lipo.Weighted>
-13.8354

> <Gold.Chemscore.Internal_Hbond.Weighted>
0.0000

> <Gold.Chemscore.DEClash.Weighted>
0.1686

> <Gold.Chemscore.DEInternal.Weighted>
0.5759

> <Gold.Chemscore.Rot.Weighted>
3.3976

> <Gold.Chemscore.Internal.Correction.Weighted>
   9.000000E+99

> <Gold.Protein.RotatedTorsions>
[ 6907 6896 6895 6894 ] final  -84.56 input  -60.11 | X-H torsion
[ 7974 7965 7964 7962 ] final -159.73 input  175.53 | X-H torsion
[ 8008 7997 7996 7995 ] final    9.26 input   59.86 | X-H torsion
[ 10167 10162 10161 10158 ] final   40.92 input  -65.29 | X-H torsion
[ 10718 10713 10712 10709 ] final  141.53 input   66.30 | X-H torsion
[ 10763 10752 10751 10750 ] final  120.43 input  -60.55 | X-H torsion
[ 11005 11000 10999 10996 ] final  -64.61 input  -57.11 | X-H torsion

> <Gold.Protein.ActiveResidues>
 VAL166  LYS551  ARG553  GLY616  TRP617  ASP618  TYR619  PRO620  LYS621  CYS622 
 ASP623  PHE694  ASN695  SER759  ASP760  ASP761  ALA762  ILE779  LEU786  VAL792 
 PHE793  MET794  SER795  GLU796  ALA797  LYS798  CYS799  TRP800  GLU811  SER814 

> <Gold.Protein.RotatedAtoms>
  150.6875  134.3340  159.4838 H   0  0  0  0  0  0  0  0  0  0  0  0  # atno 6907 bound_to 6896
  152.1201  134.9209  160.0572 H   0  0  0  0  0  0  0  0  0  0  0  0  # atno 6908 bound_to 6896
  152.0419  133.3946  159.4377 H   0  0  0  0  0  0  0  0  0  0  0  0  # atno 6909 bound_to 6896
  144.7454  140.3644  143.6089 H   0  0  0  0  0  0  0  0  0  0  0  0  # atno 7974 bound_to 7965
  154.7776  140.2813  155.6088 H   0  0  0  0  0  0  0  0  0  0  0  0  # atno 8008 bound_to 7997
  156.2944  140.2629  156.2522 H   0  0  0  0  0  0  0  0  0  0  0  0  # atno 8009 bound_to 7997
  154.9823  140.0374  157.2273 H   0  0  0  0  0  0  0  0  0  0  0  0  # atno 8010 bound_to 7997
  140.3695  144.2124  150.6134 H   0  0  0  0  0  0  0  0  0  0  0  0  # atno 10167 bound_to 10162
  157.3910  131.1004  151.0647 H   0  0  0  0  0  0  0  0  0  0  0  0  # atno 10718 bound_to 10713
  153.5984  135.3452  155.2936 H   0  0  0  0  0  0  0  0  0  0  0  0  # atno 10763 bound_to 10752
  154.8640  135.4221  154.2439 H   0  0  0  0  0  0  0  0  0  0  0  0  # atno 10764 bound_to 10752
  153.3262  135.7041  153.7058 H   0  0  0  0  0  0  0  0  0  0  0  0  # atno 10765 bound_to 10752
  141.1430  133.6668  156.5860 H   0  0  0  0  0  0  0  0  0  0  0  0  # atno 11005 bound_to 11000
  145.7144  139.1693  143.2520 LP  0  0  0  0  0  0  0  0  0  0  0  0  # atno 17320 bound_to 7965
  146.1323  140.7168  142.9406 LP  0  0  0  0  0  0  0  0  0  0  0  0  # atno 17321 bound_to 7965
  140.5048  143.2307  151.8625 LP  0  0  0  0  0  0  0  0  0  0  0  0  # atno 17342 bound_to 10162
  139.4805  144.5018  151.9050 LP  0  0  0  0  0  0  0  0  0  0  0  0  # atno 17343 bound_to 10162
  157.1680  130.6255  149.5631 LP  0  0  0  0  0  0  0  0  0  0  0  0  # atno 17370 bound_to 10713
  155.9798  130.4794  150.6737 LP  0  0  0  0  0  0  0  0  0  0  0  0  # atno 17371 bound_to 10713
  140.3800  134.7531  157.4655 LP  0  0  0  0  0  0  0  0  0  0  0  0  # atno 17394 bound_to 11000
  140.0645  134.5949  155.8711 LP  0  0  0  0  0  0  0  0  0  0  0  0  # atno 17395 bound_to 11000

$$$$
