AV-unprocessed.smi:2951|AV-procd|sdf|11290|dock10
  -GOLD-   2272016183D 1   1.00000     0.00000
 Structure written by MMmdl.
 17 17  0  0  0  0  0  0  0  0  1 V2000
  150.3441  138.0253  153.7875 N   0  0  0  0  0  0  0  0  0  0  0  0
  151.1893  137.5120  154.6857 C   0  0  0  0  0  0  0  0  0  0  0  0
  151.1713  136.3241  155.0018 O   0  0  0  0  0  0  0  0  0  0  0  0
  152.2012  138.4678  155.3198 C   0  0  0  0  0  0  0  0  0  0  0  0
  151.5042  139.6925  155.8373 C   0  0  0  0  0  0  0  0  0  0  0  0
  151.5871  140.2133  157.1066 C   0  0  0  0  0  0  0  0  0  0  0  0
  150.6162  141.6492  157.2894 S   0  0  0  0  0  0  0  0  0  0  0  0
  150.1325  141.4855  155.6085 C   0  0  0  0  0  0  0  0  0  0  0  0
  149.2662  142.3855  155.0126 N   0  0  0  0  0  0  0  0  0  0  0  0
  150.6717  140.4339  154.9905 N   0  0  0  0  0  0  0  0  0  0  0  0
  149.6554  137.4304  153.3500 H   0  0  0  0  0  0  0  0  0  0  0  0
  150.3912  139.0068  153.5539 H   0  0  0  0  0  0  0  0  0  0  0  0
  152.7190  137.9528  156.1299 H   0  0  0  0  0  0  0  0  0  0  0  0
  152.9656  138.7314  154.5875 H   0  0  0  0  0  0  0  0  0  0  0  0
  152.1564  139.8362  157.9434 H   0  0  0  0  0  0  0  0  0  0  0  0
  148.8844  143.1660  155.5272 H   0  0  0  0  0  0  0  0  0  0  0  0
  149.0592  142.3411  154.0253 H   0  0  0  0  0  0  0  0  0  0  0  0
  1  2  1  0  0  0  0
  1 11  1  0  0  0  0
  1 12  1  0  0  0  0
  2  3  2  0  0  0  0
  2  4  1  0  0  0  0
  4  5  1  0  0  0  0
  4 13  1  0  0  0  0
  4 14  1  0  0  0  0
  5 10  1  0  0  0  0
  5  6  2  0  0  0  0
  6  7  1  0  0  0  0
  6 15  1  0  0  0  0
  7  8  1  0  0  0  0
  8  9  1  0  0  0  0
  8 10  2  0  0  0  0
  9 16  1  0  0  0  0
  9 17  1  0  0  0  0
M  END
> <s_m_source_file>
AV-unprocessed.smi

> <i_m_source_file_index>
2951

> <i_lp_mmshare_version>
43012

> <i_f3d_flags>
0

> <s_epik_input>
W05IMl1DKD1PKVtDSDJdYzFbY0hdc2MobjEpW05IMl0=

> <s_epik_cmdline>
J2VwaWtfcHl0aG9uJywgJy1waCcsICc3LjAnLCAnLXRuJywgJzgnLCAnLW1hJywgJzIwMCcsICctbWV0YWxfYmluZGluZycsICctaW1hZScsICc8aW5maWxlLm1hZT4nLCAnLW9tYWUnLCAnPG91dGZpbGUubWFlPic=

> <r_lp_tautomer_probability>
1

> <r_epik_Ionization_Penalty>
0.00145479

> <r_epik_Ionization_Penalty_Charging>
0

> <r_epik_Ionization_Penalty_Neutral>
0.00145479

> <r_epik_State_Penalty>
-0

> <r_epik_Charging_Adjusted_Penalty>
0

> <i_epik_Tot_Q>
0

> <i_epik_Tot_abs_Q>
0

> <r_epik_Metal_State_Penalty>
-0

> <b_epik_Metal_Only>
0

> <s_lp_Force_Field>
OPLS_2005

> <r_lp_Energy>
-0.412786

> <b_lp_Chiralities_Consistent>
1

> <s_lp_Variant>
AV-unprocessed.smi:2951-1

> <Gold.Version>
5.8.1

> <Gold.Id.Protein>
6NUR|6NUR_protein|mol2

> <Gold.PLP.Fitness>
33.6376

> <Gold.PLP.PLP>
-22.5084

> <Gold.PLP.part.hbond>
-4.9658

> <Gold.PLP.part.metal>
0.0000

> <Gold.PLP.part.buried>
-3.3926

> <Gold.PLP.part.nonpolar>
-15.2890

> <Gold.PLP.part.repulsive>
0.5382

> <Gold.PLP.ligand.clash>
0.0000

> <Gold.PLP.ligand.torsion>
0.1354

> <Gold.PLP.Chemscore.Hbond>
3.8000

> <Gold.PLP.Chemscore.CHOScore>
0.0000

> <Gold.PLP.Chemscore.Metal>
0.0000

> <Gold.Chemscore.Hbonds>
donor molecule, donor type, donor heavy atom, donor atom, acceptor molecule, acceptor atom, score
      L1  H     1    11       P1  7948  1.00
      L1  H     9    16       P1  8028  0.88
      P1  H  7989  7998       L1    10  1.00
      P1  H 10752 10763       L1     3  1.00

> <Gold.PLP.Chemscore.Internal.Correction>
0.0001

> <Gold.Rescore>
     Score         DG    S(hbond)    S(metal)    S(lipo)     H(rot)  DE(clash)    DE(int)     intcor
     13.17     -14.74       3.14        0.00      25.72       1.65       0.01       1.57       ----

> <Gold.Chemscore.Fitness>
13.1660

> <Gold.Chemscore.DG>
-14.7409

> <Gold.Chemscore.ZeroCoef>
-5.4800

> <Gold.Chemscore.Hbond>
3.1358

> <Gold.Chemscore.Metal>
0.0000

> <Gold.Chemscore.Lipo>
25.7226

> <Gold.Chemscore.Internal_Hbond>
0.0000

> <Gold.Chemscore.DEClash>
0.0093

> <Gold.Chemscore.DEInternal>
1.5656

> <Gold.Chemscore.Rot>
1.6493

> <Gold.Chemscore.Internal.Correction>
   9.000000E+99

> <Gold.Chemscore.Hbonds>
donor molecule, donor type, donor heavy atom, donor atom, acceptor molecule, acceptor atom, score
      L1  H     1    11       P1  7948  0.73
      L1  H     9    16       P1  8028  0.82
      P1  H  7989  7998       L1    10  0.54
      P1  H 10752 10763       L1     3  0.69

> <Gold.Chemscore.Hbond.Weighted>
-10.4736

> <Gold.Chemscore.Metal.Weighted>
-0.0000

> <Gold.Chemscore.Lipo.Weighted>
-3.0095

> <Gold.Chemscore.Internal_Hbond.Weighted>
0.0000

> <Gold.Chemscore.DEClash.Weighted>
0.0093

> <Gold.Chemscore.DEInternal.Weighted>
1.5656

> <Gold.Chemscore.Rot.Weighted>
4.2222

> <Gold.Chemscore.Internal.Correction.Weighted>
   9.000000E+99

> <Gold.Protein.RotatedTorsions>
[ 6907 6896 6895 6894 ] final   80.91 input  -60.11 | X-H torsion
[ 7974 7965 7964 7962 ] final  103.06 input  175.53 | X-H torsion
[ 8008 7997 7996 7995 ] final  -11.73 input   59.86 | X-H torsion
[ 10167 10162 10161 10158 ] final -157.63 input  -65.29 | X-H torsion
[ 10718 10713 10712 10709 ] final   27.91 input   66.30 | X-H torsion
[ 10763 10752 10751 10750 ] final   65.35 input  -60.55 | X-H torsion
[ 11005 11000 10999 10996 ] final -122.37 input  -57.11 | X-H torsion

> <Gold.Protein.ActiveResidues>
 VAL166  LYS551  ARG553  GLY616  TRP617  ASP618  TYR619  PRO620  LYS621  CYS622 
 ASP623  PHE694  ASN695  SER759  ASP760  ASP761  ALA762  ILE779  LEU786  VAL792 
 PHE793  MET794  SER795  GLU796  ALA797  LYS798  CYS799  TRP800  GLU811  SER814 

> <Gold.Protein.RotatedAtoms>
  152.5251  134.3284  159.9173 H   0  0  0  0  0  0  0  0  0  0  0  0  # atno 6907 bound_to 6896
  151.3233  133.4024  159.2664 H   0  0  0  0  0  0  0  0  0  0  0  0  # atno 6908 bound_to 6896
  150.9940  134.9286  159.7973 H   0  0  0  0  0  0  0  0  0  0  0  0  # atno 6909 bound_to 6896
  145.3509  139.2439  143.3558 H   0  0  0  0  0  0  0  0  0  0  0  0  # atno 7974 bound_to 7965
  154.5439  140.2294  155.8596 H   0  0  0  0  0  0  0  0  0  0  0  0  # atno 8008 bound_to 7997
  156.1884  140.3083  155.9245 H   0  0  0  0  0  0  0  0  0  0  0  0  # atno 8009 bound_to 7997
  155.3204  140.0440  157.3029 H   0  0  0  0  0  0  0  0  0  0  0  0  # atno 8010 bound_to 7997
  139.6755  143.9670  152.2308 H   0  0  0  0  0  0  0  0  0  0  0  0  # atno 10167 bound_to 10162
  157.2265  130.7003  149.6294 H   0  0  0  0  0  0  0  0  0  0  0  0  # atno 10718 bound_to 10713
  153.0093  135.5360  154.6653 H   0  0  0  0  0  0  0  0  0  0  0  0  # atno 10763 bound_to 10752
  154.5851  135.2853  155.0695 H   0  0  0  0  0  0  0  0  0  0  0  0  # atno 10764 bound_to 10752
  154.1809  135.6516  153.5086 H   0  0  0  0  0  0  0  0  0  0  0  0  # atno 10765 bound_to 10752
  141.0000  134.0416  157.3549 H   0  0  0  0  0  0  0  0  0  0  0  0  # atno 11005 bound_to 11000
  146.2968  140.4125  142.8718 LP  0  0  0  0  0  0  0  0  0  0  0  0  # atno 17320 bound_to 7965
  144.8718  140.7283  143.6042 LP  0  0  0  0  0  0  0  0  0  0  0  0  # atno 17321 bound_to 7965
  139.9446  144.6659  150.8232 LP  0  0  0  0  0  0  0  0  0  0  0  0  # atno 17342 bound_to 10162
  140.7634  143.3222  151.2597 LP  0  0  0  0  0  0  0  0  0  0  0  0  # atno 17343 bound_to 10162
  155.9678  130.4503  150.5690 LP  0  0  0  0  0  0  0  0  0  0  0  0  # atno 17370 bound_to 10713
  157.3522  131.0735  151.1704 LP  0  0  0  0  0  0  0  0  0  0  0  0  # atno 17371 bound_to 10713
  139.9034  135.0172  156.7374 LP  0  0  0  0  0  0  0  0  0  0  0  0  # atno 17394 bound_to 11000
  140.6904  133.9395  155.7963 LP  0  0  0  0  0  0  0  0  0  0  0  0  # atno 17395 bound_to 11000

$$$$
