AV-unprocessed.smi:702|AV-procd|sdf|3423|dock4
  -GOLD-   22720 0403D 1   1.00000     0.00000
 Structure written by MMmdl.
 50 52  0  0  0  0  0  0  0  0  2 V2000
  148.7291  133.7693  156.4928 C   0  0  0  0  0  0  0  0  0  0  0  0
  149.2552  134.9819  155.6997 C   0  0  1  0  0  0  0  0  0  0  0  0
  148.5922  135.0023  154.3900 N   0  0  0  0  0  0  0  0  0  0  0  0
  147.3109  134.6989  154.1339 C   0  0  0  0  0  0  0  0  0  0  0  0
  146.4986  134.3687  154.9971 O   0  0  0  0  0  0  0  0  0  0  0  0
  147.0518  134.7797  152.8174 N   0  0  0  0  0  0  0  0  0  0  0  0
  145.8357  134.5017  152.1369 C   0  0  0  0  0  0  0  0  0  0  0  0
  145.5089  135.3101  151.0256 C   0  0  0  0  0  0  0  0  0  0  0  0
  144.3056  135.0807  150.3279 C   0  0  0  0  0  0  0  0  0  0  0  0
  143.4711  134.0990  150.7318 N   0  3  0  0  0  0  0  0  0  0  0  0
  143.7327  133.3106  151.7963 C   0  0  0  0  0  0  0  0  0  0  0  0
  144.9209  133.4928  152.5329 C   0  0  0  0  0  0  0  0  0  0  0  0
  149.1122  136.3508  156.4671 C   0  0  0  0  0  0  0  0  0  0  0  0
  149.5895  137.4942  155.6291 N   0  0  0  0  0  0  0  0  0  0  0  0
  150.9458  137.3514  155.0741 C   0  0  0  0  0  0  0  0  0  0  0  0
  151.3141  138.5088  154.1315 C   0  0  0  0  0  0  0  0  0  0  0  0
  151.1986  139.7430  154.8273 O   0  0  0  0  0  0  0  0  0  0  0  0
  149.8849  139.9587  155.3256 C   0  0  0  0  0  0  0  0  0  0  0  0
  149.4861  138.8121  156.2708 C   0  0  0  0  0  0  0  0  0  0  0  0
  147.6309  136.5249  156.9334 C   0  0  0  0  0  0  0  0  0  0  0  0
  147.5943  136.2920  158.4454 C   0  0  0  0  0  0  0  0  0  0  0  0
  148.9722  136.7250  158.9234 C   0  0  0  0  0  0  0  0  0  0  0  0
  149.9099  136.2554  157.8102 C   0  0  0  0  0  0  0  0  0  0  0  0
  149.2557  133.6487  157.4393 H   0  0  0  0  0  0  0  0  0  0  0  0
  148.8697  132.8462  155.9297 H   0  0  0  0  0  0  0  0  0  0  0  0
  147.6659  133.8590  156.7149 H   0  0  0  0  0  0  0  0  0  0  0  0
  150.3121  134.7985  155.5136 H   0  0  0  0  0  0  0  0  0  0  0  0
  149.1764  135.2554  153.6067 H   0  0  0  0  0  0  0  0  0  0  0  0
  147.8415  134.9918  152.2252 H   0  0  0  0  0  0  0  0  0  0  0  0
  146.1758  136.0969  150.7031 H   0  0  0  0  0  0  0  0  0  0  0  0
  143.9874  135.6499  149.4665 H   0  0  0  0  0  0  0  0  0  0  0  0
  142.9861  132.5655  152.0294 H   0  0  0  0  0  0  0  0  0  0  0  0
  145.1002  132.8645  153.3918 H   0  0  0  0  0  0  0  0  0  0  0  0
  151.6876  137.3102  155.8702 H   0  0  0  0  0  0  0  0  0  0  0  0
  151.0474  136.4267  154.5104 H   0  0  0  0  0  0  0  0  0  0  0  0
  152.3385  138.3961  153.7760 H   0  0  0  0  0  0  0  0  0  0  0  0
  150.6681  138.5136  153.2523 H   0  0  0  0  0  0  0  0  0  0  0  0
  149.8569  140.9115  155.8545 H   0  0  0  0  0  0  0  0  0  0  0  0
  149.1813  140.0344  154.4950 H   0  0  0  0  0  0  0  0  0  0  0  0
  148.4684  139.0141  156.5956 H   0  0  0  0  0  0  0  0  0  0  0  0
  150.1141  138.8474  157.1614 H   0  0  0  0  0  0  0  0  0  0  0  0
  147.2572  137.5285  156.7402 H   0  0  0  0  0  0  0  0  0  0  0  0
  146.9390  135.8621  156.4131 H   0  0  0  0  0  0  0  0  0  0  0  0
  146.7893  136.8411  158.9343 H   0  0  0  0  0  0  0  0  0  0  0  0
  147.4480  135.2318  158.6549 H   0  0  0  0  0  0  0  0  0  0  0  0
  149.0067  137.8111  159.0134 H   0  0  0  0  0  0  0  0  0  0  0  0
  149.2301  136.3031  159.8951 H   0  0  0  0  0  0  0  0  0  0  0  0
  150.2006  135.2325  158.0453 H   0  0  0  0  0  0  0  0  0  0  0  0
  150.8513  136.8048  157.8012 H   0  0  0  0  0  0  0  0  0  0  0  0
  142.6042  133.9497  150.2145 H   0  0  0  0  0  0  0  0  0  0  0  0
  1  2  1  0  0  0  0
  1 24  1  0  0  0  0
  1 25  1  0  0  0  0
  1 26  1  0  0  0  0
  2  3  1  0  0  0  0
  2 13  1  0  0  0  0
  2 27  1  0  0  0  0
  3  4  1  0  0  0  0
  3 28  1  0  0  0  0
  4  5  2  0  0  0  0
  4  6  1  0  0  0  0
  6  7  1  0  0  0  0
  6 29  1  0  0  0  0
  7 12  1  0  0  0  0
  7  8  2  0  0  0  0
  8  9  1  0  0  0  0
  8 30  1  0  0  0  0
  9 10  2  0  0  0  0
  9 31  1  0  0  0  0
 10 11  1  0  0  0  0
 10 50  1  0  0  0  0
 11 12  2  0  0  0  0
 11 32  1  0  0  0  0
 12 33  1  0  0  0  0
 13 23  1  0  0  0  0
 13 14  1  0  0  0  0
 13 20  1  0  0  0  0
 14 19  1  0  0  0  0
 14 15  1  0  0  0  0
 15 16  1  0  0  0  0
 15 34  1  0  0  0  0
 15 35  1  0  0  0  0
 16 17  1  0  0  0  0
 16 36  1  0  0  0  0
 16 37  1  0  0  0  0
 17 18  1  0  0  0  0
 18 19  1  0  0  0  0
 18 38  1  0  0  0  0
 18 39  1  0  0  0  0
 19 40  1  0  0  0  0
 19 41  1  0  0  0  0
 20 21  1  0  0  0  0
 20 42  1  0  0  0  0
 20 43  1  0  0  0  0
 21 22  1  0  0  0  0
 21 44  1  0  0  0  0
 21 45  1  0  0  0  0
 22 23  1  0  0  0  0
 22 46  1  0  0  0  0
 22 47  1  0  0  0  0
 23 48  1  0  0  0  0
 23 49  1  0  0  0  0
M  CHG  1  10   1
M  END
> <s_m_source_file>
AV-unprocessed.smi

> <i_m_source_file_index>
702

> <i_lp_mmshare_version>
43012

> <i_f3d_flags>
0

> <s_epik_input>
W0NIMl0xW0NIMl1PW0NIMl1bQ0gyXU4xQzIoW0NIMl1bQ0gyXVtDSDJdW0NIMl0yKVtDQEhdKFtDSDNdKVtOSF1DKD1PKVtOSF1jM1tjSF1bY0hdbltjSF1bY0hdMw==

> <s_epik_cmdline>
J2VwaWtfcHl0aG9uJywgJy1waCcsICc3LjAnLCAnLXRuJywgJzgnLCAnLW1hJywgJzIwMCcsICctbWV0YWxfYmluZGluZycsICctaW1hZScsICc8aW5maWxlLm1hZT4nLCAnLW9tYWUnLCAnPG91dGZpbGUubWFlPic=

> <r_epik_Ionization_Penalty>
1.54019

> <r_epik_Ionization_Penalty_Charging>
1.02845

> <r_epik_Ionization_Penalty_Neutral>
0.511739

> <r_epik_State_Penalty>
1.62583

> <r_epik_Charging_Adjusted_Penalty>
2.65428

> <i_epik_Tot_Q>
1

> <i_epik_Tot_abs_Q>
1

> <r_epik_Metal_State_Penalty>
1.71803

> <b_epik_Metal_Only>
0

> <s_lp_Force_Field>
OPLS_2005

> <r_lp_Energy>
72.2563

> <b_lp_Chiralities_Consistent>
1

> <s_lp_Variant>
AV-unprocessed.smi:702-8

> <Gold.Version>
5.8.1

> <Gold.Id.Protein>
6NUR|6NUR_protein|mol2

> <Gold.PLP.Fitness>
39.6109

> <Gold.PLP.PLP>
-27.0470

> <Gold.PLP.part.hbond>
-3.8540

> <Gold.PLP.part.metal>
0.0000

> <Gold.PLP.part.buried>
-4.4490

> <Gold.PLP.part.nonpolar>
-18.1782

> <Gold.PLP.part.repulsive>
0.1823

> <Gold.PLP.ligand.clash>
0.0000

> <Gold.PLP.ligand.torsion>
0.6792

> <Gold.PLP.Chemscore.Hbond>
4.6000

> <Gold.PLP.Chemscore.CHOScore>
0.0000

> <Gold.PLP.Chemscore.Metal>
0.0000

> <Gold.Chemscore.Hbonds>
donor molecule, donor type, donor heavy atom, donor atom, acceptor molecule, acceptor atom, score
      L1  H     3    28       P1  7948  0.77
      L1  H     6    29       P1  7948  0.88
      L1  H    10    50       P1 10186  2.00
      P1  H  7989  7998       L1    17  0.95

> <Gold.PLP.Chemscore.Internal.Correction>
0.1222

> <Gold.Rescore>
     Score         DG    S(hbond)    S(metal)    S(lipo)     H(rot)  DE(clash)    DE(int)     intcor
     15.18     -18.36       2.70        0.00      64.45       1.44       0.06       3.12       ----

> <Gold.Chemscore.Fitness>
15.1837

> <Gold.Chemscore.DG>
-18.3650

> <Gold.Chemscore.ZeroCoef>
-5.4800

> <Gold.Chemscore.Hbond>
2.7034

> <Gold.Chemscore.Metal>
0.0000

> <Gold.Chemscore.Lipo>
64.4469

> <Gold.Chemscore.Internal_Hbond>
0.0000

> <Gold.Chemscore.DEClash>
0.0605

> <Gold.Chemscore.DEInternal>
3.1208

> <Gold.Chemscore.Rot>
1.4394

> <Gold.Chemscore.Internal.Correction>
   9.000000E+99

> <Gold.Chemscore.Hbonds>
donor molecule, donor type, donor heavy atom, donor atom, acceptor molecule, acceptor atom, score
      L1  H     3    28       P1  7948  0.26
      L1  H     6    29       P1  7948  0.74
      L1  H    10    50       P1 10186  0.96
      P1  H  7989  7998       L1    17  0.18

> <Gold.Chemscore.Hbond.Weighted>
-9.0295

> <Gold.Chemscore.Metal.Weighted>
-0.0000

> <Gold.Chemscore.Lipo.Weighted>
-7.5403

> <Gold.Chemscore.Internal_Hbond.Weighted>
0.0000

> <Gold.Chemscore.DEClash.Weighted>
0.0605

> <Gold.Chemscore.DEInternal.Weighted>
3.1208

> <Gold.Chemscore.Rot.Weighted>
3.6848

> <Gold.Chemscore.Internal.Correction.Weighted>
   9.000000E+99

> <Gold.Protein.RotatedTorsions>
[ 6907 6896 6895 6894 ] final  -57.68 input  -60.11 | X-H torsion
[ 7974 7965 7964 7962 ] final -141.43 input  175.53 | X-H torsion
[ 8008 7997 7996 7995 ] final   46.49 input   59.86 | X-H torsion
[ 10167 10162 10161 10158 ] final  115.93 input  -65.29 | X-H torsion
[ 10718 10713 10712 10709 ] final   73.28 input   66.30 | X-H torsion
[ 10763 10752 10751 10750 ] final  129.25 input  -60.55 | X-H torsion
[ 11005 11000 10999 10996 ] final  -84.01 input  -57.11 | X-H torsion

> <Gold.Protein.ActiveResidues>
 VAL166  LYS551  ARG553  GLY616  TRP617  ASP618  TYR619  PRO620  LYS621  CYS622 
 ASP623  PHE694  ASN695  SER759  ASP760  ASP761  ALA762  ILE779  LEU786  VAL792 
 PHE793  MET794  SER795  GLU796  ALA797  LYS798  CYS799  TRP800  GLU811  SER814 

> <Gold.Protein.RotatedAtoms>
  150.8067  134.7196  159.6649 H   0  0  0  0  0  0  0  0  0  0  0  0  # atno 6907 bound_to 6896
  152.4186  134.5993  160.0005 H   0  0  0  0  0  0  0  0  0  0  0  0  # atno 6908 bound_to 6896
  151.6215  133.3301  159.3125 H   0  0  0  0  0  0  0  0  0  0  0  0  # atno 6909 bound_to 6896
  144.8520  140.6080  143.5384 H   0  0  0  0  0  0  0  0  0  0  0  0  # atno 7974 bound_to 7965
  155.3534  140.3415  155.4239 H   0  0  0  0  0  0  0  0  0  0  0  0  # atno 8008 bound_to 7997
  156.1752  140.1645  156.8411 H   0  0  0  0  0  0  0  0  0  0  0  0  # atno 8009 bound_to 7997
  154.5274  140.0753  156.8266 H   0  0  0  0  0  0  0  0  0  0  0  0  # atno 8010 bound_to 7997
  139.6282  144.7111  151.2488 H   0  0  0  0  0  0  0  0  0  0  0  0  # atno 10167 bound_to 10162
  157.6540  130.9621  150.1047 H   0  0  0  0  0  0  0  0  0  0  0  0  # atno 10718 bound_to 10713
  153.7388  135.3227  155.3300 H   0  0  0  0  0  0  0  0  0  0  0  0  # atno 10763 bound_to 10752
  154.8302  135.4539  154.1048 H   0  0  0  0  0  0  0  0  0  0  0  0  # atno 10764 bound_to 10752
  153.2216  135.6949  153.8075 H   0  0  0  0  0  0  0  0  0  0  0  0  # atno 10765 bound_to 10752
  141.1654  133.7324  156.8805 H   0  0  0  0  0  0  0  0  0  0  0  0  # atno 11005 bound_to 11000
  145.4482  139.1527  143.3933 LP  0  0  0  0  0  0  0  0  0  0  0  0  # atno 17320 bound_to 7965
  146.2792  140.4606  142.8783 LP  0  0  0  0  0  0  0  0  0  0  0  0  # atno 17321 bound_to 7965
  140.7423  143.6528  150.8233 LP  0  0  0  0  0  0  0  0  0  0  0  0  # atno 17342 bound_to 10162
  140.0149  143.5603  152.2824 LP  0  0  0  0  0  0  0  0  0  0  0  0  # atno 17343 bound_to 10162
  156.1960  130.3657  149.8849 LP  0  0  0  0  0  0  0  0  0  0  0  0  # atno 17370 bound_to 10713
  156.6765  130.8841  151.3570 LP  0  0  0  0  0  0  0  0  0  0  0  0  # atno 17371 bound_to 10713
  140.1718  134.9095  157.2842 LP  0  0  0  0  0  0  0  0  0  0  0  0  # atno 17394 bound_to 11000
  140.2494  134.3701  155.7448 LP  0  0  0  0  0  0  0  0  0  0  0  0  # atno 17395 bound_to 11000

$$$$
