AV-unprocessed.smi:2872|AV-procd|sdf|11034|dock6
  -GOLD-   2272015503D 1   1.00000     0.00000
 Structure written by MMmdl.
 39 41  0  0  0  0  0  0  0  0  1 V2000
  151.4243  136.7867  154.3446 O   0  0  0  0  0  0  0  0  0  0  0  0
  150.9343  137.0043  155.4514 C   0  0  0  0  0  0  0  0  0  0  0  0
  151.0829  138.1468  156.1370 N   0  0  0  0  0  0  0  0  0  0  0  0
  151.8506  139.3027  155.6852 C   0  0  0  0  0  0  0  0  0  0  0  0
  151.8939  140.3259  156.7829 C   0  0  0  0  0  0  0  0  0  0  0  0
  152.7249  140.2145  157.8199 N   0  0  0  0  0  0  0  0  0  0  0  0
  152.4414  141.3451  158.5609 C   0  0  0  0  0  0  0  0  0  0  0  0
  152.9898  141.8074  159.7784 C   0  0  0  0  0  0  0  0  0  0  0  0
  152.5388  143.0147  160.3515 C   0  0  0  0  0  0  0  0  0  0  0  0
  151.5355  143.7755  159.7170 C   0  0  0  0  0  0  0  0  0  0  0  0
  150.9746  143.3318  158.5040 C   0  0  0  0  0  0  0  0  0  0  0  0
  151.4274  142.1256  157.9368 C   0  0  0  0  0  0  0  0  0  0  0  0
  151.0962  141.4237  156.7828 N   0  0  0  0  0  0  0  0  0  0  0  0
  150.1052  141.8183  155.7943 C   0  0  0  0  0  0  0  0  0  0  0  0
  148.7311  141.2145  156.1059 C   0  0  0  0  0  0  0  0  0  0  0  0
  147.8876  141.3989  154.9780 O   0  0  0  0  0  0  0  0  0  0  0  0
  146.8906  142.3473  155.0588 C   0  0  0  0  0  0  0  0  0  0  0  0
  146.4092  142.8758  153.8429 C   0  0  0  0  0  0  0  0  0  0  0  0
  145.3931  143.8506  153.8320 C   0  0  0  0  0  0  0  0  0  0  0  0
  144.8447  144.3087  155.0441 C   0  0  0  0  0  0  0  0  0  0  0  0
  145.3135  143.7889  156.2647 C   0  0  0  0  0  0  0  0  0  0  0  0
  146.3302  142.8139  156.2755 C   0  0  0  0  0  0  0  0  0  0  0  0
  150.3139  136.2883  156.0124 H   0  0  0  0  0  0  0  0  0  0  0  0
  150.6378  138.2193  157.0403 H   0  0  0  0  0  0  0  0  0  0  0  0
  152.8656  139.0158  155.4041 H   0  0  0  0  0  0  0  0  0  0  0  0
  151.3867  139.7259  154.7944 H   0  0  0  0  0  0  0  0  0  0  0  0
  153.7596  141.2325  160.2717 H   0  0  0  0  0  0  0  0  0  0  0  0
  152.9655  143.3594  161.2821 H   0  0  0  0  0  0  0  0  0  0  0  0
  151.1967  144.6996  160.1619 H   0  0  0  0  0  0  0  0  0  0  0  0
  150.2068  143.9124  158.0148 H   0  0  0  0  0  0  0  0  0  0  0  0
  150.0464  142.9057  155.7506 H   0  0  0  0  0  0  0  0  0  0  0  0
  150.4447  141.4908  154.8111 H   0  0  0  0  0  0  0  0  0  0  0  0
  148.8385  140.1513  156.3275 H   0  0  0  0  0  0  0  0  0  0  0  0
  148.3017  141.7039  156.9814 H   0  0  0  0  0  0  0  0  0  0  0  0
  146.8248  142.5302  152.9077 H   0  0  0  0  0  0  0  0  0  0  0  0
  145.0345  144.2468  152.8935 H   0  0  0  0  0  0  0  0  0  0  0  0
  144.0657  145.0568  155.0375 H   0  0  0  0  0  0  0  0  0  0  0  0
  144.8924  144.1384  157.1958 H   0  0  0  0  0  0  0  0  0  0  0  0
  146.6624  142.4395  157.2317 H   0  0  0  0  0  0  0  0  0  0  0  0
  1  2  2  0  0  0  0
  2  3  1  0  0  0  0
  2 23  1  0  0  0  0
  3  4  1  0  0  0  0
  3 24  1  0  0  0  0
  4  5  1  0  0  0  0
  4 25  1  0  0  0  0
  4 26  1  0  0  0  0
  5 13  1  0  0  0  0
  5  6  2  0  0  0  0
  6  7  1  0  0  0  0
  7 12  2  0  0  0  0
  7  8  1  0  0  0  0
  8  9  2  0  0  0  0
  8 27  1  0  0  0  0
  9 10  1  0  0  0  0
  9 28  1  0  0  0  0
 10 11  2  0  0  0  0
 10 29  1  0  0  0  0
 11 12  1  0  0  0  0
 11 30  1  0  0  0  0
 12 13  1  0  0  0  0
 13 14  1  0  0  0  0
 14 15  1  0  0  0  0
 14 31  1  0  0  0  0
 14 32  1  0  0  0  0
 15 16  1  0  0  0  0
 15 33  1  0  0  0  0
 15 34  1  0  0  0  0
 16 17  1  0  0  0  0
 17 22  1  0  0  0  0
 17 18  2  0  0  0  0
 18 19  1  0  0  0  0
 18 35  1  0  0  0  0
 19 20  2  0  0  0  0
 19 36  1  0  0  0  0
 20 21  1  0  0  0  0
 20 37  1  0  0  0  0
 21 22  2  0  0  0  0
 21 38  1  0  0  0  0
 22 39  1  0  0  0  0
M  END
> <s_m_source_file>
AV-unprocessed.smi

> <i_m_source_file_index>
2872

> <i_lp_mmshare_version>
43012

> <i_f3d_flags>
0

> <s_epik_input>
Tz1bQ0hdW05IXVtDSDJdYyhuMSluKGMoYzEyKVtjSF1bY0hdW2NIXVtjSF0yKVtDSDJdW0NIMl1PYzNbY0hdW2NIXVtjSF1bY0hdW2NIXTM=

> <s_epik_cmdline>
J2VwaWtfcHl0aG9uJywgJy1waCcsICc3LjAnLCAnLXRuJywgJzgnLCAnLW1hJywgJzIwMCcsICctbWV0YWxfYmluZGluZycsICctaW1hZScsICc8aW5maWxlLm1hZT4nLCAnLW9tYWUnLCAnPG91dGZpbGUubWFlPic=

> <r_lp_tautomer_probability>
1

> <r_epik_Ionization_Penalty>
0.0659793

> <r_epik_Ionization_Penalty_Charging>
0

> <r_epik_Ionization_Penalty_Neutral>
0.0659793

> <r_epik_State_Penalty>
0.0575748

> <r_epik_Charging_Adjusted_Penalty>
0.0575748

> <i_epik_Tot_Q>
0

> <i_epik_Tot_abs_Q>
0

> <r_epik_Metal_State_Penalty>
0.0517641

> <b_epik_Metal_Only>
0

> <s_lp_Force_Field>
OPLS_2005

> <r_lp_Energy>
12.8976

> <b_lp_Chiralities_Consistent>
1

> <s_lp_Variant>
AV-unprocessed.smi:2872-1

> <Gold.Version>
5.8.1

> <Gold.Id.Protein>
6NUR|6NUR_protein|mol2

> <Gold.PLP.Fitness>
47.0530

> <Gold.PLP.PLP>
-43.7527

> <Gold.PLP.part.hbond>
-2.0000

> <Gold.PLP.part.metal>
0.0000

> <Gold.PLP.part.buried>
-6.2271

> <Gold.PLP.part.nonpolar>
-36.2407

> <Gold.PLP.part.repulsive>
0.8084

> <Gold.PLP.ligand.clash>
0.0000

> <Gold.PLP.ligand.torsion>
1.3476

> <Gold.PLP.Chemscore.Hbond>
1.9760

> <Gold.PLP.Chemscore.CHOScore>
0.0000

> <Gold.PLP.Chemscore.Metal>
0.0000

> <Gold.Chemscore.Hbonds>
donor molecule, donor type, donor heavy atom, donor atom, acceptor molecule, acceptor atom, score
      P1  H  7997  8009       L1     6  0.96
      P1  H 10752 10765       L1     1  1.00

> <Gold.PLP.Chemscore.Internal.Correction>
0.0675

> <Gold.Rescore>
     Score         DG    S(hbond)    S(metal)    S(lipo)     H(rot)  DE(clash)    DE(int)     intcor
     14.85     -16.29       1.38        0.00     105.95       2.42       0.07       1.36       ----

> <Gold.Chemscore.Fitness>
14.8542

> <Gold.Chemscore.DG>
-16.2908

> <Gold.Chemscore.ZeroCoef>
-5.4800

> <Gold.Chemscore.Hbond>
1.3807

> <Gold.Chemscore.Metal>
0.0000

> <Gold.Chemscore.Lipo>
105.9456

> <Gold.Chemscore.Internal_Hbond>
0.0000

> <Gold.Chemscore.DEClash>
0.0730

> <Gold.Chemscore.DEInternal>
1.3636

> <Gold.Chemscore.Rot>
2.4205

> <Gold.Chemscore.Internal.Correction>
   9.000000E+99

> <Gold.Chemscore.Hbonds>
donor molecule, donor type, donor heavy atom, donor atom, acceptor molecule, acceptor atom, score
      P1  H  7997  8009       L1     6  0.34
      P1  H 10752 10765       L1     1  0.96

> <Gold.Chemscore.Hbond.Weighted>
-4.6117

> <Gold.Chemscore.Metal.Weighted>
-0.0000

> <Gold.Chemscore.Lipo.Weighted>
-12.3956

> <Gold.Chemscore.Internal_Hbond.Weighted>
0.0000

> <Gold.Chemscore.DEClash.Weighted>
0.0730

> <Gold.Chemscore.DEInternal.Weighted>
1.3636

> <Gold.Chemscore.Rot.Weighted>
6.1965

> <Gold.Chemscore.Internal.Correction.Weighted>
   9.000000E+99

> <Gold.Protein.RotatedTorsions>
[ 6907 6896 6895 6894 ] final -124.39 input  -60.11 | X-H torsion
[ 7974 7965 7964 7962 ] final  -12.15 input  175.53 | X-H torsion
[ 8008 7997 7996 7995 ] final  160.45 input   59.86 | X-H torsion
[ 10167 10162 10161 10158 ] final  -34.29 input  -65.29 | X-H torsion
[ 10718 10713 10712 10709 ] final -166.67 input   66.30 | X-H torsion
[ 10763 10752 10751 10750 ] final  159.71 input  -60.55 | X-H torsion
[ 11005 11000 10999 10996 ] final   11.33 input  -57.11 | X-H torsion

> <Gold.Protein.ActiveResidues>
 VAL166  LYS551  ARG553  GLY616  TRP617  ASP618  TYR619  PRO620  LYS621  CYS622 
 ASP623  PHE694  ASN695  SER759  ASP760  ASP761  ALA762  ILE779  LEU786  VAL792 
 PHE793  MET794  SER795  GLU796  ALA797  LYS798  CYS799  TRP800  GLU811  SER814 

> <Gold.Protein.RotatedAtoms>
  150.8764  133.7433  159.2945 H   0  0  0  0  0  0  0  0  0  0  0  0  # atno 6907 bound_to 6896
  151.5029  135.1061  159.9843 H   0  0  0  0  0  0  0  0  0  0  0  0  # atno 6908 bound_to 6896
  152.4730  133.8028  159.7017 H   0  0  0  0  0  0  0  0  0  0  0  0  # atno 6909 bound_to 6896
  146.2162  140.3016  142.8375 H   0  0  0  0  0  0  0  0  0  0  0  0  # atno 7974 bound_to 7965
  156.2171  140.1804  156.7563 H   0  0  0  0  0  0  0  0  0  0  0  0  # atno 8008 bound_to 7997
  154.5808  140.0666  156.9130 H   0  0  0  0  0  0  0  0  0  0  0  0  # atno 8009 bound_to 7997
  155.2505  140.3328  155.4285 H   0  0  0  0  0  0  0  0  0  0  0  0  # atno 8010 bound_to 7997
  140.7188  143.3559  151.2061 H   0  0  0  0  0  0  0  0  0  0  0  0  # atno 10167 bound_to 10162
  156.6712  130.9085  151.3044 H   0  0  0  0  0  0  0  0  0  0  0  0  # atno 10718 bound_to 10713
  154.2361  135.2776  155.2872 H   0  0  0  0  0  0  0  0  0  0  0  0  # atno 10763 bound_to 10752
  154.5584  135.5654  153.6988 H   0  0  0  0  0  0  0  0  0  0  0  0  # atno 10764 bound_to 10752
  153.0010  135.6292  154.2503 H   0  0  0  0  0  0  0  0  0  0  0  0  # atno 10765 bound_to 10752
  140.5044  134.0714  155.7802 H   0  0  0  0  0  0  0  0  0  0  0  0  # atno 11005 bound_to 11000
  144.9053  140.7692  143.5841 LP  0  0  0  0  0  0  0  0  0  0  0  0  # atno 17320 bound_to 7965
  145.2944  139.1872  143.4723 LP  0  0  0  0  0  0  0  0  0  0  0  0  # atno 17321 bound_to 7965
  139.7100  143.9392  152.2943 LP  0  0  0  0  0  0  0  0  0  0  0  0  # atno 17342 bound_to 10162
  139.9114  144.6854  150.8558 LP  0  0  0  0  0  0  0  0  0  0  0  0  # atno 17343 bound_to 10162
  157.7076  130.9403  150.0983 LP  0  0  0  0  0  0  0  0  0  0  0  0  # atno 17370 bound_to 10713
  156.1937  130.3656  149.8876 LP  0  0  0  0  0  0  0  0  0  0  0  0  # atno 17371 bound_to 10713
  141.1419  133.9124  157.2307 LP  0  0  0  0  0  0  0  0  0  0  0  0  # atno 17394 bound_to 11000
  139.9695  135.0132  156.9474 LP  0  0  0  0  0  0  0  0  0  0  0  0  # atno 17395 bound_to 11000

$$$$
