AV-unprocessed.smi:2886|AV-procd|sdf|11094|dock3
  -GOLD-   2272015563D 1   1.00000     0.00000
 Structure written by MMmdl.
 28 30  0  0  0  0  0  0  0  0  3 V2000
  152.6864  136.8336  159.9686 O   0  0  0  0  0  0  0  0  0  0  0  0
  152.9916  137.9814  160.2862 C   0  0  0  0  0  0  0  0  0  0  0  0
  153.7956  138.2748  161.3514 N   0  5  0  0  0  0  0  0  0  0  0  0
  154.1057  139.5122  161.6684 N   0  3  0  0  0  0  0  0  0  0  0  0
  153.6746  140.5745  160.9953 C   0  0  0  0  0  0  0  0  0  0  0  0
  152.8242  140.4083  159.8668 C   0  0  0  0  0  0  0  0  0  0  0  0
  152.3514  141.4879  159.1312 N   0  0  0  0  0  0  0  0  0  0  0  0
  152.6015  142.9080  159.3363 C   0  0  1  0  0  0  0  0  0  0  0  0
  152.0633  143.7726  158.1934 C   0  0  0  0  0  0  0  0  0  0  0  0
  151.1467  144.7468  158.9444 C   0  0  2  0  0  0  0  0  0  0  0  0
  151.9342  145.7248  159.8281 C   0  0  0  0  0  0  0  0  0  0  0  0
  152.3757  144.8209  160.9792 C   0  0  0  0  0  0  0  0  0  0  0  0
  151.8213  143.4588  160.5412 C   0  0  1  0  0  0  0  0  0  0  0  0
  150.6129  143.8762  159.9262 O   0  0  0  0  0  0  0  0  0  0  0  0
  152.4916  139.1333  159.5131 C   0  0  0  0  0  0  0  0  0  0  0  0
  151.4661  138.8292  158.1499 Cl  0  0  0  0  0  0  0  0  0  0  0  0
  154.7197  139.7095  162.4742 H   0  0  0  0  0  0  0  0  0  0  0  0
  154.0040  141.5447  161.3447 H   0  0  0  0  0  0  0  0  0  0  0  0
  151.6277  141.2871  158.4549 H   0  0  0  0  0  0  0  0  0  0  0  0
  153.6667  143.0783  159.4924 H   0  0  0  0  0  0  0  0  0  0  0  0
  152.8544  144.2832  157.6435 H   0  0  0  0  0  0  0  0  0  0  0  0
  151.4840  143.1813  157.4826 H   0  0  0  0  0  0  0  0  0  0  0  0
  150.3976  145.2246  158.3124 H   0  0  0  0  0  0  0  0  0  0  0  0
  152.7736  146.1764  159.2980 H   0  0  0  0  0  0  0  0  0  0  0  0
  151.2903  146.5248  160.1955 H   0  0  0  0  0  0  0  0  0  0  0  0
  153.4570  144.8080  161.1199 H   0  0  0  0  0  0  0  0  0  0  0  0
  151.9142  145.1411  161.9140 H   0  0  0  0  0  0  0  0  0  0  0  0
  151.6960  142.7522  161.3626 H   0  0  0  0  0  0  0  0  0  0  0  0
  1  2  2  0  0  0  0
  2  3  1  0  0  0  0
  2 15  1  0  0  0  0
  3  4  1  0  0  0  0
  4  5  2  0  0  0  0
  4 17  1  0  0  0  0
  5  6  1  0  0  0  0
  5 18  1  0  0  0  0
  6 15  2  0  0  0  0
  6  7  1  0  0  0  0
  7  8  1  0  0  0  0
  7 19  1  0  0  0  0
  8 13  1  0  0  0  0
  8  9  1  0  0  0  0
  8 20  1  0  0  0  0
  9 10  1  0  0  0  0
  9 21  1  0  0  0  0
  9 22  1  0  0  0  0
 10 14  1  0  0  0  0
 10 11  1  0  0  0  0
 10 23  1  0  0  0  0
 11 12  1  0  0  0  0
 11 24  1  0  0  0  0
 11 25  1  0  0  0  0
 12 13  1  0  0  0  0
 12 26  1  0  0  0  0
 12 27  1  0  0  0  0
 13 14  1  0  0  0  0
 13 28  1  0  0  0  0
 15 16  1  0  0  0  0
M  CHG  1   3  -1
M  CHG  1   4   1
M  END
> <s_m_source_file>
AV-unprocessed.smi

> <i_m_source_file_index>
2886

> <i_lp_mmshare_version>
43012

> <i_f3d_flags>
0

> <s_epik_input>
Tz1jMVtuSF1uW2NIXWMoYzFDbClbTkhdW0NASF0oW0NIMl1bQ0BASF0yMylbQ0BASF0oTzMpW0NIMl1bQ0gyXTI=

> <s_epik_cmdline>
J2VwaWtfcHl0aG9uJywgJy1waCcsICc3LjAnLCAnLXRuJywgJzgnLCAnLW1hJywgJzIwMCcsICctbWV0YWxfYmluZGluZycsICctaW1hZScsICc8aW5maWxlLm1hZT4nLCAnLW9tYWUnLCAnPG91dGZpbGUubWFlPic=

> <r_lp_tautomer_probability>
0.0138196

> <r_epik_Ionization_Penalty>
2.43027

> <r_epik_Ionization_Penalty_Charging>
2.43027

> <r_epik_Ionization_Penalty_Neutral>
1.33267e-06

> <r_epik_State_Penalty>
2.7044

> <r_epik_Charging_Adjusted_Penalty>
5.13467

> <i_epik_Tot_Q>
0

> <i_epik_Tot_abs_Q>
2

> <r_epik_Metal_State_Penalty>
2.98589

> <b_epik_Metal_Only>
0

> <s_lp_Force_Field>
OPLS_2005

> <r_lp_Energy>
57.4962

> <b_lp_Chiralities_Consistent>
1

> <s_lp_Variant>
AV-unprocessed.smi:2886-8

> <Gold.Version>
5.8.1

> <Gold.Id.Protein>
6NUR|6NUR_protein|mol2

> <Gold.PLP.Fitness>
35.6383

> <Gold.PLP.PLP>
-32.8822

> <Gold.PLP.part.hbond>
-1.5213

> <Gold.PLP.part.metal>
0.0000

> <Gold.PLP.part.buried>
-5.8920

> <Gold.PLP.part.nonpolar>
-25.7302

> <Gold.PLP.part.repulsive>
0.2008

> <Gold.PLP.ligand.clash>
0.0000

> <Gold.PLP.ligand.torsion>
0.1182

> <Gold.PLP.Chemscore.Hbond>
0.9913

> <Gold.PLP.Chemscore.CHOScore>
0.0000

> <Gold.PLP.Chemscore.Metal>
0.0000

> <Gold.Chemscore.Hbonds>
donor molecule, donor type, donor heavy atom, donor atom, acceptor molecule, acceptor atom, score
      P1  H  6896  6907       L1     1  1.00

> <Gold.PLP.Chemscore.Internal.Correction>
0.0188

> <Gold.Rescore>
     Score         DG    S(hbond)    S(metal)    S(lipo)     H(rot)  DE(clash)    DE(int)     intcor
     17.24     -17.31       1.00        0.00      94.58       1.00       0.03       0.05       ----

> <Gold.Chemscore.Fitness>
17.2372

> <Gold.Chemscore.DG>
-17.3107

> <Gold.Chemscore.ZeroCoef>
-5.4800

> <Gold.Chemscore.Hbond>
0.9953

> <Gold.Chemscore.Metal>
0.0000

> <Gold.Chemscore.Lipo>
94.5841

> <Gold.Chemscore.Internal_Hbond>
0.0000

> <Gold.Chemscore.DEClash>
0.0270

> <Gold.Chemscore.DEInternal>
0.0466

> <Gold.Chemscore.Rot>
1.0000

> <Gold.Chemscore.Internal.Correction>
   9.000000E+99

> <Gold.Chemscore.Hbonds>
donor molecule, donor type, donor heavy atom, donor atom, acceptor molecule, acceptor atom, score
      P1  H  6896  6907       L1     1  1.00

> <Gold.Chemscore.Hbond.Weighted>
-3.3244

> <Gold.Chemscore.Metal.Weighted>
-0.0000

> <Gold.Chemscore.Lipo.Weighted>
-11.0663

> <Gold.Chemscore.Internal_Hbond.Weighted>
0.0000

> <Gold.Chemscore.DEClash.Weighted>
0.0270

> <Gold.Chemscore.DEInternal.Weighted>
0.0466

> <Gold.Chemscore.Rot.Weighted>
2.5600

> <Gold.Chemscore.Internal.Correction.Weighted>
   9.000000E+99

> <Gold.Protein.RotatedTorsions>
[ 6907 6896 6895 6894 ] final   30.95 input  -60.11 | X-H torsion
[ 7974 7965 7964 7962 ] final  -20.06 input  175.53 | X-H torsion
[ 8008 7997 7996 7995 ] final  173.38 input   59.86 | X-H torsion
[ 10167 10162 10161 10158 ] final  -86.81 input  -65.29 | X-H torsion
[ 10718 10713 10712 10709 ] final   86.79 input   66.30 | X-H torsion
[ 10763 10752 10751 10750 ] final -156.80 input  -60.55 | X-H torsion
[ 11005 11000 10999 10996 ] final -139.01 input  -57.11 | X-H torsion

> <Gold.Protein.ActiveResidues>
 VAL166  LYS551  ARG553  GLY616  TRP617  ASP618  TYR619  PRO620  LYS621  CYS622 
 ASP623  PHE694  ASN695  SER759  ASP760  ASP761  ALA762  ILE779  LEU786  VAL792 
 PHE793  MET794  SER795  GLU796  ALA797  LYS798  CYS799  TRP800  GLU811  SER814 

> <Gold.Protein.RotatedAtoms>
  152.0533  134.9640  160.0574 H   0  0  0  0  0  0  0  0  0  0  0  0  # atno 6907 bound_to 6896
  152.1032  133.4256  159.4605 H   0  0  0  0  0  0  0  0  0  0  0  0  # atno 6908 bound_to 6896
  150.6840  134.2655  159.4610 H   0  0  0  0  0  0  0  0  0  0  0  0  # atno 6909 bound_to 6896
  146.1808  140.4150  142.8495 H   0  0  0  0  0  0  0  0  0  0  0  0  # atno 7974 bound_to 7965
  156.1081  140.1461  156.9376 H   0  0  0  0  0  0  0  0  0  0  0  0  # atno 8008 bound_to 7997
  154.4748  140.0898  156.7278 H   0  0  0  0  0  0  0  0  0  0  0  0  # atno 8009 bound_to 7997
  155.4644  140.3439  155.4319 H   0  0  0  0  0  0  0  0  0  0  0  0  # atno 8010 bound_to 7997
  140.3905  143.2707  151.9270 H   0  0  0  0  0  0  0  0  0  0  0  0  # atno 10167 bound_to 10162
  157.6933  131.0229  150.3025 H   0  0  0  0  0  0  0  0  0  0  0  0  # atno 10718 bound_to 10713
  154.7685  135.3138  154.8237 H   0  0  0  0  0  0  0  0  0  0  0  0  # atno 10763 bound_to 10752
  153.8979  135.6819  153.4761 H   0  0  0  0  0  0  0  0  0  0  0  0  # atno 10764 bound_to 10752
  153.1295  135.4786  154.9260 H   0  0  0  0  0  0  0  0  0  0  0  0  # atno 10765 bound_to 10752
  140.8561  134.2226  157.4733 H   0  0  0  0  0  0  0  0  0  0  0  0  # atno 11005 bound_to 11000
  144.8312  140.6710  143.6290 LP  0  0  0  0  0  0  0  0  0  0  0  0  # atno 17320 bound_to 7965
  145.4081  139.1585  143.4141 LP  0  0  0  0  0  0  0  0  0  0  0  0  # atno 17321 bound_to 7965
  139.4789  144.5732  151.8054 LP  0  0  0  0  0  0  0  0  0  0  0  0  # atno 17342 bound_to 10162
  140.4845  144.1402  150.5938 LP  0  0  0  0  0  0  0  0  0  0  0  0  # atno 17343 bound_to 10162
  156.3539  130.3835  149.7306 LP  0  0  0  0  0  0  0  0  0  0  0  0  # atno 17370 bound_to 10713
  156.4775  130.8025  151.3041 LP  0  0  0  0  0  0  0  0  0  0  0  0  # atno 17371 bound_to 10713
  139.8705  134.9707  156.4710 LP  0  0  0  0  0  0  0  0  0  0  0  0  # atno 17394 bound_to 11000
  140.8735  133.7970  155.9390 LP  0  0  0  0  0  0  0  0  0  0  0  0  # atno 17395 bound_to 11000

$$$$
