AV-unprocessed.smi:246|AV-procd|sdf|1882|dock10
  -GOLD-   2262020533D 1   1.00000     0.00000
 Structure written by MMmdl.
 57 60  0  0  0  0  0  0  0  0  1 V2000
  144.2003  132.9639  151.0892 C   0  0  0  0  0  0  0  0  0  0  0  0
  145.1093  134.1905  150.9303 C   0  0  0  0  0  0  0  0  0  0  0  0
  144.6861  135.2656  151.7564 O   0  0  0  0  0  0  0  0  0  0  0  0
  145.6454  136.3022  151.9055 C   0  0  0  0  0  0  0  0  0  0  0  0
  145.1910  137.2320  153.0341 C   0  0  0  0  0  0  0  0  0  0  0  0
  146.3337  137.6385  153.7723 O   0  0  0  0  0  0  0  0  0  0  0  0
  147.0337  138.7394  153.2072 C   0  0  1  0  0  0  0  0  0  0  0  0
  146.6755  139.9970  154.0018 C   0  0  0  0  0  0  0  0  0  0  0  0
  147.6557  139.9983  155.1769 C   0  0  0  0  0  0  0  0  0  0  0  0
  148.8021  139.2274  154.7223 N   0  0  0  0  0  0  0  0  0  0  0  0
  150.0545  139.4133  155.2120 C   0  0  0  0  0  0  0  0  0  0  0  0
  151.1080  138.9349  154.4981 N   0  0  0  0  0  0  0  0  0  0  0  0
  152.3580  139.0972  154.9405 C   0  0  0  0  0  0  0  0  0  0  0  0
  152.7760  139.6919  156.0584 N   0  0  0  0  0  0  0  0  0  0  0  0
  151.7256  140.1627  156.7887 C   0  0  0  0  0  0  0  0  0  0  0  0
  150.3461  140.0694  156.4444 C   0  0  0  0  0  0  0  0  0  0  0  0
  149.5768  140.6565  157.4438 N   0  0  0  0  0  0  0  0  0  0  0  0
  150.4472  141.0720  158.3219 C   0  0  0  0  0  0  0  0  0  0  0  0
  151.7609  140.8082  158.0118 N   0  0  0  0  0  0  0  0  0  0  0  0
  152.9260  141.1433  158.8105 C   0  0  0  0  0  0  0  0  0  0  0  0
  152.5952  142.0149  160.0419 C   0  0  1  0  0  0  0  0  0  0  0  0
  153.5331  141.6831  161.0464 O   0  0  0  0  0  0  0  0  0  0  0  0
  152.6428  143.5395  159.7879 C   0  0  2  0  0  0  0  0  0  0  0  0
  152.0849  144.3855  160.9363 C   0  0  0  0  0  0  0  0  0  0  0  0
  151.6901  145.6589  160.2255 C   0  0  0  0  0  0  0  0  0  0  0  0
  151.1299  145.1156  158.9169 C   0  0  0  0  0  0  0  0  0  0  0  0
  151.8336  143.9026  158.6687 O   0  0  0  0  0  0  0  0  0  0  0  0
  148.5476  138.6104  153.4281 C   0  0  0  0  0  0  0  0  0  0  0  0
  146.7755  138.8568  152.1534 H   0  0  0  0  0  0  0  0  0  0  0  0
  144.4758  132.1859  150.3772 H   0  0  0  0  0  0  0  0  0  0  0  0
  143.1574  133.2256  150.9086 H   0  0  0  0  0  0  0  0  0  0  0  0
  144.2703  132.5320  152.0871 H   0  0  0  0  0  0  0  0  0  0  0  0
  146.1531  133.9360  151.1203 H   0  0  0  0  0  0  0  0  0  0  0  0
  145.0573  134.5330  149.8965 H   0  0  0  0  0  0  0  0  0  0  0  0
  146.6393  135.9094  152.1204 H   0  0  0  0  0  0  0  0  0  0  0  0
  145.7098  136.8651  150.9732 H   0  0  0  0  0  0  0  0  0  0  0  0
  144.6955  138.1047  152.6089 H   0  0  0  0  0  0  0  0  0  0  0  0
  144.4677  136.7236  153.6736 H   0  0  0  0  0  0  0  0  0  0  0  0
  146.8586  140.8762  153.3829 H   0  0  0  0  0  0  0  0  0  0  0  0
  145.6319  140.0255  154.3166 H   0  0  0  0  0  0  0  0  0  0  0  0
  147.9256  141.0167  155.4578 H   0  0  0  0  0  0  0  0  0  0  0  0
  147.2198  139.5027  156.0448 H   0  0  0  0  0  0  0  0  0  0  0  0
  153.1342  138.6908  154.3090 H   0  0  0  0  0  0  0  0  0  0  0  0
  150.1512  141.5750  159.2310 H   0  0  0  0  0  0  0  0  0  0  0  0
  153.3990  140.2117  159.1241 H   0  0  0  0  0  0  0  0  0  0  0  0
  153.6446  141.6567  158.1700 H   0  0  0  0  0  0  0  0  0  0  0  0
  151.6075  141.7487  160.4197 H   0  0  0  0  0  0  0  0  0  0  0  0
  153.0641  141.3413  161.7921 H   0  0  0  0  0  0  0  0  0  0  0  0
  153.6660  143.8553  159.5773 H   0  0  0  0  0  0  0  0  0  0  0  0
  151.2014  143.9136  161.3695 H   0  0  0  0  0  0  0  0  0  0  0  0
  152.8098  144.5518  161.7337 H   0  0  0  0  0  0  0  0  0  0  0  0
  150.9699  146.2589  160.7824 H   0  0  0  0  0  0  0  0  0  0  0  0
  152.5728  146.2706  160.0339 H   0  0  0  0  0  0  0  0  0  0  0  0
  150.0694  144.8834  159.0217 H   0  0  0  0  0  0  0  0  0  0  0  0
  151.2434  145.8186  158.0915 H   0  0  0  0  0  0  0  0  0  0  0  0
  148.8948  137.5777  153.4020 H   0  0  0  0  0  0  0  0  0  0  0  0
  149.0840  139.1673  152.6586 H   0  0  0  0  0  0  0  0  0  0  0  0
  1  2  1  0  0  0  0
  1 30  1  0  0  0  0
  1 31  1  0  0  0  0
  1 32  1  0  0  0  0
  2  3  1  0  0  0  0
  2 33  1  0  0  0  0
  2 34  1  0  0  0  0
  3  4  1  0  0  0  0
  4  5  1  0  0  0  0
  4 35  1  0  0  0  0
  4 36  1  0  0  0  0
  5  6  1  0  0  0  0
  5 37  1  0  0  0  0
  5 38  1  0  0  0  0
  6  7  1  0  0  0  0
  7 29  1  0  0  0  0
  7 28  1  0  0  0  0
  7  8  1  0  0  0  0
  8  9  1  0  0  0  0
  8 39  1  0  0  0  0
  8 40  1  0  0  0  0
  9 10  1  0  0  0  0
  9 41  1  0  0  0  0
  9 42  1  0  0  0  0
 10 11  1  0  0  0  0
 10 28  1  0  0  0  0
 11 16  1  0  0  0  0
 11 12  2  0  0  0  0
 12 13  1  0  0  0  0
 13 14  2  0  0  0  0
 13 43  1  0  0  0  0
 14 15  1  0  0  0  0
 15 19  1  0  0  0  0
 15 16  2  0  0  0  0
 16 17  1  0  0  0  0
 17 18  2  0  0  0  0
 18 19  1  0  0  0  0
 18 44  1  0  0  0  0
 19 20  1  0  0  0  0
 20 21  1  0  0  0  0
 20 45  1  0  0  0  0
 20 46  1  0  0  0  0
 21 22  1  0  0  0  0
 21 23  1  0  0  0  0
 21 47  1  0  0  0  0
 22 48  1  0  0  0  0
 23 27  1  0  0  0  0
 23 24  1  0  0  0  0
 23 49  1  0  0  0  0
 24 25  1  0  0  0  0
 24 50  1  0  0  0  0
 24 51  1  0  0  0  0
 25 26  1  0  0  0  0
 25 52  1  0  0  0  0
 25 53  1  0  0  0  0
 26 27  1  0  0  0  0
 26 54  1  0  0  0  0
 26 55  1  0  0  0  0
 28 56  1  0  0  0  0
 28 57  1  0  0  0  0
M  END
> <s_m_source_file>
AV-unprocessed.smi

> <i_m_source_file_index>
246

> <i_lp_mmshare_version>
43012

> <i_f3d_flags>
0

> <s_epik_input>
W0NIM11bQ0gyXU9bQ0gyXVtDSDJdT1tDQEhdMVtDSDJdW0NIMl1OKFtDSDJdMSljKG5bY0hdbjIpYyhjMjMpbltjSF1uM1tDSDJdW0NASF0oW09IXSlbQ0BASF00W0NIMl1bQ0gyXVtDSDJdTzQ=

> <s_epik_cmdline>
J2VwaWtfcHl0aG9uJywgJy1waCcsICc3LjAnLCAnLXRuJywgJzgnLCAnLW1hJywgJzIwMCcsICctbWV0YWxfYmluZGluZycsICctaW1hZScsICc8aW5maWxlLm1hZT4nLCAnLW9tYWUnLCAnPG91dGZpbGUubWFlPic=

> <r_lp_tautomer_probability>
1

> <r_epik_Ionization_Penalty>
0.0024631

> <r_epik_Ionization_Penalty_Charging>
0

> <r_epik_Ionization_Penalty_Neutral>
0.0024631

> <r_epik_State_Penalty>
0.00162428

> <r_epik_Charging_Adjusted_Penalty>
0.00162428

> <i_epik_Tot_Q>
0

> <i_epik_Tot_abs_Q>
0

> <r_epik_Metal_State_Penalty>
-0

> <b_epik_Metal_Only>
0

> <s_lp_Force_Field>
OPLS_2005

> <r_lp_Energy>
52.0053

> <b_lp_Chiralities_Consistent>
1

> <s_lp_Variant>
AV-unprocessed.smi:246-3

> <Gold.Version>
5.8.1

> <Gold.Id.Protein>
6NUR|6NUR_protein|mol2

> <Gold.PLP.Fitness>
48.9794

> <Gold.PLP.PLP>
-48.6556

> <Gold.PLP.part.hbond>
-1.3587

> <Gold.PLP.part.metal>
0.0000

> <Gold.PLP.part.buried>
-4.2727

> <Gold.PLP.part.nonpolar>
-44.6042

> <Gold.PLP.part.repulsive>
0.5691

> <Gold.PLP.ligand.clash>
0.0000

> <Gold.PLP.ligand.torsion>
1.5958

> <Gold.PLP.Chemscore.Hbond>
1.0682

> <Gold.PLP.Chemscore.CHOScore>
0.0000

> <Gold.PLP.Chemscore.Metal>
0.0000

> <Gold.Chemscore.Hbonds>
donor molecule, donor type, donor heavy atom, donor atom, acceptor molecule, acceptor atom, score
      P1  H  7997  8009       L1    14  1.00

> <Gold.PLP.Chemscore.Internal.Correction>
0.3106

> <Gold.Rescore>
     Score         DG    S(hbond)    S(metal)    S(lipo)     H(rot)  DE(clash)    DE(int)     intcor
      8.48     -14.19       0.96        0.00     114.85       3.10       1.87       3.84       ----

> <Gold.Chemscore.Fitness>
8.4841

> <Gold.Chemscore.DG>
-14.1866

> <Gold.Chemscore.ZeroCoef>
-5.4800

> <Gold.Chemscore.Hbond>
0.9617

> <Gold.Chemscore.Metal>
0.0000

> <Gold.Chemscore.Lipo>
114.8483

> <Gold.Chemscore.Internal_Hbond>
0.0000

> <Gold.Chemscore.DEClash>
1.8672

> <Gold.Chemscore.DEInternal>
3.8354

> <Gold.Chemscore.Rot>
3.1026

> <Gold.Chemscore.Internal.Correction>
   9.000000E+99

> <Gold.Chemscore.Hbonds>
donor molecule, donor type, donor heavy atom, donor atom, acceptor molecule, acceptor atom, score
      P1  H  7997  8009       L1    14  0.98

> <Gold.Chemscore.Hbond.Weighted>
-3.2120

> <Gold.Chemscore.Metal.Weighted>
-0.0000

> <Gold.Chemscore.Lipo.Weighted>
-13.4373

> <Gold.Chemscore.Internal_Hbond.Weighted>
0.0000

> <Gold.Chemscore.DEClash.Weighted>
1.8672

> <Gold.Chemscore.DEInternal.Weighted>
3.8354

> <Gold.Chemscore.Rot.Weighted>
7.9426

> <Gold.Chemscore.Internal.Correction.Weighted>
   9.000000E+99

> <Gold.Protein.RotatedTorsions>
[ 6907 6896 6895 6894 ] final  139.02 input  -60.11 | X-H torsion
[ 7974 7965 7964 7962 ] final   81.62 input  175.53 | X-H torsion
[ 8008 7997 7996 7995 ] final -160.76 input   59.86 | X-H torsion
[ 10167 10162 10161 10158 ] final   58.06 input  -65.29 | X-H torsion
[ 10718 10713 10712 10709 ] final   29.38 input   66.30 | X-H torsion
[ 10763 10752 10751 10750 ] final -136.03 input  -60.55 | X-H torsion
[ 11005 11000 10999 10996 ] final -146.42 input  -57.11 | X-H torsion

> <Gold.Protein.ActiveResidues>
 VAL166  LYS551  ARG553  GLY616  TRP617  ASP618  TYR619  PRO620  LYS621  CYS622 
 ASP623  PHE694  ASN695  SER759  ASP760  ASP761  ALA762  ILE779  LEU786  VAL792 
 PHE793  MET794  SER795  GLU796  ALA797  LYS798  CYS799  TRP800  GLU811  SER814 

> <Gold.Protein.RotatedAtoms>
  152.2598  133.5287  159.5374 H   0  0  0  0  0  0  0  0  0  0  0  0  # atno 6907 bound_to 6896
  150.7121  134.0845  159.3918 H   0  0  0  0  0  0  0  0  0  0  0  0  # atno 6908 bound_to 6896
  151.8763  135.0470  160.0535 H   0  0  0  0  0  0  0  0  0  0  0  0  # atno 6909 bound_to 6896
  145.6358  139.2414  143.2058 H   0  0  0  0  0  0  0  0  0  0  0  0  # atno 7974 bound_to 7965
  155.7823  140.0866  157.2053 H   0  0  0  0  0  0  0  0  0  0  0  0  # atno 8008 bound_to 7997
  154.3989  140.1505  156.3124 H   0  0  0  0  0  0  0  0  0  0  0  0  # atno 8009 bound_to 7997
  155.8642  140.3429  155.5779 H   0  0  0  0  0  0  0  0  0  0  0  0  # atno 8010 bound_to 7997
  140.1912  144.4083  150.6570 H   0  0  0  0  0  0  0  0  0  0  0  0  # atno 10167 bound_to 10162
  157.2458  130.7091  149.6380 H   0  0  0  0  0  0  0  0  0  0  0  0  # atno 10718 bound_to 10713
  154.8692  135.3685  154.4995 H   0  0  0  0  0  0  0  0  0  0  0  0  # atno 10763 bound_to 10752
  153.5636  135.7022  153.5541 H   0  0  0  0  0  0  0  0  0  0  0  0  # atno 10764 bound_to 10752
  153.3605  135.4047  155.1678 H   0  0  0  0  0  0  0  0  0  0  0  0  # atno 10765 bound_to 10752
  140.7822  134.3066  157.5042 H   0  0  0  0  0  0  0  0  0  0  0  0  # atno 11005 bound_to 11000
  146.1320  140.7173  142.9407 LP  0  0  0  0  0  0  0  0  0  0  0  0  # atno 17320 bound_to 7965
  144.7176  140.4263  143.7032 LP  0  0  0  0  0  0  0  0  0  0  0  0  # atno 17321 bound_to 7965
  140.6454  143.2212  151.6197 LP  0  0  0  0  0  0  0  0  0  0  0  0  # atno 17342 bound_to 10162
  139.5255  144.3073  152.1023 LP  0  0  0  0  0  0  0  0  0  0  0  0  # atno 17343 bound_to 10162
  155.9668  130.4443  150.5458 LP  0  0  0  0  0  0  0  0  0  0  0  0  # atno 17370 bound_to 10713
  157.3331  131.0703  151.1846 LP  0  0  0  0  0  0  0  0  0  0  0  0  # atno 17371 bound_to 10713
  139.8741  134.9325  156.3556 LP  0  0  0  0  0  0  0  0  0  0  0  0  # atno 17394 bound_to 11000
  140.9471  133.7475  156.0223 LP  0  0  0  0  0  0  0  0  0  0  0  0  # atno 17395 bound_to 11000

$$$$
