AV-unprocessed.smi:473|AV-procd|sdf|2664|dock10
  -GOLD-   2262023 83D 1   1.00000     0.00000
 Structure written by MMmdl.
 43 45  0  0  0  0  0  0  0  0  2 V2000
  152.2253  143.9675  160.2949 C   0  0  0  0  0  0  0  0  0  0  0  0
  151.9784  142.8936  159.2490 C   0  0  0  0  0  0  0  0  0  0  0  0
  151.0706  143.1682  158.2010 C   0  0  0  0  0  0  0  0  0  0  0  0
  150.8684  142.1673  157.2580 C   0  0  0  0  0  0  0  0  0  0  0  0
  150.0560  142.1297  156.1224 N   0  3  0  0  0  0  0  0  0  0  0  0
  150.1929  140.9233  155.5050 C   0  0  0  0  0  0  0  0  0  0  0  0
  151.0807  140.1904  156.2299 N   0  0  0  0  0  0  0  0  0  0  0  0
  151.5763  138.8243  156.0117 C   0  0  0  0  0  0  0  0  0  0  0  0
  150.6645  137.9916  155.0857 C   0  0  1  0  0  0  0  0  0  0  0  0
  151.2146  136.7216  154.7961 O   0  0  0  0  0  0  0  0  0  0  0  0
  149.2424  137.8027  155.6383 C   0  0  0  0  0  0  0  0  0  0  0  0
  149.3091  137.2074  156.9237 O   0  0  0  0  0  0  0  0  0  0  0  0
  148.8795  138.0700  157.9638 C   0  0  0  0  0  0  0  0  0  0  0  0
  148.4388  137.2163  159.1110 C   0  0  0  0  0  0  0  0  0  0  0  0
  148.3623  135.8619  159.2858 C   0  0  0  0  0  0  0  0  0  0  0  0
  147.8716  135.6514  160.6043 C   0  0  0  0  0  0  0  0  0  0  0  0
  147.6853  136.8937  161.1396 C   0  0  0  0  0  0  0  0  0  0  0  0
  148.0265  137.8588  160.2436 O   0  0  0  0  0  0  0  0  0  0  0  0
  151.5300  140.9266  157.3325 C   0  0  0  0  0  0  0  0  0  0  0  0
  152.4289  140.6404  158.3578 C   0  0  0  0  0  0  0  0  0  0  0  0
  152.6497  141.6459  159.3254 C   0  0  0  0  0  0  0  0  0  0  0  0
  153.6271  141.3618  160.4536 C   0  0  0  0  0  0  0  0  0  0  0  0
  151.6017  144.8449  160.1212 H   0  0  0  0  0  0  0  0  0  0  0  0
  153.2671  144.2879  160.2733 H   0  0  0  0  0  0  0  0  0  0  0  0
  151.9983  143.5915  161.2929 H   0  0  0  0  0  0  0  0  0  0  0  0
  150.5577  144.1165  158.1353 H   0  0  0  0  0  0  0  0  0  0  0  0
  149.6868  140.6048  154.6048 H   0  0  0  0  0  0  0  0  0  0  0  0
  152.5956  138.8799  155.6294 H   0  0  0  0  0  0  0  0  0  0  0  0
  151.6475  138.3443  156.9885 H   0  0  0  0  0  0  0  0  0  0  0  0
  150.5866  138.5072  154.1277 H   0  0  0  0  0  0  0  0  0  0  0  0
  150.9886  136.4930  153.9077 H   0  0  0  0  0  0  0  0  0  0  0  0
  148.7543  138.7749  155.7228 H   0  0  0  0  0  0  0  0  0  0  0  0
  148.6403  137.1963  154.9593 H   0  0  0  0  0  0  0  0  0  0  0  0
  149.6932  138.7264  158.2749 H   0  0  0  0  0  0  0  0  0  0  0  0
  148.0527  138.6951  157.6240 H   0  0  0  0  0  0  0  0  0  0  0  0
  148.6279  135.1139  158.5535 H   0  0  0  0  0  0  0  0  0  0  0  0
  147.6802  134.7106  161.0990 H   0  0  0  0  0  0  0  0  0  0  0  0
  147.3361  137.2547  162.0959 H   0  0  0  0  0  0  0  0  0  0  0  0
  152.9450  139.6929  158.4138 H   0  0  0  0  0  0  0  0  0  0  0  0
  154.0738  140.3717  160.3547 H   0  0  0  0  0  0  0  0  0  0  0  0
  153.1212  141.4036  161.4184 H   0  0  0  0  0  0  0  0  0  0  0  0
  154.4362  142.0925  160.4536 H   0  0  0  0  0  0  0  0  0  0  0  0
  149.4511  142.8706  155.7915 H   0  0  0  0  0  0  0  0  0  0  0  0
  1  2  1  0  0  0  0
  1 23  1  0  0  0  0
  1 24  1  0  0  0  0
  1 25  1  0  0  0  0
  2 21  1  0  0  0  0
  2  3  2  0  0  0  0
  3  4  1  0  0  0  0
  3 26  1  0  0  0  0
  4 19  2  0  0  0  0
  4  5  1  0  0  0  0
  5  6  2  0  0  0  0
  5 43  1  0  0  0  0
  6  7  1  0  0  0  0
  6 27  1  0  0  0  0
  7  8  1  0  0  0  0
  7 19  1  0  0  0  0
  8  9  1  0  0  0  0
  8 28  1  0  0  0  0
  8 29  1  0  0  0  0
  9 10  1  0  0  0  0
  9 11  1  0  0  0  0
  9 30  1  0  0  0  0
 10 31  1  0  0  0  0
 11 12  1  0  0  0  0
 11 32  1  0  0  0  0
 11 33  1  0  0  0  0
 12 13  1  0  0  0  0
 13 14  1  0  0  0  0
 13 34  1  0  0  0  0
 13 35  1  0  0  0  0
 14 18  1  0  0  0  0
 14 15  2  0  0  0  0
 15 16  1  0  0  0  0
 15 36  1  0  0  0  0
 16 17  2  0  0  0  0
 16 37  1  0  0  0  0
 17 18  1  0  0  0  0
 17 38  1  0  0  0  0
 19 20  1  0  0  0  0
 20 21  2  0  0  0  0
 20 39  1  0  0  0  0
 21 22  1  0  0  0  0
 22 40  1  0  0  0  0
 22 41  1  0  0  0  0
 22 42  1  0  0  0  0
M  CHG  1   5   1
M  END
> <s_m_source_file>
AV-unprocessed.smi

> <i_m_source_file_index>
473

> <i_lp_mmshare_version>
43012

> <i_f3d_flags>
0

> <s_epik_input>
W0NIM11jKFtjSF0xKWMoW0NIM10pW2NIXWMoYzEyKW4oW2NIXW4yKVtDSDJdW0NASF0oW09IXSlbQ0gyXU9bQ0gyXWMzW2NIXVtjSF1bY0hdbzM=

> <s_epik_cmdline>
J2VwaWtfcHl0aG9uJywgJy1waCcsICc3LjAnLCAnLXRuJywgJzgnLCAnLW1hJywgJzIwMCcsICctbWV0YWxfYmluZGluZycsICctaW1hZScsICc8aW5maWxlLm1hZT4nLCAnLW9tYWUnLCAnPG91dGZpbGUubWFlPic=

> <r_epik_Ionization_Penalty>
1.03981

> <r_epik_Ionization_Penalty_Charging>
1.03981

> <r_epik_Ionization_Penalty_Neutral>
9.34185e-07

> <r_epik_State_Penalty>
1.09172

> <r_epik_Charging_Adjusted_Penalty>
2.13153

> <i_epik_Tot_Q>
1

> <i_epik_Tot_abs_Q>
1

> <r_epik_Metal_State_Penalty>
5.0824

> <b_epik_Metal_Only>
0

> <s_lp_Force_Field>
OPLS_2005

> <r_lp_Energy>
14.3304

> <b_lp_Chiralities_Consistent>
1

> <s_lp_Variant>
AV-unprocessed.smi:473-4

> <Gold.Version>
5.8.1

> <Gold.Id.Protein>
6NUR|6NUR_protein|mol2

> <Gold.PLP.Fitness>
54.7191

> <Gold.PLP.PLP>
-43.3743

> <Gold.PLP.part.hbond>
-5.0000

> <Gold.PLP.part.metal>
0.0000

> <Gold.PLP.part.buried>
-4.3322

> <Gold.PLP.part.nonpolar>
-34.2171

> <Gold.PLP.part.repulsive>
0.1340

> <Gold.PLP.ligand.clash>
0.0000

> <Gold.PLP.ligand.torsion>
0.8000

> <Gold.PLP.Chemscore.Hbond>
4.2974

> <Gold.PLP.Chemscore.CHOScore>
0.0000

> <Gold.PLP.Chemscore.Metal>
0.0000

> <Gold.Chemscore.Hbonds>
donor molecule, donor type, donor heavy atom, donor atom, acceptor molecule, acceptor atom, score
      L1  H     5    43       P1  8028  2.00
      P1  H  6934  6947       L1    18  0.45
      P1  H 10752 10765       L1    10  0.23

> <Gold.PLP.Chemscore.Internal.Correction>
0.0525

> <Gold.Rescore>
     Score         DG    S(hbond)    S(metal)    S(lipo)     H(rot)  DE(clash)    DE(int)     intcor
     17.11     -17.94       1.83        0.00     108.75       2.49       0.06       0.77       ----

> <Gold.Chemscore.Fitness>
17.1059

> <Gold.Chemscore.DG>
-17.9396

> <Gold.Chemscore.ZeroCoef>
-5.4800

> <Gold.Chemscore.Hbond>
1.8305

> <Gold.Chemscore.Metal>
0.0000

> <Gold.Chemscore.Lipo>
108.7481

> <Gold.Chemscore.Internal_Hbond>
0.0000

> <Gold.Chemscore.DEClash>
0.0628

> <Gold.Chemscore.DEInternal>
0.7709

> <Gold.Chemscore.Rot>
2.4913

> <Gold.Chemscore.Internal.Correction>
   9.000000E+99

> <Gold.Chemscore.Hbonds>
donor molecule, donor type, donor heavy atom, donor atom, acceptor molecule, acceptor atom, score
      L1  H     5    43       P1  8028  0.97
      L1  H    10    31       P1  7949  0.01
      P1  H  6934  6947       L1    18  0.07

> <Gold.Chemscore.Hbond.Weighted>
-6.1139

> <Gold.Chemscore.Metal.Weighted>
-0.0000

> <Gold.Chemscore.Lipo.Weighted>
-12.7235

> <Gold.Chemscore.Internal_Hbond.Weighted>
0.0000

> <Gold.Chemscore.DEClash.Weighted>
0.0628

> <Gold.Chemscore.DEInternal.Weighted>
0.7709

> <Gold.Chemscore.Rot.Weighted>
6.3778

> <Gold.Chemscore.Internal.Correction.Weighted>
   9.000000E+99

> <Gold.Protein.RotatedTorsions>
[ 6907 6896 6895 6894 ] final  130.34 input  -60.11 | X-H torsion
[ 7974 7965 7964 7962 ] final  -35.31 input  175.53 | X-H torsion
[ 8008 7997 7996 7995 ] final  -65.48 input   59.86 | X-H torsion
[ 10167 10162 10161 10158 ] final  141.13 input  -65.29 | X-H torsion
[ 10718 10713 10712 10709 ] final   60.52 input   66.30 | X-H torsion
[ 10763 10752 10751 10750 ] final  172.62 input  -60.55 | X-H torsion
[ 11005 11000 10999 10996 ] final  171.97 input  -57.11 | X-H torsion

> <Gold.Protein.ActiveResidues>
 VAL166  LYS551  ARG553  GLY616  TRP617  ASP618  TYR619  PRO620  LYS621  CYS622 
 ASP623  PHE694  ASN695  SER759  ASP760  ASP761  ALA762  ILE779  LEU786  VAL792 
 PHE793  MET794  SER795  GLU796  ALA797  LYS798  CYS799  TRP800  GLU811  SER814 

> <Gold.Protein.RotatedAtoms>
  152.3535  133.6209  159.5962 H   0  0  0  0  0  0  0  0  0  0  0  0  # atno 6907 bound_to 6896
  150.7553  133.9536  159.3502 H   0  0  0  0  0  0  0  0  0  0  0  0  # atno 6908 bound_to 6896
  151.7385  135.0860  160.0363 H   0  0  0  0  0  0  0  0  0  0  0  0  # atno 6909 bound_to 6896
  146.0757  140.6144  142.8932 H   0  0  0  0  0  0  0  0  0  0  0  0  # atno 7974 bound_to 7965
  154.4675  140.0932  156.7057 H   0  0  0  0  0  0  0  0  0  0  0  0  # atno 8008 bound_to 7997
  155.4818  140.3468  155.4322 H   0  0  0  0  0  0  0  0  0  0  0  0  # atno 8009 bound_to 7997
  156.0981  140.1415  156.9492 H   0  0  0  0  0  0  0  0  0  0  0  0  # atno 8010 bound_to 7997
  139.5029  144.6191  151.6094 H   0  0  0  0  0  0  0  0  0  0  0  0  # atno 10167 bound_to 10162
  157.5759  130.8943  149.9346 H   0  0  0  0  0  0  0  0  0  0  0  0  # atno 10718 bound_to 10713
  154.4286  135.2759  155.1927 H   0  0  0  0  0  0  0  0  0  0  0  0  # atno 10763 bound_to 10752
  154.3843  135.6080  153.5811 H   0  0  0  0  0  0  0  0  0  0  0  0  # atno 10764 bound_to 10752
  152.9835  135.5888  154.4594 H   0  0  0  0  0  0  0  0  0  0  0  0  # atno 10765 bound_to 10752
  140.3247  134.7407  157.4090 H   0  0  0  0  0  0  0  0  0  0  0  0  # atno 11005 bound_to 11000
  144.7260  140.4526  143.6973 LP  0  0  0  0  0  0  0  0  0  0  0  0  # atno 17320 bound_to 7965
  145.6310  139.1536  143.2969 LP  0  0  0  0  0  0  0  0  0  0  0  0  # atno 17321 bound_to 7965
  140.5888  143.9817  150.6311 LP  0  0  0  0  0  0  0  0  0  0  0  0  # atno 17342 bound_to 10162
  140.2991  143.3273  152.0989 LP  0  0  0  0  0  0  0  0  0  0  0  0  # atno 17343 bound_to 10162
  156.0804  130.3674  150.0593 LP  0  0  0  0  0  0  0  0  0  0  0  0  # atno 17370 bound_to 10713
  156.8739  130.9533  151.3606 LP  0  0  0  0  0  0  0  0  0  0  0  0  # atno 17371 bound_to 10713
  140.0911  134.5599  155.8443 LP  0  0  0  0  0  0  0  0  0  0  0  0  # atno 17394 bound_to 11000
  141.2078  133.6667  156.6329 LP  0  0  0  0  0  0  0  0  0  0  0  0  # atno 17395 bound_to 11000

$$$$
