AV-unprocessed.smi:2532|AV-procd|sdf|9968|dock9
  -GOLD-   2272014 13D 1   1.00000     0.00000
 Structure written by MMmdl.
 36 38  0  0  0  0  0  0  0  0  1 V2000
  151.2830  140.3962  155.4259 O   0  0  0  0  0  0  0  0  0  0  0  0
  150.3228  141.2325  156.0422 C   0  0  2  0  0  0  0  0  0  0  0  0
  149.2614  141.6102  154.9967 C   0  0  0  0  0  0  0  0  0  0  0  0
  147.9765  141.5492  155.5930 O   0  0  0  0  0  0  0  0  0  0  0  0
  146.9829  141.0648  154.7040 C   0  0  0  0  0  0  0  0  0  0  0  0
  146.0058  142.1711  154.4643 C   0  0  0  0  0  0  0  0  0  0  0  0
  145.8343  142.8831  153.3042 C   0  0  0  0  0  0  0  0  0  0  0  0
  144.8022  143.8632  153.3914 C   0  0  0  0  0  0  0  0  0  0  0  0
  144.1907  143.8827  154.6163 C   0  0  0  0  0  0  0  0  0  0  0  0
  144.8719  142.6916  155.6900 S   0  0  0  0  0  0  0  0  0  0  0  0
  151.0327  142.4763  156.6112 C   0  0  0  0  0  0  0  0  0  0  0  0
  151.6021  142.2435  157.9270 N   0  0  0  0  0  0  0  0  0  0  0  0
  152.1844  141.1116  158.3675 C   0  0  0  0  0  0  0  0  0  0  0  0
  152.6397  141.1066  159.6171 N   0  0  0  0  0  0  0  0  0  0  0  0
  152.3144  142.3847  160.0381 C   0  0  0  0  0  0  0  0  0  0  0  0
  152.5265  143.0226  161.2815 C   0  0  0  0  0  0  0  0  0  0  0  0
  152.1040  144.3532  161.4831 C   0  0  0  0  0  0  0  0  0  0  0  0
  151.4655  145.0656  160.4470 C   0  0  0  0  0  0  0  0  0  0  0  0
  151.2429  144.4511  159.1998 C   0  0  0  0  0  0  0  0  0  0  0  0
  151.6643  143.1228  159.0032 C   0  0  0  0  0  0  0  0  0  0  0  0
  151.0868  139.4993  155.6502 H   0  0  0  0  0  0  0  0  0  0  0  0
  149.8519  140.6872  156.8615 H   0  0  0  0  0  0  0  0  0  0  0  0
  149.4291  142.6339  154.6575 H   0  0  0  0  0  0  0  0  0  0  0  0
  149.3256  140.9654  154.1182 H   0  0  0  0  0  0  0  0  0  0  0  0
  147.4356  140.7491  153.7628 H   0  0  0  0  0  0  0  0  0  0  0  0
  146.4714  140.2036  155.1363 H   0  0  0  0  0  0  0  0  0  0  0  0
  146.4111  142.7364  152.4029 H   0  0  0  0  0  0  0  0  0  0  0  0
  144.5471  144.5084  152.5635 H   0  0  0  0  0  0  0  0  0  0  0  0
  143.3839  144.5178  154.9514 H   0  0  0  0  0  0  0  0  0  0  0  0
  151.8263  142.8050  155.9386 H   0  0  0  0  0  0  0  0  0  0  0  0
  150.3300  143.3069  156.6897 H   0  0  0  0  0  0  0  0  0  0  0  0
  152.2797  140.2418  157.7339 H   0  0  0  0  0  0  0  0  0  0  0  0
  153.0152  142.4869  162.0818 H   0  0  0  0  0  0  0  0  0  0  0  0
  152.2715  144.8303  162.4377 H   0  0  0  0  0  0  0  0  0  0  0  0
  151.1468  146.0848  160.6101 H   0  0  0  0  0  0  0  0  0  0  0  0
  150.7562  144.9948  158.4036 H   0  0  0  0  0  0  0  0  0  0  0  0
  1  2  1  0  0  0  0
  1 21  1  0  0  0  0
  2  3  1  0  0  0  0
  2 11  1  0  0  0  0
  2 22  1  0  0  0  0
  3  4  1  0  0  0  0
  3 23  1  0  0  0  0
  3 24  1  0  0  0  0
  4  5  1  0  0  0  0
  5  6  1  0  0  0  0
  5 25  1  0  0  0  0
  5 26  1  0  0  0  0
  6 10  1  0  0  0  0
  6  7  2  0  0  0  0
  7  8  1  0  0  0  0
  7 27  1  0  0  0  0
  8  9  2  0  0  0  0
  8 28  1  0  0  0  0
  9 10  1  0  0  0  0
  9 29  1  0  0  0  0
 11 12  1  0  0  0  0
 11 30  1  0  0  0  0
 11 31  1  0  0  0  0
 12 20  1  0  0  0  0
 12 13  1  0  0  0  0
 13 14  2  0  0  0  0
 13 32  1  0  0  0  0
 14 15  1  0  0  0  0
 15 20  2  0  0  0  0
 15 16  1  0  0  0  0
 16 17  2  0  0  0  0
 16 33  1  0  0  0  0
 17 18  1  0  0  0  0
 17 34  1  0  0  0  0
 18 19  2  0  0  0  0
 18 35  1  0  0  0  0
 19 20  1  0  0  0  0
 19 36  1  0  0  0  0
M  END
> <s_m_source_file>
AV-unprocessed.smi

> <i_m_source_file_index>
2532

> <i_lp_mmshare_version>
43012

> <i_f3d_flags>
0

> <s_epik_input>
W2NIXTFbY0hdW2NIXVtjSF1jKGMxMiluKFtjSF1uMilbQ0gyXVtDQEhdKFtPSF0pW0NIMl1PW0NIMl1jM1tjSF1bY0hdW2NIXXMz

> <s_epik_cmdline>
J2VwaWtfcHl0aG9uJywgJy1waCcsICc3LjAnLCAnLXRuJywgJzgnLCAnLW1hJywgJzIwMCcsICctbWV0YWxfYmluZGluZycsICctaW1hZScsICc8aW5maWxlLm1hZT4nLCAnLW9tYWUnLCAnPG91dGZpbGUubWFlPic=

> <r_epik_Ionization_Penalty>
0.0678455

> <r_epik_Ionization_Penalty_Charging>
0

> <r_epik_Ionization_Penalty_Neutral>
0.0678455

> <r_epik_State_Penalty>
0.0593261

> <r_epik_Charging_Adjusted_Penalty>
0.0593261

> <i_epik_Tot_Q>
0

> <i_epik_Tot_abs_Q>
0

> <r_epik_Metal_State_Penalty>
6.23947e-05

> <b_epik_Metal_Only>
0

> <s_lp_Force_Field>
OPLS_2005

> <r_lp_Energy>
9.71279

> <b_lp_Chiralities_Consistent>
1

> <s_lp_Variant>
AV-unprocessed.smi:2532-1

> <Gold.Version>
5.8.1

> <Gold.Id.Protein>
6NUR|6NUR_protein|mol2

> <Gold.PLP.Fitness>
48.3820

> <Gold.PLP.PLP>
-48.9844

> <Gold.PLP.part.hbond>
-1.0000

> <Gold.PLP.part.metal>
0.0000

> <Gold.PLP.part.buried>
-8.1216

> <Gold.PLP.part.nonpolar>
-39.4539

> <Gold.PLP.part.repulsive>
0.1232

> <Gold.PLP.ligand.clash>
0.0000

> <Gold.PLP.ligand.torsion>
1.9102

> <Gold.PLP.Chemscore.Hbond>
1.0000

> <Gold.PLP.Chemscore.CHOScore>
0.0000

> <Gold.PLP.Chemscore.Metal>
0.0000

> <Gold.Chemscore.Hbonds>
donor molecule, donor type, donor heavy atom, donor atom, acceptor molecule, acceptor atom, score
      P1  H  7989  7998       L1     1  0.94

> <Gold.PLP.Chemscore.Internal.Correction>
0.2180

> <Gold.Rescore>
     Score         DG    S(hbond)    S(metal)    S(lipo)     H(rot)  DE(clash)    DE(int)     intcor
     15.10     -16.95       0.93        0.00     123.25       2.36       0.04       1.81       ----

> <Gold.Chemscore.Fitness>
15.1005

> <Gold.Chemscore.DG>
-16.9543

> <Gold.Chemscore.ZeroCoef>
-5.4800

> <Gold.Chemscore.Hbond>
0.9283

> <Gold.Chemscore.Metal>
0.0000

> <Gold.Chemscore.Lipo>
123.2520

> <Gold.Chemscore.Internal_Hbond>
0.0000

> <Gold.Chemscore.DEClash>
0.0450

> <Gold.Chemscore.DEInternal>
1.8088

> <Gold.Chemscore.Rot>
2.3620

> <Gold.Chemscore.Internal.Correction>
   9.000000E+99

> <Gold.Chemscore.Hbonds>
donor molecule, donor type, donor heavy atom, donor atom, acceptor molecule, acceptor atom, score
      P1  H  7989  7998       L1     1  0.72

> <Gold.Chemscore.Hbond.Weighted>
-3.1006

> <Gold.Chemscore.Metal.Weighted>
-0.0000

> <Gold.Chemscore.Lipo.Weighted>
-14.4205

> <Gold.Chemscore.Internal_Hbond.Weighted>
0.0000

> <Gold.Chemscore.DEClash.Weighted>
0.0450

> <Gold.Chemscore.DEInternal.Weighted>
1.8088

> <Gold.Chemscore.Rot.Weighted>
6.0468

> <Gold.Chemscore.Internal.Correction.Weighted>
   9.000000E+99

> <Gold.Protein.RotatedTorsions>
[ 6907 6896 6895 6894 ] final  165.30 input  -60.11 | X-H torsion
[ 7974 7965 7964 7962 ] final   92.82 input  175.53 | X-H torsion
[ 8008 7997 7996 7995 ] final  -75.76 input   59.86 | X-H torsion
[ 10167 10162 10161 10158 ] final -167.17 input  -65.29 | X-H torsion
[ 10718 10713 10712 10709 ] final  -13.53 input   66.30 | X-H torsion
[ 10763 10752 10751 10750 ] final   56.00 input  -60.55 | X-H torsion
[ 11005 11000 10999 10996 ] final  -50.95 input  -57.11 | X-H torsion

> <Gold.Protein.ActiveResidues>
 VAL166  LYS551  ARG553  GLY616  TRP617  ASP618  TYR619  PRO620  LYS621  CYS622 
 ASP623  PHE694  ASN695  SER759  ASP760  ASP761  ALA762  ILE779  LEU786  VAL792 
 PHE793  MET794  SER795  GLU796  ALA797  LYS798  CYS799  TRP800  GLU811  SER814 

> <Gold.Protein.RotatedAtoms>
  151.8966  133.3528  159.3816 H   0  0  0  0  0  0  0  0  0  0  0  0  # atno 6907 bound_to 6896
  150.7090  134.4870  159.5507 H   0  0  0  0  0  0  0  0  0  0  0  0  # atno 6908 bound_to 6896
  152.2451  134.8190  160.0505 H   0  0  0  0  0  0  0  0  0  0  0  0  # atno 6909 bound_to 6896
  145.4872  139.2277  143.2850 H   0  0  0  0  0  0  0  0  0  0  0  0  # atno 7974 bound_to 7965
  154.5445  140.0738  156.8565 H   0  0  0  0  0  0  0  0  0  0  0  0  # atno 8008 bound_to 7997
  155.3115  140.3390  155.4225 H   0  0  0  0  0  0  0  0  0  0  0  0  # atno 8009 bound_to 7997
  156.1905  140.1684  156.8088 H   0  0  0  0  0  0  0  0  0  0  0  0  # atno 8010 bound_to 7997
  139.6066  144.0899  152.1800 H   0  0  0  0  0  0  0  0  0  0  0  0  # atno 10167 bound_to 10162
  156.6289  130.4896  149.6136 H   0  0  0  0  0  0  0  0  0  0  0  0  # atno 10718 bound_to 10713
  152.9825  135.5691  154.5158 H   0  0  0  0  0  0  0  0  0  0  0  0  # atno 10763 bound_to 10752
  154.4654  135.2783  155.1684 H   0  0  0  0  0  0  0  0  0  0  0  0  # atno 10764 bound_to 10752
  154.3254  135.6260  153.5580 H   0  0  0  0  0  0  0  0  0  0  0  0  # atno 10765 bound_to 10752
  141.0844  133.6646  156.3806 H   0  0  0  0  0  0  0  0  0  0  0  0  # atno 11005 bound_to 11000
  146.2306  140.5663  142.8977 LP  0  0  0  0  0  0  0  0  0  0  0  0  # atno 17320 bound_to 7965
  144.7855  140.5927  143.6577 LP  0  0  0  0  0  0  0  0  0  0  0  0  # atno 17321 bound_to 7965
  140.0508  144.5934  150.7337 LP  0  0  0  0  0  0  0  0  0  0  0  0  # atno 17342 bound_to 10162
  140.7289  143.2667  151.4021 LP  0  0  0  0  0  0  0  0  0  0  0  0  # atno 17343 bound_to 10162
  156.2251  130.6761  151.1407 LP  0  0  0  0  0  0  0  0  0  0  0  0  # atno 17370 bound_to 10713
  157.7206  131.0684  150.6151 LP  0  0  0  0  0  0  0  0  0  0  0  0  # atno 17371 bound_to 10713
  140.5395  134.6134  157.5375 LP  0  0  0  0  0  0  0  0  0  0  0  0  # atno 17394 bound_to 11000
  139.9661  134.7370  156.0135 LP  0  0  0  0  0  0  0  0  0  0  0  0  # atno 17395 bound_to 11000

$$$$
