AV-unprocessed.smi:1419|AV-procd|sdf|5781|dock7
  -GOLD-   22720 5423D 1   1.00000     0.00000
 Structure written by MMmdl.
 41 42  0  0  0  0  0  0  0  0  1 V2000
  149.4978  141.5924  156.4466 C   0  0  0  0  0  0  0  0  0  0  0  0
  150.7255  140.8228  156.9518 C   0  0  1  0  0  0  0  0  0  0  0  0
  151.6780  140.4589  155.7920 C   0  0  0  0  0  0  0  0  0  0  0  0
  151.4523  139.1183  155.2812 N   0  0  0  0  0  0  0  0  0  0  0  0
  150.2292  138.5134  155.0236 C   0  0  0  0  0  0  0  0  0  0  0  0
  150.5067  137.2415  154.5763 C   0  0  0  0  0  0  0  0  0  0  0  0
  151.8855  137.0455  154.5434 N   0  0  0  0  0  0  0  0  0  0  0  0
  152.3787  138.2008  154.9693 C   0  0  0  0  0  0  0  0  0  0  0  0
  151.4202  141.6348  157.9499 N   0  0  0  0  0  0  0  0  0  0  0  0
  152.4951  141.2557  158.6637 C   0  0  0  0  0  0  0  0  0  0  0  0
  152.9423  140.1087  158.6224 O   0  0  0  0  0  0  0  0  0  0  0  0
  153.0760  142.2512  159.3769 N   0  0  0  0  0  0  0  0  0  0  0  0
  153.7503  142.1259  160.6753 C   0  0  0  0  0  0  0  0  0  0  0  0
  152.8168  142.7146  161.7513 C   0  0  1  0  0  0  0  0  0  0  0  0
  153.4461  142.6774  163.1477 C   0  0  0  0  0  0  0  0  0  0  0  0
  152.5325  144.0754  161.4243 O   0  0  0  0  0  0  0  0  0  0  0  0
  151.9318  144.2512  160.1403 C   0  0  1  0  0  0  0  0  0  0  0  0
  151.6693  145.7463  159.9338 C   0  0  0  0  0  0  0  0  0  0  0  0
  152.8660  143.6651  159.0614 C   0  0  0  0  0  0  0  0  0  0  0  0
  148.9403  141.0045  155.7171 H   0  0  0  0  0  0  0  0  0  0  0  0
  149.7846  142.5300  155.9688 H   0  0  0  0  0  0  0  0  0  0  0  0
  148.8180  141.8295  157.2657 H   0  0  0  0  0  0  0  0  0  0  0  0
  150.3623  139.9006  157.4090 H   0  0  0  0  0  0  0  0  0  0  0  0
  151.5476  141.1581  154.9652 H   0  0  0  0  0  0  0  0  0  0  0  0
  152.7180  140.5424  156.1107 H   0  0  0  0  0  0  0  0  0  0  0  0
  149.2895  139.0202  155.1861 H   0  0  0  0  0  0  0  0  0  0  0  0
  149.8253  136.4582  154.2790 H   0  0  0  0  0  0  0  0  0  0  0  0
  153.4392  138.3790  155.0694 H   0  0  0  0  0  0  0  0  0  0  0  0
  151.1134  142.5919  158.0444 H   0  0  0  0  0  0  0  0  0  0  0  0
  154.0282  141.1027  160.9289 H   0  0  0  0  0  0  0  0  0  0  0  0
  154.6885  142.6823  160.6474 H   0  0  0  0  0  0  0  0  0  0  0  0
  151.8816  142.1525  161.7747 H   0  0  0  0  0  0  0  0  0  0  0  0
  153.6689  141.6540  163.4502 H   0  0  0  0  0  0  0  0  0  0  0  0
  152.7719  143.1041  163.8905 H   0  0  0  0  0  0  0  0  0  0  0  0
  154.3761  143.2458  163.1764 H   0  0  0  0  0  0  0  0  0  0  0  0
  150.9752  143.7249  160.1229 H   0  0  0  0  0  0  0  0  0  0  0  0
  151.2005  145.9319  158.9671 H   0  0  0  0  0  0  0  0  0  0  0  0
  152.5964  146.3191  159.9732 H   0  0  0  0  0  0  0  0  0  0  0  0
  151.0041  146.1343  160.7054 H   0  0  0  0  0  0  0  0  0  0  0  0
  153.8239  144.1877  159.0579 H   0  0  0  0  0  0  0  0  0  0  0  0
  152.4367  143.8171  158.0700 H   0  0  0  0  0  0  0  0  0  0  0  0
  1  2  1  0  0  0  0
  1 20  1  0  0  0  0
  1 21  1  0  0  0  0
  1 22  1  0  0  0  0
  2  3  1  0  0  0  0
  2  9  1  0  0  0  0
  2 23  1  0  0  0  0
  3  4  1  0  0  0  0
  3 24  1  0  0  0  0
  3 25  1  0  0  0  0
  4  8  1  0  0  0  0
  4  5  1  0  0  0  0
  5  6  2  0  0  0  0
  5 26  1  0  0  0  0
  6  7  1  0  0  0  0
  6 27  1  0  0  0  0
  7  8  2  0  0  0  0
  8 28  1  0  0  0  0
  9 10  1  0  0  0  0
  9 29  1  0  0  0  0
 10 11  2  0  0  0  0
 10 12  1  0  0  0  0
 12 19  1  0  0  0  0
 12 13  1  0  0  0  0
 13 14  1  0  0  0  0
 13 30  1  0  0  0  0
 13 31  1  0  0  0  0
 14 15  1  0  0  0  0
 14 16  1  0  0  0  0
 14 32  1  0  0  0  0
 15 33  1  0  0  0  0
 15 34  1  0  0  0  0
 15 35  1  0  0  0  0
 16 17  1  0  0  0  0
 17 18  1  0  0  0  0
 17 19  1  0  0  0  0
 17 36  1  0  0  0  0
 18 37  1  0  0  0  0
 18 38  1  0  0  0  0
 18 39  1  0  0  0  0
 19 40  1  0  0  0  0
 19 41  1  0  0  0  0
M  END
> <s_m_source_file>
AV-unprocessed.smi

> <i_m_source_file_index>
1419

> <i_lp_mmshare_version>
43012

> <i_f3d_flags>
0

> <s_epik_input>
W2NIXTFuW2NIXVtjSF1uMVtDSDJdW0NAQEhdKFtDSDNdKVtOSF1DKD1PKU4yW0NIMl1bQ0BASF0oW0NIM10pT1tDQEBIXShbQ0gzXSlbQ0gyXTI=

> <s_epik_cmdline>
J2VwaWtfcHl0aG9uJywgJy1waCcsICc3LjAnLCAnLXRuJywgJzgnLCAnLW1hJywgJzIwMCcsICctbWV0YWxfYmluZGluZycsICctaW1hZScsICc8aW5maWxlLm1hZT4nLCAnLW9tYWUnLCAnPG91dGZpbGUubWFlPic=

> <r_lp_tautomer_probability>
1

> <r_epik_Ionization_Penalty>
0.625124

> <r_epik_Ionization_Penalty_Charging>
0.625093

> <r_epik_Ionization_Penalty_Neutral>
3.17415e-05

> <r_epik_State_Penalty>
0.641455

> <r_epik_Charging_Adjusted_Penalty>
1.26655

> <i_epik_Tot_Q>
0

> <i_epik_Tot_abs_Q>
0

> <r_epik_Metal_State_Penalty>
0.307717

> <b_epik_Metal_Only>
0

> <s_lp_Force_Field>
OPLS_2005

> <r_lp_Energy>
27.9017

> <b_lp_Chiralities_Consistent>
1

> <s_lp_Variant>
AV-unprocessed.smi:1419-8

> <Gold.Version>
5.8.1

> <Gold.Id.Protein>
6NUR|6NUR_protein|mol2

> <Gold.PLP.Fitness>
52.1837

> <Gold.PLP.PLP>
-47.2078

> <Gold.PLP.part.hbond>
-1.9870

> <Gold.PLP.part.metal>
0.0000

> <Gold.PLP.part.buried>
-2.6584

> <Gold.PLP.part.nonpolar>
-42.5474

> <Gold.PLP.part.repulsive>
0.3547

> <Gold.PLP.ligand.clash>
0.7558

> <Gold.PLP.ligand.torsion>
1.0578

> <Gold.PLP.Chemscore.Hbond>
1.6094

> <Gold.PLP.Chemscore.CHOScore>
0.9828

> <Gold.PLP.Chemscore.Metal>
0.0000

> <Gold.Chemscore.Hbonds>
donor molecule, donor type, donor heavy atom, donor atom, acceptor molecule, acceptor atom, score
      P1  H  7997  8008       L1    11  0.36
      P1  H 10752 10763       L1     7  0.86
      L1  C     6    27       P1  7948  0.80

> <Gold.PLP.Chemscore.Internal.Correction>
0.0706

> <Gold.Rescore>
     Score         DG    S(hbond)    S(metal)    S(lipo)     H(rot)  DE(clash)    DE(int)     intcor
     17.37     -18.32       1.44        0.00     103.27       1.58       0.14       0.81       ----

> <Gold.Chemscore.Fitness>
17.3727

> <Gold.Chemscore.DG>
-18.3219

> <Gold.Chemscore.ZeroCoef>
-5.4800

> <Gold.Chemscore.Hbond>
1.4359

> <Gold.Chemscore.Metal>
0.0000

> <Gold.Chemscore.Lipo>
103.2738

> <Gold.Chemscore.Internal_Hbond>
0.0000

> <Gold.Chemscore.DEClash>
0.1369

> <Gold.Chemscore.DEInternal>
0.8123

> <Gold.Chemscore.Rot>
1.5769

> <Gold.Chemscore.Internal.Correction>
   9.000000E+99

> <Gold.Chemscore.Hbonds>
donor molecule, donor type, donor heavy atom, donor atom, acceptor molecule, acceptor atom, score
      P1  H  7997  8008       L1    11  0.22
      P1  H 10752 10763       L1     7  0.83

> <Gold.Chemscore.Hbond.Weighted>
-4.7958

> <Gold.Chemscore.Metal.Weighted>
-0.0000

> <Gold.Chemscore.Lipo.Weighted>
-12.0830

> <Gold.Chemscore.Internal_Hbond.Weighted>
0.0000

> <Gold.Chemscore.DEClash.Weighted>
0.1369

> <Gold.Chemscore.DEInternal.Weighted>
0.8123

> <Gold.Chemscore.Rot.Weighted>
4.0369

> <Gold.Chemscore.Internal.Correction.Weighted>
   9.000000E+99

> <Gold.Protein.RotatedTorsions>
[ 6907 6896 6895 6894 ] final   40.64 input  -60.11 | X-H torsion
[ 7974 7965 7964 7962 ] final  -40.36 input  175.53 | X-H torsion
[ 8008 7997 7996 7995 ] final  -88.19 input   59.86 | X-H torsion
[ 10167 10162 10161 10158 ] final  -32.42 input  -65.29 | X-H torsion
[ 10718 10713 10712 10709 ] final -136.22 input   66.30 | X-H torsion
[ 10763 10752 10751 10750 ] final   27.18 input  -60.55 | X-H torsion
[ 11005 11000 10999 10996 ] final  113.25 input  -57.11 | X-H torsion

> <Gold.Protein.ActiveResidues>
 VAL166  LYS551  ARG553  GLY616  TRP617  ASP618  TYR619  PRO620  LYS621  CYS622 
 ASP623  PHE694  ASN695  SER759  ASP760  ASP761  ALA762  ILE779  LEU786  VAL792 
 PHE793  MET794  SER795  GLU796  ALA797  LYS798  CYS799  TRP800  GLU811  SER814 

> <Gold.Protein.RotatedAtoms>
  152.1851  134.8720  160.0522 H   0  0  0  0  0  0  0  0  0  0  0  0  # atno 6907 bound_to 6896
  151.9630  133.3696  159.4050 H   0  0  0  0  0  0  0  0  0  0  0  0  # atno 6908 bound_to 6896
  150.6924  134.4144  159.5220 H   0  0  0  0  0  0  0  0  0  0  0  0  # atno 6909 bound_to 6896
  146.0311  140.6730  142.9132 H   0  0  0  0  0  0  0  0  0  0  0  0  # atno 7974 bound_to 7965
  154.6719  140.0556  157.0175 H   0  0  0  0  0  0  0  0  0  0  0  0  # atno 8008 bound_to 7997
  155.1076  140.3235  155.4511 H   0  0  0  0  0  0  0  0  0  0  0  0  # atno 8009 bound_to 7997
  156.2661  140.2020  156.6201 H   0  0  0  0  0  0  0  0  0  0  0  0  # atno 8010 bound_to 7997
  140.7221  143.3696  151.1804 H   0  0  0  0  0  0  0  0  0  0  0  0  # atno 10167 bound_to 10162
  156.2746  130.7286  151.1264 H   0  0  0  0  0  0  0  0  0  0  0  0  # atno 10718 bound_to 10713
  153.0573  135.6543  154.0547 H   0  0  0  0  0  0  0  0  0  0  0  0  # atno 10763 bound_to 10752
  154.0223  135.2919  155.3381 H   0  0  0  0  0  0  0  0  0  0  0  0  # atno 10764 bound_to 10752
  154.6894  135.5289  153.8439 H   0  0  0  0  0  0  0  0  0  0  0  0  # atno 10765 bound_to 10752
  139.8948  134.9546  156.6710 H   0  0  0  0  0  0  0  0  0  0  0  0  # atno 11005 bound_to 11000
  144.7031  140.3738  143.7140 LP  0  0  0  0  0  0  0  0  0  0  0  0  # atno 17320 bound_to 7965
  145.7039  139.1668  143.2577 LP  0  0  0  0  0  0  0  0  0  0  0  0  # atno 17321 bound_to 7965
  139.7264  143.9141  152.3004 LP  0  0  0  0  0  0  0  0  0  0  0  0  # atno 17342 bound_to 10162
  139.8915  144.6963  150.8765 LP  0  0  0  0  0  0  0  0  0  0  0  0  # atno 17343 bound_to 10162
  157.7295  131.0623  150.5770 LP  0  0  0  0  0  0  0  0  0  0  0  0  # atno 17370 bound_to 10713
  156.5870  130.4319  149.5953 LP  0  0  0  0  0  0  0  0  0  0  0  0  # atno 17371 bound_to 10713
  140.7373  133.9008  155.8253 LP  0  0  0  0  0  0  0  0  0  0  0  0  # atno 17394 bound_to 11000
  141.0106  134.1026  157.4225 LP  0  0  0  0  0  0  0  0  0  0  0  0  # atno 17395 bound_to 11000

$$$$
