AV-unprocessed.smi:3287|AV-procd|sdf|12601|dock9
  -GOLD-   2272018523D 1   1.00000     0.00000
 Structure written by MMmdl.
 43 44  0  0  0  0  0  0  0  0  2 V2000
  152.8078  144.0385  162.2788 C   0  0  0  0  0  0  0  0  0  0  0  0
  152.0991  143.5871  160.9893 C   0  0  1  0  0  0  0  0  0  0  0  0
  151.6477  144.8208  160.1817 C   0  0  0  0  0  0  0  0  0  0  0  0
  150.9218  144.4323  158.8860 C   0  0  0  0  0  0  0  0  0  0  0  0
  151.8024  143.5235  158.0089 C   0  0  2  0  0  0  0  0  0  0  0  0
  151.0949  143.1042  156.7790 N   0  3  0  0  0  0  0  0  0  0  0  0
  150.1182  142.0079  156.9555 C   0  0  0  0  0  0  0  0  0  0  0  0
  149.7646  141.3471  155.6118 C   0  0  2  0  0  0  0  0  0  0  0  0
  148.3849  141.0355  155.6051 O   0  0  0  0  0  0  0  0  0  0  0  0
  150.6216  140.1151  155.3660 C   0  0  0  0  0  0  0  0  0  0  0  0
  150.3213  139.2340  154.3062 C   0  0  0  0  0  0  0  0  0  0  0  0
  151.1483  138.1096  154.1097 C   0  0  0  0  0  0  0  0  0  0  0  0
  152.2189  137.8322  154.8841 N   0  0  0  0  0  0  0  0  0  0  0  0
  152.5032  138.6793  155.8960 C   0  0  0  0  0  0  0  0  0  0  0  0
  151.7411  139.8305  156.1778 C   0  0  0  0  0  0  0  0  0  0  0  0
  152.2356  142.2829  158.8087 C   0  0  0  0  0  0  0  0  0  0  0  0
  152.9735  142.6521  160.1124 C   0  0  2  0  0  0  0  0  0  0  0  0
  153.4060  141.3710  160.8481 C   0  0  0  0  0  0  0  0  0  0  0  0
  153.7502  144.5405  162.0587 H   0  0  0  0  0  0  0  0  0  0  0  0
  153.0204  143.1992  162.9405 H   0  0  0  0  0  0  0  0  0  0  0  0
  152.1863  144.7346  162.8427 H   0  0  0  0  0  0  0  0  0  0  0  0
  151.2032  143.0376  161.2829 H   0  0  0  0  0  0  0  0  0  0  0  0
  150.9898  145.4428  160.7900 H   0  0  0  0  0  0  0  0  0  0  0  0
  152.5138  145.4384  159.9390 H   0  0  0  0  0  0  0  0  0  0  0  0
  149.9882  143.9235  159.1304 H   0  0  0  0  0  0  0  0  0  0  0  0
  150.6481  145.3401  158.3486 H   0  0  0  0  0  0  0  0  0  0  0  0
  152.7025  144.0674  157.7174 H   0  0  0  0  0  0  0  0  0  0  0  0
  150.5791  143.9021  156.4352 H   0  0  0  0  0  0  0  0  0  0  0  0
  150.5408  141.2586  157.6250 H   0  0  0  0  0  0  0  0  0  0  0  0
  149.2171  142.3939  157.4348 H   0  0  0  0  0  0  0  0  0  0  0  0
  149.9418  142.0578  154.8031 H   0  0  0  0  0  0  0  0  0  0  0  0
  148.1955  140.4968  156.3589 H   0  0  0  0  0  0  0  0  0  0  0  0
  149.4782  139.4099  153.6544 H   0  0  0  0  0  0  0  0  0  0  0  0
  150.9450  137.4159  153.3075 H   0  0  0  0  0  0  0  0  0  0  0  0
  153.3653  138.4338  156.4985 H   0  0  0  0  0  0  0  0  0  0  0  0
  152.0154  140.4775  156.9981 H   0  0  0  0  0  0  0  0  0  0  0  0
  151.3612  141.6745  159.0456 H   0  0  0  0  0  0  0  0  0  0  0  0
  152.8821  141.6606  158.1880 H   0  0  0  0  0  0  0  0  0  0  0  0
  153.8802  143.1935  159.8378 H   0  0  0  0  0  0  0  0  0  0  0  0
  152.5442  140.8184  161.2234 H   0  0  0  0  0  0  0  0  0  0  0  0
  154.0586  141.5898  161.6926 H   0  0  0  0  0  0  0  0  0  0  0  0
  153.9616  140.7072  160.1851 H   0  0  0  0  0  0  0  0  0  0  0  0
  151.7751  142.8396  156.0809 H   0  0  0  0  0  0  0  0  0  0  0  0
  1  2  1  0  0  0  0
  1 19  1  0  0  0  0
  1 20  1  0  0  0  0
  1 21  1  0  0  0  0
  2 17  1  0  0  0  0
  2  3  1  0  0  0  0
  2 22  1  0  0  0  0
  3  4  1  0  0  0  0
  3 23  1  0  0  0  0
  3 24  1  0  0  0  0
  4  5  1  0  0  0  0
  4 25  1  0  0  0  0
  4 26  1  0  0  0  0
  5  6  1  0  0  0  0
  5 16  1  0  0  0  0
  5 27  1  0  0  0  0
  6  7  1  0  0  0  0
  6 28  1  0  0  0  0
  6 43  1  0  0  0  0
  7  8  1  0  0  0  0
  7 29  1  0  0  0  0
  7 30  1  0  0  0  0
  8  9  1  0  0  0  0
  8 10  1  0  0  0  0
  8 31  1  0  0  0  0
  9 32  1  0  0  0  0
 10 15  1  0  0  0  0
 10 11  2  0  0  0  0
 11 12  1  0  0  0  0
 11 33  1  0  0  0  0
 12 13  2  0  0  0  0
 12 34  1  0  0  0  0
 13 14  1  0  0  0  0
 14 15  2  0  0  0  0
 14 35  1  0  0  0  0
 15 36  1  0  0  0  0
 16 17  1  0  0  0  0
 16 37  1  0  0  0  0
 16 38  1  0  0  0  0
 17 18  1  0  0  0  0
 17 39  1  0  0  0  0
 18 40  1  0  0  0  0
 18 41  1  0  0  0  0
 18 42  1  0  0  0  0
M  CHG  1   6   1
M  END
> <s_m_source_file>
AV-unprocessed.smi

> <i_m_source_file_index>
3287

> <i_lp_mmshare_version>
43012

> <i_f3d_flags>
0

> <s_epik_input>
W0NIM11bQ0BASF0xW0NIMl1bQ0gyXVtDQEhdKFtDSDJdW0NASF0xW0NIM10pW05IXVtDSDJdW0NASF0oW09IXSljMltjSF1bY0hdbltjSF1bY0hdMg==

> <s_epik_cmdline>
J2VwaWtfcHl0aG9uJywgJy1waCcsICc3LjAnLCAnLXRuJywgJzgnLCAnLW1hJywgJzIwMCcsICctbWV0YWxfYmluZGluZycsICctaW1hZScsICc8aW5maWxlLm1hZT4nLCAnLW9tYWUnLCAnPG91dGZpbGUubWFlPic=

> <r_lp_tautomer_probability>
1

> <r_epik_Ionization_Penalty>
0.00537262

> <r_epik_Ionization_Penalty_Charging>
0.00321624

> <r_epik_Ionization_Penalty_Neutral>
0.00215638

> <r_epik_State_Penalty>
-0

> <r_epik_Charging_Adjusted_Penalty>
0.00321624

> <i_epik_Tot_Q>
1

> <i_epik_Tot_abs_Q>
1

> <r_epik_Metal_State_Penalty>
-0

> <b_epik_Metal_Only>
0

> <s_lp_Force_Field>
OPLS_2005

> <r_lp_Energy>
15.7848

> <b_lp_Chiralities_Consistent>
1

> <s_lp_Variant>
AV-unprocessed.smi:3287-12

> <Gold.Version>
5.8.1

> <Gold.Id.Protein>
6NUR|6NUR_protein|mol2

> <Gold.PLP.Fitness>
53.4970

> <Gold.PLP.PLP>
-46.0608

> <Gold.PLP.part.hbond>
-1.6822

> <Gold.PLP.part.metal>
0.0000

> <Gold.PLP.part.buried>
-4.7599

> <Gold.PLP.part.nonpolar>
-39.1816

> <Gold.PLP.part.repulsive>
0.1109

> <Gold.PLP.ligand.clash>
0.0000

> <Gold.PLP.ligand.torsion>
0.9772

> <Gold.PLP.Chemscore.Hbond>
2.0000

> <Gold.PLP.Chemscore.CHOScore>
1.1258

> <Gold.PLP.Chemscore.Metal>
0.0000

> <Gold.Chemscore.Hbonds>
donor molecule, donor type, donor heavy atom, donor atom, acceptor molecule, acceptor atom, score
      L1  H     6    28       P1  8028  2.00
      L1  C    12    34       P1  7948  0.13
      L1  C    12    34       P1  7949  1.00

> <Gold.PLP.Chemscore.Internal.Correction>
0.0133

> <Gold.Rescore>
     Score         DG    S(hbond)    S(metal)    S(lipo)     H(rot)  DE(clash)    DE(int)     intcor
     19.47     -20.27       1.02        0.00     139.00       1.90       0.09       0.70       ----

> <Gold.Chemscore.Fitness>
19.4714

> <Gold.Chemscore.DG>
-20.2660

> <Gold.Chemscore.ZeroCoef>
-5.4800

> <Gold.Chemscore.Hbond>
1.0167

> <Gold.Chemscore.Metal>
0.0000

> <Gold.Chemscore.Lipo>
138.9995

> <Gold.Chemscore.Internal_Hbond>
0.0000

> <Gold.Chemscore.DEClash>
0.0917

> <Gold.Chemscore.DEInternal>
0.7030

> <Gold.Chemscore.Rot>
1.9035

> <Gold.Chemscore.Internal.Correction>
   9.000000E+99

> <Gold.Chemscore.Hbonds>
donor molecule, donor type, donor heavy atom, donor atom, acceptor molecule, acceptor atom, score
      L1  H     6    28       P1  8028  0.91

> <Gold.Chemscore.Hbond.Weighted>
-3.3959

> <Gold.Chemscore.Metal.Weighted>
-0.0000

> <Gold.Chemscore.Lipo.Weighted>
-16.2629

> <Gold.Chemscore.Internal_Hbond.Weighted>
0.0000

> <Gold.Chemscore.DEClash.Weighted>
0.0917

> <Gold.Chemscore.DEInternal.Weighted>
0.7030

> <Gold.Chemscore.Rot.Weighted>
4.8729

> <Gold.Chemscore.Internal.Correction.Weighted>
   9.000000E+99

> <Gold.Protein.RotatedTorsions>
[ 6907 6896 6895 6894 ] final   31.50 input  -60.11 | X-H torsion
[ 7974 7965 7964 7962 ] final  -46.81 input  175.53 | X-H torsion
[ 8008 7997 7996 7995 ] final  129.80 input   59.86 | X-H torsion
[ 10167 10162 10161 10158 ] final  -59.65 input  -65.29 | X-H torsion
[ 10718 10713 10712 10709 ] final -134.33 input   66.30 | X-H torsion
[ 10763 10752 10751 10750 ] final  108.84 input  -60.55 | X-H torsion
[ 11005 11000 10999 10996 ] final -104.40 input  -57.11 | X-H torsion

> <Gold.Protein.ActiveResidues>
 VAL166  LYS551  ARG553  GLY616  TRP617  ASP618  TYR619  PRO620  LYS621  CYS622 
 ASP623  PHE694  ASN695  SER759  ASP760  ASP761  ALA762  ILE779  LEU786  VAL792 
 PHE793  MET794  SER795  GLU796  ALA797  LYS798  CYS799  TRP800  GLU811  SER814 

> <Gold.Protein.RotatedAtoms>
  152.0612  134.9593  160.0574 H   0  0  0  0  0  0  0  0  0  0  0  0  # atno 6907 bound_to 6896
  152.0956  133.4218  159.4572 H   0  0  0  0  0  0  0  0  0  0  0  0  # atno 6908 bound_to 6896
  150.6838  134.2740  159.4643 H   0  0  0  0  0  0  0  0  0  0  0  0  # atno 6909 bound_to 6896
  145.9681  140.7411  142.9424 H   0  0  0  0  0  0  0  0  0  0  0  0  # atno 7974 bound_to 7965
  156.2943  140.2611  156.2658 H   0  0  0  0  0  0  0  0  0  0  0  0  # atno 8008 bound_to 7997
  154.9743  140.0390  157.2267 H   0  0  0  0  0  0  0  0  0  0  0  0  # atno 8009 bound_to 7997
  154.7830  140.2798  155.6054 H   0  0  0  0  0  0  0  0  0  0  0  0  # atno 8010 bound_to 7997
  140.6121  143.2390  151.5683 H   0  0  0  0  0  0  0  0  0  0  0  0  # atno 10167 bound_to 10162
  156.2543  130.7172  151.1083 H   0  0  0  0  0  0  0  0  0  0  0  0  # atno 10718 bound_to 10713
  153.4263  135.3799  155.2143 H   0  0  0  0  0  0  0  0  0  0  0  0  # atno 10763 bound_to 10752
  154.8747  135.3829  154.4322 H   0  0  0  0  0  0  0  0  0  0  0  0  # atno 10764 bound_to 10752
  153.4849  135.7088  153.5980 H   0  0  0  0  0  0  0  0  0  0  0  0  # atno 10765 bound_to 10752
  141.1102  133.8720  157.1606 H   0  0  0  0  0  0  0  0  0  0  0  0  # atno 11005 bound_to 11000
  144.6830  140.2702  143.7307 LP  0  0  0  0  0  0  0  0  0  0  0  0  # atno 17320 bound_to 7965
  145.7945  139.1940  143.2083 LP  0  0  0  0  0  0  0  0  0  0  0  0  # atno 17321 bound_to 7965
  139.5370  144.2754  152.1271 LP  0  0  0  0  0  0  0  0  0  0  0  0  # atno 17342 bound_to 10162
  140.1955  144.4709  150.6457 LP  0  0  0  0  0  0  0  0  0  0  0  0  # atno 17343 bound_to 10162
  157.7227  131.0671  150.6068 LP  0  0  0  0  0  0  0  0  0  0  0  0  # atno 17370 bound_to 10713
  156.6151  130.4390  149.5844 LP  0  0  0  0  0  0  0  0  0  0  0  0  # atno 17371 bound_to 10713
  139.9992  135.0034  157.0152 LP  0  0  0  0  0  0  0  0  0  0  0  0  # atno 17394 bound_to 11000
  140.4795  134.1304  155.7215 LP  0  0  0  0  0  0  0  0  0  0  0  0  # atno 17395 bound_to 11000

$$$$
