AV-unprocessed.smi:2073|AV-procd|sdf|8451|dock10
  -GOLD-   2272011143D 1   1.00000     0.00000
 Structure written by MMmdl.
 27 27  0  0  0  0  0  0  0  0  2 V2000
  147.0365  133.6769  160.4287 C   0  0  0  0  0  0  0  0  0  0  0  0
  147.7040  134.7553  161.2976 C   0  0  0  0  0  0  0  0  0  0  0  0
  146.7956  135.1789  162.4655 C   0  0  0  0  0  0  0  0  0  0  0  0
  148.1125  135.9636  160.4358 C   0  0  0  0  0  0  0  0  0  0  0  0
  147.6612  137.0795  160.7019 O   0  0  0  0  0  0  0  0  0  0  0  0
  148.9566  135.6113  159.4359 N   0  5  0  0  0  0  0  0  0  0  0  0
  148.9140  136.2728  158.2692 C   0  0  0  0  0  0  0  0  0  0  0  0
  149.9316  136.2858  157.4016 N   0  0  0  0  0  0  0  0  0  0  0  0
  149.6760  137.0338  156.2485 C   0  0  0  0  0  0  0  0  0  0  0  0
  150.7185  137.1304  155.1718 C   0  0  0  0  0  0  0  0  0  0  0  0
  150.5504  138.4223  154.3678 C   0  0  0  0  0  0  0  0  0  0  0  0
  149.7770  138.3714  153.2792 N   0  0  0  0  0  0  0  0  0  0  0  0
  151.1232  139.4522  154.7179 O   0  0  0  0  0  0  0  0  0  0  0  0
  148.4362  137.6197  156.2538 C   0  0  0  0  0  0  0  0  0  0  0  0
  147.5494  137.2370  157.7015 S   0  0  0  0  0  0  0  0  0  0  0  0
  147.6907  133.3635  159.6141 H   0  0  0  0  0  0  0  0  0  0  0  0
  146.1058  134.0379  159.9891 H   0  0  0  0  0  0  0  0  0  0  0  0
  146.8025  132.7908  161.0189 H   0  0  0  0  0  0  0  0  0  0  0  0
  148.6003  134.3148  161.7400 H   0  0  0  0  0  0  0  0  0  0  0  0
  147.2602  135.9631  163.0645 H   0  0  0  0  0  0  0  0  0  0  0  0
  146.5976  134.3362  163.1279 H   0  0  0  0  0  0  0  0  0  0  0  0
  145.8336  135.5531  162.1131 H   0  0  0  0  0  0  0  0  0  0  0  0
  151.7179  137.1034  155.6078 H   0  0  0  0  0  0  0  0  0  0  0  0
  150.6577  136.2799  154.4913 H   0  0  0  0  0  0  0  0  0  0  0  0
  149.6577  139.1978  152.7101 H   0  0  0  0  0  0  0  0  0  0  0  0
  149.3319  137.5040  153.0177 H   0  0  0  0  0  0  0  0  0  0  0  0
  147.9909  138.2463  155.4956 H   0  0  0  0  0  0  0  0  0  0  0  0
  1  2  1  0  0  0  0
  1 16  1  0  0  0  0
  1 17  1  0  0  0  0
  1 18  1  0  0  0  0
  2  3  1  0  0  0  0
  2  4  1  0  0  0  0
  2 19  1  0  0  0  0
  3 20  1  0  0  0  0
  3 21  1  0  0  0  0
  3 22  1  0  0  0  0
  4  5  2  0  0  0  0
  4  6  1  0  0  0  0
  6  7  1  0  0  0  0
  7 15  1  0  0  0  0
  7  8  2  0  0  0  0
  8  9  1  0  0  0  0
  9 10  1  0  0  0  0
  9 14  2  0  0  0  0
 10 11  1  0  0  0  0
 10 23  1  0  0  0  0
 10 24  1  0  0  0  0
 11 12  1  0  0  0  0
 11 13  2  0  0  0  0
 12 25  1  0  0  0  0
 12 26  1  0  0  0  0
 14 15  1  0  0  0  0
 14 27  1  0  0  0  0
M  CHG  1   6  -1
M  END
> <s_m_source_file>
AV-unprocessed.smi

> <i_m_source_file_index>
2073

> <i_lp_mmshare_version>
43012

> <i_f3d_flags>
0

> <s_epik_input>
W0NIM11bQ0hdKFtDSDNdKUMoPU8pW05IXWMxbmMoW2NIXXMxKVtDSDJdQyg9TylbTkgyXQ==

> <s_epik_cmdline>
J2VwaWtfcHl0aG9uJywgJy1waCcsICc3LjAnLCAnLXRuJywgJzgnLCAnLW1hJywgJzIwMCcsICctbWV0YWxfYmluZGluZycsICctaW1hZScsICc8aW5maWxlLm1hZT4nLCAnLW9tYWUnLCAnPG91dGZpbGUubWFlPic=

> <r_lp_tautomer_probability>
1

> <r_epik_Ionization_Penalty>
5.4698

> <r_epik_Ionization_Penalty_Charging>
4.98646

> <r_epik_Ionization_Penalty_Neutral>
0.483343

> <r_epik_State_Penalty>
4.98633

> <r_epik_Charging_Adjusted_Penalty>
9.97279

> <i_epik_Tot_Q>
-1

> <i_epik_Tot_abs_Q>
1

> <r_epik_Metal_State_Penalty>
1.11062

> <b_epik_Metal_Only>
1

> <s_lp_Force_Field>
OPLS_2005

> <r_lp_Energy>
-0.551018

> <b_lp_Chiralities_Consistent>
1

> <s_lp_Variant>
AV-unprocessed.smi:2073-2

> <Gold.Version>
5.8.1

> <Gold.Id.Protein>
6NUR|6NUR_protein|mol2

> <Gold.PLP.Fitness>
41.9571

> <Gold.PLP.PLP>
-23.7957

> <Gold.PLP.part.hbond>
-6.0363

> <Gold.PLP.part.metal>
0.0000

> <Gold.PLP.part.buried>
-4.6158

> <Gold.PLP.part.nonpolar>
-13.5561

> <Gold.PLP.part.repulsive>
0.1661

> <Gold.PLP.ligand.clash>
0.0000

> <Gold.PLP.ligand.torsion>
1.0464

> <Gold.PLP.Chemscore.Hbond>
6.7280

> <Gold.PLP.Chemscore.CHOScore>
0.0000

> <Gold.PLP.Chemscore.Metal>
0.0000

> <Gold.Chemscore.Hbonds>
donor molecule, donor type, donor heavy atom, donor atom, acceptor molecule, acceptor atom, score
      L1  H    12    25       P1  7957  1.00
      L1  H    12    26       P1  7948  1.00
      P1  H  6896  6908       L1     6  2.00
      P1  H  6931  6943       L1     5  0.56
      P1  H  6934  6947       L1     5  0.96
      P1  H  7989  7998       L1    13  1.00

> <Gold.PLP.Chemscore.Internal.Correction>
0.0702

> <Gold.Rescore>
     Score         DG    S(hbond)    S(metal)    S(lipo)     H(rot)  DE(clash)    DE(int)     intcor
     20.13     -22.11       5.36        0.00      30.78       1.90       0.03       1.95       ----

> <Gold.Chemscore.Fitness>
20.1255

> <Gold.Chemscore.DG>
-22.1084

> <Gold.Chemscore.ZeroCoef>
-5.4800

> <Gold.Chemscore.Hbond>
5.3575

> <Gold.Chemscore.Metal>
0.0000

> <Gold.Chemscore.Lipo>
30.7824

> <Gold.Chemscore.Internal_Hbond>
0.0000

> <Gold.Chemscore.DEClash>
0.0291

> <Gold.Chemscore.DEInternal>
1.9537

> <Gold.Chemscore.Rot>
1.9012

> <Gold.Chemscore.Internal.Correction>
   9.000000E+99

> <Gold.Chemscore.Hbonds>
donor molecule, donor type, donor heavy atom, donor atom, acceptor molecule, acceptor atom, score
      L1  H    12    25       P1  7957  0.94
      L1  H    12    26       P1  7948  0.91
      P1  H  6896  6908       L1     6  0.72
      P1  H  6931  6943       L1     5  0.46
      P1  H  6934  6947       L1     5  0.88
      P1  H  7989  7998       L1    13  0.99

> <Gold.Chemscore.Hbond.Weighted>
-17.8940

> <Gold.Chemscore.Metal.Weighted>
-0.0000

> <Gold.Chemscore.Lipo.Weighted>
-3.6015

> <Gold.Chemscore.Internal_Hbond.Weighted>
0.0000

> <Gold.Chemscore.DEClash.Weighted>
0.0291

> <Gold.Chemscore.DEInternal.Weighted>
1.9537

> <Gold.Chemscore.Rot.Weighted>
4.8671

> <Gold.Chemscore.Internal.Correction.Weighted>
   9.000000E+99

> <Gold.Protein.RotatedTorsions>
[ 6907 6896 6895 6894 ] final -179.59 input  -60.11 | X-H torsion
[ 7974 7965 7964 7962 ] final  -78.45 input  175.53 | X-H torsion
[ 8008 7997 7996 7995 ] final  -58.02 input   59.86 | X-H torsion
[ 10167 10162 10161 10158 ] final   54.17 input  -65.29 | X-H torsion
[ 10718 10713 10712 10709 ] final -166.02 input   66.30 | X-H torsion
[ 10763 10752 10751 10750 ] final   71.26 input  -60.55 | X-H torsion
[ 11005 11000 10999 10996 ] final -125.10 input  -57.11 | X-H torsion

> <Gold.Protein.ActiveResidues>
 VAL166  LYS551  ARG553  GLY616  TRP617  ASP618  TYR619  PRO620  LYS621  CYS622 
 ASP623  PHE694  ASN695  SER759  ASP760  ASP761  ALA762  ILE779  LEU786  VAL792 
 PHE793  MET794  SER795  GLU796  ALA797  LYS798  CYS799  TRP800  GLU811  SER814 

> <Gold.Protein.RotatedAtoms>
  151.6560  133.3319  159.3162 H   0  0  0  0  0  0  0  0  0  0  0  0  # atno 6907 bound_to 6896
  150.7937  134.6984  159.6545 H   0  0  0  0  0  0  0  0  0  0  0  0  # atno 6908 bound_to 6896
  152.4021  134.6273  160.0118 H   0  0  0  0  0  0  0  0  0  0  0  0  # atno 6909 bound_to 6896
  145.5863  140.9438  143.1317 H   0  0  0  0  0  0  0  0  0  0  0  0  # atno 7974 bound_to 7965
  154.4291  140.1093  156.5890 H   0  0  0  0  0  0  0  0  0  0  0  0  # atno 8008 bound_to 7997
  155.6032  140.3493  155.4581 H   0  0  0  0  0  0  0  0  0  0  0  0  # atno 8009 bound_to 7997
  156.0157  140.1228  157.0398 H   0  0  0  0  0  0  0  0  0  0  0  0  # atno 8010 bound_to 7997
  140.2330  144.3667  150.6407 H   0  0  0  0  0  0  0  0  0  0  0  0  # atno 10167 bound_to 10162
  156.6619  130.9049  151.3030 H   0  0  0  0  0  0  0  0  0  0  0  0  # atno 10718 bound_to 10713
  153.0389  135.5143  154.7566 H   0  0  0  0  0  0  0  0  0  0  0  0  # atno 10763 bound_to 10752
  154.6520  135.2926  154.9977 H   0  0  0  0  0  0  0  0  0  0  0  0  # atno 10764 bound_to 10752
  154.0857  135.6657  153.4897 H   0  0  0  0  0  0  0  0  0  0  0  0  # atno 10765 bound_to 10752
  140.9789  134.0701  157.3787 H   0  0  0  0  0  0  0  0  0  0  0  0  # atno 11005 bound_to 11000
  144.7371  139.7553  143.7325 LP  0  0  0  0  0  0  0  0  0  0  0  0  # atno 17320 bound_to 7965
  146.1680  139.4819  142.9946 LP  0  0  0  0  0  0  0  0  0  0  0  0  # atno 17321 bound_to 7965
  140.6171  143.2173  151.6769 LP  0  0  0  0  0  0  0  0  0  0  0  0  # atno 17342 bound_to 10162
  139.5103  144.3546  152.0620 LP  0  0  0  0  0  0  0  0  0  0  0  0  # atno 17343 bound_to 10162
  157.7107  130.9437  150.1079 LP  0  0  0  0  0  0  0  0  0  0  0  0  # atno 17370 bound_to 10713
  156.2005  130.3660  149.8795 LP  0  0  0  0  0  0  0  0  0  0  0  0  # atno 17371 bound_to 10713
  139.8942  135.0134  156.6938 LP  0  0  0  0  0  0  0  0  0  0  0  0  # atno 17394 bound_to 11000
  140.7217  133.9135  155.8151 LP  0  0  0  0  0  0  0  0  0  0  0  0  # atno 17395 bound_to 11000

$$$$
