AV-unprocessed.smi:1261|AV-procd|sdf|5301|dock9
  -GOLD-   22720 4423D 1   1.00000     0.00000
 Structure written by MMmdl.
 49 50  0  0  0  0  0  0  0  0  3 V2000
  152.8863  144.8834  158.2639 C   0  0  0  0  0  0  0  0  0  0  0  0
  151.8327  144.1829  159.1396 C   0  0  2  0  0  0  0  0  0  0  0  0
  152.4544  143.3219  160.2549 C   0  0  0  0  0  0  0  0  0  0  0  0
  153.0589  142.0200  159.6996 C   0  0  1  0  0  0  0  0  0  0  0  0
  153.6168  141.1379  160.8259 C   0  0  0  0  0  0  0  0  0  0  0  0
  152.0132  141.2634  158.8580 C   0  0  0  0  0  0  0  0  0  0  0  0
  151.4726  142.1156  157.7675 N   0  3  1  0  0  0  0  0  0  0  0  0
  150.5877  141.3559  156.8481 C   0  0  0  0  0  0  0  0  0  0  0  0
  149.1440  141.2555  157.3690 C   0  0  0  0  0  0  0  0  0  0  0  0
  148.4482  139.9653  156.9057 C   0  0  0  0  0  0  0  0  0  0  0  0
  148.9831  138.7921  157.5852 N   0  0  0  0  0  0  0  0  0  0  0  0
  148.2890  137.9929  158.4096 C   0  0  0  0  0  0  0  0  0  0  0  0
  147.0964  138.1571  158.6685 O   0  0  0  0  0  0  0  0  0  0  0  0
  149.0596  136.8187  159.0220 C   0  0  0  0  0  0  0  0  0  0  0  0
  148.3007  136.1681  160.0972 N   0  0  0  0  0  0  0  0  0  0  0  0
  147.8248  137.0952  161.1211 N   0  5  0  0  0  0  0  0  0  0  0  0
  147.0862  136.6161  162.1569 C   0  0  0  0  0  0  0  0  0  0  0  0
  146.6410  137.3368  163.0471 O   0  0  0  0  0  0  0  0  0  0  0  0
  146.8190  135.1882  162.2039 C   0  0  0  0  0  0  0  0  0  0  0  0
  147.2795  134.3544  161.2505 C   0  0  0  0  0  0  0  0  0  0  0  0
  148.0661  134.8249  160.1166 C   0  0  0  0  0  0  0  0  0  0  0  0
  148.4858  134.0686  159.2408 O   0  0  0  0  0  0  0  0  0  0  0  0
  150.8403  143.3514  158.3029 C   0  0  0  0  0  0  0  0  0  0  0  0
  153.4881  144.1716  157.6990 H   0  0  0  0  0  0  0  0  0  0  0  0
  153.5646  145.4833  158.8714 H   0  0  0  0  0  0  0  0  0  0  0  0
  152.4124  145.5537  157.5463 H   0  0  0  0  0  0  0  0  0  0  0  0
  151.2640  144.9770  159.6255 H   0  0  0  0  0  0  0  0  0  0  0  0
  153.2107  143.8928  160.7948 H   0  0  0  0  0  0  0  0  0  0  0  0
  151.6820  143.0759  160.9851 H   0  0  0  0  0  0  0  0  0  0  0  0
  153.8954  142.2779  159.0489 H   0  0  0  0  0  0  0  0  0  0  0  0
  152.8314  140.8328  161.5183 H   0  0  0  0  0  0  0  0  0  0  0  0
  154.3779  141.6676  161.3995 H   0  0  0  0  0  0  0  0  0  0  0  0
  154.0772  140.2339  160.4260 H   0  0  0  0  0  0  0  0  0  0  0  0
  152.4781  140.3746  158.4292 H   0  0  0  0  0  0  0  0  0  0  0  0
  151.1926  140.9179  159.4894 H   0  0  0  0  0  0  0  0  0  0  0  0
  150.5581  141.8612  155.8817 H   0  0  0  0  0  0  0  0  0  0  0  0
  151.0046  140.3645  156.6641 H   0  0  0  0  0  0  0  0  0  0  0  0
  149.1331  141.2936  158.4581 H   0  0  0  0  0  0  0  0  0  0  0  0
  148.5718  142.1177  157.0239 H   0  0  0  0  0  0  0  0  0  0  0  0
  147.3804  140.0194  157.1196 H   0  0  0  0  0  0  0  0  0  0  0  0
  148.5425  139.8441  155.8253 H   0  0  0  0  0  0  0  0  0  0  0  0
  149.9624  138.5850  157.4478 H   0  0  0  0  0  0  0  0  0  0  0  0
  149.3011  136.0999  158.2371 H   0  0  0  0  0  0  0  0  0  0  0  0
  150.0230  137.1738  159.3935 H   0  0  0  0  0  0  0  0  0  0  0  0
  146.2398  134.7868  163.0225 H   0  0  0  0  0  0  0  0  0  0  0  0
  147.0576  133.3004  161.3266 H   0  0  0  0  0  0  0  0  0  0  0  0
  149.9827  143.0734  158.9177 H   0  0  0  0  0  0  0  0  0  0  0  0
  150.4514  143.9685  157.4938 H   0  0  0  0  0  0  0  0  0  0  0  0
  152.2692  142.4068  157.2189 H   0  0  0  0  0  0  0  0  0  0  0  0
  1  2  1  0  0  0  0
  1 24  1  0  0  0  0
  1 25  1  0  0  0  0
  1 26  1  0  0  0  0
  2 23  1  0  0  0  0
  2  3  1  0  0  0  0
  2 27  1  0  0  0  0
  3  4  1  0  0  0  0
  3 28  1  0  0  0  0
  3 29  1  0  0  0  0
  4  5  1  0  0  0  0
  4  6  1  0  0  0  0
  4 30  1  0  0  0  0
  5 31  1  0  0  0  0
  5 32  1  0  0  0  0
  5 33  1  0  0  0  0
  6  7  1  0  0  0  0
  6 34  1  0  0  0  0
  6 35  1  0  0  0  0
  7  8  1  0  0  0  0
  7 23  1  0  0  0  0
  7 49  1  0  0  0  0
  8  9  1  0  0  0  0
  8 36  1  0  0  0  0
  8 37  1  0  0  0  0
  9 10  1  0  0  0  0
  9 38  1  0  0  0  0
  9 39  1  0  0  0  0
 10 11  1  0  0  0  0
 10 40  1  0  0  0  0
 10 41  1  0  0  0  0
 11 12  1  0  0  0  0
 11 42  1  0  0  0  0
 12 13  2  0  0  0  0
 12 14  1  0  0  0  0
 14 43  1  0  0  0  0
 14 44  1  0  0  0  0
 14 15  1  0  0  0  0
 15 16  1  0  0  0  0
 15 21  1  0  0  0  0
 16 17  1  0  0  0  0
 17 18  2  0  0  0  0
 17 19  1  0  0  0  0
 19 45  1  0  0  0  0
 19 20  2  0  0  0  0
 20 46  1  0  0  0  0
 20 21  1  0  0  0  0
 21 22  2  0  0  0  0
 23 47  1  0  0  0  0
 23 48  1  0  0  0  0
M  CHG  1   7   1
M  CHG  1  16  -1
M  END
> <s_m_source_file>
AV-unprocessed.smi

> <i_m_source_file_index>
1261

> <i_lp_mmshare_version>
43012

> <i_f3d_flags>
0

> <s_epik_input>
W0NIM11bQ0BASF0xW0NIMl1bQ0BASF0oW0NIM10pW0NIMl1OKFtDSDJdMSlbQ0gyXVtDSDJdW0NIMl1bTkhdQyg9TylbQ0gyXW4yW25IXWMoPU8pW2NIXVtjSF1jMj1P

> <s_epik_cmdline>
J2VwaWtfcHl0aG9uJywgJy1waCcsICc3LjAnLCAnLXRuJywgJzgnLCAnLW1hJywgJzIwMCcsICctbWV0YWxfYmluZGluZycsICctaW1hZScsICc8aW5maWxlLm1hZT4nLCAnLW9tYWUnLCAnPG91dGZpbGUubWFlPic=

> <r_lp_tautomer_probability>
1

> <r_epik_Ionization_Penalty>
0.0955723

> <r_epik_Ionization_Penalty_Charging>
0.0955723

> <r_epik_Ionization_Penalty_Neutral>
2.68632e-08

> <r_epik_State_Penalty>
0.0334406

> <r_epik_Charging_Adjusted_Penalty>
0.129013

> <i_epik_Tot_Q>
0

> <i_epik_Tot_abs_Q>
2

> <r_epik_Metal_State_Penalty>
0.0334406

> <b_epik_Metal_Only>
0

> <s_lp_Force_Field>
OPLS_2005

> <r_lp_Energy>
33.9758

> <b_lp_Chiralities_Consistent>
1

> <s_lp_Variant>
AV-unprocessed.smi:1261-1

> <Gold.Version>
5.8.1

> <Gold.Id.Protein>
6NUR|6NUR_protein|mol2

> <Gold.PLP.Fitness>
58.1560

> <Gold.PLP.PLP>
-45.5118

> <Gold.PLP.part.hbond>
-3.9195

> <Gold.PLP.part.metal>
0.0000

> <Gold.PLP.part.buried>
-5.3194

> <Gold.PLP.part.nonpolar>
-36.7952

> <Gold.PLP.part.repulsive>
0.1264

> <Gold.PLP.ligand.clash>
0.0000

> <Gold.PLP.ligand.torsion>
0.5996

> <Gold.PLP.Chemscore.Hbond>
4.5840

> <Gold.PLP.Chemscore.CHOScore>
0.0000

> <Gold.PLP.Chemscore.Metal>
0.0000

> <Gold.Chemscore.Hbonds>
donor molecule, donor type, donor heavy atom, donor atom, acceptor molecule, acceptor atom, score
      P1  H  6896  6909       L1    22  0.70
      P1  H  6931  6943       L1    16  1.98
      P1  H  6934  6947       L1    16  1.62

> <Gold.PLP.Chemscore.Internal.Correction>
0.0915

> <Gold.Rescore>
     Score         DG    S(hbond)    S(metal)    S(lipo)     H(rot)  DE(clash)    DE(int)     intcor
     15.74     -17.76       1.86        0.00     106.40       2.49       0.02       2.01       ----

> <Gold.Chemscore.Fitness>
15.7386

> <Gold.Chemscore.DG>
-17.7640

> <Gold.Chemscore.ZeroCoef>
-5.4800

> <Gold.Chemscore.Hbond>
1.8619

> <Gold.Chemscore.Metal>
0.0000

> <Gold.Chemscore.Lipo>
106.4047

> <Gold.Chemscore.Internal_Hbond>
0.0000

> <Gold.Chemscore.DEClash>
0.0174

> <Gold.Chemscore.DEInternal>
2.0080

> <Gold.Chemscore.Rot>
2.4938

> <Gold.Chemscore.Internal.Correction>
   9.000000E+99

> <Gold.Chemscore.Hbonds>
donor molecule, donor type, donor heavy atom, donor atom, acceptor molecule, acceptor atom, score
      P1  H  6896  6909       L1    22  0.33
      P1  H  6931  6943       L1    16  0.46
      P1  H  6934  6947       L1    16  0.34

> <Gold.Chemscore.Hbond.Weighted>
-6.2187

> <Gold.Chemscore.Metal.Weighted>
-0.0000

> <Gold.Chemscore.Lipo.Weighted>
-12.4494

> <Gold.Chemscore.Internal_Hbond.Weighted>
0.0000

> <Gold.Chemscore.DEClash.Weighted>
0.0174

> <Gold.Chemscore.DEInternal.Weighted>
2.0080

> <Gold.Chemscore.Rot.Weighted>
6.3840

> <Gold.Chemscore.Internal.Correction.Weighted>
   9.000000E+99

> <Gold.Protein.RotatedTorsions>
[ 6907 6896 6895 6894 ] final   22.68 input  -60.11 | X-H torsion
[ 7974 7965 7964 7962 ] final    9.12 input  175.53 | X-H torsion
[ 8008 7997 7996 7995 ] final   25.27 input   59.86 | X-H torsion
[ 10167 10162 10161 10158 ] final  -19.59 input  -65.29 | X-H torsion
[ 10718 10713 10712 10709 ] final  164.56 input   66.30 | X-H torsion
[ 10763 10752 10751 10750 ] final   38.19 input  -60.55 | X-H torsion
[ 11005 11000 10999 10996 ] final  -46.67 input  -57.11 | X-H torsion

> <Gold.Protein.ActiveResidues>
 VAL166  LYS551  ARG553  GLY616  TRP617  ASP618  TYR619  PRO620  LYS621  CYS622 
 ASP623  PHE694  ASN695  SER759  ASP760  ASP761  ALA762  ILE779  LEU786  VAL792 
 PHE793  MET794  SER795  GLU796  ALA797  LYS798  CYS799  TRP800  GLU811  SER814 

> <Gold.Protein.RotatedAtoms>
  151.9309  135.0257  160.0528 H   0  0  0  0  0  0  0  0  0  0  0  0  # atno 6907 bound_to 6896
  152.2120  133.4913  159.5123 H   0  0  0  0  0  0  0  0  0  0  0  0  # atno 6908 bound_to 6896
  150.6978  134.1372  159.4134 H   0  0  0  0  0  0  0  0  0  0  0  0  # atno 6909 bound_to 6896
  146.2408  139.9831  142.8434 H   0  0  0  0  0  0  0  0  0  0  0  0  # atno 7974 bound_to 7965
  155.0091  140.3134  155.4837 H   0  0  0  0  0  0  0  0  0  0  0  0  # atno 8008 bound_to 7997
  156.2912  140.2218  156.5146 H   0  0  0  0  0  0  0  0  0  0  0  0  # atno 8009 bound_to 7997
  154.7550  140.0463  157.0914 H   0  0  0  0  0  0  0  0  0  0  0  0  # atno 8010 bound_to 7997
  140.7269  143.4804  151.0125 H   0  0  0  0  0  0  0  0  0  0  0  0  # atno 10167 bound_to 10162
  157.0926  131.0422  151.2531 H   0  0  0  0  0  0  0  0  0  0  0  0  # atno 10718 bound_to 10713
  153.0010  135.6256  154.2265 H   0  0  0  0  0  0  0  0  0  0  0  0  # atno 10763 bound_to 10752
  154.2008  135.2804  155.2993 H   0  0  0  0  0  0  0  0  0  0  0  0  # atno 10764 bound_to 10752
  154.5685  135.5683  153.7132 H   0  0  0  0  0  0  0  0  0  0  0  0  # atno 10765 bound_to 10752
  141.0593  133.6714  156.3188 H   0  0  0  0  0  0  0  0  0  0  0  0  # atno 11005 bound_to 11000
  145.1573  140.9654  143.4398 LP  0  0  0  0  0  0  0  0  0  0  0  0  # atno 17320 bound_to 7965
  145.0149  139.3476  143.6101 LP  0  0  0  0  0  0  0  0  0  0  0  0  # atno 17321 bound_to 7965
  139.8502  143.7448  152.3178 LP  0  0  0  0  0  0  0  0  0  0  0  0  # atno 17342 bound_to 10162
  139.7627  144.7501  151.0339 LP  0  0  0  0  0  0  0  0  0  0  0  0  # atno 17343 bound_to 10162
  157.4708  130.7707  149.7322 LP  0  0  0  0  0  0  0  0  0  0  0  0  # atno 17370 bound_to 10713
  155.9894  130.3952  150.3075 LP  0  0  0  0  0  0  0  0  0  0  0  0  # atno 17371 bound_to 10713
  140.5900  134.5660  157.5497 LP  0  0  0  0  0  0  0  0  0  0  0  0  # atno 17394 bound_to 11000
  139.9418  134.7773  156.0659 LP  0  0  0  0  0  0  0  0  0  0  0  0  # atno 17395 bound_to 11000

$$$$
