AV-unprocessed.smi:1352|AV-procd|sdf|5530|dock1
  -GOLD-   22720 5123D 1   1.00000     0.00000
 Structure written by MMmdl.
 47 48  0  0  0  0  0  0  0  0  2 V2000
  146.8122  129.5717  152.5652 C   0  0  0  0  0  0  0  0  0  0  0  0
  145.7418  130.6715  152.6059 C   0  0  2  0  0  0  0  0  0  0  0  0
  145.3298  131.1067  151.1898 C   0  0  0  0  0  0  0  0  0  0  0  0
  144.2727  132.2217  151.2518 C   0  0  2  0  0  0  0  0  0  0  0  0
  143.8633  132.6851  149.8465 C   0  0  0  0  0  0  0  0  0  0  0  0
  144.7870  133.3967  152.1057 C   0  0  0  0  0  0  0  0  0  0  0  0
  145.1734  132.9495  153.4691 N   0  3  2  0  0  0  0  0  0  0  0  0
  145.5363  134.0883  154.3503 C   0  0  0  0  0  0  0  0  0  0  0  0
  145.3177  133.7697  155.8421 C   0  0  0  0  0  0  0  0  0  0  0  0
  146.3543  134.3669  156.6758 N   0  0  0  0  0  0  0  0  0  0  0  0
  146.2722  134.5316  158.0047 C   0  0  0  0  0  0  0  0  0  0  0  0
  145.2811  134.2083  158.6611 O   0  0  0  0  0  0  0  0  0  0  0  0
  147.4898  135.1794  158.6796 C   0  0  0  0  0  0  0  0  0  0  0  0
  147.4511  135.1059  160.1498 N   0  0  0  0  0  0  0  0  0  0  0  0
  147.1197  133.8616  160.7220 C   0  0  0  0  0  0  0  0  0  0  0  0
  147.0570  133.6854  162.0514 C   0  0  0  0  0  0  0  0  0  0  0  0
  147.3394  134.8158  162.9038 C   0  0  0  0  0  0  0  0  0  0  0  0
  147.6607  136.0098  162.3669 C   0  0  0  0  0  0  0  0  0  0  0  0
  147.7340  136.2060  160.9143 C   0  0  0  0  0  0  0  0  0  0  0  0
  148.0318  137.2913  160.4146 O   0  0  0  0  0  0  0  0  0  0  0  0
  146.2164  131.8904  153.4205 C   0  0  0  0  0  0  0  0  0  0  0  0
  147.7243  129.9232  152.0818 H   0  0  0  0  0  0  0  0  0  0  0  0
  146.4583  128.6995  152.0144 H   0  0  0  0  0  0  0  0  0  0  0  0
  147.0744  129.2407  153.5705 H   0  0  0  0  0  0  0  0  0  0  0  0
  144.8631  130.2551  153.1012 H   0  0  0  0  0  0  0  0  0  0  0  0
  146.2053  131.4562  150.6403 H   0  0  0  0  0  0  0  0  0  0  0  0
  144.9368  130.2521  150.6375 H   0  0  0  0  0  0  0  0  0  0  0  0
  143.3823  131.8171  151.7358 H   0  0  0  0  0  0  0  0  0  0  0  0
  144.7107  133.1066  149.3047 H   0  0  0  0  0  0  0  0  0  0  0  0
  143.0861  133.4485  149.8947 H   0  0  0  0  0  0  0  0  0  0  0  0
  143.4718  131.8548  149.2576 H   0  0  0  0  0  0  0  0  0  0  0  0
  145.6426  133.8727  151.6236 H   0  0  0  0  0  0  0  0  0  0  0  0
  144.0040  134.1528  152.1793 H   0  0  0  0  0  0  0  0  0  0  0  0
  146.5685  134.3887  154.1634 H   0  0  0  0  0  0  0  0  0  0  0  0
  144.9164  134.9476  154.0905 H   0  0  0  0  0  0  0  0  0  0  0  0
  144.3346  134.1157  156.1665 H   0  0  0  0  0  0  0  0  0  0  0  0
  145.3416  132.6953  156.0196 H   0  0  0  0  0  0  0  0  0  0  0  0
  147.2020  134.6626  156.2128 H   0  0  0  0  0  0  0  0  0  0  0  0
  148.4028  134.7105  158.3068 H   0  0  0  0  0  0  0  0  0  0  0  0
  147.5484  136.2178  158.3497 H   0  0  0  0  0  0  0  0  0  0  0  0
  146.9288  133.0658  160.0166 H   0  0  0  0  0  0  0  0  0  0  0  0
  146.8049  132.7229  162.4721 H   0  0  0  0  0  0  0  0  0  0  0  0
  147.2938  134.7031  163.9771 H   0  0  0  0  0  0  0  0  0  0  0  0
  147.8698  136.8442  163.0202 H   0  0  0  0  0  0  0  0  0  0  0  0
  146.4657  131.5640  154.4295 H   0  0  0  0  0  0  0  0  0  0  0  0
  147.1307  132.3011  152.9884 H   0  0  0  0  0  0  0  0  0  0  0  0
  144.3457  132.5320  153.8703 H   0  0  0  0  0  0  0  0  0  0  0  0
  1  2  1  0  0  0  0
  1 22  1  0  0  0  0
  1 23  1  0  0  0  0
  1 24  1  0  0  0  0
  2 21  1  0  0  0  0
  2  3  1  0  0  0  0
  2 25  1  0  0  0  0
  3  4  1  0  0  0  0
  3 26  1  0  0  0  0
  3 27  1  0  0  0  0
  4  5  1  0  0  0  0
  4  6  1  0  0  0  0
  4 28  1  0  0  0  0
  5 29  1  0  0  0  0
  5 30  1  0  0  0  0
  5 31  1  0  0  0  0
  6  7  1  0  0  0  0
  6 32  1  0  0  0  0
  6 33  1  0  0  0  0
  7  8  1  0  0  0  0
  7 21  1  0  0  0  0
  7 47  1  0  0  0  0
  8  9  1  0  0  0  0
  8 34  1  0  0  0  0
  8 35  1  0  0  0  0
  9 10  1  0  0  0  0
  9 36  1  0  0  0  0
  9 37  1  0  0  0  0
 10 11  1  0  0  0  0
 10 38  1  0  0  0  0
 11 12  2  0  0  0  0
 11 13  1  0  0  0  0
 13 14  1  0  0  0  0
 13 39  1  0  0  0  0
 13 40  1  0  0  0  0
 14 19  1  0  0  0  0
 14 15  1  0  0  0  0
 15 16  2  0  0  0  0
 15 41  1  0  0  0  0
 16 17  1  0  0  0  0
 16 42  1  0  0  0  0
 17 18  2  0  0  0  0
 17 43  1  0  0  0  0
 18 19  1  0  0  0  0
 18 44  1  0  0  0  0
 19 20  2  0  0  0  0
 21 45  1  0  0  0  0
 21 46  1  0  0  0  0
M  CHG  1   7   1
M  END
> <s_m_source_file>
AV-unprocessed.smi

> <i_m_source_file_index>
1352

> <i_lp_mmshare_version>
43012

> <i_f3d_flags>
0

> <s_epik_input>
W0NIM11bQ0BASF0xW0NIMl1bQ0BASF0oW0NIM10pW0NIMl1OKFtDSDJdMSlbQ0gyXVtDSDJdW05IXUMoPU8pW0NIMl1uMltjSF1bY0hdW2NIXVtjSF1jMj1P

> <s_epik_cmdline>
J2VwaWtfcHl0aG9uJywgJy1waCcsICc3LjAnLCAnLXRuJywgJzgnLCAnLW1hJywgJzIwMCcsICctbWV0YWxfYmluZGluZycsICctaW1hZScsICc8aW5maWxlLm1hZT4nLCAnLW9tYWUnLCAnPG91dGZpbGUubWFlPic=

> <r_lp_tautomer_probability>
1

> <r_epik_Ionization_Penalty>
0.00156146

> <r_epik_Ionization_Penalty_Charging>
0.00156138

> <r_epik_Ionization_Penalty_Neutral>
8.12891e-08

> <r_epik_State_Penalty>
0.00104868

> <r_epik_Charging_Adjusted_Penalty>
0.00261006

> <i_epik_Tot_Q>
1

> <i_epik_Tot_abs_Q>
1

> <r_epik_Metal_State_Penalty>
-0

> <b_epik_Metal_Only>
0

> <s_lp_Force_Field>
OPLS_2005

> <r_lp_Energy>
25.1883

> <b_lp_Chiralities_Consistent>
1

> <s_lp_Variant>
AV-unprocessed.smi:1352-3

> <Gold.Version>
5.8.1

> <Gold.Id.Protein>
6NUR|6NUR_protein|mol2

> <Gold.PLP.Fitness>
46.2975

> <Gold.PLP.PLP>
-37.6370

> <Gold.PLP.part.hbond>
-2.9738

> <Gold.PLP.part.metal>
0.0000

> <Gold.PLP.part.buried>
-5.1381

> <Gold.PLP.part.nonpolar>
-30.2878

> <Gold.PLP.part.repulsive>
0.0000

> <Gold.PLP.ligand.clash>
0.0000

> <Gold.PLP.ligand.torsion>
0.8675

> <Gold.PLP.Chemscore.Hbond>
3.4560

> <Gold.PLP.Chemscore.CHOScore>
0.0000

> <Gold.PLP.Chemscore.Metal>
0.0000

> <Gold.Chemscore.Hbonds>
donor molecule, donor type, donor heavy atom, donor atom, acceptor molecule, acceptor atom, score
      L1  H     7    47       P1 10957  1.92
      P1  H  6931  6943       L1    20  0.69
      P1  H  6934  6947       L1    20  0.72

> <Gold.PLP.Chemscore.Internal.Correction>
0.0276

> <Gold.Rescore>
     Score         DG    S(hbond)    S(metal)    S(lipo)     H(rot)  DE(clash)    DE(int)     intcor
     17.27     -19.55       2.61        0.00      85.80       1.83       0.07       2.21       ----

> <Gold.Chemscore.Fitness>
17.2720

> <Gold.Chemscore.DG>
-19.5495

> <Gold.Chemscore.ZeroCoef>
-5.4800

> <Gold.Chemscore.Hbond>
2.6119

> <Gold.Chemscore.Metal>
0.0000

> <Gold.Chemscore.Lipo>
85.7950

> <Gold.Chemscore.Internal_Hbond>
0.0000

> <Gold.Chemscore.DEClash>
0.0698

> <Gold.Chemscore.DEInternal>
2.2077

> <Gold.Chemscore.Rot>
1.8329

> <Gold.Chemscore.Internal.Correction>
   9.000000E+99

> <Gold.Chemscore.Hbonds>
donor molecule, donor type, donor heavy atom, donor atom, acceptor molecule, acceptor atom, score
      L1  H     7    47       P1 10957  0.46
      P1  H  6931  6943       L1    20  0.32
      P1  H  6934  6947       L1    20  0.70

> <Gold.Chemscore.Hbond.Weighted>
-8.7237

> <Gold.Chemscore.Metal.Weighted>
-0.0000

> <Gold.Chemscore.Lipo.Weighted>
-10.0380

> <Gold.Chemscore.Internal_Hbond.Weighted>
0.0000

> <Gold.Chemscore.DEClash.Weighted>
0.0698

> <Gold.Chemscore.DEInternal.Weighted>
2.2077

> <Gold.Chemscore.Rot.Weighted>
4.6922

> <Gold.Chemscore.Internal.Correction.Weighted>
   9.000000E+99

> <Gold.Protein.RotatedTorsions>
[ 6907 6896 6895 6894 ] final -173.49 input  -60.11 | X-H torsion
[ 7974 7965 7964 7962 ] final  -17.34 input  175.53 | X-H torsion
[ 8008 7997 7996 7995 ] final   67.77 input   59.86 | X-H torsion
[ 10167 10162 10161 10158 ] final  144.91 input  -65.29 | X-H torsion
[ 10718 10713 10712 10709 ] final   64.86 input   66.30 | X-H torsion
[ 10763 10752 10751 10750 ] final  156.15 input  -60.55 | X-H torsion
[ 11005 11000 10999 10996 ] final   90.77 input  -57.11 | X-H torsion

> <Gold.Protein.ActiveResidues>
 VAL166  LYS551  ARG553  GLY616  TRP617  ASP618  TYR619  PRO620  LYS621  CYS622 
 ASP623  PHE694  ASN695  SER759  ASP760  ASP761  ALA762  ILE779  LEU786  VAL792 
 PHE793  MET794  SER795  GLU796  ALA797  LYS798  CYS799  TRP800  GLU811  SER814 

> <Gold.Protein.RotatedAtoms>
  151.5570  133.3409  159.2963 H   0  0  0  0  0  0  0  0  0  0  0  0  # atno 6907 bound_to 6896
  150.8445  134.7752  159.6970 H   0  0  0  0  0  0  0  0  0  0  0  0  # atno 6908 bound_to 6896
  152.4506  134.5410  159.9890 H   0  0  0  0  0  0  0  0  0  0  0  0  # atno 6909 bound_to 6896
  146.1945  140.3765  142.8445 H   0  0  0  0  0  0  0  0  0  0  0  0  # atno 7974 bound_to 7965
  155.6979  140.3495  155.4921 H   0  0  0  0  0  0  0  0  0  0  0  0  # atno 8008 bound_to 7997
  155.9466  140.1111  157.1034 H   0  0  0  0  0  0  0  0  0  0  0  0  # atno 8009 bound_to 7997
  154.4113  140.1202  156.4983 H   0  0  0  0  0  0  0  0  0  0  0  0  # atno 8010 bound_to 7997
  139.4937  144.5939  151.6624 H   0  0  0  0  0  0  0  0  0  0  0  0  # atno 10167 bound_to 10162
  157.6068  130.9183  149.9901 H   0  0  0  0  0  0  0  0  0  0  0  0  # atno 10718 bound_to 10713
  154.1797  135.2800  155.3056 H   0  0  0  0  0  0  0  0  0  0  0  0  # atno 10763 bound_to 10752
  154.6012  135.5529  153.7379 H   0  0  0  0  0  0  0  0  0  0  0  0  # atno 10764 bound_to 10752
  153.0141  135.6392  154.1936 H   0  0  0  0  0  0  0  0  0  0  0  0  # atno 10765 bound_to 10752
  139.8850  134.8634  156.3332 H   0  0  0  0  0  0  0  0  0  0  0  0  # atno 11005 bound_to 11000
  144.8553  140.7061  143.6142 LP  0  0  0  0  0  0  0  0  0  0  0  0  # atno 17320 bound_to 7965
  145.3686  139.1664  143.4344 LP  0  0  0  0  0  0  0  0  0  0  0  0  # atno 17321 bound_to 7965
  140.5572  144.0328  150.6153 LP  0  0  0  0  0  0  0  0  0  0  0  0  # atno 17342 bound_to 10162
  140.3402  143.3024  152.0596 LP  0  0  0  0  0  0  0  0  0  0  0  0  # atno 17343 bound_to 10162
  156.1156  130.3648  149.9973 LP  0  0  0  0  0  0  0  0  0  0  0  0  # atno 17370 bound_to 10713
  156.8063  130.9309  151.3645 LP  0  0  0  0  0  0  0  0  0  0  0  0  # atno 17371 bound_to 10713
  140.9708  133.7328  156.0532 LP  0  0  0  0  0  0  0  0  0  0  0  0  # atno 17394 bound_to 11000
  140.7873  134.3658  157.5473 LP  0  0  0  0  0  0  0  0  0  0  0  0  # atno 17395 bound_to 11000

$$$$
