AV-unprocessed.smi:1416|AV-procd|sdf|5764|dock8
  -GOLD-   22720 5403D 1   1.00000     0.00000
 Structure written by MMmdl.
 44 45  0  0  0  0  0  0  0  0  1 V2000
  153.0365  136.6816  164.3198 C   0  0  0  0  0  0  0  0  0  0  0  0
  154.3673  136.3955  163.6189 C   0  0  0  0  0  0  0  0  0  0  0  0
  154.1967  136.4557  161.8154 S   0  0  0  0  0  0  0  0  0  0  0  0
  153.5962  138.1594  161.6261 C   0  0  0  0  0  0  0  0  0  0  0  0
  154.6653  139.2029  161.9991 C   0  0  0  0  0  0  0  0  0  0  0  0
  154.4631  140.5633  161.3216 C   0  0  0  0  0  0  0  0  0  0  0  0
  155.3094  141.0093  160.5462 O   0  0  0  0  0  0  0  0  0  0  0  0
  153.3283  141.2115  161.6210 N   0  0  0  0  0  0  0  0  0  0  0  0
  152.9494  142.5124  161.0829 C   0  0  0  0  0  0  0  0  0  0  0  0
  152.4528  142.4438  159.6480 C   0  0  0  0  0  0  0  0  0  0  0  0
  151.9139  143.5746  158.9994 C   0  0  0  0  0  0  0  0  0  0  0  0
  151.4578  143.4324  157.6761 C   0  0  0  0  0  0  0  0  0  0  0  0
  151.5117  142.2687  156.9955 N   0  0  0  0  0  0  0  0  0  0  0  0
  152.0290  141.1741  157.6067 C   0  0  0  0  0  0  0  0  0  0  0  0
  152.0820  139.9642  156.8805 N   0  0  0  0  0  0  0  0  0  0  0  0
  152.4569  138.7809  157.6512 C   0  0  0  0  0  0  0  0  0  0  0  0
  152.1854  137.5031  156.8385 C   0  0  0  0  0  0  0  0  0  0  0  0
  152.8518  137.5785  155.5826 O   0  0  0  0  0  0  0  0  0  0  0  0
  152.3872  138.6752  154.8026 C   0  0  0  0  0  0  0  0  0  0  0  0
  152.6705  139.9935  155.5423 C   0  0  0  0  0  0  0  0  0  0  0  0
  152.5026  141.2252  158.9400 C   0  0  0  0  0  0  0  0  0  0  0  0
  153.1523  136.6428  165.4030 H   0  0  0  0  0  0  0  0  0  0  0  0
  152.2791  135.9491  164.0394 H   0  0  0  0  0  0  0  0  0  0  0  0
  152.6602  137.6714  164.0601 H   0  0  0  0  0  0  0  0  0  0  0  0
  155.1160  137.1255  163.9276 H   0  0  0  0  0  0  0  0  0  0  0  0
  154.7379  135.4115  163.9072 H   0  0  0  0  0  0  0  0  0  0  0  0
  153.2430  138.3063  160.6045 H   0  0  0  0  0  0  0  0  0  0  0  0
  152.7279  138.2849  162.2733 H   0  0  0  0  0  0  0  0  0  0  0  0
  154.6429  139.3688  163.0765 H   0  0  0  0  0  0  0  0  0  0  0  0
  155.6581  138.8124  161.7694 H   0  0  0  0  0  0  0  0  0  0  0  0
  152.6835  140.7776  162.2656 H   0  0  0  0  0  0  0  0  0  0  0  0
  152.1751  142.9418  161.7203 H   0  0  0  0  0  0  0  0  0  0  0  0
  153.8023  143.1922  161.1125 H   0  0  0  0  0  0  0  0  0  0  0  0
  151.8390  144.5289  159.4997 H   0  0  0  0  0  0  0  0  0  0  0  0
  151.0359  144.2758  157.1501 H   0  0  0  0  0  0  0  0  0  0  0  0
  153.5171  138.8458  157.8997 H   0  0  0  0  0  0  0  0  0  0  0  0
  151.9142  138.7224  158.5937 H   0  0  0  0  0  0  0  0  0  0  0  0
  152.5490  136.6301  157.3808 H   0  0  0  0  0  0  0  0  0  0  0  0
  151.1142  137.3597  156.6864 H   0  0  0  0  0  0  0  0  0  0  0  0
  152.8979  138.6680  153.8398 H   0  0  0  0  0  0  0  0  0  0  0  0
  151.3210  138.5648  154.5985 H   0  0  0  0  0  0  0  0  0  0  0  0
  152.2604  140.8248  154.9674 H   0  0  0  0  0  0  0  0  0  0  0  0
  153.7469  140.1515  155.6237 H   0  0  0  0  0  0  0  0  0  0  0  0
  152.8898  140.3422  159.4264 H   0  0  0  0  0  0  0  0  0  0  0  0
  1  2  1  0  0  0  0
  1 22  1  0  0  0  0
  1 23  1  0  0  0  0
  1 24  1  0  0  0  0
  2  3  1  0  0  0  0
  2 25  1  0  0  0  0
  2 26  1  0  0  0  0
  3  4  1  0  0  0  0
  4  5  1  0  0  0  0
  4 27  1  0  0  0  0
  4 28  1  0  0  0  0
  5  6  1  0  0  0  0
  5 29  1  0  0  0  0
  5 30  1  0  0  0  0
  6  7  2  0  0  0  0
  6  8  1  0  0  0  0
  8  9  1  0  0  0  0
  8 31  1  0  0  0  0
  9 10  1  0  0  0  0
  9 32  1  0  0  0  0
  9 33  1  0  0  0  0
 10 21  1  0  0  0  0
 10 11  2  0  0  0  0
 11 12  1  0  0  0  0
 11 34  1  0  0  0  0
 12 13  2  0  0  0  0
 12 35  1  0  0  0  0
 13 14  1  0  0  0  0
 14 15  1  0  0  0  0
 14 21  2  0  0  0  0
 15 20  1  0  0  0  0
 15 16  1  0  0  0  0
 16 17  1  0  0  0  0
 16 36  1  0  0  0  0
 16 37  1  0  0  0  0
 17 18  1  0  0  0  0
 17 38  1  0  0  0  0
 17 39  1  0  0  0  0
 18 19  1  0  0  0  0
 19 20  1  0  0  0  0
 19 40  1  0  0  0  0
 19 41  1  0  0  0  0
 20 42  1  0  0  0  0
 20 43  1  0  0  0  0
 21 44  1  0  0  0  0
M  END
> <s_m_source_file>
AV-unprocessed.smi

> <i_m_source_file_index>
1416

> <i_lp_mmshare_version>
43012

> <i_f3d_flags>
0

> <s_epik_input>
W0NIM11bQ0gyXVNbQ0gyXVtDSDJdQyg9TylbTkhdW0NIMl1jMVtjSF1bY0hdbmMoW2NIXTEpTjJbQ0gyXVtDSDJdT1tDSDJdW0NIMl0y

> <s_epik_cmdline>
J2VwaWtfcHl0aG9uJywgJy1waCcsICc3LjAnLCAnLXRuJywgJzgnLCAnLW1hJywgJzIwMCcsICctbWV0YWxfYmluZGluZycsICctaW1hZScsICc8aW5maWxlLm1hZT4nLCAnLW9tYWUnLCAnPG91dGZpbGUubWFlPic=

> <r_lp_tautomer_probability>
1

> <r_epik_Ionization_Penalty>
0.00571449

> <r_epik_Ionization_Penalty_Charging>
0

> <r_epik_Ionization_Penalty_Neutral>
0.00571449

> <r_epik_State_Penalty>
0.00419227

> <r_epik_Charging_Adjusted_Penalty>
0.00419227

> <i_epik_Tot_Q>
0

> <i_epik_Tot_abs_Q>
0

> <r_epik_Metal_State_Penalty>
-0

> <b_epik_Metal_Only>
0

> <s_lp_Force_Field>
OPLS_2005

> <r_lp_Energy>
16.5768

> <b_lp_Chiralities_Consistent>
1

> <s_lp_Variant>
AV-unprocessed.smi:1416-1

> <Gold.Version>
5.8.1

> <Gold.Id.Protein>
6NUR|6NUR_protein|mol2

> <Gold.PLP.Fitness>
44.5726

> <Gold.PLP.PLP>
-42.0863

> <Gold.PLP.part.hbond>
-1.8142

> <Gold.PLP.part.metal>
0.0000

> <Gold.PLP.part.buried>
-3.8411

> <Gold.PLP.part.nonpolar>
-35.3199

> <Gold.PLP.part.repulsive>
0.1188

> <Gold.PLP.ligand.clash>
0.0000

> <Gold.PLP.ligand.torsion>
0.4636

> <Gold.PLP.Chemscore.Hbond>
0.0000

> <Gold.PLP.Chemscore.CHOScore>
1.0000

> <Gold.PLP.Chemscore.Metal>
0.0000

> <Gold.Chemscore.Hbonds>
donor molecule, donor type, donor heavy atom, donor atom, acceptor molecule, acceptor atom, score
      L1  C    12    35       P1  8028  0.77

> <Gold.PLP.Chemscore.Internal.Correction>
0.4135

> <Gold.Rescore>
     Score         DG    S(hbond)    S(metal)    S(lipo)     H(rot)  DE(clash)    DE(int)     intcor
     13.54     -14.08       0.00        0.00     114.45       1.87       0.07       0.48       ----

> <Gold.Chemscore.Fitness>
13.5399

> <Gold.Chemscore.DG>
-14.0831

> <Gold.Chemscore.ZeroCoef>
-5.4800

> <Gold.Chemscore.Hbond>
0.0002

> <Gold.Chemscore.Metal>
0.0000

> <Gold.Chemscore.Lipo>
114.4507

> <Gold.Chemscore.Internal_Hbond>
0.0000

> <Gold.Chemscore.DEClash>
0.0668

> <Gold.Chemscore.DEInternal>
0.4765

> <Gold.Chemscore.Rot>
1.8704

> <Gold.Chemscore.Internal.Correction>
   9.000000E+99

> <Gold.Chemscore.Hbond.Weighted>
-0.0005

> <Gold.Chemscore.Metal.Weighted>
-0.0000

> <Gold.Chemscore.Lipo.Weighted>
-13.3907

> <Gold.Chemscore.Internal_Hbond.Weighted>
0.0000

> <Gold.Chemscore.DEClash.Weighted>
0.0668

> <Gold.Chemscore.DEInternal.Weighted>
0.4765

> <Gold.Chemscore.Rot.Weighted>
4.7881

> <Gold.Chemscore.Internal.Correction.Weighted>
   9.000000E+99

> <Gold.Protein.RotatedTorsions>
[ 6907 6896 6895 6894 ] final  117.27 input  -60.11 | X-H torsion
[ 7974 7965 7964 7962 ] final  111.74 input  175.53 | X-H torsion
[ 8008 7997 7996 7995 ] final   91.83 input   59.86 | X-H torsion
[ 10167 10162 10161 10158 ] final -152.02 input  -65.29 | X-H torsion
[ 10718 10713 10712 10709 ] final   16.02 input   66.30 | X-H torsion
[ 10763 10752 10751 10750 ] final  138.76 input  -60.55 | X-H torsion
[ 11005 11000 10999 10996 ] final   37.63 input  -57.11 | X-H torsion

> <Gold.Protein.ActiveResidues>
 VAL166  LYS551  ARG553  GLY616  TRP617  ASP618  TYR619  PRO620  LYS621  CYS622 
 ASP623  PHE694  ASN695  SER759  ASP760  ASP761  ALA762  ILE779  LEU786  VAL792 
 PHE793  MET794  SER795  GLU796  ALA797  LYS798  CYS799  TRP800  GLU811  SER814 

> <Gold.Protein.RotatedAtoms>
  152.4623  133.7849  159.6870 H   0  0  0  0  0  0  0  0  0  0  0  0  # atno 6907 bound_to 6896
  150.8572  133.7687  159.3011 H   0  0  0  0  0  0  0  0  0  0  0  0  # atno 6908 bound_to 6896
  151.5264  135.1071  159.9943 H   0  0  0  0  0  0  0  0  0  0  0  0  # atno 6909 bound_to 6896
  145.2383  139.2789  143.4131 H   0  0  0  0  0  0  0  0  0  0  0  0  # atno 7974 bound_to 7965
  156.0283  140.3333  155.7112 H   0  0  0  0  0  0  0  0  0  0  0  0  # atno 8008 bound_to 7997
  155.5922  140.0647  157.2773 H   0  0  0  0  0  0  0  0  0  0  0  0  # atno 8009 bound_to 7997
  154.4343  140.1825  156.1074 H   0  0  0  0  0  0  0  0  0  0  0  0  # atno 8010 bound_to 7997
  139.7217  143.8946  152.2505 H   0  0  0  0  0  0  0  0  0  0  0  0  # atno 10167 bound_to 10162
  157.0618  130.6312  149.5787 H   0  0  0  0  0  0  0  0  0  0  0  0  # atno 10718 bound_to 10713
  153.8949  135.3029  155.3448 H   0  0  0  0  0  0  0  0  0  0  0  0  # atno 10763 bound_to 10752
  154.7698  135.4891  153.9630 H   0  0  0  0  0  0  0  0  0  0  0  0  # atno 10764 bound_to 10752
  153.1277  135.6797  153.9329 H   0  0  0  0  0  0  0  0  0  0  0  0  # atno 10765 bound_to 10752
  140.2207  134.3645  155.8006 H   0  0  0  0  0  0  0  0  0  0  0  0  # atno 11005 bound_to 11000
  146.3335  140.2739  142.8607 LP  0  0  0  0  0  0  0  0  0  0  0  0  # atno 17320 bound_to 7965
  144.9612  140.8277  143.5512 LP  0  0  0  0  0  0  0  0  0  0  0  0  # atno 17321 bound_to 7965
  139.8844  144.7000  150.8841 LP  0  0  0  0  0  0  0  0  0  0  0  0  # atno 17342 bound_to 10162
  140.7755  143.3635  151.1783 LP  0  0  0  0  0  0  0  0  0  0  0  0  # atno 17343 bound_to 10162
  155.9976  130.5048  150.7540 LP  0  0  0  0  0  0  0  0  0  0  0  0  # atno 17370 bound_to 10713
  157.4948  131.0914  151.0384 LP  0  0  0  0  0  0  0  0  0  0  0  0  # atno 17371 bound_to 10713
  141.2223  133.7192  156.8570 LP  0  0  0  0  0  0  0  0  0  0  0  0  # atno 17394 bound_to 11000
  140.1853  134.9004  157.2997 LP  0  0  0  0  0  0  0  0  0  0  0  0  # atno 17395 bound_to 11000

$$$$
