AV-unprocessed.smi:317|AV-procd|sdf|2326|dock2
  -GOLD-   2262022233D 1   1.00000     0.00000
 Structure written by MMmdl.
 39 40  0  0  0  0  0  0  0  0  1 V2000
  146.0531  133.8173  151.2837 C   0  0  0  0  0  0  0  0  0  0  0  0
  145.4240  135.0406  151.9709 C   0  0  2  0  0  0  0  0  0  0  0  0
  144.3774  135.7117  151.0632 C   0  0  0  0  0  0  0  0  0  0  0  0
  144.9467  136.0303  149.8109 O   0  0  0  0  0  0  0  0  0  0  0  0
  146.4734  136.0035  152.2946 N   0  0  0  0  0  0  0  0  0  0  0  0
  146.2707  137.2409  152.7680 C   0  0  0  0  0  0  0  0  0  0  0  0
  145.1565  137.7096  153.0015 O   0  0  0  0  0  0  0  0  0  0  0  0
  147.4354  137.8785  152.9699 N   0  0  0  0  0  0  0  0  0  0  0  0
  147.6360  139.1804  153.5075 C   0  0  0  0  0  0  0  0  0  0  0  0
  146.6498  140.1886  153.3805 C   0  0  0  0  0  0  0  0  0  0  0  0
  146.9194  141.4812  153.8613 C   0  0  0  0  0  0  0  0  0  0  0  0
  148.1760  141.7260  154.4398 C   0  0  0  0  0  0  0  0  0  0  0  0
  149.1299  140.7807  154.5570 N   0  0  0  0  0  0  0  0  0  0  0  0
  148.8795  139.5247  154.1111 C   0  0  0  0  0  0  0  0  0  0  0  0
  149.9097  138.5703  154.2776 N   0  0  0  0  0  0  0  0  0  0  0  0
  151.2615  138.9922  154.6287 C   0  0  0  0  0  0  0  0  0  0  0  0
  151.9618  137.7219  155.1025 C   0  0  0  0  0  0  0  0  0  0  0  0
  150.8355  136.9739  155.8082 C   0  0  0  0  0  0  0  0  0  0  0  0
  149.5924  137.3345  154.9880 C   0  0  0  0  0  0  0  0  0  0  0  0
  145.2955  133.0726  151.0382 H   0  0  0  0  0  0  0  0  0  0  0  0
  146.7871  133.3333  151.9291 H   0  0  0  0  0  0  0  0  0  0  0  0
  146.5569  134.0966  150.3577 H   0  0  0  0  0  0  0  0  0  0  0  0
  144.9331  134.6976  152.8841 H   0  0  0  0  0  0  0  0  0  0  0  0
  143.4950  135.0845  150.9302 H   0  0  0  0  0  0  0  0  0  0  0  0
  144.0377  136.6481  151.5067 H   0  0  0  0  0  0  0  0  0  0  0  0
  144.7037  136.9153  149.5861 H   0  0  0  0  0  0  0  0  0  0  0  0
  147.4249  135.7078  152.1330 H   0  0  0  0  0  0  0  0  0  0  0  0
  148.2738  137.3341  152.8286 H   0  0  0  0  0  0  0  0  0  0  0  0
  145.7018  139.9966  152.9012 H   0  0  0  0  0  0  0  0  0  0  0  0
  146.1853  142.2684  153.7758 H   0  0  0  0  0  0  0  0  0  0  0  0
  148.4248  142.7082  154.8133 H   0  0  0  0  0  0  0  0  0  0  0  0
  151.7710  139.4420  153.7764 H   0  0  0  0  0  0  0  0  0  0  0  0
  151.2430  139.7194  155.4416 H   0  0  0  0  0  0  0  0  0  0  0  0
  152.3120  137.1459  154.2449 H   0  0  0  0  0  0  0  0  0  0  0  0
  152.8154  137.9225  155.7505 H   0  0  0  0  0  0  0  0  0  0  0  0
  151.0075  135.8991  155.8668 H   0  0  0  0  0  0  0  0  0  0  0  0
  150.7262  137.3531  156.8250 H   0  0  0  0  0  0  0  0  0  0  0  0
  148.7120  137.4383  155.6237 H   0  0  0  0  0  0  0  0  0  0  0  0
  149.3912  136.5512  154.2570 H   0  0  0  0  0  0  0  0  0  0  0  0
  1  2  1  0  0  0  0
  1 20  1  0  0  0  0
  1 21  1  0  0  0  0
  1 22  1  0  0  0  0
  2  3  1  0  0  0  0
  2  5  1  0  0  0  0
  2 23  1  0  0  0  0
  3  4  1  0  0  0  0
  3 24  1  0  0  0  0
  3 25  1  0  0  0  0
  4 26  1  0  0  0  0
  5  6  1  0  0  0  0
  5 27  1  0  0  0  0
  6  7  2  0  0  0  0
  6  8  1  0  0  0  0
  8  9  1  0  0  0  0
  8 28  1  0  0  0  0
  9 14  1  0  0  0  0
  9 10  2  0  0  0  0
 10 11  1  0  0  0  0
 10 29  1  0  0  0  0
 11 12  2  0  0  0  0
 11 30  1  0  0  0  0
 12 13  1  0  0  0  0
 12 31  1  0  0  0  0
 13 14  2  0  0  0  0
 14 15  1  0  0  0  0
 15 19  1  0  0  0  0
 15 16  1  0  0  0  0
 16 17  1  0  0  0  0
 16 32  1  0  0  0  0
 16 33  1  0  0  0  0
 17 18  1  0  0  0  0
 17 34  1  0  0  0  0
 17 35  1  0  0  0  0
 18 19  1  0  0  0  0
 18 36  1  0  0  0  0
 18 37  1  0  0  0  0
 19 38  1  0  0  0  0
 19 39  1  0  0  0  0
M  END
> <s_m_source_file>
AV-unprocessed.smi

> <i_m_source_file_index>
317

> <i_lp_mmshare_version>
43012

> <i_f3d_flags>
0

> <s_epik_input>
W09IXVtDSDJdW0NAQEhdKFtDSDNdKVtOSF1DKD1PKVtOSF1jMVtjSF1bY0hdW2NIXW5jMU4yW0NIMl1bQ0gyXVtDSDJdW0NIMl0y

> <s_epik_cmdline>
J2VwaWtfcHl0aG9uJywgJy1waCcsICc3LjAnLCAnLXRuJywgJzgnLCAnLW1hJywgJzIwMCcsICctbWV0YWxfYmluZGluZycsICctaW1hZScsICc8aW5maWxlLm1hZT4nLCAnLW9tYWUnLCAnPG91dGZpbGUubWFlPic=

> <r_lp_tautomer_probability>
1

> <r_epik_Ionization_Penalty>
0.098371

> <r_epik_Ionization_Penalty_Charging>
0

> <r_epik_Ionization_Penalty_Neutral>
0.098371

> <r_epik_State_Penalty>
0.0879016

> <r_epik_Charging_Adjusted_Penalty>
0.0879016

> <i_epik_Tot_Q>
0

> <i_epik_Tot_abs_Q>
0

> <r_epik_Metal_State_Penalty>
0.0753294

> <b_epik_Metal_Only>
0

> <s_lp_Force_Field>
OPLS_2005

> <r_lp_Energy>
32.6275

> <b_lp_Chiralities_Consistent>
1

> <s_lp_Variant>
AV-unprocessed.smi:317-1

> <Gold.Version>
5.8.1

> <Gold.Id.Protein>
6NUR|6NUR_protein|mol2

> <Gold.PLP.Fitness>
39.6850

> <Gold.PLP.PLP>
-28.7808

> <Gold.PLP.part.hbond>
-3.8431

> <Gold.PLP.part.metal>
0.0000

> <Gold.PLP.part.buried>
-0.7120

> <Gold.PLP.part.nonpolar>
-24.6770

> <Gold.PLP.part.repulsive>
0.6285

> <Gold.PLP.ligand.clash>
0.0000

> <Gold.PLP.ligand.torsion>
0.4050

> <Gold.PLP.Chemscore.Hbond>
2.7920

> <Gold.PLP.Chemscore.CHOScore>
1.0000

> <Gold.PLP.Chemscore.Metal>
0.0000

> <Gold.Chemscore.Hbonds>
donor molecule, donor type, donor heavy atom, donor atom, acceptor molecule, acceptor atom, score
      L1  H     4    26       P1 10171  1.00
      L1  H     5    27       P1  7948  0.91
      L1  H     8    28       P1  7948  0.86
      L1  C    12    31       P1  8028  1.00

> <Gold.PLP.Chemscore.Internal.Correction>
0.3381

> <Gold.Rescore>
     Score         DG    S(hbond)    S(metal)    S(lipo)     H(rot)  DE(clash)    DE(int)     intcor
     13.32     -17.21       2.83        0.00      65.04       2.08       0.20       3.69       ----

> <Gold.Chemscore.Fitness>
13.3161

> <Gold.Chemscore.DG>
-17.2073

> <Gold.Chemscore.ZeroCoef>
-5.4800

> <Gold.Chemscore.Hbond>
2.8251

> <Gold.Chemscore.Metal>
0.0000

> <Gold.Chemscore.Lipo>
65.0370

> <Gold.Chemscore.Internal_Hbond>
0.0000

> <Gold.Chemscore.DEClash>
0.1986

> <Gold.Chemscore.DEInternal>
3.6926

> <Gold.Chemscore.Rot>
2.0773

> <Gold.Chemscore.Internal.Correction>
   9.000000E+99

> <Gold.Chemscore.Hbonds>
donor molecule, donor type, donor heavy atom, donor atom, acceptor molecule, acceptor atom, score
      L1  H     4    26       P1 10171  0.99
      L1  H     5    27       P1  7948  0.87
      L1  H     8    28       P1  7948  0.84

> <Gold.Chemscore.Hbond.Weighted>
-9.4358

> <Gold.Chemscore.Metal.Weighted>
-0.0000

> <Gold.Chemscore.Lipo.Weighted>
-7.6093

> <Gold.Chemscore.Internal_Hbond.Weighted>
0.0000

> <Gold.Chemscore.DEClash.Weighted>
0.1986

> <Gold.Chemscore.DEInternal.Weighted>
3.6926

> <Gold.Chemscore.Rot.Weighted>
5.3178

> <Gold.Chemscore.Internal.Correction.Weighted>
   9.000000E+99

> <Gold.Protein.RotatedTorsions>
[ 6907 6896 6895 6894 ] final -103.10 input  -60.11 | X-H torsion
[ 7974 7965 7964 7962 ] final  -78.22 input  175.53 | X-H torsion
[ 8008 7997 7996 7995 ] final  117.10 input   59.86 | X-H torsion
[ 10167 10162 10161 10158 ] final -156.31 input  -65.29 | X-H torsion
[ 10718 10713 10712 10709 ] final   -7.77 input   66.30 | X-H torsion
[ 10763 10752 10751 10750 ] final  -69.62 input  -60.55 | X-H torsion
[ 11005 11000 10999 10996 ] final  -55.71 input  -57.11 | X-H torsion

> <Gold.Protein.ActiveResidues>
 VAL166  LYS551  ARG553  GLY616  TRP617  ASP618  TYR619  PRO620  LYS621  CYS622 
 ASP623  PHE694  ASN695  SER759  ASP760  ASP761  ALA762  ILE779  LEU786  VAL792 
 PHE793  MET794  SER795  GLU796  ALA797  LYS798  CYS799  TRP800  GLU811  SER814 

> <Gold.Protein.RotatedAtoms>
  150.7225  134.0480  159.3788 H   0  0  0  0  0  0  0  0  0  0  0  0  # atno 6907 bound_to 6896
  151.8456  135.0573  160.0462 H   0  0  0  0  0  0  0  0  0  0  0  0  # atno 6908 bound_to 6896
  152.2829  133.5452  159.5545 H   0  0  0  0  0  0  0  0  0  0  0  0  # atno 6909 bound_to 6896
  145.5893  140.9432  143.1301 H   0  0  0  0  0  0  0  0  0  0  0  0  # atno 7974 bound_to 7965
  156.2476  140.2903  156.0626 H   0  0  0  0  0  0  0  0  0  0  0  0  # atno 8008 bound_to 7997
  155.1759  140.0403  157.2890 H   0  0  0  0  0  0  0  0  0  0  0  0  # atno 8009 bound_to 7997
  154.6293  140.2495  155.7460 H   0  0  0  0  0  0  0  0  0  0  0  0  # atno 8010 bound_to 7997
  139.6860  143.9500  152.2361 H   0  0  0  0  0  0  0  0  0  0  0  0  # atno 10167 bound_to 10162
  156.7123  130.5125  149.5889 H   0  0  0  0  0  0  0  0  0  0  0  0  # atno 10718 bound_to 10713
  154.4060  135.6020  153.5925 H   0  0  0  0  0  0  0  0  0  0  0  0  # atno 10763 bound_to 10752
  152.9789  135.5918  154.4127 H   0  0  0  0  0  0  0  0  0  0  0  0  # atno 10764 bound_to 10752
  154.3932  135.2842  155.2120 H   0  0  0  0  0  0  0  0  0  0  0  0  # atno 10765 bound_to 10752
  141.1087  133.6611  156.4511 H   0  0  0  0  0  0  0  0  0  0  0  0  # atno 11005 bound_to 11000
  144.7358  139.7589  143.7330 LP  0  0  0  0  0  0  0  0  0  0  0  0  # atno 17320 bound_to 7965
  146.1658  139.4789  142.9959 LP  0  0  0  0  0  0  0  0  0  0  0  0  # atno 17321 bound_to 7965
  139.9303  144.6745  150.8370 LP  0  0  0  0  0  0  0  0  0  0  0  0  # atno 17342 bound_to 10162
  140.7668  143.3313  151.2403 LP  0  0  0  0  0  0  0  0  0  0  0  0  # atno 17343 bound_to 10162
  156.1652  130.6401  151.0769 LP  0  0  0  0  0  0  0  0  0  0  0  0  # atno 17370 bound_to 10713
  157.6931  131.0803  150.7049 LP  0  0  0  0  0  0  0  0  0  0  0  0  # atno 17371 bound_to 10713
  140.4834  134.6643  157.5181 LP  0  0  0  0  0  0  0  0  0  0  0  0  # atno 17394 bound_to 11000
  139.9969  134.6897  155.9594 LP  0  0  0  0  0  0  0  0  0  0  0  0  # atno 17395 bound_to 11000

$$$$
