AV-unprocessed.smi:1124|AV-procd|sdf|4833|dock5
  -GOLD-   22720 3393D 1   1.00000     0.00000
 Structure written by MMmdl.
 52 53  0  0  0  0  0  0  0  0  2 V2000
  148.2158  138.5549  154.1937 C   0  0  0  0  0  0  0  0  0  0  0  0
  146.8577  138.9773  153.7841 N   0  3  0  0  0  0  0  0  0  0  0  0
  146.2352  138.0114  152.8521 C   0  0  0  0  0  0  0  0  0  0  0  0
  146.8065  140.3791  153.2884 C   0  0  0  0  0  0  0  0  0  0  0  0
  147.3879  141.4046  154.3005 C   0  0  0  0  0  0  0  0  0  0  0  0
  146.7926  142.8033  154.0323 C   0  0  0  0  0  0  0  0  0  0  0  0
  147.0611  140.9839  155.7506 C   0  0  0  0  0  0  0  0  0  0  0  0
  148.9274  141.5152  154.1245 C   0  0  0  0  0  0  0  0  0  0  0  0
  149.6341  141.9165  155.3397 N   0  0  0  0  0  0  0  0  0  0  0  0
  150.5864  141.2040  155.9634 C   0  0  0  0  0  0  0  0  0  0  0  0
  150.9804  140.1059  155.5695 O   0  0  0  0  0  0  0  0  0  0  0  0
  151.1708  141.8554  157.1896 C   0  0  0  0  0  0  0  0  0  0  0  0
  151.3349  143.2601  157.2152 C   0  0  0  0  0  0  0  0  0  0  0  0
  151.8332  143.8816  158.3734 C   0  0  0  0  0  0  0  0  0  0  0  0
  152.1458  143.0727  159.4788 C   0  0  0  0  0  0  0  0  0  0  0  0
  151.9939  141.7335  159.4771 N   0  0  0  0  0  0  0  0  0  0  0  0
  151.5174  141.1222  158.3639 C   0  0  0  0  0  0  0  0  0  0  0  0
  151.4218  139.7166  158.4111 N   0  0  0  0  0  0  0  0  0  0  0  0
  150.0870  139.1303  158.3437 C   0  0  0  0  0  0  0  0  0  0  0  0
  150.1955  137.6068  158.1615 C   0  0  0  0  0  0  0  0  0  0  0  0
  150.9811  137.0548  159.2146 O   0  0  0  0  0  0  0  0  0  0  0  0
  152.3062  137.5791  159.2270 C   0  0  0  0  0  0  0  0  0  0  0  0
  152.2588  139.1025  159.4346 C   0  0  0  0  0  0  0  0  0  0  0  0
  148.8914  138.5248  153.3378 H   0  0  0  0  0  0  0  0  0  0  0  0
  148.1900  137.5619  154.6436 H   0  0  0  0  0  0  0  0  0  0  0  0
  148.6296  139.2424  154.9318 H   0  0  0  0  0  0  0  0  0  0  0  0
  146.7850  137.9652  151.9112 H   0  0  0  0  0  0  0  0  0  0  0  0
  145.2051  138.2960  152.6347 H   0  0  0  0  0  0  0  0  0  0  0  0
  146.2176  137.0118  153.2878 H   0  0  0  0  0  0  0  0  0  0  0  0
  147.3382  140.4419  152.3382 H   0  0  0  0  0  0  0  0  0  0  0  0
  145.7761  140.6538  153.0556 H   0  0  0  0  0  0  0  0  0  0  0  0
  147.2268  143.5525  154.6954 H   0  0  0  0  0  0  0  0  0  0  0  0
  145.7140  142.8262  154.1900 H   0  0  0  0  0  0  0  0  0  0  0  0
  146.9817  143.1255  153.0075 H   0  0  0  0  0  0  0  0  0  0  0  0
  147.5309  141.6543  156.4712 H   0  0  0  0  0  0  0  0  0  0  0  0
  147.4088  139.9731  155.9671 H   0  0  0  0  0  0  0  0  0  0  0  0
  145.9886  141.0062  155.9446 H   0  0  0  0  0  0  0  0  0  0  0  0
  149.3342  140.5784  153.7392 H   0  0  0  0  0  0  0  0  0  0  0  0
  149.1572  142.2648  153.3664 H   0  0  0  0  0  0  0  0  0  0  0  0
  149.3898  142.8157  155.7293 H   0  0  0  0  0  0  0  0  0  0  0  0
  151.0726  143.8669  156.3604 H   0  0  0  0  0  0  0  0  0  0  0  0
  151.9659  144.9526  158.4163 H   0  0  0  0  0  0  0  0  0  0  0  0
  152.5278  143.5116  160.3887 H   0  0  0  0  0  0  0  0  0  0  0  0
  149.5385  139.3525  159.2603 H   0  0  0  0  0  0  0  0  0  0  0  0
  149.5299  139.5685  157.5148 H   0  0  0  0  0  0  0  0  0  0  0  0
  149.2042  137.1537  158.1812 H   0  0  0  0  0  0  0  0  0  0  0  0
  150.6398  137.3611  157.1954 H   0  0  0  0  0  0  0  0  0  0  0  0
  152.8682  137.1070  160.0328 H   0  0  0  0  0  0  0  0  0  0  0  0
  152.8159  137.3308  158.2943 H   0  0  0  0  0  0  0  0  0  0  0  0
  153.2687  139.5121  159.4071 H   0  0  0  0  0  0  0  0  0  0  0  0
  151.8479  139.3337  160.4182 H   0  0  0  0  0  0  0  0  0  0  0  0
  146.2926  138.9599  154.6210 H   0  0  0  0  0  0  0  0  0  0  0  0
  1  2  1  0  0  0  0
  1 24  1  0  0  0  0
  1 25  1  0  0  0  0
  1 26  1  0  0  0  0
  2  3  1  0  0  0  0
  2  4  1  0  0  0  0
  2 52  1  0  0  0  0
  3 27  1  0  0  0  0
  3 28  1  0  0  0  0
  3 29  1  0  0  0  0
  4  5  1  0  0  0  0
  4 30  1  0  0  0  0
  4 31  1  0  0  0  0
  5  6  1  0  0  0  0
  5  7  1  0  0  0  0
  5  8  1  0  0  0  0
  6 32  1  0  0  0  0
  6 33  1  0  0  0  0
  6 34  1  0  0  0  0
  7 35  1  0  0  0  0
  7 36  1  0  0  0  0
  7 37  1  0  0  0  0
  8  9  1  0  0  0  0
  8 38  1  0  0  0  0
  8 39  1  0  0  0  0
  9 10  1  0  0  0  0
  9 40  1  0  0  0  0
 10 11  2  0  0  0  0
 10 12  1  0  0  0  0
 12 17  1  0  0  0  0
 12 13  2  0  0  0  0
 13 14  1  0  0  0  0
 13 41  1  0  0  0  0
 14 15  2  0  0  0  0
 14 42  1  0  0  0  0
 15 16  1  0  0  0  0
 15 43  1  0  0  0  0
 16 17  2  0  0  0  0
 17 18  1  0  0  0  0
 18 23  1  0  0  0  0
 18 19  1  0  0  0  0
 19 20  1  0  0  0  0
 19 44  1  0  0  0  0
 19 45  1  0  0  0  0
 20 21  1  0  0  0  0
 20 46  1  0  0  0  0
 20 47  1  0  0  0  0
 21 22  1  0  0  0  0
 22 23  1  0  0  0  0
 22 48  1  0  0  0  0
 22 49  1  0  0  0  0
 23 50  1  0  0  0  0
 23 51  1  0  0  0  0
M  CHG  1   2   1
M  END
> <s_m_source_file>
AV-unprocessed.smi

> <i_m_source_file_index>
1124

> <i_lp_mmshare_version>
43012

> <i_f3d_flags>
0

> <s_epik_input>
W0NIM11OKFtDSDNdKVtDSDJdQyhbQ0gzXSkoW0NIM10pW0NIMl1bTkhdQyg9TyljMVtjSF1bY0hdW2NIXW5jMU4yW0NIMl1bQ0gyXU9bQ0gyXVtDSDJdMg==

> <s_epik_cmdline>
J2VwaWtfcHl0aG9uJywgJy1waCcsICc3LjAnLCAnLXRuJywgJzgnLCAnLW1hJywgJzIwMCcsICctbWV0YWxfYmluZGluZycsICctaW1hZScsICc8aW5maWxlLm1hZT4nLCAnLW9tYWUnLCAnPG91dGZpbGUubWFlPic=

> <r_lp_tautomer_probability>
1

> <r_epik_Ionization_Penalty>
0.000493047

> <r_epik_Ionization_Penalty_Charging>
0.000482013

> <r_epik_Ionization_Penalty_Neutral>
1.10333e-05

> <r_epik_State_Penalty>
0.000299147

> <r_epik_Charging_Adjusted_Penalty>
0.000781161

> <i_epik_Tot_Q>
1

> <i_epik_Tot_abs_Q>
1

> <r_epik_Metal_State_Penalty>
-0

> <b_epik_Metal_Only>
0

> <s_lp_Force_Field>
OPLS_2005

> <r_lp_Energy>
38.5131

> <b_lp_Chiralities_Consistent>
1

> <s_lp_Variant>
AV-unprocessed.smi:1124-1

> <Gold.Version>
5.8.1

> <Gold.Id.Protein>
6NUR|6NUR_protein|mol2

> <Gold.PLP.Fitness>
44.8222

> <Gold.PLP.PLP>
-39.9588

> <Gold.PLP.part.hbond>
-2.8432

> <Gold.PLP.part.metal>
0.0000

> <Gold.PLP.part.buried>
-2.1779

> <Gold.PLP.part.nonpolar>
-34.9948

> <Gold.PLP.part.repulsive>
0.2143

> <Gold.PLP.ligand.clash>
0.0000

> <Gold.PLP.ligand.torsion>
1.8142

> <Gold.PLP.Chemscore.Hbond>
2.5763

> <Gold.PLP.Chemscore.CHOScore>
0.0000

> <Gold.PLP.Chemscore.Metal>
0.0000

> <Gold.Chemscore.Hbonds>
donor molecule, donor type, donor heavy atom, donor atom, acceptor molecule, acceptor atom, score
      L1  H     9    40       P1  8028  1.00
      P1  H  6896  6907       L1    21  0.80
      P1  H  7989  7998       L1    11  0.24

> <Gold.PLP.Chemscore.Internal.Correction>
0.7630

> <Gold.Rescore>
     Score         DG    S(hbond)    S(metal)    S(lipo)     H(rot)  DE(clash)    DE(int)     intcor
     14.75     -18.90       1.90        0.00      98.41       1.73       0.69       3.47       ----

> <Gold.Chemscore.Fitness>
14.7460

> <Gold.Chemscore.DG>
-18.8994

> <Gold.Chemscore.ZeroCoef>
-5.4800

> <Gold.Chemscore.Hbond>
1.8999

> <Gold.Chemscore.Metal>
0.0000

> <Gold.Chemscore.Lipo>
98.4149

> <Gold.Chemscore.Internal_Hbond>
0.0000

> <Gold.Chemscore.DEClash>
0.6872

> <Gold.Chemscore.DEInternal>
3.4662

> <Gold.Chemscore.Rot>
1.7347

> <Gold.Chemscore.Internal.Correction>
   9.000000E+99

> <Gold.Chemscore.Hbonds>
donor molecule, donor type, donor heavy atom, donor atom, acceptor molecule, acceptor atom, score
      L1  H     9    40       P1  8028  0.96
      P1  H  6896  6907       L1    21  0.15
      P1  H  7989  7998       L1    11  0.03

> <Gold.Chemscore.Hbond.Weighted>
-6.3457

> <Gold.Chemscore.Metal.Weighted>
-0.0000

> <Gold.Chemscore.Lipo.Weighted>
-11.5145

> <Gold.Chemscore.Internal_Hbond.Weighted>
0.0000

> <Gold.Chemscore.DEClash.Weighted>
0.6872

> <Gold.Chemscore.DEInternal.Weighted>
3.4662

> <Gold.Chemscore.Rot.Weighted>
4.4408

> <Gold.Chemscore.Internal.Correction.Weighted>
   9.000000E+99

> <Gold.Protein.RotatedTorsions>
[ 6907 6896 6895 6894 ] final   -8.38 input  -60.11 | X-H torsion
[ 7974 7965 7964 7962 ] final  -18.58 input  175.53 | X-H torsion
[ 8008 7997 7996 7995 ] final -102.18 input   59.86 | X-H torsion
[ 10167 10162 10161 10158 ] final -113.13 input  -65.29 | X-H torsion
[ 10718 10713 10712 10709 ] final  131.84 input   66.30 | X-H torsion
[ 10763 10752 10751 10750 ] final  -50.62 input  -60.55 | X-H torsion
[ 11005 11000 10999 10996 ] final -176.37 input  -57.11 | X-H torsion

> <Gold.Protein.ActiveResidues>
 VAL166  LYS551  ARG553  GLY616  TRP617  ASP618  TYR619  PRO620  LYS621  CYS622 
 ASP623  PHE694  ASN695  SER759  ASP760  ASP761  ALA762  ILE779  LEU786  VAL792 
 PHE793  MET794  SER795  GLU796  ALA797  LYS798  CYS799  TRP800  GLU811  SER814 

> <Gold.Protein.RotatedAtoms>
  151.4346  135.1013  159.9652 H   0  0  0  0  0  0  0  0  0  0  0  0  # atno 6907 bound_to 6896
  152.4944  133.8585  159.7249 H   0  0  0  0  0  0  0  0  0  0  0  0  # atno 6908 bound_to 6896
  150.9131  133.6914  159.2877 H   0  0  0  0  0  0  0  0  0  0  0  0  # atno 6909 bound_to 6896
  146.1885  140.3941  142.8467 H   0  0  0  0  0  0  0  0  0  0  0  0  # atno 7974 bound_to 7965
  154.8530  140.0430  157.1616 H   0  0  0  0  0  0  0  0  0  0  0  0  # atno 8008 bound_to 7997
  154.8922  140.2988  155.5343 H   0  0  0  0  0  0  0  0  0  0  0  0  # atno 8009 bound_to 7997
  156.2996  140.2391  156.3940 H   0  0  0  0  0  0  0  0  0  0  0  0  # atno 8010 bound_to 7997
  140.1151  143.4492  152.1727 H   0  0  0  0  0  0  0  0  0  0  0  0  # atno 10167 bound_to 10162
  157.4929  131.1091  150.9532 H   0  0  0  0  0  0  0  0  0  0  0  0  # atno 10718 bound_to 10713
  154.1134  135.6545  153.4889 H   0  0  0  0  0  0  0  0  0  0  0  0  # atno 10763 bound_to 10752
  153.0249  135.5253  154.7169 H   0  0  0  0  0  0  0  0  0  0  0  0  # atno 10764 bound_to 10752
  154.6356  135.2981  155.0135 H   0  0  0  0  0  0  0  0  0  0  0  0  # atno 10765 bound_to 10752
  140.4529  134.6326  157.4809 H   0  0  0  0  0  0  0  0  0  0  0  0  # atno 11005 bound_to 11000
  144.8441  140.6903  143.6210 LP  0  0  0  0  0  0  0  0  0  0  0  0  # atno 17320 bound_to 7965
  145.3866  139.1625  143.4252 LP  0  0  0  0  0  0  0  0  0  0  0  0  # atno 17321 bound_to 7965
  139.5598  144.7398  151.4188 LP  0  0  0  0  0  0  0  0  0  0  0  0  # atno 17342 bound_to 10162
  140.6903  143.7876  150.7246 LP  0  0  0  0  0  0  0  0  0  0  0  0  # atno 17343 bound_to 10162
  157.0228  130.5681  149.5333 LP  0  0  0  0  0  0  0  0  0  0  0  0  # atno 17370 bound_to 10713
  156.0183  130.5278  150.8202 LP  0  0  0  0  0  0  0  0  0  0  0  0  # atno 17371 bound_to 10713
  139.9995  134.6858  155.9554 LP  0  0  0  0  0  0  0  0  0  0  0  0  # atno 17394 bound_to 11000
  141.1656  133.6537  156.4468 LP  0  0  0  0  0  0  0  0  0  0  0  0  # atno 17395 bound_to 11000

$$$$
