AV-unprocessed.smi:1978|AV-procd|sdf|8013|dock4
  -GOLD-   2272010203D 1   1.00000     0.00000
 Structure written by MMmdl.
 44 45  0  0  0  0  0  0  0  0  3 V2000
  153.5702  141.2662  160.3356 C   0  0  0  0  0  0  0  0  0  0  0  0
  152.8105  140.7123  159.1795 C   0  0  0  0  0  0  0  0  0  0  0  0
  151.5368  140.9057  158.7245 C   0  0  0  0  0  0  0  0  0  0  0  0
  151.4762  140.0728  157.5755 C   0  0  0  0  0  0  0  0  0  0  0  0
  150.2893  139.9948  156.8000 N   0  0  0  0  0  0  0  0  0  0  0  0
  150.1592  139.7620  155.4815 C   0  0  0  0  0  0  0  0  0  0  0  0
  151.1598  139.5887  154.7755 O   0  0  0  0  0  0  0  0  0  0  0  0
  148.8560  139.7453  155.0865 N   0  5  0  0  0  0  0  0  0  0  0  0
  148.3548  139.0748  153.8856 C   0  0  0  0  0  0  0  0  0  0  0  0
  147.1582  138.1236  154.2278 C   0  0  1  0  0  0  0  0  0  0  0  0
  145.9335  138.8743  154.8064 C   0  0  0  0  0  0  0  0  0  0  0  0
  146.7312  137.1930  153.1180 N   0  3  1  0  0  0  0  0  0  0  0  0
  146.0926  135.9135  153.5632 C   0  0  0  0  0  0  0  0  0  0  0  0
  146.0345  134.8884  152.4227 C   0  0  0  0  0  0  0  0  0  0  0  0
  145.2713  135.4615  151.2273 C   0  0  0  0  0  0  0  0  0  0  0  0
  145.9199  136.7774  150.7872 C   0  0  0  0  0  0  0  0  0  0  0  0
  146.0104  137.7988  151.9424 C   0  0  2  0  0  0  0  0  0  0  0  0
  146.6643  139.0891  151.4052 C   0  0  0  0  0  0  0  0  0  0  0  0
  152.6101  139.4242  157.3543 N   0  0  0  0  0  0  0  0  0  0  0  0
  153.4706  139.8308  158.3807 O   0  0  0  0  0  0  0  0  0  0  0  0
  153.0008  142.0487  160.8376 H   0  0  0  0  0  0  0  0  0  0  0  0
  154.5163  141.6955  160.0057 H   0  0  0  0  0  0  0  0  0  0  0  0
  153.7878  140.4851  161.0640 H   0  0  0  0  0  0  0  0  0  0  0  0
  150.7733  141.5436  159.1442 H   0  0  0  0  0  0  0  0  0  0  0  0
  149.4280  140.1363  157.3066 H   0  0  0  0  0  0  0  0  0  0  0  0
  148.0288  139.7967  153.1365 H   0  0  0  0  0  0  0  0  0  0  0  0
  149.1412  138.4979  153.3980 H   0  0  0  0  0  0  0  0  0  0  0  0
  147.4743  137.4870  155.0516 H   0  0  0  0  0  0  0  0  0  0  0  0
  146.1631  139.3460  155.7638 H   0  0  0  0  0  0  0  0  0  0  0  0
  145.1112  138.1829  154.9926 H   0  0  0  0  0  0  0  0  0  0  0  0
  145.5575  139.6582  154.1475 H   0  0  0  0  0  0  0  0  0  0  0  0
  146.6439  135.4684  154.3896 H   0  0  0  0  0  0  0  0  0  0  0  0
  145.0816  136.1028  153.9270 H   0  0  0  0  0  0  0  0  0  0  0  0
  147.0459  134.6121  152.1211 H   0  0  0  0  0  0  0  0  0  0  0  0
  145.5517  133.9734  152.7676 H   0  0  0  0  0  0  0  0  0  0  0  0
  145.2693  134.7475  150.4032 H   0  0  0  0  0  0  0  0  0  0  0  0
  144.2285  135.6330  151.4981 H   0  0  0  0  0  0  0  0  0  0  0  0
  146.9188  136.5746  150.3980 H   0  0  0  0  0  0  0  0  0  0  0  0
  145.3482  137.1985  149.9592 H   0  0  0  0  0  0  0  0  0  0  0  0
  144.9921  138.0422  152.2498 H   0  0  0  0  0  0  0  0  0  0  0  0
  146.1911  139.4075  150.4760 H   0  0  0  0  0  0  0  0  0  0  0  0
  147.7254  138.9443  151.2002 H   0  0  0  0  0  0  0  0  0  0  0  0
  146.5601  139.9232  152.0982 H   0  0  0  0  0  0  0  0  0  0  0  0
  147.6143  136.9021  152.7248 H   0  0  0  0  0  0  0  0  0  0  0  0
  1  2  1  0  0  0  0
  1 21  1  0  0  0  0
  1 22  1  0  0  0  0
  1 23  1  0  0  0  0
  2 20  1  0  0  0  0
  2  3  2  0  0  0  0
  3  4  1  0  0  0  0
  3 24  1  0  0  0  0
  4  5  1  0  0  0  0
  4 19  2  0  0  0  0
  5  6  1  0  0  0  0
  5 25  1  0  0  0  0
  6  7  2  0  0  0  0
  6  8  1  0  0  0  0
  8  9  1  0  0  0  0
  9 10  1  0  0  0  0
  9 26  1  0  0  0  0
  9 27  1  0  0  0  0
 10 11  1  0  0  0  0
 10 12  1  0  0  0  0
 10 28  1  0  0  0  0
 11 29  1  0  0  0  0
 11 30  1  0  0  0  0
 11 31  1  0  0  0  0
 12 17  1  0  0  0  0
 12 13  1  0  0  0  0
 12 44  1  0  0  0  0
 13 14  1  0  0  0  0
 13 32  1  0  0  0  0
 13 33  1  0  0  0  0
 14 15  1  0  0  0  0
 14 34  1  0  0  0  0
 14 35  1  0  0  0  0
 15 16  1  0  0  0  0
 15 36  1  0  0  0  0
 15 37  1  0  0  0  0
 16 17  1  0  0  0  0
 16 38  1  0  0  0  0
 16 39  1  0  0  0  0
 17 18  1  0  0  0  0
 17 40  1  0  0  0  0
 18 41  1  0  0  0  0
 18 42  1  0  0  0  0
 18 43  1  0  0  0  0
 19 20  1  0  0  0  0
M  CHG  1   8  -1
M  CHG  1  12   1
M  END
> <s_m_source_file>
AV-unprocessed.smi

> <i_m_source_file_index>
1978

> <i_lp_mmshare_version>
43012

> <i_f3d_flags>
0

> <s_epik_input>
W0NIM11jMVtjSF1jKG5vMSlbTkhdQyg9TylbTkhdW0NIMl1bQ0BIXShbQ0gzXSlOMltDSDJdW0NIMl1bQ0gyXVtDSDJdW0NASF0yW0NIM10=

> <s_epik_cmdline>
J2VwaWtfcHl0aG9uJywgJy1waCcsICc3LjAnLCAnLXRuJywgJzgnLCAnLW1hJywgJzIwMCcsICctbWV0YWxfYmluZGluZycsICctaW1hZScsICc8aW5maWxlLm1hZT4nLCAnLW9tYWUnLCAnPG91dGZpbGUubWFlPic=

> <r_epik_Ionization_Penalty>
6.7666

> <r_epik_Ionization_Penalty_Charging>
6.7666

> <r_epik_Ionization_Penalty_Neutral>
5.77131e-06

> <r_epik_State_Penalty>
6.79217

> <r_epik_Charging_Adjusted_Penalty>
13.5588

> <i_epik_Tot_Q>
0

> <i_epik_Tot_abs_Q>
2

> <r_epik_Metal_State_Penalty>
2.72569

> <b_epik_Metal_Only>
1

> <s_lp_Force_Field>
OPLS_2005

> <r_lp_Energy>
22.3243

> <b_lp_Chiralities_Consistent>
1

> <s_lp_Variant>
AV-unprocessed.smi:1978-22

> <Gold.Version>
5.8.1

> <Gold.Id.Protein>
6NUR|6NUR_protein|mol2

> <Gold.PLP.Fitness>
39.8953

> <Gold.PLP.PLP>
-29.2712

> <Gold.PLP.part.hbond>
-4.0000

> <Gold.PLP.part.metal>
0.0000

> <Gold.PLP.part.buried>
3.5761

> <Gold.PLP.part.nonpolar>
-28.7638

> <Gold.PLP.part.repulsive>
0.1971

> <Gold.PLP.ligand.clash>
0.0000

> <Gold.PLP.ligand.torsion>
0.6362

> <Gold.PLP.Chemscore.Hbond>
3.8784

> <Gold.PLP.Chemscore.CHOScore>
0.0000

> <Gold.PLP.Chemscore.Metal>
0.0000

> <Gold.Chemscore.Hbonds>
donor molecule, donor type, donor heavy atom, donor atom, acceptor molecule, acceptor atom, score
      L1  H    12    44       P1  7948  2.00
      P1  H  7989  7998       L1     7  1.00
      P1  H  7997  8009       L1    20  0.64

> <Gold.PLP.Chemscore.Internal.Correction>
0.2614

> <Gold.Rescore>
     Score         DG    S(hbond)    S(metal)    S(lipo)     H(rot)  DE(clash)    DE(int)     intcor
     13.51     -16.63       1.97        0.00      72.46       1.52       0.45       2.67       ----

> <Gold.Chemscore.Fitness>
13.5128

> <Gold.Chemscore.DG>
-16.6329

> <Gold.Chemscore.ZeroCoef>
-5.4800

> <Gold.Chemscore.Hbond>
1.9651

> <Gold.Chemscore.Metal>
0.0000

> <Gold.Chemscore.Lipo>
72.4634

> <Gold.Chemscore.Internal_Hbond>
0.0000

> <Gold.Chemscore.DEClash>
0.4546

> <Gold.Chemscore.DEInternal>
2.6656

> <Gold.Chemscore.Rot>
1.5190

> <Gold.Chemscore.Internal.Correction>
   9.000000E+99

> <Gold.Chemscore.Hbonds>
donor molecule, donor type, donor heavy atom, donor atom, acceptor molecule, acceptor atom, score
      L1  H    12    44       P1  7948  1.00
      P1  H  7989  7998       L1     7  0.98
      P1  H  7997  8009       L1    20  0.08

> <Gold.Chemscore.Hbond.Weighted>
-6.5633

> <Gold.Chemscore.Metal.Weighted>
-0.0000

> <Gold.Chemscore.Lipo.Weighted>
-8.4782

> <Gold.Chemscore.Internal_Hbond.Weighted>
0.0000

> <Gold.Chemscore.DEClash.Weighted>
0.4546

> <Gold.Chemscore.DEInternal.Weighted>
2.6656

> <Gold.Chemscore.Rot.Weighted>
3.8886

> <Gold.Chemscore.Internal.Correction.Weighted>
   9.000000E+99

> <Gold.Protein.RotatedTorsions>
[ 6907 6896 6895 6894 ] final   30.80 input  -60.11 | X-H torsion
[ 7974 7965 7964 7962 ] final  148.03 input  175.53 | X-H torsion
[ 8008 7997 7996 7995 ] final  128.02 input   59.86 | X-H torsion
[ 10167 10162 10161 10158 ] final  -42.56 input  -65.29 | X-H torsion
[ 10718 10713 10712 10709 ] final   76.37 input   66.30 | X-H torsion
[ 10763 10752 10751 10750 ] final   99.43 input  -60.55 | X-H torsion
[ 11005 11000 10999 10996 ] final -143.54 input  -57.11 | X-H torsion

> <Gold.Protein.ActiveResidues>
 VAL166  LYS551  ARG553  GLY616  TRP617  ASP618  TYR619  PRO620  LYS621  CYS622 
 ASP623  PHE694  ASN695  SER759  ASP760  ASP761  ALA762  ILE779  LEU786  VAL792 
 PHE793  MET794  SER795  GLU796  ALA797  LYS798  CYS799  TRP800  GLU811  SER814 

> <Gold.Protein.RotatedAtoms>
  152.0512  134.9652  160.0574 H   0  0  0  0  0  0  0  0  0  0  0  0  # atno 6907 bound_to 6896
  152.1052  133.4266  159.4614 H   0  0  0  0  0  0  0  0  0  0  0  0  # atno 6908 bound_to 6896
  150.6841  134.2632  159.4601 H   0  0  0  0  0  0  0  0  0  0  0  0  # atno 6909 bound_to 6896
  144.8545  139.6102  143.5958 H   0  0  0  0  0  0  0  0  0  0  0  0  # atno 7974 bound_to 7965
  156.2905  140.2655  156.2367 H   0  0  0  0  0  0  0  0  0  0  0  0  # atno 8008 bound_to 7997
  155.0018  140.0388  157.2381 H   0  0  0  0  0  0  0  0  0  0  0  0  # atno 8009 bound_to 7997
  154.7595  140.2758  155.6231 H   0  0  0  0  0  0  0  0  0  0  0  0  # atno 8010 bound_to 7997
  140.6965  143.3031  151.3226 H   0  0  0  0  0  0  0  0  0  0  0  0  # atno 10167 bound_to 10162
  157.6671  130.9771  150.1488 H   0  0  0  0  0  0  0  0  0  0  0  0  # atno 10718 bound_to 10713
  153.3013  135.4113  155.1255 H   0  0  0  0  0  0  0  0  0  0  0  0  # atno 10763 bound_to 10752
  154.8550  135.3542  154.5847 H   0  0  0  0  0  0  0  0  0  0  0  0  # atno 10764 bound_to 10752
  153.6273  135.7062  153.5347 H   0  0  0  0  0  0  0  0  0  0  0  0  # atno 10765 bound_to 10752
  140.8115  134.2738  157.4939 H   0  0  0  0  0  0  0  0  0  0  0  0  # atno 11005 bound_to 11000
  146.2812  139.6883  142.9227 LP  0  0  0  0  0  0  0  0  0  0  0  0  # atno 17320 bound_to 7965
  145.4433  141.0424  143.2845 LP  0  0  0  0  0  0  0  0  0  0  0  0  # atno 17321 bound_to 7965
  139.6427  144.0510  152.2567 LP  0  0  0  0  0  0  0  0  0  0  0  0  # atno 17342 bound_to 10162
  140.0020  144.6286  150.7721 LP  0  0  0  0  0  0  0  0  0  0  0  0  # atno 17343 bound_to 10162
  156.2292  130.3680  149.8464 LP  0  0  0  0  0  0  0  0  0  0  0  0  # atno 17370 bound_to 10713
  156.6296  130.8660  151.3492 LP  0  0  0  0  0  0  0  0  0  0  0  0  # atno 17371 bound_to 10713
  139.8714  134.9486  156.4000 LP  0  0  0  0  0  0  0  0  0  0  0  0  # atno 17394 bound_to 11000
  140.9193  133.7656  155.9886 LP  0  0  0  0  0  0  0  0  0  0  0  0  # atno 17395 bound_to 11000

$$$$
