AV-unprocessed.smi:2807|AV-procd|sdf|10819|dock8
  -GOLD-   2272015253D 1   1.00000     0.00000
 Structure written by MMmdl.
 32 33  0  0  0  0  0  0  0  0  1 V2000
  151.6719  139.9669  155.3023 O   0  0  0  0  0  0  0  0  0  0  0  0
  150.9529  140.4910  156.1550 C   0  0  0  0  0  0  0  0  0  0  0  0
  149.7609  141.0370  155.8639 N   0  0  0  0  0  0  0  0  0  0  0  0
  149.1632  141.1038  154.5324 C   0  0  1  0  0  0  0  0  0  0  0  0
  148.9787  139.6895  153.9498 C   0  0  0  0  0  0  0  0  0  0  0  0
  147.5130  139.3359  154.1943 C   0  0  0  0  0  0  0  0  0  0  0  0
  146.7877  140.6661  154.0204 C   0  0  0  0  0  0  0  0  0  0  0  0
  147.7440  141.7126  154.6096 C   0  0  2  0  0  0  0  0  0  0  0  0
  147.6538  142.9185  153.8795 O   0  0  0  0  0  0  0  0  0  0  0  0
  151.3722  140.5329  157.6345 C   0  0  0  0  0  0  0  0  0  0  0  0
  150.4233  139.9462  158.3683 F   0  0  0  0  0  0  0  0  0  0  0  0
  152.4887  139.8137  157.7654 F   0  0  0  0  0  0  0  0  0  0  0  0
  151.5997  141.9600  158.1322 C   0  0  0  0  0  0  0  0  0  0  0  0
  152.2107  142.2069  159.3830 C   0  0  0  0  0  0  0  0  0  0  0  0
  152.4094  143.5413  159.7859 C   0  0  0  0  0  0  0  0  0  0  0  0
  151.9934  144.5779  158.9297 C   0  0  0  0  0  0  0  0  0  0  0  0
  151.3956  144.2325  157.7020 C   0  0  0  0  0  0  0  0  0  0  0  0
  151.2005  142.9567  157.3060 N   0  0  0  0  0  0  0  0  0  0  0  0
  149.2300  141.4413  156.6218 H   0  0  0  0  0  0  0  0  0  0  0  0
  149.8083  141.6926  153.8767 H   0  0  0  0  0  0  0  0  0  0  0  0
  149.1627  139.7188  152.8750 H   0  0  0  0  0  0  0  0  0  0  0  0
  149.6601  138.9483  154.3697 H   0  0  0  0  0  0  0  0  0  0  0  0
  147.1472  138.5649  153.5157 H   0  0  0  0  0  0  0  0  0  0  0  0
  147.3847  138.9739  155.2152 H   0  0  0  0  0  0  0  0  0  0  0  0
  146.6338  140.8456  152.9549 H   0  0  0  0  0  0  0  0  0  0  0  0
  145.8085  140.6770  154.5000 H   0  0  0  0  0  0  0  0  0  0  0  0
  147.4638  141.9140  155.6449 H   0  0  0  0  0  0  0  0  0  0  0  0
  148.0250  143.6138  154.4010 H   0  0  0  0  0  0  0  0  0  0  0  0
  152.5279  141.3951  160.0206 H   0  0  0  0  0  0  0  0  0  0  0  0
  152.8745  143.7652  160.7345 H   0  0  0  0  0  0  0  0  0  0  0  0
  152.1304  145.6129  159.2059 H   0  0  0  0  0  0  0  0  0  0  0  0
  151.0649  145.0017  157.0200 H   0  0  0  0  0  0  0  0  0  0  0  0
  1  2  2  0  0  0  0
  2  3  1  0  0  0  0
  2 10  1  0  0  0  0
  3  4  1  0  0  0  0
  3 19  1  0  0  0  0
  4  8  1  0  0  0  0
  4  5  1  0  0  0  0
  4 20  1  0  0  0  0
  5  6  1  0  0  0  0
  5 21  1  0  0  0  0
  5 22  1  0  0  0  0
  6  7  1  0  0  0  0
  6 23  1  0  0  0  0
  6 24  1  0  0  0  0
  7  8  1  0  0  0  0
  7 25  1  0  0  0  0
  7 26  1  0  0  0  0
  8  9  1  0  0  0  0
  8 27  1  0  0  0  0
  9 28  1  0  0  0  0
 10 11  1  0  0  0  0
 10 12  1  0  0  0  0
 10 13  1  0  0  0  0
 13 18  1  0  0  0  0
 13 14  2  0  0  0  0
 14 15  1  0  0  0  0
 14 29  1  0  0  0  0
 15 16  2  0  0  0  0
 15 30  1  0  0  0  0
 16 17  1  0  0  0  0
 16 31  1  0  0  0  0
 17 18  2  0  0  0  0
 17 32  1  0  0  0  0
M  END
> <s_m_source_file>
AV-unprocessed.smi

> <i_m_source_file_index>
2807

> <i_lp_mmshare_version>
43012

> <i_f3d_flags>
0

> <s_epik_input>
bjFbY0hdW2NIXVtjSF1bY0hdYzFDKEYpKEYpQyg9TylbTkhdW0NAQEhdMltDSDJdW0NIMl1bQ0gyXVtDQEhdMltPSF0=

> <s_epik_cmdline>
J2VwaWtfcHl0aG9uJywgJy1waCcsICc3LjAnLCAnLXRuJywgJzgnLCAnLW1hJywgJzIwMCcsICctbWV0YWxfYmluZGluZycsICctaW1hZScsICc8aW5maWxlLm1hZT4nLCAnLW9tYWUnLCAnPG91dGZpbGUubWFlPic=

> <r_lp_tautomer_probability>
1

> <r_epik_Ionization_Penalty>
4.08325e-05

> <r_epik_Ionization_Penalty_Charging>
0

> <r_epik_Ionization_Penalty_Neutral>
4.08325e-05

> <r_epik_State_Penalty>
-0

> <r_epik_Charging_Adjusted_Penalty>
0

> <i_epik_Tot_Q>
0

> <i_epik_Tot_abs_Q>
0

> <r_epik_Metal_State_Penalty>
0.034564

> <b_epik_Metal_Only>
0

> <s_lp_Force_Field>
OPLS_2005

> <r_lp_Energy>
23.3641

> <b_lp_Chiralities_Consistent>
1

> <s_lp_Variant>
AV-unprocessed.smi:2807-4

> <Gold.Version>
5.8.1

> <Gold.Id.Protein>
6NUR|6NUR_protein|mol2

> <Gold.PLP.Fitness>
44.0433

> <Gold.PLP.PLP>
-36.4146

> <Gold.PLP.part.hbond>
-4.0000

> <Gold.PLP.part.metal>
0.0000

> <Gold.PLP.part.buried>
0.3156

> <Gold.PLP.part.nonpolar>
-33.4757

> <Gold.PLP.part.repulsive>
0.2222

> <Gold.PLP.ligand.clash>
0.0000

> <Gold.PLP.ligand.torsion>
0.4006

> <Gold.PLP.Chemscore.Hbond>
1.9920

> <Gold.PLP.Chemscore.CHOScore>
0.8100

> <Gold.PLP.Chemscore.Metal>
0.0000

> <Gold.Chemscore.Hbonds>
donor molecule, donor type, donor heavy atom, donor atom, acceptor molecule, acceptor atom, score
      L1  H     9    28       P1  8028  1.00
      P1  H  7989  7998       L1     1  0.99
      L1  C    17    32       P1  8028  0.83

> <Gold.PLP.Chemscore.Internal.Correction>
0.0237

> <Gold.Rescore>
     Score         DG    S(hbond)    S(metal)    S(lipo)     H(rot)  DE(clash)    DE(int)     intcor
     14.57     -16.89       1.81        0.00      90.72       2.05       0.61       1.71       ----

> <Gold.Chemscore.Fitness>
14.5734

> <Gold.Chemscore.DG>
-16.8930

> <Gold.Chemscore.ZeroCoef>
-5.4800

> <Gold.Chemscore.Hbond>
1.8070

> <Gold.Chemscore.Metal>
0.0000

> <Gold.Chemscore.Lipo>
90.7242

> <Gold.Chemscore.Internal_Hbond>
0.0000

> <Gold.Chemscore.DEClash>
0.6073

> <Gold.Chemscore.DEInternal>
1.7124

> <Gold.Chemscore.Rot>
2.0457

> <Gold.Chemscore.Internal.Correction>
   9.000000E+99

> <Gold.Chemscore.Hbonds>
donor molecule, donor type, donor heavy atom, donor atom, acceptor molecule, acceptor atom, score
      L1  H     9    28       P1  8028  0.78
      P1  H  7989  7998       L1     1  0.81

> <Gold.Chemscore.Hbond.Weighted>
-6.0354

> <Gold.Chemscore.Metal.Weighted>
-0.0000

> <Gold.Chemscore.Lipo.Weighted>
-10.6147

> <Gold.Chemscore.Internal_Hbond.Weighted>
0.0000

> <Gold.Chemscore.DEClash.Weighted>
0.6073

> <Gold.Chemscore.DEInternal.Weighted>
1.7124

> <Gold.Chemscore.Rot.Weighted>
5.2371

> <Gold.Chemscore.Internal.Correction.Weighted>
   9.000000E+99

> <Gold.Protein.RotatedTorsions>
[ 6907 6896 6895 6894 ] final  -26.27 input  -60.11 | X-H torsion
[ 7974 7965 7964 7962 ] final  132.93 input  175.53 | X-H torsion
[ 8008 7997 7996 7995 ] final   39.58 input   59.86 | X-H torsion
[ 10167 10162 10161 10158 ] final  174.00 input  -65.29 | X-H torsion
[ 10718 10713 10712 10709 ] final   49.09 input   66.30 | X-H torsion
[ 10763 10752 10751 10750 ] final  -39.25 input  -60.55 | X-H torsion
[ 11005 11000 10999 10996 ] final  -52.37 input  -57.11 | X-H torsion

> <Gold.Protein.ActiveResidues>
 VAL166  LYS551  ARG553  GLY616  TRP617  ASP618  TYR619  PRO620  LYS621  CYS622 
 ASP623  PHE694  ASN695  SER759  ASP760  ASP761  ALA762  ILE779  LEU786  VAL792 
 PHE793  MET794  SER795  GLU796  ALA797  LYS798  CYS799  TRP800  GLU811  SER814 

> <Gold.Protein.RotatedAtoms>
  151.1633  135.0283  159.8719 H   0  0  0  0  0  0  0  0  0  0  0  0  # atno 6907 bound_to 6896
  152.5451  134.1254  159.8427 H   0  0  0  0  0  0  0  0  0  0  0  0  # atno 6908 bound_to 6896
  151.1352  133.4963  159.2630 H   0  0  0  0  0  0  0  0  0  0  0  0  # atno 6909 bound_to 6896
  144.9918  139.4399  143.5336 H   0  0  0  0  0  0  0  0  0  0  0  0  # atno 7974 bound_to 7965
  155.2390  140.3344  155.4294 H   0  0  0  0  0  0  0  0  0  0  0  0  # atno 8008 bound_to 7997
  156.2263  140.1831  156.7399 H   0  0  0  0  0  0  0  0  0  0  0  0  # atno 8009 bound_to 7997
  154.5905  140.0639  156.9217 H   0  0  0  0  0  0  0  0  0  0  0  0  # atno 8010 bound_to 7997
  139.5127  144.3196  152.0215 H   0  0  0  0  0  0  0  0  0  0  0  0  # atno 10167 bound_to 10162
  157.4752  130.8280  149.8032 H   0  0  0  0  0  0  0  0  0  0  0  0  # atno 10718 bound_to 10713
  153.9264  135.6777  153.4746 H   0  0  0  0  0  0  0  0  0  0  0  0  # atno 10763 bound_to 10752
  153.1002  135.4831  154.8850 H   0  0  0  0  0  0  0  0  0  0  0  0  # atno 10764 bound_to 10752
  154.7451  135.3170  154.8616 H   0  0  0  0  0  0  0  0  0  0  0  0  # atno 10765 bound_to 10752
  141.0921  133.6631  156.4014 H   0  0  0  0  0  0  0  0  0  0  0  0  # atno 11005 bound_to 11000
  146.3433  139.9253  142.8761 LP  0  0  0  0  0  0  0  0  0  0  0  0  # atno 17320 bound_to 7965
  145.2276  140.9960  143.4009 LP  0  0  0  0  0  0  0  0  0  0  0  0  # atno 17321 bound_to 7965
  140.2639  144.4038  150.6175 LP  0  0  0  0  0  0  0  0  0  0  0  0  # atno 17342 bound_to 10162
  140.6137  143.2171  151.6834 LP  0  0  0  0  0  0  0  0  0  0  0  0  # atno 17343 bound_to 10162
  156.0093  130.3840  150.2319 LP  0  0  0  0  0  0  0  0  0  0  0  0  # atno 17370 bound_to 10713
  157.0503  131.0061  151.3255 LP  0  0  0  0  0  0  0  0  0  0  0  0  # atno 17371 bound_to 10713
  140.5228  134.6288  157.5324 LP  0  0  0  0  0  0  0  0  0  0  0  0  # atno 17394 bound_to 11000
  139.9749  134.7232  155.9970 LP  0  0  0  0  0  0  0  0  0  0  0  0  # atno 17395 bound_to 11000

$$$$
