AV-unprocessed.smi:673|AV-procd|sdf|3297|dock5
  -GOLD-   22720 0253D 1   1.00000     0.00000
 Structure written by MMmdl.
 45 46  0  0  0  0  0  0  0  0  1 V2000
  148.7320  138.6854  158.0767 C   0  0  0  0  0  0  0  0  0  0  0  0
  149.6887  137.4881  158.1946 C   0  0  2  0  0  0  0  0  0  0  0  0
  149.9649  136.8515  156.8191 C   0  0  0  0  0  0  0  0  0  0  0  0
  150.6752  137.7512  155.9274 N   0  0  0  0  0  0  0  0  0  0  0  0
  150.2236  138.7306  155.1427 C   0  0  0  0  0  0  0  0  0  0  0  0
  151.1771  139.3586  154.4686 N   0  0  0  0  0  0  0  0  0  0  0  0
  152.2670  138.6669  154.9163 C   0  0  0  0  0  0  0  0  0  0  0  0
  152.0213  137.6923  155.7919 N   0  0  0  0  0  0  0  0  0  0  0  0
  149.1342  136.4868  159.1016 N   0  0  0  0  0  0  0  0  0  0  0  0
  148.6405  136.7203  160.3295 C   0  0  0  0  0  0  0  0  0  0  0  0
  148.5527  137.8557  160.7995 O   0  0  0  0  0  0  0  0  0  0  0  0
  148.2194  135.6083  160.9838 N   0  0  0  0  0  0  0  0  0  0  0  0
  147.8108  134.3521  160.3405 C   0  0  0  0  0  0  0  0  0  0  0  0
  146.3222  134.3630  159.9394 C   0  0  0  0  0  0  0  0  0  0  0  0
  145.3824  135.3016  160.7369 C   0  0  0  0  0  0  0  0  0  0  0  0
  145.4423  135.2642  162.2919 C   0  0  0  0  0  0  0  0  0  0  0  0
  144.1688  135.9617  162.8157 C   0  0  0  0  0  0  0  0  0  0  0  0
  145.4248  133.8173  162.8300 C   0  0  0  0  0  0  0  0  0  0  0  0
  146.6538  136.0666  162.8515 C   0  0  0  0  0  0  0  0  0  0  0  0
  148.0598  135.5877  162.4418 C   0  0  0  0  0  0  0  0  0  0  0  0
  149.1333  139.4419  157.4021 H   0  0  0  0  0  0  0  0  0  0  0  0
  148.5719  139.1630  159.0437 H   0  0  0  0  0  0  0  0  0  0  0  0
  147.7584  138.3792  157.6920 H   0  0  0  0  0  0  0  0  0  0  0  0
  150.6376  137.8457  158.5990 H   0  0  0  0  0  0  0  0  0  0  0  0
  150.5404  135.9308  156.9298 H   0  0  0  0  0  0  0  0  0  0  0  0
  149.0258  136.5753  156.3380 H   0  0  0  0  0  0  0  0  0  0  0  0
  149.1783  138.9926  155.0674 H   0  0  0  0  0  0  0  0  0  0  0  0
  153.2719  138.8882  154.5876 H   0  0  0  0  0  0  0  0  0  0  0  0
  149.1555  135.5288  158.7826 H   0  0  0  0  0  0  0  0  0  0  0  0
  148.4330  134.1251  159.4730 H   0  0  0  0  0  0  0  0  0  0  0  0
  147.9938  133.5123  161.0104 H   0  0  0  0  0  0  0  0  0  0  0  0
  146.2526  134.6474  158.8888 H   0  0  0  0  0  0  0  0  0  0  0  0
  145.9423  133.3419  159.9839 H   0  0  0  0  0  0  0  0  0  0  0  0
  145.5447  136.3282  160.4050 H   0  0  0  0  0  0  0  0  0  0  0  0
  144.3669  135.0653  160.4163 H   0  0  0  0  0  0  0  0  0  0  0  0
  144.1500  135.9955  163.9058 H   0  0  0  0  0  0  0  0  0  0  0  0
  143.2653  135.4426  162.4937 H   0  0  0  0  0  0  0  0  0  0  0  0
  144.0997  136.9890  162.4557 H   0  0  0  0  0  0  0  0  0  0  0  0
  145.3849  133.8031  163.9197 H   0  0  0  0  0  0  0  0  0  0  0  0
  146.3060  133.2502  162.5369 H   0  0  0  0  0  0  0  0  0  0  0  0
  144.5541  133.2722  162.4645 H   0  0  0  0  0  0  0  0  0  0  0  0
  146.5530  137.1129  162.5591 H   0  0  0  0  0  0  0  0  0  0  0  0
  146.6060  136.0690  163.9412 H   0  0  0  0  0  0  0  0  0  0  0  0
  148.2506  134.5949  162.8491 H   0  0  0  0  0  0  0  0  0  0  0  0
  148.8098  136.2217  162.9176 H   0  0  0  0  0  0  0  0  0  0  0  0
  1  2  1  0  0  0  0
  1 21  1  0  0  0  0
  1 22  1  0  0  0  0
  1 23  1  0  0  0  0
  2  3  1  0  0  0  0
  2  9  1  0  0  0  0
  2 24  1  0  0  0  0
  3  4  1  0  0  0  0
  3 25  1  0  0  0  0
  3 26  1  0  0  0  0
  4  8  1  0  0  0  0
  4  5  1  0  0  0  0
  5  6  2  0  0  0  0
  5 27  1  0  0  0  0
  6  7  1  0  0  0  0
  7  8  2  0  0  0  0
  7 28  1  0  0  0  0
  9 10  1  0  0  0  0
  9 29  1  0  0  0  0
 10 11  2  0  0  0  0
 10 12  1  0  0  0  0
 12 20  1  0  0  0  0
 12 13  1  0  0  0  0
 13 14  1  0  0  0  0
 13 30  1  0  0  0  0
 13 31  1  0  0  0  0
 14 15  1  0  0  0  0
 14 32  1  0  0  0  0
 14 33  1  0  0  0  0
 15 16  1  0  0  0  0
 15 34  1  0  0  0  0
 15 35  1  0  0  0  0
 16 17  1  0  0  0  0
 16 18  1  0  0  0  0
 16 19  1  0  0  0  0
 17 36  1  0  0  0  0
 17 37  1  0  0  0  0
 17 38  1  0  0  0  0
 18 39  1  0  0  0  0
 18 40  1  0  0  0  0
 18 41  1  0  0  0  0
 19 20  1  0  0  0  0
 19 42  1  0  0  0  0
 19 43  1  0  0  0  0
 20 44  1  0  0  0  0
 20 45  1  0  0  0  0
M  END
> <s_m_source_file>
AV-unprocessed.smi

> <i_m_source_file_index>
673

> <i_lp_mmshare_version>
43012

> <i_f3d_flags>
0

> <s_epik_input>
bjFbY0hdbltjSF1uMVtDSDJdW0NAQEhdKFtDSDNdKVtOSF1DKD1PKU4oW0NIMl1bQ0gyXTIpW0NIMl1bQ0gyXVtDSDJdQzIoW0NIM10pW0NIM10=

> <s_epik_cmdline>
J2VwaWtfcHl0aG9uJywgJy1waCcsICc3LjAnLCAnLXRuJywgJzgnLCAnLW1hJywgJzIwMCcsICctbWV0YWxfYmluZGluZycsICctaW1hZScsICc8aW5maWxlLm1hZT4nLCAnLW9tYWUnLCAnPG91dGZpbGUubWFlPic=

> <r_lp_tautomer_probability>
1

> <r_epik_Ionization_Penalty>
0.000118908

> <r_epik_Ionization_Penalty_Charging>
0

> <r_epik_Ionization_Penalty_Neutral>
0.000118908

> <r_epik_State_Penalty>
-0

> <r_epik_Charging_Adjusted_Penalty>
0

> <i_epik_Tot_Q>
0

> <i_epik_Tot_abs_Q>
0

> <r_epik_Metal_State_Penalty>
-0

> <b_epik_Metal_Only>
0

> <s_lp_Force_Field>
OPLS_2005

> <r_lp_Energy>
35.7371

> <b_lp_Chiralities_Consistent>
1

> <s_lp_Variant>
AV-unprocessed.smi:673-1

> <Gold.Version>
5.8.1

> <Gold.Id.Protein>
6NUR|6NUR_protein|mol2

> <Gold.PLP.Fitness>
35.3961

> <Gold.PLP.PLP>
-28.2604

> <Gold.PLP.part.hbond>
-3.0000

> <Gold.PLP.part.metal>
0.0000

> <Gold.PLP.part.buried>
-5.9889

> <Gold.PLP.part.nonpolar>
-20.3204

> <Gold.PLP.part.repulsive>
0.2291

> <Gold.PLP.ligand.clash>
0.0000

> <Gold.PLP.ligand.torsion>
0.6551

> <Gold.PLP.Chemscore.Hbond>
2.8080

> <Gold.PLP.Chemscore.CHOScore>
0.0000

> <Gold.PLP.Chemscore.Metal>
0.0000

> <Gold.Chemscore.Hbonds>
donor molecule, donor type, donor heavy atom, donor atom, acceptor molecule, acceptor atom, score
      P1  H  6931  6943       L1    11  0.14
      P1  H  6934  6947       L1    11  0.27
      P1  H  7989  7998       L1     6  1.00

> <Gold.PLP.Chemscore.Internal.Correction>
0.0218

> <Gold.Rescore>
     Score         DG    S(hbond)    S(metal)    S(lipo)     H(rot)  DE(clash)    DE(int)     intcor
     12.83     -13.11       1.95        0.00      50.24       1.86       0.00       0.28       ----

> <Gold.Chemscore.Fitness>
12.8308

> <Gold.Chemscore.DG>
-13.1146

> <Gold.Chemscore.ZeroCoef>
-5.4800

> <Gold.Chemscore.Hbond>
1.9525

> <Gold.Chemscore.Metal>
0.0000

> <Gold.Chemscore.Lipo>
50.2445

> <Gold.Chemscore.Internal_Hbond>
0.0000

> <Gold.Chemscore.DEClash>
0.0004

> <Gold.Chemscore.DEInternal>
0.2834

> <Gold.Chemscore.Rot>
1.8614

> <Gold.Chemscore.Internal.Correction>
   9.000000E+99

> <Gold.Chemscore.Hbonds>
donor molecule, donor type, donor heavy atom, donor atom, acceptor molecule, acceptor atom, score
      P1  H  6931  6943       L1    11  0.14
      P1  H  6934  6947       L1    11  0.26
      P1  H  7989  7998       L1     6  0.82

> <Gold.Chemscore.Hbond.Weighted>
-6.5213

> <Gold.Chemscore.Metal.Weighted>
-0.0000

> <Gold.Chemscore.Lipo.Weighted>
-5.8786

> <Gold.Chemscore.Internal_Hbond.Weighted>
0.0000

> <Gold.Chemscore.DEClash.Weighted>
0.0004

> <Gold.Chemscore.DEInternal.Weighted>
0.2834

> <Gold.Chemscore.Rot.Weighted>
4.7653

> <Gold.Chemscore.Internal.Correction.Weighted>
   9.000000E+99

> <Gold.Protein.RotatedTorsions>
[ 6907 6896 6895 6894 ] final  -40.78 input  -60.11 | X-H torsion
[ 7974 7965 7964 7962 ] final   68.89 input  175.53 | X-H torsion
[ 8008 7997 7996 7995 ] final -143.68 input   59.86 | X-H torsion
[ 10167 10162 10161 10158 ] final -135.26 input  -65.29 | X-H torsion
[ 10718 10713 10712 10709 ] final -174.25 input   66.30 | X-H torsion
[ 10763 10752 10751 10750 ] final -159.05 input  -60.55 | X-H torsion
[ 11005 11000 10999 10996 ] final -138.83 input  -57.11 | X-H torsion

> <Gold.Protein.ActiveResidues>
 VAL166  LYS551  ARG553  GLY616  TRP617  ASP618  TYR619  PRO620  LYS621  CYS622 
 ASP623  PHE694  ASN695  SER759  ASP760  ASP761  ALA762  ILE779  LEU786  VAL792 
 PHE793  MET794  SER795  GLU796  ALA797  LYS798  CYS799  TRP800  GLU811  SER814 

> <Gold.Protein.RotatedAtoms>
  150.9744  134.9111  159.7806 H   0  0  0  0  0  0  0  0  0  0  0  0  # atno 6907 bound_to 6896
  152.5201  134.3497  159.9256 H   0  0  0  0  0  0  0  0  0  0  0  0  # atno 6908 bound_to 6896
  151.3505  133.3886  159.2714 H   0  0  0  0  0  0  0  0  0  0  0  0  # atno 6909 bound_to 6896
  145.7971  139.2963  143.1176 H   0  0  0  0  0  0  0  0  0  0  0  0  # atno 7974 bound_to 7965
  155.5145  140.0586  157.2917 H   0  0  0  0  0  0  0  0  0  0  0  0  # atno 8008 bound_to 7997
  154.4539  140.1963  156.0383 H   0  0  0  0  0  0  0  0  0  0  0  0  # atno 8009 bound_to 7997
  156.0761  140.3253  155.7640 H   0  0  0  0  0  0  0  0  0  0  0  0  # atno 8010 bound_to 7997
  139.8797  143.6855  152.2629 H   0  0  0  0  0  0  0  0  0  0  0  0  # atno 10167 bound_to 10162
  156.7823  130.9488  151.3120 H   0  0  0  0  0  0  0  0  0  0  0  0  # atno 10718 bound_to 10713
  154.7507  135.3091  154.8563 H   0  0  0  0  0  0  0  0  0  0  0  0  # atno 10763 bound_to 10752
  153.9352  135.6781  153.4749 H   0  0  0  0  0  0  0  0  0  0  0  0  # atno 10764 bound_to 10752
  153.1103  135.4870  154.8951 H   0  0  0  0  0  0  0  0  0  0  0  0  # atno 10765 bound_to 10752
  140.8578  134.2206  157.4724 H   0  0  0  0  0  0  0  0  0  0  0  0  # atno 11005 bound_to 11000
  145.9916  140.8597  143.0063 LP  0  0  0  0  0  0  0  0  0  0  0  0  # atno 17320 bound_to 7965
  144.6773  140.2224  143.7365 LP  0  0  0  0  0  0  0  0  0  0  0  0  # atno 17321 bound_to 7965
  139.7207  144.7603  151.0959 LP  0  0  0  0  0  0  0  0  0  0  0  0  # atno 17342 bound_to 10162
  140.7747  143.5211  150.9536 LP  0  0  0  0  0  0  0  0  0  0  0  0  # atno 17343 bound_to 10162
  157.6640  130.8991  149.9892 LP  0  0  0  0  0  0  0  0  0  0  0  0  # atno 17370 bound_to 10713
  156.1210  130.3646  149.9887 LP  0  0  0  0  0  0  0  0  0  0  0  0  # atno 17371 bound_to 10713
  139.8706  134.9715  156.4738 LP  0  0  0  0  0  0  0  0  0  0  0  0  # atno 17394 bound_to 11000
  140.8717  133.7983  155.9372 LP  0  0  0  0  0  0  0  0  0  0  0  0  # atno 17395 bound_to 11000

$$$$
