AV-unprocessed.smi:3165|AV-procd|sdf|12088|dock4
  -GOLD-   2272017523D 1   1.00000     0.00000
 Structure written by MMmdl.
 38 39  0  0  0  0  0  0  0  0  2 V2000
  147.1271  141.9033  155.4784 C   0  0  0  0  0  0  0  0  0  0  0  0
  148.4507  141.1440  155.6402 C   0  0  1  0  0  0  0  0  0  0  0  0
  148.8879  140.5136  154.3012 C   0  0  0  0  0  0  0  0  0  0  0  0
  150.0117  139.6061  154.4459 N   0  0  0  0  0  0  0  0  0  0  0  0
  150.0520  138.2468  154.2173 C   0  0  0  0  0  0  0  0  0  0  0  0
  151.3177  137.8244  154.5075 C   0  0  0  0  0  0  0  0  0  0  0  0
  151.9888  139.0140  154.9067 C   0  0  0  0  0  0  0  0  0  0  0  0
  151.2047  140.0791  154.8675 N   0  0  0  0  0  0  0  0  0  0  0  0
  149.4882  142.0648  156.1580 N   0  3  0  0  0  0  0  0  0  0  0  0
  149.5940  142.1184  157.6313 C   0  0  0  0  0  0  0  0  0  0  0  0
  151.0245  142.4599  158.0688 C   0  0  1  0  0  0  0  0  0  0  0  0
  151.3693  143.9365  157.7940 C   0  0  0  0  0  0  0  0  0  0  0  0
  152.7608  144.2774  158.3395 C   0  0  0  0  0  0  0  0  0  0  0  0
  152.8471  143.8788  159.8163 C   0  0  0  0  0  0  0  0  0  0  0  0
  152.4269  142.4120  159.9978 C   0  0  0  0  0  0  0  0  0  0  0  0
  151.1184  142.2149  159.4709 O   0  0  0  0  0  0  0  0  0  0  0  0
  146.3360  141.2426  155.1225 H   0  0  0  0  0  0  0  0  0  0  0  0
  147.2223  142.7224  154.7644 H   0  0  0  0  0  0  0  0  0  0  0  0
  146.7977  142.3256  156.4283 H   0  0  0  0  0  0  0  0  0  0  0  0
  148.2806  140.3480  156.3674 H   0  0  0  0  0  0  0  0  0  0  0  0
  148.0607  139.9517  153.8652 H   0  0  0  0  0  0  0  0  0  0  0  0
  149.1480  141.2894  153.5787 H   0  0  0  0  0  0  0  0  0  0  0  0
  149.1861  137.6989  153.8755 H   0  0  0  0  0  0  0  0  0  0  0  0
  151.7058  136.8186  154.4436 H   0  0  0  0  0  0  0  0  0  0  0  0
  153.0147  139.1347  155.2222 H   0  0  0  0  0  0  0  0  0  0  0  0
  150.3803  141.7764  155.7807 H   0  0  0  0  0  0  0  0  0  0  0  0
  148.8966  142.8724  157.9984 H   0  0  0  0  0  0  0  0  0  0  0  0
  149.2935  141.1663  158.0695 H   0  0  0  0  0  0  0  0  0  0  0  0
  151.7280  141.8164  157.5369 H   0  0  0  0  0  0  0  0  0  0  0  0
  151.3288  144.1429  156.7241 H   0  0  0  0  0  0  0  0  0  0  0  0
  150.6270  144.5821  158.2653 H   0  0  0  0  0  0  0  0  0  0  0  0
  153.5218  143.7432  157.7692 H   0  0  0  0  0  0  0  0  0  0  0  0
  152.9669  145.3412  158.2199 H   0  0  0  0  0  0  0  0  0  0  0  0
  153.8597  144.0317  160.1903 H   0  0  0  0  0  0  0  0  0  0  0  0
  152.1936  144.5206  160.4087 H   0  0  0  0  0  0  0  0  0  0  0  0
  153.1333  141.7408  159.5069 H   0  0  0  0  0  0  0  0  0  0  0  0
  152.4232  142.1513  161.0562 H   0  0  0  0  0  0  0  0  0  0  0  0
  149.2865  142.9973  155.8265 H   0  0  0  0  0  0  0  0  0  0  0  0
  1  2  1  0  0  0  0
  1 17  1  0  0  0  0
  1 18  1  0  0  0  0
  1 19  1  0  0  0  0
  2  3  1  0  0  0  0
  2  9  1  0  0  0  0
  2 20  1  0  0  0  0
  3  4  1  0  0  0  0
  3 21  1  0  0  0  0
  3 22  1  0  0  0  0
  4  8  1  0  0  0  0
  4  5  1  0  0  0  0
  5  6  2  0  0  0  0
  5 23  1  0  0  0  0
  6  7  1  0  0  0  0
  6 24  1  0  0  0  0
  7  8  2  0  0  0  0
  7 25  1  0  0  0  0
  9 10  1  0  0  0  0
  9 26  1  0  0  0  0
  9 38  1  0  0  0  0
 10 11  1  0  0  0  0
 10 27  1  0  0  0  0
 10 28  1  0  0  0  0
 11 16  1  0  0  0  0
 11 12  1  0  0  0  0
 11 29  1  0  0  0  0
 12 13  1  0  0  0  0
 12 30  1  0  0  0  0
 12 31  1  0  0  0  0
 13 14  1  0  0  0  0
 13 32  1  0  0  0  0
 13 33  1  0  0  0  0
 14 15  1  0  0  0  0
 14 34  1  0  0  0  0
 14 35  1  0  0  0  0
 15 16  1  0  0  0  0
 15 36  1  0  0  0  0
 15 37  1  0  0  0  0
M  CHG  1   9   1
M  END
> <s_m_source_file>
AV-unprocessed.smi

> <i_m_source_file_index>
3165

> <i_lp_mmshare_version>
43012

> <i_f3d_flags>
0

> <s_epik_input>
bjFbY0hdW2NIXVtjSF1uMVtDSDJdW0NAQEhdKFtDSDNdKVtOSF1bQ0gyXVtDQEBIXTJbQ0gyXVtDSDJdW0NIMl1bQ0gyXU8y

> <s_epik_cmdline>
J2VwaWtfcHl0aG9uJywgJy1waCcsICc3LjAnLCAnLXRuJywgJzgnLCAnLW1hJywgJzIwMCcsICctbWV0YWxfYmluZGluZycsICctaW1hZScsICc8aW5maWxlLm1hZT4nLCAnLW9tYWUnLCAnPG91dGZpbGUubWFlPic=

> <r_lp_tautomer_probability>
1

> <r_epik_Ionization_Penalty>
0.00849196

> <r_epik_Ionization_Penalty_Charging>
0.00848754

> <r_epik_Ionization_Penalty_Neutral>
4.42049e-06

> <r_epik_State_Penalty>
0.00639836

> <r_epik_Charging_Adjusted_Penalty>
0.0148859

> <i_epik_Tot_Q>
1

> <i_epik_Tot_abs_Q>
1

> <r_epik_Metal_State_Penalty>
0.00639878

> <b_epik_Metal_Only>
0

> <s_lp_Force_Field>
OPLS_2005

> <r_lp_Energy>
13.0452

> <b_lp_Chiralities_Consistent>
1

> <s_lp_Variant>
AV-unprocessed.smi:3165-4

> <Gold.Version>
5.8.1

> <Gold.Id.Protein>
6NUR|6NUR_protein|mol2

> <Gold.PLP.Fitness>
49.6313

> <Gold.PLP.PLP>
-39.3301

> <Gold.PLP.part.hbond>
-2.7565

> <Gold.PLP.part.metal>
0.0000

> <Gold.PLP.part.buried>
-2.7620

> <Gold.PLP.part.nonpolar>
-34.4733

> <Gold.PLP.part.repulsive>
0.1484

> <Gold.PLP.ligand.clash>
0.0000

> <Gold.PLP.ligand.torsion>
0.7192

> <Gold.PLP.Chemscore.Hbond>
2.9000

> <Gold.PLP.Chemscore.CHOScore>
0.9971

> <Gold.PLP.Chemscore.Metal>
0.0000

> <Gold.Chemscore.Hbonds>
donor molecule, donor type, donor heavy atom, donor atom, acceptor molecule, acceptor atom, score
      L1  H     9    38       P1  8028  2.00
      P1  H  7989  7998       L1     8  0.90
      L1  C     5    23       P1  7948  0.95

> <Gold.PLP.Chemscore.Internal.Correction>
0.0484

> <Gold.Rescore>
     Score         DG    S(hbond)    S(metal)    S(lipo)     H(rot)  DE(clash)    DE(int)     intcor
     18.53     -19.54       1.87        0.00     102.66       1.64       0.01       0.99       ----

> <Gold.Chemscore.Fitness>
18.5305

> <Gold.Chemscore.DG>
-19.5354

> <Gold.Chemscore.ZeroCoef>
-5.4800

> <Gold.Chemscore.Hbond>
1.8726

> <Gold.Chemscore.Metal>
0.0000

> <Gold.Chemscore.Lipo>
102.6557

> <Gold.Chemscore.Internal_Hbond>
0.0000

> <Gold.Chemscore.DEClash>
0.0115

> <Gold.Chemscore.DEInternal>
0.9934

> <Gold.Chemscore.Rot>
1.6444

> <Gold.Chemscore.Internal.Correction>
   9.000000E+99

> <Gold.Chemscore.Hbonds>
donor molecule, donor type, donor heavy atom, donor atom, acceptor molecule, acceptor atom, score
      L1  H     9    38       P1  8028  1.00
      P1  H  7989  7998       L1     8  0.09

> <Gold.Chemscore.Hbond.Weighted>
-6.2544

> <Gold.Chemscore.Metal.Weighted>
-0.0000

> <Gold.Chemscore.Lipo.Weighted>
-12.0107

> <Gold.Chemscore.Internal_Hbond.Weighted>
0.0000

> <Gold.Chemscore.DEClash.Weighted>
0.0115

> <Gold.Chemscore.DEInternal.Weighted>
0.9934

> <Gold.Chemscore.Rot.Weighted>
4.2097

> <Gold.Chemscore.Internal.Correction.Weighted>
   9.000000E+99

> <Gold.Protein.RotatedTorsions>
[ 6907 6896 6895 6894 ] final  172.88 input  -60.11 | X-H torsion
[ 7974 7965 7964 7962 ] final -170.21 input  175.53 | X-H torsion
[ 8008 7997 7996 7995 ] final  121.13 input   59.86 | X-H torsion
[ 10167 10162 10161 10158 ] final  107.62 input  -65.29 | X-H torsion
[ 10718 10713 10712 10709 ] final  163.63 input   66.30 | X-H torsion
[ 10763 10752 10751 10750 ] final   66.59 input  -60.55 | X-H torsion
[ 11005 11000 10999 10996 ] final  155.38 input  -57.11 | X-H torsion

> <Gold.Protein.ActiveResidues>
 VAL166  LYS551  ARG553  GLY616  TRP617  ASP618  TYR619  PRO620  LYS621  CYS622 
 ASP623  PHE694  ASN695  SER759  ASP760  ASP761  ALA762  ILE779  LEU786  VAL792 
 PHE793  MET794  SER795  GLU796  ALA797  LYS798  CYS799  TRP800  GLU811  SER814 

> <Gold.Protein.RotatedAtoms>
  151.7773  133.3346  159.3461 H   0  0  0  0  0  0  0  0  0  0  0  0  # atno 6907 bound_to 6896
  150.7439  134.5964  159.6023 H   0  0  0  0  0  0  0  0  0  0  0  0  # atno 6908 bound_to 6896
  152.3300  134.7273  160.0343 H   0  0  0  0  0  0  0  0  0  0  0  0  # atno 6909 bound_to 6896
  144.7173  140.2106  143.6328 H   0  0  0  0  0  0  0  0  0  0  0  0  # atno 7974 bound_to 7965
  156.2673  140.2815  156.1260 H   0  0  0  0  0  0  0  0  0  0  0  0  # atno 8008 bound_to 7997
  155.1105  140.0391  157.2740 H   0  0  0  0  0  0  0  0  0  0  0  0  # atno 8009 bound_to 7997
  154.6746  140.2595  155.6977 H   0  0  0  0  0  0  0  0  0  0  0  0  # atno 8010 bound_to 7997
  139.6912  144.7107  151.1344 H   0  0  0  0  0  0  0  0  0  0  0  0  # atno 10167 bound_to 10162
  157.1058  131.0455  151.2478 H   0  0  0  0  0  0  0  0  0  0  0  0  # atno 10718 bound_to 10713
  153.0147  135.5315  154.6848 H   0  0  0  0  0  0  0  0  0  0  0  0  # atno 10763 bound_to 10752
  154.5998  135.2867  155.0549 H   0  0  0  0  0  0  0  0  0  0  0  0  # atno 10764 bound_to 10752
  154.1610  135.6547  153.5038 H   0  0  0  0  0  0  0  0  0  0  0  0  # atno 10765 bound_to 10752
  140.1576  134.8632  157.2534 H   0  0  0  0  0  0  0  0  0  0  0  0  # atno 11005 bound_to 11000
  145.8594  139.2215  143.1725 LP  0  0  0  0  0  0  0  0  0  0  0  0  # atno 17320 bound_to 7965
  146.0187  140.8368  142.9934 LP  0  0  0  0  0  0  0  0  0  0  0  0  # atno 17321 bound_to 7965
  140.7683  143.5556  150.9156 LP  0  0  0  0  0  0  0  0  0  0  0  0  # atno 17342 bound_to 10162
  139.9233  143.6579  152.3092 LP  0  0  0  0  0  0  0  0  0  0  0  0  # atno 17343 bound_to 10162
  157.4602  130.7649  149.7229 LP  0  0  0  0  0  0  0  0  0  0  0  0  # atno 17370 bound_to 10713
  155.9862  130.3976  150.3222 LP  0  0  0  0  0  0  0  0  0  0  0  0  # atno 17371 bound_to 10713
  140.2528  134.3662  155.7435 LP  0  0  0  0  0  0  0  0  0  0  0  0  # atno 17394 bound_to 11000
  141.2206  133.7326  156.8962 LP  0  0  0  0  0  0  0  0  0  0  0  0  # atno 17395 bound_to 11000

$$$$
