AV-unprocessed.smi:1867|AV-procd|sdf|7582|dock4
  -GOLD-   22720 9293D 1   1.00000     0.00000
 Structure written by MMmdl.
 52 55  0  0  0  0  0  0  0  0  4 V2000
  150.1305  136.9236  156.7669 O   0  0  0  0  0  0  0  0  0  0  0  0
  149.4379  137.2753  155.8154 C   0  0  0  0  0  0  0  0  0  0  0  0
  149.3661  138.5899  155.4890 N   0  0  0  0  0  0  0  0  0  0  0  0
  149.9732  139.7334  156.0813 C   0  0  0  0  0  0  0  0  0  0  0  0
  151.0771  139.5017  156.9290 C   0  0  0  0  0  0  0  0  0  0  0  0
  151.7284  140.5856  157.5519 C   0  0  0  0  0  0  0  0  0  0  0  0
  151.2665  141.9028  157.3250 C   0  0  0  0  0  0  0  0  0  0  0  0
  151.8686  143.0339  157.9078 N   0  0  0  0  0  0  0  0  0  0  0  0
  151.4512  144.3813  157.5535 C   0  0  0  0  0  0  0  0  0  0  0  0
  152.2053  145.2861  158.5260 C   0  0  0  0  0  0  0  0  0  0  0  0
  152.2982  144.4315  159.7901 C   0  0  0  0  0  0  0  0  0  0  0  0
  152.3945  142.9936  159.2653 C   0  0  0  0  0  0  0  0  0  0  0  0
  150.2064  142.0817  156.5019 N   0  3  0  0  0  0  0  0  0  0  0  0
  149.5536  141.0723  155.8860 C   0  0  0  0  0  0  0  0  0  0  0  0
  148.7376  136.3573  155.0831 N   0  5  0  0  0  0  0  0  0  0  0  0
  148.2980  134.9978  155.4522 C   0  0  2  0  0  0  0  0  0  0  0  0
  149.5139  134.0519  155.4388 C   0  0  0  0  0  0  0  0  0  0  0  0
  149.5858  133.4717  154.0101 C   0  0  0  0  0  0  0  0  0  0  0  0
  148.4062  134.0075  153.3014 N   0  3  1  0  0  0  0  0  0  0  0  0
  147.8217  133.1683  152.2318 C   0  0  0  0  0  0  0  0  0  0  0  0
  146.6494  133.9201  151.5691 C   0  0  0  0  0  0  0  0  0  0  0  0
  145.6074  134.3884  152.6055 C   0  0  0  0  0  0  0  0  0  0  0  0
  146.2729  135.2056  153.7298 C   0  0  0  0  0  0  0  0  0  0  0  0
  147.4319  134.3848  154.3386 C   0  0  2  0  0  0  0  0  0  0  0  0
  148.7693  138.7910  154.6999 H   0  0  0  0  0  0  0  0  0  0  0  0
  151.4297  138.4951  157.1015 H   0  0  0  0  0  0  0  0  0  0  0  0
  152.5780  140.3929  158.1900 H   0  0  0  0  0  0  0  0  0  0  0  0
  151.6884  144.6180  156.5156 H   0  0  0  0  0  0  0  0  0  0  0  0
  150.3738  144.4787  157.6947 H   0  0  0  0  0  0  0  0  0  0  0  0
  153.2068  145.4882  158.1434 H   0  0  0  0  0  0  0  0  0  0  0  0
  151.7069  146.2419  158.6903 H   0  0  0  0  0  0  0  0  0  0  0  0
  153.1381  144.7064  160.4289 H   0  0  0  0  0  0  0  0  0  0  0  0
  151.3836  144.5466  160.3733 H   0  0  0  0  0  0  0  0  0  0  0  0
  151.8376  142.3080  159.9049 H   0  0  0  0  0  0  0  0  0  0  0  0
  153.4331  142.6632  159.2306 H   0  0  0  0  0  0  0  0  0  0  0  0
  148.7281  141.3927  155.2703 H   0  0  0  0  0  0  0  0  0  0  0  0
  147.7809  134.9560  156.4118 H   0  0  0  0  0  0  0  0  0  0  0  0
  150.4415  134.5455  155.7332 H   0  0  0  0  0  0  0  0  0  0  0  0
  149.3499  133.2394  156.1476 H   0  0  0  0  0  0  0  0  0  0  0  0
  150.4971  133.7704  153.4907 H   0  0  0  0  0  0  0  0  0  0  0  0
  149.5585  132.3812  154.0421 H   0  0  0  0  0  0  0  0  0  0  0  0
  148.5874  132.9356  151.4912 H   0  0  0  0  0  0  0  0  0  0  0  0
  147.4784  132.2214  152.6511 H   0  0  0  0  0  0  0  0  0  0  0  0
  147.0354  134.7874  151.0318 H   0  0  0  0  0  0  0  0  0  0  0  0
  146.1732  133.2835  150.8229 H   0  0  0  0  0  0  0  0  0  0  0  0
  144.8341  134.9827  152.1179 H   0  0  0  0  0  0  0  0  0  0  0  0
  145.1060  133.5199  153.0342 H   0  0  0  0  0  0  0  0  0  0  0  0
  146.6315  136.1496  153.3152 H   0  0  0  0  0  0  0  0  0  0  0  0
  145.5333  135.4580  154.4913 H   0  0  0  0  0  0  0  0  0  0  0  0
  147.0059  133.4620  154.7391 H   0  0  0  0  0  0  0  0  0  0  0  0
  148.7026  134.8787  152.8840 H   0  0  0  0  0  0  0  0  0  0  0  0
  149.8786  143.0334  156.3369 H   0  0  0  0  0  0  0  0  0  0  0  0
  1  2  2  0  0  0  0
  2  3  1  0  0  0  0
  2 15  1  0  0  0  0
  3  4  1  0  0  0  0
  3 25  1  0  0  0  0
  4 14  1  0  0  0  0
  4  5  2  0  0  0  0
  5  6  1  0  0  0  0
  5 26  1  0  0  0  0
  6  7  2  0  0  0  0
  6 27  1  0  0  0  0
  7  8  1  0  0  0  0
  7 13  1  0  0  0  0
  8 12  1  0  0  0  0
  8  9  1  0  0  0  0
  9 10  1  0  0  0  0
  9 28  1  0  0  0  0
  9 29  1  0  0  0  0
 10 11  1  0  0  0  0
 10 30  1  0  0  0  0
 10 31  1  0  0  0  0
 11 12  1  0  0  0  0
 11 32  1  0  0  0  0
 11 33  1  0  0  0  0
 12 34  1  0  0  0  0
 12 35  1  0  0  0  0
 13 14  2  0  0  0  0
 13 52  1  0  0  0  0
 14 36  1  0  0  0  0
 15 16  1  0  0  0  0
 16 24  1  0  0  0  0
 16 17  1  0  0  0  0
 16 37  1  0  0  0  0
 17 18  1  0  0  0  0
 17 38  1  0  0  0  0
 17 39  1  0  0  0  0
 18 19  1  0  0  0  0
 18 40  1  0  0  0  0
 18 41  1  0  0  0  0
 19 24  1  0  0  0  0
 19 20  1  0  0  0  0
 19 51  1  0  0  0  0
 20 21  1  0  0  0  0
 20 42  1  0  0  0  0
 20 43  1  0  0  0  0
 21 22  1  0  0  0  0
 21 44  1  0  0  0  0
 21 45  1  0  0  0  0
 22 23  1  0  0  0  0
 22 46  1  0  0  0  0
 22 47  1  0  0  0  0
 23 24  1  0  0  0  0
 23 48  1  0  0  0  0
 23 49  1  0  0  0  0
 24 50  1  0  0  0  0
M  CHG  1  13   1
M  CHG  1  15  -1
M  CHG  1  19   1
M  END
> <s_m_source_file>
AV-unprocessed.smi

> <i_m_source_file_index>
1867

> <i_lp_mmshare_version>
43012

> <i_f3d_flags>
0

> <s_epik_input>
W0NIMl0xW0NIMl1bQ0gyXVtDSDJdW0NASF0oTjEyKVtDQEBIXShbQ0gyXVtDSDJdMilbTkhdQyg9TylbTkhdYzNbY0hdW2NIXWMobltjSF0zKU40W0NIMl1bQ0gyXVtDSDJdW0NIMl00

> <s_epik_cmdline>
J2VwaWtfcHl0aG9uJywgJy1waCcsICc3LjAnLCAnLXRuJywgJzgnLCAnLW1hJywgJzIwMCcsICctbWV0YWxfYmluZGluZycsICctaW1hZScsICc8aW5maWxlLm1hZT4nLCAnLW9tYWUnLCAnPG91dGZpbGUubWFlPic=

> <r_lp_tautomer_probability>
0.999994

> <r_epik_Ionization_Penalty>
8.56137

> <r_epik_Ionization_Penalty_Charging>
8.56136

> <r_epik_Ionization_Penalty_Neutral>
3.91889e-06

> <r_epik_State_Penalty>
8.16255

> <r_epik_Charging_Adjusted_Penalty>
16.7239

> <i_epik_Tot_Q>
1

> <i_epik_Tot_abs_Q>
3

> <r_epik_Metal_State_Penalty>
4.14279

> <b_epik_Metal_Only>
1

> <s_lp_Force_Field>
OPLS_2005

> <r_lp_Energy>
67.5686

> <b_lp_Chiralities_Consistent>
1

> <s_lp_Variant>
AV-unprocessed.smi:1867-23

> <Gold.Version>
5.8.1

> <Gold.Id.Protein>
6NUR|6NUR_protein|mol2

> <Gold.PLP.Fitness>
49.9800

> <Gold.PLP.PLP>
-38.8135

> <Gold.PLP.part.hbond>
-2.0000

> <Gold.PLP.part.metal>
0.0000

> <Gold.PLP.part.buried>
-2.9917

> <Gold.PLP.part.nonpolar>
-33.3908

> <Gold.PLP.part.repulsive>
0.1954

> <Gold.PLP.ligand.clash>
0.0000

> <Gold.PLP.ligand.torsion>
0.5484

> <Gold.PLP.Chemscore.Hbond>
4.0000

> <Gold.PLP.Chemscore.CHOScore>
0.0000

> <Gold.PLP.Chemscore.Metal>
0.0000

> <Gold.Chemscore.Hbonds>
donor molecule, donor type, donor heavy atom, donor atom, acceptor molecule, acceptor atom, score
      L1  H    13    52       P1  8028  1.79
      L1  H    19    51       P1  7948  2.00

> <Gold.PLP.Chemscore.Internal.Correction>
0.2632

> <Gold.Rescore>
     Score         DG    S(hbond)    S(metal)    S(lipo)     H(rot)  DE(clash)    DE(int)     intcor
     19.01     -21.18       1.93        0.00     101.15       1.00       0.01       2.16       ----

> <Gold.Chemscore.Fitness>
19.0142

> <Gold.Chemscore.DG>
-21.1843

> <Gold.Chemscore.ZeroCoef>
-5.4800

> <Gold.Chemscore.Hbond>
1.9252

> <Gold.Chemscore.Metal>
0.0000

> <Gold.Chemscore.Lipo>
101.1473

> <Gold.Chemscore.Internal_Hbond>
0.0000

> <Gold.Chemscore.DEClash>
0.0112

> <Gold.Chemscore.DEInternal>
2.1589

> <Gold.Chemscore.Rot>
1.0000

> <Gold.Chemscore.Internal.Correction>
   9.000000E+99

> <Gold.Chemscore.Hbonds>
donor molecule, donor type, donor heavy atom, donor atom, acceptor molecule, acceptor atom, score
      L1  H    13    52       P1  8028  0.87
      L1  H    19    51       P1  7948  0.26

> <Gold.Chemscore.Hbond.Weighted>
-6.4301

> <Gold.Chemscore.Metal.Weighted>
-0.0000

> <Gold.Chemscore.Lipo.Weighted>
-11.8342

> <Gold.Chemscore.Internal_Hbond.Weighted>
0.0000

> <Gold.Chemscore.DEClash.Weighted>
0.0112

> <Gold.Chemscore.DEInternal.Weighted>
2.1589

> <Gold.Chemscore.Rot.Weighted>
2.5600

> <Gold.Chemscore.Internal.Correction.Weighted>
   9.000000E+99

> <Gold.Protein.RotatedTorsions>
[ 6907 6896 6895 6894 ] final   62.67 input  -60.11 | X-H torsion
[ 7974 7965 7964 7962 ] final   -0.46 input  175.53 | X-H torsion
[ 8008 7997 7996 7995 ] final  -64.31 input   59.86 | X-H torsion
[ 10167 10162 10161 10158 ] final -166.50 input  -65.29 | X-H torsion
[ 10718 10713 10712 10709 ] final  -84.51 input   66.30 | X-H torsion
[ 10763 10752 10751 10750 ] final   57.82 input  -60.55 | X-H torsion
[ 11005 11000 10999 10996 ] final    7.09 input  -57.11 | X-H torsion

> <Gold.Protein.ActiveResidues>
 VAL166  LYS551  ARG553  GLY616  TRP617  ASP618  TYR619  PRO620  LYS621  CYS622 
 ASP623  PHE694  ASN695  SER759  ASP760  ASP761  ALA762  ILE779  LEU786  VAL792 
 PHE793  MET794  SER795  GLU796  ALA797  LYS798  CYS799  TRP800  GLU811  SER814 

> <Gold.Protein.RotatedAtoms>
  152.4191  134.5988  159.9994 H   0  0  0  0  0  0  0  0  0  0  0  0  # atno 6907 bound_to 6896
  151.6143  133.3339  159.3082 H   0  0  0  0  0  0  0  0  0  0  0  0  # atno 6908 bound_to 6896
  150.8079  134.7254  159.6727 H   0  0  0  0  0  0  0  0  0  0  0  0  # atno 6909 bound_to 6896
  146.2427  140.1272  142.8339 H   0  0  0  0  0  0  0  0  0  0  0  0  # atno 7974 bound_to 7965
  154.4604  140.0956  156.6877 H   0  0  0  0  0  0  0  0  0  0  0  0  # atno 8008 bound_to 7997
  155.5011  140.3473  155.4353 H   0  0  0  0  0  0  0  0  0  0  0  0  # atno 8009 bound_to 7997
  156.0859  140.1385  156.9642 H   0  0  0  0  0  0  0  0  0  0  0  0  # atno 8010 bound_to 7997
  139.6111  144.0813  152.1843 H   0  0  0  0  0  0  0  0  0  0  0  0  # atno 10167 bound_to 10162
  156.0005  130.4700  150.4420 H   0  0  0  0  0  0  0  0  0  0  0  0  # atno 10718 bound_to 10713
  152.9858  135.5628  154.5453 H   0  0  0  0  0  0  0  0  0  0  0  0  # atno 10763 bound_to 10752
  154.4900  135.2792  155.1506 H   0  0  0  0  0  0  0  0  0  0  0  0  # atno 10764 bound_to 10752
  154.2980  135.6313  153.5466 H   0  0  0  0  0  0  0  0  0  0  0  0  # atno 10765 bound_to 10752
  140.5522  134.0272  155.7941 H   0  0  0  0  0  0  0  0  0  0  0  0  # atno 11005 bound_to 11000
  145.0356  140.8905  143.5083 LP  0  0  0  0  0  0  0  0  0  0  0  0  # atno 17320 bound_to 7965
  145.1344  139.2611  143.5522 LP  0  0  0  0  0  0  0  0  0  0  0  0  # atno 17321 bound_to 7965
  140.0432  144.5991  150.7395 LP  0  0  0  0  0  0  0  0  0  0  0  0  # atno 17342 bound_to 10162
  140.7319  143.2700  151.3919 LP  0  0  0  0  0  0  0  0  0  0  0  0  # atno 17343 bound_to 10162
  157.2461  131.0536  151.2407 LP  0  0  0  0  0  0  0  0  0  0  0  0  # atno 17370 bound_to 10713
  157.3574  130.7113  149.6479 LP  0  0  0  0  0  0  0  0  0  0  0  0  # atno 17371 bound_to 10713
  141.1165  133.9532  157.2812 LP  0  0  0  0  0  0  0  0  0  0  0  0  # atno 17394 bound_to 11000
  139.9449  135.0185  156.8823 LP  0  0  0  0  0  0  0  0  0  0  0  0  # atno 17395 bound_to 11000

$$$$
