AV-unprocessed.smi:1209|AV-procd|sdf|5071|dock5
  -GOLD-   22720 4113D 1   1.00000     0.00000
 Structure written by MMmdl.
 49 51  0  0  0  0  0  0  0  0  2 V2000
  154.5726  141.1012  156.2718 C   0  0  0  0  0  0  0  0  0  0  0  0
  153.6527  140.4824  155.2760 C   0  0  0  0  0  0  0  0  0  0  0  0
  152.5777  140.9575  154.5805 C   0  0  0  0  0  0  0  0  0  0  0  0
  152.1611  139.8424  153.8017 C   0  0  0  0  0  0  0  0  0  0  0  0
  151.0160  139.7551  152.8270 C   0  0  0  0  0  0  0  0  0  0  0  0
  149.7277  140.1533  153.3988 N   0  0  0  0  0  0  0  0  0  0  0  0
  149.2876  141.4373  152.8522 C   0  0  0  0  0  0  0  0  0  0  0  0
  148.7300  139.1015  153.1830 C   0  0  0  0  0  0  0  0  0  0  0  0
  148.8855  137.8381  154.0538 C   0  0  2  0  0  0  0  0  0  0  0  0
  149.6389  136.8875  153.3271 O   0  0  0  0  0  0  0  0  0  0  0  0
  147.5129  137.2396  154.4203 C   0  0  0  0  0  0  0  0  0  0  0  0
  146.6993  136.8947  153.2452 N   0  0  0  0  0  0  0  0  0  0  0  0
  146.1977  137.6996  152.2699 C   0  0  0  0  0  0  0  0  0  0  0  0
  145.5199  136.9092  151.3923 N   0  3  0  0  0  0  0  0  0  0  0  0
  145.5869  135.5799  151.8147 C   0  0  0  0  0  0  0  0  0  0  0  0
  145.0579  134.4210  151.2589 C   0  0  0  0  0  0  0  0  0  0  0  0
  145.3032  133.2083  151.9416 C   0  0  0  0  0  0  0  0  0  0  0  0
  144.7384  131.9225  151.3619 C   0  0  0  0  0  0  0  0  0  0  0  0
  146.0574  133.1868  153.1434 C   0  0  0  0  0  0  0  0  0  0  0  0
  146.3095  131.8786  153.8735 C   0  0  0  0  0  0  0  0  0  0  0  0
  146.5890  134.3763  153.6907 C   0  0  0  0  0  0  0  0  0  0  0  0
  146.3401  135.5628  153.0046 C   0  0  0  0  0  0  0  0  0  0  0  0
  152.9234  138.7826  154.0167 N   0  0  0  0  0  0  0  0  0  0  0  0
  153.8794  139.1819  154.9573 O   0  0  0  0  0  0  0  0  0  0  0  0
  154.5597  142.1880  156.1895 H   0  0  0  0  0  0  0  0  0  0  0  0
  155.5977  140.7636  156.1175 H   0  0  0  0  0  0  0  0  0  0  0  0
  154.2769  140.8353  157.2868 H   0  0  0  0  0  0  0  0  0  0  0  0
  152.1543  141.9502  154.6186 H   0  0  0  0  0  0  0  0  0  0  0  0
  151.2250  140.3550  151.9395 H   0  0  0  0  0  0  0  0  0  0  0  0
  150.9520  138.7240  152.4776 H   0  0  0  0  0  0  0  0  0  0  0  0
  148.3763  141.7866  153.3350 H   0  0  0  0  0  0  0  0  0  0  0  0
  149.1010  141.3656  151.7799 H   0  0  0  0  0  0  0  0  0  0  0  0
  150.0374  142.2126  153.0108 H   0  0  0  0  0  0  0  0  0  0  0  0
  147.7342  139.5211  153.3350 H   0  0  0  0  0  0  0  0  0  0  0  0
  148.7583  138.7861  152.1387 H   0  0  0  0  0  0  0  0  0  0  0  0
  149.4163  138.0645  154.9776 H   0  0  0  0  0  0  0  0  0  0  0  0
  149.0709  136.4884  152.6849 H   0  0  0  0  0  0  0  0  0  0  0  0
  147.6536  136.3198  154.9894 H   0  0  0  0  0  0  0  0  0  0  0  0
  146.9455  137.9110  155.0656 H   0  0  0  0  0  0  0  0  0  0  0  0
  146.3186  138.7711  152.2015 H   0  0  0  0  0  0  0  0  0  0  0  0
  144.4827  134.4458  150.3448 H   0  0  0  0  0  0  0  0  0  0  0  0
  145.5390  131.2130  151.1500 H   0  0  0  0  0  0  0  0  0  0  0  0
  144.2021  132.1056  150.4304 H   0  0  0  0  0  0  0  0  0  0  0  0
  144.0424  131.4607  152.0626 H   0  0  0  0  0  0  0  0  0  0  0  0
  146.9148  132.0315  154.7678 H   0  0  0  0  0  0  0  0  0  0  0  0
  146.8385  131.1756  153.2301 H   0  0  0  0  0  0  0  0  0  0  0  0
  145.3672  131.4258  154.1829 H   0  0  0  0  0  0  0  0  0  0  0  0
  147.1572  134.3601  154.6089 H   0  0  0  0  0  0  0  0  0  0  0  0
  145.0475  137.2541  150.5666 H   0  0  0  0  0  0  0  0  0  0  0  0
  1  2  1  0  0  0  0
  1 25  1  0  0  0  0
  1 26  1  0  0  0  0
  1 27  1  0  0  0  0
  2 24  1  0  0  0  0
  2  3  2  0  0  0  0
  3  4  1  0  0  0  0
  3 28  1  0  0  0  0
  4  5  1  0  0  0  0
  4 23  2  0  0  0  0
  5  6  1  0  0  0  0
  5 29  1  0  0  0  0
  5 30  1  0  0  0  0
  6  7  1  0  0  0  0
  6  8  1  0  0  0  0
  7 31  1  0  0  0  0
  7 32  1  0  0  0  0
  7 33  1  0  0  0  0
  8  9  1  0  0  0  0
  8 34  1  0  0  0  0
  8 35  1  0  0  0  0
  9 10  1  0  0  0  0
  9 11  1  0  0  0  0
  9 36  1  0  0  0  0
 10 37  1  0  0  0  0
 11 12  1  0  0  0  0
 11 38  1  0  0  0  0
 11 39  1  0  0  0  0
 12 22  1  0  0  0  0
 12 13  1  0  0  0  0
 13 14  2  0  0  0  0
 13 40  1  0  0  0  0
 14 15  1  0  0  0  0
 14 49  1  0  0  0  0
 15 22  2  0  0  0  0
 15 16  1  0  0  0  0
 16 17  2  0  0  0  0
 16 41  1  0  0  0  0
 17 18  1  0  0  0  0
 17 19  1  0  0  0  0
 18 42  1  0  0  0  0
 18 43  1  0  0  0  0
 18 44  1  0  0  0  0
 19 20  1  0  0  0  0
 19 21  2  0  0  0  0
 20 45  1  0  0  0  0
 20 46  1  0  0  0  0
 20 47  1  0  0  0  0
 21 22  1  0  0  0  0
 21 48  1  0  0  0  0
 23 24  1  0  0  0  0
M  CHG  1  14   1
M  END
> <s_m_source_file>
AV-unprocessed.smi

> <i_m_source_file_index>
1209

> <i_lp_mmshare_version>
43012

> <i_f3d_flags>
0

> <s_epik_input>
W0NIM11jMVtjSF1jKG5vMSlbQ0gyXU4oW0NIM10pW0NIMl1bQ0BIXShbT0hdKVtDSDJdbihbY0hdbjIpYyhjMjMpW2NIXWMoW0NIM10pYyhbY0hdMylbQ0gzXQ==

> <s_epik_cmdline>
J2VwaWtfcHl0aG9uJywgJy1waCcsICc3LjAnLCAnLXRuJywgJzgnLCAnLW1hJywgJzIwMCcsICctbWV0YWxfYmluZGluZycsICctaW1hZScsICc8aW5maWxlLm1hZT4nLCAnLW9tYWUnLCAnPG91dGZpbGUubWFlPic=

> <r_epik_Ionization_Penalty>
1.23608

> <r_epik_Ionization_Penalty_Charging>
1.21624

> <r_epik_Ionization_Penalty_Neutral>
0.0198409

> <r_epik_State_Penalty>
1.27749

> <r_epik_Charging_Adjusted_Penalty>
2.49372

> <i_epik_Tot_Q>
1

> <i_epik_Tot_abs_Q>
1

> <r_epik_Metal_State_Penalty>
1.34809

> <b_epik_Metal_Only>
0

> <s_lp_Force_Field>
OPLS_2005

> <r_lp_Energy>
23.9348

> <b_lp_Chiralities_Consistent>
1

> <s_lp_Variant>
AV-unprocessed.smi:1209-3

> <Gold.Version>
5.8.1

> <Gold.Id.Protein>
6NUR|6NUR_protein|mol2

> <Gold.PLP.Fitness>
45.1748

> <Gold.PLP.PLP>
-36.1106

> <Gold.PLP.part.hbond>
-2.9409

> <Gold.PLP.part.metal>
0.0000

> <Gold.PLP.part.buried>
-2.8267

> <Gold.PLP.part.nonpolar>
-29.7478

> <Gold.PLP.part.repulsive>
0.1347

> <Gold.PLP.ligand.clash>
0.0000

> <Gold.PLP.ligand.torsion>
1.3214

> <Gold.PLP.Chemscore.Hbond>
2.8800

> <Gold.PLP.Chemscore.CHOScore>
1.0000

> <Gold.PLP.Chemscore.Metal>
0.0000

> <Gold.Chemscore.Hbonds>
donor molecule, donor type, donor heavy atom, donor atom, acceptor molecule, acceptor atom, score
      L1  H    14    49       P1 10171  0.96

> <Gold.PLP.Chemscore.Internal.Correction>
0.0669

> <Gold.Rescore>
     Score         DG    S(hbond)    S(metal)    S(lipo)     H(rot)  DE(clash)    DE(int)     intcor
     16.24     -18.66       2.69        0.00      91.05       2.53       0.06       2.36       ----

> <Gold.Chemscore.Fitness>
16.2396

> <Gold.Chemscore.DG>
-18.6637

> <Gold.Chemscore.ZeroCoef>
-5.4800

> <Gold.Chemscore.Hbond>
2.6942

> <Gold.Chemscore.Metal>
0.0000

> <Gold.Chemscore.Lipo>
91.0503

> <Gold.Chemscore.Internal_Hbond>
0.0000

> <Gold.Chemscore.DEClash>
0.0601

> <Gold.Chemscore.DEInternal>
2.3640

> <Gold.Chemscore.Rot>
2.5265

> <Gold.Chemscore.Internal.Correction>
   9.000000E+99

> <Gold.Chemscore.Hbonds>
donor molecule, donor type, donor heavy atom, donor atom, acceptor molecule, acceptor atom, score
      L1  H    14    49       P1 10171  0.92

> <Gold.Chemscore.Hbond.Weighted>
-8.9985

> <Gold.Chemscore.Metal.Weighted>
-0.0000

> <Gold.Chemscore.Lipo.Weighted>
-10.6529

> <Gold.Chemscore.Internal_Hbond.Weighted>
0.0000

> <Gold.Chemscore.DEClash.Weighted>
0.0601

> <Gold.Chemscore.DEInternal.Weighted>
2.3640

> <Gold.Chemscore.Rot.Weighted>
6.4677

> <Gold.Chemscore.Internal.Correction.Weighted>
   9.000000E+99

> <Gold.Protein.RotatedTorsions>
[ 6907 6896 6895 6894 ] final  -11.32 input  -60.11 | X-H torsion
[ 7974 7965 7964 7962 ] final  -20.21 input  175.53 | X-H torsion
[ 8008 7997 7996 7995 ] final   63.31 input   59.86 | X-H torsion
[ 10167 10162 10161 10158 ] final  107.21 input  -65.29 | X-H torsion
[ 10718 10713 10712 10709 ] final  -31.22 input   66.30 | X-H torsion
[ 10763 10752 10751 10750 ] final -179.37 input  -60.55 | X-H torsion
[ 11005 11000 10999 10996 ] final  -89.70 input  -57.11 | X-H torsion

> <Gold.Protein.ActiveResidues>
 VAL166  LYS551  ARG553  GLY616  TRP617  ASP618  TYR619  PRO620  LYS621  CYS622 
 ASP623  PHE694  ASN695  SER759  ASP760  ASP761  ALA762  ILE779  LEU786  VAL792 
 PHE793  MET794  SER795  GLU796  ALA797  LYS798  CYS799  TRP800  GLU811  SER814 

> <Gold.Protein.RotatedAtoms>
  151.3880  135.0951  159.9517 H   0  0  0  0  0  0  0  0  0  0  0  0  # atno 6907 bound_to 6896
  152.5088  133.9007  159.7450 H   0  0  0  0  0  0  0  0  0  0  0  0  # atno 6908 bound_to 6896
  150.9454  133.6553  159.2811 H   0  0  0  0  0  0  0  0  0  0  0  0  # atno 6909 bound_to 6896
  146.1800  140.4170  142.8498 H   0  0  0  0  0  0  0  0  0  0  0  0  # atno 7974 bound_to 7965
  155.6281  140.3496  155.4674 H   0  0  0  0  0  0  0  0  0  0  0  0  # atno 8008 bound_to 7997
  156.0025  140.1216  157.0557 H   0  0  0  0  0  0  0  0  0  0  0  0  # atno 8009 bound_to 7997
  154.4253  140.1097  156.5703 H   0  0  0  0  0  0  0  0  0  0  0  0  # atno 8010 bound_to 7997
  139.6945  144.7103  151.1290 H   0  0  0  0  0  0  0  0  0  0  0  0  # atno 10167 bound_to 10162
  156.3900  130.4371  149.7402 H   0  0  0  0  0  0  0  0  0  0  0  0  # atno 10718 bound_to 10713
  154.5359  135.2803  155.1139 H   0  0  0  0  0  0  0  0  0  0  0  0  # atno 10763 bound_to 10752
  154.2640  135.6316  153.5289 H   0  0  0  0  0  0  0  0  0  0  0  0  # atno 10764 bound_to 10752
  152.9967  135.5612  154.5885 H   0  0  0  0  0  0  0  0  0  0  0  0  # atno 10765 bound_to 10752
  141.1580  133.7646  156.9632 H   0  0  0  0  0  0  0  0  0  0  0  0  # atno 11005 bound_to 11000
  144.8300  140.6691  143.6297 LP  0  0  0  0  0  0  0  0  0  0  0  0  # atno 17320 bound_to 7965
  145.4102  139.1581  143.4130 LP  0  0  0  0  0  0  0  0  0  0  0  0  # atno 17321 bound_to 7965
  140.7692  143.5511  150.9204 LP  0  0  0  0  0  0  0  0  0  0  0  0  # atno 17342 bound_to 10162
  139.9190  143.6629  152.3100 LP  0  0  0  0  0  0  0  0  0  0  0  0  # atno 17343 bound_to 10162
  156.4459  130.7883  151.2905 LP  0  0  0  0  0  0  0  0  0  0  0  0  # atno 17370 bound_to 10713
  157.7498  131.0110  150.3329 LP  0  0  0  0  0  0  0  0  0  0  0  0  # atno 17371 bound_to 10713
  140.1179  134.9435  157.2161 LP  0  0  0  0  0  0  0  0  0  0  0  0  # atno 17394 bound_to 11000
  140.3109  134.3024  155.7267 LP  0  0  0  0  0  0  0  0  0  0  0  0  # atno 17395 bound_to 11000

$$$$
