AV-unprocessed.smi:2061|AV-procd|sdf|8387|dock1
  -GOLD-   2272011 63D 1   1.00000     0.00000
 Structure written by MMmdl.
 45 46  0  0  0  0  0  0  0  0  3 V2000
  147.3838  136.3571  163.2155 C   0  0  0  0  0  0  0  0  0  0  0  0
  147.0346  136.2667  161.7691 C   0  0  0  0  0  0  0  0  0  0  0  0
  146.5757  135.2442  160.9878 C   0  0  0  0  0  0  0  0  0  0  0  0
  146.4608  135.8429  159.7034 C   0  0  0  0  0  0  0  0  0  0  0  0
  146.0275  135.2397  158.5855 N   0  5  0  0  0  0  0  0  0  0  0  0
  146.1557  135.8513  157.3861 C   0  0  0  0  0  0  0  0  0  0  0  0
  145.2513  136.3618  156.7215 O   0  0  0  0  0  0  0  0  0  0  0  0
  147.4138  135.8719  156.9276 N   0  0  0  0  0  0  0  0  0  0  0  0
  147.8424  136.4516  155.6595 C   0  0  0  0  0  0  0  0  0  0  0  0
  149.3361  136.8690  155.6812 C   0  0  1  0  0  0  0  0  0  0  0  0
  150.2267  135.6403  155.9894 C   0  0  0  0  0  0  0  0  0  0  0  0
  149.7641  137.5358  154.4026 N   0  3  1  0  0  0  0  0  0  0  0  0
  149.1621  138.8675  154.1204 C   0  0  0  0  0  0  0  0  0  0  0  0
  149.7733  139.9561  155.0272 C   0  0  2  0  0  0  0  0  0  0  0  0
  149.2032  141.3457  154.7244 C   0  0  0  0  0  0  0  0  0  0  0  0
  151.1797  139.9983  154.8030 O   0  0  0  0  0  0  0  0  0  0  0  0
  151.8340  138.7671  155.0965 C   0  0  2  0  0  0  0  0  0  0  0  0
  153.3341  138.9564  154.8454 C   0  0  0  0  0  0  0  0  0  0  0  0
  151.2364  137.6508  154.2115 C   0  0  0  0  0  0  0  0  0  0  0  0
  146.8038  137.1200  159.7085 N   0  0  0  0  0  0  0  0  0  0  0  0
  147.1799  137.3981  161.0279 O   0  0  0  0  0  0  0  0  0  0  0  0
  146.5490  136.0292  163.8350 H   0  0  0  0  0  0  0  0  0  0  0  0
  147.6311  137.3806  163.4979 H   0  0  0  0  0  0  0  0  0  0  0  0
  148.2432  135.7265  163.4439 H   0  0  0  0  0  0  0  0  0  0  0  0
  146.3595  134.2293  161.2859 H   0  0  0  0  0  0  0  0  0  0  0  0
  148.1238  135.4432  157.5032 H   0  0  0  0  0  0  0  0  0  0  0  0
  147.6651  135.7449  154.8468 H   0  0  0  0  0  0  0  0  0  0  0  0
  147.1907  137.3093  155.4984 H   0  0  0  0  0  0  0  0  0  0  0  0
  149.4560  137.5762  156.5015 H   0  0  0  0  0  0  0  0  0  0  0  0
  149.8893  135.0966  156.8713 H   0  0  0  0  0  0  0  0  0  0  0  0
  151.2576  135.9148  156.2052 H   0  0  0  0  0  0  0  0  0  0  0  0
  150.2299  134.9366  155.1565 H   0  0  0  0  0  0  0  0  0  0  0  0
  149.3762  139.1165  153.0799 H   0  0  0  0  0  0  0  0  0  0  0  0
  148.0758  138.8579  154.1764 H   0  0  0  0  0  0  0  0  0  0  0  0
  149.5803  139.7287  156.0765 H   0  0  0  0  0  0  0  0  0  0  0  0
  148.1256  141.3716  154.8887 H   0  0  0  0  0  0  0  0  0  0  0  0
  149.3919  141.6344  153.6899 H   0  0  0  0  0  0  0  0  0  0  0  0
  149.6550  142.1006  155.3683 H   0  0  0  0  0  0  0  0  0  0  0  0
  151.6954  138.5312  156.1522 H   0  0  0  0  0  0  0  0  0  0  0  0
  153.8875  138.0445  155.0704 H   0  0  0  0  0  0  0  0  0  0  0  0
  153.7370  139.7517  155.4731 H   0  0  0  0  0  0  0  0  0  0  0  0
  153.5316  139.2203  153.8060 H   0  0  0  0  0  0  0  0  0  0  0  0
  151.7524  136.7071  154.3712 H   0  0  0  0  0  0  0  0  0  0  0  0
  151.4187  137.8941  153.1636 H   0  0  0  0  0  0  0  0  0  0  0  0
  149.4310  136.9247  153.6705 H   0  0  0  0  0  0  0  0  0  0  0  0
  1  2  1  0  0  0  0
  1 22  1  0  0  0  0
  1 23  1  0  0  0  0
  1 24  1  0  0  0  0
  2 21  1  0  0  0  0
  2  3  2  0  0  0  0
  3  4  1  0  0  0  0
  3 25  1  0  0  0  0
  4  5  1  0  0  0  0
  4 20  2  0  0  0  0
  5  6  1  0  0  0  0
  6  7  2  0  0  0  0
  6  8  1  0  0  0  0
  8  9  1  0  0  0  0
  8 26  1  0  0  0  0
  9 10  1  0  0  0  0
  9 27  1  0  0  0  0
  9 28  1  0  0  0  0
 10 11  1  0  0  0  0
 10 12  1  0  0  0  0
 10 29  1  0  0  0  0
 11 30  1  0  0  0  0
 11 31  1  0  0  0  0
 11 32  1  0  0  0  0
 12 19  1  0  0  0  0
 12 13  1  0  0  0  0
 12 45  1  0  0  0  0
 13 14  1  0  0  0  0
 13 33  1  0  0  0  0
 13 34  1  0  0  0  0
 14 15  1  0  0  0  0
 14 16  1  0  0  0  0
 14 35  1  0  0  0  0
 15 36  1  0  0  0  0
 15 37  1  0  0  0  0
 15 38  1  0  0  0  0
 16 17  1  0  0  0  0
 17 18  1  0  0  0  0
 17 19  1  0  0  0  0
 17 39  1  0  0  0  0
 18 40  1  0  0  0  0
 18 41  1  0  0  0  0
 18 42  1  0  0  0  0
 19 43  1  0  0  0  0
 19 44  1  0  0  0  0
 20 21  1  0  0  0  0
M  CHG  1   5  -1
M  CHG  1  12   1
M  END
> <s_m_source_file>
AV-unprocessed.smi

> <i_m_source_file_index>
2061

> <i_lp_mmshare_version>
43012

> <i_f3d_flags>
0

> <s_epik_input>
W0NIM11jMVtjSF1jKG5vMSlbTkhdQyg9TylbTkhdW0NIMl1bQ0BIXShbQ0gzXSlOMltDSDJdW0NAQEhdKFtDSDNdKU9bQ0BASF0oW0NIM10pW0NIMl0y

> <s_epik_cmdline>
J2VwaWtfcHl0aG9uJywgJy1waCcsICc3LjAnLCAnLXRuJywgJzgnLCAnLW1hJywgJzIwMCcsICctbWV0YWxfYmluZGluZycsICctaW1hZScsICc8aW5maWxlLm1hZT4nLCAnLW9tYWUnLCAnPG91dGZpbGUubWFlPic=

> <r_epik_Ionization_Penalty>
6.73511

> <r_epik_Ionization_Penalty_Charging>
6.73502

> <r_epik_Ionization_Penalty_Neutral>
9.50841e-05

> <r_epik_State_Penalty>
6.93549

> <r_epik_Charging_Adjusted_Penalty>
13.6705

> <i_epik_Tot_Q>
0

> <i_epik_Tot_abs_Q>
2

> <r_epik_Metal_State_Penalty>
2.87211

> <b_epik_Metal_Only>
1

> <s_lp_Force_Field>
OPLS_2005

> <r_lp_Energy>
11.5912

> <b_lp_Chiralities_Consistent>
1

> <s_lp_Variant>
AV-unprocessed.smi:2061-28

> <Gold.Version>
5.8.1

> <Gold.Id.Protein>
6NUR|6NUR_protein|mol2

> <Gold.PLP.Fitness>
43.3367

> <Gold.PLP.PLP>
-31.7621

> <Gold.PLP.part.hbond>
-4.4139

> <Gold.PLP.part.metal>
0.0000

> <Gold.PLP.part.buried>
-0.7313

> <Gold.PLP.part.nonpolar>
-27.1907

> <Gold.PLP.part.repulsive>
0.0963

> <Gold.PLP.ligand.clash>
0.0000

> <Gold.PLP.ligand.torsion>
1.0695

> <Gold.PLP.Chemscore.Hbond>
4.5340

> <Gold.PLP.Chemscore.CHOScore>
0.0000

> <Gold.PLP.Chemscore.Metal>
0.0000

> <Gold.Chemscore.Hbonds>
donor molecule, donor type, donor heavy atom, donor atom, acceptor molecule, acceptor atom, score
      L1  H    12    45       P1  7948  2.00
      P1  H  6931  6943       L1    21  0.38
      P1  H  6934  6947       L1    21  0.90
      P1  H  7989  7998       L1    16  1.00

> <Gold.PLP.Chemscore.Internal.Correction>
0.1116

> <Gold.Rescore>
     Score         DG    S(hbond)    S(metal)    S(lipo)     H(rot)  DE(clash)    DE(int)     intcor
     18.07     -19.27       2.58        0.00      78.32       1.56       0.14       1.06       ----

> <Gold.Chemscore.Fitness>
18.0671

> <Gold.Chemscore.DG>
-19.2747

> <Gold.Chemscore.ZeroCoef>
-5.4800

> <Gold.Chemscore.Hbond>
2.5783

> <Gold.Chemscore.Metal>
0.0000

> <Gold.Chemscore.Lipo>
78.3236

> <Gold.Chemscore.Internal_Hbond>
0.0000

> <Gold.Chemscore.DEClash>
0.1427

> <Gold.Chemscore.DEInternal>
1.0649

> <Gold.Chemscore.Rot>
1.5550

> <Gold.Chemscore.Internal.Correction>
   9.000000E+99

> <Gold.Chemscore.Hbonds>
donor molecule, donor type, donor heavy atom, donor atom, acceptor molecule, acceptor atom, score
      L1  H    12    45       P1  7948  0.91
      P1  H  6931  6943       L1    21  0.14
      P1  H  6934  6947       L1    21  0.18
      P1  H  7989  7998       L1    16  0.88

> <Gold.Chemscore.Hbond.Weighted>
-8.6117

> <Gold.Chemscore.Metal.Weighted>
-0.0000

> <Gold.Chemscore.Lipo.Weighted>
-9.1639

> <Gold.Chemscore.Internal_Hbond.Weighted>
0.0000

> <Gold.Chemscore.DEClash.Weighted>
0.1427

> <Gold.Chemscore.DEInternal.Weighted>
1.0649

> <Gold.Chemscore.Rot.Weighted>
3.9809

> <Gold.Chemscore.Internal.Correction.Weighted>
   9.000000E+99

> <Gold.Protein.RotatedTorsions>
[ 6907 6896 6895 6894 ] final -116.25 input  -60.11 | X-H torsion
[ 7974 7965 7964 7962 ] final  106.35 input  175.53 | X-H torsion
[ 8008 7997 7996 7995 ] final -154.85 input   59.86 | X-H torsion
[ 10167 10162 10161 10158 ] final   10.75 input  -65.29 | X-H torsion
[ 10718 10713 10712 10709 ] final  -83.65 input   66.30 | X-H torsion
[ 10763 10752 10751 10750 ] final   71.53 input  -60.55 | X-H torsion
[ 11005 11000 10999 10996 ] final  -39.96 input  -57.11 | X-H torsion

> <Gold.Protein.ActiveResidues>
 VAL166  LYS551  ARG553  GLY616  TRP617  ASP618  TYR619  PRO620  LYS621  CYS622 
 ASP623  PHE694  ASN695  SER759  ASP760  ASP761  ALA762  ILE779  LEU786  VAL792 
 PHE793  MET794  SER795  GLU796  ALA797  LYS798  CYS799  TRP800  GLU811  SER814 

> <Gold.Protein.RotatedAtoms>
  150.8041  133.8544  159.3213 H   0  0  0  0  0  0  0  0  0  0  0  0  # atno 6907 bound_to 6896
  151.6347  135.1017  160.0138 H   0  0  0  0  0  0  0  0  0  0  0  0  # atno 6908 bound_to 6896
  152.4130  133.6954  159.6449 H   0  0  0  0  0  0  0  0  0  0  0  0  # atno 6909 bound_to 6896
  145.3077  139.2550  143.3780 H   0  0  0  0  0  0  0  0  0  0  0  0  # atno 7974 bound_to 7965
  155.6928  140.0757  157.2441 H   0  0  0  0  0  0  0  0  0  0  0  0  # atno 8008 bound_to 7997
  154.4086  140.1661  156.2157 H   0  0  0  0  0  0  0  0  0  0  0  0  # atno 8009 bound_to 7997
  155.9437  140.3382  155.6352 H   0  0  0  0  0  0  0  0  0  0  0  0  # atno 8010 bound_to 7997
  140.6175  143.8276  150.7135 H   0  0  0  0  0  0  0  0  0  0  0  0  # atno 10167 bound_to 10162
  156.0016  130.4672  150.4289 H   0  0  0  0  0  0  0  0  0  0  0  0  # atno 10718 bound_to 10713
  153.0404  135.5133  154.7607 H   0  0  0  0  0  0  0  0  0  0  0  0  # atno 10763 bound_to 10752
  154.6549  135.2930  154.9943 H   0  0  0  0  0  0  0  0  0  0  0  0  # atno 10764 bound_to 10752
  154.0814  135.6663  153.4891 H   0  0  0  0  0  0  0  0  0  0  0  0  # atno 10765 bound_to 10752
  141.0140  133.6894  156.2257 H   0  0  0  0  0  0  0  0  0  0  0  0  # atno 11005 bound_to 11000
  146.3129  140.3606  142.8664 LP  0  0  0  0  0  0  0  0  0  0  0  0  # atno 17320 bound_to 7965
  144.9041  140.7678  143.5848 LP  0  0  0  0  0  0  0  0  0  0  0  0  # atno 17321 bound_to 7965
  140.1859  143.4076  152.1899 LP  0  0  0  0  0  0  0  0  0  0  0  0  # atno 17342 bound_to 10162
  139.5411  144.7257  151.4732 LP  0  0  0  0  0  0  0  0  0  0  0  0  # atno 17343 bound_to 10162
  157.2340  131.0510  151.2476 LP  0  0  0  0  0  0  0  0  0  0  0  0  # atno 17370 bound_to 10713
  157.3684  130.7168  149.6548 LP  0  0  0  0  0  0  0  0  0  0  0  0  # atno 17371 bound_to 10713
  140.6686  134.4892  157.5586 LP  0  0  0  0  0  0  0  0  0  0  0  0  # atno 17394 bound_to 11000
  139.9106  134.8353  156.1542 LP  0  0  0  0  0  0  0  0  0  0  0  0  # atno 17395 bound_to 11000

$$$$
