AV-unprocessed.smi:1459|AV-procd|sdf|5924|dock4
  -GOLD-   22720 6 03D 1   1.00000     0.00000
 Structure written by MMmdl.
 34 35  0  0  0  0  0  0  0  0  1 V2000
  150.6018  142.3205  156.3827 C   0  0  0  0  0  0  0  0  0  0  0  0
  150.3850  141.1388  155.5010 C   0  0  0  0  0  0  0  0  0  0  0  0
  149.2762  140.6257  154.8890 C   0  0  0  0  0  0  0  0  0  0  0  0
  149.7849  139.4896  154.2051 C   0  0  0  0  0  0  0  0  0  0  0  0
  148.9310  138.6633  153.4304 N   0  0  0  0  0  0  0  0  0  0  0  0
  147.5996  138.7706  153.2824 C   0  0  0  0  0  0  0  0  0  0  0  0
  146.8955  139.6312  153.8111 O   0  0  0  0  0  0  0  0  0  0  0  0
  147.1239  137.8146  152.4702 N   0  0  0  0  0  0  0  0  0  0  0  0
  145.7244  137.6314  152.0875 C   0  0  2  0  0  0  0  0  0  0  0  0
  144.8599  137.6439  153.3568 C   0  0  0  0  0  0  0  0  0  0  0  0
  145.5501  136.3238  151.2871 C   0  0  2  0  0  0  0  0  0  0  0  0
  144.1002  135.8789  151.0809 C   0  0  0  0  0  0  0  0  0  0  0  0
  144.2650  134.3947  150.8501 C   0  0  0  0  0  0  0  0  0  0  0  0
  145.3774  134.0512  151.8356 C   0  0  0  0  0  0  0  0  0  0  0  0
  146.1650  135.2320  151.9685 O   0  0  0  0  0  0  0  0  0  0  0  0
  151.0867  139.3242  154.3836 N   0  0  0  0  0  0  0  0  0  0  0  0
  151.4779  140.3805  155.2147 O   0  0  0  0  0  0  0  0  0  0  0  0
  149.6861  142.9028  156.4867 H   0  0  0  0  0  0  0  0  0  0  0  0
  151.3717  142.9737  155.9719 H   0  0  0  0  0  0  0  0  0  0  0  0
  150.9183  142.0070  157.3776 H   0  0  0  0  0  0  0  0  0  0  0  0
  148.2657  141.0047  154.9266 H   0  0  0  0  0  0  0  0  0  0  0  0
  149.3828  137.9095  152.9346 H   0  0  0  0  0  0  0  0  0  0  0  0
  147.7834  137.1566  152.0816 H   0  0  0  0  0  0  0  0  0  0  0  0
  145.3989  138.4639  151.4614 H   0  0  0  0  0  0  0  0  0  0  0  0
  143.8012  137.5471  153.1146 H   0  0  0  0  0  0  0  0  0  0  0  0
  144.9841  138.5776  153.9066 H   0  0  0  0  0  0  0  0  0  0  0  0
  145.1232  136.8246  154.0265 H   0  0  0  0  0  0  0  0  0  0  0  0
  146.0313  136.4150  150.3118 H   0  0  0  0  0  0  0  0  0  0  0  0
  143.5120  136.0512  151.9836 H   0  0  0  0  0  0  0  0  0  0  0  0
  143.6102  136.3886  150.2508 H   0  0  0  0  0  0  0  0  0  0  0  0
  143.3505  133.8274  151.0243 H   0  0  0  0  0  0  0  0  0  0  0  0
  144.5957  134.2086  149.8274 H   0  0  0  0  0  0  0  0  0  0  0  0
  144.9583  133.8053  152.8118 H   0  0  0  0  0  0  0  0  0  0  0  0
  145.9799  133.2057  151.5027 H   0  0  0  0  0  0  0  0  0  0  0  0
  1  2  1  0  0  0  0
  1 18  1  0  0  0  0
  1 19  1  0  0  0  0
  1 20  1  0  0  0  0
  2 17  1  0  0  0  0
  2  3  2  0  0  0  0
  3  4  1  0  0  0  0
  3 21  1  0  0  0  0
  4  5  1  0  0  0  0
  4 16  2  0  0  0  0
  5  6  1  0  0  0  0
  5 22  1  0  0  0  0
  6  7  2  0  0  0  0
  6  8  1  0  0  0  0
  8  9  1  0  0  0  0
  8 23  1  0  0  0  0
  9 10  1  0  0  0  0
  9 11  1  0  0  0  0
  9 24  1  0  0  0  0
 10 25  1  0  0  0  0
 10 26  1  0  0  0  0
 10 27  1  0  0  0  0
 11 15  1  0  0  0  0
 11 12  1  0  0  0  0
 11 28  1  0  0  0  0
 12 13  1  0  0  0  0
 12 29  1  0  0  0  0
 12 30  1  0  0  0  0
 13 14  1  0  0  0  0
 13 31  1  0  0  0  0
 13 32  1  0  0  0  0
 14 15  1  0  0  0  0
 14 33  1  0  0  0  0
 14 34  1  0  0  0  0
 16 17  1  0  0  0  0
M  END
> <s_m_source_file>
AV-unprocessed.smi

> <i_m_source_file_index>
1459

> <i_lp_mmshare_version>
43012

> <i_f3d_flags>
0

> <s_epik_input>
W0NIM11jMVtjSF1jKG5vMSlbTkhdQyg9TylbTkhdW0NASF0oW0NIM10pW0NAQEhdMltDSDJdW0NIMl1bQ0gyXU8y

> <s_epik_cmdline>
J2VwaWtfcHl0aG9uJywgJy1waCcsICc3LjAnLCAnLXRuJywgJzgnLCAnLW1hJywgJzIwMCcsICctbWV0YWxfYmluZGluZycsICctaW1hZScsICc8aW5maWxlLm1hZT4nLCAnLW9tYWUnLCAnPG91dGZpbGUubWFlPic=

> <r_lp_tautomer_probability>
1

> <r_epik_Ionization_Penalty>
2.20869e-05

> <r_epik_Ionization_Penalty_Charging>
0

> <r_epik_Ionization_Penalty_Neutral>
2.20869e-05

> <r_epik_State_Penalty>
-0

> <r_epik_Charging_Adjusted_Penalty>
0

> <i_epik_Tot_Q>
0

> <i_epik_Tot_abs_Q>
0

> <r_epik_Metal_State_Penalty>
-0

> <b_epik_Metal_Only>
0

> <s_lp_Force_Field>
OPLS_2005

> <r_lp_Energy>
15.5661

> <b_lp_Chiralities_Consistent>
1

> <s_lp_Variant>
AV-unprocessed.smi:1459-1

> <Gold.Version>
5.8.1

> <Gold.Id.Protein>
6NUR|6NUR_protein|mol2

> <Gold.PLP.Fitness>
32.9680

> <Gold.PLP.PLP>
-27.7503

> <Gold.PLP.part.hbond>
-4.9835

> <Gold.PLP.part.metal>
0.0000

> <Gold.PLP.part.buried>
-2.8830

> <Gold.PLP.part.nonpolar>
-20.7821

> <Gold.PLP.part.repulsive>
1.5686

> <Gold.PLP.ligand.clash>
0.0000

> <Gold.PLP.ligand.torsion>
0.2152

> <Gold.PLP.Chemscore.Hbond>
1.8800

> <Gold.PLP.Chemscore.CHOScore>
0.0000

> <Gold.PLP.Chemscore.Metal>
0.0000

> <Gold.Chemscore.Hbonds>
donor molecule, donor type, donor heavy atom, donor atom, acceptor molecule, acceptor atom, score
      L1  H     5    22       P1  7948  0.85
      L1  H     8    23       P1  7948  0.89

> <Gold.PLP.Chemscore.Internal.Correction>
0.0082

> <Gold.Rescore>
     Score         DG    S(hbond)    S(metal)    S(lipo)     H(rot)  DE(clash)    DE(int)     intcor
     11.81     -14.40       1.91        0.00      49.60       1.28       0.02       2.57       ----

> <Gold.Chemscore.Fitness>
11.8111

> <Gold.Chemscore.DG>
-14.4042

> <Gold.Chemscore.ZeroCoef>
-5.4800

> <Gold.Chemscore.Hbond>
1.9138

> <Gold.Chemscore.Metal>
0.0000

> <Gold.Chemscore.Lipo>
49.5956

> <Gold.Chemscore.Internal_Hbond>
0.0000

> <Gold.Chemscore.DEClash>
0.0231

> <Gold.Chemscore.DEInternal>
2.5700

> <Gold.Chemscore.Rot>
1.2776

> <Gold.Chemscore.Internal.Correction>
   9.000000E+99

> <Gold.Chemscore.Hbonds>
donor molecule, donor type, donor heavy atom, donor atom, acceptor molecule, acceptor atom, score
      L1  H     5    22       P1  7948  0.76
      L1  H     8    23       P1  7948  0.87

> <Gold.Chemscore.Hbond.Weighted>
-6.3922

> <Gold.Chemscore.Metal.Weighted>
-0.0000

> <Gold.Chemscore.Lipo.Weighted>
-5.8027

> <Gold.Chemscore.Internal_Hbond.Weighted>
0.0000

> <Gold.Chemscore.DEClash.Weighted>
0.0231

> <Gold.Chemscore.DEInternal.Weighted>
2.5700

> <Gold.Chemscore.Rot.Weighted>
3.2707

> <Gold.Chemscore.Internal.Correction.Weighted>
   9.000000E+99

> <Gold.Protein.RotatedTorsions>
[ 6907 6896 6895 6894 ] final  -14.62 input  -60.11 | X-H torsion
[ 7974 7965 7964 7962 ] final  119.15 input  175.53 | X-H torsion
[ 8008 7997 7996 7995 ] final   -5.90 input   59.86 | X-H torsion
[ 10167 10162 10161 10158 ] final  130.44 input  -65.29 | X-H torsion
[ 10718 10713 10712 10709 ] final  -67.02 input   66.30 | X-H torsion
[ 10763 10752 10751 10750 ] final  -73.17 input  -60.55 | X-H torsion
[ 11005 11000 10999 10996 ] final  -66.04 input  -57.11 | X-H torsion

> <Gold.Protein.ActiveResidues>
 VAL166  LYS551  ARG553  GLY616  TRP617  ASP618  TYR619  PRO620  LYS621  CYS622 
 ASP623  PHE694  ASN695  SER759  ASP760  ASP761  ALA762  ILE779  LEU786  VAL792 
 PHE793  MET794  SER795  GLU796  ALA797  LYS798  CYS799  TRP800  GLU811  SER814 

> <Gold.Protein.RotatedAtoms>
  151.3365  135.0854  159.9356 H   0  0  0  0  0  0  0  0  0  0  0  0  # atno 6907 bound_to 6896
  152.5222  133.9490  159.7673 H   0  0  0  0  0  0  0  0  0  0  0  0  # atno 6908 bound_to 6896
  150.9839  133.6165  159.2748 H   0  0  0  0  0  0  0  0  0  0  0  0  # atno 6909 bound_to 6896
  145.1466  139.3236  143.4588 H   0  0  0  0  0  0  0  0  0  0  0  0  # atno 7974 bound_to 7965
  154.5991  140.2446  155.7816 H   0  0  0  0  0  0  0  0  0  0  0  0  # atno 8008 bound_to 7997
  156.2299  140.2970  156.0115 H   0  0  0  0  0  0  0  0  0  0  0  0  # atno 8009 bound_to 7997
  155.2241  140.0401  157.2943 H   0  0  0  0  0  0  0  0  0  0  0  0  # atno 8010 bound_to 7997
  139.5430  144.6748  151.4564 H   0  0  0  0  0  0  0  0  0  0  0  0  # atno 10167 bound_to 10162
  156.0580  130.4271  150.1794 H   0  0  0  0  0  0  0  0  0  0  0  0  # atno 10718 bound_to 10713
  154.4558  135.5906  153.6222 H   0  0  0  0  0  0  0  0  0  0  0  0  # atno 10763 bound_to 10752
  152.9818  135.6032  154.3548 H   0  0  0  0  0  0  0  0  0  0  0  0  # atno 10764 bound_to 10752
  154.3414  135.2841  155.2399 H   0  0  0  0  0  0  0  0  0  0  0  0  # atno 10765 bound_to 10752
  141.1471  133.6692  156.6079 H   0  0  0  0  0  0  0  0  0  0  0  0  # atno 11005 bound_to 11000
  146.3499  140.1523  142.8592 LP  0  0  0  0  0  0  0  0  0  0  0  0  # atno 17320 bound_to 7965
  145.0476  140.8993  143.5015 LP  0  0  0  0  0  0  0  0  0  0  0  0  # atno 17321 bound_to 7965
  140.6667  143.8382  150.6950 LP  0  0  0  0  0  0  0  0  0  0  0  0  # atno 17342 bound_to 10162
  140.1793  143.4128  152.1944 LP  0  0  0  0  0  0  0  0  0  0  0  0  # atno 17343 bound_to 10162
  156.9867  130.9881  151.3424 LP  0  0  0  0  0  0  0  0  0  0  0  0  # atno 17370 bound_to 10713
  157.5566  130.8218  149.8212 LP  0  0  0  0  0  0  0  0  0  0  0  0  # atno 17371 bound_to 10713
  140.3637  134.7665  157.4552 LP  0  0  0  0  0  0  0  0  0  0  0  0  # atno 17394 bound_to 11000
  140.0764  134.5791  155.8586 LP  0  0  0  0  0  0  0  0  0  0  0  0  # atno 17395 bound_to 11000

$$$$
