AV-unprocessed.smi:2388|AV-procd|sdf|9471|dock10
  -GOLD-   2272013103D 1   1.00000     0.00000
 Structure written by MMmdl.
 43 44  0  0  0  0  0  0  0  0  1 V2000
  152.9125  140.6575  160.3228 C   0  0  0  0  0  0  0  0  0  0  0  0
  152.5311  141.9127  159.5667 C   0  0  0  0  0  0  0  0  0  0  0  0
  153.0572  143.1673  159.9321 C   0  0  0  0  0  0  0  0  0  0  0  0
  152.6674  144.2927  159.1842 C   0  0  0  0  0  0  0  0  0  0  0  0
  151.7737  144.1187  158.1099 C   0  0  0  0  0  0  0  0  0  0  0  0
  151.2893  142.8253  157.8112 C   0  0  0  0  0  0  0  0  0  0  0  0
  150.3921  142.7575  156.7123 N   0  0  0  0  0  0  0  0  0  0  0  0
  149.9814  141.6675  156.0402 C   0  0  0  0  0  0  0  0  0  0  0  0
  150.3241  140.5101  156.2835 O   0  0  0  0  0  0  0  0  0  0  0  0
  149.1321  141.9988  155.0573 N   0  0  0  0  0  0  0  0  0  0  0  0
  148.4897  141.0595  154.1451 C   0  0  0  0  0  0  0  0  0  0  0  0
  146.9579  141.1715  154.2529 C   0  0  0  0  0  0  0  0  0  0  0  0
  146.4347  142.6183  154.2133 C   0  0  0  0  0  0  0  0  0  0  0  0
  146.8352  143.3736  153.3259 O   0  0  0  0  0  0  0  0  0  0  0  0
  145.5520  143.0231  155.1594 N   0  0  0  0  0  0  0  0  0  0  0  0
  144.9222  144.3491  155.2288 C   0  0  0  0  0  0  0  0  0  0  0  0
  143.4390  144.2115  154.8393 C   0  0  0  0  0  0  0  0  0  0  0  0
  142.7272  143.1840  155.7405 C   0  0  0  0  0  0  0  0  0  0  0  0
  143.5069  141.8575  155.8207 C   0  0  0  0  0  0  0  0  0  0  0  0
  144.9880  142.1077  156.1601 C   0  0  0  0  0  0  0  0  0  0  0  0
  151.6730  141.7457  158.5374 N   0  0  0  0  0  0  0  0  0  0  0  0
  153.5023  140.8934  161.2090 H   0  0  0  0  0  0  0  0  0  0  0  0
  153.5023  139.9981  159.6855 H   0  0  0  0  0  0  0  0  0  0  0  0
  152.0199  140.1187  160.6423 H   0  0  0  0  0  0  0  0  0  0  0  0
  153.7418  143.2676  160.7614 H   0  0  0  0  0  0  0  0  0  0  0  0
  153.0469  145.2736  159.4294 H   0  0  0  0  0  0  0  0  0  0  0  0
  151.4645  144.9733  157.5256 H   0  0  0  0  0  0  0  0  0  0  0  0
  150.0134  143.6415  156.4068 H   0  0  0  0  0  0  0  0  0  0  0  0
  148.9066  142.9751  154.9348 H   0  0  0  0  0  0  0  0  0  0  0  0
  148.7999  141.2425  153.1145 H   0  0  0  0  0  0  0  0  0  0  0  0
  148.8212  140.0533  154.4053 H   0  0  0  0  0  0  0  0  0  0  0  0
  146.4952  140.6135  153.4377 H   0  0  0  0  0  0  0  0  0  0  0  0
  146.6401  140.7073  155.1877 H   0  0  0  0  0  0  0  0  0  0  0  0
  145.0038  144.7305  156.2475 H   0  0  0  0  0  0  0  0  0  0  0  0
  145.4052  145.0986  154.6041 H   0  0  0  0  0  0  0  0  0  0  0  0
  142.9399  145.1781  154.9107 H   0  0  0  0  0  0  0  0  0  0  0  0
  143.3637  143.8987  153.7969 H   0  0  0  0  0  0  0  0  0  0  0  0
  142.6291  143.5993  156.7443 H   0  0  0  0  0  0  0  0  0  0  0  0
  141.7136  143.0044  155.3812 H   0  0  0  0  0  0  0  0  0  0  0  0
  143.0553  141.2030  156.5666 H   0  0  0  0  0  0  0  0  0  0  0  0
  143.4369  141.3342  154.8661 H   0  0  0  0  0  0  0  0  0  0  0  0
  145.5217  141.1582  156.2161 H   0  0  0  0  0  0  0  0  0  0  0  0
  145.0756  142.5551  157.1513 H   0  0  0  0  0  0  0  0  0  0  0  0
  1  2  1  0  0  0  0
  1 22  1  0  0  0  0
  1 23  1  0  0  0  0
  1 24  1  0  0  0  0
  2 21  1  0  0  0  0
  2  3  2  0  0  0  0
  3  4  1  0  0  0  0
  3 25  1  0  0  0  0
  4  5  2  0  0  0  0
  4 26  1  0  0  0  0
  5  6  1  0  0  0  0
  5 27  1  0  0  0  0
  6  7  1  0  0  0  0
  6 21  2  0  0  0  0
  7  8  1  0  0  0  0
  7 28  1  0  0  0  0
  8  9  2  0  0  0  0
  8 10  1  0  0  0  0
 10 11  1  0  0  0  0
 10 29  1  0  0  0  0
 11 12  1  0  0  0  0
 11 30  1  0  0  0  0
 11 31  1  0  0  0  0
 12 13  1  0  0  0  0
 12 32  1  0  0  0  0
 12 33  1  0  0  0  0
 13 14  2  0  0  0  0
 13 15  1  0  0  0  0
 15 20  1  0  0  0  0
 15 16  1  0  0  0  0
 16 17  1  0  0  0  0
 16 34  1  0  0  0  0
 16 35  1  0  0  0  0
 17 18  1  0  0  0  0
 17 36  1  0  0  0  0
 17 37  1  0  0  0  0
 18 19  1  0  0  0  0
 18 38  1  0  0  0  0
 18 39  1  0  0  0  0
 19 20  1  0  0  0  0
 19 40  1  0  0  0  0
 19 41  1  0  0  0  0
 20 42  1  0  0  0  0
 20 43  1  0  0  0  0
M  END
> <s_m_source_file>
AV-unprocessed.smi

> <i_m_source_file_index>
2388

> <i_lp_mmshare_version>
43012

> <i_f3d_flags>
0

> <s_epik_input>
W0NIM11jMVtjSF1bY0hdW2NIXWMobjEpW05IXUMoPU8pW05IXVtDSDJdW0NIMl1DKD1PKU4yW0NIMl1bQ0gyXVtDSDJdW0NIMl1bQ0gyXTI=

> <s_epik_cmdline>
J2VwaWtfcHl0aG9uJywgJy1waCcsICc3LjAnLCAnLXRuJywgJzgnLCAnLW1hJywgJzIwMCcsICctbWV0YWxfYmluZGluZycsICctaW1hZScsICc8aW5maWxlLm1hZT4nLCAnLW9tYWUnLCAnPG91dGZpbGUubWFlPic=

> <r_lp_tautomer_probability>
1

> <r_epik_Ionization_Penalty>
7.16628e-05

> <r_epik_Ionization_Penalty_Charging>
0

> <r_epik_Ionization_Penalty_Neutral>
7.16628e-05

> <r_epik_State_Penalty>
-0

> <r_epik_Charging_Adjusted_Penalty>
0

> <i_epik_Tot_Q>
0

> <i_epik_Tot_abs_Q>
0

> <r_epik_Metal_State_Penalty>
-0

> <b_epik_Metal_Only>
0

> <s_lp_Force_Field>
OPLS_2005

> <r_lp_Energy>
26.3076

> <b_lp_Chiralities_Consistent>
1

> <s_lp_Variant>
AV-unprocessed.smi:2388-1

> <Gold.Version>
5.8.1

> <Gold.Id.Protein>
6NUR|6NUR_protein|mol2

> <Gold.PLP.Fitness>
46.2430

> <Gold.PLP.PLP>
-40.5501

> <Gold.PLP.part.hbond>
-3.0000

> <Gold.PLP.part.metal>
0.0000

> <Gold.PLP.part.buried>
-4.9191

> <Gold.PLP.part.nonpolar>
-33.5906

> <Gold.PLP.part.repulsive>
0.5039

> <Gold.PLP.ligand.clash>
0.0000

> <Gold.PLP.ligand.torsion>
0.2012

> <Gold.PLP.Chemscore.Hbond>
2.0234

> <Gold.PLP.Chemscore.CHOScore>
0.0000

> <Gold.PLP.Chemscore.Metal>
0.0000

> <Gold.Chemscore.Hbonds>
donor molecule, donor type, donor heavy atom, donor atom, acceptor molecule, acceptor atom, score
      L1  H     7    28       P1  8028  1.00
      L1  H    10    29       P1  8028  0.99
      P1  H  8022  8030       L1    14  0.07

> <Gold.PLP.Chemscore.Internal.Correction>
0.0251

> <Gold.Rescore>
     Score         DG    S(hbond)    S(metal)    S(lipo)     H(rot)  DE(clash)    DE(int)     intcor
     15.90     -17.52       1.94        0.00      80.50       1.51       0.08       1.53       ----

> <Gold.Chemscore.Fitness>
15.8985

> <Gold.Chemscore.DG>
-17.5166

> <Gold.Chemscore.ZeroCoef>
-5.4800

> <Gold.Chemscore.Hbond>
1.9435

> <Gold.Chemscore.Metal>
0.0000

> <Gold.Chemscore.Lipo>
80.5030

> <Gold.Chemscore.Internal_Hbond>
0.0000

> <Gold.Chemscore.DEClash>
0.0844

> <Gold.Chemscore.DEInternal>
1.5337

> <Gold.Chemscore.Rot>
1.5131

> <Gold.Chemscore.Internal.Correction>
   9.000000E+99

> <Gold.Chemscore.Hbonds>
donor molecule, donor type, donor heavy atom, donor atom, acceptor molecule, acceptor atom, score
      L1  H     7    28       P1  8028  0.99
      L1  H    10    29       P1  8028  0.93
      P1  H  8022  8030       L1    14  0.08

> <Gold.Chemscore.Hbond.Weighted>
-6.4912

> <Gold.Chemscore.Metal.Weighted>
-0.0000

> <Gold.Chemscore.Lipo.Weighted>
-9.4189

> <Gold.Chemscore.Internal_Hbond.Weighted>
0.0000

> <Gold.Chemscore.DEClash.Weighted>
0.0844

> <Gold.Chemscore.DEInternal.Weighted>
1.5337

> <Gold.Chemscore.Rot.Weighted>
3.8735

> <Gold.Chemscore.Internal.Correction.Weighted>
   9.000000E+99

> <Gold.Protein.RotatedTorsions>
[ 6907 6896 6895 6894 ] final  137.27 input  -60.11 | X-H torsion
[ 7974 7965 7964 7962 ] final  -85.24 input  175.53 | X-H torsion
[ 8008 7997 7996 7995 ] final  157.36 input   59.86 | X-H torsion
[ 10167 10162 10161 10158 ] final -128.90 input  -65.29 | X-H torsion
[ 10718 10713 10712 10709 ] final   73.48 input   66.30 | X-H torsion
[ 10763 10752 10751 10750 ] final  -14.84 input  -60.55 | X-H torsion
[ 11005 11000 10999 10996 ] final  157.09 input  -57.11 | X-H torsion

> <Gold.Protein.ActiveResidues>
 VAL166  LYS551  ARG553  GLY616  TRP617  ASP618  TYR619  PRO620  LYS621  CYS622 
 ASP623  PHE694  ASN695  SER759  ASP760  ASP761  ALA762  ILE779  LEU786  VAL792 
 PHE793  MET794  SER795  GLU796  ALA797  LYS798  CYS799  TRP800  GLU811  SER814 

> <Gold.Protein.RotatedAtoms>
  152.2800  133.5461  159.5491 H   0  0  0  0  0  0  0  0  0  0  0  0  # atno 6907 bound_to 6896
  150.7192  134.0578  159.3829 H   0  0  0  0  0  0  0  0  0  0  0  0  # atno 6908 bound_to 6896
  151.8489  135.0565  160.0507 H   0  0  0  0  0  0  0  0  0  0  0  0  # atno 6909 bound_to 6896
  145.4959  140.9550  143.1786 H   0  0  0  0  0  0  0  0  0  0  0  0  # atno 7974 bound_to 7965
  156.2368  140.1887  156.7097 H   0  0  0  0  0  0  0  0  0  0  0  0  # atno 8008 bound_to 7997
  154.6122  140.0620  156.9535 H   0  0  0  0  0  0  0  0  0  0  0  0  # atno 8009 bound_to 7997
  155.1998  140.3291  155.4347 H   0  0  0  0  0  0  0  0  0  0  0  0  # atno 8010 bound_to 7997
  139.9454  143.6116  152.2491 H   0  0  0  0  0  0  0  0  0  0  0  0  # atno 10167 bound_to 10162
  157.6549  130.9630  150.1075 H   0  0  0  0  0  0  0  0  0  0  0  0  # atno 10718 bound_to 10713
  153.5344  135.7014  153.5667 H   0  0  0  0  0  0  0  0  0  0  0  0  # atno 10763 bound_to 10752
  153.3661  135.3957  155.1754 H   0  0  0  0  0  0  0  0  0  0  0  0  # atno 10764 bound_to 10752
  154.8681  135.3800  154.4843 H   0  0  0  0  0  0  0  0  0  0  0  0  # atno 10765 bound_to 10752
  140.1737  134.8525  157.2721 H   0  0  0  0  0  0  0  0  0  0  0  0  # atno 11005 bound_to 11000
  144.7807  139.6531  143.7155 LP  0  0  0  0  0  0  0  0  0  0  0  0  # atno 17320 bound_to 7965
  146.2256  139.5716  142.9589 LP  0  0  0  0  0  0  0  0  0  0  0  0  # atno 17321 bound_to 7965
  139.6671  144.7662  151.1853 LP  0  0  0  0  0  0  0  0  0  0  0  0  # atno 17342 bound_to 10162
  140.7599  143.5921  150.8785 LP  0  0  0  0  0  0  0  0  0  0  0  0  # atno 17343 bound_to 10162
  156.1980  130.3658  149.8824 LP  0  0  0  0  0  0  0  0  0  0  0  0  # atno 17370 bound_to 10713
  156.6735  130.8830  151.3565 LP  0  0  0  0  0  0  0  0  0  0  0  0  # atno 17371 bound_to 10713
  140.2348  134.3866  155.7506 LP  0  0  0  0  0  0  0  0  0  0  0  0  # atno 17394 bound_to 11000
  141.2219  133.7234  156.8696 LP  0  0  0  0  0  0  0  0  0  0  0  0  # atno 17395 bound_to 11000

$$$$
