AV-unprocessed.smi:247|AV-procd|sdf|1892|dock2
  -GOLD-   2262020553D 1   1.00000     0.00000
 Structure written by MMmdl.
 61 65  0  0  0  0  0  0  0  0  1 V2000
  145.1934  136.2206  150.0679 O   0  0  0  0  0  0  0  0  0  0  0  0
  144.4251  135.0374  149.9715 C   0  0  0  0  0  0  0  0  0  0  0  0
  144.7934  133.9705  151.0405 C   0  0  0  0  0  0  0  0  0  0  0  0
  144.2219  134.4293  152.4203 C   0  0  0  0  0  0  0  0  0  0  0  0
  144.7758  135.6742  152.9325 N   0  0  0  0  0  0  0  0  0  0  0  0
  144.2058  136.9254  152.8508 C   0  0  0  0  0  0  0  0  0  0  0  0
  144.9050  137.8925  153.3779 N   0  0  0  0  0  0  0  0  0  0  0  0
  146.0335  137.2567  153.8805 C   0  0  0  0  0  0  0  0  0  0  0  0
  147.2073  137.6993  154.5531 C   0  0  0  0  0  0  0  0  0  0  0  0
  147.4873  138.9875  154.8463 N   0  0  0  0  0  0  0  0  0  0  0  0
  146.6261  139.9584  154.1751 C   0  0  0  0  0  0  0  0  0  0  0  0
  147.5378  141.0814  153.6720 C   0  0  0  0  0  0  0  0  0  0  0  0
  148.7951  140.9207  154.5178 C   0  0  0  0  0  0  0  0  0  0  0  0
  148.8816  139.3963  154.6693 C   0  0  1  0  0  0  0  0  0  0  0  0
  149.8430  138.8146  155.7623 C   0  0  2  0  0  0  0  0  0  0  0  0
  149.3697  139.0215  157.2212 C   0  0  0  0  0  0  0  0  0  0  0  0
  149.4004  140.4030  157.5713 O   0  0  0  0  0  0  0  0  0  0  0  0
  150.7119  140.9573  157.5524 C   0  0  0  0  0  0  0  0  0  0  0  0
  151.3227  140.8378  156.1470 C   0  0  0  0  0  0  0  0  0  0  0  0
  151.2843  139.3751  155.6815 C   0  0  2  0  0  0  0  0  0  0  0  0
  151.8537  139.2513  154.3946 O   0  0  0  0  0  0  0  0  0  0  0  0
  148.1266  136.7701  154.9100 N   0  0  0  0  0  0  0  0  0  0  0  0
  147.9191  135.4819  154.6207 C   0  0  0  0  0  0  0  0  0  0  0  0
  146.8848  134.9240  153.9874 N   0  0  0  0  0  0  0  0  0  0  0  0
  145.9592  135.8592  153.6269 C   0  0  0  0  0  0  0  0  0  0  0  0
  144.2381  132.5875  150.6115 C   0  0  0  0  0  0  0  0  0  0  0  0
  144.7601  131.4457  151.5015 C   0  0  0  0  0  0  0  0  0  0  0  0
  146.1821  131.4288  151.4798 O   0  0  0  0  0  0  0  0  0  0  0  0
  146.7631  132.6190  151.9991 C   0  0  0  0  0  0  0  0  0  0  0  0
  146.3338  133.8347  151.1546 C   0  0  0  0  0  0  0  0  0  0  0  0
  144.6904  136.9352  149.7081 H   0  0  0  0  0  0  0  0  0  0  0  0
  143.3730  135.3117  150.0558 H   0  0  0  0  0  0  0  0  0  0  0  0
  144.5703  134.6441  148.9654 H   0  0  0  0  0  0  0  0  0  0  0  0
  143.1409  134.5528  152.3827 H   0  0  0  0  0  0  0  0  0  0  0  0
  144.3960  133.6542  153.1678 H   0  0  0  0  0  0  0  0  0  0  0  0
  143.2535  137.1026  152.3728 H   0  0  0  0  0  0  0  0  0  0  0  0
  146.0384  139.5303  153.3621 H   0  0  0  0  0  0  0  0  0  0  0  0
  145.9245  140.3488  154.9125 H   0  0  0  0  0  0  0  0  0  0  0  0
  147.7790  140.9165  152.6210 H   0  0  0  0  0  0  0  0  0  0  0  0
  147.0843  142.0687  153.7636 H   0  0  0  0  0  0  0  0  0  0  0  0
  149.6766  141.3553  154.0459 H   0  0  0  0  0  0  0  0  0  0  0  0
  148.6343  141.4133  155.4768 H   0  0  0  0  0  0  0  0  0  0  0  0
  149.2100  139.0255  153.6985 H   0  0  0  0  0  0  0  0  0  0  0  0
  149.9039  137.7355  155.6126 H   0  0  0  0  0  0  0  0  0  0  0  0
  148.3674  138.6242  157.3753 H   0  0  0  0  0  0  0  0  0  0  0  0
  150.0095  138.4644  157.9079 H   0  0  0  0  0  0  0  0  0  0  0  0
  150.6566  142.0045  157.8496 H   0  0  0  0  0  0  0  0  0  0  0  0
  151.3374  140.4512  158.2894 H   0  0  0  0  0  0  0  0  0  0  0  0
  150.7711  141.4741  155.4542 H   0  0  0  0  0  0  0  0  0  0  0  0
  152.3492  141.2061  156.1570 H   0  0  0  0  0  0  0  0  0  0  0  0
  151.9175  138.7892  156.3493 H   0  0  0  0  0  0  0  0  0  0  0  0
  152.6339  138.7219  154.4611 H   0  0  0  0  0  0  0  0  0  0  0  0
  148.6958  134.8015  154.9366 H   0  0  0  0  0  0  0  0  0  0  0  0
  143.1489  132.5870  150.5918 H   0  0  0  0  0  0  0  0  0  0  0  0
  144.5452  132.3678  149.5884 H   0  0  0  0  0  0  0  0  0  0  0  0
  144.3986  131.5350  152.5261 H   0  0  0  0  0  0  0  0  0  0  0  0
  144.3967  130.4893  151.1255 H   0  0  0  0  0  0  0  0  0  0  0  0
  146.4974  132.7409  153.0492 H   0  0  0  0  0  0  0  0  0  0  0  0
  147.8476  132.5145  151.9681 H   0  0  0  0  0  0  0  0  0  0  0  0
  146.7762  133.7134  150.1657 H   0  0  0  0  0  0  0  0  0  0  0  0
  146.7676  134.7467  151.5661 H   0  0  0  0  0  0  0  0  0  0  0  0
  1  2  1  0  0  0  0
  1 31  1  0  0  0  0
  2  3  1  0  0  0  0
  2 32  1  0  0  0  0
  2 33  1  0  0  0  0
  3 30  1  0  0  0  0
  3  4  1  0  0  0  0
  3 26  1  0  0  0  0
  4  5  1  0  0  0  0
  4 34  1  0  0  0  0
  4 35  1  0  0  0  0
  5 25  1  0  0  0  0
  5  6  1  0  0  0  0
  6  7  2  0  0  0  0
  6 36  1  0  0  0  0
  7  8  1  0  0  0  0
  8 25  2  0  0  0  0
  8  9  1  0  0  0  0
  9 10  1  0  0  0  0
  9 22  2  0  0  0  0
 10 14  1  0  0  0  0
 10 11  1  0  0  0  0
 11 12  1  0  0  0  0
 11 37  1  0  0  0  0
 11 38  1  0  0  0  0
 12 13  1  0  0  0  0
 12 39  1  0  0  0  0
 12 40  1  0  0  0  0
 13 14  1  0  0  0  0
 13 41  1  0  0  0  0
 13 42  1  0  0  0  0
 14 15  1  0  0  0  0
 14 43  1  0  0  0  0
 15 20  1  0  0  0  0
 15 16  1  0  0  0  0
 15 44  1  0  0  0  0
 16 17  1  0  0  0  0
 16 45  1  0  0  0  0
 16 46  1  0  0  0  0
 17 18  1  0  0  0  0
 18 19  1  0  0  0  0
 18 47  1  0  0  0  0
 18 48  1  0  0  0  0
 19 20  1  0  0  0  0
 19 49  1  0  0  0  0
 19 50  1  0  0  0  0
 20 21  1  0  0  0  0
 20 51  1  0  0  0  0
 21 52  1  0  0  0  0
 22 23  1  0  0  0  0
 23 24  2  0  0  0  0
 23 53  1  0  0  0  0
 24 25  1  0  0  0  0
 26 27  1  0  0  0  0
 26 54  1  0  0  0  0
 26 55  1  0  0  0  0
 27 28  1  0  0  0  0
 27 56  1  0  0  0  0
 27 57  1  0  0  0  0
 28 29  1  0  0  0  0
 29 30  1  0  0  0  0
 29 58  1  0  0  0  0
 29 59  1  0  0  0  0
 30 60  1  0  0  0  0
 30 61  1  0  0  0  0
M  END
> <s_m_source_file>
AV-unprocessed.smi

> <i_m_source_file_index>
247

> <i_lp_mmshare_version>
43012

> <i_f3d_flags>
0

> <s_epik_input>
W0NIMl0xW0NIMl1PW0NIMl1bQ0gyXUMxKFtDSDJdW09IXSlbQ0gyXW4oW2NIXW4yKWMoYzIzKW5bY0hdbmMzTjRbQ0gyXVtDSDJdW0NIMl1bQ0BIXTRbQ0BASF01W0NIMl1PW0NIMl1bQ0gyXVtDQEhdNVtPSF0=

> <s_epik_cmdline>
J2VwaWtfcHl0aG9uJywgJy1waCcsICc3LjAnLCAnLXRuJywgJzgnLCAnLW1hJywgJzIwMCcsICctbWV0YWxfYmluZGluZycsICctaW1hZScsICc8aW5maWxlLm1hZT4nLCAnLW9tYWUnLCAnPG91dGZpbGUubWFlPic=

> <r_lp_tautomer_probability>
1

> <r_epik_Ionization_Penalty>
0.00362597

> <r_epik_Ionization_Penalty_Charging>
0

> <r_epik_Ionization_Penalty_Neutral>
0.00362597

> <r_epik_State_Penalty>
0.00241433

> <r_epik_Charging_Adjusted_Penalty>
0.00241433

> <i_epik_Tot_Q>
0

> <i_epik_Tot_abs_Q>
0

> <r_epik_Metal_State_Penalty>
-0

> <b_epik_Metal_Only>
0

> <s_lp_Force_Field>
OPLS_2005

> <r_lp_Energy>
63.5358

> <b_lp_Chiralities_Consistent>
1

> <s_lp_Variant>
AV-unprocessed.smi:247-5

> <Gold.Version>
5.8.1

> <Gold.Id.Protein>
6NUR|6NUR_protein|mol2

> <Gold.PLP.Fitness>
41.9791

> <Gold.PLP.PLP>
-37.8038

> <Gold.PLP.part.hbond>
-3.0000

> <Gold.PLP.part.metal>
0.0000

> <Gold.PLP.part.buried>
-4.8252

> <Gold.PLP.part.nonpolar>
-32.2739

> <Gold.PLP.part.repulsive>
1.8656

> <Gold.PLP.ligand.clash>
0.0000

> <Gold.PLP.ligand.torsion>
1.0208

> <Gold.PLP.Chemscore.Hbond>
1.9760

> <Gold.PLP.Chemscore.CHOScore>
0.0000

> <Gold.PLP.Chemscore.Metal>
0.0000

> <Gold.Chemscore.Hbonds>
donor molecule, donor type, donor heavy atom, donor atom, acceptor molecule, acceptor atom, score
      L1  H     1    31       P1 10171  1.00
      P1  H  7989  7998       L1    21  0.94

> <Gold.PLP.Chemscore.Internal.Correction>
0.2890

> <Gold.Rescore>
     Score         DG    S(hbond)    S(metal)    S(lipo)     H(rot)  DE(clash)    DE(int)     intcor
      8.47     -13.71       1.89        0.00      87.12       3.23       0.21       5.04       ----

> <Gold.Chemscore.Fitness>
8.4675

> <Gold.Chemscore.DG>
-13.7149

> <Gold.Chemscore.ZeroCoef>
-5.4800

> <Gold.Chemscore.Hbond>
1.8877

> <Gold.Chemscore.Metal>
0.0000

> <Gold.Chemscore.Lipo>
87.1220

> <Gold.Chemscore.Internal_Hbond>
0.0000

> <Gold.Chemscore.DEClash>
0.2092

> <Gold.Chemscore.DEInternal>
5.0382

> <Gold.Chemscore.Rot>
3.2278

> <Gold.Chemscore.Internal.Correction>
   9.000000E+99

> <Gold.Chemscore.Hbonds>
donor molecule, donor type, donor heavy atom, donor atom, acceptor molecule, acceptor atom, score
      L1  H     1    31       P1 10171  0.98
      P1  H  7989  7998       L1    21  0.68

> <Gold.Chemscore.Hbond.Weighted>
-6.3049

> <Gold.Chemscore.Metal.Weighted>
-0.0000

> <Gold.Chemscore.Lipo.Weighted>
-10.1933

> <Gold.Chemscore.Internal_Hbond.Weighted>
0.0000

> <Gold.Chemscore.DEClash.Weighted>
0.2092

> <Gold.Chemscore.DEInternal.Weighted>
5.0382

> <Gold.Chemscore.Rot.Weighted>
8.2633

> <Gold.Chemscore.Internal.Correction.Weighted>
   9.000000E+99

> <Gold.Protein.RotatedTorsions>
[ 6907 6896 6895 6894 ] final  -48.58 input  -60.11 | X-H torsion
[ 7974 7965 7964 7962 ] final -164.34 input  175.53 | X-H torsion
[ 8008 7997 7996 7995 ] final -100.88 input   59.86 | X-H torsion
[ 10167 10162 10161 10158 ] final  -22.42 input  -65.29 | X-H torsion
[ 10718 10713 10712 10709 ] final  102.44 input   66.30 | X-H torsion
[ 10763 10752 10751 10750 ] final  138.30 input  -60.55 | X-H torsion
[ 11005 11000 10999 10996 ] final  -37.11 input  -57.11 | X-H torsion

> <Gold.Protein.ActiveResidues>
 VAL166  LYS551  ARG553  GLY616  TRP617  ASP618  TYR619  PRO620  LYS621  CYS622 
 ASP623  PHE694  ASN695  SER759  ASP760  ASP761  ALA762  ILE779  LEU786  VAL792 
 PHE793  MET794  SER795  GLU796  ALA797  LYS798  CYS799  TRP800  GLU811  SER814 

> <Gold.Protein.RotatedAtoms>
  150.8891  134.8293  159.7280 H   0  0  0  0  0  0  0  0  0  0  0  0  # atno 6907 bound_to 6896
  152.4826  134.4676  159.9635 H   0  0  0  0  0  0  0  0  0  0  0  0  # atno 6908 bound_to 6896
  151.4740  133.3523  159.2863 H   0  0  0  0  0  0  0  0  0  0  0  0  # atno 6909 bound_to 6896
  144.7299  140.2975  143.6210 H   0  0  0  0  0  0  0  0  0  0  0  0  # atno 7974 bound_to 7965
  154.8348  140.0438  157.1501 H   0  0  0  0  0  0  0  0  0  0  0  0  # atno 8008 bound_to 7997
  154.9112  140.3014  155.5245 H   0  0  0  0  0  0  0  0  0  0  0  0  # atno 8009 bound_to 7997
  156.2989  140.2358  156.4151 H   0  0  0  0  0  0  0  0  0  0  0  0  # atno 8010 bound_to 7997
  140.7286  143.4537  151.0480 H   0  0  0  0  0  0  0  0  0  0  0  0  # atno 10167 bound_to 10162
  157.6802  131.0753  150.5404 H   0  0  0  0  0  0  0  0  0  0  0  0  # atno 10718 bound_to 10713
  153.8874  135.3037  155.3447 H   0  0  0  0  0  0  0  0  0  0  0  0  # atno 10763 bound_to 10752
  154.7733  135.4874  153.9695 H   0  0  0  0  0  0  0  0  0  0  0  0  # atno 10764 bound_to 10752
  153.1317  135.6805  153.9266 H   0  0  0  0  0  0  0  0  0  0  0  0  # atno 10765 bound_to 10752
  140.9927  133.6996  156.1878 H   0  0  0  0  0  0  0  0  0  0  0  0  # atno 11005 bound_to 11000
  145.7794  139.1886  143.2166 LP  0  0  0  0  0  0  0  0  0  0  0  0  # atno 17320 bound_to 7965
  146.0846  140.7725  142.9625 LP  0  0  0  0  0  0  0  0  0  0  0  0  # atno 17321 bound_to 7965
  139.8215  143.7814  152.3177 LP  0  0  0  0  0  0  0  0  0  0  0  0  # atno 17342 bound_to 10162
  139.7898  144.7414  150.9971 LP  0  0  0  0  0  0  0  0  0  0  0  0  # atno 17343 bound_to 10162
  156.5712  130.4280  149.6019 LP  0  0  0  0  0  0  0  0  0  0  0  0  # atno 17370 bound_to 10713
  156.2739  130.7033  151.1838 LP  0  0  0  0  0  0  0  0  0  0  0  0  # atno 17371 bound_to 10713
  140.7015  134.4559  157.5586 LP  0  0  0  0  0  0  0  0  0  0  0  0  # atno 17394 bound_to 11000
  139.9000  134.8579  156.1938 LP  0  0  0  0  0  0  0  0  0  0  0  0  # atno 17395 bound_to 11000

$$$$
