AV-unprocessed.smi:2104|AV-procd|sdf|8586|dock3
  -GOLD-   2272011313D 1   1.00000     0.00000
 Structure written by MMmdl.
 43 44  0  0  0  0  0  0  0  0  1 V2000
  146.9066  133.7016  162.4908 C   0  0  0  0  0  0  0  0  0  0  0  0
  147.2541  134.9442  161.7454 C   0  0  0  0  0  0  0  0  0  0  0  0
  147.7302  135.1706  160.4846 C   0  0  0  0  0  0  0  0  0  0  0  0
  147.8374  136.5861  160.4327 C   0  0  0  0  0  0  0  0  0  0  0  0
  148.3079  137.2380  159.2645 N   0  0  0  0  0  0  0  0  0  0  0  0
  149.5760  137.3207  158.8275 C   0  0  0  0  0  0  0  0  0  0  0  0
  150.5544  136.8277  159.3900 O   0  0  0  0  0  0  0  0  0  0  0  0
  149.6531  138.0211  157.6873 N   0  0  0  0  0  0  0  0  0  0  0  0
  150.8878  138.3257  156.9718 C   0  0  0  0  0  0  0  0  0  0  0  0
  151.2749  139.8046  157.1149 C   0  0  0  0  0  0  0  0  0  0  0  0
  151.7431  140.0265  158.4372 O   0  0  0  0  0  0  0  0  0  0  0  0
  152.3397  141.2999  158.6485 C   0  0  1  0  0  0  0  0  0  0  0  0
  151.3008  142.4105  158.3874 C   0  0  0  0  0  0  0  0  0  0  0  0
  151.8566  143.7975  158.7410 C   0  0  0  0  0  0  0  0  0  0  0  0
  152.3486  143.8393  160.1942 C   0  0  0  0  0  0  0  0  0  0  0  0
  153.3919  142.7426  160.4544 C   0  0  0  0  0  0  0  0  0  0  0  0
  152.8493  141.3417  160.1069 C   0  0  2  0  0  0  0  0  0  0  0  0
  153.9173  140.2656  160.3659 C   0  0  0  0  0  0  0  0  0  0  0  0
  147.4595  137.1706  161.5592 N   0  0  0  0  0  0  0  0  0  0  0  0
  147.0844  136.1212  162.4065 O   0  0  0  0  0  0  0  0  0  0  0  0
  146.9560  132.8295  161.8386 H   0  0  0  0  0  0  0  0  0  0  0  0
  145.8967  133.7629  162.8967 H   0  0  0  0  0  0  0  0  0  0  0  0
  147.5966  133.5434  163.3199 H   0  0  0  0  0  0  0  0  0  0  0  0
  147.9645  134.4394  159.7249 H   0  0  0  0  0  0  0  0  0  0  0  0
  147.6039  137.6919  158.7018 H   0  0  0  0  0  0  0  0  0  0  0  0
  148.7998  138.3927  157.2961 H   0  0  0  0  0  0  0  0  0  0  0  0
  151.6949  137.6873  157.3346 H   0  0  0  0  0  0  0  0  0  0  0  0
  150.7460  138.0792  155.9193 H   0  0  0  0  0  0  0  0  0  0  0  0
  152.0437  140.0653  156.3861 H   0  0  0  0  0  0  0  0  0  0  0  0
  150.4075  140.4320  156.9099 H   0  0  0  0  0  0  0  0  0  0  0  0
  153.1948  141.4338  157.9826 H   0  0  0  0  0  0  0  0  0  0  0  0
  150.9881  142.4056  157.3434 H   0  0  0  0  0  0  0  0  0  0  0  0
  150.4045  142.2179  158.9784 H   0  0  0  0  0  0  0  0  0  0  0  0
  152.6784  144.0450  158.0679 H   0  0  0  0  0  0  0  0  0  0  0  0
  151.0893  144.5567  158.5860 H   0  0  0  0  0  0  0  0  0  0  0  0
  152.7751  144.8184  160.4144 H   0  0  0  0  0  0  0  0  0  0  0  0
  151.5038  143.7097  160.8719 H   0  0  0  0  0  0  0  0  0  0  0  0
  154.2866  142.9475  159.8646 H   0  0  0  0  0  0  0  0  0  0  0  0
  153.6990  142.7745  161.5005 H   0  0  0  0  0  0  0  0  0  0  0  0
  152.0052  141.1372  160.7674 H   0  0  0  0  0  0  0  0  0  0  0  0
  154.7835  140.4033  159.7181 H   0  0  0  0  0  0  0  0  0  0  0  0
  153.5255  139.2639  160.1866 H   0  0  0  0  0  0  0  0  0  0  0  0
  154.2656  140.2991  161.3985 H   0  0  0  0  0  0  0  0  0  0  0  0
  1  2  1  0  0  0  0
  1 21  1  0  0  0  0
  1 22  1  0  0  0  0
  1 23  1  0  0  0  0
  2 20  1  0  0  0  0
  2  3  2  0  0  0  0
  3  4  1  0  0  0  0
  3 24  1  0  0  0  0
  4  5  1  0  0  0  0
  4 19  2  0  0  0  0
  5  6  1  0  0  0  0
  5 25  1  0  0  0  0
  6  7  2  0  0  0  0
  6  8  1  0  0  0  0
  8  9  1  0  0  0  0
  8 26  1  0  0  0  0
  9 10  1  0  0  0  0
  9 27  1  0  0  0  0
  9 28  1  0  0  0  0
 10 11  1  0  0  0  0
 10 29  1  0  0  0  0
 10 30  1  0  0  0  0
 11 12  1  0  0  0  0
 12 17  1  0  0  0  0
 12 13  1  0  0  0  0
 12 31  1  0  0  0  0
 13 14  1  0  0  0  0
 13 32  1  0  0  0  0
 13 33  1  0  0  0  0
 14 15  1  0  0  0  0
 14 34  1  0  0  0  0
 14 35  1  0  0  0  0
 15 16  1  0  0  0  0
 15 36  1  0  0  0  0
 15 37  1  0  0  0  0
 16 17  1  0  0  0  0
 16 38  1  0  0  0  0
 16 39  1  0  0  0  0
 17 18  1  0  0  0  0
 17 40  1  0  0  0  0
 18 41  1  0  0  0  0
 18 42  1  0  0  0  0
 18 43  1  0  0  0  0
 19 20  1  0  0  0  0
M  END
> <s_m_source_file>
AV-unprocessed.smi

> <i_m_source_file_index>
2104

> <i_lp_mmshare_version>
43012

> <i_f3d_flags>
0

> <s_epik_input>
W0NIM11jMVtjSF1jKG5vMSlbTkhdQyg9TylbTkhdW0NIMl1bQ0gyXU9bQ0BASF0yW0NIMl1bQ0gyXVtDSDJdW0NIMl1bQ0BIXTJbQ0gzXQ==

> <s_epik_cmdline>
J2VwaWtfcHl0aG9uJywgJy1waCcsICc3LjAnLCAnLXRuJywgJzgnLCAnLW1hJywgJzIwMCcsICctbWV0YWxfYmluZGluZycsICctaW1hZScsICc8aW5maWxlLm1hZT4nLCAnLW9tYWUnLCAnPG91dGZpbGUubWFlPic=

> <r_lp_tautomer_probability>
1

> <r_epik_Ionization_Penalty>
2.94418e-05

> <r_epik_Ionization_Penalty_Charging>
0

> <r_epik_Ionization_Penalty_Neutral>
2.94418e-05

> <r_epik_State_Penalty>
-0

> <r_epik_Charging_Adjusted_Penalty>
0

> <i_epik_Tot_Q>
0

> <i_epik_Tot_abs_Q>
0

> <r_epik_Metal_State_Penalty>
0.0104148

> <b_epik_Metal_Only>
0

> <s_lp_Force_Field>
OPLS_2005

> <r_lp_Energy>
8.17473

> <b_lp_Chiralities_Consistent>
1

> <s_lp_Variant>
AV-unprocessed.smi:2104-4

> <Gold.Version>
5.8.1

> <Gold.Id.Protein>
6NUR|6NUR_protein|mol2

> <Gold.PLP.Fitness>
45.8308

> <Gold.PLP.PLP>
-39.1073

> <Gold.PLP.part.hbond>
-3.0000

> <Gold.PLP.part.metal>
0.0000

> <Gold.PLP.part.buried>
-6.1118

> <Gold.PLP.part.nonpolar>
-30.4244

> <Gold.PLP.part.repulsive>
0.2502

> <Gold.PLP.ligand.clash>
0.0000

> <Gold.PLP.ligand.torsion>
0.8418

> <Gold.PLP.Chemscore.Hbond>
2.7920

> <Gold.PLP.Chemscore.CHOScore>
0.0000

> <Gold.PLP.Chemscore.Metal>
0.0000

> <Gold.Chemscore.Hbonds>
donor molecule, donor type, donor heavy atom, donor atom, acceptor molecule, acceptor atom, score
      P1  H  6896  6908       L1     7  1.00
      P1  H  6931  6943       L1    19  0.94
      P1  H  6934  6947       L1    19  0.86

> <Gold.PLP.Chemscore.Internal.Correction>
0.0311

> <Gold.Rescore>
     Score         DG    S(hbond)    S(metal)    S(lipo)     H(rot)  DE(clash)    DE(int)     intcor
     20.53     -21.41       2.55        0.00     101.84       1.75       0.01       0.88       ----

> <Gold.Chemscore.Fitness>
20.5303

> <Gold.Chemscore.DG>
-21.4128

> <Gold.Chemscore.ZeroCoef>
-5.4800

> <Gold.Chemscore.Hbond>
2.5462

> <Gold.Chemscore.Metal>
0.0000

> <Gold.Chemscore.Lipo>
101.8356

> <Gold.Chemscore.Internal_Hbond>
0.0000

> <Gold.Chemscore.DEClash>
0.0073

> <Gold.Chemscore.DEInternal>
0.8752

> <Gold.Chemscore.Rot>
1.7524

> <Gold.Chemscore.Internal.Correction>
   9.000000E+99

> <Gold.Chemscore.Hbonds>
donor molecule, donor type, donor heavy atom, donor atom, acceptor molecule, acceptor atom, score
      P1  H  6896  6908       L1     7  0.99
      P1  H  6931  6943       L1    19  0.23
      P1  H  6934  6947       L1    19  0.25

> <Gold.Chemscore.Hbond.Weighted>
-8.5042

> <Gold.Chemscore.Metal.Weighted>
-0.0000

> <Gold.Chemscore.Lipo.Weighted>
-11.9148

> <Gold.Chemscore.Internal_Hbond.Weighted>
0.0000

> <Gold.Chemscore.DEClash.Weighted>
0.0073

> <Gold.Chemscore.DEInternal.Weighted>
0.8752

> <Gold.Chemscore.Rot.Weighted>
4.4861

> <Gold.Chemscore.Internal.Correction.Weighted>
   9.000000E+99

> <Gold.Protein.RotatedTorsions>
[ 6907 6896 6895 6894 ] final -157.70 input  -60.11 | X-H torsion
[ 7974 7965 7964 7962 ] final  -35.26 input  175.53 | X-H torsion
[ 8008 7997 7996 7995 ] final -140.97 input   59.86 | X-H torsion
[ 10167 10162 10161 10158 ] final   91.35 input  -65.29 | X-H torsion
[ 10718 10713 10712 10709 ] final  102.31 input   66.30 | X-H torsion
[ 10763 10752 10751 10750 ] final  108.50 input  -60.55 | X-H torsion
[ 11005 11000 10999 10996 ] final   89.28 input  -57.11 | X-H torsion

> <Gold.Protein.ActiveResidues>
 VAL166  LYS551  ARG553  GLY616  TRP617  ASP618  TYR619  PRO620  LYS621  CYS622 
 ASP623  PHE694  ASN695  SER759  ASP760  ASP761  ALA762  ILE779  LEU786  VAL792 
 PHE793  MET794  SER795  GLU796  ALA797  LYS798  CYS799  TRP800  GLU811  SER814 

> <Gold.Protein.RotatedAtoms>
  151.3069  133.4097  159.2643 H   0  0  0  0  0  0  0  0  0  0  0  0  # atno 6907 bound_to 6896
  151.0147  134.9424  159.8037 H   0  0  0  0  0  0  0  0  0  0  0  0  # atno 6908 bound_to 6896
  152.5309  134.3033  159.9139 H   0  0  0  0  0  0  0  0  0  0  0  0  # atno 6909 bound_to 6896
  146.0761  140.6137  142.8930 H   0  0  0  0  0  0  0  0  0  0  0  0  # atno 7974 bound_to 7965
  155.4702  140.0552  157.2980 H   0  0  0  0  0  0  0  0  0  0  0  0  # atno 8008 bound_to 7997
  154.4701  140.2036  155.9969 H   0  0  0  0  0  0  0  0  0  0  0  0  # atno 8009 bound_to 7997
  156.1042  140.3214  155.7988 H   0  0  0  0  0  0  0  0  0  0  0  0  # atno 8010 bound_to 7997
  139.8383  144.6653  150.9314 H   0  0  0  0  0  0  0  0  0  0  0  0  # atno 10167 bound_to 10162
  157.6805  131.0749  150.5385 H   0  0  0  0  0  0  0  0  0  0  0  0  # atno 10718 bound_to 10713
  153.4215  135.3810  155.2114 H   0  0  0  0  0  0  0  0  0  0  0  0  # atno 10763 bound_to 10752
  154.8745  135.3818  154.4378 H   0  0  0  0  0  0  0  0  0  0  0  0  # atno 10764 bound_to 10752
  153.4899  135.7088  153.5953 H   0  0  0  0  0  0  0  0  0  0  0  0  # atno 10765 bound_to 10752
  139.8878  134.8541  156.3119 H   0  0  0  0  0  0  0  0  0  0  0  0  # atno 11005 bound_to 11000
  144.7263  140.4534  143.6971 LP  0  0  0  0  0  0  0  0  0  0  0  0  # atno 17320 bound_to 7965
  145.6303  139.1535  143.2973 LP  0  0  0  0  0  0  0  0  0  0  0  0  # atno 17321 bound_to 7965
  140.7800  143.3936  151.1268 LP  0  0  0  0  0  0  0  0  0  0  0  0  # atno 17342 bound_to 10162
  139.7584  143.8672  152.3094 LP  0  0  0  0  0  0  0  0  0  0  0  0  # atno 17343 bound_to 10162
  156.5693  130.4275  149.6027 LP  0  0  0  0  0  0  0  0  0  0  0  0  # atno 17370 bound_to 10713
  156.2754  130.7041  151.1850 LP  0  0  0  0  0  0  0  0  0  0  0  0  # atno 17371 bound_to 10713
  140.9844  133.7247  156.0720 LP  0  0  0  0  0  0  0  0  0  0  0  0  # atno 17394 bound_to 11000
  140.7707  134.3836  157.5508 LP  0  0  0  0  0  0  0  0  0  0  0  0  # atno 17395 bound_to 11000

$$$$
