AV-unprocessed.smi:2788|AV-procd|sdf|10760|dock5
  -GOLD-   2272015193D 1   1.00000     0.00000
 Structure written by MMmdl.
 47 48  0  0  0  0  0  0  0  0  1 V2000
  148.7577  136.0492  158.3476 C   0  0  0  0  0  0  0  0  0  0  0  0
  149.1231  134.9188  157.4281 C   0  0  0  0  0  0  0  0  0  0  0  0
  149.4894  133.7582  157.9444 N   0  0  0  0  0  0  0  0  0  0  0  0
  149.7468  132.9185  156.8566 O   0  0  0  0  0  0  0  0  0  0  0  0
  149.5201  133.6144  155.7139 C   0  0  0  0  0  0  0  0  0  0  0  0
  149.7296  132.8817  154.4321 C   0  0  0  0  0  0  0  0  0  0  0  0
  149.1215  134.8904  156.0029 C   0  0  0  0  0  0  0  0  0  0  0  0
  148.7574  135.9972  155.0457 C   0  0  0  0  0  0  0  0  0  0  0  0
  147.2660  135.9303  154.7168 C   0  0  0  0  0  0  0  0  0  0  0  0
  146.4422  135.9641  155.6291 O   0  0  0  0  0  0  0  0  0  0  0  0
  146.9608  135.8282  153.4098 N   0  0  0  0  0  0  0  0  0  0  0  0
  145.6630  135.7556  152.7179 C   0  0  1  0  0  0  0  0  0  0  0  0
  144.4733  135.7141  153.7156 C   0  0  0  0  0  0  0  0  0  0  0  0
  145.5539  137.1096  151.9618 C   0  0  0  0  0  0  0  0  0  0  0  0
  146.5279  137.2563  150.9474 O   0  0  0  0  0  0  0  0  0  0  0  0
  145.6382  134.5377  151.7227 C   0  0  0  0  0  0  0  0  0  0  0  0
  144.3415  134.4153  150.8792 C   0  0  0  0  0  0  0  0  0  0  0  0
  144.4185  133.2665  149.8614 C   0  0  0  0  0  0  0  0  0  0  0  0
  144.7020  131.9296  150.5569 C   0  0  0  0  0  0  0  0  0  0  0  0
  145.9841  132.0162  151.3940 C   0  0  0  0  0  0  0  0  0  0  0  0
  145.9174  133.1716  152.4062 C   0  0  0  0  0  0  0  0  0  0  0  0
  148.9395  137.0166  157.8800 H   0  0  0  0  0  0  0  0  0  0  0  0
  149.3388  136.0168  159.2698 H   0  0  0  0  0  0  0  0  0  0  0  0
  147.7023  136.0036  158.6170 H   0  0  0  0  0  0  0  0  0  0  0  0
  148.7867  132.4802  154.0611 H   0  0  0  0  0  0  0  0  0  0  0  0
  150.4237  132.0516  154.5646 H   0  0  0  0  0  0  0  0  0  0  0  0
  150.1391  133.5428  153.6684 H   0  0  0  0  0  0  0  0  0  0  0  0
  148.9837  136.9799  155.4600 H   0  0  0  0  0  0  0  0  0  0  0  0
  149.3304  135.9245  154.1209 H   0  0  0  0  0  0  0  0  0  0  0  0
  147.7573  135.8068  152.7899 H   0  0  0  0  0  0  0  0  0  0  0  0
  143.5183  135.7408  153.1903 H   0  0  0  0  0  0  0  0  0  0  0  0
  144.4939  136.5705  154.3905 H   0  0  0  0  0  0  0  0  0  0  0  0
  144.4531  134.8228  154.3386 H   0  0  0  0  0  0  0  0  0  0  0  0
  144.5698  137.2079  151.5010 H   0  0  0  0  0  0  0  0  0  0  0  0
  145.6416  137.9567  152.6421 H   0  0  0  0  0  0  0  0  0  0  0  0
  147.3612  136.9661  151.2860 H   0  0  0  0  0  0  0  0  0  0  0  0
  146.4429  134.7010  151.0047 H   0  0  0  0  0  0  0  0  0  0  0  0
  143.4825  134.2429  151.5264 H   0  0  0  0  0  0  0  0  0  0  0  0
  144.1412  135.3357  150.3335 H   0  0  0  0  0  0  0  0  0  0  0  0
  143.4840  133.2025  149.3032 H   0  0  0  0  0  0  0  0  0  0  0  0
  145.2013  133.4745  149.1309 H   0  0  0  0  0  0  0  0  0  0  0  0
  143.8609  131.6635  151.1986 H   0  0  0  0  0  0  0  0  0  0  0  0
  144.7923  131.1345  149.8162 H   0  0  0  0  0  0  0  0  0  0  0  0
  146.1494  131.0738  151.9170 H   0  0  0  0  0  0  0  0  0  0  0  0
  146.8418  132.1577  150.7353 H   0  0  0  0  0  0  0  0  0  0  0  0
  146.8628  133.1914  152.9459 H   0  0  0  0  0  0  0  0  0  0  0  0
  145.1446  132.9567  153.1451 H   0  0  0  0  0  0  0  0  0  0  0  0
  1  2  1  0  0  0  0
  1 22  1  0  0  0  0
  1 23  1  0  0  0  0
  1 24  1  0  0  0  0
  2  7  1  0  0  0  0
  2  3  2  0  0  0  0
  3  4  1  0  0  0  0
  4  5  1  0  0  0  0
  5  6  1  0  0  0  0
  5  7  2  0  0  0  0
  6 25  1  0  0  0  0
  6 26  1  0  0  0  0
  6 27  1  0  0  0  0
  7  8  1  0  0  0  0
  8  9  1  0  0  0  0
  8 28  1  0  0  0  0
  8 29  1  0  0  0  0
  9 10  2  0  0  0  0
  9 11  1  0  0  0  0
 11 12  1  0  0  0  0
 11 30  1  0  0  0  0
 12 13  1  0  0  0  0
 12 14  1  0  0  0  0
 12 16  1  0  0  0  0
 13 31  1  0  0  0  0
 13 32  1  0  0  0  0
 13 33  1  0  0  0  0
 14 15  1  0  0  0  0
 14 34  1  0  0  0  0
 14 35  1  0  0  0  0
 15 36  1  0  0  0  0
 16 21  1  0  0  0  0
 16 17  1  0  0  0  0
 16 37  1  0  0  0  0
 17 18  1  0  0  0  0
 17 38  1  0  0  0  0
 17 39  1  0  0  0  0
 18 19  1  0  0  0  0
 18 40  1  0  0  0  0
 18 41  1  0  0  0  0
 19 20  1  0  0  0  0
 19 42  1  0  0  0  0
 19 43  1  0  0  0  0
 20 21  1  0  0  0  0
 20 44  1  0  0  0  0
 20 45  1  0  0  0  0
 21 46  1  0  0  0  0
 21 47  1  0  0  0  0
M  END
> <s_m_source_file>
AV-unprocessed.smi

> <i_m_source_file_index>
2788

> <i_lp_mmshare_version>
43012

> <i_f3d_flags>
0

> <s_epik_input>
W0NIM11jMW5vYyhbQ0gzXSljMVtDSDJdQyg9TylbTkhdW0NAQF0oW0NIM10pKFtDSDJdW09IXSlbQ0hdMltDSDJdW0NIMl1bQ0gyXVtDSDJdW0NIMl0y

> <s_epik_cmdline>
J2VwaWtfcHl0aG9uJywgJy1waCcsICc3LjAnLCAnLXRuJywgJzgnLCAnLW1hJywgJzIwMCcsICctbWV0YWxfYmluZGluZycsICctaW1hZScsICc8aW5maWxlLm1hZT4nLCAnLW9tYWUnLCAnPG91dGZpbGUubWFlPic=

> <r_lp_tautomer_probability>
1

> <r_epik_Ionization_Penalty>
1.3408e-07

> <r_epik_Ionization_Penalty_Charging>
0

> <r_epik_Ionization_Penalty_Neutral>
1.3408e-07

> <r_epik_State_Penalty>
-0

> <r_epik_Charging_Adjusted_Penalty>
0

> <i_epik_Tot_Q>
0

> <i_epik_Tot_abs_Q>
0

> <r_epik_Metal_State_Penalty>
-0

> <b_epik_Metal_Only>
0

> <s_lp_Force_Field>
OPLS_2005

> <r_lp_Energy>
15.0378

> <b_lp_Chiralities_Consistent>
1

> <s_lp_Variant>
AV-unprocessed.smi:2788-1

> <Gold.Version>
5.8.1

> <Gold.Id.Protein>
6NUR|6NUR_protein|mol2

> <Gold.PLP.Fitness>
37.5158

> <Gold.PLP.PLP>
-29.4929

> <Gold.PLP.part.hbond>
-4.5837

> <Gold.PLP.part.metal>
0.0000

> <Gold.PLP.part.buried>
-3.5040

> <Gold.PLP.part.nonpolar>
-21.1635

> <Gold.PLP.part.repulsive>
0.0241

> <Gold.PLP.ligand.clash>
0.0000

> <Gold.PLP.ligand.torsion>
0.5309

> <Gold.PLP.Chemscore.Hbond>
3.0000

> <Gold.PLP.Chemscore.CHOScore>
0.0000

> <Gold.PLP.Chemscore.Metal>
0.0000

> <Gold.Chemscore.Hbonds>
donor molecule, donor type, donor heavy atom, donor atom, acceptor molecule, acceptor atom, score
      L1  H    11    30       P1  7948  1.00
      L1  H    15    36       P1  7948  1.00
      P1  H  6896  6909       L1     3  1.00

> <Gold.PLP.Chemscore.Internal.Correction>
0.0848

> <Gold.Rescore>
     Score         DG    S(hbond)    S(metal)    S(lipo)     H(rot)  DE(clash)    DE(int)     intcor
     16.30     -18.40       2.93        0.00      75.71       2.24       0.07       2.03       ----

> <Gold.Chemscore.Fitness>
16.3022

> <Gold.Chemscore.DG>
-18.3959

> <Gold.Chemscore.ZeroCoef>
-5.4800

> <Gold.Chemscore.Hbond>
2.9287

> <Gold.Chemscore.Metal>
0.0000

> <Gold.Chemscore.Lipo>
75.7071

> <Gold.Chemscore.Internal_Hbond>
0.0000

> <Gold.Chemscore.DEClash>
0.0672

> <Gold.Chemscore.DEInternal>
2.0265

> <Gold.Chemscore.Rot>
2.2357

> <Gold.Chemscore.Internal.Correction>
   9.000000E+99

> <Gold.Chemscore.Hbonds>
donor molecule, donor type, donor heavy atom, donor atom, acceptor molecule, acceptor atom, score
      L1  H    11    30       P1  7948  0.96
      L1  H    15    36       P1  7948  1.00
      P1  H  6896  6909       L1     3  0.60

> <Gold.Chemscore.Hbond.Weighted>
-9.7817

> <Gold.Chemscore.Metal.Weighted>
-0.0000

> <Gold.Chemscore.Lipo.Weighted>
-8.8577

> <Gold.Chemscore.Internal_Hbond.Weighted>
0.0000

> <Gold.Chemscore.DEClash.Weighted>
0.0672

> <Gold.Chemscore.DEInternal.Weighted>
2.0265

> <Gold.Chemscore.Rot.Weighted>
5.7235

> <Gold.Chemscore.Internal.Correction.Weighted>
   9.000000E+99

> <Gold.Protein.RotatedTorsions>
[ 6907 6896 6895 6894 ] final   22.44 input  -60.11 | X-H torsion
[ 7974 7965 7964 7962 ] final   38.15 input  175.53 | X-H torsion
[ 8008 7997 7996 7995 ] final   69.82 input   59.86 | X-H torsion
[ 10167 10162 10161 10158 ] final   40.23 input  -65.29 | X-H torsion
[ 10718 10713 10712 10709 ] final  -17.76 input   66.30 | X-H torsion
[ 10763 10752 10751 10750 ] final  -39.54 input  -60.55 | X-H torsion
[ 11005 11000 10999 10996 ] final  113.09 input  -57.11 | X-H torsion

> <Gold.Protein.ActiveResidues>
 VAL166  LYS551  ARG553  GLY616  TRP617  ASP618  TYR619  PRO620  LYS621  CYS622 
 ASP623  PHE694  ASN695  SER759  ASP760  ASP761  ALA762  ILE779  LEU786  VAL792 
 PHE793  MET794  SER795  GLU796  ALA797  LYS798  CYS799  TRP800  GLU811  SER814 

> <Gold.Protein.RotatedAtoms>
  151.9271  135.0273  160.0526 H   0  0  0  0  0  0  0  0  0  0  0  0  # atno 6907 bound_to 6896
  152.2150  133.4935  159.5139 H   0  0  0  0  0  0  0  0  0  0  0  0  # atno 6908 bound_to 6896
  150.6985  134.1334  159.4121 H   0  0  0  0  0  0  0  0  0  0  0  0  # atno 6909 bound_to 6896
  146.1084  139.5807  142.9368 H   0  0  0  0  0  0  0  0  0  0  0  0  # atno 7974 bound_to 7965
  155.7294  140.3492  155.5052 H   0  0  0  0  0  0  0  0  0  0  0  0  # atno 8008 bound_to 7997
  155.9197  140.1065  157.1238 H   0  0  0  0  0  0  0  0  0  0  0  0  # atno 8009 bound_to 7997
  154.4068  140.1252  156.4650 H   0  0  0  0  0  0  0  0  0  0  0  0  # atno 8010 bound_to 7997
  140.3762  144.2040  150.6131 H   0  0  0  0  0  0  0  0  0  0  0  0  # atno 10167 bound_to 10162
  156.5691  130.4745  149.6371 H   0  0  0  0  0  0  0  0  0  0  0  0  # atno 10718 bound_to 10713
  153.9311  135.6772  153.4745 H   0  0  0  0  0  0  0  0  0  0  0  0  # atno 10763 bound_to 10752
  153.0979  135.4842  154.8810 H   0  0  0  0  0  0  0  0  0  0  0  0  # atno 10764 bound_to 10752
  154.7428  135.3165  154.8656 H   0  0  0  0  0  0  0  0  0  0  0  0  # atno 10765 bound_to 10752
  139.8944  134.9543  156.6686 H   0  0  0  0  0  0  0  0  0  0  0  0  # atno 11005 bound_to 11000
  145.5714  141.0393  143.2172 LP  0  0  0  0  0  0  0  0  0  0  0  0  # atno 17320 bound_to 7965
  144.7490  139.7243  143.7280 LP  0  0  0  0  0  0  0  0  0  0  0  0  # atno 17321 bound_to 7965
  140.4984  143.2325  151.8715 LP  0  0  0  0  0  0  0  0  0  0  0  0  # atno 17342 bound_to 10162
  139.4799  144.5088  151.8961 LP  0  0  0  0  0  0  0  0  0  0  0  0  # atno 17343 bound_to 10162
  156.2731  130.7028  151.1831 LP  0  0  0  0  0  0  0  0  0  0  0  0  # atno 17370 bound_to 10713
  157.7352  131.0574  150.5482 LP  0  0  0  0  0  0  0  0  0  0  0  0  # atno 17371 bound_to 10713
  140.7391  133.8993  155.8265 LP  0  0  0  0  0  0  0  0  0  0  0  0  # atno 17394 bound_to 11000
  141.0092  134.1044  157.4239 LP  0  0  0  0  0  0  0  0  0  0  0  0  # atno 17395 bound_to 11000

$$$$
