AV-unprocessed.smi:212|AV-procd|sdf|1620|dock5
  -GOLD-   2262019553D 1   1.00000     0.00000
 Structure written by MMmdl.
 65 68  0  0  0  0  0  0  0  0  2 V2000
  142.6198  136.8407  154.2376 C   0  0  0  0  0  0  0  0  0  0  0  0
  143.4980  135.6544  153.7947 C   0  0  1  0  0  0  0  0  0  0  0  0
  143.6179  135.5504  152.2605 C   0  0  0  0  0  0  0  0  0  0  0  0
  144.4160  134.3589  151.8699 N   0  3  1  0  0  0  0  0  0  0  0  0
  144.4681  134.1427  150.3993 C   0  0  0  0  0  0  0  0  0  0  0  0
  143.9677  132.7394  149.9824 C   0  0  0  0  0  0  0  0  0  0  0  0
  143.8728  132.6459  148.4504 C   0  0  0  0  0  0  0  0  0  0  0  0
  144.8636  131.6126  150.5298 C   0  0  0  0  0  0  0  0  0  0  0  0
  142.6575  132.5462  150.4778 O   0  0  0  0  0  0  0  0  0  0  0  0
  145.7568  134.3450  152.5089 C   0  0  0  0  0  0  0  0  0  0  0  0
  145.6550  134.4930  154.0409 C   0  0  0  0  0  0  0  0  0  0  0  0
  144.8192  135.6254  154.4310 N   0  0  0  0  0  0  0  0  0  0  0  0
  145.4800  136.7983  154.5763 C   0  0  0  0  0  0  0  0  0  0  0  0
  145.1411  137.8751  153.8210 N   0  0  0  0  0  0  0  0  0  0  0  0
  145.7938  139.0308  153.9771 C   0  0  0  0  0  0  0  0  0  0  0  0
  146.7914  139.3181  154.8156 N   0  0  0  0  0  0  0  0  0  0  0  0
  147.1292  138.2399  155.5793 C   0  0  0  0  0  0  0  0  0  0  0  0
  146.5312  136.9506  155.5175 C   0  0  0  0  0  0  0  0  0  0  0  0
  147.1356  136.0981  156.4304 N   0  0  0  0  0  0  0  0  0  0  0  0
  148.0431  136.8423  157.0013 C   0  0  0  0  0  0  0  0  0  0  0  0
  148.0976  138.1488  156.5653 N   0  0  0  0  0  0  0  0  0  0  0  0
  149.0058  139.1859  157.0380 C   0  0  0  0  0  0  0  0  0  0  0  0
  149.0888  140.4311  156.1149 C   0  0  2  0  0  0  0  0  0  0  0  0
  149.6163  140.0367  154.7143 C   0  0  0  0  0  0  0  0  0  0  0  0
  149.5452  141.1112  153.8006 O   0  0  0  0  0  0  0  0  0  0  0  0
  149.9071  141.5815  156.7645 C   0  0  2  0  0  0  0  0  0  0  0  0
  151.3276  141.2005  157.1508 C   0  0  0  0  0  0  0  0  0  0  0  0
  151.7187  142.3166  158.1141 C   0  0  0  0  0  0  0  0  0  0  0  0
  150.5073  142.7379  158.7310 O   0  0  0  0  0  0  0  0  0  0  0  0
  149.4020  142.0800  158.1219 C   0  0  0  0  0  0  0  0  0  0  0  0
  141.6127  136.7497  153.8304 H   0  0  0  0  0  0  0  0  0  0  0  0
  143.0224  137.7957  153.8980 H   0  0  0  0  0  0  0  0  0  0  0  0
  142.5303  136.8806  155.3237 H   0  0  0  0  0  0  0  0  0  0  0  0
  142.9899  134.7526  154.1394 H   0  0  0  0  0  0  0  0  0  0  0  0
  142.6220  135.4826  151.8228 H   0  0  0  0  0  0  0  0  0  0  0  0
  144.0776  136.4501  151.8490 H   0  0  0  0  0  0  0  0  0  0  0  0
  143.9033  134.9217  149.8839 H   0  0  0  0  0  0  0  0  0  0  0  0
  145.4956  134.2543  150.0488 H   0  0  0  0  0  0  0  0  0  0  0  0
  144.8507  132.7771  147.9863 H   0  0  0  0  0  0  0  0  0  0  0  0
  143.2113  133.4119  148.0434 H   0  0  0  0  0  0  0  0  0  0  0  0
  143.4871  131.6765  148.1319 H   0  0  0  0  0  0  0  0  0  0  0  0
  145.8917  131.7251  150.1834 H   0  0  0  0  0  0  0  0  0  0  0  0
  144.5131  130.6327  150.2032 H   0  0  0  0  0  0  0  0  0  0  0  0
  144.8825  131.6020  151.6200 H   0  0  0  0  0  0  0  0  0  0  0  0
  142.0563  133.0414  149.9416 H   0  0  0  0  0  0  0  0  0  0  0  0
  146.2645  133.4091  152.2725 H   0  0  0  0  0  0  0  0  0  0  0  0
  146.3648  135.1452  152.0861 H   0  0  0  0  0  0  0  0  0  0  0  0
  145.2165  133.5902  154.4675 H   0  0  0  0  0  0  0  0  0  0  0  0
  146.6504  134.5866  154.4784 H   0  0  0  0  0  0  0  0  0  0  0  0
  145.4706  139.8416  153.3411 H   0  0  0  0  0  0  0  0  0  0  0  0
  148.6984  136.4553  157.7678 H   0  0  0  0  0  0  0  0  0  0  0  0
  148.6727  139.4912  158.0308 H   0  0  0  0  0  0  0  0  0  0  0  0
  149.9915  138.7449  157.1856 H   0  0  0  0  0  0  0  0  0  0  0  0
  148.0635  140.7825  155.9877 H   0  0  0  0  0  0  0  0  0  0  0  0
  150.6420  139.6701  154.7688 H   0  0  0  0  0  0  0  0  0  0  0  0
  149.0109  139.2329  154.2949 H   0  0  0  0  0  0  0  0  0  0  0  0
  149.9023  140.8272  152.9729 H   0  0  0  0  0  0  0  0  0  0  0  0
  149.9409  142.4363  156.0876 H   0  0  0  0  0  0  0  0  0  0  0  0
  151.3336  140.2426  157.6729 H   0  0  0  0  0  0  0  0  0  0  0  0
  152.0117  141.1245  156.3072 H   0  0  0  0  0  0  0  0  0  0  0  0
  152.4496  141.9882  158.8534 H   0  0  0  0  0  0  0  0  0  0  0  0
  152.1426  143.1605  157.5689 H   0  0  0  0  0  0  0  0  0  0  0  0
  148.5500  142.7542  158.0323 H   0  0  0  0  0  0  0  0  0  0  0  0
  149.1101  141.2432  158.7580 H   0  0  0  0  0  0  0  0  0  0  0  0
  143.9271  133.5596  152.2469 H   0  0  0  0  0  0  0  0  0  0  0  0
  1  2  1  0  0  0  0
  1 31  1  0  0  0  0
  1 32  1  0  0  0  0
  1 33  1  0  0  0  0
  2 12  1  0  0  0  0
  2  3  1  0  0  0  0
  2 34  1  0  0  0  0
  3  4  1  0  0  0  0
  3 35  1  0  0  0  0
  3 36  1  0  0  0  0
  4  5  1  0  0  0  0
  4 10  1  0  0  0  0
  4 65  1  0  0  0  0
  5  6  1  0  0  0  0
  5 37  1  0  0  0  0
  5 38  1  0  0  0  0
  6  7  1  0  0  0  0
  6  8  1  0  0  0  0
  6  9  1  0  0  0  0
  7 39  1  0  0  0  0
  7 40  1  0  0  0  0
  7 41  1  0  0  0  0
  8 42  1  0  0  0  0
  8 43  1  0  0  0  0
  8 44  1  0  0  0  0
  9 45  1  0  0  0  0
 10 11  1  0  0  0  0
 10 46  1  0  0  0  0
 10 47  1  0  0  0  0
 11 12  1  0  0  0  0
 11 48  1  0  0  0  0
 11 49  1  0  0  0  0
 12 13  1  0  0  0  0
 13 18  1  0  0  0  0
 13 14  2  0  0  0  0
 14 15  1  0  0  0  0
 15 16  2  0  0  0  0
 15 50  1  0  0  0  0
 16 17  1  0  0  0  0
 17 21  1  0  0  0  0
 17 18  2  0  0  0  0
 18 19  1  0  0  0  0
 19 20  2  0  0  0  0
 20 21  1  0  0  0  0
 20 51  1  0  0  0  0
 21 22  1  0  0  0  0
 22 23  1  0  0  0  0
 22 52  1  0  0  0  0
 22 53  1  0  0  0  0
 23 24  1  0  0  0  0
 23 26  1  0  0  0  0
 23 54  1  0  0  0  0
 24 25  1  0  0  0  0
 24 55  1  0  0  0  0
 24 56  1  0  0  0  0
 25 57  1  0  0  0  0
 26 30  1  0  0  0  0
 26 27  1  0  0  0  0
 26 58  1  0  0  0  0
 27 28  1  0  0  0  0
 27 59  1  0  0  0  0
 27 60  1  0  0  0  0
 28 29  1  0  0  0  0
 28 61  1  0  0  0  0
 28 62  1  0  0  0  0
 29 30  1  0  0  0  0
 30 63  1  0  0  0  0
 30 64  1  0  0  0  0
M  CHG  1   4   1
M  END
> <s_m_source_file>
AV-unprocessed.smi

> <i_m_source_file_index>
212

> <i_lp_mmshare_version>
43012

> <i_f3d_flags>
0

> <s_epik_input>
W0NIM11bQ0BASF0xW0NIMl1OKFtDSDJdQyhbQ0gzXSkoW0NIM10pW09IXSlbQ0gyXVtDSDJdTjFjKG5bY0hdbjIpYyhjMjMpbltjSF1uM1tDSDJdW0NASF0oW0NIMl1bT0hdKVtDQEBIXTRbQ0gyXVtDSDJdT1tDSDJdNA==

> <s_epik_cmdline>
J2VwaWtfcHl0aG9uJywgJy1waCcsICc3LjAnLCAnLXRuJywgJzgnLCAnLW1hJywgJzIwMCcsICctbWV0YWxfYmluZGluZycsICctaW1hZScsICc8aW5maWxlLm1hZT4nLCAnLW9tYWUnLCAnPG91dGZpbGUubWFlPic=

> <r_lp_tautomer_probability>
1

> <r_epik_Ionization_Penalty>
0.00182193

> <r_epik_Ionization_Penalty_Charging>
0.00173996

> <r_epik_Ionization_Penalty_Neutral>
8.19718e-05

> <r_epik_State_Penalty>
-0

> <r_epik_Charging_Adjusted_Penalty>
0.00173996

> <i_epik_Tot_Q>
1

> <i_epik_Tot_abs_Q>
1

> <r_epik_Metal_State_Penalty>
-0

> <b_epik_Metal_Only>
0

> <s_lp_Force_Field>
OPLS_2005

> <r_lp_Energy>
59.7923

> <b_lp_Chiralities_Consistent>
1

> <s_lp_Variant>
AV-unprocessed.smi:212-4

> <Gold.Version>
5.8.1

> <Gold.Id.Protein>
6NUR|6NUR_protein|mol2

> <Gold.PLP.Fitness>
43.7116

> <Gold.PLP.PLP>
-36.0169

> <Gold.PLP.part.hbond>
-5.0000

> <Gold.PLP.part.metal>
0.0000

> <Gold.PLP.part.buried>
-5.8964

> <Gold.PLP.part.nonpolar>
-25.2651

> <Gold.PLP.part.repulsive>
0.3290

> <Gold.PLP.ligand.clash>
0.0000

> <Gold.PLP.ligand.torsion>
1.2406

> <Gold.PLP.Chemscore.Hbond>
2.0000

> <Gold.PLP.Chemscore.CHOScore>
1.0000

> <Gold.PLP.Chemscore.Metal>
0.0000

> <Gold.Chemscore.Hbonds>
donor molecule, donor type, donor heavy atom, donor atom, acceptor molecule, acceptor atom, score
      L1  H     9    45       P1 10186  1.00
      L1  H    25    57       P1  7957  0.99
      L1  C    15    50       P1 10175  1.00

> <Gold.PLP.Chemscore.Internal.Correction>
1.1759

> <Gold.Rescore>
     Score         DG    S(hbond)    S(metal)    S(lipo)     H(rot)  DE(clash)    DE(int)     intcor
      7.66     -13.61       1.95        0.00      94.35       3.68       0.71       5.23       ----

> <Gold.Chemscore.Fitness>
7.6602

> <Gold.Chemscore.DG>
-13.6057

> <Gold.Chemscore.ZeroCoef>
-5.4800

> <Gold.Chemscore.Hbond>
1.9491

> <Gold.Chemscore.Metal>
0.0000

> <Gold.Chemscore.Lipo>
94.3548

> <Gold.Chemscore.Internal_Hbond>
0.0000

> <Gold.Chemscore.DEClash>
0.7109

> <Gold.Chemscore.DEInternal>
5.2346

> <Gold.Chemscore.Rot>
3.6812

> <Gold.Chemscore.Internal.Correction>
   9.000000E+99

> <Gold.Chemscore.Hbonds>
donor molecule, donor type, donor heavy atom, donor atom, acceptor molecule, acceptor atom, score
      L1  H     9    45       P1 10186  0.99
      L1  H    25    57       P1  7957  0.92

> <Gold.Chemscore.Hbond.Weighted>
-6.5102

> <Gold.Chemscore.Metal.Weighted>
-0.0000

> <Gold.Chemscore.Lipo.Weighted>
-11.0395

> <Gold.Chemscore.Internal_Hbond.Weighted>
0.0000

> <Gold.Chemscore.DEClash.Weighted>
0.7109

> <Gold.Chemscore.DEInternal.Weighted>
5.2346

> <Gold.Chemscore.Rot.Weighted>
9.4239

> <Gold.Chemscore.Internal.Correction.Weighted>
   9.000000E+99

> <Gold.Protein.RotatedTorsions>
[ 6907 6896 6895 6894 ] final  -24.87 input  -60.11 | X-H torsion
[ 7974 7965 7964 7962 ] final   73.11 input  175.53 | X-H torsion
[ 8008 7997 7996 7995 ] final  -62.25 input   59.86 | X-H torsion
[ 10167 10162 10161 10158 ] final -148.24 input  -65.29 | X-H torsion
[ 10718 10713 10712 10709 ] final  144.50 input   66.30 | X-H torsion
[ 10763 10752 10751 10750 ] final  -76.72 input  -60.55 | X-H torsion
[ 11005 11000 10999 10996 ] final -156.64 input  -57.11 | X-H torsion

> <Gold.Protein.ActiveResidues>
 VAL166  LYS551  ARG553  GLY616  TRP617  ASP618  TYR619  PRO620  LYS621  CYS622 
 ASP623  PHE694  ASN695  SER759  ASP760  ASP761  ALA762  ILE779  LEU786  VAL792 
 PHE793  MET794  SER795  GLU796  ALA797  LYS798  CYS799  TRP800  GLU811  SER814 

> <Gold.Protein.RotatedAtoms>
  151.1833  135.0370  159.8801 H   0  0  0  0  0  0  0  0  0  0  0  0  # atno 6907 bound_to 6896
  152.5443  134.1039  159.8339 H   0  0  0  0  0  0  0  0  0  0  0  0  # atno 6908 bound_to 6896
  151.1158  133.5092  159.2636 H   0  0  0  0  0  0  0  0  0  0  0  0  # atno 6909 bound_to 6896
  145.7450  139.2736  143.1464 H   0  0  0  0  0  0  0  0  0  0  0  0  # atno 7974 bound_to 7965
  154.4490  140.1000  156.6558 H   0  0  0  0  0  0  0  0  0  0  0  0  # atno 8008 bound_to 7997
  155.5347  140.3482  155.4415 H   0  0  0  0  0  0  0  0  0  0  0  0  # atno 8009 bound_to 7997
  156.0639  140.1333  156.9898 H   0  0  0  0  0  0  0  0  0  0  0  0  # atno 8010 bound_to 7997
  139.7549  143.8462  152.2595 H   0  0  0  0  0  0  0  0  0  0  0  0  # atno 10167 bound_to 10162
  157.3564  131.0958  151.0955 H   0  0  0  0  0  0  0  0  0  0  0  0  # atno 10718 bound_to 10713
  154.5035  135.5788  153.6549 H   0  0  0  0  0  0  0  0  0  0  0  0  # atno 10763 bound_to 10752
  152.9883  135.6141  154.2972 H   0  0  0  0  0  0  0  0  0  0  0  0  # atno 10764 bound_to 10752
  154.2881  135.2849  155.2646 H   0  0  0  0  0  0  0  0  0  0  0  0  # atno 10765 bound_to 10752
  140.6734  134.4223  157.5230 H   0  0  0  0  0  0  0  0  0  0  0  0  # atno 11005 bound_to 11000
  146.0412  140.8163  142.9828 LP  0  0  0  0  0  0  0  0  0  0  0  0  # atno 17320 bound_to 7965
  144.6862  140.2913  143.7277 LP  0  0  0  0  0  0  0  0  0  0  0  0  # atno 17321 bound_to 7965
  139.8452  144.7191  150.9282 LP  0  0  0  0  0  0  0  0  0  0  0  0  # atno 17342 bound_to 10162
  140.7802  143.3948  151.1248 LP  0  0  0  0  0  0  0  0  0  0  0  0  # atno 17343 bound_to 10162
  157.2111  130.6438  149.5774 LP  0  0  0  0  0  0  0  0  0  0  0  0  # atno 17370 bound_to 10713
  155.9730  130.4660  150.6272 LP  0  0  0  0  0  0  0  0  0  0  0  0  # atno 17371 bound_to 10713
  139.8974  134.8636  156.2044 LP  0  0  0  0  0  0  0  0  0  0  0  0  # atno 17394 bound_to 11000
  141.0375  133.6956  156.1538 LP  0  0  0  0  0  0  0  0  0  0  0  0  # atno 17395 bound_to 11000

$$$$
