AV-unprocessed.smi:598|AV-procd|sdf|3024|dock2
  -GOLD-   2262023533D 1   1.00000     0.00000
 Structure written by MMmdl.
 43 44  0  0  0  0  0  0  0  0  3 V2000
  148.2965  138.1286  154.6042 C   0  0  0  0  0  0  0  0  0  0  0  0
  148.7048  139.4188  153.8638 C   0  0  1  0  0  0  0  0  0  0  0  0
  147.4720  140.2220  153.4024 C   0  0  0  0  0  0  0  0  0  0  0  0
  146.7577  140.9130  154.5741 C   0  0  0  0  0  0  0  0  0  0  0  0
  147.7240  141.8126  155.3562 C   0  0  0  0  0  0  0  0  0  0  0  0
  148.9656  141.0401  155.8417 C   0  0  2  0  0  0  0  0  0  0  0  0
  149.8636  141.9815  156.5105 N   0  0  0  0  0  0  0  0  0  0  0  0
  149.7556  142.4108  157.7776 C   0  0  0  0  0  0  0  0  0  0  0  0
  148.8794  142.0249  158.5525 O   0  0  0  0  0  0  0  0  0  0  0  0
  150.8226  143.4150  158.2363 C   0  0  0  0  0  0  0  0  0  0  0  0
  151.7378  142.8686  159.2527 N   0  0  0  0  0  0  0  0  0  0  0  0
  152.3033  141.6044  158.9932 C   0  0  0  0  0  0  0  0  0  0  0  0
  153.1491  141.0077  159.8559 C   0  0  0  0  0  0  0  0  0  0  0  0
  153.7196  139.7088  159.5738 N   0  3  0  0  0  0  0  0  0  0  0  0
  153.6509  139.2721  158.4296 O   0  0  0  0  0  0  0  0  0  0  0  0
  154.2530  139.0820  160.4845 O   0  5  0  0  0  0  0  0  0  0  0  0
  153.4688  141.7119  161.0826 C   0  0  0  0  0  0  0  0  0  0  0  0
  152.9294  142.9202  161.3377 C   0  0  0  0  0  0  0  0  0  0  0  0
  152.0094  143.5679  160.3971 C   0  0  0  0  0  0  0  0  0  0  0  0
  151.5129  144.6713  160.6245 O   0  0  0  0  0  0  0  0  0  0  0  0
  149.6791  140.3280  154.6607 C   0  0  1  0  0  0  0  0  0  0  0  0
  150.9595  139.5810  155.0845 C   0  0  0  0  0  0  0  0  0  0  0  0
  147.8129  138.3352  155.5584 H   0  0  0  0  0  0  0  0  0  0  0  0
  149.1575  137.4907  154.8023 H   0  0  0  0  0  0  0  0  0  0  0  0
  147.6000  137.5416  154.0051 H   0  0  0  0  0  0  0  0  0  0  0  0
  149.2249  139.0982  152.9600 H   0  0  0  0  0  0  0  0  0  0  0  0
  147.7864  140.9790  152.6826 H   0  0  0  0  0  0  0  0  0  0  0  0
  146.7744  139.5736  152.8708 H   0  0  0  0  0  0  0  0  0  0  0  0
  145.9233  141.5066  154.1996 H   0  0  0  0  0  0  0  0  0  0  0  0
  146.3256  140.1676  155.2421 H   0  0  0  0  0  0  0  0  0  0  0  0
  148.0320  142.6430  154.7189 H   0  0  0  0  0  0  0  0  0  0  0  0
  147.2034  142.2549  156.2066 H   0  0  0  0  0  0  0  0  0  0  0  0
  148.6293  140.2852  156.5539 H   0  0  0  0  0  0  0  0  0  0  0  0
  150.6236  142.3481  155.9558 H   0  0  0  0  0  0  0  0  0  0  0  0
  151.3774  143.7448  157.3567 H   0  0  0  0  0  0  0  0  0  0  0  0
  150.3339  144.3136  158.6178 H   0  0  0  0  0  0  0  0  0  0  0  0
  151.9976  141.1603  158.0566 H   0  0  0  0  0  0  0  0  0  0  0  0
  154.1407  141.2753  161.8067 H   0  0  0  0  0  0  0  0  0  0  0  0
  153.1800  143.4264  162.2585 H   0  0  0  0  0  0  0  0  0  0  0  0
  150.0014  141.1081  153.9689 H   0  0  0  0  0  0  0  0  0  0  0  0
  150.7614  138.8667  155.8838 H   0  0  0  0  0  0  0  0  0  0  0  0
  151.7227  140.2705  155.4451 H   0  0  0  0  0  0  0  0  0  0  0  0
  151.3927  139.0352  154.2458 H   0  0  0  0  0  0  0  0  0  0  0  0
  1  2  1  0  0  0  0
  1 23  1  0  0  0  0
  1 24  1  0  0  0  0
  1 25  1  0  0  0  0
  2 21  1  0  0  0  0
  2  3  1  0  0  0  0
  2 26  1  0  0  0  0
  3  4  1  0  0  0  0
  3 27  1  0  0  0  0
  3 28  1  0  0  0  0
  4  5  1  0  0  0  0
  4 29  1  0  0  0  0
  4 30  1  0  0  0  0
  5  6  1  0  0  0  0
  5 31  1  0  0  0  0
  5 32  1  0  0  0  0
  6  7  1  0  0  0  0
  6 21  1  0  0  0  0
  6 33  1  0  0  0  0
  7  8  1  0  0  0  0
  7 34  1  0  0  0  0
  8  9  2  0  0  0  0
  8 10  1  0  0  0  0
 10 11  1  0  0  0  0
 10 35  1  0  0  0  0
 10 36  1  0  0  0  0
 11 19  1  0  0  0  0
 11 12  1  0  0  0  0
 12 13  2  0  0  0  0
 12 37  1  0  0  0  0
 13 14  1  0  0  0  0
 13 17  1  0  0  0  0
 14 15  2  0  0  0  0
 14 16  1  0  0  0  0
 17 18  2  0  0  0  0
 17 38  1  0  0  0  0
 18 19  1  0  0  0  0
 18 39  1  0  0  0  0
 19 20  2  0  0  0  0
 21 22  1  0  0  0  0
 21 40  1  0  0  0  0
 22 41  1  0  0  0  0
 22 42  1  0  0  0  0
 22 43  1  0  0  0  0
M  CHG  1  14   1
M  CHG  1  16  -1
M  END
> <s_m_source_file>
AV-unprocessed.smi

> <i_m_source_file_index>
598

> <i_lp_mmshare_version>
43012

> <i_f3d_flags>
0

> <s_epik_input>
W0NIM11bQ0BASF0xW0NIMl1bQ0gyXVtDSDJdW0NASF0oW0NASF0xW0NIM10pW05IXUMoPU8pW0NIMl1uMltjSF1jKFtOK10oPU8pW08tXSlbY0hdW2NIXWMyPU8=

> <s_epik_cmdline>
J2VwaWtfcHl0aG9uJywgJy1waCcsICc3LjAnLCAnLXRuJywgJzgnLCAnLW1hJywgJzIwMCcsICctbWV0YWxfYmluZGluZycsICctaW1hZScsICc8aW5maWxlLm1hZT4nLCAnLW9tYWUnLCAnPG91dGZpbGUubWFlPic=

> <r_lp_tautomer_probability>
1

> <r_epik_Ionization_Penalty>
1.91291e-08

> <r_epik_Ionization_Penalty_Charging>
8.21931e-11

> <r_epik_Ionization_Penalty_Neutral>
1.90469e-08

> <r_epik_State_Penalty>
-0

> <r_epik_Charging_Adjusted_Penalty>
8.21931e-11

> <i_epik_Tot_Q>
0

> <i_epik_Tot_abs_Q>
2

> <r_epik_Metal_State_Penalty>
-0

> <b_epik_Metal_Only>
0

> <s_lp_Force_Field>
OPLS_2005

> <r_lp_Energy>
25.417

> <b_lp_Chiralities_Consistent>
1

> <s_lp_Variant>
AV-unprocessed.smi:598-4

> <Gold.Version>
5.8.1

> <Gold.Id.Protein>
6NUR|6NUR_protein|mol2

> <Gold.PLP.Fitness>
41.4687

> <Gold.PLP.PLP>
-39.6229

> <Gold.PLP.part.hbond>
-2.5955

> <Gold.PLP.part.metal>
0.0000

> <Gold.PLP.part.buried>
-1.5169

> <Gold.PLP.part.nonpolar>
-35.6924

> <Gold.PLP.part.repulsive>
0.3064

> <Gold.PLP.ligand.clash>
0.0000

> <Gold.PLP.ligand.torsion>
0.5932

> <Gold.PLP.Chemscore.Hbond>
1.0000

> <Gold.PLP.Chemscore.CHOScore>
0.0000

> <Gold.PLP.Chemscore.Metal>
0.0000

> <Gold.Chemscore.Hbonds>
donor molecule, donor type, donor heavy atom, donor atom, acceptor molecule, acceptor atom, score
      P1  H  7997  8008       L1    15  1.00

> <Gold.PLP.Chemscore.Internal.Correction>
0.0322

> <Gold.Rescore>
     Score         DG    S(hbond)    S(metal)    S(lipo)     H(rot)  DE(clash)    DE(int)     intcor
     15.14     -15.93       1.00        0.00      94.56       1.54       0.15       0.65       ----

> <Gold.Chemscore.Fitness>
15.1368

> <Gold.Chemscore.DG>
-15.9345

> <Gold.Chemscore.ZeroCoef>
-5.4800

> <Gold.Chemscore.Hbond>
0.9975

> <Gold.Chemscore.Metal>
0.0000

> <Gold.Chemscore.Lipo>
94.5595

> <Gold.Chemscore.Internal_Hbond>
0.0000

> <Gold.Chemscore.DEClash>
0.1509

> <Gold.Chemscore.DEInternal>
0.6468

> <Gold.Chemscore.Rot>
1.5393

> <Gold.Chemscore.Internal.Correction>
   9.000000E+99

> <Gold.Chemscore.Hbonds>
donor molecule, donor type, donor heavy atom, donor atom, acceptor molecule, acceptor atom, score
      P1  H  7997  8008       L1    15  0.98

> <Gold.Chemscore.Hbond.Weighted>
-3.3317

> <Gold.Chemscore.Metal.Weighted>
-0.0000

> <Gold.Chemscore.Lipo.Weighted>
-11.0635

> <Gold.Chemscore.Internal_Hbond.Weighted>
0.0000

> <Gold.Chemscore.DEClash.Weighted>
0.1509

> <Gold.Chemscore.DEInternal.Weighted>
0.6468

> <Gold.Chemscore.Rot.Weighted>
3.9407

> <Gold.Chemscore.Internal.Correction.Weighted>
   9.000000E+99

> <Gold.Protein.RotatedTorsions>
[ 6907 6896 6895 6894 ] final   93.95 input  -60.11 | X-H torsion
[ 7974 7965 7964 7962 ] final  166.62 input  175.53 | X-H torsion
[ 8008 7997 7996 7995 ] final  -89.69 input   59.86 | X-H torsion
[ 10167 10162 10161 10158 ] final   67.42 input  -65.29 | X-H torsion
[ 10718 10713 10712 10709 ] final  -25.89 input   66.30 | X-H torsion
[ 10763 10752 10751 10750 ] final -140.74 input  -60.55 | X-H torsion
[ 11005 11000 10999 10996 ] final  153.66 input  -57.11 | X-H torsion

> <Gold.Protein.ActiveResidues>
 VAL166  LYS551  ARG553  GLY616  TRP617  ASP618  TYR619  PRO620  LYS621  CYS622 
 ASP623  PHE694  ASN695  SER759  ASP760  ASP761  ALA762  ILE779  LEU786  VAL792 
 PHE793  MET794  SER795  GLU796  ALA797  LYS798  CYS799  TRP800  GLU811  SER814 

> <Gold.Protein.RotatedAtoms>
  152.5451  134.1268  159.8421 H   0  0  0  0  0  0  0  0  0  0  0  0  # atno 6907 bound_to 6896
  151.1318  133.5024  159.2606 H   0  0  0  0  0  0  0  0  0  0  0  0  # atno 6908 bound_to 6896
  151.1667  135.0309  159.8788 H   0  0  0  0  0  0  0  0  0  0  0  0  # atno 6909 bound_to 6896
  144.7455  139.8641  143.6383 H   0  0  0  0  0  0  0  0  0  0  0  0  # atno 7974 bound_to 7965
  154.6895  140.0539  157.0349 H   0  0  0  0  0  0  0  0  0  0  0  0  # atno 8008 bound_to 7997
  155.0836  140.3212  155.4575 H   0  0  0  0  0  0  0  0  0  0  0  0  # atno 8009 bound_to 7997
  156.2723  140.2060  156.5964 H   0  0  0  0  0  0  0  0  0  0  0  0  # atno 8010 bound_to 7997
  140.0898  144.4998  150.7106 H   0  0  0  0  0  0  0  0  0  0  0  0  # atno 10167 bound_to 10162
  156.4584  130.4498  149.6944 H   0  0  0  0  0  0  0  0  0  0  0  0  # atno 10718 bound_to 10713
  154.8569  135.3544  154.5755 H   0  0  0  0  0  0  0  0  0  0  0  0  # atno 10763 bound_to 10752
  153.6367  135.7000  153.5261 H   0  0  0  0  0  0  0  0  0  0  0  0  # atno 10764 bound_to 10752
  153.3004  135.4208  155.1207 H   0  0  0  0  0  0  0  0  0  0  0  0  # atno 10765 bound_to 10752
  140.1418  134.8734  157.2341 H   0  0  0  0  0  0  0  0  0  0  0  0  # atno 11005 bound_to 11000
  146.1327  139.4366  143.0158 LP  0  0  0  0  0  0  0  0  0  0  0  0  # atno 17320 bound_to 7965
  145.7138  141.0097  143.1439 LP  0  0  0  0  0  0  0  0  0  0  0  0  # atno 17321 bound_to 7965
  140.7035  143.2451  151.4796 LP  0  0  0  0  0  0  0  0  0  0  0  0  # atno 17342 bound_to 10162
  139.5731  144.1881  152.1865 LP  0  0  0  0  0  0  0  0  0  0  0  0  # atno 17343 bound_to 10162
  156.3742  130.7546  151.2532 LP  0  0  0  0  0  0  0  0  0  0  0  0  # atno 17370 bound_to 10713
  157.7499  131.0314  150.4181 LP  0  0  0  0  0  0  0  0  0  0  0  0  # atno 17371 bound_to 10713
  140.2713  134.3457  155.7373 LP  0  0  0  0  0  0  0  0  0  0  0  0  # atno 17394 bound_to 11000
  141.2187  133.7425  156.9226 LP  0  0  0  0  0  0  0  0  0  0  0  0  # atno 17395 bound_to 11000

$$$$
