AV-unprocessed.smi:594|AV-procd|sdf|3014|dock5
  -GOLD-   2262023523D 1   1.00000     0.00000
 Structure written by MMmdl.
 40 41  0  0  0  0  0  0  0  0  3 V2000
  151.3263  144.2431  157.9963 C   0  0  0  0  0  0  0  0  0  0  0  0
  151.5093  143.6194  159.3917 C   0  0  2  0  0  0  0  0  0  0  0  0
  152.3337  144.5557  160.2987 C   0  0  0  0  0  0  0  0  0  0  0  0
  152.5296  143.9663  161.7036 C   0  0  0  0  0  0  0  0  0  0  0  0
  153.1819  142.5792  161.6328 C   0  0  0  0  0  0  0  0  0  0  0  0
  152.3629  141.6304  160.7462 C   0  0  0  0  0  0  0  0  0  0  0  0
  152.1525  142.2112  159.3320 C   0  0  1  0  0  0  0  0  0  0  0  0
  151.3196  141.3046  158.5448 N   0  0  0  0  0  0  0  0  0  0  0  0
  151.7476  140.1952  157.9238 C   0  0  0  0  0  0  0  0  0  0  0  0
  152.9131  139.7996  157.9735 O   0  0  0  0  0  0  0  0  0  0  0  0
  150.6824  139.4085  157.1472 C   0  0  0  0  0  0  0  0  0  0  0  0
  149.7475  140.2730  156.4074 N   0  0  0  0  0  0  0  0  0  0  0  0
  148.7026  140.8654  157.1439 C   0  0  0  0  0  0  0  0  0  0  0  0
  147.7866  141.6683  156.5680 C   0  0  0  0  0  0  0  0  0  0  0  0
  146.7173  142.2642  157.3389 N   0  3  0  0  0  0  0  0  0  0  0  0
  145.9240  143.0064  156.7689 O   0  0  0  0  0  0  0  0  0  0  0  0
  146.6348  142.0121  158.5372 O   0  5  0  0  0  0  0  0  0  0  0  0
  147.9055  141.9140  155.1437 C   0  0  0  0  0  0  0  0  0  0  0  0
  148.9006  141.3477  154.4331 C   0  0  0  0  0  0  0  0  0  0  0  0
  149.8942  140.4710  155.0614 C   0  0  0  0  0  0  0  0  0  0  0  0
  150.8029  139.9467  154.4171 O   0  0  0  0  0  0  0  0  0  0  0  0
  152.2813  144.3404  157.4792 H   0  0  0  0  0  0  0  0  0  0  0  0
  150.8851  145.2375  158.0670 H   0  0  0  0  0  0  0  0  0  0  0  0
  150.6679  143.6429  157.3680 H   0  0  0  0  0  0  0  0  0  0  0  0
  150.5182  143.5197  159.8374 H   0  0  0  0  0  0  0  0  0  0  0  0
  153.3085  144.7430  159.8457 H   0  0  0  0  0  0  0  0  0  0  0  0
  151.8413  145.5255  160.3791 H   0  0  0  0  0  0  0  0  0  0  0  0
  153.1450  144.6358  162.3051 H   0  0  0  0  0  0  0  0  0  0  0  0
  151.5658  143.8931  162.2089 H   0  0  0  0  0  0  0  0  0  0  0  0
  154.1940  142.6689  161.2360 H   0  0  0  0  0  0  0  0  0  0  0  0
  153.2778  142.1614  162.6353 H   0  0  0  0  0  0  0  0  0  0  0  0
  152.8677  140.6653  160.6857 H   0  0  0  0  0  0  0  0  0  0  0  0
  151.3964  141.4429  161.2160 H   0  0  0  0  0  0  0  0  0  0  0  0
  153.1271  142.3084  158.8490 H   0  0  0  0  0  0  0  0  0  0  0  0
  150.3438  141.5492  158.4558 H   0  0  0  0  0  0  0  0  0  0  0  0
  151.1938  138.7261  156.4670 H   0  0  0  0  0  0  0  0  0  0  0  0
  150.1324  138.7642  157.8358 H   0  0  0  0  0  0  0  0  0  0  0  0
  148.6973  140.6147  158.1949 H   0  0  0  0  0  0  0  0  0  0  0  0
  147.1972  142.5526  154.6365 H   0  0  0  0  0  0  0  0  0  0  0  0
  148.9701  141.5433  153.3732 H   0  0  0  0  0  0  0  0  0  0  0  0
  1  2  1  0  0  0  0
  1 22  1  0  0  0  0
  1 23  1  0  0  0  0
  1 24  1  0  0  0  0
  2  7  1  0  0  0  0
  2  3  1  0  0  0  0
  2 25  1  0  0  0  0
  3  4  1  0  0  0  0
  3 26  1  0  0  0  0
  3 27  1  0  0  0  0
  4  5  1  0  0  0  0
  4 28  1  0  0  0  0
  4 29  1  0  0  0  0
  5  6  1  0  0  0  0
  5 30  1  0  0  0  0
  5 31  1  0  0  0  0
  6  7  1  0  0  0  0
  6 32  1  0  0  0  0
  6 33  1  0  0  0  0
  7  8  1  0  0  0  0
  7 34  1  0  0  0  0
  8  9  1  0  0  0  0
  8 35  1  0  0  0  0
  9 10  2  0  0  0  0
  9 11  1  0  0  0  0
 11 12  1  0  0  0  0
 11 36  1  0  0  0  0
 11 37  1  0  0  0  0
 12 20  1  0  0  0  0
 12 13  1  0  0  0  0
 13 14  2  0  0  0  0
 13 38  1  0  0  0  0
 14 15  1  0  0  0  0
 14 18  1  0  0  0  0
 15 16  2  0  0  0  0
 15 17  1  0  0  0  0
 18 19  2  0  0  0  0
 18 39  1  0  0  0  0
 19 20  1  0  0  0  0
 19 40  1  0  0  0  0
 20 21  2  0  0  0  0
M  CHG  1  15   1
M  CHG  1  17  -1
M  END
> <s_m_source_file>
AV-unprocessed.smi

> <i_m_source_file_index>
594

> <i_lp_mmshare_version>
43012

> <i_f3d_flags>
0

> <s_epik_input>
W0NIM11bQ0BASF0xW0NIMl1bQ0gyXVtDSDJdW0NIMl1bQ0BIXTFbTkhdQyg9TylbQ0gyXW4yW2NIXWMoW04rXSg9TylbTy1dKVtjSF1bY0hdYzI9Tw==

> <s_epik_cmdline>
J2VwaWtfcHl0aG9uJywgJy1waCcsICc3LjAnLCAnLXRuJywgJzgnLCAnLW1hJywgJzIwMCcsICctbWV0YWxfYmluZGluZycsICctaW1hZScsICc8aW5maWxlLm1hZT4nLCAnLW9tYWUnLCAnPG91dGZpbGUubWFlPic=

> <r_lp_tautomer_probability>
1

> <r_epik_Ionization_Penalty>
1.91305e-08

> <r_epik_Ionization_Penalty_Charging>
8.35811e-11

> <r_epik_Ionization_Penalty_Neutral>
1.90469e-08

> <r_epik_State_Penalty>
-0

> <r_epik_Charging_Adjusted_Penalty>
8.35811e-11

> <i_epik_Tot_Q>
0

> <i_epik_Tot_abs_Q>
2

> <r_epik_Metal_State_Penalty>
-0

> <b_epik_Metal_Only>
0

> <s_lp_Force_Field>
OPLS_2005

> <r_lp_Energy>
21.501

> <b_lp_Chiralities_Consistent>
1

> <s_lp_Variant>
AV-unprocessed.smi:594-1

> <Gold.Version>
5.8.1

> <Gold.Id.Protein>
6NUR|6NUR_protein|mol2

> <Gold.PLP.Fitness>
43.5504

> <Gold.PLP.PLP>
-37.4778

> <Gold.PLP.part.hbond>
-3.0000

> <Gold.PLP.part.metal>
0.0000

> <Gold.PLP.part.buried>
-6.0294

> <Gold.PLP.part.nonpolar>
-29.4549

> <Gold.PLP.part.repulsive>
0.3457

> <Gold.PLP.ligand.clash>
0.0000

> <Gold.PLP.ligand.torsion>
0.8636

> <Gold.PLP.Chemscore.Hbond>
2.5928

> <Gold.PLP.Chemscore.CHOScore>
0.0000

> <Gold.PLP.Chemscore.Metal>
0.0000

> <Gold.Chemscore.Hbonds>
donor molecule, donor type, donor heavy atom, donor atom, acceptor molecule, acceptor atom, score
      P1  H  7989  7998       L1    21  1.00
      P1  H  7997  8008       L1    10  1.00

> <Gold.PLP.Chemscore.Internal.Correction>
0.0213

> <Gold.Rescore>
     Score         DG    S(hbond)    S(metal)    S(lipo)     H(rot)  DE(clash)    DE(int)     intcor
     19.88     -21.85       2.57        0.00     100.45       1.55       0.04       1.93       ----

> <Gold.Chemscore.Fitness>
19.8775

> <Gold.Chemscore.DG>
-21.8512

> <Gold.Chemscore.ZeroCoef>
-5.4800

> <Gold.Chemscore.Hbond>
2.5711

> <Gold.Chemscore.Metal>
0.0000

> <Gold.Chemscore.Lipo>
100.4509

> <Gold.Chemscore.Internal_Hbond>
0.0000

> <Gold.Chemscore.DEClash>
0.0394

> <Gold.Chemscore.DEInternal>
1.9343

> <Gold.Chemscore.Rot>
1.5505

> <Gold.Chemscore.Internal.Correction>
   9.000000E+99

> <Gold.Chemscore.Hbonds>
donor molecule, donor type, donor heavy atom, donor atom, acceptor molecule, acceptor atom, score
      P1  H  6934  6946       L1    17  0.03
      P1  H  7989  7998       L1    21  0.89
      P1  H  7997  8008       L1    10  0.97

> <Gold.Chemscore.Hbond.Weighted>
-8.5876

> <Gold.Chemscore.Metal.Weighted>
-0.0000

> <Gold.Chemscore.Lipo.Weighted>
-11.7528

> <Gold.Chemscore.Internal_Hbond.Weighted>
0.0000

> <Gold.Chemscore.DEClash.Weighted>
0.0394

> <Gold.Chemscore.DEInternal.Weighted>
1.9343

> <Gold.Chemscore.Rot.Weighted>
3.9692

> <Gold.Chemscore.Internal.Correction.Weighted>
   9.000000E+99

> <Gold.Protein.RotatedTorsions>
[ 6907 6896 6895 6894 ] final -160.32 input  -60.11 | X-H torsion
[ 7974 7965 7964 7962 ] final   52.12 input  175.53 | X-H torsion
[ 8008 7997 7996 7995 ] final  -66.22 input   59.86 | X-H torsion
[ 10167 10162 10161 10158 ] final  -86.28 input  -65.29 | X-H torsion
[ 10718 10713 10712 10709 ] final   60.37 input   66.30 | X-H torsion
[ 10763 10752 10751 10750 ] final   -0.43 input  -60.55 | X-H torsion
[ 11005 11000 10999 10996 ] final  -90.20 input  -57.11 | X-H torsion

> <Gold.Protein.ActiveResidues>
 VAL166  LYS551  ARG553  GLY616  TRP617  ASP618  TYR619  PRO620  LYS621  CYS622 
 ASP623  PHE694  ASN695  SER759  ASP760  ASP761  ALA762  ILE779  LEU786  VAL792 
 PHE793  MET794  SER795  GLU796  ALA797  LYS798  CYS799  TRP800  GLU811  SER814 

> <Gold.Protein.RotatedAtoms>
  151.3472  133.3939  159.2676 H   0  0  0  0  0  0  0  0  0  0  0  0  # atno 6907 bound_to 6896
  150.9830  134.9182  159.7866 H   0  0  0  0  0  0  0  0  0  0  0  0  # atno 6908 bound_to 6896
  152.5223  134.3436  159.9278 H   0  0  0  0  0  0  0  0  0  0  0  0  # atno 6909 bound_to 6896
  145.9845  139.4275  143.0112 H   0  0  0  0  0  0  0  0  0  0  0  0  # atno 7974 bound_to 7965
  154.4721  140.0917  156.7170 H   0  0  0  0  0  0  0  0  0  0  0  0  # atno 8008 bound_to 7997
  155.4696  140.3464  155.4305 H   0  0  0  0  0  0  0  0  0  0  0  0  # atno 8009 bound_to 7997
  156.1056  140.1434  156.9397 H   0  0  0  0  0  0  0  0  0  0  0  0  # atno 8010 bound_to 7997
  140.3956  143.2685  151.9208 H   0  0  0  0  0  0  0  0  0  0  0  0  # atno 10167 bound_to 10162
  157.5748  130.8935  149.9328 H   0  0  0  0  0  0  0  0  0  0  0  0  # atno 10718 bound_to 10713
  153.3318  135.6975  153.6941 H   0  0  0  0  0  0  0  0  0  0  0  0  # atno 10763 bound_to 10752
  153.5741  135.3510  155.2850 H   0  0  0  0  0  0  0  0  0  0  0  0  # atno 10764 bound_to 10752
  154.8619  135.4279  154.2509 H   0  0  0  0  0  0  0  0  0  0  0  0  # atno 10765 bound_to 10752
  141.1570  133.7677  156.9704 H   0  0  0  0  0  0  0  0  0  0  0  0  # atno 11005 bound_to 11000
  145.7721  140.9892  143.1144 LP  0  0  0  0  0  0  0  0  0  0  0  0  # atno 17320 bound_to 7965
  144.6871  139.9460  143.7476 LP  0  0  0  0  0  0  0  0  0  0  0  0  # atno 17321 bound_to 7965
  139.4787  144.5684  151.8128 LP  0  0  0  0  0  0  0  0  0  0  0  0  # atno 17342 bound_to 10162
  140.4794  144.1472  150.5930 LP  0  0  0  0  0  0  0  0  0  0  0  0  # atno 17343 bound_to 10162
  156.0793  130.3675  150.0614 LP  0  0  0  0  0  0  0  0  0  0  0  0  # atno 17370 bound_to 10713
  156.8762  130.9541  151.3604 LP  0  0  0  0  0  0  0  0  0  0  0  0  # atno 17371 bound_to 10713
  140.1133  134.9463  157.2097 LP  0  0  0  0  0  0  0  0  0  0  0  0  # atno 17394 bound_to 11000
  140.3166  134.2964  155.7255 LP  0  0  0  0  0  0  0  0  0  0  0  0  # atno 17395 bound_to 11000

$$$$
