AV-unprocessed.smi:2062|AV-procd|sdf|8401|dock3
  -GOLD-   2272011 83D 1   1.00000     0.00000
 Structure written by MMmdl.
 42 43  0  0  0  0  0  0  0  0  1 V2000
  151.8725  140.5001  156.2836 C   0  0  0  0  0  0  0  0  0  0  0  0
  151.7115  139.0222  155.8939 C   0  0  0  0  0  0  0  0  0  0  0  0
  152.5053  138.7325  154.6082 C   0  0  0  0  0  0  0  0  0  0  0  0
  150.2179  138.6473  155.7451 C   0  0  0  0  0  0  0  0  0  0  0  0
  149.4752  139.3963  154.7300 N   0  0  0  0  0  0  0  0  0  0  0  0
  149.0624  140.7196  155.1896 C   0  0  0  0  0  0  0  0  0  0  0  0
  148.2509  141.4724  154.1214 C   0  0  0  0  0  0  0  0  0  0  0  0
  147.1289  140.6876  153.7331 O   0  0  0  0  0  0  0  0  0  0  0  0
  147.4976  139.4115  153.2152 C   0  0  2  0  0  0  0  0  0  0  0  0
  146.2178  138.6602  152.8099 C   0  0  0  0  0  0  0  0  0  0  0  0
  146.5223  137.4109  152.1203 N   0  0  0  0  0  0  0  0  0  0  0  0
  145.6165  136.4911  151.7596 C   0  0  0  0  0  0  0  0  0  0  0  0
  144.4070  136.6200  151.9493 O   0  0  0  0  0  0  0  0  0  0  0  0
  146.2030  135.4318  151.1790 N   0  0  0  0  0  0  0  0  0  0  0  0
  145.5821  134.2529  150.6968 C   0  0  0  0  0  0  0  0  0  0  0  0
  144.2507  134.2099  150.6198 N   0  0  0  0  0  0  0  0  0  0  0  0
  143.7929  132.9867  150.1212 C   0  0  0  0  0  0  0  0  0  0  0  0
  144.7986  132.1013  149.8219 C   0  0  0  0  0  0  0  0  0  0  0  0
  146.3733  132.7703  150.1550 S   0  0  0  0  0  0  0  0  0  0  0  0
  148.2952  138.6551  154.2957 C   0  0  0  0  0  0  0  0  0  0  0  0
  151.4552  141.1593  155.5218 H   0  0  0  0  0  0  0  0  0  0  0  0
  152.9231  140.7620  156.4115 H   0  0  0  0  0  0  0  0  0  0  0  0
  151.3660  140.7159  157.2250 H   0  0  0  0  0  0  0  0  0  0  0  0
  152.1446  138.4345  156.7046 H   0  0  0  0  0  0  0  0  0  0  0  0
  152.1356  139.3283  153.7731 H   0  0  0  0  0  0  0  0  0  0  0  0
  152.4406  137.6844  154.3179 H   0  0  0  0  0  0  0  0  0  0  0  0
  153.5617  138.9681  154.7401 H   0  0  0  0  0  0  0  0  0  0  0  0
  150.1629  137.5902  155.4811 H   0  0  0  0  0  0  0  0  0  0  0  0
  149.7142  138.7238  156.7101 H   0  0  0  0  0  0  0  0  0  0  0  0
  148.4659  140.6271  156.0985 H   0  0  0  0  0  0  0  0  0  0  0  0
  149.9357  141.3189  155.4440 H   0  0  0  0  0  0  0  0  0  0  0  0
  147.9000  142.4267  154.5142 H   0  0  0  0  0  0  0  0  0  0  0  0
  148.8692  141.6922  153.2494 H   0  0  0  0  0  0  0  0  0  0  0  0
  148.1304  139.5505  152.3367 H   0  0  0  0  0  0  0  0  0  0  0  0
  145.6028  138.4557  153.6882 H   0  0  0  0  0  0  0  0  0  0  0  0
  145.6134  139.2802  152.1473 H   0  0  0  0  0  0  0  0  0  0  0  0
  147.4958  137.2238  151.9291 H   0  0  0  0  0  0  0  0  0  0  0  0
  147.2073  135.4649  151.0844 H   0  0  0  0  0  0  0  0  0  0  0  0
  142.7300  132.8305  150.0106 H   0  0  0  0  0  0  0  0  0  0  0  0
  144.7091  131.1004  149.4266 H   0  0  0  0  0  0  0  0  0  0  0  0
  148.5963  137.6829  153.9034 H   0  0  0  0  0  0  0  0  0  0  0  0
  147.6484  138.4577  155.1524 H   0  0  0  0  0  0  0  0  0  0  0  0
  1  2  1  0  0  0  0
  1 21  1  0  0  0  0
  1 22  1  0  0  0  0
  1 23  1  0  0  0  0
  2  3  1  0  0  0  0
  2  4  1  0  0  0  0
  2 24  1  0  0  0  0
  3 25  1  0  0  0  0
  3 26  1  0  0  0  0
  3 27  1  0  0  0  0
  4  5  1  0  0  0  0
  4 28  1  0  0  0  0
  4 29  1  0  0  0  0
  5 20  1  0  0  0  0
  5  6  1  0  0  0  0
  6  7  1  0  0  0  0
  6 30  1  0  0  0  0
  6 31  1  0  0  0  0
  7  8  1  0  0  0  0
  7 32  1  0  0  0  0
  7 33  1  0  0  0  0
  8  9  1  0  0  0  0
  9 10  1  0  0  0  0
  9 20  1  0  0  0  0
  9 34  1  0  0  0  0
 10 11  1  0  0  0  0
 10 35  1  0  0  0  0
 10 36  1  0  0  0  0
 11 12  1  0  0  0  0
 11 37  1  0  0  0  0
 12 13  2  0  0  0  0
 12 14  1  0  0  0  0
 14 15  1  0  0  0  0
 14 38  1  0  0  0  0
 15 19  1  0  0  0  0
 15 16  2  0  0  0  0
 16 17  1  0  0  0  0
 17 18  2  0  0  0  0
 17 39  1  0  0  0  0
 18 19  1  0  0  0  0
 18 40  1  0  0  0  0
 20 41  1  0  0  0  0
 20 42  1  0  0  0  0
M  END
> <s_m_source_file>
AV-unprocessed.smi

> <i_m_source_file_index>
2062

> <i_lp_mmshare_version>
43012

> <i_f3d_flags>
0

> <s_epik_input>
W0NIM11bQ0hdKFtDSDNdKVtDSDJdTjFbQ0gyXVtDSDJdT1tDQEhdKFtDSDJdMSlbQ0gyXVtOSF1DKD1PKVtOSF1jMm5bY0hdW2NIXXMy

> <s_epik_cmdline>
J2VwaWtfcHl0aG9uJywgJy1waCcsICc3LjAnLCAnLXRuJywgJzgnLCAnLW1hJywgJzIwMCcsICctbWV0YWxfYmluZGluZycsICctaW1hZScsICc8aW5maWxlLm1hZT4nLCAnLW9tYWUnLCAnPG91dGZpbGUubWFlPic=

> <r_lp_tautomer_probability>
0.999

> <r_epik_Ionization_Penalty>
1.11227

> <r_epik_Ionization_Penalty_Charging>
0

> <r_epik_Ionization_Penalty_Neutral>
1.11227

> <r_epik_State_Penalty>
1.17021

> <r_epik_Charging_Adjusted_Penalty>
1.17021

> <i_epik_Tot_Q>
0

> <i_epik_Tot_abs_Q>
0

> <r_epik_Metal_State_Penalty>
1.22349

> <b_epik_Metal_Only>
0

> <s_lp_Force_Field>
OPLS_2005

> <r_lp_Energy>
23.0648

> <b_lp_Chiralities_Consistent>
1

> <s_lp_Variant>
AV-unprocessed.smi:2062-6

> <Gold.Version>
5.8.1

> <Gold.Id.Protein>
6NUR|6NUR_protein|mol2

> <Gold.PLP.Fitness>
41.6895

> <Gold.PLP.PLP>
-33.3993

> <Gold.PLP.part.hbond>
-2.0000

> <Gold.PLP.part.metal>
0.0000

> <Gold.PLP.part.buried>
-2.7831

> <Gold.PLP.part.nonpolar>
-29.4989

> <Gold.PLP.part.repulsive>
1.6210

> <Gold.PLP.ligand.clash>
0.0000

> <Gold.PLP.ligand.torsion>
0.2785

> <Gold.PLP.Chemscore.Hbond>
1.9600

> <Gold.PLP.Chemscore.CHOScore>
0.9775

> <Gold.PLP.Chemscore.Metal>
0.0000

> <Gold.Chemscore.Hbonds>
donor molecule, donor type, donor heavy atom, donor atom, acceptor molecule, acceptor atom, score
      L1  H    11    37       P1  7948  1.00
      L1  H    14    38       P1  7948  0.94
      L1  C    17    39       P1 10186  0.99

> <Gold.PLP.Chemscore.Internal.Correction>
0.0348

> <Gold.Rescore>
     Score         DG    S(hbond)    S(metal)    S(lipo)     H(rot)  DE(clash)    DE(int)     intcor
     15.09     -17.09       1.91        0.00      82.23       1.72       0.20       1.80       ----

> <Gold.Chemscore.Fitness>
15.0885

> <Gold.Chemscore.DG>
-17.0902

> <Gold.Chemscore.ZeroCoef>
-5.4800

> <Gold.Chemscore.Hbond>
1.9135

> <Gold.Chemscore.Metal>
0.0000

> <Gold.Chemscore.Lipo>
82.2302

> <Gold.Chemscore.Internal_Hbond>
0.0000

> <Gold.Chemscore.DEClash>
0.2027

> <Gold.Chemscore.DEInternal>
1.7990

> <Gold.Chemscore.Rot>
1.7195

> <Gold.Chemscore.Internal.Correction>
   9.000000E+99

> <Gold.Chemscore.Hbonds>
donor molecule, donor type, donor heavy atom, donor atom, acceptor molecule, acceptor atom, score
      L1  H    11    37       P1  7948  0.99
      L1  H    14    38       P1  7948  0.69

> <Gold.Chemscore.Hbond.Weighted>
-6.3911

> <Gold.Chemscore.Metal.Weighted>
-0.0000

> <Gold.Chemscore.Lipo.Weighted>
-9.6209

> <Gold.Chemscore.Internal_Hbond.Weighted>
0.0000

> <Gold.Chemscore.DEClash.Weighted>
0.2027

> <Gold.Chemscore.DEInternal.Weighted>
1.7990

> <Gold.Chemscore.Rot.Weighted>
4.4019

> <Gold.Chemscore.Internal.Correction.Weighted>
   9.000000E+99

> <Gold.Protein.RotatedTorsions>
[ 6907 6896 6895 6894 ] final  -72.42 input  -60.11 | X-H torsion
[ 7974 7965 7964 7962 ] final   42.95 input  175.53 | X-H torsion
[ 8008 7997 7996 7995 ] final   65.23 input   59.86 | X-H torsion
[ 10167 10162 10161 10158 ] final -140.21 input  -65.29 | X-H torsion
[ 10718 10713 10712 10709 ] final  -94.14 input   66.30 | X-H torsion
[ 10763 10752 10751 10750 ] final -171.10 input  -60.55 | X-H torsion
[ 11005 11000 10999 10996 ] final   91.30 input  -57.11 | X-H torsion

> <Gold.Protein.ActiveResidues>
 VAL166  LYS551  ARG553  GLY616  TRP617  ASP618  TYR619  PRO620  LYS621  CYS622 
 ASP623  PHE694  ASN695  SER759  ASP760  ASP761  ALA762  ILE779  LEU786  VAL792 
 PHE793  MET794  SER795  GLU796  ALA797  LYS798  CYS799  TRP800  GLU811  SER814 

> <Gold.Protein.RotatedAtoms>
  150.7171  134.5165  159.5632 H   0  0  0  0  0  0  0  0  0  0  0  0  # atno 6907 bound_to 6896
  152.2730  134.7909  160.0420 H   0  0  0  0  0  0  0  0  0  0  0  0  # atno 6908 bound_to 6896
  151.8582  133.3417  159.3732 H   0  0  0  0  0  0  0  0  0  0  0  0  # atno 6909 bound_to 6896
  146.0697  139.5242  142.9605 H   0  0  0  0  0  0  0  0  0  0  0  0  # atno 7974 bound_to 7965
  155.6585  140.3497  155.4774 H   0  0  0  0  0  0  0  0  0  0  0  0  # atno 8008 bound_to 7997
  155.9788  140.1170  157.0768 H   0  0  0  0  0  0  0  0  0  0  0  0  # atno 8009 bound_to 7997
  154.4186  140.1142  156.5393 H   0  0  0  0  0  0  0  0  0  0  0  0  # atno 8010 bound_to 7997
  139.8304  143.7455  152.2666 H   0  0  0  0  0  0  0  0  0  0  0  0  # atno 10167 bound_to 10162
  156.0023  130.5055  150.5881 H   0  0  0  0  0  0  0  0  0  0  0  0  # atno 10718 bound_to 10713
  154.6342  135.2890  155.0181 H   0  0  0  0  0  0  0  0  0  0  0  0  # atno 10763 bound_to 10752
  154.1330  135.6530  153.4930 H   0  0  0  0  0  0  0  0  0  0  0  0  # atno 10764 bound_to 10752
  153.0294  135.5315  154.7182 H   0  0  0  0  0  0  0  0  0  0  0  0  # atno 10765 bound_to 10752
  139.8841  134.8666  156.3409 H   0  0  0  0  0  0  0  0  0  0  0  0  # atno 11005 bound_to 11000
  145.6413  141.0283  143.1810 LP  0  0  0  0  0  0  0  0  0  0  0  0  # atno 17320 bound_to 7965
  144.7224  139.7986  143.7377 LP  0  0  0  0  0  0  0  0  0  0  0  0  # atno 17321 bound_to 7965
  139.7661  144.7491  151.0293 LP  0  0  0  0  0  0  0  0  0  0  0  0  # atno 17342 bound_to 10162
  140.7807  143.4697  151.0163 LP  0  0  0  0  0  0  0  0  0  0  0  0  # atno 17343 bound_to 10162
  157.3751  131.0772  151.1525 LP  0  0  0  0  0  0  0  0  0  0  0  0  # atno 17370 bound_to 10713
  157.2266  130.6506  149.5832 LP  0  0  0  0  0  0  0  0  0  0  0  0  # atno 17371 bound_to 10713
  140.9659  133.7358  156.0467 LP  0  0  0  0  0  0  0  0  0  0  0  0  # atno 17394 bound_to 11000
  140.7931  134.3595  157.5459 LP  0  0  0  0  0  0  0  0  0  0  0  0  # atno 17395 bound_to 11000

$$$$
