AV-unprocessed.smi:1787|AV-procd|sdf|7206|dock8
  -GOLD-   22720 8443D 1   1.00000     0.00000
 Structure written by MMmdl.
 44 46  0  0  0  0  0  0  0  0  1 V2000
  147.6065  132.8510  154.4747 O   0  0  0  0  0  0  0  0  0  0  0  0
  148.0323  133.7027  153.6954 C   0  0  0  0  0  0  0  0  0  0  0  0
  148.9628  134.6054  154.0287 N   0  0  0  0  0  0  0  0  0  0  0  0
  149.6007  134.7025  155.3385 C   0  0  0  0  0  0  0  0  0  0  0  0
  149.2837  136.0603  156.0440 C   0  0  1  0  0  0  0  0  0  0  0  0
  149.8584  137.1990  155.2629 N   0  0  0  0  0  0  0  0  0  0  0  0
  149.3853  138.5412  155.6328 C   0  0  0  0  0  0  0  0  0  0  0  0
  149.9671  139.6391  154.7258 C   0  0  0  0  0  0  0  0  0  0  0  0
  151.3868  139.5880  154.7582 O   0  0  0  0  0  0  0  0  0  0  0  0
  151.8868  138.3290  154.3295 C   0  0  0  0  0  0  0  0  0  0  0  0
  151.3276  137.2153  155.2306 C   0  0  0  0  0  0  0  0  0  0  0  0
  147.7394  136.1476  156.2187 C   0  0  0  0  0  0  0  0  0  0  0  0
  147.2922  135.1490  157.2924 C   0  0  0  0  0  0  0  0  0  0  0  0
  148.6343  135.0117  158.4963 S   0  0  0  0  0  0  0  0  0  0  0  0
  149.8013  135.9825  157.5029 C   0  0  0  0  0  0  0  0  0  0  0  0
  147.6331  133.8699  152.4229 N   0  0  0  0  0  0  0  0  0  0  0  0
  146.6681  133.1333  151.6824 C   0  0  0  0  0  0  0  0  0  0  0  0
  146.2253  131.9080  152.2224 C   0  0  0  0  0  0  0  0  0  0  0  0
  145.2599  131.1574  151.5249 C   0  0  0  0  0  0  0  0  0  0  0  0
  144.7666  131.6674  150.3090 C   0  0  0  0  0  0  0  0  0  0  0  0
  145.1694  132.8425  149.7823 N   0  0  0  0  0  0  0  0  0  0  0  0
  146.0960  133.5576  150.4565 C   0  0  0  0  0  0  0  0  0  0  0  0
  149.2586  135.2723  153.3307 H   0  0  0  0  0  0  0  0  0  0  0  0
  149.2849  133.8563  155.9484 H   0  0  0  0  0  0  0  0  0  0  0  0
  150.6734  134.5559  155.2157 H   0  0  0  0  0  0  0  0  0  0  0  0
  148.3038  138.6135  155.5474 H   0  0  0  0  0  0  0  0  0  0  0  0
  149.6433  138.7695  156.6662 H   0  0  0  0  0  0  0  0  0  0  0  0
  149.6138  139.5205  153.7002 H   0  0  0  0  0  0  0  0  0  0  0  0
  149.6393  140.6221  155.0646 H   0  0  0  0  0  0  0  0  0  0  0  0
  151.6151  138.1557  153.2870 H   0  0  0  0  0  0  0  0  0  0  0  0
  152.9757  138.3434  154.3785 H   0  0  0  0  0  0  0  0  0  0  0  0
  151.7214  137.3448  156.2394 H   0  0  0  0  0  0  0  0  0  0  0  0
  151.7226  136.2728  154.8579 H   0  0  0  0  0  0  0  0  0  0  0  0
  147.4386  137.1219  156.5967 H   0  0  0  0  0  0  0  0  0  0  0  0
  147.1984  136.0002  155.2836 H   0  0  0  0  0  0  0  0  0  0  0  0
  146.3697  135.4655  157.7795 H   0  0  0  0  0  0  0  0  0  0  0  0
  147.1069  134.1671  156.8569 H   0  0  0  0  0  0  0  0  0  0  0  0
  150.8015  135.5532  157.5699 H   0  0  0  0  0  0  0  0  0  0  0  0
  149.8484  136.9673  157.9643 H   0  0  0  0  0  0  0  0  0  0  0  0
  148.0415  134.6533  151.9342 H   0  0  0  0  0  0  0  0  0  0  0  0
  146.6205  131.5437  153.1595 H   0  0  0  0  0  0  0  0  0  0  0  0
  144.9052  130.2142  151.9132 H   0  0  0  0  0  0  0  0  0  0  0  0
  144.0247  131.1194  149.7472 H   0  0  0  0  0  0  0  0  0  0  0  0
  146.3559  134.4957  149.9927 H   0  0  0  0  0  0  0  0  0  0  0  0
  1  2  2  0  0  0  0
  2  3  1  0  0  0  0
  2 16  1  0  0  0  0
  3  4  1  0  0  0  0
  3 23  1  0  0  0  0
  4  5  1  0  0  0  0
  4 24  1  0  0  0  0
  4 25  1  0  0  0  0
  5 15  1  0  0  0  0
  5  6  1  0  0  0  0
  5 12  1  0  0  0  0
  6 11  1  0  0  0  0
  6  7  1  0  0  0  0
  7  8  1  0  0  0  0
  7 26  1  0  0  0  0
  7 27  1  0  0  0  0
  8  9  1  0  0  0  0
  8 28  1  0  0  0  0
  8 29  1  0  0  0  0
  9 10  1  0  0  0  0
 10 11  1  0  0  0  0
 10 30  1  0  0  0  0
 10 31  1  0  0  0  0
 11 32  1  0  0  0  0
 11 33  1  0  0  0  0
 12 13  1  0  0  0  0
 12 34  1  0  0  0  0
 12 35  1  0  0  0  0
 13 14  1  0  0  0  0
 13 36  1  0  0  0  0
 13 37  1  0  0  0  0
 14 15  1  0  0  0  0
 15 38  1  0  0  0  0
 15 39  1  0  0  0  0
 16 17  1  0  0  0  0
 16 40  1  0  0  0  0
 17 22  1  0  0  0  0
 17 18  2  0  0  0  0
 18 19  1  0  0  0  0
 18 41  1  0  0  0  0
 19 20  2  0  0  0  0
 19 42  1  0  0  0  0
 20 21  1  0  0  0  0
 20 43  1  0  0  0  0
 21 22  2  0  0  0  0
 22 44  1  0  0  0  0
M  END
> <s_m_source_file>
AV-unprocessed.smi

> <i_m_source_file_index>
1787

> <i_lp_mmshare_version>
43012

> <i_f3d_flags>
0

> <s_epik_input>
W2NIXTFuW2NIXVtjSF1bY0hdYzFbTkhdQyg9TylbTkhdW0NIMl1bQ0BdMihbQ0gyXVtDSDJdU1tDSDJdMilOM1tDSDJdW0NIMl1PW0NIMl1bQ0gyXTM=

> <s_epik_cmdline>
J2VwaWtfcHl0aG9uJywgJy1waCcsICc3LjAnLCAnLXRuJywgJzgnLCAnLW1hJywgJzIwMCcsICctbWV0YWxfYmluZGluZycsICctaW1hZScsICc8aW5maWxlLm1hZT4nLCAnLW9tYWUnLCAnPG91dGZpbGUubWFlPic=

> <r_epik_Ionization_Penalty>
0.024212

> <r_epik_Ionization_Penalty_Charging>
0

> <r_epik_Ionization_Penalty_Neutral>
0.024212

> <r_epik_State_Penalty>
0.0155843

> <r_epik_Charging_Adjusted_Penalty>
0.0155843

> <i_epik_Tot_Q>
0

> <i_epik_Tot_abs_Q>
0

> <r_epik_Metal_State_Penalty>
0.01557

> <b_epik_Metal_Only>
0

> <s_lp_Force_Field>
OPLS_2005

> <r_lp_Energy>
57.3635

> <b_lp_Chiralities_Consistent>
1

> <s_lp_Variant>
AV-unprocessed.smi:1787-1

> <Gold.Version>
5.8.1

> <Gold.Id.Protein>
6NUR|6NUR_protein|mol2

> <Gold.PLP.Fitness>
40.5828

> <Gold.PLP.PLP>
-29.2688

> <Gold.PLP.part.hbond>
-3.0000

> <Gold.PLP.part.metal>
0.0000

> <Gold.PLP.part.buried>
-6.0568

> <Gold.PLP.part.nonpolar>
-20.9539

> <Gold.PLP.part.repulsive>
0.3749

> <Gold.PLP.ligand.clash>
0.0000

> <Gold.PLP.ligand.torsion>
0.2302

> <Gold.PLP.Chemscore.Hbond>
3.0000

> <Gold.PLP.Chemscore.CHOScore>
0.9035

> <Gold.PLP.Chemscore.Metal>
0.0000

> <Gold.Chemscore.Hbonds>
donor molecule, donor type, donor heavy atom, donor atom, acceptor molecule, acceptor atom, score
      L1  H     3    23       P1  7948  0.90
      L1  H    16    40       P1  7948  0.85
      P1  H  7989  7998       L1     9  0.80
      L1  C    22    44       P1  7921  0.74

> <Gold.PLP.Chemscore.Internal.Correction>
0.0640

> <Gold.Rescore>
     Score         DG    S(hbond)    S(metal)    S(lipo)     H(rot)  DE(clash)    DE(int)     intcor
     15.33     -16.99       2.00        0.00      72.99       1.44       0.15       1.52       ----

> <Gold.Chemscore.Fitness>
15.3258

> <Gold.Chemscore.DG>
-16.9883

> <Gold.Chemscore.ZeroCoef>
-5.4800

> <Gold.Chemscore.Hbond>
1.9959

> <Gold.Chemscore.Metal>
0.0000

> <Gold.Chemscore.Lipo>
72.9911

> <Gold.Chemscore.Internal_Hbond>
0.0000

> <Gold.Chemscore.DEClash>
0.1470

> <Gold.Chemscore.DEInternal>
1.5154

> <Gold.Chemscore.Rot>
1.4445

> <Gold.Chemscore.Internal.Correction>
   9.000000E+99

> <Gold.Chemscore.Hbonds>
donor molecule, donor type, donor heavy atom, donor atom, acceptor molecule, acceptor atom, score
      L1  H     3    23       P1  7948  0.17
      L1  H    16    40       P1  7948  0.14
      P1  H  7989  7998       L1     9  0.09

> <Gold.Chemscore.Hbond.Weighted>
-6.6662

> <Gold.Chemscore.Metal.Weighted>
-0.0000

> <Gold.Chemscore.Lipo.Weighted>
-8.5400

> <Gold.Chemscore.Internal_Hbond.Weighted>
0.0000

> <Gold.Chemscore.DEClash.Weighted>
0.1470

> <Gold.Chemscore.DEInternal.Weighted>
1.5154

> <Gold.Chemscore.Rot.Weighted>
3.6980

> <Gold.Chemscore.Internal.Correction.Weighted>
   9.000000E+99

> <Gold.Protein.RotatedTorsions>
[ 6907 6896 6895 6894 ] final -171.80 input  -60.11 | X-H torsion
[ 7974 7965 7964 7962 ] final  -29.93 input  175.53 | X-H torsion
[ 8008 7997 7996 7995 ] final -138.93 input   59.86 | X-H torsion
[ 10167 10162 10161 10158 ] final  178.28 input  -65.29 | X-H torsion
[ 10718 10713 10712 10709 ] final  -78.50 input   66.30 | X-H torsion
[ 10763 10752 10751 10750 ] final    1.57 input  -60.55 | X-H torsion
[ 11005 11000 10999 10996 ] final   26.70 input  -57.11 | X-H torsion

> <Gold.Protein.ActiveResidues>
 VAL166  LYS551  ARG553  GLY616  TRP617  ASP618  TYR619  PRO620  LYS621  CYS622 
 ASP623  PHE694  ASN695  SER759  ASP760  ASP761  ALA762  ILE779  LEU786  VAL792 
 PHE793  MET794  SER795  GLU796  ALA797  LYS798  CYS799  TRP800  GLU811  SER814 

> <Gold.Protein.RotatedAtoms>
  151.5298  133.3451  159.2915 H   0  0  0  0  0  0  0  0  0  0  0  0  # atno 6907 bound_to 6896
  150.8601  134.7953  159.7087 H   0  0  0  0  0  0  0  0  0  0  0  0  # atno 6908 bound_to 6896
  152.4623  134.5165  159.9821 H   0  0  0  0  0  0  0  0  0  0  0  0  # atno 6909 bound_to 6896
  146.1180  140.5476  142.8748 H   0  0  0  0  0  0  0  0  0  0  0  0  # atno 7974 bound_to 7965
  155.4365  140.0529  157.3014 H   0  0  0  0  0  0  0  0  0  0  0  0  # atno 8008 bound_to 7997
  154.4836  140.2092  155.9663 H   0  0  0  0  0  0  0  0  0  0  0  0  # atno 8009 bound_to 7997
  156.1243  140.3183  155.8259 H   0  0  0  0  0  0  0  0  0  0  0  0  # atno 8010 bound_to 7997
  139.5287  144.2699  152.0637 H   0  0  0  0  0  0  0  0  0  0  0  0  # atno 10167 bound_to 10162
  156.0116  130.4520  150.3506 H   0  0  0  0  0  0  0  0  0  0  0  0  # atno 10718 bound_to 10713
  153.3063  135.6959  153.7156 H   0  0  0  0  0  0  0  0  0  0  0  0  # atno 10763 bound_to 10752
  153.6051  135.3455  155.2960 H   0  0  0  0  0  0  0  0  0  0  0  0  # atno 10764 bound_to 10752
  154.8564  135.4350  154.2189 H   0  0  0  0  0  0  0  0  0  0  0  0  # atno 10765 bound_to 10752
  140.3342  134.2405  155.7698 H   0  0  0  0  0  0  0  0  0  0  0  0  # atno 11005 bound_to 11000
  144.7571  140.5333  143.6761 LP  0  0  0  0  0  0  0  0  0  0  0  0  # atno 17320 bound_to 7965
  145.5526  139.1477  143.3386 LP  0  0  0  0  0  0  0  0  0  0  0  0  # atno 17321 bound_to 7965
  140.2159  144.4516  150.6364 LP  0  0  0  0  0  0  0  0  0  0  0  0  # atno 17342 bound_to 10162
  140.6450  143.2211  151.6205 LP  0  0  0  0  0  0  0  0  0  0  0  0  # atno 17343 bound_to 10162
  157.1598  131.0342  151.2846 LP  0  0  0  0  0  0  0  0  0  0  0  0  # atno 17370 bound_to 10713
  157.4320  130.7496  149.6998 LP  0  0  0  0  0  0  0  0  0  0  0  0  # atno 17371 bound_to 10713
  141.2055  133.7857  157.0226 LP  0  0  0  0  0  0  0  0  0  0  0  0  # atno 17394 bound_to 11000
  140.0835  134.9634  157.1663 LP  0  0  0  0  0  0  0  0  0  0  0  0  # atno 17395 bound_to 11000

$$$$
