AV-unprocessed.smi:1406|AV-procd|sdf|5712|dock3
  -GOLD-   22720 5343D 1   1.00000     0.00000
 Structure written by MMmdl.
 41 43  0  0  0  0  0  0  0  0  2 V2000
  149.9667  140.7678  155.3559 C   0  0  0  0  0  0  0  0  0  0  0  0
  151.2329  139.9214  155.5997 C   0  0  1  0  0  0  0  0  0  0  0  0
  151.8497  140.1507  156.9940 C   0  0  0  0  0  0  0  0  0  0  0  0
  152.8420  139.5167  157.3549 O   0  0  0  0  0  0  0  0  0  0  0  0
  151.2399  141.0470  157.7876 N   0  0  0  0  0  0  0  0  0  0  0  0
  151.6753  141.4053  159.1340 C   0  0  1  0  0  0  0  0  0  0  0  0
  153.2016  141.4426  159.2855 C   0  0  0  0  0  0  0  0  0  0  0  0
  153.4719  142.5268  160.3438 C   0  0  0  0  0  0  0  0  0  0  0  0
  152.1503  143.0802  160.7154 N   0  3  1  0  0  0  0  0  0  0  0  0
  152.1392  144.4697  161.2406 C   0  0  0  0  0  0  0  0  0  0  0  0
  152.2467  145.5261  160.1281 C   0  0  0  0  0  0  0  0  0  0  0  0
  151.1700  145.3007  159.0618 C   0  0  0  0  0  0  0  0  0  0  0  0
  151.3087  143.8881  158.4851 C   0  0  0  0  0  0  0  0  0  0  0  0
  151.2282  142.8040  159.5909 C   0  0  1  0  0  0  0  0  0  0  0  0
  150.9798  138.5052  155.3519 N   0  0  0  0  0  0  0  0  0  0  0  0
  151.5754  137.6611  154.5065 C   0  0  0  0  0  0  0  0  0  0  0  0
  151.1146  136.4200  154.5711 N   0  0  0  0  0  0  0  0  0  0  0  0
  150.1695  136.5776  155.5450 C   0  0  0  0  0  0  0  0  0  0  0  0
  150.0531  137.8047  156.0523 N   0  0  0  0  0  0  0  0  0  0  0  0
  150.1790  141.8340  155.4408 H   0  0  0  0  0  0  0  0  0  0  0  0
  149.1758  140.5295  156.0685 H   0  0  0  0  0  0  0  0  0  0  0  0
  149.5716  140.5969  154.3541 H   0  0  0  0  0  0  0  0  0  0  0  0
  151.9839  140.2421  154.8764 H   0  0  0  0  0  0  0  0  0  0  0  0
  150.4291  141.5273  157.4245 H   0  0  0  0  0  0  0  0  0  0  0  0
  151.2894  140.6683  159.8418 H   0  0  0  0  0  0  0  0  0  0  0  0
  153.6000  140.4708  159.5793 H   0  0  0  0  0  0  0  0  0  0  0  0
  153.6805  141.7218  158.3456 H   0  0  0  0  0  0  0  0  0  0  0  0
  153.9674  142.1206  161.2263 H   0  0  0  0  0  0  0  0  0  0  0  0
  154.1171  143.3008  159.9270 H   0  0  0  0  0  0  0  0  0  0  0  0
  151.2031  144.6147  161.7812 H   0  0  0  0  0  0  0  0  0  0  0  0
  152.9398  144.5953  161.9702 H   0  0  0  0  0  0  0  0  0  0  0  0
  152.1442  146.5246  160.5544 H   0  0  0  0  0  0  0  0  0  0  0  0
  153.2347  145.4899  159.6682 H   0  0  0  0  0  0  0  0  0  0  0  0
  150.1781  145.4313  159.4964 H   0  0  0  0  0  0  0  0  0  0  0  0
  151.2656  146.0420  158.2678 H   0  0  0  0  0  0  0  0  0  0  0  0
  150.5302  143.7227  157.7396 H   0  0  0  0  0  0  0  0  0  0  0  0
  152.2590  143.8166  157.9546 H   0  0  0  0  0  0  0  0  0  0  0  0
  150.2072  142.7695  159.9741 H   0  0  0  0  0  0  0  0  0  0  0  0
  152.3673  137.9586  153.8347 H   0  0  0  0  0  0  0  0  0  0  0  0
  149.5537  135.7623  155.8955 H   0  0  0  0  0  0  0  0  0  0  0  0
  151.8307  142.4919  161.4720 H   0  0  0  0  0  0  0  0  0  0  0  0
  1  2  1  0  0  0  0
  1 20  1  0  0  0  0
  1 21  1  0  0  0  0
  1 22  1  0  0  0  0
  2  3  1  0  0  0  0
  2 15  1  0  0  0  0
  2 23  1  0  0  0  0
  3  4  2  0  0  0  0
  3  5  1  0  0  0  0
  5  6  1  0  0  0  0
  5 24  1  0  0  0  0
  6 14  1  0  0  0  0
  6  7  1  0  0  0  0
  6 25  1  0  0  0  0
  7  8  1  0  0  0  0
  7 26  1  0  0  0  0
  7 27  1  0  0  0  0
  8  9  1  0  0  0  0
  8 28  1  0  0  0  0
  8 29  1  0  0  0  0
  9 14  1  0  0  0  0
  9 10  1  0  0  0  0
  9 41  1  0  0  0  0
 10 11  1  0  0  0  0
 10 30  1  0  0  0  0
 10 31  1  0  0  0  0
 11 12  1  0  0  0  0
 11 32  1  0  0  0  0
 11 33  1  0  0  0  0
 12 13  1  0  0  0  0
 12 34  1  0  0  0  0
 12 35  1  0  0  0  0
 13 14  1  0  0  0  0
 13 36  1  0  0  0  0
 13 37  1  0  0  0  0
 14 38  1  0  0  0  0
 15 19  1  0  0  0  0
 15 16  1  0  0  0  0
 16 17  2  0  0  0  0
 16 39  1  0  0  0  0
 17 18  1  0  0  0  0
 18 19  2  0  0  0  0
 18 40  1  0  0  0  0
M  CHG  1   9   1
M  END
> <s_m_source_file>
AV-unprocessed.smi

> <i_m_source_file_index>
1406

> <i_lp_mmshare_version>
43012

> <i_f3d_flags>
0

> <s_epik_input>
bjFbY0hdbltjSF1uMVtDQEhdKFtDSDNdKUMoPU8pW05IXVtDQEhdKFtDSDJdW0NIMl0yKVtDQEBIXShOMjMpW0NIMl1bQ0gyXVtDSDJdW0NIMl0z

> <s_epik_cmdline>
J2VwaWtfcHl0aG9uJywgJy1waCcsICc3LjAnLCAnLXRuJywgJzgnLCAnLW1hJywgJzIwMCcsICctbWV0YWxfYmluZGluZycsICctaW1hZScsICc8aW5maWxlLm1hZT4nLCAnLW9tYWUnLCAnPG91dGZpbGUubWFlPic=

> <r_lp_tautomer_probability>
1

> <r_epik_Ionization_Penalty>
0.00197066

> <r_epik_Ionization_Penalty_Charging>
0.00196223

> <r_epik_Ionization_Penalty_Neutral>
8.43107e-06

> <r_epik_State_Penalty>
0.00133866

> <r_epik_Charging_Adjusted_Penalty>
0.00330089

> <i_epik_Tot_Q>
1

> <i_epik_Tot_abs_Q>
1

> <r_epik_Metal_State_Penalty>
-0

> <b_epik_Metal_Only>
0

> <s_lp_Force_Field>
OPLS_2005

> <r_lp_Energy>
42.4798

> <b_lp_Chiralities_Consistent>
1

> <s_lp_Variant>
AV-unprocessed.smi:1406-4

> <Gold.Version>
5.8.1

> <Gold.Id.Protein>
6NUR|6NUR_protein|mol2

> <Gold.PLP.Fitness>
42.9308

> <Gold.PLP.PLP>
-37.7576

> <Gold.PLP.part.hbond>
-2.0000

> <Gold.PLP.part.metal>
0.0000

> <Gold.PLP.part.buried>
-5.1281

> <Gold.PLP.part.nonpolar>
-32.5437

> <Gold.PLP.part.repulsive>
1.3050

> <Gold.PLP.ligand.clash>
0.0000

> <Gold.PLP.ligand.torsion>
0.4653

> <Gold.PLP.Chemscore.Hbond>
2.0000

> <Gold.PLP.Chemscore.CHOScore>
0.0000

> <Gold.PLP.Chemscore.Metal>
0.0000

> <Gold.Chemscore.Hbonds>
donor molecule, donor type, donor heavy atom, donor atom, acceptor molecule, acceptor atom, score
      P1  H  7997  8008       L1     4  1.00
      P1  H 10752 10764       L1    17  0.65

> <Gold.PLP.Chemscore.Internal.Correction>
0.1037

> <Gold.Rescore>
     Score         DG    S(hbond)    S(metal)    S(lipo)     H(rot)  DE(clash)    DE(int)     intcor
     15.48     -17.61       1.74        0.00      95.21       1.89       0.08       2.05       ----

> <Gold.Chemscore.Fitness>
15.4784

> <Gold.Chemscore.DG>
-17.6110

> <Gold.Chemscore.ZeroCoef>
-5.4800

> <Gold.Chemscore.Hbond>
1.7427

> <Gold.Chemscore.Metal>
0.0000

> <Gold.Chemscore.Lipo>
95.2131

> <Gold.Chemscore.Internal_Hbond>
0.0000

> <Gold.Chemscore.DEClash>
0.0804

> <Gold.Chemscore.DEInternal>
2.0523

> <Gold.Chemscore.Rot>
1.8865

> <Gold.Chemscore.Internal.Correction>
   9.000000E+99

> <Gold.Chemscore.Hbonds>
donor molecule, donor type, donor heavy atom, donor atom, acceptor molecule, acceptor atom, score
      P1  H  7997  8008       L1     4  0.98
      P1  H 10752 10764       L1    17  0.05

> <Gold.Chemscore.Hbond.Weighted>
-5.8206

> <Gold.Chemscore.Metal.Weighted>
-0.0000

> <Gold.Chemscore.Lipo.Weighted>
-11.1399

> <Gold.Chemscore.Internal_Hbond.Weighted>
0.0000

> <Gold.Chemscore.DEClash.Weighted>
0.0804

> <Gold.Chemscore.DEInternal.Weighted>
2.0523

> <Gold.Chemscore.Rot.Weighted>
4.8295

> <Gold.Chemscore.Internal.Correction.Weighted>
   9.000000E+99

> <Gold.Protein.RotatedTorsions>
[ 6907 6896 6895 6894 ] final   85.42 input  -60.11 | X-H torsion
[ 7974 7965 7964 7962 ] final  165.83 input  175.53 | X-H torsion
[ 8008 7997 7996 7995 ] final  -80.42 input   59.86 | X-H torsion
[ 10167 10162 10161 10158 ] final    7.61 input  -65.29 | X-H torsion
[ 10718 10713 10712 10709 ] final  -92.15 input   66.30 | X-H torsion
[ 10763 10752 10751 10750 ] final  -74.29 input  -60.55 | X-H torsion
[ 11005 11000 10999 10996 ] final   91.31 input  -57.11 | X-H torsion

> <Gold.Protein.ActiveResidues>
 VAL166  LYS551  ARG553  GLY616  TRP617  ASP618  TYR619  PRO620  LYS621  CYS622 
 ASP623  PHE694  ASN695  SER759  ASP760  ASP761  ALA762  ILE779  LEU786  VAL792 
 PHE793  MET794  SER795  GLU796  ALA797  LYS798  CYS799  TRP800  GLU811  SER814 

> <Gold.Protein.RotatedAtoms>
  152.5374  134.2589  159.8927 H   0  0  0  0  0  0  0  0  0  0  0  0  # atno 6907 bound_to 6896
  151.2550  133.4324  159.2621 H   0  0  0  0  0  0  0  0  0  0  0  0  # atno 6908 bound_to 6896
  151.0505  134.9684  159.8265 H   0  0  0  0  0  0  0  0  0  0  0  0  # atno 6909 bound_to 6896
  144.7487  139.8527  143.6373 H   0  0  0  0  0  0  0  0  0  0  0  0  # atno 7974 bound_to 7965
  154.5881  140.0663  156.9200 H   0  0  0  0  0  0  0  0  0  0  0  0  # atno 8008 bound_to 7997
  155.2343  140.3340  155.4281 H   0  0  0  0  0  0  0  0  0  0  0  0  # atno 8009 bound_to 7997
  156.2237  140.1810  156.7400 H   0  0  0  0  0  0  0  0  0  0  0  0  # atno 8010 bound_to 7997
  140.6362  143.7881  150.7362 H   0  0  0  0  0  0  0  0  0  0  0  0  # atno 10167 bound_to 10162
  155.9999  130.4976  150.5582 H   0  0  0  0  0  0  0  0  0  0  0  0  # atno 10718 bound_to 10713
  154.4711  135.5869  153.6322 H   0  0  0  0  0  0  0  0  0  0  0  0  # atno 10763 bound_to 10752
  152.9834  135.6067  154.3366 H   0  0  0  0  0  0  0  0  0  0  0  0  # atno 10764 bound_to 10752
  154.3248  135.2843  155.2481 H   0  0  0  0  0  0  0  0  0  0  0  0  # atno 10765 bound_to 10752
  139.8841  134.8667  156.3410 H   0  0  0  0  0  0  0  0  0  0  0  0  # atno 11005 bound_to 11000
  146.1404  139.4460  143.0112 LP  0  0  0  0  0  0  0  0  0  0  0  0  # atno 17320 bound_to 7965
  145.7026  141.0131  143.1496 LP  0  0  0  0  0  0  0  0  0  0  0  0  # atno 17321 bound_to 7965
  140.1503  143.4364  152.2136 LP  0  0  0  0  0  0  0  0  0  0  0  0  # atno 17342 bound_to 10162
  139.5572  144.7381  151.4259 LP  0  0  0  0  0  0  0  0  0  0  0  0  # atno 17343 bound_to 10162
  157.3495  131.0731  151.1724 LP  0  0  0  0  0  0  0  0  0  0  0  0  # atno 17370 bound_to 10713
  157.2545  130.6630  149.5946 LP  0  0  0  0  0  0  0  0  0  0  0  0  # atno 17371 bound_to 10713
  140.9658  133.7359  156.0465 LP  0  0  0  0  0  0  0  0  0  0  0  0  # atno 17394 bound_to 11000
  140.7932  134.3593  157.5459 LP  0  0  0  0  0  0  0  0  0  0  0  0  # atno 17395 bound_to 11000

$$$$
