AV-unprocessed.smi:112|AV-procd|sdf|1090|dock10
  -GOLD-   2262018193D 1   1.00000     0.00000
 Structure written by MMmdl.
 54 57  0  0  0  0  0  0  0  0  3 V2000
  148.3210  135.6246  159.9858 C   0  0  0  0  0  0  0  0  0  0  0  0
  148.9711  136.1838  158.7302 C   0  0  0  0  0  0  0  0  0  0  0  0
  149.0258  137.5117  158.4779 C   0  0  0  0  0  0  0  0  0  0  0  0
  149.6105  138.0557  157.3501 N   0  0  0  0  0  0  0  0  0  0  0  0
  149.5662  139.5561  157.1435 C   0  0  1  0  0  0  0  0  0  0  0  0
  150.9494  140.1964  156.9560 C   0  0  0  0  0  0  0  0  0  0  0  0
  150.6429  141.3082  155.9718 C   0  0  2  0  0  0  0  0  0  0  0  0
  150.2314  142.4752  156.6604 O   0  0  0  0  0  0  0  0  0  0  0  0
  149.5136  140.6975  155.1262 C   0  0  2  0  0  0  0  0  0  0  0  0
  148.5597  141.6758  154.4186 C   0  0  0  0  0  0  0  0  0  0  0  0
  147.6808  142.2690  155.3512 O   0  0  0  0  0  0  0  0  0  0  0  0
  148.7974  139.8379  156.0110 O   0  0  0  0  0  0  0  0  0  0  0  0
  150.1532  137.1977  156.3676 C   0  0  0  0  0  0  0  0  0  0  0  0
  150.6281  137.6444  155.3221 O   0  0  0  0  0  0  0  0  0  0  0  0
  150.1274  135.8052  156.6087 N   0  0  0  0  0  0  0  0  0  0  0  0
  150.6948  134.8970  155.5856 C   0  0  0  0  0  0  0  0  0  0  0  0
  149.6283  134.1097  154.7919 C   0  0  0  0  0  0  0  0  0  0  0  0
  148.6623  134.7174  154.3292 O   0  0  0  0  0  0  0  0  0  0  0  0
  149.8082  132.7738  154.6410 N   0  0  0  0  0  0  0  0  0  0  0  0
  150.9553  132.0395  155.2028 C   0  0  0  0  0  0  0  0  0  0  0  0
  150.7574  130.5592  154.8098 C   0  0  0  0  0  0  0  0  0  0  0  0
  149.4838  130.5859  154.0175 C   0  0  0  0  0  0  0  0  0  0  0  0
  148.8520  129.4888  153.4080 C   0  0  0  0  0  0  0  0  0  0  0  0
  147.6471  129.7030  152.6934 C   0  0  0  0  0  0  0  0  0  0  0  0
  146.9549  128.5741  152.0407 N   0  3  0  0  0  0  0  0  0  0  0  0
  147.4691  127.4620  152.1031 O   0  0  0  0  0  0  0  0  0  0  0  0
  145.8955  128.7978  151.4638 O   0  5  0  0  0  0  0  0  0  0  0  0
  147.1158  131.0178  152.6144 C   0  0  0  0  0  0  0  0  0  0  0  0
  147.7640  132.1090  153.2334 C   0  0  0  0  0  0  0  0  0  0  0  0
  148.9630  131.8724  153.9405 C   0  0  0  0  0  0  0  0  0  0  0  0
  149.5461  135.2398  157.7700 C   0  0  0  0  0  0  0  0  0  0  0  0
  149.5283  134.0180  157.9326 O   0  0  0  0  0  0  0  0  0  0  0  0
  147.9255  136.4145  160.6250 H   0  0  0  0  0  0  0  0  0  0  0  0
  149.0457  135.0554  160.5690 H   0  0  0  0  0  0  0  0  0  0  0  0
  147.4949  134.9625  159.7246 H   0  0  0  0  0  0  0  0  0  0  0  0
  148.5884  138.1819  159.2042 H   0  0  0  0  0  0  0  0  0  0  0  0
  149.0471  139.9713  158.0078 H   0  0  0  0  0  0  0  0  0  0  0  0
  151.3575  140.5393  157.9074 H   0  0  0  0  0  0  0  0  0  0  0  0
  151.6541  139.4916  156.5175 H   0  0  0  0  0  0  0  0  0  0  0  0
  151.5117  141.5590  155.3627 H   0  0  0  0  0  0  0  0  0  0  0  0
  149.8574  143.0783  156.0364 H   0  0  0  0  0  0  0  0  0  0  0  0
  149.9661  140.0508  154.3731 H   0  0  0  0  0  0  0  0  0  0  0  0
  149.1347  142.4714  153.9445 H   0  0  0  0  0  0  0  0  0  0  0  0
  147.9900  141.1861  153.6289 H   0  0  0  0  0  0  0  0  0  0  0  0
  148.0749  143.0637  155.6764 H   0  0  0  0  0  0  0  0  0  0  0  0
  151.3143  135.4564  154.8834 H   0  0  0  0  0  0  0  0  0  0  0  0
  151.3875  134.1925  156.0476 H   0  0  0  0  0  0  0  0  0  0  0  0
  151.8919  132.4185  154.7917 H   0  0  0  0  0  0  0  0  0  0  0  0
  150.9906  132.1414  156.2883 H   0  0  0  0  0  0  0  0  0  0  0  0
  151.5809  130.1857  154.2004 H   0  0  0  0  0  0  0  0  0  0  0  0
  150.6462  129.9182  155.6849 H   0  0  0  0  0  0  0  0  0  0  0  0
  149.2898  128.5049  153.4910 H   0  0  0  0  0  0  0  0  0  0  0  0
  146.1993  131.2036  152.0743 H   0  0  0  0  0  0  0  0  0  0  0  0
  147.3268  133.0910  153.1479 H   0  0  0  0  0  0  0  0  0  0  0  0
  1  2  1  0  0  0  0
  1 33  1  0  0  0  0
  1 34  1  0  0  0  0
  1 35  1  0  0  0  0
  2 31  1  0  0  0  0
  2  3  2  0  0  0  0
  3  4  1  0  0  0  0
  3 36  1  0  0  0  0
  4  5  1  0  0  0  0
  4 13  1  0  0  0  0
  5 12  1  0  0  0  0
  5  6  1  0  0  0  0
  5 37  1  0  0  0  0
  6  7  1  0  0  0  0
  6 38  1  0  0  0  0
  6 39  1  0  0  0  0
  7  8  1  0  0  0  0
  7  9  1  0  0  0  0
  7 40  1  0  0  0  0
  8 41  1  0  0  0  0
  9 10  1  0  0  0  0
  9 12  1  0  0  0  0
  9 42  1  0  0  0  0
 10 11  1  0  0  0  0
 10 43  1  0  0  0  0
 10 44  1  0  0  0  0
 11 45  1  0  0  0  0
 13 14  2  0  0  0  0
 13 15  1  0  0  0  0
 15 16  1  0  0  0  0
 15 31  1  0  0  0  0
 16 17  1  0  0  0  0
 16 46  1  0  0  0  0
 16 47  1  0  0  0  0
 17 18  2  0  0  0  0
 17 19  1  0  0  0  0
 19 30  1  0  0  0  0
 19 20  1  0  0  0  0
 20 21  1  0  0  0  0
 20 48  1  0  0  0  0
 20 49  1  0  0  0  0
 21 22  1  0  0  0  0
 21 50  1  0  0  0  0
 21 51  1  0  0  0  0
 22 30  2  0  0  0  0
 22 23  1  0  0  0  0
 23 24  2  0  0  0  0
 23 52  1  0  0  0  0
 24 25  1  0  0  0  0
 24 28  1  0  0  0  0
 25 26  2  0  0  0  0
 25 27  1  0  0  0  0
 28 29  2  0  0  0  0
 28 53  1  0  0  0  0
 29 30  1  0  0  0  0
 29 54  1  0  0  0  0
 31 32  2  0  0  0  0
M  CHG  1  25   1
M  CHG  1  27  -1
M  END
> <s_m_source_file>
AV-unprocessed.smi

> <i_m_source_file_index>
112

> <i_lp_mmshare_version>
43012

> <i_f3d_flags>
0

> <s_epik_input>
W09IXVtDSDJdW0NAQEhdKE8xKVtDQEhdKFtPSF0pW0NIMl1bQ0BIXTFuKFtjSF1jMltDSDNdKWMoPU8pbihjMj1PKVtDSDJdQyg9TylOKFtDSDJdW0NIMl0zKWMoYzM0KVtjSF1bY0hdYyhbY0hdNClbTitdKD1PKVtPLV0=

> <s_epik_cmdline>
J2VwaWtfcHl0aG9uJywgJy1waCcsICc3LjAnLCAnLXRuJywgJzgnLCAnLW1hJywgJzIwMCcsICctbWV0YWxfYmluZGluZycsICctaW1hZScsICc8aW5maWxlLm1hZT4nLCAnLW9tYWUnLCAnPG91dGZpbGUubWFlPic=

> <r_lp_tautomer_probability>
1

> <r_epik_Ionization_Penalty>
2.5696e-07

> <r_epik_Ionization_Penalty_Charging>
1.04886e-08

> <r_epik_Ionization_Penalty_Neutral>
2.46472e-07

> <r_epik_State_Penalty>
-0

> <r_epik_Charging_Adjusted_Penalty>
1.04886e-08

> <i_epik_Tot_Q>
0

> <i_epik_Tot_abs_Q>
2

> <r_epik_Metal_State_Penalty>
-0

> <b_epik_Metal_Only>
0

> <s_epik_Chemistry_Notes>
This compound contains an acetal/aminal-like group ( X-CH(R)-Y where X, Y are N, S, or O) that may be acid/base labile, releasing an aldehyde.

> <s_lp_Force_Field>
OPLS_2005

> <r_lp_Energy>
55.491

> <b_lp_Chiralities_Consistent>
1

> <s_lp_Variant>
AV-unprocessed.smi:112-8

> <Gold.Version>
5.8.1

> <Gold.Id.Protein>
6NUR|6NUR_protein|mol2

> <Gold.PLP.Fitness>
52.9285

> <Gold.PLP.PLP>
-44.8084

> <Gold.PLP.part.hbond>
-3.0000

> <Gold.PLP.part.metal>
0.0000

> <Gold.PLP.part.buried>
-5.3932

> <Gold.PLP.part.nonpolar>
-37.0022

> <Gold.PLP.part.repulsive>
1.3612

> <Gold.PLP.ligand.clash>
0.0000

> <Gold.PLP.ligand.torsion>
0.3773

> <Gold.PLP.Chemscore.Hbond>
2.9440

> <Gold.PLP.Chemscore.CHOScore>
0.0000

> <Gold.PLP.Chemscore.Metal>
0.0000

> <Gold.Chemscore.Hbonds>
donor molecule, donor type, donor heavy atom, donor atom, acceptor molecule, acceptor atom, score
      L1  H     8    41       P1  8028  0.99
      L1  H    11    45       P1  8028  1.00
      P1  H  6896  6908       L1    32  0.90

> <Gold.PLP.Chemscore.Internal.Correction>
0.0427

> <Gold.Rescore>
     Score         DG    S(hbond)    S(metal)    S(lipo)     H(rot)  DE(clash)    DE(int)     intcor
     11.12     -14.72       2.39        0.00      82.76       3.29       0.01       3.59       ----

> <Gold.Chemscore.Fitness>
11.1214

> <Gold.Chemscore.DG>
-14.7230

> <Gold.Chemscore.ZeroCoef>
-5.4800

> <Gold.Chemscore.Hbond>
2.3912

> <Gold.Chemscore.Metal>
0.0000

> <Gold.Chemscore.Lipo>
82.7594

> <Gold.Chemscore.Internal_Hbond>
0.0000

> <Gold.Chemscore.DEClash>
0.0136

> <Gold.Chemscore.DEInternal>
3.5880

> <Gold.Chemscore.Rot>
3.2916

> <Gold.Chemscore.Internal.Correction>
   9.000000E+99

> <Gold.Chemscore.Hbonds>
donor molecule, donor type, donor heavy atom, donor atom, acceptor molecule, acceptor atom, score
      L1  H     8    41       P1  8028  0.94
      L1  H    11    45       P1  8028  0.78
      P1  H  6896  6908       L1    32  0.18

> <Gold.Chemscore.Hbond.Weighted>
-7.9867

> <Gold.Chemscore.Metal.Weighted>
-0.0000

> <Gold.Chemscore.Lipo.Weighted>
-9.6829

> <Gold.Chemscore.Internal_Hbond.Weighted>
0.0000

> <Gold.Chemscore.DEClash.Weighted>
0.0136

> <Gold.Chemscore.DEInternal.Weighted>
3.5880

> <Gold.Chemscore.Rot.Weighted>
8.4265

> <Gold.Chemscore.Internal.Correction.Weighted>
   9.000000E+99

> <Gold.Protein.RotatedTorsions>
[ 6907 6896 6895 6894 ] final  128.39 input  -60.11 | X-H torsion
[ 7974 7965 7964 7962 ] final -172.83 input  175.53 | X-H torsion
[ 8008 7997 7996 7995 ] final  -86.50 input   59.86 | X-H torsion
[ 10167 10162 10161 10158 ] final   -4.30 input  -65.29 | X-H torsion
[ 10718 10713 10712 10709 ] final  119.85 input   66.30 | X-H torsion
[ 10763 10752 10751 10750 ] final -152.96 input  -60.55 | X-H torsion
[ 11005 11000 10999 10996 ] final -111.61 input  -57.11 | X-H torsion

> <Gold.Protein.ActiveResidues>
 VAL166  LYS551  ARG553  GLY616  TRP617  ASP618  TYR619  PRO620  LYS621  CYS622 
 ASP623  PHE694  ASN695  SER759  ASP760  ASP761  ALA762  ILE779  LEU786  VAL792 
 PHE793  MET794  SER795  GLU796  ALA797  LYS798  CYS799  TRP800  GLU811  SER814 

> <Gold.Protein.RotatedAtoms>
  152.3724  133.6436  159.6097 H   0  0  0  0  0  0  0  0  0  0  0  0  # atno 6907 bound_to 6896
  150.7678  133.9249  159.3418 H   0  0  0  0  0  0  0  0  0  0  0  0  # atno 6908 bound_to 6896
  151.7069  135.0921  160.0312 H   0  0  0  0  0  0  0  0  0  0  0  0  # atno 6909 bound_to 6896
  144.7143  140.1713  143.6367 H   0  0  0  0  0  0  0  0  0  0  0  0  # atno 7974 bound_to 7965
  154.6525  140.0578  156.9972 H   0  0  0  0  0  0  0  0  0  0  0  0  # atno 8008 bound_to 7997
  155.1349  140.3260  155.4447 H   0  0  0  0  0  0  0  0  0  0  0  0  # atno 8009 bound_to 7997
  156.2582  140.1974  156.6467 H   0  0  0  0  0  0  0  0  0  0  0  0  # atno 8010 bound_to 7997
  140.6922  143.6440  150.8410 H   0  0  0  0  0  0  0  0  0  0  0  0  # atno 10167 bound_to 10162
  157.5933  131.1061  150.7954 H   0  0  0  0  0  0  0  0  0  0  0  0  # atno 10718 bound_to 10713
  154.7959  135.3224  154.7667 H   0  0  0  0  0  0  0  0  0  0  0  0  # atno 10763 bound_to 10752
  153.8346  135.6876  153.4814 H   0  0  0  0  0  0  0  0  0  0  0  0  # atno 10764 bound_to 10752
  153.1651  135.4645  154.9767 H   0  0  0  0  0  0  0  0  0  0  0  0  # atno 10765 bound_to 10752
  141.0724  133.9358  157.2458 H   0  0  0  0  0  0  0  0  0  0  0  0  # atno 11005 bound_to 11000
  145.8941  139.2392  143.1532 LP  0  0  0  0  0  0  0  0  0  0  0  0  # atno 17320 bound_to 7965
  145.9875  140.8631  143.0083 LP  0  0  0  0  0  0  0  0  0  0  0  0  # atno 17321 bound_to 7965
  140.0154  143.5598  152.2822 LP  0  0  0  0  0  0  0  0  0  0  0  0  # atno 17342 bound_to 10162
  139.6337  144.7647  151.2482 LP  0  0  0  0  0  0  0  0  0  0  0  0  # atno 17343 bound_to 10162
  156.8370  130.5035  149.5325 LP  0  0  0  0  0  0  0  0  0  0  0  0  # atno 17370 bound_to 10713
  156.0991  130.5955  150.9863 LP  0  0  0  0  0  0  0  0  0  0  0  0  # atno 17371 bound_to 10713
  139.9537  135.0170  156.9066 LP  0  0  0  0  0  0  0  0  0  0  0  0  # atno 17394 bound_to 11000
  140.5645  134.0502  155.7410 LP  0  0  0  0  0  0  0  0  0  0  0  0  # atno 17395 bound_to 11000

$$$$
