AV-unprocessed.smi:2195|AV-procd|sdf|8904|dock5
  -GOLD-   2272012123D 1   1.00000     0.00000
 Structure written by MMmdl.
 39 41  0  0  0  0  0  0  0  0  1 V2000
  152.0459  143.8262  161.4963 C   0  0  0  0  0  0  0  0  0  0  0  0
  152.3119  142.7166  160.5002 C   0  0  0  0  0  0  0  0  0  0  0  0
  151.6231  142.6771  159.2717 C   0  0  0  0  0  0  0  0  0  0  0  0
  151.8793  141.6421  158.3522 C   0  0  0  0  0  0  0  0  0  0  0  0
  152.8230  140.6354  158.6410 C   0  0  0  0  0  0  0  0  0  0  0  0
  153.0108  139.6637  157.6824 O   0  0  0  0  0  0  0  0  0  0  0  0
  152.1606  139.6655  156.5423 C   0  0  0  0  0  0  0  0  0  0  0  0
  152.5381  138.5058  155.6060 C   0  0  2  0  0  0  0  0  0  0  0  0
  153.9093  138.6006  155.2736 O   0  0  0  0  0  0  0  0  0  0  0  0
  151.6571  138.4168  154.3446 C   0  0  0  0  0  0  0  0  0  0  0  0
  150.2426  138.3468  154.6639 N   0  0  0  0  0  0  0  0  0  0  0  0
  149.5450  137.2474  155.0083 C   0  0  0  0  0  0  0  0  0  0  0  0
  148.2487  137.4024  155.2624 N   0  0  0  0  0  0  0  0  0  0  0  0
  148.0857  138.7623  155.0611 C   0  0  0  0  0  0  0  0  0  0  0  0
  146.9335  139.5734  155.1693 C   0  0  0  0  0  0  0  0  0  0  0  0
  147.0078  140.9579  154.9102 C   0  0  0  0  0  0  0  0  0  0  0  0
  148.2319  141.5517  154.5394 C   0  0  0  0  0  0  0  0  0  0  0  0
  149.3934  140.7638  154.4250 C   0  0  0  0  0  0  0  0  0  0  0  0
  149.3153  139.3830  154.6851 C   0  0  0  0  0  0  0  0  0  0  0  0
  153.5113  140.6796  159.8797 C   0  0  0  0  0  0  0  0  0  0  0  0
  153.2548  141.7142  160.8006 C   0  0  0  0  0  0  0  0  0  0  0  0
  151.3355  144.5536  161.1021 H   0  0  0  0  0  0  0  0  0  0  0  0
  152.9720  144.3499  161.7341 H   0  0  0  0  0  0  0  0  0  0  0  0
  151.6366  143.4147  162.4191 H   0  0  0  0  0  0  0  0  0  0  0  0
  150.8968  143.4385  159.0280 H   0  0  0  0  0  0  0  0  0  0  0  0
  151.3470  141.6215  157.4125 H   0  0  0  0  0  0  0  0  0  0  0  0
  151.1110  139.5915  156.8326 H   0  0  0  0  0  0  0  0  0  0  0  0
  152.2905  140.6064  156.0049 H   0  0  0  0  0  0  0  0  0  0  0  0
  152.4284  137.5793  156.1709 H   0  0  0  0  0  0  0  0  0  0  0  0
  154.3703  137.8913  155.6948 H   0  0  0  0  0  0  0  0  0  0  0  0
  151.8207  139.2894  153.7109 H   0  0  0  0  0  0  0  0  0  0  0  0
  151.9219  137.5440  153.7468 H   0  0  0  0  0  0  0  0  0  0  0  0
  150.0161  136.2775  155.0744 H   0  0  0  0  0  0  0  0  0  0  0  0
  145.9905  139.1293  155.4517 H   0  0  0  0  0  0  0  0  0  0  0  0
  146.1203  141.5675  154.9959 H   0  0  0  0  0  0  0  0  0  0  0  0
  148.2782  142.6128  154.3422 H   0  0  0  0  0  0  0  0  0  0  0  0
  150.3320  141.2152  154.1395 H   0  0  0  0  0  0  0  0  0  0  0  0
  154.2408  139.9310  160.1483 H   0  0  0  0  0  0  0  0  0  0  0  0
  153.7862  141.7364  161.7409 H   0  0  0  0  0  0  0  0  0  0  0  0
  1  2  1  0  0  0  0
  1 22  1  0  0  0  0
  1 23  1  0  0  0  0
  1 24  1  0  0  0  0
  2 21  1  0  0  0  0
  2  3  2  0  0  0  0
  3  4  1  0  0  0  0
  3 25  1  0  0  0  0
  4  5  2  0  0  0  0
  4 26  1  0  0  0  0
  5  6  1  0  0  0  0
  5 20  1  0  0  0  0
  6  7  1  0  0  0  0
  7  8  1  0  0  0  0
  7 27  1  0  0  0  0
  7 28  1  0  0  0  0
  8  9  1  0  0  0  0
  8 10  1  0  0  0  0
  8 29  1  0  0  0  0
  9 30  1  0  0  0  0
 10 11  1  0  0  0  0
 10 31  1  0  0  0  0
 10 32  1  0  0  0  0
 11 19  1  0  0  0  0
 11 12  1  0  0  0  0
 12 13  2  0  0  0  0
 12 33  1  0  0  0  0
 13 14  1  0  0  0  0
 14 19  2  0  0  0  0
 14 15  1  0  0  0  0
 15 16  2  0  0  0  0
 15 34  1  0  0  0  0
 16 17  1  0  0  0  0
 16 35  1  0  0  0  0
 17 18  2  0  0  0  0
 17 36  1  0  0  0  0
 18 19  1  0  0  0  0
 18 37  1  0  0  0  0
 20 21  2  0  0  0  0
 20 38  1  0  0  0  0
 21 39  1  0  0  0  0
M  END
> <s_m_source_file>
AV-unprocessed.smi

> <i_m_source_file_index>
2195

> <i_lp_mmshare_version>
43012

> <i_f3d_flags>
0

> <s_epik_input>
W0NIM11jMVtjSF1bY0hdYyhbY0hdW2NIXTEpT1tDSDJdW0NASF0oW09IXSlbQ0gyXW4oW2NIXW4yKWMoYzIzKVtjSF1bY0hdW2NIXVtjSF0z

> <s_epik_cmdline>
J2VwaWtfcHl0aG9uJywgJy1waCcsICc3LjAnLCAnLXRuJywgJzgnLCAnLW1hJywgJzIwMCcsICctbWV0YWxfYmluZGluZycsICctaW1hZScsICc8aW5maWxlLm1hZT4nLCAnLW9tYWUnLCAnPG91dGZpbGUubWFlPic=

> <r_lp_tautomer_probability>
1

> <r_epik_Ionization_Penalty>
0.0609831

> <r_epik_Ionization_Penalty_Charging>
0

> <r_epik_Ionization_Penalty_Neutral>
0.0609831

> <r_epik_State_Penalty>
0.0529032

> <r_epik_Charging_Adjusted_Penalty>
0.0529032

> <i_epik_Tot_Q>
0

> <i_epik_Tot_abs_Q>
0

> <r_epik_Metal_State_Penalty>
5.53344e-05

> <b_epik_Metal_Only>
0

> <s_lp_Force_Field>
OPLS_2005

> <r_lp_Energy>
15.928

> <b_lp_Chiralities_Consistent>
1

> <s_lp_Variant>
AV-unprocessed.smi:2195-1

> <Gold.Version>
5.8.1

> <Gold.Id.Protein>
6NUR|6NUR_protein|mol2

> <Gold.PLP.Fitness>
44.3525

> <Gold.PLP.PLP>
-43.2918

> <Gold.PLP.part.hbond>
-2.0000

> <Gold.PLP.part.metal>
0.0000

> <Gold.PLP.part.buried>
-3.2940

> <Gold.PLP.part.nonpolar>
-37.0939

> <Gold.PLP.part.repulsive>
0.0666

> <Gold.PLP.ligand.clash>
1.9876

> <Gold.PLP.ligand.torsion>
0.3734

> <Gold.PLP.Chemscore.Hbond>
1.2431

> <Gold.PLP.Chemscore.CHOScore>
0.0000

> <Gold.PLP.Chemscore.Metal>
0.0000

> <Gold.Chemscore.Hbonds>
donor molecule, donor type, donor heavy atom, donor atom, acceptor molecule, acceptor atom, score
      P1  H  7997  8008       L1     9  0.29
      P1  H  7997  8010       L1     6  0.99

> <Gold.PLP.Chemscore.Internal.Correction>
0.0659

> <Gold.Rescore>
     Score         DG    S(hbond)    S(metal)    S(lipo)     H(rot)  DE(clash)    DE(int)     intcor
     15.81     -16.20       0.68        0.00     119.94       2.19       0.06       0.32       ----

> <Gold.Chemscore.Fitness>
15.8099

> <Gold.Chemscore.DG>
-16.1958

> <Gold.Chemscore.ZeroCoef>
-5.4800

> <Gold.Chemscore.Hbond>
0.6836

> <Gold.Chemscore.Metal>
0.0000

> <Gold.Chemscore.Lipo>
119.9422

> <Gold.Chemscore.Internal_Hbond>
0.0000

> <Gold.Chemscore.DEClash>
0.0650

> <Gold.Chemscore.DEInternal>
0.3209

> <Gold.Chemscore.Rot>
2.1877

> <Gold.Chemscore.Internal.Correction>
   9.000000E+99

> <Gold.Chemscore.Hbonds>
donor molecule, donor type, donor heavy atom, donor atom, acceptor molecule, acceptor atom, score
      P1  H  7997  8008       L1     9  0.19
      P1  H  7997  8010       L1     6  0.20

> <Gold.Chemscore.Hbond.Weighted>
-2.2831

> <Gold.Chemscore.Metal.Weighted>
-0.0000

> <Gold.Chemscore.Lipo.Weighted>
-14.0332

> <Gold.Chemscore.Internal_Hbond.Weighted>
0.0000

> <Gold.Chemscore.DEClash.Weighted>
0.0650

> <Gold.Chemscore.DEInternal.Weighted>
0.3209

> <Gold.Chemscore.Rot.Weighted>
5.6005

> <Gold.Chemscore.Internal.Correction.Weighted>
   9.000000E+99

> <Gold.Protein.RotatedTorsions>
[ 6907 6896 6895 6894 ] final -133.14 input  -60.11 | X-H torsion
[ 7974 7965 7964 7962 ] final   50.85 input  175.53 | X-H torsion
[ 8008 7997 7996 7995 ] final   27.68 input   59.86 | X-H torsion
[ 10167 10162 10161 10158 ] final   54.20 input  -65.29 | X-H torsion
[ 10718 10713 10712 10709 ] final -126.25 input   66.30 | X-H torsion
[ 10763 10752 10751 10750 ] final   78.70 input  -60.55 | X-H torsion
[ 11005 11000 10999 10996 ] final  162.54 input  -57.11 | X-H torsion

> <Gold.Protein.ActiveResidues>
 VAL166  LYS551  ARG553  GLY616  TRP617  ASP618  TYR619  PRO620  LYS621  CYS622 
 ASP623  PHE694  ASN695  SER759  ASP760  ASP761  ALA762  ILE779  LEU786  VAL792 
 PHE793  MET794  SER795  GLU796  ALA797  LYS798  CYS799  TRP800  GLU811  SER814 

> <Gold.Protein.RotatedAtoms>
  150.9705  133.6349  159.2738 H   0  0  0  0  0  0  0  0  0  0  0  0  # atno 6907 bound_to 6896
  151.3640  135.0908  159.9453 H   0  0  0  0  0  0  0  0  0  0  0  0  # atno 6908 bound_to 6896
  152.5181  133.9273  159.7618 H   0  0  0  0  0  0  0  0  0  0  0  0  # atno 6909 bound_to 6896
  145.9971  139.4400  143.0038 H   0  0  0  0  0  0  0  0  0  0  0  0  # atno 7974 bound_to 7965
  155.0468  140.3175  155.4705 H   0  0  0  0  0  0  0  0  0  0  0  0  # atno 8008 bound_to 7997
  156.2843  140.2153  156.5536 H   0  0  0  0  0  0  0  0  0  0  0  0  # atno 8009 bound_to 7997
  154.7244  140.0487  157.0657 H   0  0  0  0  0  0  0  0  0  0  0  0  # atno 8010 bound_to 7997
  140.2326  144.3670  150.6409 H   0  0  0  0  0  0  0  0  0  0  0  0  # atno 10167 bound_to 10162
  156.1748  130.6692  151.0228 H   0  0  0  0  0  0  0  0  0  0  0  0  # atno 10718 bound_to 10713
  153.0894  135.4867  154.8661 H   0  0  0  0  0  0  0  0  0  0  0  0  # atno 10763 bound_to 10752
  154.7251  135.3048  154.8986 H   0  0  0  0  0  0  0  0  0  0  0  0  # atno 10764 bound_to 10752
  153.9639  135.6809  153.4799 H   0  0  0  0  0  0  0  0  0  0  0  0  # atno 10765 bound_to 10752
  140.2268  134.8154  157.3277 H   0  0  0  0  0  0  0  0  0  0  0  0  # atno 11005 bound_to 11000
  145.7543  140.9960  143.1234 LP  0  0  0  0  0  0  0  0  0  0  0  0  # atno 17320 bound_to 7965
  144.6907  139.9253  143.7469 LP  0  0  0  0  0  0  0  0  0  0  0  0  # atno 17321 bound_to 7965
  140.6173  143.2173  151.6765 LP  0  0  0  0  0  0  0  0  0  0  0  0  # atno 17342 bound_to 10162
  139.5104  144.3542  152.0623 LP  0  0  0  0  0  0  0  0  0  0  0  0  # atno 17343 bound_to 10162
  157.6828  131.0833  150.7324 LP  0  0  0  0  0  0  0  0  0  0  0  0  # atno 17370 bound_to 10713
  156.7382  130.4731  149.5483 LP  0  0  0  0  0  0  0  0  0  0  0  0  # atno 17371 bound_to 10713
  140.1792  134.4511  155.7783 LP  0  0  0  0  0  0  0  0  0  0  0  0  # atno 17394 bound_to 11000
  141.2220  133.6976  156.7839 LP  0  0  0  0  0  0  0  0  0  0  0  0  # atno 17395 bound_to 11000

$$$$
