AV-unprocessed.smi:1793|AV-procd|sdf|7225|dock3
  -GOLD-   22720 8463D 1   1.00000     0.00000
 Structure written by MMmdl.
 46 48  0  0  0  0  0  0  0  0  1 V2000
  144.1735  135.7183  153.6650 C   0  0  0  0  0  0  0  0  0  0  0  0
  145.0562  135.6063  152.4136 C   0  0  1  0  0  0  0  0  0  0  0  0
  146.2737  136.3891  152.6192 N   0  0  0  0  0  0  0  0  0  0  0  0
  146.3342  137.6439  153.0874 C   0  0  0  0  0  0  0  0  0  0  0  0
  145.3466  138.3041  153.4095 O   0  0  0  0  0  0  0  0  0  0  0  0
  147.6069  138.0661  153.1663 N   0  0  0  0  0  0  0  0  0  0  0  0
  148.0944  139.2978  153.6878 C   0  0  0  0  0  0  0  0  0  0  0  0
  147.3402  140.4927  153.5898 C   0  0  0  0  0  0  0  0  0  0  0  0
  147.8919  141.6980  154.0569 C   0  0  0  0  0  0  0  0  0  0  0  0
  149.1899  141.6703  154.5925 C   0  0  0  0  0  0  0  0  0  0  0  0
  149.9263  140.5449  154.6798 N   0  0  0  0  0  0  0  0  0  0  0  0
  149.4029  139.3708  154.2478 C   0  0  0  0  0  0  0  0  0  0  0  0
  150.2199  138.2236  154.3795 N   0  0  0  0  0  0  0  0  0  0  0  0
  151.6464  138.3577  154.6553 C   0  0  0  0  0  0  0  0  0  0  0  0
  152.0961  136.9691  155.1006 C   0  0  0  0  0  0  0  0  0  0  0  0
  150.8789  136.4638  155.8689 C   0  0  0  0  0  0  0  0  0  0  0  0
  149.6940  137.0767  155.1149 C   0  0  0  0  0  0  0  0  0  0  0  0
  145.4176  134.1431  152.0922 C   0  0  2  0  0  0  0  0  0  0  0  0
  146.2406  133.9488  150.8178 C   0  0  0  0  0  0  0  0  0  0  0  0
  145.9384  132.5137  150.4182 C   0  0  0  0  0  0  0  0  0  0  0  0
  144.6643  132.1701  151.1962 C   0  0  0  0  0  0  0  0  0  0  0  0
  144.2520  133.3870  151.8038 O   0  0  0  0  0  0  0  0  0  0  0  0
  143.2409  135.1676  153.5389 H   0  0  0  0  0  0  0  0  0  0  0  0
  143.9142  136.7575  153.8704 H   0  0  0  0  0  0  0  0  0  0  0  0
  144.6781  135.3198  154.5458 H   0  0  0  0  0  0  0  0  0  0  0  0
  144.4885  136.0079  151.5724 H   0  0  0  0  0  0  0  0  0  0  0  0
  147.1432  135.9336  152.3837 H   0  0  0  0  0  0  0  0  0  0  0  0
  148.3155  137.3825  152.9436 H   0  0  0  0  0  0  0  0  0  0  0  0
  146.3581  140.5097  153.1424 H   0  0  0  0  0  0  0  0  0  0  0  0
  147.3383  142.6229  153.9934 H   0  0  0  0  0  0  0  0  0  0  0  0
  149.6527  142.5763  154.9546 H   0  0  0  0  0  0  0  0  0  0  0  0
  152.1919  138.6977  153.7747 H   0  0  0  0  0  0  0  0  0  0  0  0
  151.8189  139.0700  155.4631 H   0  0  0  0  0  0  0  0  0  0  0  0
  152.2765  136.3366  154.2302 H   0  0  0  0  0  0  0  0  0  0  0  0
  153.0053  136.9890  155.7019 H   0  0  0  0  0  0  0  0  0  0  0  0
  150.8297  135.3761  155.9224 H   0  0  0  0  0  0  0  0  0  0  0  0
  150.9043  136.8501  156.8887 H   0  0  0  0  0  0  0  0  0  0  0  0
  148.8899  137.3574  155.7965 H   0  0  0  0  0  0  0  0  0  0  0  0
  149.2973  136.3544  154.4011 H   0  0  0  0  0  0  0  0  0  0  0  0
  145.9346  133.6841  152.9376 H   0  0  0  0  0  0  0  0  0  0  0  0
  145.8901  134.6267  150.0381 H   0  0  0  0  0  0  0  0  0  0  0  0
  147.3048  134.1320  150.9686 H   0  0  0  0  0  0  0  0  0  0  0  0
  145.7949  132.4268  149.3408 H   0  0  0  0  0  0  0  0  0  0  0  0
  146.7506  131.8446  150.7041 H   0  0  0  0  0  0  0  0  0  0  0  0
  143.8782  131.7707  150.5550 H   0  0  0  0  0  0  0  0  0  0  0  0
  144.8763  131.4342  151.9728 H   0  0  0  0  0  0  0  0  0  0  0  0
  1  2  1  0  0  0  0
  1 23  1  0  0  0  0
  1 24  1  0  0  0  0
  1 25  1  0  0  0  0
  2  3  1  0  0  0  0
  2 18  1  0  0  0  0
  2 26  1  0  0  0  0
  3  4  1  0  0  0  0
  3 27  1  0  0  0  0
  4  5  2  0  0  0  0
  4  6  1  0  0  0  0
  6  7  1  0  0  0  0
  6 28  1  0  0  0  0
  7 12  1  0  0  0  0
  7  8  2  0  0  0  0
  8  9  1  0  0  0  0
  8 29  1  0  0  0  0
  9 10  2  0  0  0  0
  9 30  1  0  0  0  0
 10 11  1  0  0  0  0
 10 31  1  0  0  0  0
 11 12  2  0  0  0  0
 12 13  1  0  0  0  0
 13 17  1  0  0  0  0
 13 14  1  0  0  0  0
 14 15  1  0  0  0  0
 14 32  1  0  0  0  0
 14 33  1  0  0  0  0
 15 16  1  0  0  0  0
 15 34  1  0  0  0  0
 15 35  1  0  0  0  0
 16 17  1  0  0  0  0
 16 36  1  0  0  0  0
 16 37  1  0  0  0  0
 17 38  1  0  0  0  0
 17 39  1  0  0  0  0
 18 22  1  0  0  0  0
 18 19  1  0  0  0  0
 18 40  1  0  0  0  0
 19 20  1  0  0  0  0
 19 41  1  0  0  0  0
 19 42  1  0  0  0  0
 20 21  1  0  0  0  0
 20 43  1  0  0  0  0
 20 44  1  0  0  0  0
 21 22  1  0  0  0  0
 21 45  1  0  0  0  0
 21 46  1  0  0  0  0
M  END
> <s_m_source_file>
AV-unprocessed.smi

> <i_m_source_file_index>
1793

> <i_lp_mmshare_version>
43012

> <i_f3d_flags>
0

> <s_epik_input>
TzFbQ0gyXVtDSDJdW0NIMl1bQ0BIXTFbQ0BIXShbQ0gzXSlbTkhdQyg9TylbTkhdYzJbY0hdW2NIXVtjSF1uYzJOM1tDSDJdW0NIMl1bQ0gyXVtDSDJdMw==

> <s_epik_cmdline>
J2VwaWtfcHl0aG9uJywgJy1waCcsICc3LjAnLCAnLXRuJywgJzgnLCAnLW1hJywgJzIwMCcsICctbWV0YWxfYmluZGluZycsICctaW1hZScsICc8aW5maWxlLm1hZT4nLCAnLW9tYWUnLCAnPG91dGZpbGUubWFlPic=

> <r_lp_tautomer_probability>
1

> <r_epik_Ionization_Penalty>
0.0992086

> <r_epik_Ionization_Penalty_Charging>
0

> <r_epik_Ionization_Penalty_Neutral>
0.0992086

> <r_epik_State_Penalty>
0.0887141

> <r_epik_Charging_Adjusted_Penalty>
0.0887141

> <i_epik_Tot_Q>
0

> <i_epik_Tot_abs_Q>
0

> <r_epik_Metal_State_Penalty>
0.075945

> <b_epik_Metal_Only>
0

> <s_lp_Force_Field>
OPLS_2005

> <r_lp_Energy>
46.0011

> <b_lp_Chiralities_Consistent>
1

> <s_lp_Variant>
AV-unprocessed.smi:1793-2

> <Gold.Version>
5.8.1

> <Gold.Id.Protein>
6NUR|6NUR_protein|mol2

> <Gold.PLP.Fitness>
40.6932

> <Gold.PLP.PLP>
-30.0225

> <Gold.PLP.part.hbond>
-3.0000

> <Gold.PLP.part.metal>
0.0000

> <Gold.PLP.part.buried>
1.6134

> <Gold.PLP.part.nonpolar>
-29.2059

> <Gold.PLP.part.repulsive>
1.8286

> <Gold.PLP.ligand.clash>
0.0000

> <Gold.PLP.ligand.torsion>
0.5114

> <Gold.PLP.Chemscore.Hbond>
2.7686

> <Gold.PLP.Chemscore.CHOScore>
1.0000

> <Gold.PLP.Chemscore.Metal>
0.0000

> <Gold.Chemscore.Hbonds>
donor molecule, donor type, donor heavy atom, donor atom, acceptor molecule, acceptor atom, score
      L1  H     3    27       P1  7948  0.90
      L1  H     6    28       P1  7948  0.99
      P1  H  7989  7998       L1    11  0.73
      L1  C    10    31       P1  8028  1.00

> <Gold.PLP.Chemscore.Internal.Correction>
0.3878

> <Gold.Rescore>
     Score         DG    S(hbond)    S(metal)    S(lipo)     H(rot)  DE(clash)    DE(int)     intcor
     14.67     -19.46       2.11        0.00      89.11       1.36       2.00       2.80       ----

> <Gold.Chemscore.Fitness>
14.6663

> <Gold.Chemscore.DG>
-19.4645

> <Gold.Chemscore.ZeroCoef>
-5.4800

> <Gold.Chemscore.Hbond>
2.1066

> <Gold.Chemscore.Metal>
0.0000

> <Gold.Chemscore.Lipo>
89.1057

> <Gold.Chemscore.Internal_Hbond>
0.0000

> <Gold.Chemscore.DEClash>
2.0010

> <Gold.Chemscore.DEInternal>
2.7972

> <Gold.Chemscore.Rot>
1.3582

> <Gold.Chemscore.Internal.Correction>
   9.000000E+99

> <Gold.Chemscore.Hbonds>
donor molecule, donor type, donor heavy atom, donor atom, acceptor molecule, acceptor atom, score
      L1  H     3    27       P1  7948  0.88
      L1  H     6    28       P1  7948  0.93
      P1  H  7989  7998       L1    11  0.19

> <Gold.Chemscore.Hbond.Weighted>
-7.0362

> <Gold.Chemscore.Metal.Weighted>
-0.0000

> <Gold.Chemscore.Lipo.Weighted>
-10.4254

> <Gold.Chemscore.Internal_Hbond.Weighted>
0.0000

> <Gold.Chemscore.DEClash.Weighted>
2.0010

> <Gold.Chemscore.DEInternal.Weighted>
2.7972

> <Gold.Chemscore.Rot.Weighted>
3.4771

> <Gold.Chemscore.Internal.Correction.Weighted>
   9.000000E+99

> <Gold.Protein.RotatedTorsions>
[ 6907 6896 6895 6894 ] final  172.93 input  -60.11 | X-H torsion
[ 7974 7965 7964 7962 ] final -120.58 input  175.53 | X-H torsion
[ 8008 7997 7996 7995 ] final  -76.26 input   59.86 | X-H torsion
[ 10167 10162 10161 10158 ] final  159.99 input  -65.29 | X-H torsion
[ 10718 10713 10712 10709 ] final   16.06 input   66.30 | X-H torsion
[ 10763 10752 10751 10750 ] final  -76.19 input  -60.55 | X-H torsion
[ 11005 11000 10999 10996 ] final  158.00 input  -57.11 | X-H torsion

> <Gold.Protein.ActiveResidues>
 VAL166  LYS551  ARG553  GLY616  TRP617  ASP618  TYR619  PRO620  LYS621  CYS622 
 ASP623  PHE694  ASN695  SER759  ASP760  ASP761  ALA762  ILE779  LEU786  VAL792 
 PHE793  MET794  SER795  GLU796  ALA797  LYS798  CYS799  TRP800  GLU811  SER814 

> <Gold.Protein.RotatedAtoms>
  151.7765  133.3346  159.3459 H   0  0  0  0  0  0  0  0  0  0  0  0  # atno 6907 bound_to 6896
  150.7442  134.5970  159.6026 H   0  0  0  0  0  0  0  0  0  0  0  0  # atno 6908 bound_to 6896
  152.3305  134.7266  160.0342 H   0  0  0  0  0  0  0  0  0  0  0  0  # atno 6909 bound_to 6896
  145.0498  140.8209  143.4216 H   0  0  0  0  0  0  0  0  0  0  0  0  # atno 7974 bound_to 7965
  154.5489  140.0730  156.8635 H   0  0  0  0  0  0  0  0  0  0  0  0  # atno 8008 bound_to 7997
  155.3032  140.3385  155.4228 H   0  0  0  0  0  0  0  0  0  0  0  0  # atno 8009 bound_to 7997
  156.1943  140.1698  156.8015 H   0  0  0  0  0  0  0  0  0  0  0  0  # atno 8010 bound_to 7997
  139.4836  144.4677  151.8619 H   0  0  0  0  0  0  0  0  0  0  0  0  # atno 10167 bound_to 10162
  157.0625  130.6315  149.5789 H   0  0  0  0  0  0  0  0  0  0  0  0  # atno 10718 bound_to 10713
  154.4965  135.5806  153.6498 H   0  0  0  0  0  0  0  0  0  0  0  0  # atno 10763 bound_to 10752
  152.9871  135.6125  154.3058 H   0  0  0  0  0  0  0  0  0  0  0  0  # atno 10764 bound_to 10752
  154.2962  135.2847  155.2612 H   0  0  0  0  0  0  0  0  0  0  0  0  # atno 10765 bound_to 10752
  140.1823  134.8467  157.2817 H   0  0  0  0  0  0  0  0  0  0  0  0  # atno 11005 bound_to 11000
  145.1542  139.2496  143.5425 LP  0  0  0  0  0  0  0  0  0  0  0  0  # atno 17320 bound_to 7965
  146.3517  140.1252  142.8599 LP  0  0  0  0  0  0  0  0  0  0  0  0  # atno 17321 bound_to 7965
  140.4143  144.2327  150.5888 LP  0  0  0  0  0  0  0  0  0  0  0  0  # atno 17342 bound_to 10162
  140.4936  143.2340  151.8783 LP  0  0  0  0  0  0  0  0  0  0  0  0  # atno 17343 bound_to 10162
  155.9974  130.5046  150.7533 LP  0  0  0  0  0  0  0  0  0  0  0  0  # atno 17370 bound_to 10713
  157.4943  131.0913  151.0390 LP  0  0  0  0  0  0  0  0  0  0  0  0  # atno 17371 bound_to 10713
  140.2254  134.3973  155.7546 LP  0  0  0  0  0  0  0  0  0  0  0  0  # atno 17394 bound_to 11000
  141.2223  133.7187  156.8556 LP  0  0  0  0  0  0  0  0  0  0  0  0  # atno 17395 bound_to 11000

$$$$
