AV-unprocessed.smi:181|AV-procd|sdf|1454|dock1
  -GOLD-   2262019253D 1   1.00000     0.00000
 Structure written by MMmdl.
 50 53  0  0  0  0  0  0  0  0  1 V2000
  144.6955  135.5083  149.6222 C   0  0  0  0  0  0  0  0  0  0  0  0
  144.0804  135.5687  151.0255 C   0  0  0  0  0  0  0  0  0  0  0  0
  144.9387  134.9734  152.0526 N   0  0  0  0  0  0  0  0  0  0  0  0
  145.2940  135.7667  153.0978 C   0  0  0  0  0  0  0  0  0  0  0  0
  145.1063  135.3294  154.3698 N   0  0  0  0  0  0  0  0  0  0  0  0
  145.4494  136.0979  155.4072 C   0  0  0  0  0  0  0  0  0  0  0  0
  145.9933  137.3159  155.3989 N   0  0  0  0  0  0  0  0  0  0  0  0
  146.1980  137.7567  154.1250 C   0  0  0  0  0  0  0  0  0  0  0  0
  145.8775  137.0543  152.9287 C   0  0  0  0  0  0  0  0  0  0  0  0
  146.2383  137.8156  151.8230 N   0  0  0  0  0  0  0  0  0  0  0  0
  146.7306  138.9096  152.3361 C   0  0  0  0  0  0  0  0  0  0  0  0
  146.7554  138.9542  153.7118 N   0  0  0  0  0  0  0  0  0  0  0  0
  147.2548  140.0425  154.5385 C   0  0  0  0  0  0  0  0  0  0  0  0
  148.7877  140.2520  154.4515 C   0  0  0  0  0  0  0  0  0  0  0  0
  149.0657  140.9231  153.2349 O   0  0  0  0  0  0  0  0  0  0  0  0
  149.3413  141.1054  155.6141 C   0  0  0  0  0  0  0  0  0  0  0  0
  150.8803  141.1274  155.6356 C   0  0  0  0  0  0  0  0  0  0  0  0
  151.3896  139.7999  155.6725 O   0  0  0  0  0  0  0  0  0  0  0  0
  151.0418  139.0460  154.5177 C   0  0  0  0  0  0  0  0  0  0  0  0
  149.5130  138.8913  154.4320 C   0  0  0  0  0  0  0  0  0  0  0  0
  145.1986  133.5230  152.0511 C   0  0  1  0  0  0  0  0  0  0  0  0
  144.5474  132.7819  150.8664 C   0  0  0  0  0  0  0  0  0  0  0  0
  145.4871  131.6001  150.5855 C   0  0  0  0  0  0  0  0  0  0  0  0
  146.7542  132.0018  151.1679 N   0  0  0  0  0  0  0  0  0  0  0  0
  146.6553  133.0684  151.9611 C   0  0  0  0  0  0  0  0  0  0  0  0
  147.5889  133.6083  152.5506 O   0  0  0  0  0  0  0  0  0  0  0  0
  143.9985  135.8958  148.8792 H   0  0  0  0  0  0  0  0  0  0  0  0
  144.9426  134.4835  149.3438 H   0  0  0  0  0  0  0  0  0  0  0  0
  145.6035  136.1072  149.5585 H   0  0  0  0  0  0  0  0  0  0  0  0
  143.8819  136.6066  151.2945 H   0  0  0  0  0  0  0  0  0  0  0  0
  143.1059  135.0824  150.9911 H   0  0  0  0  0  0  0  0  0  0  0  0
  145.2622  135.6756  156.3833 H   0  0  0  0  0  0  0  0  0  0  0  0
  147.1017  139.7159  151.7206 H   0  0  0  0  0  0  0  0  0  0  0  0
  146.7379  140.9540  154.2353 H   0  0  0  0  0  0  0  0  0  0  0  0
  146.9548  139.8552  155.5705 H   0  0  0  0  0  0  0  0  0  0  0  0
  148.9472  140.3150  152.5214 H   0  0  0  0  0  0  0  0  0  0  0  0
  148.9645  142.1274  155.5615 H   0  0  0  0  0  0  0  0  0  0  0  0
  148.9873  140.6954  156.5609 H   0  0  0  0  0  0  0  0  0  0  0  0
  151.2780  141.6573  154.7687 H   0  0  0  0  0  0  0  0  0  0  0  0
  151.2316  141.6618  156.5184 H   0  0  0  0  0  0  0  0  0  0  0  0
  151.4408  139.5245  153.6219 H   0  0  0  0  0  0  0  0  0  0  0  0
  151.5116  138.0648  154.5860 H   0  0  0  0  0  0  0  0  0  0  0  0
  149.1808  138.2933  155.2818 H   0  0  0  0  0  0  0  0  0  0  0  0
  149.2436  138.3265  153.5383 H   0  0  0  0  0  0  0  0  0  0  0  0
  144.8068  133.1010  152.9780 H   0  0  0  0  0  0  0  0  0  0  0  0
  143.5326  132.4544  151.0940 H   0  0  0  0  0  0  0  0  0  0  0  0
  144.4910  133.4050  149.9734 H   0  0  0  0  0  0  0  0  0  0  0  0
  145.1382  130.6929  151.0802 H   0  0  0  0  0  0  0  0  0  0  0  0
  145.5851  131.3966  149.5188 H   0  0  0  0  0  0  0  0  0  0  0  0
  147.6228  131.5309  150.9602 H   0  0  0  0  0  0  0  0  0  0  0  0
  1  2  1  0  0  0  0
  1 27  1  0  0  0  0
  1 28  1  0  0  0  0
  1 29  1  0  0  0  0
  2  3  1  0  0  0  0
  2 30  1  0  0  0  0
  2 31  1  0  0  0  0
  3  4  1  0  0  0  0
  3 21  1  0  0  0  0
  4  9  1  0  0  0  0
  4  5  2  0  0  0  0
  5  6  1  0  0  0  0
  6  7  2  0  0  0  0
  6 32  1  0  0  0  0
  7  8  1  0  0  0  0
  8 12  1  0  0  0  0
  8  9  2  0  0  0  0
  9 10  1  0  0  0  0
 10 11  2  0  0  0  0
 11 12  1  0  0  0  0
 11 33  1  0  0  0  0
 12 13  1  0  0  0  0
 13 14  1  0  0  0  0
 13 34  1  0  0  0  0
 13 35  1  0  0  0  0
 14 20  1  0  0  0  0
 14 15  1  0  0  0  0
 14 16  1  0  0  0  0
 15 36  1  0  0  0  0
 16 17  1  0  0  0  0
 16 37  1  0  0  0  0
 16 38  1  0  0  0  0
 17 18  1  0  0  0  0
 17 39  1  0  0  0  0
 17 40  1  0  0  0  0
 18 19  1  0  0  0  0
 19 20  1  0  0  0  0
 19 41  1  0  0  0  0
 19 42  1  0  0  0  0
 20 43  1  0  0  0  0
 20 44  1  0  0  0  0
 21 25  1  0  0  0  0
 21 22  1  0  0  0  0
 21 45  1  0  0  0  0
 22 23  1  0  0  0  0
 22 46  1  0  0  0  0
 22 47  1  0  0  0  0
 23 24  1  0  0  0  0
 23 48  1  0  0  0  0
 23 49  1  0  0  0  0
 24 25  1  0  0  0  0
 24 50  1  0  0  0  0
 25 26  2  0  0  0  0
M  END
> <s_m_source_file>
AV-unprocessed.smi

> <i_m_source_file_index>
181

> <i_lp_mmshare_version>
43012

> <i_f3d_flags>
0

> <s_epik_input>
Tz1DMVtOSF1bQ0gyXVtDSDJdW0NASF0xTihbQ0gyXVtDSDNdKWMobltjSF1uMiljKGMyMyluW2NIXW4zW0NIMl1DNChbT0hdKVtDSDJdW0NIMl1PW0NIMl1bQ0gyXTQ=

> <s_epik_cmdline>
J2VwaWtfcHl0aG9uJywgJy1waCcsICc3LjAnLCAnLXRuJywgJzgnLCAnLW1hJywgJzIwMCcsICctbWV0YWxfYmluZGluZycsICctaW1hZScsICc8aW5maWxlLm1hZT4nLCAnLW9tYWUnLCAnPG91dGZpbGUubWFlPic=

> <r_lp_tautomer_probability>
1

> <r_epik_Ionization_Penalty>
0.000985257

> <r_epik_Ionization_Penalty_Charging>
0

> <r_epik_Ionization_Penalty_Neutral>
0.000985257

> <r_epik_State_Penalty>
0.000517047

> <r_epik_Charging_Adjusted_Penalty>
0.000517047

> <i_epik_Tot_Q>
0

> <i_epik_Tot_abs_Q>
0

> <r_epik_Metal_State_Penalty>
-0

> <b_epik_Metal_Only>
0

> <s_lp_Force_Field>
OPLS_2005

> <r_lp_Energy>
36.1044

> <b_lp_Chiralities_Consistent>
1

> <s_lp_Variant>
AV-unprocessed.smi:181-2

> <Gold.Version>
5.8.1

> <Gold.Id.Protein>
6NUR|6NUR_protein|mol2

> <Gold.PLP.Fitness>
45.2315

> <Gold.PLP.PLP>
-35.9322

> <Gold.PLP.part.hbond>
-3.3392

> <Gold.PLP.part.metal>
0.0000

> <Gold.PLP.part.buried>
-2.3366

> <Gold.PLP.part.nonpolar>
-32.1623

> <Gold.PLP.part.repulsive>
1.9822

> <Gold.PLP.ligand.clash>
0.0000

> <Gold.PLP.ligand.torsion>
1.1750

> <Gold.PLP.Chemscore.Hbond>
2.7840

> <Gold.PLP.Chemscore.CHOScore>
0.9331

> <Gold.PLP.Chemscore.Metal>
0.0000

> <Gold.Chemscore.Hbonds>
donor molecule, donor type, donor heavy atom, donor atom, acceptor molecule, acceptor atom, score
      L1  H    15    36       P1  7957  0.74
      L1  H    24    50       P1 10747  1.00
      P1  H  8011  8017       L1    15  1.00
      L1  C    11    33       P1  7957  0.84

> <Gold.PLP.Chemscore.Internal.Correction>
0.4981

> <Gold.Rescore>
     Score         DG    S(hbond)    S(metal)    S(lipo)     H(rot)  DE(clash)    DE(int)     intcor
     11.68     -15.66       2.14        0.00      80.43       2.49       2.86       1.11       ----

> <Gold.Chemscore.Fitness>
11.6844

> <Gold.Chemscore.DG>
-15.6552

> <Gold.Chemscore.ZeroCoef>
-5.4800

> <Gold.Chemscore.Hbond>
2.1372

> <Gold.Chemscore.Metal>
0.0000

> <Gold.Chemscore.Lipo>
80.4326

> <Gold.Chemscore.Internal_Hbond>
0.0000

> <Gold.Chemscore.DEClash>
2.8644

> <Gold.Chemscore.DEInternal>
1.1065

> <Gold.Chemscore.Rot>
2.4897

> <Gold.Chemscore.Internal.Correction>
   9.000000E+99

> <Gold.Chemscore.Hbonds>
donor molecule, donor type, donor heavy atom, donor atom, acceptor molecule, acceptor atom, score
      L1  H    15    36       P1  7957  0.69
      L1  H    24    50       P1 10747  1.00
      P1  H  8011  8017       L1    15  0.30

> <Gold.Chemscore.Hbond.Weighted>
-7.1381

> <Gold.Chemscore.Metal.Weighted>
-0.0000

> <Gold.Chemscore.Lipo.Weighted>
-9.4106

> <Gold.Chemscore.Internal_Hbond.Weighted>
0.0000

> <Gold.Chemscore.DEClash.Weighted>
2.8644

> <Gold.Chemscore.DEInternal.Weighted>
1.1065

> <Gold.Chemscore.Rot.Weighted>
6.3735

> <Gold.Chemscore.Internal.Correction.Weighted>
   9.000000E+99

> <Gold.Protein.RotatedTorsions>
[ 6907 6896 6895 6894 ] final  -57.24 input  -60.11 | X-H torsion
[ 7974 7965 7964 7962 ] final  -62.71 input  175.53 | X-H torsion
[ 8008 7997 7996 7995 ] final  -65.32 input   59.86 | X-H torsion
[ 10167 10162 10161 10158 ] final -104.37 input  -65.29 | X-H torsion
[ 10718 10713 10712 10709 ] final  -14.21 input   66.30 | X-H torsion
[ 10763 10752 10751 10750 ] final -132.06 input  -60.55 | X-H torsion
[ 11005 11000 10999 10996 ] final   17.39 input  -57.11 | X-H torsion

> <Gold.Protein.ActiveResidues>
 VAL166  LYS551  ARG553  GLY616  TRP617  ASP618  TYR619  PRO620  LYS621  CYS622 
 ASP623  PHE694  ASN695  SER759  ASP760  ASP761  ALA762  ILE779  LEU786  VAL792 
 PHE793  MET794  SER795  GLU796  ALA797  LYS798  CYS799  TRP800  GLU811  SER814 

> <Gold.Protein.RotatedAtoms>
  150.8102  134.7252  159.6680 H   0  0  0  0  0  0  0  0  0  0  0  0  # atno 6907 bound_to 6896
  152.4222  134.5931  159.9989 H   0  0  0  0  0  0  0  0  0  0  0  0  # atno 6908 bound_to 6896
  151.6143  133.3307  159.3110 H   0  0  0  0  0  0  0  0  0  0  0  0  # atno 6909 bound_to 6896
  145.7880  140.8725  143.0295 H   0  0  0  0  0  0  0  0  0  0  0  0  # atno 7974 bound_to 7965
  154.4665  140.0935  156.7033 H   0  0  0  0  0  0  0  0  0  0  0  0  # atno 8008 bound_to 7997
  155.4844  140.3468  155.4326 H   0  0  0  0  0  0  0  0  0  0  0  0  # atno 8009 bound_to 7997
  156.0965  140.1411  156.9513 H   0  0  0  0  0  0  0  0  0  0  0  0  # atno 8010 bound_to 7997
  140.2100  143.3753  152.1058 H   0  0  0  0  0  0  0  0  0  0  0  0  # atno 10167 bound_to 10162
  156.6192  130.4871  149.6171 H   0  0  0  0  0  0  0  0  0  0  0  0  # atno 10718 bound_to 10713
  154.8746  135.3810  154.4348 H   0  0  0  0  0  0  0  0  0  0  0  0  # atno 10763 bound_to 10752
  153.5038  135.7030  153.5822 H   0  0  0  0  0  0  0  0  0  0  0  0  # atno 10764 bound_to 10752
  153.4142  135.3917  155.2036 H   0  0  0  0  0  0  0  0  0  0  0  0  # atno 10765 bound_to 10752
  140.4365  134.1366  155.7686 H   0  0  0  0  0  0  0  0  0  0  0  0  # atno 11005 bound_to 11000
  144.6786  140.0083  143.7484 LP  0  0  0  0  0  0  0  0  0  0  0  0  # atno 17320 bound_to 7965
  146.0006  139.3088  143.0930 LP  0  0  0  0  0  0  0  0  0  0  0  0  # atno 17321 bound_to 7965
  139.5183  144.7004  151.5509 LP  0  0  0  0  0  0  0  0  0  0  0  0  # atno 17342 bound_to 10162
  140.6330  143.9039  150.6622 LP  0  0  0  0  0  0  0  0  0  0  0  0  # atno 17343 bound_to 10162
  156.2325  130.6803  151.1478 LP  0  0  0  0  0  0  0  0  0  0  0  0  # atno 17370 bound_to 10713
  157.7232  131.0667  150.6045 LP  0  0  0  0  0  0  0  0  0  0  0  0  # atno 17371 bound_to 10713
  141.1723  133.8583  157.1530 LP  0  0  0  0  0  0  0  0  0  0  0  0  # atno 17394 bound_to 11000
  140.0098  134.9993  157.0372 LP  0  0  0  0  0  0  0  0  0  0  0  0  # atno 17395 bound_to 11000

$$$$
