AV-unprocessed.smi:2825|AV-procd|sdf|10889|dock1
  -GOLD-   2272015333D 1   1.00000     0.00000
 Structure written by MMmdl.
 48 49  0  0  0  0  0  0  0  0  1 V2000
  154.9148  144.4236  167.0856 C   0  0  0  0  0  0  0  0  0  0  0  0
  154.8609  144.0265  165.6070 C   0  0  0  0  0  0  0  0  0  0  0  0
  155.0736  142.5207  165.3961 C   0  0  0  0  0  0  0  0  0  0  0  0
  156.7736  141.9939  165.8878 S   0  0  0  0  0  0  0  0  0  0  0  0
  157.7490  142.6468  165.0015 O   0  0  0  0  0  0  0  0  0  0  0  0
  156.8978  142.1289  167.3478 O   0  0  0  0  0  0  0  0  0  0  0  0
  156.7733  140.3019  165.5022 N   0  0  0  0  0  0  0  0  0  0  0  0
  157.4617  139.3716  166.4027 C   0  0  0  0  0  0  0  0  0  0  0  0
  155.6428  139.7308  164.7537 C   0  0  0  0  0  0  0  0  0  0  0  0
  155.9565  139.6507  163.2467 C   0  0  1  0  0  0  0  0  0  0  0  0
  157.2104  139.0165  163.0814 O   0  0  0  0  0  0  0  0  0  0  0  0
  154.8853  138.8489  162.4840 C   0  0  0  0  0  0  0  0  0  0  0  0
  154.4954  139.4881  161.2403 N   0  0  0  0  0  0  0  0  0  0  0  0
  154.6743  139.0085  159.9946 C   0  0  0  0  0  0  0  0  0  0  0  0
  154.2406  139.7580  158.9855 N   0  0  0  0  0  0  0  0  0  0  0  0
  153.7180  140.8512  159.6551 C   0  0  0  0  0  0  0  0  0  0  0  0
  153.0979  142.0189  159.1591 C   0  0  0  0  0  0  0  0  0  0  0  0
  152.6299  143.0208  160.0391 C   0  0  0  0  0  0  0  0  0  0  0  0
  151.9706  144.2613  159.4626 C   0  0  0  0  0  0  0  0  0  0  0  0
  152.7777  142.8613  161.4404 C   0  0  0  0  0  0  0  0  0  0  0  0
  152.2791  143.9223  162.4057 C   0  0  0  0  0  0  0  0  0  0  0  0
  153.3970  141.7020  161.9526 C   0  0  0  0  0  0  0  0  0  0  0  0
  153.8603  140.7130  161.0668 C   0  0  0  0  0  0  0  0  0  0  0  0
  154.7694  145.4976  167.2037 H   0  0  0  0  0  0  0  0  0  0  0  0
  155.8788  144.1681  167.5265 H   0  0  0  0  0  0  0  0  0  0  0  0
  154.1375  143.9172  167.6586 H   0  0  0  0  0  0  0  0  0  0  0  0
  153.9004  144.3286  165.1889 H   0  0  0  0  0  0  0  0  0  0  0  0
  155.6248  144.5817  165.0626 H   0  0  0  0  0  0  0  0  0  0  0  0
  154.3473  141.9334  165.9565 H   0  0  0  0  0  0  0  0  0  0  0  0
  154.9470  142.2724  164.3421 H   0  0  0  0  0  0  0  0  0  0  0  0
  157.7187  138.4512  165.8775 H   0  0  0  0  0  0  0  0  0  0  0  0
  156.8221  139.1271  167.2511 H   0  0  0  0  0  0  0  0  0  0  0  0
  158.3829  139.8129  166.7811 H   0  0  0  0  0  0  0  0  0  0  0  0
  155.3705  138.7480  165.1426 H   0  0  0  0  0  0  0  0  0  0  0  0
  154.7747  140.3686  164.9253 H   0  0  0  0  0  0  0  0  0  0  0  0
  156.0166  140.6476  162.8113 H   0  0  0  0  0  0  0  0  0  0  0  0
  157.6338  139.3812  162.3196 H   0  0  0  0  0  0  0  0  0  0  0  0
  155.2402  137.8407  162.2664 H   0  0  0  0  0  0  0  0  0  0  0  0
  153.9918  138.7374  163.0998 H   0  0  0  0  0  0  0  0  0  0  0  0
  155.1491  138.0539  159.8199 H   0  0  0  0  0  0  0  0  0  0  0  0
  152.9839  142.1381  158.0917 H   0  0  0  0  0  0  0  0  0  0  0  0
  150.9337  144.3305  159.7925 H   0  0  0  0  0  0  0  0  0  0  0  0
  151.9748  144.2448  158.3723 H   0  0  0  0  0  0  0  0  0  0  0  0
  152.4977  145.1598  159.7847 H   0  0  0  0  0  0  0  0  0  0  0  0
  152.4289  143.6191  163.4426 H   0  0  0  0  0  0  0  0  0  0  0  0
  151.2135  144.1020  162.2613 H   0  0  0  0  0  0  0  0  0  0  0  0
  152.8136  144.8598  162.2501 H   0  0  0  0  0  0  0  0  0  0  0  0
  153.5155  141.5677  163.0174 H   0  0  0  0  0  0  0  0  0  0  0  0
  1  2  1  0  0  0  0
  1 24  1  0  0  0  0
  1 25  1  0  0  0  0
  1 26  1  0  0  0  0
  2  3  1  0  0  0  0
  2 27  1  0  0  0  0
  2 28  1  0  0  0  0
  3  4  1  0  0  0  0
  3 29  1  0  0  0  0
  3 30  1  0  0  0  0
  4  5  2  0  0  0  0
  4  6  2  0  0  0  0
  4  7  1  0  0  0  0
  7  8  1  0  0  0  0
  7  9  1  0  0  0  0
  8 31  1  0  0  0  0
  8 32  1  0  0  0  0
  8 33  1  0  0  0  0
  9 10  1  0  0  0  0
  9 34  1  0  0  0  0
  9 35  1  0  0  0  0
 10 11  1  0  0  0  0
 10 12  1  0  0  0  0
 10 36  1  0  0  0  0
 11 37  1  0  0  0  0
 12 13  1  0  0  0  0
 12 38  1  0  0  0  0
 12 39  1  0  0  0  0
 13 23  1  0  0  0  0
 13 14  1  0  0  0  0
 14 15  2  0  0  0  0
 14 40  1  0  0  0  0
 15 16  1  0  0  0  0
 16 23  2  0  0  0  0
 16 17  1  0  0  0  0
 17 18  2  0  0  0  0
 17 41  1  0  0  0  0
 18 19  1  0  0  0  0
 18 20  1  0  0  0  0
 19 42  1  0  0  0  0
 19 43  1  0  0  0  0
 19 44  1  0  0  0  0
 20 21  1  0  0  0  0
 20 22  2  0  0  0  0
 21 45  1  0  0  0  0
 21 46  1  0  0  0  0
 21 47  1  0  0  0  0
 22 23  1  0  0  0  0
 22 48  1  0  0  0  0
M  END
> <s_m_source_file>
AV-unprocessed.smi

> <i_m_source_file_index>
2825

> <i_lp_mmshare_version>
43012

> <i_f3d_flags>
0

> <s_epik_input>
W0NIM11bQ0gyXVtDSDJdUyg9TykoPU8pTihbQ0gzXSlbQ0gyXVtDQEhdKFtPSF0pW0NIMl1uKFtjSF1uMSljKGMxMilbY0hdYyhbQ0gzXSljKFtjSF0yKVtDSDNd

> <s_epik_cmdline>
J2VwaWtfcHl0aG9uJywgJy1waCcsICc3LjAnLCAnLXRuJywgJzgnLCAnLW1hJywgJzIwMCcsICctbWV0YWxfYmluZGluZycsICctaW1hZScsICc8aW5maWxlLm1hZT4nLCAnLW9tYWUnLCAnPG91dGZpbGUubWFlPic=

> <r_epik_Ionization_Penalty>
0.104931

> <r_epik_Ionization_Penalty_Charging>
0

> <r_epik_Ionization_Penalty_Neutral>
0.104931

> <r_epik_State_Penalty>
0.0948201

> <r_epik_Charging_Adjusted_Penalty>
0.0948201

> <i_epik_Tot_Q>
0

> <i_epik_Tot_abs_Q>
0

> <r_epik_Metal_State_Penalty>
0.00010282

> <b_epik_Metal_Only>
0

> <s_lp_Force_Field>
OPLS_2005

> <r_lp_Energy>
7.6372

> <b_lp_Chiralities_Consistent>
1

> <s_lp_Variant>
AV-unprocessed.smi:2825-2

> <Gold.Version>
5.8.1

> <Gold.Id.Protein>
6NUR|6NUR_protein|mol2

> <Gold.PLP.Fitness>
48.8416

> <Gold.PLP.PLP>
-47.5267

> <Gold.PLP.part.hbond>
-2.0000

> <Gold.PLP.part.metal>
0.0000

> <Gold.PLP.part.buried>
-3.8521

> <Gold.PLP.part.nonpolar>
-41.0973

> <Gold.PLP.part.repulsive>
0.0000

> <Gold.PLP.ligand.clash>
0.0000

> <Gold.PLP.ligand.torsion>
2.1307

> <Gold.PLP.Chemscore.Hbond>
1.0000

> <Gold.PLP.Chemscore.CHOScore>
0.0000

> <Gold.PLP.Chemscore.Metal>
0.0000

> <Gold.Chemscore.Hbonds>
donor molecule, donor type, donor heavy atom, donor atom, acceptor molecule, acceptor atom, score
      P1  H  7997  8010       L1    15  1.00

> <Gold.PLP.Chemscore.Internal.Correction>
2.5763

> <Gold.Rescore>
     Score         DG    S(hbond)    S(metal)    S(lipo)     H(rot)  DE(clash)    DE(int)     intcor
     16.44     -18.65       0.96        0.00     138.45       2.43       0.01       2.20       ----

> <Gold.Chemscore.Fitness>
16.4392

> <Gold.Chemscore.DG>
-18.6481

> <Gold.Chemscore.ZeroCoef>
-5.4800

> <Gold.Chemscore.Hbond>
0.9576

> <Gold.Chemscore.Metal>
0.0000

> <Gold.Chemscore.Lipo>
138.4496

> <Gold.Chemscore.Internal_Hbond>
0.0000

> <Gold.Chemscore.DEClash>
0.0055

> <Gold.Chemscore.DEInternal>
2.2034

> <Gold.Chemscore.Rot>
2.4332

> <Gold.Chemscore.Internal.Correction>
   9.000000E+99

> <Gold.Chemscore.Hbonds>
donor molecule, donor type, donor heavy atom, donor atom, acceptor molecule, acceptor atom, score
      P1  H  7997  8010       L1    15  0.96

> <Gold.Chemscore.Hbond.Weighted>
-3.1984

> <Gold.Chemscore.Metal.Weighted>
-0.0000

> <Gold.Chemscore.Lipo.Weighted>
-16.1986

> <Gold.Chemscore.Internal_Hbond.Weighted>
0.0000

> <Gold.Chemscore.DEClash.Weighted>
0.0055

> <Gold.Chemscore.DEInternal.Weighted>
2.2034

> <Gold.Chemscore.Rot.Weighted>
6.2289

> <Gold.Chemscore.Internal.Correction.Weighted>
   9.000000E+99

> <Gold.Protein.RotatedTorsions>
[ 6907 6896 6895 6894 ] final -110.84 input  -60.11 | X-H torsion
[ 7974 7965 7964 7962 ] final  -96.37 input  175.53 | X-H torsion
[ 8008 7997 7996 7995 ] final    4.28 input   59.86 | X-H torsion
[ 10167 10162 10161 10158 ] final -164.41 input  -65.29 | X-H torsion
[ 10718 10713 10712 10709 ] final  173.21 input   66.30 | X-H torsion
[ 10763 10752 10751 10750 ] final   92.42 input  -60.55 | X-H torsion
[ 11005 11000 10999 10996 ] final   83.57 input  -57.11 | X-H torsion

> <Gold.Protein.ActiveResidues>
 VAL166  LYS551  ARG553  GLY616  TRP617  ASP618  TYR619  PRO620  LYS621  CYS622 
 ASP623  PHE694  ASN695  SER759  ASP760  ASP761  ALA762  ILE779  LEU786  VAL792 
 PHE793  MET794  SER795  GLU796  ALA797  LYS798  CYS799  TRP800  GLU811  SER814 

> <Gold.Protein.RotatedAtoms>
  150.7651  133.9323  159.3430 H   0  0  0  0  0  0  0  0  0  0  0  0  # atno 6907 bound_to 6896
  151.7223  135.0890  160.0295 H   0  0  0  0  0  0  0  0  0  0  0  0  # atno 6908 bound_to 6896
  152.3642  133.6298  159.6074 H   0  0  0  0  0  0  0  0  0  0  0  0  # atno 6909 bound_to 6896
  145.3478  140.9471  143.2571 H   0  0  0  0  0  0  0  0  0  0  0  0  # atno 7974 bound_to 7965
  154.7140  140.2698  155.6602 H   0  0  0  0  0  0  0  0  0  0  0  0  # atno 8008 bound_to 7997
  156.2804  140.2747  156.1715 H   0  0  0  0  0  0  0  0  0  0  0  0  # atno 8009 bound_to 7997
  155.0596  140.0371  157.2562 H   0  0  0  0  0  0  0  0  0  0  0  0  # atno 8010 bound_to 7997
  139.6252  144.0546  152.1968 H   0  0  0  0  0  0  0  0  0  0  0  0  # atno 10167 bound_to 10162
  156.9676  131.0080  151.2913 H   0  0  0  0  0  0  0  0  0  0  0  0  # atno 10718 bound_to 10713
  153.2190  135.4362  155.0468 H   0  0  0  0  0  0  0  0  0  0  0  0  # atno 10763 bound_to 10752
  154.8240  135.3351  154.6955 H   0  0  0  0  0  0  0  0  0  0  0  0  # atno 10764 bound_to 10752
  153.7388  135.7006  153.5028 H   0  0  0  0  0  0  0  0  0  0  0  0  # atno 10765 bound_to 10752
  139.9027  134.8154  156.2328 H   0  0  0  0  0  0  0  0  0  0  0  0  # atno 11005 bound_to 11000
  144.8741  139.4997  143.6754 LP  0  0  0  0  0  0  0  0  0  0  0  0  # atno 17320 bound_to 7965
  146.2980  139.7339  142.9112 LP  0  0  0  0  0  0  0  0  0  0  0  0  # atno 17321 bound_to 7965
  140.0197  144.6162  150.7577 LP  0  0  0  0  0  0  0  0  0  0  0  0  # atno 17342 bound_to 10162
  140.7407  143.2807  151.3606 LP  0  0  0  0  0  0  0  0  0  0  0  0  # atno 17343 bound_to 10162
  157.5615  130.8249  149.8272 LP  0  0  0  0  0  0  0  0  0  0  0  0  # atno 17370 bound_to 10713
  156.0296  130.3768  150.1725 LP  0  0  0  0  0  0  0  0  0  0  0  0  # atno 17371 bound_to 10713
  141.0335  133.6976  156.1471 LP  0  0  0  0  0  0  0  0  0  0  0  0  # atno 17394 bound_to 11000
  140.7062  134.4511  157.5584 LP  0  0  0  0  0  0  0  0  0  0  0  0  # atno 17395 bound_to 11000

$$$$
