AV-unprocessed.smi:2850|AV-procd|sdf|10969|dock4
  -GOLD-   2272015423D 1   1.00000     0.00000
 Structure written by MMmdl.
 44 45  0  0  0  0  0  0  0  0  1 V2000
  146.5967  136.1728  161.9853 C   0  0  0  0  0  0  0  0  0  0  0  0
  147.1304  135.4062  160.4295 S   0  0  0  0  0  0  0  0  0  0  0  0
  148.2363  136.5369  159.6409 C   0  0  0  0  0  0  0  0  0  0  0  0
  147.8526  137.2158  158.4704 C   0  0  0  0  0  0  0  0  0  0  0  0
  148.7915  138.0969  157.9064 C   0  0  0  0  0  0  0  0  0  0  0  0
  150.0359  138.2316  158.5549 C   0  0  0  0  0  0  0  0  0  0  0  0
  150.9910  139.1020  158.0138 N   0  0  0  0  0  0  0  0  0  0  0  0
  152.3688  139.0782  158.4842 C   0  0  0  0  0  0  0  0  0  0  0  0
  152.5332  139.8633  159.7922 C   0  0  2  0  0  0  0  0  0  0  0  0
  151.9089  141.2691  159.6947 C   0  0  0  0  0  0  0  0  0  0  0  0
  152.1245  142.0541  160.9057 N   0  0  0  0  0  0  0  0  0  0  0  0
  151.5065  143.3762  160.7871 C   0  0  0  0  0  0  0  0  0  0  0  0
  151.5743  144.0293  159.3896 C   0  0  0  0  0  0  0  0  0  0  0  0
  153.0203  144.3563  158.9821 C   0  0  0  0  0  0  0  0  0  0  0  0
  150.7053  145.2946  159.3467 C   0  0  0  0  0  0  0  0  0  0  0  0
  153.5588  142.1220  161.1752 C   0  0  0  0  0  0  0  0  0  0  0  0
  154.1923  140.7232  161.2591 C   0  0  0  0  0  0  0  0  0  0  0  0
  153.9266  140.0062  160.0587 O   0  0  0  0  0  0  0  0  0  0  0  0
  150.3355  137.5405  159.6843 N   0  0  0  0  0  0  0  0  0  0  0  0
  149.4451  136.7006  160.2245 N   0  0  0  0  0  0  0  0  0  0  0  0
  145.9102  135.5110  162.5131 H   0  0  0  0  0  0  0  0  0  0  0  0
  146.0853  137.1157  161.7916 H   0  0  0  0  0  0  0  0  0  0  0  0
  147.4542  136.3649  162.6304 H   0  0  0  0  0  0  0  0  0  0  0  0
  146.8807  137.0677  158.0231 H   0  0  0  0  0  0  0  0  0  0  0  0
  148.5620  138.6494  157.0071 H   0  0  0  0  0  0  0  0  0  0  0  0
  150.7041  139.8383  157.3854 H   0  0  0  0  0  0  0  0  0  0  0  0
  152.6958  138.0466  158.6215 H   0  0  0  0  0  0  0  0  0  0  0  0
  153.0033  139.5185  157.7139 H   0  0  0  0  0  0  0  0  0  0  0  0
  152.0594  139.3139  160.6081 H   0  0  0  0  0  0  0  0  0  0  0  0
  152.3297  141.7943  158.8354 H   0  0  0  0  0  0  0  0  0  0  0  0
  150.8390  141.1730  159.5057 H   0  0  0  0  0  0  0  0  0  0  0  0
  150.4643  143.3125  161.1041 H   0  0  0  0  0  0  0  0  0  0  0  0
  151.9868  144.0553  161.4932 H   0  0  0  0  0  0  0  0  0  0  0  0
  151.1611  143.3437  158.6506 H   0  0  0  0  0  0  0  0  0  0  0  0
  153.4861  145.0427  159.6898 H   0  0  0  0  0  0  0  0  0  0  0  0
  153.0556  144.8200  157.9959 H   0  0  0  0  0  0  0  0  0  0  0  0
  153.6337  143.4560  158.9396 H   0  0  0  0  0  0  0  0  0  0  0  0
  151.0625  146.0451  160.0524 H   0  0  0  0  0  0  0  0  0  0  0  0
  149.6688  145.0681  159.5977 H   0  0  0  0  0  0  0  0  0  0  0  0
  150.7116  145.7430  158.3527 H   0  0  0  0  0  0  0  0  0  0  0  0
  154.0558  142.6970  160.3923 H   0  0  0  0  0  0  0  0  0  0  0  0
  153.7462  142.6413  162.1139 H   0  0  0  0  0  0  0  0  0  0  0  0
  155.2709  140.8030  161.3954 H   0  0  0  0  0  0  0  0  0  0  0  0
  153.8005  140.1716  162.1150 H   0  0  0  0  0  0  0  0  0  0  0  0
  1  2  1  0  0  0  0
  1 21  1  0  0  0  0
  1 22  1  0  0  0  0
  1 23  1  0  0  0  0
  2  3  1  0  0  0  0
  3 20  1  0  0  0  0
  3  4  2  0  0  0  0
  4  5  1  0  0  0  0
  4 24  1  0  0  0  0
  5  6  2  0  0  0  0
  5 25  1  0  0  0  0
  6  7  1  0  0  0  0
  6 19  1  0  0  0  0
  7  8  1  0  0  0  0
  7 26  1  0  0  0  0
  8  9  1  0  0  0  0
  8 27  1  0  0  0  0
  8 28  1  0  0  0  0
  9 18  1  0  0  0  0
  9 10  1  0  0  0  0
  9 29  1  0  0  0  0
 10 11  1  0  0  0  0
 10 30  1  0  0  0  0
 10 31  1  0  0  0  0
 11 12  1  0  0  0  0
 11 16  1  0  0  0  0
 12 13  1  0  0  0  0
 12 32  1  0  0  0  0
 12 33  1  0  0  0  0
 13 14  1  0  0  0  0
 13 15  1  0  0  0  0
 13 34  1  0  0  0  0
 14 35  1  0  0  0  0
 14 36  1  0  0  0  0
 14 37  1  0  0  0  0
 15 38  1  0  0  0  0
 15 39  1  0  0  0  0
 15 40  1  0  0  0  0
 16 17  1  0  0  0  0
 16 41  1  0  0  0  0
 16 42  1  0  0  0  0
 17 18  1  0  0  0  0
 17 43  1  0  0  0  0
 17 44  1  0  0  0  0
 19 20  2  0  0  0  0
M  END
> <s_m_source_file>
AV-unprocessed.smi

> <i_m_source_file_index>
2850

> <i_lp_mmshare_version>
43012

> <i_f3d_flags>
0

> <s_epik_input>
W0NIM11TYzFbY0hdW2NIXWMobm4xKVtOSF1bQ0gyXVtDQEBIXTJbQ0gyXU4oW0NIMl1bQ0gyXU8yKVtDSDJdW0NIXShbQ0gzXSlbQ0gzXQ==

> <s_epik_cmdline>
J2VwaWtfcHl0aG9uJywgJy1waCcsICc3LjAnLCAnLXRuJywgJzgnLCAnLW1hJywgJzIwMCcsICctbWV0YWxfYmluZGluZycsICctaW1hZScsICc8aW5maWxlLm1hZT4nLCAnLW9tYWUnLCAnPG91dGZpbGUubWFlPic=

> <r_lp_tautomer_probability>
0.999978

> <r_epik_Ionization_Penalty>
1.20939

> <r_epik_Ionization_Penalty_Charging>
0

> <r_epik_Ionization_Penalty_Neutral>
1.20939

> <r_epik_State_Penalty>
1.27042

> <r_epik_Charging_Adjusted_Penalty>
1.27042

> <i_epik_Tot_Q>
0

> <i_epik_Tot_abs_Q>
0

> <r_epik_Metal_State_Penalty>
1.26998

> <b_epik_Metal_Only>
0

> <s_lp_Force_Field>
OPLS_2005

> <r_lp_Energy>
30.5151

> <b_lp_Chiralities_Consistent>
1

> <s_lp_Variant>
AV-unprocessed.smi:2850-5

> <Gold.Version>
5.8.1

> <Gold.Id.Protein>
6NUR|6NUR_protein|mol2

> <Gold.PLP.Fitness>
45.2285

> <Gold.PLP.PLP>
-40.5722

> <Gold.PLP.part.hbond>
-3.1360

> <Gold.PLP.part.metal>
0.0000

> <Gold.PLP.part.buried>
-4.3815

> <Gold.PLP.part.nonpolar>
-33.2231

> <Gold.PLP.part.repulsive>
0.0665

> <Gold.PLP.ligand.clash>
0.0000

> <Gold.PLP.ligand.torsion>
0.6240

> <Gold.PLP.Chemscore.Hbond>
1.9417

> <Gold.PLP.Chemscore.CHOScore>
0.0000

> <Gold.PLP.Chemscore.Metal>
0.0000

> <Gold.Chemscore.Hbonds>
donor molecule, donor type, donor heavy atom, donor atom, acceptor molecule, acceptor atom, score
      P1  H  6896  6908       L1    20  0.12
      P1  H  6931  6943       L1    20  0.08

> <Gold.PLP.Chemscore.Internal.Correction>
0.0791

> <Gold.Rescore>
     Score         DG    S(hbond)    S(metal)    S(lipo)     H(rot)  DE(clash)    DE(int)     intcor
     19.33     -19.88       1.77        0.00     106.47       1.55       0.00       0.54       ----

> <Gold.Chemscore.Fitness>
19.3334

> <Gold.Chemscore.DG>
-19.8765

> <Gold.Chemscore.ZeroCoef>
-5.4800

> <Gold.Chemscore.Hbond>
1.7667

> <Gold.Chemscore.Metal>
0.0000

> <Gold.Chemscore.Lipo>
106.4679

> <Gold.Chemscore.Internal_Hbond>
0.0000

> <Gold.Chemscore.DEClash>
0.0029

> <Gold.Chemscore.DEInternal>
0.5403

> <Gold.Chemscore.Rot>
1.5473

> <Gold.Chemscore.Internal.Correction>
   9.000000E+99

> <Gold.Chemscore.Hbond.Weighted>
-5.9008

> <Gold.Chemscore.Metal.Weighted>
-0.0000

> <Gold.Chemscore.Lipo.Weighted>
-12.4567

> <Gold.Chemscore.Internal_Hbond.Weighted>
0.0000

> <Gold.Chemscore.DEClash.Weighted>
0.0029

> <Gold.Chemscore.DEInternal.Weighted>
0.5403

> <Gold.Chemscore.Rot.Weighted>
3.9610

> <Gold.Chemscore.Internal.Correction.Weighted>
   9.000000E+99

> <Gold.Protein.RotatedTorsions>
[ 6907 6896 6895 6894 ] final -162.76 input  -60.11 | X-H torsion
[ 7974 7965 7964 7962 ] final  -68.31 input  175.53 | X-H torsion
[ 8008 7997 7996 7995 ] final  135.30 input   59.86 | X-H torsion
[ 10167 10162 10161 10158 ] final  -80.55 input  -65.29 | X-H torsion
[ 10718 10713 10712 10709 ] final -138.16 input   66.30 | X-H torsion
[ 10763 10752 10751 10750 ] final  -97.95 input  -60.55 | X-H torsion
[ 11005 11000 10999 10996 ] final   30.82 input  -57.11 | X-H torsion

> <Gold.Protein.ActiveResidues>
 VAL166  LYS551  ARG553  GLY616  TRP617  ASP618  TYR619  PRO620  LYS621  CYS622 
 ASP623  PHE694  ASN695  SER759  ASP760  ASP761  ALA762  ILE779  LEU786  VAL792 
 PHE793  MET794  SER795  GLU796  ALA797  LYS798  CYS799  TRP800  GLU811  SER814 

> <Gold.Protein.RotatedAtoms>
  151.3854  133.3807  159.2714 H   0  0  0  0  0  0  0  0  0  0  0  0  # atno 6907 bound_to 6896
  150.9546  134.8943  159.7703 H   0  0  0  0  0  0  0  0  0  0  0  0  # atno 6908 bound_to 6896
  152.5125  134.3810  159.9403 H   0  0  0  0  0  0  0  0  0  0  0  0  # atno 6909 bound_to 6896
  145.7181  140.9050  143.0644 H   0  0  0  0  0  0  0  0  0  0  0  0  # atno 7974 bound_to 7965
  156.3002  140.2474  156.3559 H   0  0  0  0  0  0  0  0  0  0  0  0  # atno 8008 bound_to 7997
  154.8922  140.0409  157.1865 H   0  0  0  0  0  0  0  0  0  0  0  0  # atno 8009 bound_to 7997
  154.8585  140.2917  155.5557 H   0  0  0  0  0  0  0  0  0  0  0  0  # atno 8010 bound_to 7997
  140.4493  143.2488  151.8513 H   0  0  0  0  0  0  0  0  0  0  0  0  # atno 10167 bound_to 10162
  156.2962  130.7403  151.1442 H   0  0  0  0  0  0  0  0  0  0  0  0  # atno 10718 bound_to 10713
  154.7372  135.5027  153.9062 H   0  0  0  0  0  0  0  0  0  0  0  0  # atno 10763 bound_to 10752
  153.1007  135.6684  153.9686 H   0  0  0  0  0  0  0  0  0  0  0  0  # atno 10764 bound_to 10752
  153.9473  135.3061  155.3419 H   0  0  0  0  0  0  0  0  0  0  0  0  # atno 10765 bound_to 10752
  140.2903  134.2871  155.7777 H   0  0  0  0  0  0  0  0  0  0  0  0  # atno 11005 bound_to 11000
  144.6924  139.9166  143.7466 LP  0  0  0  0  0  0  0  0  0  0  0  0  # atno 17320 bound_to 7965
  146.0650  139.3642  143.0558 LP  0  0  0  0  0  0  0  0  0  0  0  0  # atno 17321 bound_to 7965
  139.4795  144.5139  151.8895 LP  0  0  0  0  0  0  0  0  0  0  0  0  # atno 17342 bound_to 10162
  140.4227  144.2222  150.5887 LP  0  0  0  0  0  0  0  0  0  0  0  0  # atno 17343 bound_to 10162
  157.7356  131.0571  150.5461 LP  0  0  0  0  0  0  0  0  0  0  0  0  # atno 17370 bound_to 10713
  156.5583  130.4249  149.6075 LP  0  0  0  0  0  0  0  0  0  0  0  0  # atno 17371 bound_to 10713
  141.2147  133.7581  156.9615 LP  0  0  0  0  0  0  0  0  0  0  0  0  # atno 17394 bound_to 11000
  140.1201  134.9422  157.2191 LP  0  0  0  0  0  0  0  0  0  0  0  0  # atno 17395 bound_to 11000

$$$$
