AV-unprocessed.smi:2931|AV-procd|sdf|11244|dock9
  -GOLD-   2272016143D 1   1.00000     0.00000
 Structure written by MMmdl.
 42 43  0  0  0  0  0  0  0  0  2 V2000
  144.9738  143.0931  154.8556 C   0  0  0  0  0  0  0  0  0  0  0  0
  145.6536  141.8332  154.4873 N   0  3  1  0  0  0  0  0  0  0  0  0
  147.0580  142.0519  154.0581 C   0  0  0  0  0  0  0  0  0  0  0  0
  147.7015  140.7426  153.5677 C   0  0  0  0  0  0  0  0  0  0  0  0
  147.5849  139.6282  154.6229 C   0  0  0  0  0  0  0  0  0  0  0  0
  146.1245  139.4483  155.0750 C   0  0  2  0  0  0  0  0  0  0  0  0
  145.3341  138.8918  153.9773 N   0  0  0  0  0  0  0  0  0  0  0  0
  145.3625  137.6163  153.5688 C   0  0  0  0  0  0  0  0  0  0  0  0
  146.1057  136.7563  154.0404 O   0  0  0  0  0  0  0  0  0  0  0  0
  144.4475  137.3830  152.6187 N   0  0  0  0  0  0  0  0  0  0  0  0
  144.1254  136.0706  152.0665 C   0  0  0  0  0  0  0  0  0  0  0  0
  145.2973  135.4382  151.2854 C   0  0  0  0  0  0  0  0  0  0  0  0
  145.0173  134.0269  150.7941 C   0  0  0  0  0  0  0  0  0  0  0  0
  146.0315  133.2622  150.1795 C   0  0  0  0  0  0  0  0  0  0  0  0
  145.7220  131.9554  149.7528 C   0  0  0  0  0  0  0  0  0  0  0  0
  144.5055  131.3921  149.9102 N   0  0  0  0  0  0  0  0  0  0  0  0
  143.5388  132.1307  150.4968 C   0  0  0  0  0  0  0  0  0  0  0  0
  143.7418  133.4480  150.9552 C   0  0  0  0  0  0  0  0  0  0  0  0
  145.5600  140.8055  155.5544 C   0  0  0  0  0  0  0  0  0  0  0  0
  145.4593  143.5649  155.7108 H   0  0  0  0  0  0  0  0  0  0  0  0
  143.9307  142.9071  155.1133 H   0  0  0  0  0  0  0  0  0  0  0  0
  144.9891  143.7953  154.0215 H   0  0  0  0  0  0  0  0  0  0  0  0
  147.0842  142.7923  153.2576 H   0  0  0  0  0  0  0  0  0  0  0  0
  147.6333  142.4630  154.8892 H   0  0  0  0  0  0  0  0  0  0  0  0
  147.2218  140.4262  152.6406 H   0  0  0  0  0  0  0  0  0  0  0  0
  148.7504  140.9133  153.3236 H   0  0  0  0  0  0  0  0  0  0  0  0
  147.9829  138.6918  154.2297 H   0  0  0  0  0  0  0  0  0  0  0  0
  148.2013  139.8836  155.4860 H   0  0  0  0  0  0  0  0  0  0  0  0
  146.1023  138.7382  155.9036 H   0  0  0  0  0  0  0  0  0  0  0  0
  144.6933  139.5208  153.5158 H   0  0  0  0  0  0  0  0  0  0  0  0
  143.8891  138.1588  152.2938 H   0  0  0  0  0  0  0  0  0  0  0  0
  143.8680  135.4274  152.9085 H   0  0  0  0  0  0  0  0  0  0  0  0
  143.2343  136.1297  151.4401 H   0  0  0  0  0  0  0  0  0  0  0  0
  145.5498  136.0656  150.4298 H   0  0  0  0  0  0  0  0  0  0  0  0
  146.1876  135.4221  151.9152 H   0  0  0  0  0  0  0  0  0  0  0  0
  147.0241  133.6645  150.0378 H   0  0  0  0  0  0  0  0  0  0  0  0
  146.4738  131.3435  149.2770 H   0  0  0  0  0  0  0  0  0  0  0  0
  142.5746  131.6567  150.6067 H   0  0  0  0  0  0  0  0  0  0  0  0
  142.9371  133.9972  151.4218 H   0  0  0  0  0  0  0  0  0  0  0  0
  146.1076  141.1471  156.4344 H   0  0  0  0  0  0  0  0  0  0  0  0
  144.5204  140.6950  155.8654 H   0  0  0  0  0  0  0  0  0  0  0  0
  145.1583  141.4629  153.6887 H   0  0  0  0  0  0  0  0  0  0  0  0
  1  2  1  0  0  0  0
  1 20  1  0  0  0  0
  1 21  1  0  0  0  0
  1 22  1  0  0  0  0
  2 19  1  0  0  0  0
  2  3  1  0  0  0  0
  2 42  1  0  0  0  0
  3  4  1  0  0  0  0
  3 23  1  0  0  0  0
  3 24  1  0  0  0  0
  4  5  1  0  0  0  0
  4 25  1  0  0  0  0
  4 26  1  0  0  0  0
  5  6  1  0  0  0  0
  5 27  1  0  0  0  0
  5 28  1  0  0  0  0
  6  7  1  0  0  0  0
  6 19  1  0  0  0  0
  6 29  1  0  0  0  0
  7  8  1  0  0  0  0
  7 30  1  0  0  0  0
  8  9  2  0  0  0  0
  8 10  1  0  0  0  0
 10 11  1  0  0  0  0
 10 31  1  0  0  0  0
 11 12  1  0  0  0  0
 11 32  1  0  0  0  0
 11 33  1  0  0  0  0
 12 13  1  0  0  0  0
 12 34  1  0  0  0  0
 12 35  1  0  0  0  0
 13 18  1  0  0  0  0
 13 14  2  0  0  0  0
 14 15  1  0  0  0  0
 14 36  1  0  0  0  0
 15 16  2  0  0  0  0
 15 37  1  0  0  0  0
 16 17  1  0  0  0  0
 17 18  2  0  0  0  0
 17 38  1  0  0  0  0
 18 39  1  0  0  0  0
 19 40  1  0  0  0  0
 19 41  1  0  0  0  0
M  CHG  1   2   1
M  END
> <s_m_source_file>
AV-unprocessed.smi

> <i_m_source_file_index>
2931

> <i_lp_mmshare_version>
43012

> <i_f3d_flags>
0

> <s_epik_input>
W0NIM11OMVtDSDJdW0NIMl1bQ0gyXVtDQEhdKFtDSDJdMSlbTkhdQyg9TylbTkhdW0NIMl1bQ0gyXWMyW2NIXVtjSF1uW2NIXVtjSF0y

> <s_epik_cmdline>
J2VwaWtfcHl0aG9uJywgJy1waCcsICc3LjAnLCAnLXRuJywgJzgnLCAnLW1hJywgJzIwMCcsICctbWV0YWxfYmluZGluZycsICctaW1hZScsICc8aW5maWxlLm1hZT4nLCAnLW9tYWUnLCAnPG91dGZpbGUubWFlPic=

> <r_epik_Ionization_Penalty>
0.0573876

> <r_epik_Ionization_Penalty_Charging>
0.00229982

> <r_epik_Ionization_Penalty_Neutral>
0.0550878

> <r_epik_State_Penalty>
0.0473925

> <r_epik_Charging_Adjusted_Penalty>
0.0496923

> <i_epik_Tot_Q>
1

> <i_epik_Tot_abs_Q>
1

> <r_epik_Metal_State_Penalty>
0.0433388

> <b_epik_Metal_Only>
0

> <s_lp_Force_Field>
OPLS_2005

> <r_lp_Energy>
20.0995

> <b_lp_Chiralities_Consistent>
1

> <s_lp_Variant>
AV-unprocessed.smi:2931-3

> <Gold.Version>
5.8.1

> <Gold.Id.Protein>
6NUR|6NUR_protein|mol2

> <Gold.PLP.Fitness>
46.7555

> <Gold.PLP.PLP>
-32.0753

> <Gold.PLP.part.hbond>
-4.3180

> <Gold.PLP.part.metal>
0.0000

> <Gold.PLP.part.buried>
-4.8077

> <Gold.PLP.part.nonpolar>
-25.7732

> <Gold.PLP.part.repulsive>
0.2071

> <Gold.PLP.ligand.clash>
0.0000

> <Gold.PLP.ligand.torsion>
0.2663

> <Gold.PLP.Chemscore.Hbond>
3.0688

> <Gold.PLP.Chemscore.CHOScore>
2.0000

> <Gold.PLP.Chemscore.Metal>
0.0000

> <Gold.Chemscore.Hbonds>
donor molecule, donor type, donor heavy atom, donor atom, acceptor molecule, acceptor atom, score
      L1  H     2    42       P1 10175  1.42
      L1  H     7    30       P1 10175  1.00
      L1  H    10    31       P1 10175  0.29
      P1  H 10785 10796       L1    16  0.28
      L1  C    15    37       P1 10747  0.51
      L1  C    17    38       P1 10952  1.00

> <Gold.PLP.Chemscore.Internal.Correction>
0.0062

> <Gold.Rescore>
     Score         DG    S(hbond)    S(metal)    S(lipo)     H(rot)  DE(clash)    DE(int)     intcor
     16.05     -16.59       1.91        0.00      74.62       1.56       0.07       0.47       ----

> <Gold.Chemscore.Fitness>
16.0467

> <Gold.Chemscore.DG>
-16.5887

> <Gold.Chemscore.ZeroCoef>
-5.4800

> <Gold.Chemscore.Hbond>
1.9071

> <Gold.Chemscore.Metal>
0.0000

> <Gold.Chemscore.Lipo>
74.6198

> <Gold.Chemscore.Internal_Hbond>
0.0000

> <Gold.Chemscore.DEClash>
0.0728

> <Gold.Chemscore.DEInternal>
0.4692

> <Gold.Chemscore.Rot>
1.5592

> <Gold.Chemscore.Internal.Correction>
   9.000000E+99

> <Gold.Chemscore.Hbonds>
donor molecule, donor type, donor heavy atom, donor atom, acceptor molecule, acceptor atom, score
      L1  H     2    42       P1 10175  0.16
      L1  H     7    30       P1 10175  1.00
      L1  H    10    31       P1 10175  0.30
      P1  H 10785 10796       L1    16  0.06

> <Gold.Chemscore.Hbond.Weighted>
-6.3697

> <Gold.Chemscore.Metal.Weighted>
-0.0000

> <Gold.Chemscore.Lipo.Weighted>
-8.7305

> <Gold.Chemscore.Internal_Hbond.Weighted>
0.0000

> <Gold.Chemscore.DEClash.Weighted>
0.0728

> <Gold.Chemscore.DEInternal.Weighted>
0.4692

> <Gold.Chemscore.Rot.Weighted>
3.9915

> <Gold.Chemscore.Internal.Correction.Weighted>
   9.000000E+99

> <Gold.Protein.RotatedTorsions>
[ 6907 6896 6895 6894 ] final  137.67 input  -60.11 | X-H torsion
[ 7974 7965 7964 7962 ] final -169.54 input  175.53 | X-H torsion
[ 8008 7997 7996 7995 ] final  -52.16 input   59.86 | X-H torsion
[ 10167 10162 10161 10158 ] final   -3.07 input  -65.29 | X-H torsion
[ 10718 10713 10712 10709 ] final   25.12 input   66.30 | X-H torsion
[ 10763 10752 10751 10750 ] final   68.74 input  -60.55 | X-H torsion
[ 11005 11000 10999 10996 ] final   49.20 input  -57.11 | X-H torsion

> <Gold.Protein.ActiveResidues>
 VAL166  LYS551  ARG553  GLY616  TRP617  ASP618  TYR619  PRO620  LYS621  CYS622 
 ASP623  PHE694  ASN695  SER759  ASP760  ASP761  ALA762  ILE779  LEU786  VAL792 
 PHE793  MET794  SER795  GLU796  ALA797  LYS798  CYS799  TRP800  GLU811  SER814 

> <Gold.Protein.RotatedAtoms>
  152.2754  133.5421  159.5464 H   0  0  0  0  0  0  0  0  0  0  0  0  # atno 6907 bound_to 6896
  150.7175  134.0639  159.3849 H   0  0  0  0  0  0  0  0  0  0  0  0  # atno 6908 bound_to 6896
  151.8552  135.0544  160.0514 H   0  0  0  0  0  0  0  0  0  0  0  0  # atno 6909 bound_to 6896
  144.7184  140.2205  143.6316 H   0  0  0  0  0  0  0  0  0  0  0  0  # atno 7974 bound_to 7965
  154.4100  140.1230  156.4946 H   0  0  0  0  0  0  0  0  0  0  0  0  # atno 8008 bound_to 7997
  155.6956  140.3495  155.4892 H   0  0  0  0  0  0  0  0  0  0  0  0  # atno 8009 bound_to 7997
  155.9430  140.1090  157.1030 H   0  0  0  0  0  0  0  0  0  0  0  0  # atno 8010 bound_to 7997
  140.6876  143.6582  150.8289 H   0  0  0  0  0  0  0  0  0  0  0  0  # atno 10167 bound_to 10162
  157.1890  130.6837  149.6142 H   0  0  0  0  0  0  0  0  0  0  0  0  # atno 10718 bound_to 10713
  153.0251  135.5236  154.7181 H   0  0  0  0  0  0  0  0  0  0  0  0  # atno 10763 bound_to 10752
  154.6244  135.2893  155.0291 H   0  0  0  0  0  0  0  0  0  0  0  0  # atno 10764 bound_to 10752
  154.1266  135.6599  153.4966 H   0  0  0  0  0  0  0  0  0  0  0  0  # atno 10765 bound_to 10752
  140.1124  134.4937  155.8666 H   0  0  0  0  0  0  0  0  0  0  0  0  # atno 11005 bound_to 11000
  145.8505  139.2173  143.1775 LP  0  0  0  0  0  0  0  0  0  0  0  0  # atno 17320 bound_to 7965
  146.0265  140.8299  142.9897 LP  0  0  0  0  0  0  0  0  0  0  0  0  # atno 17321 bound_to 7965
  140.0291  143.5462  152.2768 LP  0  0  0  0  0  0  0  0  0  0  0  0  # atno 17342 bound_to 10162
  139.6248  144.7635  151.2662 LP  0  0  0  0  0  0  0  0  0  0  0  0  # atno 17343 bound_to 10162
  155.9714  130.4621  150.6133 LP  0  0  0  0  0  0  0  0  0  0  0  0  # atno 17370 bound_to 10713
  157.3879  131.0791  151.1420 LP  0  0  0  0  0  0  0  0  0  0  0  0  # atno 17371 bound_to 10713
  141.2133  133.6732  156.6731 LP  0  0  0  0  0  0  0  0  0  0  0  0  # atno 17394 bound_to 11000
  140.3073  134.8115  157.4147 LP  0  0  0  0  0  0  0  0  0  0  0  0  # atno 17395 bound_to 11000

$$$$
