AV-unprocessed.smi:1304|AV-procd|sdf|5431|dock3
  -GOLD-   22720 4593D 1   1.00000     0.00000
 Structure written by MMmdl.
 48 49  0  0  0  0  0  0  0  0  2 V2000
  145.6324  143.3585  154.3894 C   0  0  0  0  0  0  0  0  0  0  0  0
  146.5633  142.2560  153.8531 C   0  0  0  0  0  0  0  0  0  0  0  0
  146.6304  140.9569  154.7134 C   0  0  1  0  0  0  0  0  0  0  0  0
  147.5887  139.9712  153.9932 C   0  0  0  0  0  0  0  0  0  0  0  0
  147.2196  141.2967  156.1146 C   0  0  0  0  0  0  0  0  0  0  0  0
  148.5292  141.9380  156.0411 N   0  0  0  0  0  0  0  0  0  0  0  0
  149.6467  141.4455  156.5931 C   0  0  0  0  0  0  0  0  0  0  0  0
  149.6731  140.3846  157.2185 O   0  0  0  0  0  0  0  0  0  0  0  0
  150.9191  142.2813  156.3904 C   0  0  0  0  0  0  0  0  0  0  0  0
  151.5231  142.7491  157.6493 N   0  0  0  0  0  0  0  0  0  0  0  0
  151.2673  144.0832  158.0243 C   0  0  0  0  0  0  0  0  0  0  0  0
  151.7741  144.6148  159.1478 C   0  0  0  0  0  0  0  0  0  0  0  0
  152.6034  143.7796  159.9841 C   0  0  0  0  0  0  0  0  0  0  0  0
  152.8572  142.5031  159.6333 C   0  0  0  0  0  0  0  0  0  0  0  0
  152.3064  141.9184  158.4048 C   0  0  0  0  0  0  0  0  0  0  0  0
  152.5358  140.7546  158.0743 O   0  0  0  0  0  0  0  0  0  0  0  0
  145.2544  140.3514  154.8450 N   0  3  0  0  0  0  0  0  0  0  0  0
  145.2046  138.8824  155.0941 C   0  0  0  0  0  0  0  0  0  0  0  0
  143.7560  138.3700  155.0172 C   0  0  0  0  0  0  0  0  0  0  0  0
  142.9439  139.0724  155.9473 O   0  0  0  0  0  0  0  0  0  0  0  0
  142.9094  140.4646  155.6678 C   0  0  0  0  0  0  0  0  0  0  0  0
  144.3277  141.0450  155.7841 C   0  0  0  0  0  0  0  0  0  0  0  0
  145.6450  144.2227  153.7252 H   0  0  0  0  0  0  0  0  0  0  0  0
  145.9389  143.7058  155.3761 H   0  0  0  0  0  0  0  0  0  0  0  0
  144.5988  143.0197  154.4569 H   0  0  0  0  0  0  0  0  0  0  0  0
  146.2317  142.0101  152.8437 H   0  0  0  0  0  0  0  0  0  0  0  0
  147.5601  142.6737  153.7132 H   0  0  0  0  0  0  0  0  0  0  0  0
  148.5122  140.4601  153.6808 H   0  0  0  0  0  0  0  0  0  0  0  0
  147.1346  139.5435  153.0991 H   0  0  0  0  0  0  0  0  0  0  0  0
  147.8860  139.1450  154.6395 H   0  0  0  0  0  0  0  0  0  0  0  0
  146.5627  141.9731  156.6619 H   0  0  0  0  0  0  0  0  0  0  0  0
  147.3100  140.3918  156.7166 H   0  0  0  0  0  0  0  0  0  0  0  0
  148.5880  142.8143  155.5430 H   0  0  0  0  0  0  0  0  0  0  0  0
  151.6355  141.6819  155.8268 H   0  0  0  0  0  0  0  0  0  0  0  0
  150.6877  143.1303  155.7442 H   0  0  0  0  0  0  0  0  0  0  0  0
  150.6445  144.6422  157.3411 H   0  0  0  0  0  0  0  0  0  0  0  0
  151.5709  145.6410  159.4166 H   0  0  0  0  0  0  0  0  0  0  0  0
  153.0243  144.1811  160.8943 H   0  0  0  0  0  0  0  0  0  0  0  0
  153.4820  141.8944  160.2704 H   0  0  0  0  0  0  0  0  0  0  0  0
  145.7850  138.3289  154.3584 H   0  0  0  0  0  0  0  0  0  0  0  0
  145.6215  138.6517  156.0747 H   0  0  0  0  0  0  0  0  0  0  0  0
  143.3562  138.4838  154.0081 H   0  0  0  0  0  0  0  0  0  0  0  0
  143.7217  137.3064  155.2536 H   0  0  0  0  0  0  0  0  0  0  0  0
  142.4934  140.6427  154.6747 H   0  0  0  0  0  0  0  0  0  0  0  0
  142.2456  140.9502  156.3832 H   0  0  0  0  0  0  0  0  0  0  0  0
  144.6734  140.9299  156.8116 H   0  0  0  0  0  0  0  0  0  0  0  0
  144.2743  142.1125  155.5803 H   0  0  0  0  0  0  0  0  0  0  0  0
  144.8415  140.4716  153.9310 H   0  0  0  0  0  0  0  0  0  0  0  0
  1  2  1  0  0  0  0
  1 23  1  0  0  0  0
  1 24  1  0  0  0  0
  1 25  1  0  0  0  0
  2  3  1  0  0  0  0
  2 26  1  0  0  0  0
  2 27  1  0  0  0  0
  3  4  1  0  0  0  0
  3  5  1  0  0  0  0
  3 17  1  0  0  0  0
  4 28  1  0  0  0  0
  4 29  1  0  0  0  0
  4 30  1  0  0  0  0
  5  6  1  0  0  0  0
  5 31  1  0  0  0  0
  5 32  1  0  0  0  0
  6  7  1  0  0  0  0
  6 33  1  0  0  0  0
  7  8  2  0  0  0  0
  7  9  1  0  0  0  0
  9 10  1  0  0  0  0
  9 34  1  0  0  0  0
  9 35  1  0  0  0  0
 10 15  1  0  0  0  0
 10 11  1  0  0  0  0
 11 12  2  0  0  0  0
 11 36  1  0  0  0  0
 12 13  1  0  0  0  0
 12 37  1  0  0  0  0
 13 14  2  0  0  0  0
 13 38  1  0  0  0  0
 14 15  1  0  0  0  0
 14 39  1  0  0  0  0
 15 16  2  0  0  0  0
 17 22  1  0  0  0  0
 17 18  1  0  0  0  0
 17 48  1  0  0  0  0
 18 19  1  0  0  0  0
 18 40  1  0  0  0  0
 18 41  1  0  0  0  0
 19 20  1  0  0  0  0
 19 42  1  0  0  0  0
 19 43  1  0  0  0  0
 20 21  1  0  0  0  0
 21 22  1  0  0  0  0
 21 44  1  0  0  0  0
 21 45  1  0  0  0  0
 22 46  1  0  0  0  0
 22 47  1  0  0  0  0
M  CHG  1  17   1
M  END
> <s_m_source_file>
AV-unprocessed.smi

> <i_m_source_file_index>
1304

> <i_lp_mmshare_version>
43012

> <i_f3d_flags>
0

> <s_epik_input>
W0NIMl0xW0NIMl1PW0NIMl1bQ0gyXU4xW0NAQF0oW0NIM10pKFtDSDJdW0NIM10pW0NIMl1bTkhdQyg9TylbQ0gyXW4yW2NIXVtjSF1bY0hdW2NIXWMyPU8=

> <s_epik_cmdline>
J2VwaWtfcHl0aG9uJywgJy1waCcsICc3LjAnLCAnLXRuJywgJzgnLCAnLW1hJywgJzIwMCcsICctbWV0YWxfYmluZGluZycsICctaW1hZScsICc8aW5maWxlLm1hZT4nLCAnLW9tYWUnLCAnPG91dGZpbGUubWFlPic=

> <r_lp_tautomer_probability>
1

> <r_epik_Ionization_Penalty>
0.519658

> <r_epik_Ionization_Penalty_Charging>
0.519658

> <r_epik_Ionization_Penalty_Neutral>
8.70177e-08

> <r_epik_State_Penalty>
0.527569

> <r_epik_Charging_Adjusted_Penalty>
1.04723

> <i_epik_Tot_Q>
1

> <i_epik_Tot_abs_Q>
1

> <r_epik_Metal_State_Penalty>
0.527613

> <b_epik_Metal_Only>
0

> <s_lp_Force_Field>
OPLS_2005

> <r_lp_Energy>
38.623

> <b_lp_Chiralities_Consistent>
1

> <s_lp_Variant>
AV-unprocessed.smi:1304-3

> <Gold.Version>
5.8.1

> <Gold.Id.Protein>
6NUR|6NUR_protein|mol2

> <Gold.PLP.Fitness>
48.4406

> <Gold.PLP.PLP>
-36.9138

> <Gold.PLP.part.hbond>
-2.8208

> <Gold.PLP.part.metal>
0.0000

> <Gold.PLP.part.buried>
-4.9410

> <Gold.PLP.part.nonpolar>
-28.4976

> <Gold.PLP.part.repulsive>
0.1173

> <Gold.PLP.ligand.clash>
0.0000

> <Gold.PLP.ligand.torsion>
0.8503

> <Gold.PLP.Chemscore.Hbond>
3.3567

> <Gold.PLP.Chemscore.CHOScore>
0.9960

> <Gold.PLP.Chemscore.Metal>
0.0000

> <Gold.Chemscore.Hbonds>
donor molecule, donor type, donor heavy atom, donor atom, acceptor molecule, acceptor atom, score
      L1  H     6    33       P1  8028  0.94
      L1  H    17    48       P1 10175  2.00
      P1  H  7997  8008       L1    16  0.08
      L1  C    11    36       P1  8028  1.00

> <Gold.PLP.Chemscore.Internal.Correction>
0.1693

> <Gold.Rescore>
     Score         DG    S(hbond)    S(metal)    S(lipo)     H(rot)  DE(clash)    DE(int)     intcor
     17.42     -18.84       2.59        0.00      84.59       2.03       0.29       1.13       ----

> <Gold.Chemscore.Fitness>
17.4237

> <Gold.Chemscore.DG>
-18.8416

> <Gold.Chemscore.ZeroCoef>
-5.4800

> <Gold.Chemscore.Hbond>
2.5929

> <Gold.Chemscore.Metal>
0.0000

> <Gold.Chemscore.Lipo>
84.5929

> <Gold.Chemscore.Internal_Hbond>
0.0000

> <Gold.Chemscore.DEClash>
0.2907

> <Gold.Chemscore.DEInternal>
1.1271

> <Gold.Chemscore.Rot>
2.0298

> <Gold.Chemscore.Internal.Correction>
   9.000000E+99

> <Gold.Chemscore.Hbonds>
donor molecule, donor type, donor heavy atom, donor atom, acceptor molecule, acceptor atom, score
      L1  H     6    33       P1  8028  0.90
      L1  H    17    48       P1 10175  1.00
      P1  H  7997  8008       L1    16  0.10

> <Gold.Chemscore.Hbond.Weighted>
-8.6604

> <Gold.Chemscore.Metal.Weighted>
-0.0000

> <Gold.Chemscore.Lipo.Weighted>
-9.8974

> <Gold.Chemscore.Internal_Hbond.Weighted>
0.0000

> <Gold.Chemscore.DEClash.Weighted>
0.2907

> <Gold.Chemscore.DEInternal.Weighted>
1.1271

> <Gold.Chemscore.Rot.Weighted>
5.1962

> <Gold.Chemscore.Internal.Correction.Weighted>
   9.000000E+99

> <Gold.Protein.RotatedTorsions>
[ 6907 6896 6895 6894 ] final   34.19 input  -60.11 | X-H torsion
[ 7974 7965 7964 7962 ] final    1.93 input  175.53 | X-H torsion
[ 8008 7997 7996 7995 ] final  -81.78 input   59.86 | X-H torsion
[ 10167 10162 10161 10158 ] final  128.40 input  -65.29 | X-H torsion
[ 10718 10713 10712 10709 ] final  -62.94 input   66.30 | X-H torsion
[ 10763 10752 10751 10750 ] final   75.26 input  -60.55 | X-H torsion
[ 11005 11000 10999 10996 ] final   59.25 input  -57.11 | X-H torsion

> <Gold.Protein.ActiveResidues>
 VAL166  LYS551  ARG553  GLY616  TRP617  ASP618  TYR619  PRO620  LYS621  CYS622 
 ASP623  PHE694  ASN695  SER759  ASP760  ASP761  ALA762  ILE779  LEU786  VAL792 
 PHE793  MET794  SER795  GLU796  ALA797  LYS798  CYS799  TRP800  GLU811  SER814 

> <Gold.Protein.RotatedAtoms>
  152.0990  134.9355  160.0569 H   0  0  0  0  0  0  0  0  0  0  0  0  # atno 6907 bound_to 6896
  152.0577  133.4043  159.4412 H   0  0  0  0  0  0  0  0  0  0  0  0  # atno 6908 bound_to 6896
  150.6839  134.3156  159.4808 H   0  0  0  0  0  0  0  0  0  0  0  0  # atno 6909 bound_to 6896
  146.2442  140.0912  142.8352 H   0  0  0  0  0  0  0  0  0  0  0  0  # atno 7974 bound_to 7965
  154.6019  140.0643  156.9379 H   0  0  0  0  0  0  0  0  0  0  0  0  # atno 8008 bound_to 7997
  155.2118  140.3323  155.4309 H   0  0  0  0  0  0  0  0  0  0  0  0  # atno 8009 bound_to 7997
  156.2323  140.1847  156.7193 H   0  0  0  0  0  0  0  0  0  0  0  0  # atno 8010 bound_to 7997
  139.5529  144.6827  151.4269 H   0  0  0  0  0  0  0  0  0  0  0  0  # atno 10167 bound_to 10162
  156.0823  130.4215  150.1206 H   0  0  0  0  0  0  0  0  0  0  0  0  # atno 10718 bound_to 10713
  153.0642  135.4995  154.8163 H   0  0  0  0  0  0  0  0  0  0  0  0  # atno 10763 bound_to 10752
  154.6929  135.2987  154.9456 H   0  0  0  0  0  0  0  0  0  0  0  0  # atno 10764 bound_to 10752
  154.0205  135.6742  153.4825 H   0  0  0  0  0  0  0  0  0  0  0  0  # atno 10765 bound_to 10752
  140.0317  134.6002  155.9498 H   0  0  0  0  0  0  0  0  0  0  0  0  # atno 11005 bound_to 11000
  145.0649  140.9114  143.4917 LP  0  0  0  0  0  0  0  0  0  0  0  0  # atno 17320 bound_to 7965
  145.1034  139.2806  143.5674 LP  0  0  0  0  0  0  0  0  0  0  0  0  # atno 17321 bound_to 7965
  140.6796  143.8112  150.7103 LP  0  0  0  0  0  0  0  0  0  0  0  0  # atno 17342 bound_to 10162
  140.1561  143.4315  152.2098 LP  0  0  0  0  0  0  0  0  0  0  0  0  # atno 17343 bound_to 10162
  156.9235  130.9690  151.3545 LP  0  0  0  0  0  0  0  0  0  0  0  0  # atno 17370 bound_to 10713
  157.5944  130.8467  149.8707 LP  0  0  0  0  0  0  0  0  0  0  0  0  # atno 17371 bound_to 10713
  141.1835  133.6551  156.5118 LP  0  0  0  0  0  0  0  0  0  0  0  0  # atno 17394 bound_to 11000
  140.4214  134.7184  157.4892 LP  0  0  0  0  0  0  0  0  0  0  0  0  # atno 17395 bound_to 11000

$$$$
