AV-unprocessed.smi:2674|AV-procd|sdf|10358|dock8
  -GOLD-   2272014383D 1   1.00000     0.00000
 Structure written by MMmdl.
 45 46  0  0  0  0  0  0  0  0  2 V2000
  145.9631  135.3079  153.4851 C   0  0  0  0  0  0  0  0  0  0  0  0
  146.0702  135.4482  152.0103 N   0  3  2  0  0  0  0  0  0  0  0  0
  145.3530  136.6642  151.5400 C   0  0  0  0  0  0  0  0  0  0  0  0
  145.7994  137.9151  152.3181 C   0  0  0  0  0  0  0  0  0  0  0  0
  147.2286  137.8888  152.6074 N   0  0  0  0  0  0  0  0  0  0  0  0
  147.8340  138.6387  153.5399 C   0  0  0  0  0  0  0  0  0  0  0  0
  147.2302  139.4294  154.2655 O   0  0  0  0  0  0  0  0  0  0  0  0
  149.1587  138.4091  153.5683 N   0  0  0  0  0  0  0  0  0  0  0  0
  150.1328  138.9953  154.4200 C   0  0  0  0  0  0  0  0  0  0  0  0
  151.3876  138.3450  154.4311 C   0  0  0  0  0  0  0  0  0  0  0  0
  152.4210  138.8472  155.2456 C   0  0  0  0  0  0  0  0  0  0  0  0
  152.1726  139.9878  156.0294 C   0  0  0  0  0  0  0  0  0  0  0  0
  150.8955  140.5742  155.9607 C   0  0  0  0  0  0  0  0  0  0  0  0
  149.9034  140.0947  155.1808 N   0  0  0  0  0  0  0  0  0  0  0  0
  145.7205  134.2231  151.2229 C   0  0  0  0  0  0  0  0  0  0  0  0
  144.1941  133.9753  151.0863 C   0  0  0  0  0  0  0  0  0  0  0  0
  143.8847  132.6903  150.3004 C   0  0  0  0  0  0  0  0  0  0  0  0
  144.5570  131.4679  150.9378 C   0  0  0  0  0  0  0  0  0  0  0  0
  146.0686  131.6895  151.0748 C   0  0  0  0  0  0  0  0  0  0  0  0
  146.3728  132.9720  151.8645 C   0  0  0  0  0  0  0  0  0  0  0  0
  144.9594  134.9956  153.7761 H   0  0  0  0  0  0  0  0  0  0  0  0
  146.1764  136.2522  153.9858 H   0  0  0  0  0  0  0  0  0  0  0  0
  146.6818  134.5857  153.8719 H   0  0  0  0  0  0  0  0  0  0  0  0
  145.5296  136.8324  150.4784 H   0  0  0  0  0  0  0  0  0  0  0  0
  144.2748  136.5199  151.6292 H   0  0  0  0  0  0  0  0  0  0  0  0
  145.5930  138.8178  151.7438 H   0  0  0  0  0  0  0  0  0  0  0  0
  145.2359  138.0052  153.2487 H   0  0  0  0  0  0  0  0  0  0  0  0
  147.7970  137.2649  152.0533 H   0  0  0  0  0  0  0  0  0  0  0  0
  149.5133  137.7371  152.9041 H   0  0  0  0  0  0  0  0  0  0  0  0
  151.5621  137.4694  153.8227 H   0  0  0  0  0  0  0  0  0  0  0  0
  153.3871  138.3648  155.2681 H   0  0  0  0  0  0  0  0  0  0  0  0
  152.9399  140.4024  156.6664 H   0  0  0  0  0  0  0  0  0  0  0  0
  150.6639  141.4511  156.5471 H   0  0  0  0  0  0  0  0  0  0  0  0
  146.1173  134.3535  150.2142 H   0  0  0  0  0  0  0  0  0  0  0  0
  143.7372  133.9113  152.0751 H   0  0  0  0  0  0  0  0  0  0  0  0
  143.7088  134.8019  150.5673 H   0  0  0  0  0  0  0  0  0  0  0  0
  142.8066  132.5355  150.2510 H   0  0  0  0  0  0  0  0  0  0  0  0
  144.2275  132.8003  149.2707 H   0  0  0  0  0  0  0  0  0  0  0  0
  144.1218  131.2794  151.9202 H   0  0  0  0  0  0  0  0  0  0  0  0
  144.3628  130.5789  150.3370 H   0  0  0  0  0  0  0  0  0  0  0  0
  146.5246  130.8316  151.5697 H   0  0  0  0  0  0  0  0  0  0  0  0
  146.5226  131.7528  150.0851 H   0  0  0  0  0  0  0  0  0  0  0  0
  147.4543  133.0785  151.9401 H   0  0  0  0  0  0  0  0  0  0  0  0
  146.0118  132.8572  152.8877 H   0  0  0  0  0  0  0  0  0  0  0  0
  147.0494  135.6102  151.8219 H   0  0  0  0  0  0  0  0  0  0  0  0
  1  2  1  0  0  0  0
  1 21  1  0  0  0  0
  1 22  1  0  0  0  0
  1 23  1  0  0  0  0
  2  3  1  0  0  0  0
  2 15  1  0  0  0  0
  2 45  1  0  0  0  0
  3  4  1  0  0  0  0
  3 24  1  0  0  0  0
  3 25  1  0  0  0  0
  4  5  1  0  0  0  0
  4 26  1  0  0  0  0
  4 27  1  0  0  0  0
  5  6  1  0  0  0  0
  5 28  1  0  0  0  0
  6  7  2  0  0  0  0
  6  8  1  0  0  0  0
  8  9  1  0  0  0  0
  8 29  1  0  0  0  0
  9 14  1  0  0  0  0
  9 10  2  0  0  0  0
 10 11  1  0  0  0  0
 10 30  1  0  0  0  0
 11 12  2  0  0  0  0
 11 31  1  0  0  0  0
 12 13  1  0  0  0  0
 12 32  1  0  0  0  0
 13 14  2  0  0  0  0
 13 33  1  0  0  0  0
 15 20  1  0  0  0  0
 15 16  1  0  0  0  0
 15 34  1  0  0  0  0
 16 17  1  0  0  0  0
 16 35  1  0  0  0  0
 16 36  1  0  0  0  0
 17 18  1  0  0  0  0
 17 37  1  0  0  0  0
 17 38  1  0  0  0  0
 18 19  1  0  0  0  0
 18 39  1  0  0  0  0
 18 40  1  0  0  0  0
 19 20  1  0  0  0  0
 19 41  1  0  0  0  0
 19 42  1  0  0  0  0
 20 43  1  0  0  0  0
 20 44  1  0  0  0  0
M  CHG  1   2   1
M  END
> <s_m_source_file>
AV-unprocessed.smi

> <i_m_source_file_index>
2674

> <i_lp_mmshare_version>
43012

> <i_f3d_flags>
0

> <s_epik_input>
W0NIMl0xW0NIMl1bQ0gyXVtDSDJdW0NIMl1bQ0hdMU4oW0NIM10pW0NIMl1bQ0gyXVtOSF1DKD1PKVtOSF1jMltjSF1bY0hdW2NIXVtjSF1uMg==

> <s_epik_cmdline>
J2VwaWtfcHl0aG9uJywgJy1waCcsICc3LjAnLCAnLXRuJywgJzgnLCAnLW1hJywgJzIwMCcsICctbWV0YWxfYmluZGluZycsICctaW1hZScsICc8aW5maWxlLm1hZT4nLCAnLW9tYWUnLCAnPG91dGZpbGUubWFlPic=

> <r_epik_Ionization_Penalty>
0.00206741

> <r_epik_Ionization_Penalty_Charging>
0.00203269

> <r_epik_Ionization_Penalty_Neutral>
3.47205e-05

> <r_epik_State_Penalty>
0.00139005

> <r_epik_Charging_Adjusted_Penalty>
0.00342273

> <i_epik_Tot_Q>
1

> <i_epik_Tot_abs_Q>
1

> <r_epik_Metal_State_Penalty>
-0

> <b_epik_Metal_Only>
0

> <s_lp_Force_Field>
OPLS_2005

> <r_lp_Energy>
21.2235

> <b_lp_Chiralities_Consistent>
1

> <s_lp_Variant>
AV-unprocessed.smi:2674-1

> <Gold.Version>
5.8.1

> <Gold.Id.Protein>
6NUR|6NUR_protein|mol2

> <Gold.PLP.Fitness>
48.8596

> <Gold.PLP.PLP>
-38.0487

> <Gold.PLP.part.hbond>
-3.8664

> <Gold.PLP.part.metal>
0.0000

> <Gold.PLP.part.buried>
-1.6549

> <Gold.PLP.part.nonpolar>
-33.5394

> <Gold.PLP.part.repulsive>
0.3426

> <Gold.PLP.ligand.clash>
0.0000

> <Gold.PLP.ligand.torsion>
0.4617

> <Gold.PLP.Chemscore.Hbond>
3.8800

> <Gold.PLP.Chemscore.CHOScore>
0.0000

> <Gold.PLP.Chemscore.Metal>
0.0000

> <Gold.Chemscore.Hbonds>
donor molecule, donor type, donor heavy atom, donor atom, acceptor molecule, acceptor atom, score
      L1  H     2    45       P1  7948  2.00
      L1  H     5    28       P1  7948  1.00
      L1  H     8    29       P1  7948  0.86

> <Gold.PLP.Chemscore.Internal.Correction>
0.0943

> <Gold.Rescore>
     Score         DG    S(hbond)    S(metal)    S(lipo)     H(rot)  DE(clash)    DE(int)     intcor
     18.43     -20.63       2.69        0.00      89.84       1.70       0.29       1.91       ----

> <Gold.Chemscore.Fitness>
18.4262

> <Gold.Chemscore.DG>
-20.6276

> <Gold.Chemscore.ZeroCoef>
-5.4800

> <Gold.Chemscore.Hbond>
2.6935

> <Gold.Chemscore.Metal>
0.0000

> <Gold.Chemscore.Lipo>
89.8387

> <Gold.Chemscore.Internal_Hbond>
0.0000

> <Gold.Chemscore.DEClash>
0.2949

> <Gold.Chemscore.DEInternal>
1.9065

> <Gold.Chemscore.Rot>
1.7030

> <Gold.Chemscore.Internal.Correction>
   9.000000E+99

> <Gold.Chemscore.Hbonds>
donor molecule, donor type, donor heavy atom, donor atom, acceptor molecule, acceptor atom, score
      L1  H     2    45       P1  7948  0.98
      L1  H     5    28       P1  7948  0.93
      L1  H     8    29       P1  7948  0.70

> <Gold.Chemscore.Hbond.Weighted>
-8.9961

> <Gold.Chemscore.Metal.Weighted>
-0.0000

> <Gold.Chemscore.Lipo.Weighted>
-10.5111

> <Gold.Chemscore.Internal_Hbond.Weighted>
0.0000

> <Gold.Chemscore.DEClash.Weighted>
0.2949

> <Gold.Chemscore.DEInternal.Weighted>
1.9065

> <Gold.Chemscore.Rot.Weighted>
4.3597

> <Gold.Chemscore.Internal.Correction.Weighted>
   9.000000E+99

> <Gold.Protein.RotatedTorsions>
[ 6907 6896 6895 6894 ] final   53.94 input  -60.11 | X-H torsion
[ 7974 7965 7964 7962 ] final  -56.51 input  175.53 | X-H torsion
[ 8008 7997 7996 7995 ] final  -81.63 input   59.86 | X-H torsion
[ 10167 10162 10161 10158 ] final  137.24 input  -65.29 | X-H torsion
[ 10718 10713 10712 10709 ] final -155.47 input   66.30 | X-H torsion
[ 10763 10752 10751 10750 ] final -109.50 input  -60.55 | X-H torsion
[ 11005 11000 10999 10996 ] final  136.80 input  -57.11 | X-H torsion

> <Gold.Protein.ActiveResidues>
 VAL166  LYS551  ARG553  GLY616  TRP617  ASP618  TYR619  PRO620  LYS621  CYS622 
 ASP623  PHE694  ASN695  SER759  ASP760  ASP761  ALA762  ILE779  LEU786  VAL792 
 PHE793  MET794  SER795  GLU796  ALA797  LYS798  CYS799  TRP800  GLU811  SER814 

> <Gold.Protein.RotatedAtoms>
  152.3388  134.7162  160.0269 H   0  0  0  0  0  0  0  0  0  0  0  0  # atno 6907 bound_to 6896
  151.7554  133.3324  159.3411 H   0  0  0  0  0  0  0  0  0  0  0  0  # atno 6908 bound_to 6896
  150.7467  134.6086  159.6119 H   0  0  0  0  0  0  0  0  0  0  0  0  # atno 6909 bound_to 6896
  145.8618  140.8280  142.9933 H   0  0  0  0  0  0  0  0  0  0  0  0  # atno 7974 bound_to 7965
  154.6003  140.0645  156.9360 H   0  0  0  0  0  0  0  0  0  0  0  0  # atno 8008 bound_to 7997
  155.2143  140.3325  155.4306 H   0  0  0  0  0  0  0  0  0  0  0  0  # atno 8009 bound_to 7997
  156.2314  140.1842  156.7216 H   0  0  0  0  0  0  0  0  0  0  0  0  # atno 8010 bound_to 7997
  139.5151  144.6421  151.5541 H   0  0  0  0  0  0  0  0  0  0  0  0  # atno 10167 bound_to 10162
  156.5134  130.8445  151.2655 H   0  0  0  0  0  0  0  0  0  0  0  0  # atno 10718 bound_to 10713
  154.8197  135.4598  154.0743 H   0  0  0  0  0  0  0  0  0  0  0  0  # atno 10763 bound_to 10752
  153.2107  135.6881  153.8124 H   0  0  0  0  0  0  0  0  0  0  0  0  # atno 10764 bound_to 10752
  153.7577  135.3289  155.3308 H   0  0  0  0  0  0  0  0  0  0  0  0  # atno 10765 bound_to 10752
  140.0070  134.9455  157.0197 H   0  0  0  0  0  0  0  0  0  0  0  0  # atno 11005 bound_to 11000
  144.6726  140.1107  143.7455 LP  0  0  0  0  0  0  0  0  0  0  0  0  # atno 17320 bound_to 7965
  145.9239  139.2563  143.1365 LP  0  0  0  0  0  0  0  0  0  0  0  0  # atno 17321 bound_to 7965
  140.6191  143.9291  150.6512 LP  0  0  0  0  0  0  0  0  0  0  0  0  # atno 17342 bound_to 10162
  140.2559  143.3559  152.1365 LP  0  0  0  0  0  0  0  0  0  0  0  0  # atno 17343 bound_to 10162
  157.7447  130.9942  150.2699 LP  0  0  0  0  0  0  0  0  0  0  0  0  # atno 17370 bound_to 10713
  156.3219  130.3787  149.7568 LP  0  0  0  0  0  0  0  0  0  0  0  0  # atno 17371 bound_to 10713
  140.4623  134.1472  155.7193 LP  0  0  0  0  0  0  0  0  0  0  0  0  # atno 17394 bound_to 11000
  141.1684  133.8657  157.1645 LP  0  0  0  0  0  0  0  0  0  0  0  0  # atno 17395 bound_to 11000

$$$$
