AV-unprocessed.smi:1205|AV-procd|sdf|5044|dock4
  -GOLD-   22720 4 73D 1   1.00000     0.00000
 Structure written by MMmdl.
 49 50  0  0  0  0  0  0  0  0  2 V2000
  143.7840  132.7751  149.0955 C   0  0  0  0  0  0  0  0  0  0  0  0
  144.7290  133.3684  150.0985 C   0  0  0  0  0  0  0  0  0  0  0  0
  144.9186  134.7440  150.4184 C   0  0  0  0  0  0  0  0  0  0  0  0
  145.8882  134.6988  151.3827 C   0  0  0  0  0  0  0  0  0  0  0  0
  146.4726  135.7282  152.0520 N   0  0  0  0  0  0  0  0  0  0  0  0
  145.8874  136.7464  152.7065 C   0  0  0  0  0  0  0  0  0  0  0  0
  144.6746  136.9038  152.8463 O   0  0  0  0  0  0  0  0  0  0  0  0
  146.8028  137.5931  153.2009 N   0  0  0  0  0  0  0  0  0  0  0  0
  146.5156  138.7917  153.9851 C   0  0  0  0  0  0  0  0  0  0  0  0
  147.5333  139.9324  153.7238 C   0  0  1  0  0  0  0  0  0  0  0  0
  146.9008  141.3374  153.7488 C   0  0  0  0  0  0  0  0  0  0  0  0
  148.7135  139.8837  154.6361 N   0  3  1  0  0  0  0  0  0  0  0  0
  149.6078  138.7066  154.4640 C   0  0  0  0  0  0  0  0  0  0  0  0
  150.6209  138.6213  155.6162 C   0  0  0  0  0  0  0  0  0  0  0  0
  151.4299  139.9219  155.7350 C   0  0  0  0  0  0  0  0  0  0  0  0
  150.5070  141.1513  155.8395 C   0  0  2  0  0  0  0  0  0  0  0  0
  149.8331  141.2755  157.2175 C   0  0  0  0  0  0  0  0  0  0  0  0
  149.4806  141.1574  154.6874 C   0  0  0  0  0  0  0  0  0  0  0  0
  146.2371  133.3831  151.6011 N   0  0  0  0  0  0  0  0  0  0  0  0
  147.2077  132.8128  152.5157 C   0  0  0  0  0  0  0  0  0  0  0  0
  145.5136  132.5647  150.8075 N   0  0  0  0  0  0  0  0  0  0  0  0
  143.3111  133.5511  148.4932 H   0  0  0  0  0  0  0  0  0  0  0  0
  142.9930  132.2096  149.5888 H   0  0  0  0  0  0  0  0  0  0  0  0
  144.3041  132.1000  148.4155 H   0  0  0  0  0  0  0  0  0  0  0  0
  144.4179  135.6024  149.9967 H   0  0  0  0  0  0  0  0  0  0  0  0
  147.4818  135.7227  152.0481 H   0  0  0  0  0  0  0  0  0  0  0  0
  147.7765  137.3836  153.0353 H   0  0  0  0  0  0  0  0  0  0  0  0
  145.4952  139.1245  153.7898 H   0  0  0  0  0  0  0  0  0  0  0  0
  146.5417  138.4980  155.0341 H   0  0  0  0  0  0  0  0  0  0  0  0
  147.9154  139.8034  152.7099 H   0  0  0  0  0  0  0  0  0  0  0  0
  146.1879  141.4665  152.9344 H   0  0  0  0  0  0  0  0  0  0  0  0
  147.6592  142.1122  153.6321 H   0  0  0  0  0  0  0  0  0  0  0  0
  146.3686  141.5284  154.6806 H   0  0  0  0  0  0  0  0  0  0  0  0
  149.0256  137.7863  154.4329 H   0  0  0  0  0  0  0  0  0  0  0  0
  150.1430  138.7779  153.5163 H   0  0  0  0  0  0  0  0  0  0  0  0
  150.0997  138.4177  156.5523 H   0  0  0  0  0  0  0  0  0  0  0  0
  151.2960  137.7805  155.4543 H   0  0  0  0  0  0  0  0  0  0  0  0
  152.1030  139.8729  156.5916 H   0  0  0  0  0  0  0  0  0  0  0  0
  152.0652  140.0261  154.8543 H   0  0  0  0  0  0  0  0  0  0  0  0
  151.1330  142.0373  155.7241 H   0  0  0  0  0  0  0  0  0  0  0  0
  149.1603  140.4421  157.4200 H   0  0  0  0  0  0  0  0  0  0  0  0
  149.2482  142.1932  157.2839 H   0  0  0  0  0  0  0  0  0  0  0  0
  150.5754  141.3038  158.0156 H   0  0  0  0  0  0  0  0  0  0  0  0
  149.9960  141.3092  153.7382 H   0  0  0  0  0  0  0  0  0  0  0  0
  148.8027  142.0029  154.8118 H   0  0  0  0  0  0  0  0  0  0  0  0
  147.8743  133.5853  152.8986 H   0  0  0  0  0  0  0  0  0  0  0  0
  147.8061  132.0609  152.0003 H   0  0  0  0  0  0  0  0  0  0  0  0
  146.6898  132.3442  153.3528 H   0  0  0  0  0  0  0  0  0  0  0  0
  148.3163  139.7874  155.5598 H   0  0  0  0  0  0  0  0  0  0  0  0
  1  2  1  0  0  0  0
  1 22  1  0  0  0  0
  1 23  1  0  0  0  0
  1 24  1  0  0  0  0
  2 21  2  0  0  0  0
  2  3  1  0  0  0  0
  3  4  2  0  0  0  0
  3 25  1  0  0  0  0
  4  5  1  0  0  0  0
  4 19  1  0  0  0  0
  5  6  1  0  0  0  0
  5 26  1  0  0  0  0
  6  7  2  0  0  0  0
  6  8  1  0  0  0  0
  8  9  1  0  0  0  0
  8 27  1  0  0  0  0
  9 10  1  0  0  0  0
  9 28  1  0  0  0  0
  9 29  1  0  0  0  0
 10 11  1  0  0  0  0
 10 12  1  0  0  0  0
 10 30  1  0  0  0  0
 11 31  1  0  0  0  0
 11 32  1  0  0  0  0
 11 33  1  0  0  0  0
 12 18  1  0  0  0  0
 12 13  1  0  0  0  0
 12 49  1  0  0  0  0
 13 14  1  0  0  0  0
 13 34  1  0  0  0  0
 13 35  1  0  0  0  0
 14 15  1  0  0  0  0
 14 36  1  0  0  0  0
 14 37  1  0  0  0  0
 15 16  1  0  0  0  0
 15 38  1  0  0  0  0
 15 39  1  0  0  0  0
 16 17  1  0  0  0  0
 16 18  1  0  0  0  0
 16 40  1  0  0  0  0
 17 41  1  0  0  0  0
 17 42  1  0  0  0  0
 17 43  1  0  0  0  0
 18 44  1  0  0  0  0
 18 45  1  0  0  0  0
 19 20  1  0  0  0  0
 19 21  1  0  0  0  0
 20 46  1  0  0  0  0
 20 47  1  0  0  0  0
 20 48  1  0  0  0  0
M  CHG  1  12   1
M  END
> <s_m_source_file>
AV-unprocessed.smi

> <i_m_source_file_index>
1205

> <i_lp_mmshare_version>
43012

> <i_f3d_flags>
0

> <s_epik_input>
W0NIM11jMVtjSF1jKG4objEpW0NIM10pW05IXUMoPU8pW05IXVtDSDJdW0NASF0oW0NIM10pTjJbQ0gyXVtDSDJdW0NIMl1bQ0BASF0oW0NIM10pW0NIMl0y

> <s_epik_cmdline>
J2VwaWtfcHl0aG9uJywgJy1waCcsICc3LjAnLCAnLXRuJywgJzgnLCAnLW1hJywgJzIwMCcsICctbWV0YWxfYmluZGluZycsICctaW1hZScsICc8aW5maWxlLm1hZT4nLCAnLW9tYWUnLCAnPG91dGZpbGUubWFlPic=

> <r_lp_tautomer_probability>
1

> <r_epik_Ionization_Penalty>
0.0020309

> <r_epik_Ionization_Penalty_Charging>
0.00195276

> <r_epik_Ionization_Penalty_Neutral>
7.81448e-05

> <r_epik_State_Penalty>
0.00133177

> <r_epik_Charging_Adjusted_Penalty>
0.00328452

> <i_epik_Tot_Q>
1

> <i_epik_Tot_abs_Q>
1

> <r_epik_Metal_State_Penalty>
-0

> <b_epik_Metal_Only>
0

> <s_lp_Force_Field>
OPLS_2005

> <r_lp_Energy>
25.114

> <b_lp_Chiralities_Consistent>
1

> <s_lp_Variant>
AV-unprocessed.smi:1205-6

> <Gold.Version>
5.8.1

> <Gold.Id.Protein>
6NUR|6NUR_protein|mol2

> <Gold.PLP.Fitness>
40.9819

> <Gold.PLP.PLP>
-38.0053

> <Gold.PLP.part.hbond>
-1.9381

> <Gold.PLP.part.metal>
0.0000

> <Gold.PLP.part.buried>
-3.4417

> <Gold.PLP.part.nonpolar>
-33.1357

> <Gold.PLP.part.repulsive>
0.4057

> <Gold.PLP.ligand.clash>
0.0000

> <Gold.PLP.ligand.torsion>
1.3316

> <Gold.PLP.Chemscore.Hbond>
1.8320

> <Gold.PLP.Chemscore.CHOScore>
0.0000

> <Gold.PLP.Chemscore.Metal>
0.0000

> <Gold.Chemscore.Hbonds>
donor molecule, donor type, donor heavy atom, donor atom, acceptor molecule, acceptor atom, score
      L1  H     5    26       P1  7948  1.00
      L1  H     8    27       P1  7948  0.82

> <Gold.PLP.Chemscore.Internal.Correction>
0.1438

> <Gold.Rescore>
     Score         DG    S(hbond)    S(metal)    S(lipo)     H(rot)  DE(clash)    DE(int)     intcor
     16.71     -18.15       1.88        0.00      86.72       1.47       0.06       1.39       ----

> <Gold.Chemscore.Fitness>
16.7073

> <Gold.Chemscore.DG>
-18.1532

> <Gold.Chemscore.ZeroCoef>
-5.4800

> <Gold.Chemscore.Hbond>
1.8802

> <Gold.Chemscore.Metal>
0.0000

> <Gold.Chemscore.Lipo>
86.7173

> <Gold.Chemscore.Internal_Hbond>
0.0000

> <Gold.Chemscore.DEClash>
0.0572

> <Gold.Chemscore.DEInternal>
1.3887

> <Gold.Chemscore.Rot>
1.4658

> <Gold.Chemscore.Internal.Correction>
   9.000000E+99

> <Gold.Chemscore.Hbonds>
donor molecule, donor type, donor heavy atom, donor atom, acceptor molecule, acceptor atom, score
      L1  H     5    26       P1  7948  0.94
      L1  H     8    27       P1  7948  0.77

> <Gold.Chemscore.Hbond.Weighted>
-6.2798

> <Gold.Chemscore.Metal.Weighted>
-0.0000

> <Gold.Chemscore.Lipo.Weighted>
-10.1459

> <Gold.Chemscore.Internal_Hbond.Weighted>
0.0000

> <Gold.Chemscore.DEClash.Weighted>
0.0572

> <Gold.Chemscore.DEInternal.Weighted>
1.3887

> <Gold.Chemscore.Rot.Weighted>
3.7526

> <Gold.Chemscore.Internal.Correction.Weighted>
   9.000000E+99

> <Gold.Protein.RotatedTorsions>
[ 6907 6896 6895 6894 ] final  155.77 input  -60.11 | X-H torsion
[ 7974 7965 7964 7962 ] final  116.32 input  175.53 | X-H torsion
[ 8008 7997 7996 7995 ] final   22.02 input   59.86 | X-H torsion
[ 10167 10162 10161 10158 ] final   92.81 input  -65.29 | X-H torsion
[ 10718 10713 10712 10709 ] final -134.00 input   66.30 | X-H torsion
[ 10763 10752 10751 10750 ] final    7.34 input  -60.55 | X-H torsion
[ 11005 11000 10999 10996 ] final  -22.39 input  -57.11 | X-H torsion

> <Gold.Protein.ActiveResidues>
 VAL166  LYS551  ARG553  GLY616  TRP617  ASP618  TYR619  PRO620  LYS621  CYS622 
 ASP623  PHE694  ASN695  SER759  ASP760  ASP761  ALA762  ILE779  LEU786  VAL792 
 PHE793  MET794  SER795  GLU796  ALA797  LYS798  CYS799  TRP800  GLU811  SER814 

> <Gold.Protein.RotatedAtoms>
  152.0393  133.3970  159.4329 H   0  0  0  0  0  0  0  0  0  0  0  0  # atno 6907 bound_to 6896
  150.6876  134.3432  159.4886 H   0  0  0  0  0  0  0  0  0  0  0  0  # atno 6908 bound_to 6896
  152.1229  134.9192  160.0613 H   0  0  0  0  0  0  0  0  0  0  0  0  # atno 6909 bound_to 6896
  145.1811  139.3049  143.4417 H   0  0  0  0  0  0  0  0  0  0  0  0  # atno 7974 bound_to 7965
  154.9594  140.3076  155.5038 H   0  0  0  0  0  0  0  0  0  0  0  0  # atno 8008 bound_to 7997
  156.2979  140.2304  156.4616 H   0  0  0  0  0  0  0  0  0  0  0  0  # atno 8009 bound_to 7997
  154.7979  140.0436  157.1239 H   0  0  0  0  0  0  0  0  0  0  0  0  # atno 8010 bound_to 7997
  139.8240  144.6718  150.9483 H   0  0  0  0  0  0  0  0  0  0  0  0  # atno 10167 bound_to 10162
  156.2508  130.7152  151.1050 H   0  0  0  0  0  0  0  0  0  0  0  0  # atno 10718 bound_to 10713
  153.2374  135.6899  153.7821 H   0  0  0  0  0  0  0  0  0  0  0  0  # atno 10763 bound_to 10752
  153.6963  135.3304  155.3215 H   0  0  0  0  0  0  0  0  0  0  0  0  # atno 10764 bound_to 10752
  154.8341  135.4557  154.1283 H   0  0  0  0  0  0  0  0  0  0  0  0  # atno 10765 bound_to 10752
  140.8653  133.7759  156.0122 H   0  0  0  0  0  0  0  0  0  0  0  0  # atno 11005 bound_to 11000
  146.3453  140.1991  142.8589 LP  0  0  0  0  0  0  0  0  0  0  0  0  # atno 17320 bound_to 7965
  145.0135  140.8734  143.5210 LP  0  0  0  0  0  0  0  0  0  0  0  0  # atno 17321 bound_to 7965
  140.7811  143.4064  151.1064 LP  0  0  0  0  0  0  0  0  0  0  0  0  # atno 17342 bound_to 10162
  139.7722  143.8477  152.3122 LP  0  0  0  0  0  0  0  0  0  0  0  0  # atno 17343 bound_to 10162
  157.7213  131.0679  150.6121 LP  0  0  0  0  0  0  0  0  0  0  0  0  # atno 17370 bound_to 10713
  156.6201  130.4403  149.5825 LP  0  0  0  0  0  0  0  0  0  0  0  0  # atno 17371 bound_to 10713
  140.8636  134.2811  157.5223 LP  0  0  0  0  0  0  0  0  0  0  0  0  # atno 17394 bound_to 11000
  139.8709  134.9531  156.4135 LP  0  0  0  0  0  0  0  0  0  0  0  0  # atno 17395 bound_to 11000

$$$$
