AV-unprocessed.smi:1987|AV-procd|sdf|8057|dock10
  -GOLD-   2272010263D 1   1.00000     0.00000
 Structure written by MMmdl.
 37 39  0  0  0  0  0  0  0  0  2 V2000
  149.8252  136.4757  156.6378 O   0  0  0  0  0  0  0  0  0  0  0  0
  149.7196  136.4396  155.4124 C   0  0  0  0  0  0  0  0  0  0  0  0
  150.0255  137.6823  154.5778 C   0  0  0  0  0  0  0  0  0  0  0  0
  151.4039  138.0887  154.7815 N   0  0  0  0  0  0  0  0  0  0  0  0
  151.9226  139.1412  155.4175 C   0  0  0  0  0  0  0  0  0  0  0  0
  153.2465  139.1078  155.4178 N   0  0  0  0  0  0  0  0  0  0  0  0
  153.5331  137.9461  154.7210 N   0  0  0  0  0  0  0  0  0  0  0  0
  152.4440  137.3364  154.3417 N   0  0  0  0  0  0  0  0  0  0  0  0
  149.3925  135.3329  154.7280 N   0  0  0  0  0  0  0  0  0  0  0  0
  149.2758  133.9960  155.2970 C   0  0  0  0  0  0  0  0  0  0  0  0
  149.1143  132.9269  154.1970 C   0  0  1  0  0  0  0  0  0  0  0  0
  149.2891  131.4894  154.6818 C   0  0  0  0  0  0  0  0  0  0  0  0
  148.5564  130.6435  153.6309 C   0  0  0  0  0  0  0  0  0  0  0  0
  147.6658  131.5628  152.8840 N   0  3  1  0  0  0  0  0  0  0  0  0
  146.2905  131.0580  152.6881 C   0  0  0  0  0  0  0  0  0  0  0  0
  146.2171  129.8302  151.8127 C   0  0  0  0  0  0  0  0  0  0  0  0
  145.8024  131.1787  151.2641 C   0  0  0  0  0  0  0  0  0  0  0  0
  147.7317  132.8806  153.5444 C   0  0  0  0  0  0  0  0  0  0  0  0
  149.8552  137.4821  153.5186 H   0  0  0  0  0  0  0  0  0  0  0  0
  149.3677  138.5033  154.8659 H   0  0  0  0  0  0  0  0  0  0  0  0
  151.3360  139.9151  155.8907 H   0  0  0  0  0  0  0  0  0  0  0  0
  149.3099  135.4077  153.7240 H   0  0  0  0  0  0  0  0  0  0  0  0
  150.1437  133.7761  155.9205 H   0  0  0  0  0  0  0  0  0  0  0  0
  148.4084  133.9904  155.9577 H   0  0  0  0  0  0  0  0  0  0  0  0
  149.8516  133.1076  153.4129 H   0  0  0  0  0  0  0  0  0  0  0  0
  150.3364  131.2074  154.7927 H   0  0  0  0  0  0  0  0  0  0  0  0
  148.8065  131.3607  155.6516 H   0  0  0  0  0  0  0  0  0  0  0  0
  149.2610  130.1992  152.9273 H   0  0  0  0  0  0  0  0  0  0  0  0
  148.0054  129.8291  154.1041 H   0  0  0  0  0  0  0  0  0  0  0  0
  145.6010  131.1887  153.5204 H   0  0  0  0  0  0  0  0  0  0  0  0
  147.1483  129.4026  151.4452 H   0  0  0  0  0  0  0  0  0  0  0  0
  145.4260  129.1124  152.0198 H   0  0  0  0  0  0  0  0  0  0  0  0
  144.7388  131.3490  151.1109 H   0  0  0  0  0  0  0  0  0  0  0  0
  146.4580  131.6474  150.5321 H   0  0  0  0  0  0  0  0  0  0  0  0
  146.9555  132.9506  154.3088 H   0  0  0  0  0  0  0  0  0  0  0  0
  147.5754  133.6892  152.8291 H   0  0  0  0  0  0  0  0  0  0  0  0
  148.0806  131.6787  151.9704 H   0  0  0  0  0  0  0  0  0  0  0  0
  1  2  2  0  0  0  0
  2  3  1  0  0  0  0
  2  9  1  0  0  0  0
  3  4  1  0  0  0  0
  3 19  1  0  0  0  0
  3 20  1  0  0  0  0
  4  8  1  0  0  0  0
  4  5  1  0  0  0  0
  5  6  2  0  0  0  0
  5 21  1  0  0  0  0
  6  7  1  0  0  0  0
  7  8  2  0  0  0  0
  9 10  1  0  0  0  0
  9 22  1  0  0  0  0
 10 11  1  0  0  0  0
 10 23  1  0  0  0  0
 10 24  1  0  0  0  0
 11 18  1  0  0  0  0
 11 12  1  0  0  0  0
 11 25  1  0  0  0  0
 12 13  1  0  0  0  0
 12 26  1  0  0  0  0
 12 27  1  0  0  0  0
 13 14  1  0  0  0  0
 13 28  1  0  0  0  0
 13 29  1  0  0  0  0
 14 15  1  0  0  0  0
 14 18  1  0  0  0  0
 14 37  1  0  0  0  0
 15 17  1  0  0  0  0
 15 16  1  0  0  0  0
 15 30  1  0  0  0  0
 16 17  1  0  0  0  0
 16 31  1  0  0  0  0
 16 32  1  0  0  0  0
 17 33  1  0  0  0  0
 17 34  1  0  0  0  0
 18 35  1  0  0  0  0
 18 36  1  0  0  0  0
M  CHG  1  14   1
M  END
> <s_m_source_file>
AV-unprocessed.smi

> <i_m_source_file_index>
1987

> <i_lp_mmshare_version>
43012

> <i_f3d_flags>
0

> <s_epik_input>
bjFubltjSF1uMVtDSDJdQyg9TylbTkhdW0NIMl1bQ0BASF0yW0NIMl1bQ0gyXU4oW0NIMl0yKVtDSF0zW0NIMl1bQ0gyXTM=

> <s_epik_cmdline>
J2VwaWtfcHl0aG9uJywgJy1waCcsICc3LjAnLCAnLXRuJywgJzgnLCAnLW1hJywgJzIwMCcsICctbWV0YWxfYmluZGluZycsICctaW1hZScsICc8aW5maWxlLm1hZT4nLCAnLW9tYWUnLCAnPG91dGZpbGUubWFlPic=

> <r_lp_tautomer_probability>
1

> <r_epik_Ionization_Penalty>
0.000242849

> <r_epik_Ionization_Penalty_Charging>
0.000241326

> <r_epik_Ionization_Penalty_Neutral>
1.52322e-06

> <r_epik_State_Penalty>
-0

> <r_epik_Charging_Adjusted_Penalty>
0.000241326

> <i_epik_Tot_Q>
1

> <i_epik_Tot_abs_Q>
1

> <r_epik_Metal_State_Penalty>
-0

> <b_epik_Metal_Only>
0

> <s_lp_Force_Field>
OPLS_2005

> <r_lp_Energy>
37.5901

> <b_lp_Chiralities_Consistent>
1

> <s_lp_Variant>
AV-unprocessed.smi:1987-4

> <Gold.Version>
5.8.1

> <Gold.Id.Protein>
6NUR|6NUR_protein|mol2

> <Gold.PLP.Fitness>
44.7242

> <Gold.PLP.PLP>
-34.2165

> <Gold.PLP.part.hbond>
-5.0000

> <Gold.PLP.part.metal>
0.0000

> <Gold.PLP.part.buried>
-3.3415

> <Gold.PLP.part.nonpolar>
-26.7321

> <Gold.PLP.part.repulsive>
0.2009

> <Gold.PLP.ligand.clash>
0.0000

> <Gold.PLP.ligand.torsion>
0.9083

> <Gold.PLP.Chemscore.Hbond>
3.6800

> <Gold.PLP.Chemscore.CHOScore>
0.0000

> <Gold.PLP.Chemscore.Metal>
0.0000

> <Gold.Chemscore.Hbonds>
donor molecule, donor type, donor heavy atom, donor atom, acceptor molecule, acceptor atom, score
      L1  H     9    22       P1  7948  0.99
      L1  H    14    37       P1 10747  0.87
      P1  H  7997  8010       L1     6  1.00
      P1  H 10752 10765       L1     8  0.69

> <Gold.PLP.Chemscore.Internal.Correction>
1.2843

> <Gold.Rescore>
     Score         DG    S(hbond)    S(metal)    S(lipo)     H(rot)  DE(clash)    DE(int)     intcor
     12.22     -13.51       2.36        0.00      58.66       2.62       0.15       1.14       ----

> <Gold.Chemscore.Fitness>
12.2223

> <Gold.Chemscore.DG>
-13.5123

> <Gold.Chemscore.ZeroCoef>
-5.4800

> <Gold.Chemscore.Hbond>
2.3614

> <Gold.Chemscore.Metal>
0.0000

> <Gold.Chemscore.Lipo>
58.6648

> <Gold.Chemscore.Internal_Hbond>
0.0000

> <Gold.Chemscore.DEClash>
0.1509

> <Gold.Chemscore.DEInternal>
1.1391

> <Gold.Chemscore.Rot>
2.6244

> <Gold.Chemscore.Internal.Correction>
   9.000000E+99

> <Gold.Chemscore.Hbonds>
donor molecule, donor type, donor heavy atom, donor atom, acceptor molecule, acceptor atom, score
      L1  H     9    22       P1  7948  0.37
      L1  H    14    37       P1 10747  0.81
      P1  H  7997  8010       L1     6  0.98
      P1  H 10752 10765       L1     8  0.20

> <Gold.Chemscore.Hbond.Weighted>
-7.8870

> <Gold.Chemscore.Metal.Weighted>
-0.0000

> <Gold.Chemscore.Lipo.Weighted>
-6.8638

> <Gold.Chemscore.Internal_Hbond.Weighted>
0.0000

> <Gold.Chemscore.DEClash.Weighted>
0.1509

> <Gold.Chemscore.DEInternal.Weighted>
1.1391

> <Gold.Chemscore.Rot.Weighted>
6.7186

> <Gold.Chemscore.Internal.Correction.Weighted>
   9.000000E+99

> <Gold.Protein.RotatedTorsions>
[ 6907 6896 6895 6894 ] final  -81.12 input  -60.11 | X-H torsion
[ 7974 7965 7964 7962 ] final -142.93 input  175.53 | X-H torsion
[ 8008 7997 7996 7995 ] final   86.11 input   59.86 | X-H torsion
[ 10167 10162 10161 10158 ] final  167.15 input  -65.29 | X-H torsion
[ 10718 10713 10712 10709 ] final   99.72 input   66.30 | X-H torsion
[ 10763 10752 10751 10750 ] final  148.94 input  -60.55 | X-H torsion
[ 11005 11000 10999 10996 ] final  165.02 input  -57.11 | X-H torsion

> <Gold.Protein.ActiveResidues>
 VAL166  LYS551  ARG553  GLY616  TRP617  ASP618  TYR619  PRO620  LYS621  CYS622 
 ASP623  PHE694  ASN695  SER759  ASP760  ASP761  ALA762  ILE779  LEU786  VAL792 
 PHE793  MET794  SER795  GLU796  ALA797  LYS798  CYS799  TRP800  GLU811  SER814 

> <Gold.Protein.RotatedAtoms>
  150.6917  134.3866  159.5057 H   0  0  0  0  0  0  0  0  0  0  0  0  # atno 6907 bound_to 6896
  152.1660  134.8870  160.0547 H   0  0  0  0  0  0  0  0  0  0  0  0  # atno 6908 bound_to 6896
  151.9914  133.3757  159.4183 H   0  0  0  0  0  0  0  0  0  0  0  0  # atno 6909 bound_to 6896
  144.8406  140.5897  143.5454 H   0  0  0  0  0  0  0  0  0  0  0  0  # atno 7974 bound_to 7965
  155.9587  140.3395  155.6471 H   0  0  0  0  0  0  0  0  0  0  0  0  # atno 8008 bound_to 7997
  155.6827  140.0739  157.2497 H   0  0  0  0  0  0  0  0  0  0  0  0  # atno 8009 bound_to 7997
  154.4138  140.1671  156.1987 H   0  0  0  0  0  0  0  0  0  0  0  0  # atno 8010 bound_to 7997
  139.4939  144.3952  151.9472 H   0  0  0  0  0  0  0  0  0  0  0  0  # atno 10167 bound_to 10162
  157.6870  131.0678  150.4992 H   0  0  0  0  0  0  0  0  0  0  0  0  # atno 10718 bound_to 10713
  154.0629  135.2872  155.3321 H   0  0  0  0  0  0  0  0  0  0  0  0  # atno 10763 bound_to 10752
  154.6796  135.5268  153.8249 H   0  0  0  0  0  0  0  0  0  0  0  0  # atno 10764 bound_to 10752
  153.0515  135.6578  154.0817 H   0  0  0  0  0  0  0  0  0  0  0  0  # atno 10765 bound_to 10752
  140.2519  134.7970  157.3509 H   0  0  0  0  0  0  0  0  0  0  0  0  # atno 11005 bound_to 11000
  145.4701  139.1504  143.3819 LP  0  0  0  0  0  0  0  0  0  0  0  0  # atno 17320 bound_to 7965
  146.2699  140.4834  142.8818 LP  0  0  0  0  0  0  0  0  0  0  0  0  # atno 17321 bound_to 7965
  140.3390  144.3225  150.5971 LP  0  0  0  0  0  0  0  0  0  0  0  0  # atno 17342 bound_to 10162
  140.5581  143.2196  151.7812 LP  0  0  0  0  0  0  0  0  0  0  0  0  # atno 17343 bound_to 10162
  156.5314  130.4186  149.6199 LP  0  0  0  0  0  0  0  0  0  0  0  0  # atno 17370 bound_to 10713
  156.3066  130.7206  151.2089 LP  0  0  0  0  0  0  0  0  0  0  0  0  # atno 17371 bound_to 10713
  140.1550  134.4801  155.7934 LP  0  0  0  0  0  0  0  0  0  0  0  0  # atno 17394 bound_to 11000
  141.2200  133.6878  156.7444 LP  0  0  0  0  0  0  0  0  0  0  0  0  # atno 17395 bound_to 11000

$$$$
