AV-unprocessed.smi:139|AV-procd|sdf|1184|dock8
  -GOLD-   2262018333D 1   1.00000     0.00000
 Structure written by MMmdl.
 50 53  0  0  0  0  0  0  0  0  1 V2000
  152.0166  137.1135  154.2276 O   0  0  0  0  0  0  0  0  0  0  0  0
  151.8526  137.5860  155.3533 C   0  0  0  0  0  0  0  0  0  0  0  0
  152.6430  138.8183  155.8173 C   0  0  0  0  0  0  0  0  0  0  0  0
  151.7859  139.9348  156.2723 N   0  0  0  0  0  0  0  0  0  0  0  0
  150.7581  140.3986  155.4142 C   0  0  0  0  0  0  0  0  0  0  0  0
  150.5701  139.8888  154.3086 O   0  0  0  0  0  0  0  0  0  0  0  0
  149.9546  141.5001  155.9322 C   0  0  0  0  0  0  0  0  0  0  0  0
  148.9665  142.0144  155.1804 F   0  0  0  0  0  0  0  0  0  0  0  0
  150.1911  142.0177  157.1551 C   0  0  0  0  0  0  0  0  0  0  0  0
  151.1893  141.5457  157.9886 N   0  0  0  0  0  0  0  0  0  0  0  0
  151.4329  142.1446  159.3587 C   0  0  1  0  0  0  0  0  0  0  0  0
  152.7447  142.9364  159.3672 C   0  0  0  0  0  0  0  0  0  0  0  0
  152.2722  144.3114  158.9499 C   0  0  0  0  0  0  0  0  0  0  0  0
  150.9058  144.3881  159.6241 C   0  0  0  0  0  0  0  0  0  0  0  0
  150.4098  143.0500  159.6588 O   0  0  0  0  0  0  0  0  0  0  0  0
  152.0121  140.4823  157.5575 C   0  0  0  0  0  0  0  0  0  0  0  0
  152.9063  140.0448  158.2852 O   0  0  0  0  0  0  0  0  0  0  0  0
  151.0012  137.0699  156.2556 N   0  0  0  0  0  0  0  0  0  0  0  0
  150.1417  135.8960  156.0811 C   0  0  1  0  0  0  0  0  0  0  0  0
  150.8683  134.7757  155.3075 C   0  0  0  0  0  0  0  0  0  0  0  0
  150.0381  133.4916  155.2684 C   0  0  0  0  0  0  0  0  0  0  0  0
  149.7710  132.9698  156.6843 C   0  0  0  0  0  0  0  0  0  0  0  0
  149.2657  134.0426  157.6370 C   0  0  0  0  0  0  0  0  0  0  0  0
  148.6120  133.6405  158.8208 C   0  0  0  0  0  0  0  0  0  0  0  0
  148.1338  134.5987  159.7331 C   0  0  0  0  0  0  0  0  0  0  0  0
  148.3050  135.9681  159.4646 C   0  0  0  0  0  0  0  0  0  0  0  0
  148.9576  136.3771  158.2870 C   0  0  0  0  0  0  0  0  0  0  0  0
  149.4536  135.4238  157.3676 C   0  0  0  0  0  0  0  0  0  0  0  0
  153.3341  138.5157  156.6058 H   0  0  0  0  0  0  0  0  0  0  0  0
  153.2963  139.1308  155.0011 H   0  0  0  0  0  0  0  0  0  0  0  0
  149.5663  142.8362  157.4789 H   0  0  0  0  0  0  0  0  0  0  0  0
  151.4096  141.3070  160.0578 H   0  0  0  0  0  0  0  0  0  0  0  0
  153.1327  142.9576  160.3863 H   0  0  0  0  0  0  0  0  0  0  0  0
  153.5004  142.5058  158.7094 H   0  0  0  0  0  0  0  0  0  0  0  0
  152.9467  145.1098  159.2595 H   0  0  0  0  0  0  0  0  0  0  0  0
  152.1629  144.3581  157.8657 H   0  0  0  0  0  0  0  0  0  0  0  0
  151.0088  144.7460  160.6491 H   0  0  0  0  0  0  0  0  0  0  0  0
  150.2201  145.0539  159.1001 H   0  0  0  0  0  0  0  0  0  0  0  0
  150.9456  137.5302  157.1523 H   0  0  0  0  0  0  0  0  0  0  0  0
  149.3239  136.2352  155.4442 H   0  0  0  0  0  0  0  0  0  0  0  0
  151.1030  135.1097  154.2964 H   0  0  0  0  0  0  0  0  0  0  0  0
  151.8224  134.5418  155.7806 H   0  0  0  0  0  0  0  0  0  0  0  0
  149.0901  133.6947  154.7690 H   0  0  0  0  0  0  0  0  0  0  0  0
  150.5433  132.7271  154.6777 H   0  0  0  0  0  0  0  0  0  0  0  0
  149.0541  132.1488  156.6440 H   0  0  0  0  0  0  0  0  0  0  0  0
  150.6915  132.5606  157.1021 H   0  0  0  0  0  0  0  0  0  0  0  0
  148.4753  132.5903  159.0332 H   0  0  0  0  0  0  0  0  0  0  0  0
  147.6343  134.2829  160.6370 H   0  0  0  0  0  0  0  0  0  0  0  0
  147.9343  136.7059  160.1607 H   0  0  0  0  0  0  0  0  0  0  0  0
  149.0733  137.4332  158.0930 H   0  0  0  0  0  0  0  0  0  0  0  0
  1  2  2  0  0  0  0
  2  3  1  0  0  0  0
  2 18  1  0  0  0  0
  3  4  1  0  0  0  0
  3 29  1  0  0  0  0
  3 30  1  0  0  0  0
  4 16  1  0  0  0  0
  4  5  1  0  0  0  0
  5  6  2  0  0  0  0
  5  7  1  0  0  0  0
  7  8  1  0  0  0  0
  7  9  2  0  0  0  0
  9 10  1  0  0  0  0
  9 31  1  0  0  0  0
 10 11  1  0  0  0  0
 10 16  1  0  0  0  0
 11 15  1  0  0  0  0
 11 12  1  0  0  0  0
 11 32  1  0  0  0  0
 12 13  1  0  0  0  0
 12 33  1  0  0  0  0
 12 34  1  0  0  0  0
 13 14  1  0  0  0  0
 13 35  1  0  0  0  0
 13 36  1  0  0  0  0
 14 15  1  0  0  0  0
 14 37  1  0  0  0  0
 14 38  1  0  0  0  0
 16 17  2  0  0  0  0
 18 19  1  0  0  0  0
 18 39  1  0  0  0  0
 19 28  1  0  0  0  0
 19 20  1  0  0  0  0
 19 40  1  0  0  0  0
 20 21  1  0  0  0  0
 20 41  1  0  0  0  0
 20 42  1  0  0  0  0
 21 22  1  0  0  0  0
 21 43  1  0  0  0  0
 21 44  1  0  0  0  0
 22 23  1  0  0  0  0
 22 45  1  0  0  0  0
 22 46  1  0  0  0  0
 23 28  2  0  0  0  0
 23 24  1  0  0  0  0
 24 25  2  0  0  0  0
 24 47  1  0  0  0  0
 25 26  1  0  0  0  0
 25 48  1  0  0  0  0
 26 27  2  0  0  0  0
 26 49  1  0  0  0  0
 27 28  1  0  0  0  0
 27 50  1  0  0  0  0
M  END
> <s_m_source_file>
AV-unprocessed.smi

> <i_m_source_file_index>
139

> <i_lp_mmshare_version>
43012

> <i_f3d_flags>
0

> <s_epik_input>
W2NIXTFbY0hdW2NIXVtjSF1jKGMxMilbQ0BASF0oW0NIMl1bQ0gyXVtDSDJdMilbTkhdQyg9TylbQ0gyXW4zYyg9TyljKEYpW2NIXW4oYzM9TylbQ0BASF00W0NIMl1bQ0gyXVtDSDJdTzQ=

> <s_epik_cmdline>
J2VwaWtfcHl0aG9uJywgJy1waCcsICc3LjAnLCAnLXRuJywgJzgnLCAnLW1hJywgJzIwMCcsICctbWV0YWxfYmluZGluZycsICctaW1hZScsICc8aW5maWxlLm1hZT4nLCAnLW9tYWUnLCAnPG91dGZpbGUubWFlPic=

> <r_lp_tautomer_probability>
1

> <r_epik_Ionization_Penalty>
3.261e-08

> <r_epik_Ionization_Penalty_Charging>
3.6725e-09

> <r_epik_Ionization_Penalty_Neutral>
2.89375e-08

> <r_epik_State_Penalty>
-0

> <r_epik_Charging_Adjusted_Penalty>
3.6725e-09

> <i_epik_Tot_Q>
0

> <i_epik_Tot_abs_Q>
0

> <r_epik_Metal_State_Penalty>
-0

> <b_epik_Metal_Only>
0

> <s_epik_Chemistry_Notes>
This compound contains an acetal/aminal-like group ( X-CH(R)-Y where X, Y are N, S, or O) that may be acid/base labile, releasing an aldehyde.

> <s_lp_Force_Field>
OPLS_2005

> <r_lp_Energy>
31.2563

> <b_lp_Chiralities_Consistent>
1

> <s_lp_Variant>
AV-unprocessed.smi:139-4

> <Gold.Version>
5.8.1

> <Gold.Id.Protein>
6NUR|6NUR_protein|mol2

> <Gold.PLP.Fitness>
55.8337

> <Gold.PLP.PLP>
-46.1402

> <Gold.PLP.part.hbond>
-3.0347

> <Gold.PLP.part.metal>
0.0000

> <Gold.PLP.part.buried>
-1.3252

> <Gold.PLP.part.nonpolar>
-42.9544

> <Gold.PLP.part.repulsive>
0.4583

> <Gold.PLP.ligand.clash>
0.0000

> <Gold.PLP.ligand.torsion>
0.4127

> <Gold.PLP.Chemscore.Hbond>
2.6000

> <Gold.PLP.Chemscore.CHOScore>
0.8829

> <Gold.PLP.Chemscore.Metal>
0.0000

> <Gold.Chemscore.Hbonds>
donor molecule, donor type, donor heavy atom, donor atom, acceptor molecule, acceptor atom, score
      P1  H  7989  7998       L1     6  0.80
      P1  H  7997  8010       L1    17  0.83
      P1  H 10752 10763       L1     1  0.83
      L1  C     9    31       P1  8028  0.45

> <Gold.PLP.Chemscore.Internal.Correction>
0.0702

> <Gold.Rescore>
     Score         DG    S(hbond)    S(metal)    S(lipo)     H(rot)  DE(clash)    DE(int)     intcor
     13.15     -17.08       1.60        0.00      93.14       1.82       0.59       3.34       ----

> <Gold.Chemscore.Fitness>
13.1455

> <Gold.Chemscore.DG>
-17.0791

> <Gold.Chemscore.ZeroCoef>
-5.4800

> <Gold.Chemscore.Hbond>
1.6030

> <Gold.Chemscore.Metal>
0.0000

> <Gold.Chemscore.Lipo>
93.1412

> <Gold.Chemscore.Internal_Hbond>
0.0000

> <Gold.Chemscore.DEClash>
0.5922

> <Gold.Chemscore.DEInternal>
3.3413

> <Gold.Chemscore.Rot>
1.8174

> <Gold.Chemscore.Internal.Correction>
   9.000000E+99

> <Gold.Chemscore.Hbonds>
donor molecule, donor type, donor heavy atom, donor atom, acceptor molecule, acceptor atom, score
      P1  H  7989  7998       L1     6  0.12
      P1  H  7997  8010       L1    17  0.24
      P1  H 10752 10763       L1     1  0.42

> <Gold.Chemscore.Hbond.Weighted>
-5.3540

> <Gold.Chemscore.Metal.Weighted>
-0.0000

> <Gold.Chemscore.Lipo.Weighted>
-10.8975

> <Gold.Chemscore.Internal_Hbond.Weighted>
0.0000

> <Gold.Chemscore.DEClash.Weighted>
0.5922

> <Gold.Chemscore.DEInternal.Weighted>
3.3413

> <Gold.Chemscore.Rot.Weighted>
4.6524

> <Gold.Chemscore.Internal.Correction.Weighted>
   9.000000E+99

> <Gold.Protein.RotatedTorsions>
[ 6907 6896 6895 6894 ] final -169.42 input  -60.11 | X-H torsion
[ 7974 7965 7964 7962 ] final   -3.35 input  175.53 | X-H torsion
[ 8008 7997 7996 7995 ] final   40.33 input   59.86 | X-H torsion
[ 10167 10162 10161 10158 ] final  145.92 input  -65.29 | X-H torsion
[ 10718 10713 10712 10709 ] final  -98.37 input   66.30 | X-H torsion
[ 10763 10752 10751 10750 ] final   55.61 input  -60.55 | X-H torsion
[ 11005 11000 10999 10996 ] final  151.21 input  -57.11 | X-H torsion

> <Gold.Protein.ActiveResidues>
 VAL166  LYS551  ARG553  GLY616  TRP617  ASP618  TYR619  PRO620  LYS621  CYS622 
 ASP623  PHE694  ASN695  SER759  ASP760  ASP761  ALA762  ILE779  LEU786  VAL792 
 PHE793  MET794  SER795  GLU796  ALA797  LYS798  CYS799  TRP800  GLU811  SER814 

> <Gold.Protein.RotatedAtoms>
  151.4914  133.3524  159.2853 H   0  0  0  0  0  0  0  0  0  0  0  0  # atno 6907 bound_to 6896
  150.8832  134.8228  159.7251 H   0  0  0  0  0  0  0  0  0  0  0  0  # atno 6908 bound_to 6896
  152.4776  134.4814  159.9718 H   0  0  0  0  0  0  0  0  0  0  0  0  # atno 6909 bound_to 6896
  146.2391  140.1708  142.8332 H   0  0  0  0  0  0  0  0  0  0  0  0  # atno 7974 bound_to 7965
  155.2513  140.3352  155.4282 H   0  0  0  0  0  0  0  0  0  0  0  0  # atno 8008 bound_to 7997
  156.2214  140.1811  156.7510 H   0  0  0  0  0  0  0  0  0  0  0  0  # atno 8009 bound_to 7997
  154.5832  140.0650  156.9118 H   0  0  0  0  0  0  0  0  0  0  0  0  # atno 8010 bound_to 7997
  139.4917  144.5867  151.6763 H   0  0  0  0  0  0  0  0  0  0  0  0  # atno 10167 bound_to 10162
  156.0106  130.5235  150.6513 H   0  0  0  0  0  0  0  0  0  0  0  0  # atno 10718 bound_to 10713
  152.9819  135.5705  154.5094 H   0  0  0  0  0  0  0  0  0  0  0  0  # atno 10763 bound_to 10752
  154.4600  135.2781  155.1721 H   0  0  0  0  0  0  0  0  0  0  0  0  # atno 10764 bound_to 10752
  154.3313  135.6248  153.5606 H   0  0  0  0  0  0  0  0  0  0  0  0  # atno 10765 bound_to 10752
  140.1199  134.8870  157.2057 H   0  0  0  0  0  0  0  0  0  0  0  0  # atno 11005 bound_to 11000
  145.0013  140.8634  143.5280 LP  0  0  0  0  0  0  0  0  0  0  0  0  # atno 17320 bound_to 7965
  145.1728  139.2395  143.5333 LP  0  0  0  0  0  0  0  0  0  0  0  0  # atno 17321 bound_to 7965
  140.5485  144.0464  150.6117 LP  0  0  0  0  0  0  0  0  0  0  0  0  # atno 17342 bound_to 10162
  140.3510  143.2963  152.0487 LP  0  0  0  0  0  0  0  0  0  0  0  0  # atno 17343 bound_to 10162
  157.4274  131.0845  151.1072 LP  0  0  0  0  0  0  0  0  0  0  0  0  # atno 17370 bound_to 10713
  157.1655  130.6244  149.5624 LP  0  0  0  0  0  0  0  0  0  0  0  0  # atno 17371 bound_to 10713
  140.2979  134.3166  155.7297 LP  0  0  0  0  0  0  0  0  0  0  0  0  # atno 17394 bound_to 11000
  141.2149  133.7574  156.9597 LP  0  0  0  0  0  0  0  0  0  0  0  0  # atno 17395 bound_to 11000

$$$$
