AV-unprocessed.smi:1087|AV-procd|sdf|4727|dock6
  -GOLD-   22720 3253D 1   1.00000     0.00000
 Structure written by MMmdl.
 46 47  0  0  0  0  0  0  0  0  1 V2000
  146.4220  133.0379  149.8710 C   0  0  0  0  0  0  0  0  0  0  0  0
  145.0092  133.1467  149.9436 O   0  0  0  0  0  0  0  0  0  0  0  0
  144.4494  132.6828  151.1658 C   0  0  0  0  0  0  0  0  0  0  0  0
  144.6310  133.6624  152.3447 C   0  0  0  0  0  0  0  0  0  0  0  0
  146.0145  133.9483  152.7305 N   0  0  0  0  0  0  0  0  0  0  0  0
  146.8274  132.7365  152.8614 C   0  0  0  0  0  0  0  0  0  0  0  0
  148.2900  133.0406  153.2286 C   0  0  0  0  0  0  0  0  0  0  0  0
  148.3785  133.8578  154.5299 C   0  0  0  0  0  0  0  0  0  0  0  0
  149.8416  134.2133  154.8692 C   0  0  0  0  0  0  0  0  0  0  0  0
  150.2528  135.4887  154.2924 N   0  0  0  0  0  0  0  0  0  0  0  0
  151.1157  136.3478  154.8546 C   0  0  0  0  0  0  0  0  0  0  0  0
  151.6943  136.1250  155.9187 O   0  0  0  0  0  0  0  0  0  0  0  0
  151.3677  137.6502  154.0823 C   0  0  0  0  0  0  0  0  0  0  0  0
  151.2227  138.8541  154.9171 N   0  0  0  0  0  0  0  0  0  0  0  0
  150.1072  139.6766  154.6853 C   0  0  0  0  0  0  0  0  0  0  0  0
  149.9117  140.7899  155.4063 C   0  0  0  0  0  0  0  0  0  0  0  0
  150.9187  141.0882  156.4331 C   0  0  0  0  0  0  0  0  0  0  0  0
  151.9378  140.3421  156.6452 N   0  0  0  0  0  0  0  0  0  0  0  0
  152.1427  139.1751  155.8848 C   0  0  0  0  0  0  0  0  0  0  0  0
  153.1227  138.4555  156.0799 O   0  0  0  0  0  0  0  0  0  0  0  0
  147.4726  135.0995  154.4040 C   0  0  0  0  0  0  0  0  0  0  0  0
  146.0484  134.6968  153.9875 C   0  0  0  0  0  0  0  0  0  0  0  0
  146.7599  133.3709  148.8896 H   0  0  0  0  0  0  0  0  0  0  0  0
  146.7462  132.0046  150.0017 H   0  0  0  0  0  0  0  0  0  0  0  0
  146.9178  133.6584  150.6173 H   0  0  0  0  0  0  0  0  0  0  0  0
  143.3852  132.5050  151.0070 H   0  0  0  0  0  0  0  0  0  0  0  0
  144.8803  131.7122  151.4161 H   0  0  0  0  0  0  0  0  0  0  0  0
  144.1706  134.6009  152.0332 H   0  0  0  0  0  0  0  0  0  0  0  0
  144.0577  133.3376  153.2127 H   0  0  0  0  0  0  0  0  0  0  0  0
  146.3904  132.0746  153.6108 H   0  0  0  0  0  0  0  0  0  0  0  0
  146.8326  132.1845  151.9233 H   0  0  0  0  0  0  0  0  0  0  0  0
  148.8445  132.1075  153.3333 H   0  0  0  0  0  0  0  0  0  0  0  0
  148.7603  133.5906  152.4123 H   0  0  0  0  0  0  0  0  0  0  0  0
  147.9836  133.2362  155.3352 H   0  0  0  0  0  0  0  0  0  0  0  0
  149.9861  134.2363  155.9507 H   0  0  0  0  0  0  0  0  0  0  0  0
  150.5105  133.4411  154.4879 H   0  0  0  0  0  0  0  0  0  0  0  0
  149.8298  135.7485  153.4132 H   0  0  0  0  0  0  0  0  0  0  0  0
  152.3682  137.5990  153.6509 H   0  0  0  0  0  0  0  0  0  0  0  0
  150.6889  137.7096  153.2292 H   0  0  0  0  0  0  0  0  0  0  0  0
  149.4420  139.3521  153.8985 H   0  0  0  0  0  0  0  0  0  0  0  0
  149.0790  141.4658  155.2788 H   0  0  0  0  0  0  0  0  0  0  0  0
  150.7411  141.9986  157.0114 H   0  0  0  0  0  0  0  0  0  0  0  0
  147.4310  135.6405  155.3497 H   0  0  0  0  0  0  0  0  0  0  0  0
  147.8866  135.7900  153.6678 H   0  0  0  0  0  0  0  0  0  0  0  0
  145.4455  135.6008  153.8927 H   0  0  0  0  0  0  0  0  0  0  0  0
  145.5921  134.1052  154.7828 H   0  0  0  0  0  0  0  0  0  0  0  0
  1  2  1  0  0  0  0
  1 23  1  0  0  0  0
  1 24  1  0  0  0  0
  1 25  1  0  0  0  0
  2  3  1  0  0  0  0
  3  4  1  0  0  0  0
  3 26  1  0  0  0  0
  3 27  1  0  0  0  0
  4  5  1  0  0  0  0
  4 28  1  0  0  0  0
  4 29  1  0  0  0  0
  5 22  1  0  0  0  0
  5  6  1  0  0  0  0
  6  7  1  0  0  0  0
  6 30  1  0  0  0  0
  6 31  1  0  0  0  0
  7  8  1  0  0  0  0
  7 32  1  0  0  0  0
  7 33  1  0  0  0  0
  8  9  1  0  0  0  0
  8 21  1  0  0  0  0
  8 34  1  0  0  0  0
  9 10  1  0  0  0  0
  9 35  1  0  0  0  0
  9 36  1  0  0  0  0
 10 11  1  0  0  0  0
 10 37  1  0  0  0  0
 11 12  2  0  0  0  0
 11 13  1  0  0  0  0
 13 14  1  0  0  0  0
 13 38  1  0  0  0  0
 13 39  1  0  0  0  0
 14 19  1  0  0  0  0
 14 15  1  0  0  0  0
 15 16  2  0  0  0  0
 15 40  1  0  0  0  0
 16 17  1  0  0  0  0
 16 41  1  0  0  0  0
 17 18  2  0  0  0  0
 17 42  1  0  0  0  0
 18 19  1  0  0  0  0
 19 20  2  0  0  0  0
 21 22  1  0  0  0  0
 21 43  1  0  0  0  0
 21 44  1  0  0  0  0
 22 45  1  0  0  0  0
 22 46  1  0  0  0  0
M  END
> <s_m_source_file>
AV-unprocessed.smi

> <i_m_source_file_index>
1087

> <i_lp_mmshare_version>
43012

> <i_f3d_flags>
0

> <s_epik_input>
W0NIM11PW0NIMl1bQ0gyXU4xW0NIMl1bQ0gyXVtDSF0oW0NIMl1bQ0gyXTEpW0NIMl1bTkhdQyg9TylbQ0gyXW4yW2NIXVtjSF1bY0hdbmMyPU8=

> <s_epik_cmdline>
J2VwaWtfcHl0aG9uJywgJy1waCcsICc3LjAnLCAnLXRuJywgJzgnLCAnLW1hJywgJzIwMCcsICctbWV0YWxfYmluZGluZycsICctaW1hZScsICc8aW5maWxlLm1hZT4nLCAnLW9tYWUnLCAnPG91dGZpbGUubWFlPic=

> <r_lp_tautomer_probability>
1

> <r_epik_Ionization_Penalty>
2.43401

> <r_epik_Ionization_Penalty_Charging>
1.64716e-08

> <r_epik_Ionization_Penalty_Neutral>
2.43401

> <r_epik_State_Penalty>
2.59428

> <r_epik_Charging_Adjusted_Penalty>
2.59428

> <i_epik_Tot_Q>
0

> <i_epik_Tot_abs_Q>
0

> <r_epik_Metal_State_Penalty>
2.59427

> <b_epik_Metal_Only>
0

> <s_lp_Force_Field>
OPLS_2005

> <r_lp_Energy>
30.2677

> <b_lp_Chiralities_Consistent>
1

> <s_lp_Variant>
AV-unprocessed.smi:1087-3

> <Gold.Version>
5.8.1

> <Gold.Id.Protein>
6NUR|6NUR_protein|mol2

> <Gold.PLP.Fitness>
44.8312

> <Gold.PLP.PLP>
-34.9685

> <Gold.PLP.part.hbond>
-2.3565

> <Gold.PLP.part.metal>
0.0000

> <Gold.PLP.part.buried>
-1.7954

> <Gold.PLP.part.nonpolar>
-30.6861

> <Gold.PLP.part.repulsive>
0.3371

> <Gold.PLP.ligand.clash>
0.0000

> <Gold.PLP.ligand.torsion>
0.8566

> <Gold.PLP.Chemscore.Hbond>
2.0000

> <Gold.PLP.Chemscore.CHOScore>
1.8267

> <Gold.PLP.Chemscore.Metal>
0.0000

> <Gold.Chemscore.Hbonds>
donor molecule, donor type, donor heavy atom, donor atom, acceptor molecule, acceptor atom, score
      L1  H    10    37       P1  7948  0.55
      P1  H  7997  8010       L1    20  0.54
      P1  H 10752 10764       L1    12  0.18
      L1  C    15    40       P1  7957  0.24

> <Gold.PLP.Chemscore.Internal.Correction>
0.0959

> <Gold.Rescore>
     Score         DG    S(hbond)    S(metal)    S(lipo)     H(rot)  DE(clash)    DE(int)     intcor
     10.93     -13.37       1.73        0.00      69.91       2.37       0.21       2.23       ----

> <Gold.Chemscore.Fitness>
10.9262

> <Gold.Chemscore.DG>
-13.3745

> <Gold.Chemscore.ZeroCoef>
-5.4800

> <Gold.Chemscore.Hbond>
1.7330

> <Gold.Chemscore.Metal>
0.0000

> <Gold.Chemscore.Lipo>
69.9104

> <Gold.Chemscore.Internal_Hbond>
0.0000

> <Gold.Chemscore.DEClash>
0.2149

> <Gold.Chemscore.DEInternal>
2.2335

> <Gold.Chemscore.Rot>
2.3723

> <Gold.Chemscore.Internal.Correction>
   9.000000E+99

> <Gold.Chemscore.Hbonds>
donor molecule, donor type, donor heavy atom, donor atom, acceptor molecule, acceptor atom, score
      L1  H    10    37       P1  7948  0.03
      P1  H  7997  8010       L1    20  0.04
      P1  H 10752 10764       L1    12  0.09

> <Gold.Chemscore.Hbond.Weighted>
-5.7881

> <Gold.Chemscore.Metal.Weighted>
-0.0000

> <Gold.Chemscore.Lipo.Weighted>
-8.1795

> <Gold.Chemscore.Internal_Hbond.Weighted>
0.0000

> <Gold.Chemscore.DEClash.Weighted>
0.2149

> <Gold.Chemscore.DEInternal.Weighted>
2.2335

> <Gold.Chemscore.Rot.Weighted>
6.0731

> <Gold.Chemscore.Internal.Correction.Weighted>
   9.000000E+99

> <Gold.Protein.RotatedTorsions>
[ 6907 6896 6895 6894 ] final   82.83 input  -60.11 | X-H torsion
[ 7974 7965 7964 7962 ] final  -57.69 input  175.53 | X-H torsion
[ 8008 7997 7996 7995 ] final   77.84 input   59.86 | X-H torsion
[ 10167 10162 10161 10158 ] final  134.25 input  -65.29 | X-H torsion
[ 10718 10713 10712 10709 ] final -141.91 input   66.30 | X-H torsion
[ 10763 10752 10751 10750 ] final   10.52 input  -60.55 | X-H torsion
[ 11005 11000 10999 10996 ] final  -80.18 input  -57.11 | X-H torsion

> <Gold.Protein.ActiveResidues>
 VAL166  LYS551  ARG553  GLY616  TRP617  ASP618  TYR619  PRO620  LYS621  CYS622 
 ASP623  PHE694  ASN695  SER759  ASP760  ASP761  ALA762  ILE779  LEU786  VAL792 
 PHE793  MET794  SER795  GLU796  ALA797  LYS798  CYS799  TRP800  GLU811  SER814 

> <Gold.Protein.RotatedAtoms>
  152.5310  134.2989  159.9070 H   0  0  0  0  0  0  0  0  0  0  0  0  # atno 6907 bound_to 6896
  151.2940  133.4146  159.2642 H   0  0  0  0  0  0  0  0  0  0  0  0  # atno 6908 bound_to 6896
  151.0176  134.9461  159.8099 H   0  0  0  0  0  0  0  0  0  0  0  0  # atno 6909 bound_to 6896
  145.8481  140.8371  143.0000 H   0  0  0  0  0  0  0  0  0  0  0  0  # atno 7974 bound_to 7965
  155.8473  140.3459  155.5671 H   0  0  0  0  0  0  0  0  0  0  0  0  # atno 8008 bound_to 7997
  155.8075  140.0894  157.1942 H   0  0  0  0  0  0  0  0  0  0  0  0  # atno 8009 bound_to 7997
  154.4006  140.1454  156.3335 H   0  0  0  0  0  0  0  0  0  0  0  0  # atno 8010 bound_to 7997
  139.5263  144.6576  151.5113 H   0  0  0  0  0  0  0  0  0  0  0  0  # atno 10167 bound_to 10162
  156.3396  130.7630  151.1764 H   0  0  0  0  0  0  0  0  0  0  0  0  # atno 10718 bound_to 10713
  153.2024  135.6858  153.8215 H   0  0  0  0  0  0  0  0  0  0  0  0  # atno 10763 bound_to 10752
  153.7477  135.3228  155.3316 H   0  0  0  0  0  0  0  0  0  0  0  0  # atno 10764 bound_to 10752
  154.8178  135.4673  154.0795 H   0  0  0  0  0  0  0  0  0  0  0  0  # atno 10765 bound_to 10752
  141.1668  133.7138  156.8234 H   0  0  0  0  0  0  0  0  0  0  0  0  # atno 11005 bound_to 11000
  144.6730  140.0912  143.7465 LP  0  0  0  0  0  0  0  0  0  0  0  0  # atno 17320 bound_to 7965
  145.9389  139.2655  143.1281 LP  0  0  0  0  0  0  0  0  0  0  0  0  # atno 17321 bound_to 7965
  140.6409  143.8891  150.6691 LP  0  0  0  0  0  0  0  0  0  0  0  0  # atno 17342 bound_to 10162
  140.2225  143.3798  152.1631 LP  0  0  0  0  0  0  0  0  0  0  0  0  # atno 17343 bound_to 10162
  157.7444  131.0458  150.4862 LP  0  0  0  0  0  0  0  0  0  0  0  0  # atno 17370 bound_to 10713
  156.5040  130.4124  149.6337 LP  0  0  0  0  0  0  0  0  0  0  0  0  # atno 17371 bound_to 10713
  140.2103  134.8832  157.3267 LP  0  0  0  0  0  0  0  0  0  0  0  0  # atno 17394 bound_to 11000
  140.2094  134.4157  155.7621 LP  0  0  0  0  0  0  0  0  0  0  0  0  # atno 17395 bound_to 11000

$$$$
