AV-unprocessed.smi:711|AV-procd|sdf|3467|dock1
  -GOLD-   22720 0453D 1   1.00000     0.00000
 Structure written by MMmdl.
 28 29  0  0  0  0  0  0  0  0  2 V2000
  150.1058  136.6221  158.0932 O   0  0  0  0  0  0  0  0  0  0  0  0
  150.1929  137.8412  157.9544 C   0  0  0  0  0  0  0  0  0  0  0  0
  150.1420  138.4490  156.7330 N   0  5  0  0  0  0  0  0  0  0  0  0
  150.2333  139.8036  156.5579 C   0  0  0  0  0  0  0  0  0  0  0  0
  150.1854  140.3259  155.4442 O   0  0  0  0  0  0  0  0  0  0  0  0
  150.3806  140.5997  157.6581 N   0  0  0  0  0  0  0  0  0  0  0  0
  150.4888  142.0630  157.5688 C   0  0  0  0  0  0  0  0  0  0  0  0
  151.9251  142.5569  157.8422 C   0  0  1  0  0  0  0  0  0  0  0  0
  152.1751  143.7054  157.0556 O   0  0  0  0  0  0  0  0  0  0  0  0
  152.1213  142.8433  159.3260 C   0  0  0  0  0  0  0  0  0  0  0  0
  152.5068  141.8093  160.2090 C   0  0  0  0  0  0  0  0  0  0  0  0
  152.7034  142.0766  161.5776 C   0  0  0  0  0  0  0  0  0  0  0  0
  152.5203  143.3813  162.0729 C   0  0  0  0  0  0  0  0  0  0  0  0
  152.7108  143.6398  163.3883 F   0  0  0  0  0  0  0  0  0  0  0  0
  152.1430  144.4178  161.1986 C   0  0  0  0  0  0  0  0  0  0  0  0
  151.9465  144.1529  159.8291 C   0  0  0  0  0  0  0  0  0  0  0  0
  151.5948  145.1662  159.0012 F   0  0  0  0  0  0  0  0  0  0  0  0
  150.4441  140.0239  158.9385 C   0  0  0  0  0  0  0  0  0  0  0  0
  150.3579  138.6934  159.1301 C   0  0  0  0  0  0  0  0  0  0  0  0
  150.4421  138.0136  160.7163 Cl  0  0  0  0  0  0  0  0  0  0  0  0
  150.1109  142.4584  156.6242 H   0  0  0  0  0  0  0  0  0  0  0  0
  149.8209  142.4787  158.3252 H   0  0  0  0  0  0  0  0  0  0  0  0
  152.6439  141.7965  157.5355 H   0  0  0  0  0  0  0  0  0  0  0  0
  151.6147  143.6767  156.2955 H   0  0  0  0  0  0  0  0  0  0  0  0
  152.6582  140.8056  159.8390 H   0  0  0  0  0  0  0  0  0  0  0  0
  152.9971  141.2809  162.2460 H   0  0  0  0  0  0  0  0  0  0  0  0
  152.0069  145.4195  161.5785 H   0  0  0  0  0  0  0  0  0  0  0  0
  150.5710  140.7280  159.7483 H   0  0  0  0  0  0  0  0  0  0  0  0
  1  2  2  0  0  0  0
  2 19  1  0  0  0  0
  2  3  1  0  0  0  0
  3  4  1  0  0  0  0
  4  5  2  0  0  0  0
  4  6  1  0  0  0  0
  6  7  1  0  0  0  0
  6 18  1  0  0  0  0
  7  8  1  0  0  0  0
  7 21  1  0  0  0  0
  7 22  1  0  0  0  0
  8  9  1  0  0  0  0
  8 10  1  0  0  0  0
  8 23  1  0  0  0  0
  9 24  1  0  0  0  0
 10 16  1  0  0  0  0
 10 11  2  0  0  0  0
 11 12  1  0  0  0  0
 11 25  1  0  0  0  0
 12 13  2  0  0  0  0
 12 26  1  0  0  0  0
 13 14  1  0  0  0  0
 13 15  1  0  0  0  0
 15 16  2  0  0  0  0
 15 27  1  0  0  0  0
 16 17  1  0  0  0  0
 18 19  2  0  0  0  0
 18 28  1  0  0  0  0
 19 20  1  0  0  0  0
M  CHG  1   3  -1
M  END
> <s_m_source_file>
AV-unprocessed.smi

> <i_m_source_file_index>
711

> <i_lp_mmshare_version>
43012

> <i_f3d_flags>
0

> <s_epik_input>
Tz1jMVtuSF1jKD1PKW4oW2NIXWMxQ2wpW0NIMl1bQ0BIXShbT0hdKWMyW2NIXVtjSF1jKEYpW2NIXWMyRg==

> <s_epik_cmdline>
J2VwaWtfcHl0aG9uJywgJy1waCcsICc3LjAnLCAnLXRuJywgJzgnLCAnLW1hJywgJzIwMCcsICctbWV0YWxfYmluZGluZycsICctaW1hZScsICc8aW5maWxlLm1hZT4nLCAnLW9tYWUnLCAnPG91dGZpbGUubWFlPic=

> <r_epik_Ionization_Penalty>
1.7979

> <r_epik_Ionization_Penalty_Charging>
3.23819e-08

> <r_epik_Ionization_Penalty_Neutral>
1.7979

> <r_epik_State_Penalty>
1.91135

> <r_epik_Charging_Adjusted_Penalty>
1.91135

> <i_epik_Tot_Q>
-1

> <i_epik_Tot_abs_Q>
1

> <r_epik_Metal_State_Penalty>
0.014155

> <b_epik_Metal_Only>
0

> <s_lp_Force_Field>
OPLS_2005

> <r_lp_Energy>
21.7913

> <b_lp_Chiralities_Consistent>
1

> <s_lp_Variant>
AV-unprocessed.smi:711-4

> <Gold.Version>
5.8.1

> <Gold.Id.Protein>
6NUR|6NUR_protein|mol2

> <Gold.PLP.Fitness>
52.9181

> <Gold.PLP.PLP>
-47.4815

> <Gold.PLP.part.hbond>
-3.0000

> <Gold.PLP.part.metal>
0.0000

> <Gold.PLP.part.buried>
-7.2630

> <Gold.PLP.part.nonpolar>
-37.0853

> <Gold.PLP.part.repulsive>
0.0974

> <Gold.PLP.ligand.clash>
0.0000

> <Gold.PLP.ligand.torsion>
1.2835

> <Gold.PLP.Chemscore.Hbond>
2.6640

> <Gold.PLP.Chemscore.CHOScore>
0.0000

> <Gold.PLP.Chemscore.Metal>
0.0000

> <Gold.PLP.Chemscore.Internal.Correction>
0.0117

> <Gold.Rescore>
     Score         DG    S(hbond)    S(metal)    S(lipo)     H(rot)  DE(clash)    DE(int)     intcor
     16.59     -19.93       2.70        0.00      97.14       2.32       0.42       2.92       ----

> <Gold.Chemscore.Fitness>
16.5884

> <Gold.Chemscore.DG>
-19.9324

> <Gold.Chemscore.ZeroCoef>
-5.4800

> <Gold.Chemscore.Hbond>
2.6999

> <Gold.Chemscore.Metal>
0.0000

> <Gold.Chemscore.Lipo>
97.1354

> <Gold.Chemscore.Internal_Hbond>
0.0000

> <Gold.Chemscore.DEClash>
0.4223

> <Gold.Chemscore.DEInternal>
2.9217

> <Gold.Chemscore.Rot>
2.3164

> <Gold.Chemscore.Internal.Correction>
   9.000000E+99

> <Gold.Chemscore.Hbonds>
donor molecule, donor type, donor heavy atom, donor atom, acceptor molecule, acceptor atom, score
      P1  H  7989  7998       L1     5  0.02

> <Gold.Chemscore.Hbond.Weighted>
-9.0176

> <Gold.Chemscore.Metal.Weighted>
-0.0000

> <Gold.Chemscore.Lipo.Weighted>
-11.3648

> <Gold.Chemscore.Internal_Hbond.Weighted>
0.0000

> <Gold.Chemscore.DEClash.Weighted>
0.4223

> <Gold.Chemscore.DEInternal.Weighted>
2.9217

> <Gold.Chemscore.Rot.Weighted>
5.9301

> <Gold.Chemscore.Internal.Correction.Weighted>
   9.000000E+99

> <Gold.Protein.RotatedTorsions>
[ 6907 6896 6895 6894 ] final  132.39 input  -60.11 | X-H torsion
[ 7974 7965 7964 7962 ] final -160.76 input  175.53 | X-H torsion
[ 8008 7997 7996 7995 ] final   33.53 input   59.86 | X-H torsion
[ 10167 10162 10161 10158 ] final   -0.18 input  -65.29 | X-H torsion
[ 10718 10713 10712 10709 ] final   12.31 input   66.30 | X-H torsion
[ 10763 10752 10751 10750 ] final  -23.17 input  -60.55 | X-H torsion
[ 11005 11000 10999 10996 ] final  -89.03 input  -57.11 | X-H torsion

> <Gold.Protein.ActiveResidues>
 VAL166  LYS551  ARG553  GLY616  TRP617  ASP618  TYR619  PRO620  LYS621  CYS622 
 ASP623  PHE694  ASN695  SER759  ASP760  ASP761  ALA762  ILE779  LEU786  VAL792 
 PHE793  MET794  SER795  GLU796  ALA797  LYS798  CYS799  TRP800  GLU811  SER814 

> <Gold.Protein.RotatedAtoms>
  152.3329  133.5979  159.5821 H   0  0  0  0  0  0  0  0  0  0  0  0  # atno 6907 bound_to 6896
  150.7433  133.9840  159.3594 H   0  0  0  0  0  0  0  0  0  0  0  0  # atno 6908 bound_to 6896
  151.7713  135.0786  160.0411 H   0  0  0  0  0  0  0  0  0  0  0  0  # atno 6909 bound_to 6896
  144.7415  140.3495  143.6118 H   0  0  0  0  0  0  0  0  0  0  0  0  # atno 7974 bound_to 7965
  155.1402  140.3265  155.4454 H   0  0  0  0  0  0  0  0  0  0  0  0  # atno 8008 bound_to 7997
  156.2607  140.1995  156.6467 H   0  0  0  0  0  0  0  0  0  0  0  0  # atno 8009 bound_to 7997
  154.6548  140.0554  156.9983 H   0  0  0  0  0  0  0  0  0  0  0  0  # atno 8010 bound_to 7997
  140.6756  143.6925  150.8016 H   0  0  0  0  0  0  0  0  0  0  0  0  # atno 10167 bound_to 10162
  157.0083  130.6107  149.5705 H   0  0  0  0  0  0  0  0  0  0  0  0  # atno 10718 bound_to 10713
  153.6636  135.6975  153.5169 H   0  0  0  0  0  0  0  0  0  0  0  0  # atno 10763 bound_to 10752
  153.2612  135.4244  155.0895 H   0  0  0  0  0  0  0  0  0  0  0  0  # atno 10764 bound_to 10752
  154.8445  135.3555  154.6181 H   0  0  0  0  0  0  0  0  0  0  0  0  # atno 10765 bound_to 10752
  141.1592  133.7605  156.9536 H   0  0  0  0  0  0  0  0  0  0  0  0  # atno 11005 bound_to 11000
  145.7291  139.1731  143.2441 LP  0  0  0  0  0  0  0  0  0  0  0  0  # atno 17320 bound_to 7965
  146.1220  140.7297  142.9453 LP  0  0  0  0  0  0  0  0  0  0  0  0  # atno 17321 bound_to 7965
  140.0617  143.5148  152.2624 LP  0  0  0  0  0  0  0  0  0  0  0  0  # atno 17342 bound_to 10162
  139.6047  144.7593  151.3090 LP  0  0  0  0  0  0  0  0  0  0  0  0  # atno 17343 bound_to 10162
  156.0145  130.5239  150.8093 LP  0  0  0  0  0  0  0  0  0  0  0  0  # atno 17370 bound_to 10713
  157.5339  131.0938  150.9918 LP  0  0  0  0  0  0  0  0  0  0  0  0  # atno 17371 bound_to 10713
  140.1240  134.9398  157.2244 LP  0  0  0  0  0  0  0  0  0  0  0  0  # atno 17394 bound_to 11000
  140.3036  134.3104  155.7284 LP  0  0  0  0  0  0  0  0  0  0  0  0  # atno 17395 bound_to 11000

$$$$
