AV-unprocessed.smi:1712|AV-procd|sdf|6902|dock9
  -GOLD-   22720 8103D 1   1.00000     0.00000
 Structure written by MMmdl.
 37 38  0  0  0  0  0  0  0  0  1 V2000
  146.8877  139.4890  151.8405 C   0  0  0  0  0  0  0  0  0  0  0  0
  146.7223  139.4880  153.3819 C   0  0  1  0  0  0  0  0  0  0  0  0
  146.0703  138.1466  153.8239 C   0  0  0  0  0  0  0  0  0  0  0  0
  146.4946  137.0061  153.0144 N   0  0  0  0  0  0  0  0  0  0  0  0
  145.6936  136.0355  152.5508 C   0  0  0  0  0  0  0  0  0  0  0  0
  144.4825  135.9863  152.7666 O   0  0  0  0  0  0  0  0  0  0  0  0
  146.3858  135.1351  151.8339 N   0  0  0  0  0  0  0  0  0  0  0  0
  145.8874  133.9617  151.2135 C   0  0  0  0  0  0  0  0  0  0  0  0
  146.6892  132.8661  150.7929 C   0  0  0  0  0  0  0  0  0  0  0  0
  145.9522  131.9081  150.2490 N   0  0  0  0  0  0  0  0  0  0  0  0
  144.6876  132.3815  150.3192 N   0  0  0  0  0  0  0  0  0  0  0  0
  144.6000  133.6279  150.8989 C   0  0  0  0  0  0  0  0  0  0  0  0
  147.9883  139.7803  154.0959 N   0  0  0  0  0  0  0  0  0  0  0  0
  149.0932  138.9127  153.6709 C   0  0  0  0  0  0  0  0  0  0  0  0
  150.4149  139.2302  154.3914 C   0  0  0  0  0  0  0  0  0  0  0  0
  150.7591  140.5921  154.1813 O   0  0  0  0  0  0  0  0  0  0  0  0
  149.7500  141.4744  154.6521 C   0  0  0  0  0  0  0  0  0  0  0  0
  148.4217  141.1739  153.9365 C   0  0  0  0  0  0  0  0  0  0  0  0
  143.9034  131.8481  149.9716 H   0  0  0  0  0  0  0  0  0  0  0  0
  145.9557  139.2651  151.3236 H   0  0  0  0  0  0  0  0  0  0  0  0
  147.6252  138.7513  151.5222 H   0  0  0  0  0  0  0  0  0  0  0  0
  147.1916  140.4603  151.4537 H   0  0  0  0  0  0  0  0  0  0  0  0
  146.0119  140.2806  153.6227 H   0  0  0  0  0  0  0  0  0  0  0  0
  146.2543  137.9737  154.8857 H   0  0  0  0  0  0  0  0  0  0  0  0
  144.9893  138.1753  153.7034 H   0  0  0  0  0  0  0  0  0  0  0  0
  147.4767  136.9566  152.7868 H   0  0  0  0  0  0  0  0  0  0  0  0
  147.3759  135.3016  151.7275 H   0  0  0  0  0  0  0  0  0  0  0  0
  147.7592  132.7366  150.8631 H   0  0  0  0  0  0  0  0  0  0  0  0
  143.6583  134.1405  151.0283 H   0  0  0  0  0  0  0  0  0  0  0  0
  148.8641  137.8692  153.8788 H   0  0  0  0  0  0  0  0  0  0  0  0
  149.2382  138.9984  152.5931 H   0  0  0  0  0  0  0  0  0  0  0  0
  150.3306  139.0279  155.4603 H   0  0  0  0  0  0  0  0  0  0  0  0
  151.2161  138.5982  154.0083 H   0  0  0  0  0  0  0  0  0  0  0  0
  149.6387  141.3707  155.7325 H   0  0  0  0  0  0  0  0  0  0  0  0
  150.0589  142.5021  154.4601 H   0  0  0  0  0  0  0  0  0  0  0  0
  148.5213  141.4113  152.8763 H   0  0  0  0  0  0  0  0  0  0  0  0
  147.6825  141.8582  154.3476 H   0  0  0  0  0  0  0  0  0  0  0  0
  1  2  1  0  0  0  0
  1 20  1  0  0  0  0
  1 21  1  0  0  0  0
  1 22  1  0  0  0  0
  2  3  1  0  0  0  0
  2 13  1  0  0  0  0
  2 23  1  0  0  0  0
  3  4  1  0  0  0  0
  3 24  1  0  0  0  0
  3 25  1  0  0  0  0
  4  5  1  0  0  0  0
  4 26  1  0  0  0  0
  5  6  2  0  0  0  0
  5  7  1  0  0  0  0
  7  8  1  0  0  0  0
  7 27  1  0  0  0  0
  8 12  2  0  0  0  0
  8  9  1  0  0  0  0
  9 10  2  0  0  0  0
  9 28  1  0  0  0  0
 10 11  1  0  0  0  0
 11 19  1  0  0  0  0
 11 12  1  0  0  0  0
 12 29  1  0  0  0  0
 13 18  1  0  0  0  0
 13 14  1  0  0  0  0
 14 15  1  0  0  0  0
 14 30  1  0  0  0  0
 14 31  1  0  0  0  0
 15 16  1  0  0  0  0
 15 32  1  0  0  0  0
 15 33  1  0  0  0  0
 16 17  1  0  0  0  0
 17 18  1  0  0  0  0
 17 34  1  0  0  0  0
 17 35  1  0  0  0  0
 18 36  1  0  0  0  0
 18 37  1  0  0  0  0
M  END
> <s_m_source_file>
AV-unprocessed.smi

> <i_m_source_file_index>
1712

> <i_lp_mmshare_version>
43012

> <i_f3d_flags>
0

> <s_epik_input>
W0NIMl0xW0NIMl1PW0NIMl1bQ0gyXU4xW0NASF0oW0NIM10pW0NIMl1bTkhdQyg9TylbTkhdYzJbY0hdbltuSF1bY0hdMg==

> <s_epik_cmdline>
J2VwaWtfcHl0aG9uJywgJy1waCcsICc3LjAnLCAnLXRuJywgJzgnLCAnLW1hJywgJzIwMCcsICctbWV0YWxfYmluZGluZycsICctaW1hZScsICc8aW5maWxlLm1hZT4nLCAnLW9tYWUnLCAnPG91dGZpbGUubWFlPic=

> <r_lp_tautomer_probability>
0.5

> <r_epik_Ionization_Penalty>
0.242772

> <r_epik_Ionization_Penalty_Charging>
0

> <r_epik_Ionization_Penalty_Neutral>
0.242772

> <r_epik_State_Penalty>
0.233765

> <r_epik_Charging_Adjusted_Penalty>
0.233765

> <i_epik_Tot_Q>
0

> <i_epik_Tot_abs_Q>
0

> <r_epik_Metal_State_Penalty>
0.233764

> <b_epik_Metal_Only>
0

> <s_lp_Force_Field>
OPLS_2005

> <r_lp_Energy>
31.3121

> <b_lp_Chiralities_Consistent>
1

> <s_lp_Variant>
AV-unprocessed.smi:1712-2

> <Gold.Version>
5.8.1

> <Gold.Id.Protein>
6NUR|6NUR_protein|mol2

> <Gold.PLP.Fitness>
40.2518

> <Gold.PLP.PLP>
-27.1977

> <Gold.PLP.part.hbond>
-3.0000

> <Gold.PLP.part.metal>
0.0000

> <Gold.PLP.part.buried>
1.0330

> <Gold.PLP.part.nonpolar>
-25.7153

> <Gold.PLP.part.repulsive>
0.7384

> <Gold.PLP.ligand.clash>
0.0000

> <Gold.PLP.ligand.torsion>
0.6516

> <Gold.PLP.Chemscore.Hbond>
3.0000

> <Gold.PLP.Chemscore.CHOScore>
1.7693

> <Gold.PLP.Chemscore.Metal>
0.0000

> <Gold.Chemscore.Hbonds>
donor molecule, donor type, donor heavy atom, donor atom, acceptor molecule, acceptor atom, score
      L1  H     4    26       P1  7948  1.00
      L1  H     7    27       P1  7948  1.00
      P1  H  7989  7998       L1    16  0.02
      L1  C     9    28       P1 10747  0.95

> <Gold.PLP.Chemscore.Internal.Correction>
0.0495

> <Gold.Rescore>
     Score         DG    S(hbond)    S(metal)    S(lipo)     H(rot)  DE(clash)    DE(int)     intcor
     14.63     -17.96       2.74        0.00      64.20       1.63       1.54       1.80       ----

> <Gold.Chemscore.Fitness>
14.6265

> <Gold.Chemscore.DG>
-17.9615

> <Gold.Chemscore.ZeroCoef>
-5.4800

> <Gold.Chemscore.Hbond>
2.7381

> <Gold.Chemscore.Metal>
0.0000

> <Gold.Chemscore.Lipo>
64.2038

> <Gold.Chemscore.Internal_Hbond>
0.0000

> <Gold.Chemscore.DEClash>
1.5376

> <Gold.Chemscore.DEInternal>
1.7974

> <Gold.Chemscore.Rot>
1.6311

> <Gold.Chemscore.Internal.Correction>
   9.000000E+99

> <Gold.Chemscore.Hbonds>
donor molecule, donor type, donor heavy atom, donor atom, acceptor molecule, acceptor atom, score
      L1  H     4    26       P1  7948  0.97
      L1  H     7    27       P1  7948  0.95
      P1  H  7989  7998       L1    16  0.07

> <Gold.Chemscore.Hbond.Weighted>
-9.1453

> <Gold.Chemscore.Metal.Weighted>
-0.0000

> <Gold.Chemscore.Lipo.Weighted>
-7.5118

> <Gold.Chemscore.Internal_Hbond.Weighted>
0.0000

> <Gold.Chemscore.DEClash.Weighted>
1.5376

> <Gold.Chemscore.DEInternal.Weighted>
1.7974

> <Gold.Chemscore.Rot.Weighted>
4.1757

> <Gold.Chemscore.Internal.Correction.Weighted>
   9.000000E+99

> <Gold.Protein.RotatedTorsions>
[ 6907 6896 6895 6894 ] final -148.90 input  -60.11 | X-H torsion
[ 7974 7965 7964 7962 ] final  -22.99 input  175.53 | X-H torsion
[ 8008 7997 7996 7995 ] final   70.04 input   59.86 | X-H torsion
[ 10167 10162 10161 10158 ] final   42.31 input  -65.29 | X-H torsion
[ 10718 10713 10712 10709 ] final  -67.34 input   66.30 | X-H torsion
[ 10763 10752 10751 10750 ] final   67.20 input  -60.55 | X-H torsion
[ 11005 11000 10999 10996 ] final -110.22 input  -57.11 | X-H torsion

> <Gold.Protein.ActiveResidues>
 VAL166  LYS551  ARG553  GLY616  TRP617  ASP618  TYR619  PRO620  LYS621  CYS622 
 ASP623  PHE694  ASN695  SER759  ASP760  ASP761  ALA762  ILE779  LEU786  VAL792 
 PHE793  MET794  SER795  GLU796  ALA797  LYS798  CYS799  TRP800  GLU811  SER814 

> <Gold.Protein.RotatedAtoms>
  151.1765  133.4752  159.2593 H   0  0  0  0  0  0  0  0  0  0  0  0  # atno 6907 bound_to 6896
  151.1303  135.0126  159.8589 H   0  0  0  0  0  0  0  0  0  0  0  0  # atno 6908 bound_to 6896
  152.5459  134.1668  159.8633 H   0  0  0  0  0  0  0  0  0  0  0  0  # atno 6909 bound_to 6896
  146.1643  140.4555  142.8558 H   0  0  0  0  0  0  0  0  0  0  0  0  # atno 7974 bound_to 7965
  155.7328  140.3491  155.5067 H   0  0  0  0  0  0  0  0  0  0  0  0  # atno 8008 bound_to 7997
  155.9167  140.1060  157.1260 H   0  0  0  0  0  0  0  0  0  0  0  0  # atno 8009 bound_to 7997
  154.4063  140.1257  156.4613 H   0  0  0  0  0  0  0  0  0  0  0  0  # atno 8010 bound_to 7997
  140.3556  144.2294  150.6142 H   0  0  0  0  0  0  0  0  0  0  0  0  # atno 10167 bound_to 10162
  156.0563  130.4276  150.1840 H   0  0  0  0  0  0  0  0  0  0  0  0  # atno 10718 bound_to 10713
  153.0175  135.5293  154.6942 H   0  0  0  0  0  0  0  0  0  0  0  0  # atno 10763 bound_to 10752
  154.6068  135.2874  155.0478 H   0  0  0  0  0  0  0  0  0  0  0  0  # atno 10764 bound_to 10752
  154.1514  135.6562  153.5017 H   0  0  0  0  0  0  0  0  0  0  0  0  # atno 10765 bound_to 10752
  141.0804  133.9230  157.2301 H   0  0  0  0  0  0  0  0  0  0  0  0  # atno 11005 bound_to 11000
  144.8070  140.6317  143.6440 LP  0  0  0  0  0  0  0  0  0  0  0  0  # atno 17320 bound_to 7965
  145.4509  139.1524  143.3919 LP  0  0  0  0  0  0  0  0  0  0  0  0  # atno 17321 bound_to 7965
  140.5176  143.2274  151.8438 LP  0  0  0  0  0  0  0  0  0  0  0  0  # atno 17342 bound_to 10162
  139.4820  144.4875  151.9228 LP  0  0  0  0  0  0  0  0  0  0  0  0  # atno 17343 bound_to 10162
  156.9916  130.9895  151.3413 LP  0  0  0  0  0  0  0  0  0  0  0  0  # atno 17370 bound_to 10713
  157.5535  130.8198  149.8175 LP  0  0  0  0  0  0  0  0  0  0  0  0  # atno 17371 bound_to 10713
  139.9617  135.0152  156.9280 LP  0  0  0  0  0  0  0  0  0  0  0  0  # atno 17394 bound_to 11000
  140.5481  134.0654  155.7361 LP  0  0  0  0  0  0  0  0  0  0  0  0  # atno 17395 bound_to 11000

$$$$
