AV-unprocessed.smi:61|AV-procd|sdf|598|dock9
  -GOLD-   2262016493D 1   1.00000     0.00000
 Structure written by MMmdl.
 28 29  0  0  0  0  0  0  0  0  1 V2000
  153.1883  138.7700  159.0072 N   0  0  0  0  0  0  0  0  0  0  0  0
  153.3250  139.8759  159.8102 C   0  0  0  0  0  0  0  0  0  0  0  0
  154.2186  139.7910  160.7962 N   0  0  0  0  0  0  0  0  0  0  0  0
  154.3511  140.8788  161.5847 C   0  0  0  0  0  0  0  0  0  0  0  0
  153.5864  142.0447  161.3777 C   0  0  0  0  0  0  0  0  0  0  0  0
  152.6667  142.0246  160.3023 C   0  0  0  0  0  0  0  0  0  0  0  0
  151.8644  143.1512  160.0244 N   0  0  0  0  0  0  0  0  0  0  0  0
  151.9800  144.2859  160.9349 C   0  0  0  0  0  0  0  0  0  0  0  0
  151.8946  145.5467  160.0671 C   0  0  0  0  0  0  0  0  0  0  0  0
  151.1647  145.0772  158.8124 C   0  0  0  0  0  0  0  0  0  0  0  0
  151.6674  143.6372  158.6596 C   0  0  2  0  0  0  0  0  0  0  0  0
  150.7814  142.7219  157.7846 C   0  0  0  0  0  0  0  0  0  0  0  0
  150.7586  143.1430  156.4358 O   0  0  0  0  0  0  0  0  0  0  0  0
  152.5489  140.9222  159.5220 N   0  0  0  0  0  0  0  0  0  0  0  0
  152.5276  138.7725  158.2440 H   0  0  0  0  0  0  0  0  0  0  0  0
  153.7837  137.9657  159.1405 H   0  0  0  0  0  0  0  0  0  0  0  0
  155.0707  140.8188  162.3878 H   0  0  0  0  0  0  0  0  0  0  0  0
  153.6999  142.9044  162.0215 H   0  0  0  0  0  0  0  0  0  0  0  0
  151.1482  144.2496  161.6392 H   0  0  0  0  0  0  0  0  0  0  0  0
  152.9081  144.2724  161.5080 H   0  0  0  0  0  0  0  0  0  0  0  0
  151.3920  146.3735  160.5696 H   0  0  0  0  0  0  0  0  0  0  0  0
  152.8998  145.8772  159.8010 H   0  0  0  0  0  0  0  0  0  0  0  0
  150.0893  145.1057  158.9909 H   0  0  0  0  0  0  0  0  0  0  0  0
  151.3783  145.6945  157.9396 H   0  0  0  0  0  0  0  0  0  0  0  0
  152.6542  143.6881  158.1968 H   0  0  0  0  0  0  0  0  0  0  0  0
  151.1726  141.7047  157.8112 H   0  0  0  0  0  0  0  0  0  0  0  0
  149.7590  142.6700  158.1566 H   0  0  0  0  0  0  0  0  0  0  0  0
  150.2116  143.9109  156.3706 H   0  0  0  0  0  0  0  0  0  0  0  0
  1  2  1  0  0  0  0
  1 15  1  0  0  0  0
  1 16  1  0  0  0  0
  2 14  1  0  0  0  0
  2  3  2  0  0  0  0
  3  4  1  0  0  0  0
  4  5  2  0  0  0  0
  4 17  1  0  0  0  0
  5  6  1  0  0  0  0
  5 18  1  0  0  0  0
  6  7  1  0  0  0  0
  6 14  2  0  0  0  0
  7 11  1  0  0  0  0
  7  8  1  0  0  0  0
  8  9  1  0  0  0  0
  8 19  1  0  0  0  0
  8 20  1  0  0  0  0
  9 10  1  0  0  0  0
  9 21  1  0  0  0  0
  9 22  1  0  0  0  0
 10 11  1  0  0  0  0
 10 23  1  0  0  0  0
 10 24  1  0  0  0  0
 11 12  1  0  0  0  0
 11 25  1  0  0  0  0
 12 13  1  0  0  0  0
 12 26  1  0  0  0  0
 12 27  1  0  0  0  0
 13 28  1  0  0  0  0
M  END
> <s_m_source_file>
AV-unprocessed.smi

> <i_m_source_file_index>
61

> <i_lp_mmshare_version>
43012

> <i_f3d_flags>
0

> <s_epik_input>
W05IMl1jMW5bY0hdW2NIXWMobjEpTjJbQ0gyXVtDSDJdW0NIMl1bQ0BIXTJbQ0gyXVtPSF0=

> <s_epik_cmdline>
J2VwaWtfcHl0aG9uJywgJy1waCcsICc3LjAnLCAnLXRuJywgJzgnLCAnLW1hJywgJzIwMCcsICctbWV0YWxfYmluZGluZycsICctaW1hZScsICc8aW5maWxlLm1hZT4nLCAnLW9tYWUnLCAnPG91dGZpbGUubWFlPic=

> <r_lp_tautomer_probability>
1

> <r_epik_Ionization_Penalty>
0.76024

> <r_epik_Ionization_Penalty_Charging>
0

> <r_epik_Ionization_Penalty_Neutral>
0.76024

> <r_epik_State_Penalty>
0.587668

> <r_epik_Charging_Adjusted_Penalty>
0.587668

> <i_epik_Tot_Q>
0

> <i_epik_Tot_abs_Q>
0

> <r_epik_Metal_State_Penalty>
0.307814

> <b_epik_Metal_Only>
0

> <s_lp_Force_Field>
OPLS_2005

> <r_lp_Energy>
26.7573

> <b_lp_Chiralities_Consistent>
1

> <s_lp_Variant>
AV-unprocessed.smi:61-4

> <Gold.Version>
5.8.1

> <Gold.Id.Protein>
6NUR|6NUR_protein|mol2

> <Gold.PLP.Fitness>
36.1689

> <Gold.PLP.PLP>
-33.3225

> <Gold.PLP.part.hbond>
-1.0000

> <Gold.PLP.part.metal>
0.0000

> <Gold.PLP.part.buried>
-6.0671

> <Gold.PLP.part.nonpolar>
-27.1544

> <Gold.PLP.part.repulsive>
0.0945

> <Gold.PLP.ligand.clash>
0.0000

> <Gold.PLP.ligand.torsion>
0.2373

> <Gold.PLP.Chemscore.Hbond>
0.9920

> <Gold.PLP.Chemscore.CHOScore>
0.0000

> <Gold.PLP.Chemscore.Metal>
0.0000

> <Gold.Chemscore.Hbonds>
donor molecule, donor type, donor heavy atom, donor atom, acceptor molecule, acceptor atom, score
      L1  H    13    28       P1  8028  1.00

> <Gold.PLP.Chemscore.Internal.Correction>
0.3450

> <Gold.Rescore>
     Score         DG    S(hbond)    S(metal)    S(lipo)     H(rot)  DE(clash)    DE(int)     intcor
     12.73     -12.92       1.00        0.00      77.88       1.96       0.01       0.19       ----

> <Gold.Chemscore.Fitness>
12.7314

> <Gold.Chemscore.DG>
-12.9242

> <Gold.Chemscore.ZeroCoef>
-5.4800

> <Gold.Chemscore.Hbond>
0.9999

> <Gold.Chemscore.Metal>
0.0000

> <Gold.Chemscore.Lipo>
77.8810

> <Gold.Chemscore.Internal_Hbond>
0.0000

> <Gold.Chemscore.DEClash>
0.0060

> <Gold.Chemscore.DEInternal>
0.1868

> <Gold.Chemscore.Rot>
1.9561

> <Gold.Chemscore.Internal.Correction>
   9.000000E+99

> <Gold.Chemscore.Hbonds>
donor molecule, donor type, donor heavy atom, donor atom, acceptor molecule, acceptor atom, score
      L1  H    13    28       P1  8028  0.95

> <Gold.Chemscore.Hbond.Weighted>
-3.3398

> <Gold.Chemscore.Metal.Weighted>
-0.0000

> <Gold.Chemscore.Lipo.Weighted>
-9.1121

> <Gold.Chemscore.Internal_Hbond.Weighted>
0.0000

> <Gold.Chemscore.DEClash.Weighted>
0.0060

> <Gold.Chemscore.DEInternal.Weighted>
0.1868

> <Gold.Chemscore.Rot.Weighted>
5.0077

> <Gold.Chemscore.Internal.Correction.Weighted>
   9.000000E+99

> <Gold.Protein.RotatedTorsions>
[ 6907 6896 6895 6894 ] final   75.09 input  -60.11 | X-H torsion
[ 7974 7965 7964 7962 ] final   51.64 input  175.53 | X-H torsion
[ 8008 7997 7996 7995 ] final -104.03 input   59.86 | X-H torsion
[ 10167 10162 10161 10158 ] final -173.50 input  -65.29 | X-H torsion
[ 10718 10713 10712 10709 ] final  -36.46 input   66.30 | X-H torsion
[ 10763 10752 10751 10750 ] final  -18.78 input  -60.55 | X-H torsion
[ 11005 11000 10999 10996 ] final -108.28 input  -57.11 | X-H torsion

> <Gold.Protein.ActiveResidues>
 VAL166  LYS551  ARG553  GLY616  TRP617  ASP618  TYR619  PRO620  LYS621  CYS622 
 ASP623  PHE694  ASN695  SER759  ASP760  ASP761  ALA762  ILE779  LEU786  VAL792 
 PHE793  MET794  SER795  GLU796  ALA797  LYS798  CYS799  TRP800  GLU811  SER814 

> <Gold.Protein.RotatedAtoms>
  152.5009  134.4172  159.9468 H   0  0  0  0  0  0  0  0  0  0  0  0  # atno 6907 bound_to 6896
  151.4143  133.3711  159.2756 H   0  0  0  0  0  0  0  0  0  0  0  0  # atno 6908 bound_to 6896
  150.9268  134.8707  159.7585 H   0  0  0  0  0  0  0  0  0  0  0  0  # atno 6909 bound_to 6896
  145.9893  139.4322  143.0083 H   0  0  0  0  0  0  0  0  0  0  0  0  # atno 7974 bound_to 7965
  154.8794  140.0420  157.1773 H   0  0  0  0  0  0  0  0  0  0  0  0  # atno 8008 bound_to 7997
  154.8655  140.2950  155.5492 H   0  0  0  0  0  0  0  0  0  0  0  0  # atno 8009 bound_to 7997
  156.2999  140.2439  156.3636 H   0  0  0  0  0  0  0  0  0  0  0  0  # atno 8010 bound_to 7997
  139.5685  144.1698  152.1349 H   0  0  0  0  0  0  0  0  0  0  0  0  # atno 10167 bound_to 10162
  156.3266  130.4273  149.7910 H   0  0  0  0  0  0  0  0  0  0  0  0  # atno 10718 bound_to 10713
  153.5945  135.7001  153.5409 H   0  0  0  0  0  0  0  0  0  0  0  0  # atno 10763 bound_to 10752
  153.3149  135.4090  155.1367 H   0  0  0  0  0  0  0  0  0  0  0  0  # atno 10764 bound_to 10752
  154.8594  135.3681  154.5479 H   0  0  0  0  0  0  0  0  0  0  0  0  # atno 10765 bound_to 10752
  141.0910  133.9055  157.2075 H   0  0  0  0  0  0  0  0  0  0  0  0  # atno 11005 bound_to 11000
  145.7654  140.9918  143.1178 LP  0  0  0  0  0  0  0  0  0  0  0  0  # atno 17320 bound_to 7965
  144.6884  139.9381  143.7474 LP  0  0  0  0  0  0  0  0  0  0  0  0  # atno 17321 bound_to 7965
  140.1226  144.5360  150.6853 LP  0  0  0  0  0  0  0  0  0  0  0  0  # atno 17342 bound_to 10162
  140.6969  143.2409  151.4975 LP  0  0  0  0  0  0  0  0  0  0  0  0  # atno 17343 bound_to 10162
  156.5198  130.8210  151.3199 LP  0  0  0  0  0  0  0  0  0  0  0  0  # atno 17370 bound_to 10713
  157.7422  130.9886  150.2502 LP  0  0  0  0  0  0  0  0  0  0  0  0  # atno 17371 bound_to 10713
  139.9736  135.0121  156.9575 LP  0  0  0  0  0  0  0  0  0  0  0  0  # atno 17394 bound_to 11000
  140.5252  134.0868  155.7302 LP  0  0  0  0  0  0  0  0  0  0  0  0  # atno 17395 bound_to 11000

$$$$
