AV-unprocessed.smi:227|AV-procd|sdf|1729|dock4
  -GOLD-   2262020213D 1   1.00000     0.00000
 Structure written by MMmdl.
 54 58  0  0  0  0  0  0  0  0  1 V2000
  147.6627  132.0009  157.9223 O   0  0  0  0  0  0  0  0  0  0  0  0
  148.1723  132.7427  159.0108 C   0  0  0  0  0  0  0  0  0  0  0  0
  147.7862  134.2415  158.9175 C   0  0  2  0  0  0  0  0  0  0  0  0
  148.3179  134.8797  157.6085 C   0  0  0  0  0  0  0  0  0  0  0  0
  147.4338  134.6974  156.4703 N   0  0  0  0  0  0  0  0  0  0  0  0
  146.1212  135.0964  156.3726 C   0  0  0  0  0  0  0  0  0  0  0  0
  145.5394  134.8120  155.2403 N   0  0  0  0  0  0  0  0  0  0  0  0
  146.5199  134.1618  154.4984 C   0  0  0  0  0  0  0  0  0  0  0  0
  146.5751  133.5883  153.1931 C   0  0  0  0  0  0  0  0  0  0  0  0
  145.5382  133.5770  152.3093 N   0  0  0  0  0  0  0  0  0  0  0  0
  144.2897  134.2610  152.6063 C   0  0  1  0  0  0  0  0  0  0  0  0
  144.6326  135.7547  152.4402 C   0  0  0  0  0  0  0  0  0  0  0  0
  145.6484  135.7023  151.2877 C   0  0  0  0  0  0  0  0  0  0  0  0
  145.6938  134.1869  150.9941 C   0  0  2  0  0  0  0  0  0  0  0  0
  144.3940  133.7831  150.2671 C   0  0  1  0  0  0  0  0  0  0  0  0
  144.4984  132.4101  149.5791 C   0  0  0  0  0  0  0  0  0  0  0  0
  143.2228  131.9801  149.1531 O   0  0  0  0  0  0  0  0  0  0  0  0
  143.3925  133.8142  151.4401 C   0  0  0  0  0  0  0  0  0  0  0  0
  147.7417  132.9925  152.8278 N   0  0  0  0  0  0  0  0  0  0  0  0
  148.7882  132.9771  153.6572 C   0  0  0  0  0  0  0  0  0  0  0  0
  148.8847  133.4850  154.8861 N   0  0  0  0  0  0  0  0  0  0  0  0
  147.7152  134.0708  155.2695 C   0  0  0  0  0  0  0  0  0  0  0  0
  148.2806  135.0567  160.1440 C   0  0  2  0  0  0  0  0  0  0  0  0
  147.6464  134.7019  161.4782 C   0  0  0  0  0  0  0  0  0  0  0  0
  147.9701  135.9242  162.3295 C   0  0  0  0  0  0  0  0  0  0  0  0
  147.9796  137.0258  161.4299 O   0  0  0  0  0  0  0  0  0  0  0  0
  147.9598  136.5553  160.0863 C   0  0  0  0  0  0  0  0  0  0  0  0
  148.3742  131.8049  157.3320 H   0  0  0  0  0  0  0  0  0  0  0  0
  147.8194  132.3096  159.9471 H   0  0  0  0  0  0  0  0  0  0  0  0
  149.2519  132.6025  158.9886 H   0  0  0  0  0  0  0  0  0  0  0  0
  146.6972  134.3026  158.8852 H   0  0  0  0  0  0  0  0  0  0  0  0
  148.4621  135.9530  157.7313 H   0  0  0  0  0  0  0  0  0  0  0  0
  149.2949  134.4636  157.3587 H   0  0  0  0  0  0  0  0  0  0  0  0
  145.6074  135.6140  157.1694 H   0  0  0  0  0  0  0  0  0  0  0  0
  143.8364  134.0270  153.5674 H   0  0  0  0  0  0  0  0  0  0  0  0
  143.7581  136.3636  152.2089 H   0  0  0  0  0  0  0  0  0  0  0  0
  145.0955  136.1540  153.3435 H   0  0  0  0  0  0  0  0  0  0  0  0
  145.3433  136.2939  150.4241 H   0  0  0  0  0  0  0  0  0  0  0  0
  146.6213  136.0685  151.6177 H   0  0  0  0  0  0  0  0  0  0  0  0
  146.5881  133.8852  150.4472 H   0  0  0  0  0  0  0  0  0  0  0  0
  144.1368  134.5313  149.5155 H   0  0  0  0  0  0  0  0  0  0  0  0
  145.1488  132.4735  148.7063 H   0  0  0  0  0  0  0  0  0  0  0  0
  144.9292  131.6640  150.2476 H   0  0  0  0  0  0  0  0  0  0  0  0
  142.6347  132.7196  149.1746 H   0  0  0  0  0  0  0  0  0  0  0  0
  142.9792  132.8242  151.6389 H   0  0  0  0  0  0  0  0  0  0  0  0
  142.5588  134.4950  151.2656 H   0  0  0  0  0  0  0  0  0  0  0  0
  149.6750  132.4876  153.2823 H   0  0  0  0  0  0  0  0  0  0  0  0
  149.3616  134.9399  160.2394 H   0  0  0  0  0  0  0  0  0  0  0  0
  146.5658  134.5960  161.3708 H   0  0  0  0  0  0  0  0  0  0  0  0
  148.0407  133.7835  161.9131 H   0  0  0  0  0  0  0  0  0  0  0  0
  147.2534  136.0726  163.1373 H   0  0  0  0  0  0  0  0  0  0  0  0
  148.9632  135.8282  162.7699 H   0  0  0  0  0  0  0  0  0  0  0  0
  148.6681  137.1121  159.4725 H   0  0  0  0  0  0  0  0  0  0  0  0
  146.9599  136.7209  159.6825 H   0  0  0  0  0  0  0  0  0  0  0  0
  1  2  1  0  0  0  0
  1 28  1  0  0  0  0
  2  3  1  0  0  0  0
  2 29  1  0  0  0  0
  2 30  1  0  0  0  0
  3  4  1  0  0  0  0
  3 23  1  0  0  0  0
  3 31  1  0  0  0  0
  4  5  1  0  0  0  0
  4 32  1  0  0  0  0
  4 33  1  0  0  0  0
  5 22  1  0  0  0  0
  5  6  1  0  0  0  0
  6  7  2  0  0  0  0
  6 34  1  0  0  0  0
  7  8  1  0  0  0  0
  8 22  2  0  0  0  0
  8  9  1  0  0  0  0
  9 10  1  0  0  0  0
  9 19  2  0  0  0  0
 10 14  1  0  0  0  0
 10 11  1  0  0  0  0
 11 18  1  0  0  0  0
 11 12  1  0  0  0  0
 11 35  1  0  0  0  0
 12 13  1  0  0  0  0
 12 36  1  0  0  0  0
 12 37  1  0  0  0  0
 13 14  1  0  0  0  0
 13 38  1  0  0  0  0
 13 39  1  0  0  0  0
 14 15  1  0  0  0  0
 14 40  1  0  0  0  0
 15 16  1  0  0  0  0
 15 18  1  0  0  0  0
 15 41  1  0  0  0  0
 16 17  1  0  0  0  0
 16 42  1  0  0  0  0
 16 43  1  0  0  0  0
 17 44  1  0  0  0  0
 18 45  1  0  0  0  0
 18 46  1  0  0  0  0
 19 20  1  0  0  0  0
 20 21  2  0  0  0  0
 20 47  1  0  0  0  0
 21 22  1  0  0  0  0
 23 27  1  0  0  0  0
 23 24  1  0  0  0  0
 23 48  1  0  0  0  0
 24 25  1  0  0  0  0
 24 49  1  0  0  0  0
 24 50  1  0  0  0  0
 25 26  1  0  0  0  0
 25 51  1  0  0  0  0
 25 52  1  0  0  0  0
 26 27  1  0  0  0  0
 27 53  1  0  0  0  0
 27 54  1  0  0  0  0
M  END
> <s_m_source_file>
AV-unprocessed.smi

> <i_m_source_file_index>
227

> <i_lp_mmshare_version>
43012

> <i_f3d_flags>
0

> <s_epik_input>
W0NIMl0xT1tDSDJdW0NIMl1bQ0BIXTFbQ0BIXShbQ0gyXVtPSF0pW0NIMl1uKFtjSF1uMiljKGMyMyluW2NIXW5jM04oW0NASF00NSlbQ0BASF0oW0NIMl1bQ0gyXTQpW0NASF0oW0NIMl01KVtDSDJdW09IXQ==

> <s_epik_cmdline>
J2VwaWtfcHl0aG9uJywgJy1waCcsICc3LjAnLCAnLXRuJywgJzgnLCAnLW1hJywgJzIwMCcsICctbWV0YWxfYmluZGluZycsICctaW1hZScsICc8aW5maWxlLm1hZT4nLCAnLW9tYWUnLCAnPG91dGZpbGUubWFlPic=

> <r_lp_tautomer_probability>
1

> <r_epik_Ionization_Penalty>
0.0055791

> <r_epik_Ionization_Penalty_Charging>
0

> <r_epik_Ionization_Penalty_Neutral>
0.0055791

> <r_epik_State_Penalty>
0.00401299

> <r_epik_Charging_Adjusted_Penalty>
0.00401299

> <i_epik_Tot_Q>
0

> <i_epik_Tot_abs_Q>
0

> <r_epik_Metal_State_Penalty>
-0

> <b_epik_Metal_Only>
0

> <s_lp_Force_Field>
OPLS_2005

> <r_lp_Energy>
88.7609

> <b_lp_Chiralities_Consistent>
1

> <s_lp_Variant>
AV-unprocessed.smi:227-3

> <Gold.Version>
5.8.1

> <Gold.Id.Protein>
6NUR|6NUR_protein|mol2

> <Gold.PLP.Fitness>
45.8603

> <Gold.PLP.PLP>
-38.8404

> <Gold.PLP.part.hbond>
-4.0000

> <Gold.PLP.part.metal>
0.0000

> <Gold.PLP.part.buried>
-6.4057

> <Gold.PLP.part.nonpolar>
-28.4848

> <Gold.PLP.part.repulsive>
0.3553

> <Gold.PLP.ligand.clash>
0.0000

> <Gold.PLP.ligand.torsion>
0.4448

> <Gold.PLP.Chemscore.Hbond>
2.6000

> <Gold.PLP.Chemscore.CHOScore>
0.0000

> <Gold.PLP.Chemscore.Metal>
0.0000

> <Gold.Chemscore.Hbonds>
donor molecule, donor type, donor heavy atom, donor atom, acceptor molecule, acceptor atom, score
      L1  H    17    44       P1 10186  0.13
      P1  H  6931  6943       L1    26  1.00
      P1  H  6934  6947       L1    26  0.30
      P1  H 10785 10796       L1    17  1.00

> <Gold.PLP.Chemscore.Internal.Correction>
0.1096

> <Gold.Rescore>
     Score         DG    S(hbond)    S(metal)    S(lipo)     H(rot)  DE(clash)    DE(int)     intcor
      9.76     -12.81       2.15        0.00      80.10       3.61       0.43       2.61       ----

> <Gold.Chemscore.Fitness>
9.7639

> <Gold.Chemscore.DG>
-12.8073

> <Gold.Chemscore.ZeroCoef>
-5.4800

> <Gold.Chemscore.Hbond>
2.1528

> <Gold.Chemscore.Metal>
0.0000

> <Gold.Chemscore.Lipo>
80.0965

> <Gold.Chemscore.Internal_Hbond>
0.0000

> <Gold.Chemscore.DEClash>
0.4338

> <Gold.Chemscore.DEInternal>
2.6097

> <Gold.Chemscore.Rot>
3.6071

> <Gold.Chemscore.Internal.Correction>
   9.000000E+99

> <Gold.Chemscore.Hbonds>
donor molecule, donor type, donor heavy atom, donor atom, acceptor molecule, acceptor atom, score
      L1  H    17    44       P1 10186  0.16
      P1  H  6931  6943       L1    26  0.83
      P1  H  6934  6947       L1    26  0.04
      P1  H 10785 10796       L1    17  0.80

> <Gold.Chemscore.Hbond.Weighted>
-7.1902

> <Gold.Chemscore.Metal.Weighted>
-0.0000

> <Gold.Chemscore.Lipo.Weighted>
-9.3713

> <Gold.Chemscore.Internal_Hbond.Weighted>
0.0000

> <Gold.Chemscore.DEClash.Weighted>
0.4338

> <Gold.Chemscore.DEInternal.Weighted>
2.6097

> <Gold.Chemscore.Rot.Weighted>
9.2342

> <Gold.Chemscore.Internal.Correction.Weighted>
   9.000000E+99

> <Gold.Protein.RotatedTorsions>
[ 6907 6896 6895 6894 ] final   23.64 input  -60.11 | X-H torsion
[ 7974 7965 7964 7962 ] final -133.87 input  175.53 | X-H torsion
[ 8008 7997 7996 7995 ] final  -14.53 input   59.86 | X-H torsion
[ 10167 10162 10161 10158 ] final   54.74 input  -65.29 | X-H torsion
[ 10718 10713 10712 10709 ] final    9.09 input   66.30 | X-H torsion
[ 10763 10752 10751 10750 ] final  -58.91 input  -60.55 | X-H torsion
[ 11005 11000 10999 10996 ] final   96.62 input  -57.11 | X-H torsion

> <Gold.Protein.ActiveResidues>
 VAL166  LYS551  ARG553  GLY616  TRP617  ASP618  TYR619  PRO620  LYS621  CYS622 
 ASP623  PHE694  ASN695  SER759  ASP760  ASP761  ALA762  ILE779  LEU786  VAL792 
 PHE793  MET794  SER795  GLU796  ALA797  LYS798  CYS799  TRP800  GLU811  SER814 

> <Gold.Protein.RotatedAtoms>
  151.9455  135.0194  160.0538 H   0  0  0  0  0  0  0  0  0  0  0  0  # atno 6907 bound_to 6896
  152.1999  133.4829  159.5061 H   0  0  0  0  0  0  0  0  0  0  0  0  # atno 6908 bound_to 6896
  150.6952  134.1521  159.4187 H   0  0  0  0  0  0  0  0  0  0  0  0  # atno 6909 bound_to 6896
  144.9154  140.6948  143.4999 H   0  0  0  0  0  0  0  0  0  0  0  0  # atno 7974 bound_to 7965
  154.5203  140.2220  155.8988 H   0  0  0  0  0  0  0  0  0  0  0  0  # atno 8008 bound_to 7997
  156.1654  140.3133  155.8845 H   0  0  0  0  0  0  0  0  0  0  0  0  # atno 8009 bound_to 7997
  155.3667  140.0464  157.3036 H   0  0  0  0  0  0  0  0  0  0  0  0  # atno 8010 bound_to 7997
  140.2269  144.3729  150.6429 H   0  0  0  0  0  0  0  0  0  0  0  0  # atno 10167 bound_to 10162
  156.9612  130.5933  149.5662 H   0  0  0  0  0  0  0  0  0  0  0  0  # atno 10718 bound_to 10713
  154.2454  135.6336  153.5221 H   0  0  0  0  0  0  0  0  0  0  0  0  # atno 10763 bound_to 10752
  152.9922  135.5552  154.5865 H   0  0  0  0  0  0  0  0  0  0  0  0  # atno 10764 bound_to 10752
  154.5380  135.2893  155.1095 H   0  0  0  0  0  0  0  0  0  0  0  0  # atno 10765 bound_to 10752
  139.8780  134.8960  156.4186 H   0  0  0  0  0  0  0  0  0  0  0  0  # atno 11005 bound_to 11000
  145.3384  139.1739  143.4499 LP  0  0  0  0  0  0  0  0  0  0  0  0  # atno 17320 bound_to 7965
  146.3179  140.3423  142.8649 LP  0  0  0  0  0  0  0  0  0  0  0  0  # atno 17321 bound_to 7965
  140.6214  143.2177  151.6686 LP  0  0  0  0  0  0  0  0  0  0  0  0  # atno 17342 bound_to 10162
  139.5124  144.3477  152.0681 LP  0  0  0  0  0  0  0  0  0  0  0  0  # atno 17343 bound_to 10162
  156.0321  130.5412  150.8562 LP  0  0  0  0  0  0  0  0  0  0  0  0  # atno 17370 bound_to 10713
  157.5657  131.0946  150.9494 LP  0  0  0  0  0  0  0  0  0  0  0  0  # atno 17371 bound_to 10713
  140.9150  133.7685  155.9837 LP  0  0  0  0  0  0  0  0  0  0  0  0  # atno 17394 bound_to 11000
  140.8504  134.2960  157.5277 LP  0  0  0  0  0  0  0  0  0  0  0  0  # atno 17395 bound_to 11000

$$$$
