AV-unprocessed.smi:2095|AV-procd|sdf|8559|dock6
  -GOLD-   2272011283D 1   1.00000     0.00000
 Structure written by MMmdl.
 42 43  0  0  0  0  0  0  0  0  2 V2000
  150.7248  144.9464  159.7602 C   0  0  0  0  0  0  0  0  0  0  0  0
  151.8938  144.4461  158.8926 C   0  0  1  0  0  0  0  0  0  0  0  0
  153.0083  143.7881  159.7229 C   0  0  0  0  0  0  0  0  0  0  0  0
  152.5804  142.4001  160.2113 C   0  0  0  0  0  0  0  0  0  0  0  0
  152.1233  141.5282  159.0334 C   0  0  0  0  0  0  0  0  0  0  0  0
  151.0098  142.1658  158.2743 N   0  3  2  0  0  0  0  0  0  0  0  0
  150.4068  141.2237  157.2738 C   0  0  1  0  0  0  0  0  0  0  0  0
  148.9524  141.6540  156.9809 C   0  0  0  0  0  0  0  0  0  0  0  0
  151.2182  141.0751  155.9567 C   0  0  0  0  0  0  0  0  0  0  0  0
  151.0434  139.7668  155.3288 N   0  0  0  0  0  0  0  0  0  0  0  0
  152.0143  139.0425  154.7497 C   0  0  0  0  0  0  0  0  0  0  0  0
  153.1836  139.4194  154.6719 O   0  0  0  0  0  0  0  0  0  0  0  0
  151.5984  137.6933  154.1580 C   0  0  0  0  0  0  0  0  0  0  0  0
  151.0460  136.8154  155.1733 N   0  0  0  0  0  0  0  0  0  0  0  0
  149.9178  136.1028  155.1973 C   0  0  0  0  0  0  0  0  0  0  0  0
  149.7889  135.4285  156.3296 N   0  0  0  0  0  0  0  0  0  0  0  0
  150.9336  135.7696  157.0306 N   0  0  0  0  0  0  0  0  0  0  0  0
  151.6839  136.5915  156.3490 N   0  0  0  0  0  0  0  0  0  0  0  0
  151.4207  143.5072  157.7614 C   0  0  0  0  0  0  0  0  0  0  0  0
  150.2013  144.1267  160.2522 H   0  0  0  0  0  0  0  0  0  0  0  0
  149.9940  145.4872  159.1581 H   0  0  0  0  0  0  0  0  0  0  0  0
  151.0766  145.6280  160.5351 H   0  0  0  0  0  0  0  0  0  0  0  0
  152.3231  145.3314  158.4216 H   0  0  0  0  0  0  0  0  0  0  0  0
  153.9046  143.6895  159.1087 H   0  0  0  0  0  0  0  0  0  0  0  0
  153.2842  144.4204  160.5675 H   0  0  0  0  0  0  0  0  0  0  0  0
  153.4118  141.9188  160.7271 H   0  0  0  0  0  0  0  0  0  0  0  0
  151.7765  142.4875  160.9429 H   0  0  0  0  0  0  0  0  0  0  0  0
  152.9623  141.3463  158.3597 H   0  0  0  0  0  0  0  0  0  0  0  0
  151.8235  140.5554  159.4203 H   0  0  0  0  0  0  0  0  0  0  0  0
  150.3813  140.2334  157.7318 H   0  0  0  0  0  0  0  0  0  0  0  0
  148.4307  140.9208  156.3665 H   0  0  0  0  0  0  0  0  0  0  0  0
  148.9252  142.6076  156.4522 H   0  0  0  0  0  0  0  0  0  0  0  0
  148.3586  141.7669  157.8866 H   0  0  0  0  0  0  0  0  0  0  0  0
  150.9652  141.8747  155.2582 H   0  0  0  0  0  0  0  0  0  0  0  0
  152.2865  141.1612  156.1556 H   0  0  0  0  0  0  0  0  0  0  0  0
  150.1115  139.3777  155.3425 H   0  0  0  0  0  0  0  0  0  0  0  0
  150.8520  137.8271  153.3735 H   0  0  0  0  0  0  0  0  0  0  0  0
  152.4662  137.2170  153.6994 H   0  0  0  0  0  0  0  0  0  0  0  0
  149.1971  136.0797  154.3932 H   0  0  0  0  0  0  0  0  0  0  0  0
  150.5957  144.0053  157.2533 H   0  0  0  0  0  0  0  0  0  0  0  0
  152.2173  143.3795  157.0266 H   0  0  0  0  0  0  0  0  0  0  0  0
  150.2759  142.3545  158.9425 H   0  0  0  0  0  0  0  0  0  0  0  0
  1  2  1  0  0  0  0
  1 20  1  0  0  0  0
  1 21  1  0  0  0  0
  1 22  1  0  0  0  0
  2 19  1  0  0  0  0
  2  3  1  0  0  0  0
  2 23  1  0  0  0  0
  3  4  1  0  0  0  0
  3 24  1  0  0  0  0
  3 25  1  0  0  0  0
  4  5  1  0  0  0  0
  4 26  1  0  0  0  0
  4 27  1  0  0  0  0
  5  6  1  0  0  0  0
  5 28  1  0  0  0  0
  5 29  1  0  0  0  0
  6  7  1  0  0  0  0
  6 19  1  0  0  0  0
  6 42  1  0  0  0  0
  7  8  1  0  0  0  0
  7  9  1  0  0  0  0
  7 30  1  0  0  0  0
  8 31  1  0  0  0  0
  8 32  1  0  0  0  0
  8 33  1  0  0  0  0
  9 10  1  0  0  0  0
  9 34  1  0  0  0  0
  9 35  1  0  0  0  0
 10 11  1  0  0  0  0
 10 36  1  0  0  0  0
 11 12  2  0  0  0  0
 11 13  1  0  0  0  0
 13 14  1  0  0  0  0
 13 37  1  0  0  0  0
 13 38  1  0  0  0  0
 14 18  1  0  0  0  0
 14 15  1  0  0  0  0
 15 16  2  0  0  0  0
 15 39  1  0  0  0  0
 16 17  1  0  0  0  0
 17 18  2  0  0  0  0
 19 40  1  0  0  0  0
 19 41  1  0  0  0  0
M  CHG  1   6   1
M  END
> <s_m_source_file>
AV-unprocessed.smi

> <i_m_source_file_index>
2095

> <i_lp_mmshare_version>
43012

> <i_f3d_flags>
0

> <s_epik_input>
W0NIM11bQ0BASF0xW0NIMl1bQ0gyXVtDSDJdTihbQ0gyXTEpW0NASF0oW0NIM10pW0NIMl1bTkhdQyg9TylbQ0gyXW4yW2NIXW5ubjI=

> <s_epik_cmdline>
J2VwaWtfcHl0aG9uJywgJy1waCcsICc3LjAnLCAnLXRuJywgJzgnLCAnLW1hJywgJzIwMCcsICctbWV0YWxfYmluZGluZycsICctaW1hZScsICc8aW5maWxlLm1hZT4nLCAnLW9tYWUnLCAnPG91dGZpbGUubWFlPic=

> <r_lp_tautomer_probability>
1

> <r_epik_Ionization_Penalty>
0.00268321

> <r_epik_Ionization_Penalty_Charging>
0.00267875

> <r_epik_Ionization_Penalty_Neutral>
4.46125e-06

> <r_epik_State_Penalty>
0.00186642

> <r_epik_Charging_Adjusted_Penalty>
0.00454517

> <i_epik_Tot_Q>
1

> <i_epik_Tot_abs_Q>
1

> <r_epik_Metal_State_Penalty>
-0

> <b_epik_Metal_Only>
0

> <s_lp_Force_Field>
OPLS_2005

> <r_lp_Energy>
29.9009

> <b_lp_Chiralities_Consistent>
1

> <s_lp_Variant>
AV-unprocessed.smi:2095-6

> <Gold.Version>
5.8.1

> <Gold.Id.Protein>
6NUR|6NUR_protein|mol2

> <Gold.PLP.Fitness>
42.7881

> <Gold.PLP.PLP>
-38.4342

> <Gold.PLP.part.hbond>
-2.0278

> <Gold.PLP.part.metal>
0.0000

> <Gold.PLP.part.buried>
-4.5595

> <Gold.PLP.part.nonpolar>
-31.4455

> <Gold.PLP.part.repulsive>
0.2171

> <Gold.PLP.ligand.clash>
0.0000

> <Gold.PLP.ligand.torsion>
0.8572

> <Gold.PLP.Chemscore.Hbond>
1.0000

> <Gold.PLP.Chemscore.CHOScore>
1.0000

> <Gold.PLP.Chemscore.Metal>
0.0000

> <Gold.Chemscore.Hbonds>
donor molecule, donor type, donor heavy atom, donor atom, acceptor molecule, acceptor atom, score
      P1  H  7997  8009       L1    12  1.00
      L1  C    15    39       P1  7948  1.00

> <Gold.PLP.Chemscore.Internal.Correction>
0.0683

> <Gold.Rescore>
     Score         DG    S(hbond)    S(metal)    S(lipo)     H(rot)  DE(clash)    DE(int)     intcor
     12.38     -12.91       0.99        0.00      93.11       2.64       0.02       0.52       ----

> <Gold.Chemscore.Fitness>
12.3787

> <Gold.Chemscore.DG>
-12.9147

> <Gold.Chemscore.ZeroCoef>
-5.4800

> <Gold.Chemscore.Hbond>
0.9907

> <Gold.Chemscore.Metal>
0.0000

> <Gold.Chemscore.Lipo>
93.1127

> <Gold.Chemscore.Internal_Hbond>
0.0000

> <Gold.Chemscore.DEClash>
0.0176

> <Gold.Chemscore.DEInternal>
0.5184

> <Gold.Chemscore.Rot>
2.6439

> <Gold.Chemscore.Internal.Correction>
   9.000000E+99

> <Gold.Chemscore.Hbonds>
donor molecule, donor type, donor heavy atom, donor atom, acceptor molecule, acceptor atom, score
      P1  H  7997  8009       L1    12  0.99

> <Gold.Chemscore.Hbond.Weighted>
-3.3090

> <Gold.Chemscore.Metal.Weighted>
-0.0000

> <Gold.Chemscore.Lipo.Weighted>
-10.8942

> <Gold.Chemscore.Internal_Hbond.Weighted>
0.0000

> <Gold.Chemscore.DEClash.Weighted>
0.0176

> <Gold.Chemscore.DEInternal.Weighted>
0.5184

> <Gold.Chemscore.Rot.Weighted>
6.7685

> <Gold.Chemscore.Internal.Correction.Weighted>
   9.000000E+99

> <Gold.Protein.RotatedTorsions>
[ 6907 6896 6895 6894 ] final  105.51 input  -60.11 | X-H torsion
[ 7974 7965 7964 7962 ] final  126.90 input  175.53 | X-H torsion
[ 8008 7997 7996 7995 ] final -141.00 input   59.86 | X-H torsion
[ 10167 10162 10161 10158 ] final  -10.97 input  -65.29 | X-H torsion
[ 10718 10713 10712 10709 ] final  -70.71 input   66.30 | X-H torsion
[ 10763 10752 10751 10750 ] final   64.90 input  -60.55 | X-H torsion
[ 11005 11000 10999 10996 ] final  -67.45 input  -57.11 | X-H torsion

> <Gold.Protein.ActiveResidues>
 VAL166  LYS551  ARG553  GLY616  TRP617  ASP618  TYR619  PRO620  LYS621  CYS622 
 ASP623  PHE694  ASN695  SER759  ASP760  ASP761  ALA762  ILE779  LEU786  VAL792 
 PHE793  MET794  SER795  GLU796  ALA797  LYS798  CYS799  TRP800  GLU811  SER814 

> <Gold.Protein.RotatedAtoms>
  152.5228  133.9518  159.7675 H   0  0  0  0  0  0  0  0  0  0  0  0  # atno 6907 bound_to 6896
  150.9826  133.6221  159.2727 H   0  0  0  0  0  0  0  0  0  0  0  0  # atno 6908 bound_to 6896
  151.3393  135.0866  159.9418 H   0  0  0  0  0  0  0  0  0  0  0  0  # atno 6909 bound_to 6896
  145.0565  139.3840  143.5027 H   0  0  0  0  0  0  0  0  0  0  0  0  # atno 7974 bound_to 7965
  155.4705  140.0552  157.2980 H   0  0  0  0  0  0  0  0  0  0  0  0  # atno 8008 bound_to 7997
  154.4700  140.2036  155.9972 H   0  0  0  0  0  0  0  0  0  0  0  0  # atno 8009 bound_to 7997
  156.1040  140.3214  155.7985 H   0  0  0  0  0  0  0  0  0  0  0  0  # atno 8010 bound_to 7997
  140.7127  143.5690  150.9113 H   0  0  0  0  0  0  0  0  0  0  0  0  # atno 10167 bound_to 10162
  156.0395  130.4337  150.2336 H   0  0  0  0  0  0  0  0  0  0  0  0  # atno 10718 bound_to 10713
  153.0074  135.5376  154.6583 H   0  0  0  0  0  0  0  0  0  0  0  0  # atno 10763 bound_to 10752
  154.5798  135.2849  155.0746 H   0  0  0  0  0  0  0  0  0  0  0  0  # atno 10764 bound_to 10752
  154.1879  135.6505  153.5104 H   0  0  0  0  0  0  0  0  0  0  0  0  # atno 10765 bound_to 10752
  141.1508  133.6719  156.6294 H   0  0  0  0  0  0  0  0  0  0  0  0  # atno 11005 bound_to 11000
  146.3521  140.0242  142.8656 LP  0  0  0  0  0  0  0  0  0  0  0  0  # atno 17320 bound_to 7965
  145.1462  140.9598  143.4460 LP  0  0  0  0  0  0  0  0  0  0  0  0  # atno 17321 bound_to 7965
  139.9416  143.6375  152.3052 LP  0  0  0  0  0  0  0  0  0  0  0  0  # atno 17342 bound_to 10162
  139.6862  144.7651  151.1520 LP  0  0  0  0  0  0  0  0  0  0  0  0  # atno 17343 bound_to 10162
  157.0432  131.0041  151.3277 LP  0  0  0  0  0  0  0  0  0  0  0  0  # atno 17370 bound_to 10713
  157.5194  130.7988  149.7792 LP  0  0  0  0  0  0  0  0  0  0  0  0  # atno 17371 bound_to 10713
  140.3479  134.7794  157.4445 LP  0  0  0  0  0  0  0  0  0  0  0  0  # atno 17394 bound_to 11000
  140.0885  134.5634  155.8468 LP  0  0  0  0  0  0  0  0  0  0  0  0  # atno 17395 bound_to 11000

$$$$
