AV-unprocessed.smi:2766|AV-procd|sdf|10646|dock4
  -GOLD-   2272015 93D 1   1.00000     0.00000
 Structure written by MMmdl.
 32 33  0  0  0  0  0  0  0  0  1 V2000
  146.3072  143.3322  153.7074 C   0  0  0  0  0  0  0  0  0  0  0  0
  147.6578  142.9475  153.8971 O   0  0  0  0  0  0  0  0  0  0  0  0
  147.7788  141.6650  154.4908 C   0  0  0  0  0  0  0  0  0  0  0  0
  149.2653  141.3563  154.7425 C   0  0  2  0  0  0  0  0  0  0  0  0
  149.8271  140.9078  153.5216 O   0  0  0  0  0  0  0  0  0  0  0  0
  149.4663  140.3324  155.8949 C   0  0  0  0  0  0  0  0  0  0  0  0
  150.6697  140.5322  156.6954 N   0  0  0  0  0  0  0  0  0  0  0  0
  151.7686  139.7393  156.7846 C   0  0  0  0  0  0  0  0  0  0  0  0
  151.8982  138.4622  156.0028 C   0  0  0  0  0  0  0  0  0  0  0  0
  153.0564  137.8563  156.2679 F   0  0  0  0  0  0  0  0  0  0  0  0
  150.9167  137.6142  156.3112 F   0  0  0  0  0  0  0  0  0  0  0  0
  151.8554  138.7103  154.6939 F   0  0  0  0  0  0  0  0  0  0  0  0
  152.7318  140.1821  157.5968 N   0  0  0  0  0  0  0  0  0  0  0  0
  152.2044  141.3610  158.0861 C   0  0  0  0  0  0  0  0  0  0  0  0
  152.7389  142.2988  158.9982 C   0  0  0  0  0  0  0  0  0  0  0  0
  152.0028  143.4481  159.3541 C   0  0  0  0  0  0  0  0  0  0  0  0
  150.7242  143.6753  158.8046 C   0  0  0  0  0  0  0  0  0  0  0  0
  150.1739  142.7537  157.8933 C   0  0  0  0  0  0  0  0  0  0  0  0
  150.9138  141.6092  157.5411 C   0  0  0  0  0  0  0  0  0  0  0  0
  149.7750  142.2795  155.0211 H   0  0  0  0  0  0  0  0  0  0  0  0
  146.2685  144.3235  153.2562 H   0  0  0  0  0  0  0  0  0  0  0  0
  145.7698  143.3724  154.6558 H   0  0  0  0  0  0  0  0  0  0  0  0
  145.7906  142.6394  153.0419 H   0  0  0  0  0  0  0  0  0  0  0  0
  147.2376  141.6862  155.4381 H   0  0  0  0  0  0  0  0  0  0  0  0
  147.3183  140.8922  153.8723 H   0  0  0  0  0  0  0  0  0  0  0  0
  149.2167  140.3159  153.1095 H   0  0  0  0  0  0  0  0  0  0  0  0
  148.5971  140.3463  156.5518 H   0  0  0  0  0  0  0  0  0  0  0  0
  149.5015  139.3148  155.5044 H   0  0  0  0  0  0  0  0  0  0  0  0
  153.7169  142.1335  159.4256 H   0  0  0  0  0  0  0  0  0  0  0  0
  152.4208  144.1584  160.0524 H   0  0  0  0  0  0  0  0  0  0  0  0
  150.1659  144.5570  159.0835 H   0  0  0  0  0  0  0  0  0  0  0  0
  149.1943  142.9225  157.4719 H   0  0  0  0  0  0  0  0  0  0  0  0
  1  2  1  0  0  0  0
  1 21  1  0  0  0  0
  1 22  1  0  0  0  0
  1 23  1  0  0  0  0
  2  3  1  0  0  0  0
  3  4  1  0  0  0  0
  3 24  1  0  0  0  0
  3 25  1  0  0  0  0
  4 20  1  0  0  0  0
  4  5  1  0  0  0  0
  4  6  1  0  0  0  0
  5 26  1  0  0  0  0
  6  7  1  0  0  0  0
  6 27  1  0  0  0  0
  6 28  1  0  0  0  0
  7 19  1  0  0  0  0
  7  8  1  0  0  0  0
  8  9  1  0  0  0  0
  8 13  2  0  0  0  0
  9 10  1  0  0  0  0
  9 11  1  0  0  0  0
  9 12  1  0  0  0  0
 13 14  1  0  0  0  0
 14 19  2  0  0  0  0
 14 15  1  0  0  0  0
 15 16  2  0  0  0  0
 15 29  1  0  0  0  0
 16 17  1  0  0  0  0
 16 30  1  0  0  0  0
 17 18  2  0  0  0  0
 17 31  1  0  0  0  0
 18 19  1  0  0  0  0
 18 32  1  0  0  0  0
M  END
> <s_m_source_file>
AV-unprocessed.smi

> <i_m_source_file_index>
2766

> <i_lp_mmshare_version>
43012

> <i_f3d_flags>
0

> <s_epik_input>
W0NIM11PW0NIMl1bQ0BASF0oW09IXSlbQ0gyXW4oYyhuMSlDKEYpKEYpRiljKGMxMilbY0hdW2NIXVtjSF1bY0hdMg==

> <s_epik_cmdline>
J2VwaWtfcHl0aG9uJywgJy1waCcsICc3LjAnLCAnLXRuJywgJzgnLCAnLW1hJywgJzIwMCcsICctbWV0YWxfYmluZGluZycsICctaW1hZScsICc8aW5maWxlLm1hZT4nLCAnLW9tYWUnLCAnPG91dGZpbGUubWFlPic=

> <r_epik_Ionization_Penalty>
0.00044827

> <r_epik_Ionization_Penalty_Charging>
0

> <r_epik_Ionization_Penalty_Neutral>
0.00044827

> <r_epik_State_Penalty>
0.000276591

> <r_epik_Charging_Adjusted_Penalty>
0.000276591

> <i_epik_Tot_Q>
0

> <i_epik_Tot_abs_Q>
0

> <r_epik_Metal_State_Penalty>
-0

> <b_epik_Metal_Only>
0

> <s_lp_Force_Field>
OPLS_2005

> <r_lp_Energy>
17.0941

> <b_lp_Chiralities_Consistent>
1

> <s_lp_Variant>
AV-unprocessed.smi:2766-2

> <Gold.Version>
5.8.1

> <Gold.Id.Protein>
6NUR|6NUR_protein|mol2

> <Gold.PLP.Fitness>
42.9047

> <Gold.PLP.PLP>
-35.2269

> <Gold.PLP.part.hbond>
-5.3310

> <Gold.PLP.part.metal>
0.0000

> <Gold.PLP.part.buried>
-1.9265

> <Gold.PLP.part.nonpolar>
-29.3966

> <Gold.PLP.part.repulsive>
2.3205

> <Gold.PLP.ligand.clash>
0.0000

> <Gold.PLP.ligand.torsion>
0.7270

> <Gold.PLP.Chemscore.Hbond>
3.0187

> <Gold.PLP.Chemscore.CHOScore>
0.0000

> <Gold.PLP.Chemscore.Metal>
0.0000

> <Gold.Chemscore.Hbonds>
donor molecule, donor type, donor heavy atom, donor atom, acceptor molecule, acceptor atom, score
      L1  H     5    26       P1  7957  0.24
      P1  H  7989  7998       L1     5  0.30
      P1  H  7997  8008       L1    13  0.98
      P1  H  8011  8017       L1     5  1.00
      P1  H  8022  8030       L1     2  0.63

> <Gold.PLP.Chemscore.Internal.Correction>
0.0756

> <Gold.Rescore>
     Score         DG    S(hbond)    S(metal)    S(lipo)     H(rot)  DE(clash)    DE(int)     intcor
     15.15     -16.00       2.11        0.00      80.30       2.32       0.22       0.63       ----

> <Gold.Chemscore.Fitness>
15.1530

> <Gold.Chemscore.DG>
-16.0033

> <Gold.Chemscore.ZeroCoef>
-5.4800

> <Gold.Chemscore.Hbond>
2.1131

> <Gold.Chemscore.Metal>
0.0000

> <Gold.Chemscore.Lipo>
80.3034

> <Gold.Chemscore.Internal_Hbond>
0.0000

> <Gold.Chemscore.DEClash>
0.2224

> <Gold.Chemscore.DEInternal>
0.6279

> <Gold.Chemscore.Rot>
2.3164

> <Gold.Chemscore.Internal.Correction>
   9.000000E+99

> <Gold.Chemscore.Hbonds>
donor molecule, donor type, donor heavy atom, donor atom, acceptor molecule, acceptor atom, score
      L1  H     5    26       P1  7957  0.23
      P1  H  7989  7998       L1     5  0.30
      P1  H  7997  8008       L1    13  0.84
      P1  H  8011  8017       L1     5  0.20
      P1  H  8022  8030       L1     2  0.14

> <Gold.Chemscore.Hbond.Weighted>
-7.0576

> <Gold.Chemscore.Metal.Weighted>
-0.0000

> <Gold.Chemscore.Lipo.Weighted>
-9.3955

> <Gold.Chemscore.Internal_Hbond.Weighted>
0.0000

> <Gold.Chemscore.DEClash.Weighted>
0.2224

> <Gold.Chemscore.DEInternal.Weighted>
0.6279

> <Gold.Chemscore.Rot.Weighted>
5.9299

> <Gold.Chemscore.Internal.Correction.Weighted>
   9.000000E+99

> <Gold.Protein.RotatedTorsions>
[ 6907 6896 6895 6894 ] final   52.61 input  -60.11 | X-H torsion
[ 7974 7965 7964 7962 ] final  131.21 input  175.53 | X-H torsion
[ 8008 7997 7996 7995 ] final  -76.28 input   59.86 | X-H torsion
[ 10167 10162 10161 10158 ] final  172.65 input  -65.29 | X-H torsion
[ 10718 10713 10712 10709 ] final   84.70 input   66.30 | X-H torsion
[ 10763 10752 10751 10750 ] final   67.99 input  -60.55 | X-H torsion
[ 11005 11000 10999 10996 ] final   52.02 input  -57.11 | X-H torsion

> <Gold.Protein.ActiveResidues>
 VAL166  LYS551  ARG553  GLY616  TRP617  ASP618  TYR619  PRO620  LYS621  CYS622 
 ASP623  PHE694  ASN695  SER759  ASP760  ASP761  ALA762  ILE779  LEU786  VAL792 
 PHE793  MET794  SER795  GLU796  ALA797  LYS798  CYS799  TRP800  GLU811  SER814 

> <Gold.Protein.RotatedAtoms>
  152.3251  134.7331  160.0303 H   0  0  0  0  0  0  0  0  0  0  0  0  # atno 6907 bound_to 6896
  151.7766  133.3340  159.3467 H   0  0  0  0  0  0  0  0  0  0  0  0  # atno 6908 bound_to 6896
  150.7391  134.5901  159.6027 H   0  0  0  0  0  0  0  0  0  0  0  0  # atno 6909 bound_to 6896
  145.0097  139.4232  143.5251 H   0  0  0  0  0  0  0  0  0  0  0  0  # atno 7974 bound_to 7965
  154.5492  140.0729  156.8639 H   0  0  0  0  0  0  0  0  0  0  0  0  # atno 8008 bound_to 7997
  155.3027  140.3385  155.4229 H   0  0  0  0  0  0  0  0  0  0  0  0  # atno 8009 bound_to 7997
  156.1945  140.1698  156.8011 H   0  0  0  0  0  0  0  0  0  0  0  0  # atno 8010 bound_to 7997
  139.5083  144.3350  152.0074 H   0  0  0  0  0  0  0  0  0  0  0  0  # atno 10167 bound_to 10162
  157.6902  131.0144  150.2712 H   0  0  0  0  0  0  0  0  0  0  0  0  # atno 10718 bound_to 10713
  153.0213  135.5264  154.7065 H   0  0  0  0  0  0  0  0  0  0  0  0  # atno 10763 bound_to 10752
  154.6159  135.2883  155.0383 H   0  0  0  0  0  0  0  0  0  0  0  0  # atno 10764 bound_to 10752
  154.1387  135.6581  153.4990 H   0  0  0  0  0  0  0  0  0  0  0  0  # atno 10765 bound_to 10752
  140.0884  134.5243  155.8876 H   0  0  0  0  0  0  0  0  0  0  0  0  # atno 11005 bound_to 11000
  146.3467  139.9534  142.8726 LP  0  0  0  0  0  0  0  0  0  0  0  0  # atno 17320 bound_to 7965
  145.2040  140.9867  143.4139 LP  0  0  0  0  0  0  0  0  0  0  0  0  # atno 17321 bound_to 7965
  140.2789  144.3882  150.6126 LP  0  0  0  0  0  0  0  0  0  0  0  0  # atno 17342 bound_to 10162
  140.6033  143.2167  151.7030 LP  0  0  0  0  0  0  0  0  0  0  0  0  # atno 17343 bound_to 10162
  156.3275  130.3795  149.7520 LP  0  0  0  0  0  0  0  0  0  0  0  0  # atno 17370 bound_to 10713
  156.5071  130.8155  151.3155 LP  0  0  0  0  0  0  0  0  0  0  0  0  # atno 17371 bound_to 10713
  141.2070  133.6660  156.6277 LP  0  0  0  0  0  0  0  0  0  0  0  0  # atno 17394 bound_to 11000
  140.3387  134.7867  157.4381 LP  0  0  0  0  0  0  0  0  0  0  0  0  # atno 17395 bound_to 11000

$$$$
