AV-unprocessed.smi:694|AV-procd|sdf|3376|dock8
  -GOLD-   22720 0353D 1   1.00000     0.00000
 Structure written by MMmdl.
 43 44  0  0  0  0  0  0  0  0  2 V2000
  152.2509  142.4434  158.9689 C   0  0  0  0  0  0  0  0  0  0  0  0
  151.7022  142.9357  157.7102 N   0  0  0  0  0  0  0  0  0  0  0  0
  151.6488  144.3673  157.4441 C   0  0  0  0  0  0  0  0  0  0  0  0
  151.0792  142.0344  156.8196 C   0  0  0  0  0  0  0  0  0  0  0  0
  151.4339  140.6666  156.7248 C   0  0  0  0  0  0  0  0  0  0  0  0
  150.7671  139.8315  155.8050 C   0  0  0  0  0  0  0  0  0  0  0  0
  149.7480  140.3579  154.9839 C   0  0  0  0  0  0  0  0  0  0  0  0
  149.1221  139.4691  154.0653 N   0  0  0  0  0  0  0  0  0  0  0  0
  147.9229  139.5688  153.4645 C   0  0  0  0  0  0  0  0  0  0  0  0
  147.0933  140.4549  153.6651 O   0  0  0  0  0  0  0  0  0  0  0  0
  147.7290  138.5604  152.6028 N   0  0  0  0  0  0  0  0  0  0  0  0
  146.5394  138.3821  151.7762 C   0  0  0  0  0  0  0  0  0  0  0  0
  145.7864  137.0795  152.1128 C   0  0  2  0  0  0  0  0  0  0  0  0
  145.9289  135.9811  151.0456 C   0  0  0  0  0  0  0  0  0  0  0  0
  144.6229  135.1700  151.0731 C   0  0  0  0  0  0  0  0  0  0  0  0
  143.7158  135.8460  152.1064 C   0  0  0  0  0  0  0  0  0  0  0  0
  144.2709  137.2632  152.2477 C   0  0  1  0  0  0  0  0  0  0  0  0
  143.9083  137.8352  153.4875 O   0  0  0  0  0  0  0  0  0  0  0  0
  149.4285  141.7306  155.1181 C   0  0  0  0  0  0  0  0  0  0  0  0
  150.0931  142.4946  156.0118 N   0  3  0  0  0  0  0  0  0  0  0  0
  153.0276  141.7008  158.7837 H   0  0  0  0  0  0  0  0  0  0  0  0
  151.4686  141.9850  159.5747 H   0  0  0  0  0  0  0  0  0  0  0  0
  152.6954  143.2506  159.5516 H   0  0  0  0  0  0  0  0  0  0  0  0
  150.6148  144.7069  157.3764 H   0  0  0  0  0  0  0  0  0  0  0  0
  152.1566  144.6023  156.5081 H   0  0  0  0  0  0  0  0  0  0  0  0
  152.1349  144.9365  158.2367 H   0  0  0  0  0  0  0  0  0  0  0  0
  152.2101  140.2411  157.3431 H   0  0  0  0  0  0  0  0  0  0  0  0
  151.0432  138.7895  155.7330 H   0  0  0  0  0  0  0  0  0  0  0  0
  149.6677  138.6567  153.8172 H   0  0  0  0  0  0  0  0  0  0  0  0
  148.4594  137.8709  152.5011 H   0  0  0  0  0  0  0  0  0  0  0  0
  145.8771  139.2424  151.8872 H   0  0  0  0  0  0  0  0  0  0  0  0
  146.8534  138.3730  150.7320 H   0  0  0  0  0  0  0  0  0  0  0  0
  146.1646  136.6782  153.0552 H   0  0  0  0  0  0  0  0  0  0  0  0
  146.0559  136.4236  150.0567 H   0  0  0  0  0  0  0  0  0  0  0  0
  146.8015  135.3544  151.2332 H   0  0  0  0  0  0  0  0  0  0  0  0
  144.1546  135.1899  150.0884 H   0  0  0  0  0  0  0  0  0  0  0  0
  144.7992  134.1244  151.3281 H   0  0  0  0  0  0  0  0  0  0  0  0
  142.6648  135.8345  151.8149 H   0  0  0  0  0  0  0  0  0  0  0  0
  143.7996  135.3157  153.0565 H   0  0  0  0  0  0  0  0  0  0  0  0
  143.8929  137.8866  151.4358 H   0  0  0  0  0  0  0  0  0  0  0  0
  143.8521  138.7726  153.3820 H   0  0  0  0  0  0  0  0  0  0  0  0
  148.6793  142.2606  154.5508 H   0  0  0  0  0  0  0  0  0  0  0  0
  149.8383  143.4800  156.0797 H   0  0  0  0  0  0  0  0  0  0  0  0
  1  2  1  0  0  0  0
  1 21  1  0  0  0  0
  1 22  1  0  0  0  0
  1 23  1  0  0  0  0
  2  3  1  0  0  0  0
  2  4  1  0  0  0  0
  3 24  1  0  0  0  0
  3 25  1  0  0  0  0
  3 26  1  0  0  0  0
  4 20  1  0  0  0  0
  4  5  2  0  0  0  0
  5  6  1  0  0  0  0
  5 27  1  0  0  0  0
  6  7  2  0  0  0  0
  6 28  1  0  0  0  0
  7  8  1  0  0  0  0
  7 19  1  0  0  0  0
  8  9  1  0  0  0  0
  8 29  1  0  0  0  0
  9 10  2  0  0  0  0
  9 11  1  0  0  0  0
 11 12  1  0  0  0  0
 11 30  1  0  0  0  0
 12 13  1  0  0  0  0
 12 31  1  0  0  0  0
 12 32  1  0  0  0  0
 13 17  1  0  0  0  0
 13 14  1  0  0  0  0
 13 33  1  0  0  0  0
 14 15  1  0  0  0  0
 14 34  1  0  0  0  0
 14 35  1  0  0  0  0
 15 16  1  0  0  0  0
 15 36  1  0  0  0  0
 15 37  1  0  0  0  0
 16 17  1  0  0  0  0
 16 38  1  0  0  0  0
 16 39  1  0  0  0  0
 17 18  1  0  0  0  0
 17 40  1  0  0  0  0
 18 41  1  0  0  0  0
 19 20  2  0  0  0  0
 19 42  1  0  0  0  0
 20 43  1  0  0  0  0
M  CHG  1  20   1
M  END
> <s_m_source_file>
AV-unprocessed.smi

> <i_m_source_file_index>
694

> <i_lp_mmshare_version>
43012

> <i_f3d_flags>
0

> <s_epik_input>
W0NIM11OKFtDSDNdKWMxW2NIXVtjSF1jKFtjSF1uMSlbTkhdQyg9TylbTkhdW0NIMl1bQ0BASF0yW0NIMl1bQ0gyXVtDSDJdW0NASF0yW09IXQ==

> <s_epik_cmdline>
J2VwaWtfcHl0aG9uJywgJy1waCcsICc3LjAnLCAnLXRuJywgJzgnLCAnLW1hJywgJzIwMCcsICctbWV0YWxfYmluZGluZycsICctaW1hZScsICc8aW5maWxlLm1hZT4nLCAnLW9tYWUnLCAnPG91dGZpbGUubWFlPic=

> <r_lp_tautomer_probability>
0.999994

> <r_epik_Ionization_Penalty>
0.266135

> <r_epik_Ionization_Penalty_Charging>
0.266113

> <r_epik_Ionization_Penalty_Neutral>
2.14137e-05

> <r_epik_State_Penalty>
0.258052

> <r_epik_Charging_Adjusted_Penalty>
0.524165

> <i_epik_Tot_Q>
1

> <i_epik_Tot_abs_Q>
1

> <r_epik_Metal_State_Penalty>
0.544313

> <b_epik_Metal_Only>
0

> <s_lp_Force_Field>
OPLS_2005

> <r_lp_Energy>
32.5934

> <b_lp_Chiralities_Consistent>
1

> <s_lp_Variant>
AV-unprocessed.smi:694-1

> <Gold.Version>
5.8.1

> <Gold.Id.Protein>
6NUR|6NUR_protein|mol2

> <Gold.PLP.Fitness>
49.2661

> <Gold.PLP.PLP>
-39.3623

> <Gold.PLP.part.hbond>
-5.0000

> <Gold.PLP.part.metal>
0.0000

> <Gold.PLP.part.buried>
1.2171

> <Gold.PLP.part.nonpolar>
-36.3913

> <Gold.PLP.part.repulsive>
0.4364

> <Gold.PLP.ligand.clash>
0.0000

> <Gold.PLP.ligand.torsion>
1.0485

> <Gold.PLP.Chemscore.Hbond>
3.9920

> <Gold.PLP.Chemscore.CHOScore>
0.0000

> <Gold.PLP.Chemscore.Metal>
0.0000

> <Gold.Chemscore.Hbonds>
donor molecule, donor type, donor heavy atom, donor atom, acceptor molecule, acceptor atom, score
      L1  H    11    30       P1  7948  0.96
      L1  H    18    41       P1 10175  1.00
      L1  H    20    43       P1  8028  2.00

> <Gold.PLP.Chemscore.Internal.Correction>
0.0247

> <Gold.Rescore>
     Score         DG    S(hbond)    S(metal)    S(lipo)     H(rot)  DE(clash)    DE(int)     intcor
     17.89     -20.54       2.87        0.00      85.11       1.75       1.49       1.17       ----

> <Gold.Chemscore.Fitness>
17.8875

> <Gold.Chemscore.DG>
-20.5422

> <Gold.Chemscore.ZeroCoef>
-5.4800

> <Gold.Chemscore.Hbond>
2.8684

> <Gold.Chemscore.Metal>
0.0000

> <Gold.Chemscore.Lipo>
85.1104

> <Gold.Chemscore.Internal_Hbond>
0.0000

> <Gold.Chemscore.DEClash>
1.4891

> <Gold.Chemscore.DEInternal>
1.1655

> <Gold.Chemscore.Rot>
1.7485

> <Gold.Chemscore.Internal.Correction>
   9.000000E+99

> <Gold.Chemscore.Hbonds>
donor molecule, donor type, donor heavy atom, donor atom, acceptor molecule, acceptor atom, score
      L1  H    11    30       P1  7948  0.92
      L1  H    18    41       P1 10175  0.99
      L1  H    20    43       P1  8028  0.95

> <Gold.Chemscore.Hbond.Weighted>
-9.5804

> <Gold.Chemscore.Metal.Weighted>
-0.0000

> <Gold.Chemscore.Lipo.Weighted>
-9.9579

> <Gold.Chemscore.Internal_Hbond.Weighted>
0.0000

> <Gold.Chemscore.DEClash.Weighted>
1.4891

> <Gold.Chemscore.DEInternal.Weighted>
1.1655

> <Gold.Chemscore.Rot.Weighted>
4.4762

> <Gold.Chemscore.Internal.Correction.Weighted>
   9.000000E+99

> <Gold.Protein.RotatedTorsions>
[ 6907 6896 6895 6894 ] final  -14.80 input  -60.11 | X-H torsion
[ 7974 7965 7964 7962 ] final  -91.38 input  175.53 | X-H torsion
[ 8008 7997 7996 7995 ] final  -55.45 input   59.86 | X-H torsion
[ 10167 10162 10161 10158 ] final  152.63 input  -65.29 | X-H torsion
[ 10718 10713 10712 10709 ] final  121.27 input   66.30 | X-H torsion
[ 10763 10752 10751 10750 ] final   25.04 input  -60.55 | X-H torsion
[ 11005 11000 10999 10996 ] final   71.76 input  -57.11 | X-H torsion

> <Gold.Protein.ActiveResidues>
 VAL166  LYS551  ARG553  GLY616  TRP617  ASP618  TYR619  PRO620  LYS621  CYS622 
 ASP623  PHE694  ASN695  SER759  ASP760  ASP761  ALA762  ILE779  LEU786  VAL792 
 PHE793  MET794  SER795  GLU796  ALA797  LYS798  CYS799  TRP800  GLU811  SER814 

> <Gold.Protein.RotatedAtoms>
  151.3337  135.0847  159.9347 H   0  0  0  0  0  0  0  0  0  0  0  0  # atno 6907 bound_to 6896
  152.5228  133.9517  159.7685 H   0  0  0  0  0  0  0  0  0  0  0  0  # atno 6908 bound_to 6896
  150.9860  133.6144  159.2745 H   0  0  0  0  0  0  0  0  0  0  0  0  # atno 6909 bound_to 6896
  145.4139  140.9547  143.2218 H   0  0  0  0  0  0  0  0  0  0  0  0  # atno 7974 bound_to 7965
  154.4195  140.1152  156.5479 H   0  0  0  0  0  0  0  0  0  0  0  0  # atno 8008 bound_to 7997
  155.6440  140.3496  155.4706 H   0  0  0  0  0  0  0  0  0  0  0  0  # atno 8009 bound_to 7997
  155.9847  140.1167  157.0684 H   0  0  0  0  0  0  0  0  0  0  0  0  # atno 8010 bound_to 7997
  139.4832  144.5342  151.7673 H   0  0  0  0  0  0  0  0  0  0  0  0  # atno 10167 bound_to 10162
  157.5830  131.1073  150.8150 H   0  0  0  0  0  0  0  0  0  0  0  0  # atno 10718 bound_to 10713
  153.0720  135.6592  154.0227 H   0  0  0  0  0  0  0  0  0  0  0  0  # atno 10763 bound_to 10752
  153.9870  135.2949  155.3417 H   0  0  0  0  0  0  0  0  0  0  0  0  # atno 10764 bound_to 10752
  154.7097  135.5210  153.8718 H   0  0  0  0  0  0  0  0  0  0  0  0  # atno 10765 bound_to 10752
  139.9526  134.7200  156.0827 H   0  0  0  0  0  0  0  0  0  0  0  0  # atno 11005 bound_to 11000
  144.8290  139.5661  143.6952 LP  0  0  0  0  0  0  0  0  0  0  0  0  # atno 17320 bound_to 7965
  146.2691  139.6590  142.9309 LP  0  0  0  0  0  0  0  0  0  0  0  0  # atno 17321 bound_to 7965
  140.4872  144.1363  150.5943 LP  0  0  0  0  0  0  0  0  0  0  0  0  # atno 17342 bound_to 10162
  140.4212  143.2611  151.9713 LP  0  0  0  0  0  0  0  0  0  0  0  0  # atno 17343 bound_to 10162
  156.8591  130.5107  149.5305 LP  0  0  0  0  0  0  0  0  0  0  0  0  # atno 17370 bound_to 10713
  156.0877  130.5871  150.9678 LP  0  0  0  0  0  0  0  0  0  0  0  0  # atno 17371 bound_to 10713
  141.1192  133.6618  156.3171 LP  0  0  0  0  0  0  0  0  0  0  0  0  # atno 17394 bound_to 11000
  140.5683  134.5865  157.5451 LP  0  0  0  0  0  0  0  0  0  0  0  0  # atno 17395 bound_to 11000

$$$$
