AV-unprocessed.smi:1106|AV-procd|sdf|4777|dock10
  -GOLD-   22720 3313D 1   1.00000     0.00000
 Structure written by MMmdl.
 48 49  0  0  0  0  0  0  0  0  2 V2000
  152.4984  141.8904  160.0787 C   0  0  0  0  0  0  0  0  0  0  0  0
  151.4647  141.0019  159.3706 C   0  0  0  0  0  0  0  0  0  0  0  0
  152.0555  139.8605  158.7213 N   0  0  0  0  0  0  0  0  0  0  0  0
  152.7993  138.9312  159.4224 C   0  0  0  0  0  0  0  0  0  0  0  0
  153.3675  137.8552  158.8368 C   0  0  0  0  0  0  0  0  0  0  0  0
  154.1267  136.9075  159.5835 C   0  0  0  0  0  0  0  0  0  0  0  0
  154.7238  136.1264  160.1939 N   0  0  0  0  0  0  0  0  0  0  0  0
  153.2282  137.6144  157.4025 C   0  0  0  0  0  0  0  0  0  0  0  0
  153.7119  136.6399  156.8231 O   0  0  0  0  0  0  0  0  0  0  0  0
  152.4750  138.5958  156.7102 N   0  0  0  0  0  0  0  0  0  0  0  0
  152.3055  138.4166  155.2753 C   0  0  0  0  0  0  0  0  0  0  0  0
  150.9258  137.8525  154.8677 C   0  0  2  0  0  0  0  0  0  0  0  0
  151.1544  136.7594  154.0021 O   0  0  0  0  0  0  0  0  0  0  0  0
  150.0289  138.8755  154.1381 C   0  0  0  0  0  0  0  0  0  0  0  0
  148.6946  138.3200  153.7968 N   0  3  2  0  0  0  0  0  0  0  0  0
  147.7619  139.3610  153.2941 C   0  0  0  0  0  0  0  0  0  0  0  0
  146.4381  138.7387  152.8181 C   0  0  0  0  0  0  0  0  0  0  0  0
  145.7720  137.9169  153.9347 C   0  0  1  0  0  0  0  0  0  0  0  0
  144.4649  137.2658  153.4608 C   0  0  0  0  0  0  0  0  0  0  0  0
  146.7719  136.8722  154.4578 C   0  0  0  0  0  0  0  0  0  0  0  0
  148.0874  137.5327  154.9031 C   0  0  0  0  0  0  0  0  0  0  0  0
  151.8703  139.7192  157.3262 C   0  0  0  0  0  0  0  0  0  0  0  0
  151.2030  140.5341  156.6833 O   0  0  0  0  0  0  0  0  0  0  0  0
  152.0078  142.7175  160.5920 H   0  0  0  0  0  0  0  0  0  0  0  0
  153.2125  142.3176  159.3741 H   0  0  0  0  0  0  0  0  0  0  0  0
  153.0594  141.3242  160.8227 H   0  0  0  0  0  0  0  0  0  0  0  0
  150.7478  140.6008  160.0884 H   0  0  0  0  0  0  0  0  0  0  0  0
  150.8857  141.5451  158.6214 H   0  0  0  0  0  0  0  0  0  0  0  0
  152.9315  139.0692  160.4861 H   0  0  0  0  0  0  0  0  0  0  0  0
  152.5164  139.3625  154.7744 H   0  0  0  0  0  0  0  0  0  0  0  0
  153.1126  137.7555  154.9527 H   0  0  0  0  0  0  0  0  0  0  0  0
  150.4241  137.4666  155.7541 H   0  0  0  0  0  0  0  0  0  0  0  0
  150.9506  137.0268  153.1184 H   0  0  0  0  0  0  0  0  0  0  0  0
  149.8865  139.7731  154.7404 H   0  0  0  0  0  0  0  0  0  0  0  0
  150.5433  139.1976  153.2312 H   0  0  0  0  0  0  0  0  0  0  0  0
  147.5741  140.0949  154.0798 H   0  0  0  0  0  0  0  0  0  0  0  0
  148.2218  139.8967  152.4625 H   0  0  0  0  0  0  0  0  0  0  0  0
  145.7638  139.5268  152.4808 H   0  0  0  0  0  0  0  0  0  0  0  0
  146.6267  138.1025  151.9519 H   0  0  0  0  0  0  0  0  0  0  0  0
  145.5265  138.5935  154.7549 H   0  0  0  0  0  0  0  0  0  0  0  0
  144.6412  136.5725  152.6377 H   0  0  0  0  0  0  0  0  0  0  0  0
  143.7545  138.0179  153.1162 H   0  0  0  0  0  0  0  0  0  0  0  0
  143.9884  136.7093  154.2682 H   0  0  0  0  0  0  0  0  0  0  0  0
  146.3361  136.3245  155.2943 H   0  0  0  0  0  0  0  0  0  0  0  0
  146.9796  136.1345  153.6810 H   0  0  0  0  0  0  0  0  0  0  0  0
  148.7738  136.7572  155.2411 H   0  0  0  0  0  0  0  0  0  0  0  0
  147.9060  138.1856  155.7584 H   0  0  0  0  0  0  0  0  0  0  0  0
  148.8456  137.6842  153.0260 H   0  0  0  0  0  0  0  0  0  0  0  0
  1  2  1  0  0  0  0
  1 24  1  0  0  0  0
  1 25  1  0  0  0  0
  1 26  1  0  0  0  0
  2  3  1  0  0  0  0
  2 27  1  0  0  0  0
  2 28  1  0  0  0  0
  3 22  1  0  0  0  0
  3  4  1  0  0  0  0
  4  5  2  0  0  0  0
  4 29  1  0  0  0  0
  5  6  1  0  0  0  0
  5  8  1  0  0  0  0
  6  7  3  0  0  0  0
  8  9  2  0  0  0  0
  8 10  1  0  0  0  0
 10 11  1  0  0  0  0
 10 22  1  0  0  0  0
 11 12  1  0  0  0  0
 11 30  1  0  0  0  0
 11 31  1  0  0  0  0
 12 13  1  0  0  0  0
 12 14  1  0  0  0  0
 12 32  1  0  0  0  0
 13 33  1  0  0  0  0
 14 15  1  0  0  0  0
 14 34  1  0  0  0  0
 14 35  1  0  0  0  0
 15 21  1  0  0  0  0
 15 16  1  0  0  0  0
 15 48  1  0  0  0  0
 16 17  1  0  0  0  0
 16 36  1  0  0  0  0
 16 37  1  0  0  0  0
 17 18  1  0  0  0  0
 17 38  1  0  0  0  0
 17 39  1  0  0  0  0
 18 19  1  0  0  0  0
 18 20  1  0  0  0  0
 18 40  1  0  0  0  0
 19 41  1  0  0  0  0
 19 42  1  0  0  0  0
 19 43  1  0  0  0  0
 20 21  1  0  0  0  0
 20 44  1  0  0  0  0
 20 45  1  0  0  0  0
 21 46  1  0  0  0  0
 21 47  1  0  0  0  0
 22 23  2  0  0  0  0
M  CHG  1  15   1
M  END
> <s_m_source_file>
AV-unprocessed.smi

> <i_m_source_file_index>
1106

> <i_lp_mmshare_version>
43012

> <i_f3d_flags>
0

> <s_epik_input>
W0NIM11bQ0gyXW4xW2NIXWMoQyNOKWMoPU8pbihjMT1PKVtDSDJdW0NASF0oW09IXSlbQ0gyXU4yW0NIMl1bQ0gyXVtDSF0oW0NIM10pW0NIMl1bQ0gyXTI=

> <s_epik_cmdline>
J2VwaWtfcHl0aG9uJywgJy1waCcsICc3LjAnLCAnLXRuJywgJzgnLCAnLW1hJywgJzIwMCcsICctbWV0YWxfYmluZGluZycsICctaW1hZScsICc8aW5maWxlLm1hZT4nLCAnLW9tYWUnLCAnPG91dGZpbGUubWFlPic=

> <r_epik_Ionization_Penalty>
0.00136816

> <r_epik_Ionization_Penalty_Charging>
0.00136813

> <r_epik_Ionization_Penalty_Neutral>
3.19882e-08

> <r_epik_State_Penalty>
0.000910892

> <r_epik_Charging_Adjusted_Penalty>
0.00227902

> <i_epik_Tot_Q>
1

> <i_epik_Tot_abs_Q>
1

> <r_epik_Metal_State_Penalty>
-0

> <b_epik_Metal_Only>
0

> <s_lp_Force_Field>
OPLS_2005

> <r_lp_Energy>
27.8711

> <b_lp_Chiralities_Consistent>
1

> <s_lp_Variant>
AV-unprocessed.smi:1106-1

> <Gold.Version>
5.8.1

> <Gold.Id.Protein>
6NUR|6NUR_protein|mol2

> <Gold.PLP.Fitness>
44.5872

> <Gold.PLP.PLP>
-31.9492

> <Gold.PLP.part.hbond>
-4.5797

> <Gold.PLP.part.metal>
0.0000

> <Gold.PLP.part.buried>
-1.6377

> <Gold.PLP.part.nonpolar>
-26.3703

> <Gold.PLP.part.repulsive>
0.0292

> <Gold.PLP.ligand.clash>
0.0000

> <Gold.PLP.ligand.torsion>
1.0393

> <Gold.PLP.Chemscore.Hbond>
4.8960

> <Gold.PLP.Chemscore.CHOScore>
0.0000

> <Gold.PLP.Chemscore.Metal>
0.0000

> <Gold.Chemscore.Hbonds>
donor molecule, donor type, donor heavy atom, donor atom, acceptor molecule, acceptor atom, score
      L1  H    13    33       P1  7949  0.53
      L1  H    15    48       P1  7948  2.00
      P1  H 10752 10764       L1    13  0.75
      P1  H 10752 10765       L1     9  0.83

> <Gold.PLP.Chemscore.Internal.Correction>
0.0286

> <Gold.Rescore>
     Score         DG    S(hbond)    S(metal)    S(lipo)     H(rot)  DE(clash)    DE(int)     intcor
     15.69     -17.18       3.01        0.00      68.54       2.48       0.17       1.32       ----

> <Gold.Chemscore.Fitness>
15.6911

> <Gold.Chemscore.DG>
-17.1824

> <Gold.Chemscore.ZeroCoef>
-5.4800

> <Gold.Chemscore.Hbond>
3.0065

> <Gold.Chemscore.Metal>
0.0000

> <Gold.Chemscore.Lipo>
68.5408

> <Gold.Chemscore.Internal_Hbond>
0.0000

> <Gold.Chemscore.DEClash>
0.1743

> <Gold.Chemscore.DEInternal>
1.3170

> <Gold.Chemscore.Rot>
2.4838

> <Gold.Chemscore.Internal.Correction>
   9.000000E+99

> <Gold.Chemscore.Hbonds>
donor molecule, donor type, donor heavy atom, donor atom, acceptor molecule, acceptor atom, score
      L1  H    13    33       P1  7949  0.12
      L1  H    15    48       P1  7948  1.00
      P1  H 10752 10764       L1    13  0.53
      P1  H 10752 10765       L1     9  0.82

> <Gold.Chemscore.Hbond.Weighted>
-10.0416

> <Gold.Chemscore.Metal.Weighted>
-0.0000

> <Gold.Chemscore.Lipo.Weighted>
-8.0193

> <Gold.Chemscore.Internal_Hbond.Weighted>
0.0000

> <Gold.Chemscore.DEClash.Weighted>
0.1743

> <Gold.Chemscore.DEInternal.Weighted>
1.3170

> <Gold.Chemscore.Rot.Weighted>
6.3585

> <Gold.Chemscore.Internal.Correction.Weighted>
   9.000000E+99

> <Gold.Protein.RotatedTorsions>
[ 6907 6896 6895 6894 ] final   15.57 input  -60.11 | X-H torsion
[ 7974 7965 7964 7962 ] final  -79.12 input  175.53 | X-H torsion
[ 8008 7997 7996 7995 ] final   97.35 input   59.86 | X-H torsion
[ 10167 10162 10161 10158 ] final   62.29 input  -65.29 | X-H torsion
[ 10718 10713 10712 10709 ] final   57.08 input   66.30 | X-H torsion
[ 10763 10752 10751 10750 ] final  -92.66 input  -60.55 | X-H torsion
[ 11005 11000 10999 10996 ] final -150.03 input  -57.11 | X-H torsion

> <Gold.Protein.ActiveResidues>
 VAL166  LYS551  ARG553  GLY616  TRP617  ASP618  TYR619  PRO620  LYS621  CYS622 
 ASP623  PHE694  ASN695  SER759  ASP760  ASP761  ALA762  ILE779  LEU786  VAL792 
 PHE793  MET794  SER795  GLU796  ALA797  LYS798  CYS799  TRP800  GLU811  SER814 

> <Gold.Protein.RotatedAtoms>
  151.8201  135.0654  160.0423 H   0  0  0  0  0  0  0  0  0  0  0  0  # atno 6907 bound_to 6896
  152.2957  133.5600  159.5594 H   0  0  0  0  0  0  0  0  0  0  0  0  # atno 6908 bound_to 6896
  150.7250  134.0280  159.3766 H   0  0  0  0  0  0  0  0  0  0  0  0  # atno 6909 bound_to 6896
  145.5775  140.9455  143.1362 H   0  0  0  0  0  0  0  0  0  0  0  0  # atno 7974 bound_to 7965
  156.0892  140.3259  155.7793 H   0  0  0  0  0  0  0  0  0  0  0  0  # atno 8008 bound_to 7997
  155.5025  140.0570  157.2954 H   0  0  0  0  0  0  0  0  0  0  0  0  # atno 8009 bound_to 7997
  154.4627  140.1974  156.0217 H   0  0  0  0  0  0  0  0  0  0  0  0  # atno 8010 bound_to 7997
  140.1455  144.4512  150.6787 H   0  0  0  0  0  0  0  0  0  0  0  0  # atno 10167 bound_to 10162
  157.5485  130.8748  149.8927 H   0  0  0  0  0  0  0  0  0  0  0  0  # atno 10718 bound_to 10713
  154.6883  135.5223  153.8357 H   0  0  0  0  0  0  0  0  0  0  0  0  # atno 10763 bound_to 10752
  153.0614  135.6569  154.0464 H   0  0  0  0  0  0  0  0  0  0  0  0  # atno 10764 bound_to 10752
  154.0342  135.2982  155.3344 H   0  0  0  0  0  0  0  0  0  0  0  0  # atno 10765 bound_to 10752
  140.7444  134.3477  157.5140 H   0  0  0  0  0  0  0  0  0  0  0  0  # atno 11005 bound_to 11000
  144.7409  139.7451  143.7311 LP  0  0  0  0  0  0  0  0  0  0  0  0  # atno 17320 bound_to 7965
  146.1740  139.4903  142.9909 LP  0  0  0  0  0  0  0  0  0  0  0  0  # atno 17321 bound_to 7965
  140.6734  143.2295  151.5568 LP  0  0  0  0  0  0  0  0  0  0  0  0  # atno 17342 bound_to 10162
  139.5451  144.2543  152.1426 LP  0  0  0  0  0  0  0  0  0  0  0  0  # atno 17343 bound_to 10162
  156.0556  130.3709  150.1099 LP  0  0  0  0  0  0  0  0  0  0  0  0  # atno 17370 bound_to 10713
  156.9273  130.9702  151.3539 LP  0  0  0  0  0  0  0  0  0  0  0  0  # atno 17371 bound_to 10713
  139.8799  134.9102  156.3008 LP  0  0  0  0  0  0  0  0  0  0  0  0  # atno 17394 bound_to 11000
  140.9807  133.7269  156.0668 LP  0  0  0  0  0  0  0  0  0  0  0  0  # atno 17395 bound_to 11000

$$$$
