AV-unprocessed.smi:1734|AV-procd|sdf|6987|dock3
  -GOLD-   22720 8203D 1   1.00000     0.00000
 Structure written by MMmdl.
 51 53  0  0  0  0  0  0  0  0  2 V2000
  145.3194  135.7822  150.9295 C   0  0  0  0  0  0  0  0  0  0  0  0
  145.1938  134.2715  151.0439 C   0  0  0  0  0  0  0  0  0  0  0  0
  144.2171  133.6001  150.2781 C   0  0  0  0  0  0  0  0  0  0  0  0
  144.1016  132.2038  150.3862 C   0  0  0  0  0  0  0  0  0  0  0  0
  144.9743  131.5334  151.2603 C   0  0  0  0  0  0  0  0  0  0  0  0
  145.9111  132.1669  151.9953 N   0  0  0  0  0  0  0  0  0  0  0  0
  146.0345  133.5151  151.9038 C   0  0  0  0  0  0  0  0  0  0  0  0
  146.9973  134.2500  152.6513 N   0  0  0  0  0  0  0  0  0  0  0  0
  147.1406  134.3236  153.9861 C   0  0  0  0  0  0  0  0  0  0  0  0
  146.4344  133.7492  154.8154 O   0  0  0  0  0  0  0  0  0  0  0  0
  148.1788  135.1032  154.3206 N   0  0  0  0  0  0  0  0  0  0  0  0
  148.6189  135.3559  155.6879 C   0  0  0  0  0  0  0  0  0  0  0  0
  148.2775  136.7856  156.1980 C   0  0  1  0  0  0  0  0  0  0  0  0
  148.4650  136.9652  157.7315 C   0  0  1  0  0  0  0  0  0  0  0  0
  147.7100  135.9497  158.5747 C   0  0  0  0  0  0  0  0  0  0  0  0
  148.4014  136.0730  159.9267 C   0  0  0  0  0  0  0  0  0  0  0  0
  149.7611  136.3603  159.6276 O   0  0  0  0  0  0  0  0  0  0  0  0
  149.8883  136.7466  158.2629 C   0  0  0  0  0  0  0  0  0  0  0  0
  149.0463  137.8346  155.4627 N   0  3  0  0  0  0  0  0  0  0  0  0
  148.7262  139.2430  155.8082 C   0  0  0  0  0  0  0  0  0  0  0  0
  149.4575  140.1946  154.8470 C   0  0  0  0  0  0  0  0  0  0  0  0
  150.8581  139.9527  154.9120 O   0  0  0  0  0  0  0  0  0  0  0  0
  151.1934  138.6274  154.5166 C   0  0  0  0  0  0  0  0  0  0  0  0
  150.5139  137.6173  155.4567 C   0  0  0  0  0  0  0  0  0  0  0  0
  144.6060  136.1864  150.2107 H   0  0  0  0  0  0  0  0  0  0  0  0
  146.3210  136.0592  150.5990 H   0  0  0  0  0  0  0  0  0  0  0  0
  145.1283  136.2542  151.8937 H   0  0  0  0  0  0  0  0  0  0  0  0
  143.5619  134.1456  149.6148 H   0  0  0  0  0  0  0  0  0  0  0  0
  143.3636  131.6612  149.8142 H   0  0  0  0  0  0  0  0  0  0  0  0
  144.9193  130.4607  151.3728 H   0  0  0  0  0  0  0  0  0  0  0  0
  147.6605  134.7742  152.1001 H   0  0  0  0  0  0  0  0  0  0  0  0
  148.7063  135.5425  153.5801 H   0  0  0  0  0  0  0  0  0  0  0  0
  148.1439  134.6058  156.3202 H   0  0  0  0  0  0  0  0  0  0  0  0
  149.6910  135.1641  155.7423 H   0  0  0  0  0  0  0  0  0  0  0  0
  147.2245  136.9808  155.9898 H   0  0  0  0  0  0  0  0  0  0  0  0
  148.1438  137.9643  158.0293 H   0  0  0  0  0  0  0  0  0  0  0  0
  146.6398  136.1496  158.6368 H   0  0  0  0  0  0  0  0  0  0  0  0
  147.8469  134.9434  158.1758 H   0  0  0  0  0  0  0  0  0  0  0  0
  147.9853  136.9076  160.4923 H   0  0  0  0  0  0  0  0  0  0  0  0
  148.3055  135.1707  160.5311 H   0  0  0  0  0  0  0  0  0  0  0  0
  150.3839  135.9354  157.7279 H   0  0  0  0  0  0  0  0  0  0  0  0
  150.5090  137.6385  158.1766 H   0  0  0  0  0  0  0  0  0  0  0  0
  147.6529  139.4190  155.7459 H   0  0  0  0  0  0  0  0  0  0  0  0
  149.0317  139.4614  156.8321 H   0  0  0  0  0  0  0  0  0  0  0  0
  149.0998  140.0663  153.8238 H   0  0  0  0  0  0  0  0  0  0  0  0
  149.2648  141.2312  155.1241 H   0  0  0  0  0  0  0  0  0  0  0  0
  150.8951  138.4579  153.4807 H   0  0  0  0  0  0  0  0  0  0  0  0
  152.2764  138.5098  154.5587 H   0  0  0  0  0  0  0  0  0  0  0  0
  150.9162  137.7260  156.4642 H   0  0  0  0  0  0  0  0  0  0  0  0
  150.7423  136.6029  155.1277 H   0  0  0  0  0  0  0  0  0  0  0  0
  148.7674  137.7232  154.4984 H   0  0  0  0  0  0  0  0  0  0  0  0
  1  2  1  0  0  0  0
  1 25  1  0  0  0  0
  1 26  1  0  0  0  0
  1 27  1  0  0  0  0
  2  7  1  0  0  0  0
  2  3  2  0  0  0  0
  3  4  1  0  0  0  0
  3 28  1  0  0  0  0
  4  5  2  0  0  0  0
  4 29  1  0  0  0  0
  5  6  1  0  0  0  0
  5 30  1  0  0  0  0
  6  7  2  0  0  0  0
  7  8  1  0  0  0  0
  8  9  1  0  0  0  0
  8 31  1  0  0  0  0
  9 10  2  0  0  0  0
  9 11  1  0  0  0  0
 11 12  1  0  0  0  0
 11 32  1  0  0  0  0
 12 13  1  0  0  0  0
 12 33  1  0  0  0  0
 12 34  1  0  0  0  0
 13 14  1  0  0  0  0
 13 19  1  0  0  0  0
 13 35  1  0  0  0  0
 14 18  1  0  0  0  0
 14 15  1  0  0  0  0
 14 36  1  0  0  0  0
 15 16  1  0  0  0  0
 15 37  1  0  0  0  0
 15 38  1  0  0  0  0
 16 17  1  0  0  0  0
 16 39  1  0  0  0  0
 16 40  1  0  0  0  0
 17 18  1  0  0  0  0
 18 41  1  0  0  0  0
 18 42  1  0  0  0  0
 19 24  1  0  0  0  0
 19 20  1  0  0  0  0
 19 51  1  0  0  0  0
 20 21  1  0  0  0  0
 20 43  1  0  0  0  0
 20 44  1  0  0  0  0
 21 22  1  0  0  0  0
 21 45  1  0  0  0  0
 21 46  1  0  0  0  0
 22 23  1  0  0  0  0
 23 24  1  0  0  0  0
 23 47  1  0  0  0  0
 23 48  1  0  0  0  0
 24 49  1  0  0  0  0
 24 50  1  0  0  0  0
M  CHG  1  19   1
M  END
> <s_m_source_file>
AV-unprocessed.smi

> <i_m_source_file_index>
1734

> <i_lp_mmshare_version>
43012

> <i_f3d_flags>
0

> <s_epik_input>
W0NIM11jMVtjSF1bY0hdW2NIXW5jMVtOSF1DKD1PKVtOSF1bQ0gyXVtDQEhdKFtDQEBIXTJbQ0gyXVtDSDJdT1tDSDJdMilOM1tDSDJdW0NIMl1PW0NIMl1bQ0gyXTM=

> <s_epik_cmdline>
J2VwaWtfcHl0aG9uJywgJy1waCcsICc3LjAnLCAnLXRuJywgJzgnLCAnLW1hJywgJzIwMCcsICctbWV0YWxfYmluZGluZycsICctaW1hZScsICc8aW5maWxlLm1hZT4nLCAnLW9tYWUnLCAnPG91dGZpbGUubWFlPic=

> <r_epik_Ionization_Penalty>
0.983302

> <r_epik_Ionization_Penalty_Charging>
0.98326

> <r_epik_Ionization_Penalty_Neutral>
4.21967e-05

> <r_epik_State_Penalty>
1.0303

> <r_epik_Charging_Adjusted_Penalty>
2.01356

> <i_epik_Tot_Q>
1

> <i_epik_Tot_abs_Q>
1

> <r_epik_Metal_State_Penalty>
1.03031

> <b_epik_Metal_Only>
0

> <s_lp_Force_Field>
OPLS_2005

> <r_lp_Energy>
38.82

> <b_lp_Chiralities_Consistent>
1

> <s_lp_Variant>
AV-unprocessed.smi:1734-8

> <Gold.Version>
5.8.1

> <Gold.Id.Protein>
6NUR|6NUR_protein|mol2

> <Gold.PLP.Fitness>
46.1684

> <Gold.PLP.PLP>
-35.1094

> <Gold.PLP.part.hbond>
-4.0000

> <Gold.PLP.part.metal>
0.0000

> <Gold.PLP.part.buried>
-7.2316

> <Gold.PLP.part.nonpolar>
-23.9015

> <Gold.PLP.part.repulsive>
0.2564

> <Gold.PLP.ligand.clash>
0.0000

> <Gold.PLP.ligand.torsion>
0.7583

> <Gold.PLP.Chemscore.Hbond>
3.9920

> <Gold.PLP.Chemscore.CHOScore>
0.0000

> <Gold.PLP.Chemscore.Metal>
0.0000

> <Gold.Chemscore.Hbonds>
donor molecule, donor type, donor heavy atom, donor atom, acceptor molecule, acceptor atom, score
      L1  H     8    31       P1  7948  1.00
      L1  H    11    32       P1  7948  1.00
      P1  H  6896  6907       L1    17  1.00
      P1  H  7989  7998       L1    22  0.95

> <Gold.PLP.Chemscore.Internal.Correction>
0.5996

> <Gold.Rescore>
     Score         DG    S(hbond)    S(metal)    S(lipo)     H(rot)  DE(clash)    DE(int)     intcor
     17.47     -18.83       2.45        0.00      81.24       1.70       0.48       0.88       ----

> <Gold.Chemscore.Fitness>
17.4657

> <Gold.Chemscore.DG>
-18.8250

> <Gold.Chemscore.ZeroCoef>
-5.4800

> <Gold.Chemscore.Hbond>
2.4516

> <Gold.Chemscore.Metal>
0.0000

> <Gold.Chemscore.Lipo>
81.2417

> <Gold.Chemscore.Internal_Hbond>
0.0000

> <Gold.Chemscore.DEClash>
0.4818

> <Gold.Chemscore.DEInternal>
0.8775

> <Gold.Chemscore.Rot>
1.6986

> <Gold.Chemscore.Internal.Correction>
   9.000000E+99

> <Gold.Chemscore.Hbonds>
donor molecule, donor type, donor heavy atom, donor atom, acceptor molecule, acceptor atom, score
      L1  H     8    31       P1  7948  0.68
      L1  H    11    32       P1  7948  0.94
      P1  H  6896  6907       L1    17  0.35
      P1  H  7989  7998       L1    22  0.13

> <Gold.Chemscore.Hbond.Weighted>
-8.1882

> <Gold.Chemscore.Metal.Weighted>
-0.0000

> <Gold.Chemscore.Lipo.Weighted>
-9.5053

> <Gold.Chemscore.Internal_Hbond.Weighted>
0.0000

> <Gold.Chemscore.DEClash.Weighted>
0.4818

> <Gold.Chemscore.DEInternal.Weighted>
0.8775

> <Gold.Chemscore.Rot.Weighted>
4.3485

> <Gold.Chemscore.Internal.Correction.Weighted>
   9.000000E+99

> <Gold.Protein.RotatedTorsions>
[ 6907 6896 6895 6894 ] final  -47.51 input  -60.11 | X-H torsion
[ 7974 7965 7964 7962 ] final -176.81 input  175.53 | X-H torsion
[ 8008 7997 7996 7995 ] final  117.31 input   59.86 | X-H torsion
[ 10167 10162 10161 10158 ] final   92.85 input  -65.29 | X-H torsion
[ 10718 10713 10712 10709 ] final   59.94 input   66.30 | X-H torsion
[ 10763 10752 10751 10750 ] final   77.60 input  -60.55 | X-H torsion
[ 11005 11000 10999 10996 ] final   36.15 input  -57.11 | X-H torsion

> <Gold.Protein.ActiveResidues>
 VAL166  LYS551  ARG553  GLY616  TRP617  ASP618  TYR619  PRO620  LYS621  CYS622 
 ASP623  PHE694  ASN695  SER759  ASP760  ASP761  ALA762  ILE779  LEU786  VAL792 
 PHE793  MET794  SER795  GLU796  ALA797  LYS798  CYS799  TRP800  GLU811  SER814 

> <Gold.Protein.RotatedAtoms>
  150.9000  134.8412  159.7353 H   0  0  0  0  0  0  0  0  0  0  0  0  # atno 6907 bound_to 6896
  152.4887  134.4516  159.9586 H   0  0  0  0  0  0  0  0  0  0  0  0  # atno 6908 bound_to 6896
  151.4569  133.3563  159.2838 H   0  0  0  0  0  0  0  0  0  0  0  0  # atno 6909 bound_to 6896
  144.7127  140.1113  143.6411 H   0  0  0  0  0  0  0  0  0  0  0  0  # atno 7974 bound_to 7965
  156.2487  140.2899  156.0659 H   0  0  0  0  0  0  0  0  0  0  0  0  # atno 8008 bound_to 7997
  155.1725  140.0402  157.2883 H   0  0  0  0  0  0  0  0  0  0  0  0  # atno 8009 bound_to 7997
  154.6316  140.2500  155.7434 H   0  0  0  0  0  0  0  0  0  0  0  0  # atno 8010 bound_to 7997
  139.8237  144.6719  150.9486 H   0  0  0  0  0  0  0  0  0  0  0  0  # atno 10167 bound_to 10162
  157.5714  130.8910  149.9274 H   0  0  0  0  0  0  0  0  0  0  0  0  # atno 10718 bound_to 10713
  153.0810  135.4908  154.8503 H   0  0  0  0  0  0  0  0  0  0  0  0  # atno 10763 bound_to 10752
  154.7151  135.3028  154.9139 H   0  0  0  0  0  0  0  0  0  0  0  0  # atno 10764 bound_to 10752
  153.9820  135.6788  153.4803 H   0  0  0  0  0  0  0  0  0  0  0  0  # atno 10765 bound_to 10752
  140.2355  134.3477  155.7946 H   0  0  0  0  0  0  0  0  0  0  0  0  # atno 11005 bound_to 11000
  145.9452  139.2696  143.1245 LP  0  0  0  0  0  0  0  0  0  0  0  0  # atno 17320 bound_to 7965
  145.9382  140.8999  143.0321 LP  0  0  0  0  0  0  0  0  0  0  0  0  # atno 17321 bound_to 7965
  140.7811  143.4067  151.1060 LP  0  0  0  0  0  0  0  0  0  0  0  0  # atno 17342 bound_to 10162
  139.7725  143.8473  152.3123 LP  0  0  0  0  0  0  0  0  0  0  0  0  # atno 17343 bound_to 10162
  156.0760  130.3679  150.0677 LP  0  0  0  0  0  0  0  0  0  0  0  0  # atno 17370 bound_to 10713
  156.8830  130.9563  151.3597 LP  0  0  0  0  0  0  0  0  0  0  0  0  # atno 17371 bound_to 10713
  141.2215  133.7269  156.8800 LP  0  0  0  0  0  0  0  0  0  0  0  0  # atno 17394 bound_to 11000
  140.1707  134.9102  157.2829 LP  0  0  0  0  0  0  0  0  0  0  0  0  # atno 17395 bound_to 11000

$$$$
