AV-unprocessed.smi:3228|AV-procd|sdf|12323|dock5
  -GOLD-   2272018173D 1   1.00000     0.00000
 Structure written by MMmdl.
 30 31  0  0  0  0  0  0  0  0  2 V2000
  152.8191  139.8917  155.0048 O   0  0  0  0  0  0  0  0  0  0  0  0
  152.1546  139.8085  156.0403 C   0  0  0  0  0  0  0  0  0  0  0  0
  150.8920  139.3643  155.9881 N   0  0  0  0  0  0  0  0  0  0  0  0
  150.1960  138.9490  154.7762 C   0  0  0  0  0  0  0  0  0  0  0  0
  148.8543  139.6882  154.6295 C   0  0  2  0  0  0  0  0  0  0  0  0
  147.9251  139.0912  153.5594 C   0  0  0  0  0  0  0  0  0  0  0  0
  147.0771  140.2539  153.0192 C   0  0  0  0  0  0  0  0  0  0  0  0
  147.6024  141.5239  153.6986 C   0  0  0  0  0  0  0  0  0  0  0  0
  148.9968  141.1533  154.2051 C   0  0  1  0  0  0  0  0  0  0  0  0
  149.3953  141.9869  155.2738 O   0  0  0  0  0  0  0  0  0  0  0  0
  152.5691  140.1269  157.2879 N   0  5  0  0  0  0  0  0  0  0  0  0
  152.3001  141.3406  157.7961 C   0  0  0  0  0  0  0  0  0  0  0  0
  151.4254  142.1870  157.2399 N   0  0  0  0  0  0  0  0  0  0  0  0
  151.2951  143.3889  157.9381 C   0  0  0  0  0  0  0  0  0  0  0  0
  152.0818  143.4555  159.0574 C   0  0  0  0  0  0  0  0  0  0  0  0
  153.0159  142.0019  159.2690 S   0  0  0  0  0  0  0  0  0  0  0  0
  150.3792  139.3103  156.8557 H   0  0  0  0  0  0  0  0  0  0  0  0
  150.8313  139.1550  153.9135 H   0  0  0  0  0  0  0  0  0  0  0  0
  150.0313  137.8705  154.8020 H   0  0  0  0  0  0  0  0  0  0  0  0
  148.3260  139.6578  155.5848 H   0  0  0  0  0  0  0  0  0  0  0  0
  148.5111  138.6647  152.7439 H   0  0  0  0  0  0  0  0  0  0  0  0
  147.3076  138.2893  153.9660 H   0  0  0  0  0  0  0  0  0  0  0  0
  147.1912  140.3253  151.9370 H   0  0  0  0  0  0  0  0  0  0  0  0
  146.0162  140.1098  153.2259 H   0  0  0  0  0  0  0  0  0  0  0  0
  147.6157  142.3842  153.0286 H   0  0  0  0  0  0  0  0  0  0  0  0
  146.9531  141.7711  154.5400 H   0  0  0  0  0  0  0  0  0  0  0  0
  149.7173  141.2401  153.3900 H   0  0  0  0  0  0  0  0  0  0  0  0
  148.9106  142.7962  155.2191 H   0  0  0  0  0  0  0  0  0  0  0  0
  150.6169  144.1424  157.5663 H   0  0  0  0  0  0  0  0  0  0  0  0
  152.1679  144.2642  159.7670 H   0  0  0  0  0  0  0  0  0  0  0  0
  1  2  2  0  0  0  0
  2  3  1  0  0  0  0
  2 11  1  0  0  0  0
  3  4  1  0  0  0  0
  3 17  1  0  0  0  0
  4  5  1  0  0  0  0
  4 18  1  0  0  0  0
  4 19  1  0  0  0  0
  5  9  1  0  0  0  0
  5  6  1  0  0  0  0
  5 20  1  0  0  0  0
  6  7  1  0  0  0  0
  6 21  1  0  0  0  0
  6 22  1  0  0  0  0
  7  8  1  0  0  0  0
  7 23  1  0  0  0  0
  7 24  1  0  0  0  0
  8  9  1  0  0  0  0
  8 25  1  0  0  0  0
  8 26  1  0  0  0  0
  9 10  1  0  0  0  0
  9 27  1  0  0  0  0
 10 28  1  0  0  0  0
 11 12  1  0  0  0  0
 12 16  1  0  0  0  0
 12 13  2  0  0  0  0
 13 14  1  0  0  0  0
 14 15  2  0  0  0  0
 14 29  1  0  0  0  0
 15 16  1  0  0  0  0
 15 30  1  0  0  0  0
M  CHG  1  11  -1
M  END
> <s_m_source_file>
AV-unprocessed.smi

> <i_m_source_file_index>
3228

> <i_lp_mmshare_version>
43012

> <i_f3d_flags>
0

> <s_epik_input>
czFbY0hdW2NIXW5jMVtOSF1DKD1PKVtOSF1bQ0gyXVtDQEBIXTJbQ0gyXVtDSDJdW0NIMl1bQ0BIXTJbT0hd

> <s_epik_cmdline>
J2VwaWtfcHl0aG9uJywgJy1waCcsICc3LjAnLCAnLXRuJywgJzgnLCAnLW1hJywgJzIwMCcsICctbWV0YWxfYmluZGluZycsICctaW1hZScsICc8aW5maWxlLm1hZT4nLCAnLW9tYWUnLCAnPG91dGZpbGUubWFlPic=

> <r_lp_tautomer_probability>
0.999

> <r_epik_Ionization_Penalty>
8.49756

> <r_epik_Ionization_Penalty_Charging>
6.79645

> <r_epik_Ionization_Penalty_Neutral>
1.70111

> <r_epik_State_Penalty>
6.79662

> <r_epik_Charging_Adjusted_Penalty>
13.5931

> <i_epik_Tot_Q>
-1

> <i_epik_Tot_abs_Q>
1

> <r_epik_Metal_State_Penalty>
2.71629

> <b_epik_Metal_Only>
1

> <s_lp_Force_Field>
OPLS_2005

> <r_lp_Energy>
18.1026

> <b_lp_Chiralities_Consistent>
1

> <s_lp_Variant>
AV-unprocessed.smi:3228-5

> <Gold.Version>
5.8.1

> <Gold.Id.Protein>
6NUR|6NUR_protein|mol2

> <Gold.PLP.Fitness>
38.9395

> <Gold.PLP.PLP>
-30.5983

> <Gold.PLP.part.hbond>
-4.0000

> <Gold.PLP.part.metal>
0.0000

> <Gold.PLP.part.buried>
-1.5092

> <Gold.PLP.part.nonpolar>
-24.2490

> <Gold.PLP.part.repulsive>
0.1475

> <Gold.PLP.ligand.clash>
0.0000

> <Gold.PLP.ligand.torsion>
0.8899

> <Gold.PLP.Chemscore.Hbond>
2.3709

> <Gold.PLP.Chemscore.CHOScore>
1.0000

> <Gold.PLP.Chemscore.Metal>
0.0000

> <Gold.Chemscore.Hbonds>
donor molecule, donor type, donor heavy atom, donor atom, acceptor molecule, acceptor atom, score
      L1  H    10    28       P1  8028  0.94
      P1  H  7989  7998       L1     1  0.35
      P1  H  7997  8010       L1     1  0.95
      L1  C    14    29       P1  8028  0.80

> <Gold.PLP.Chemscore.Internal.Correction>
0.0085

> <Gold.Rescore>
     Score         DG    S(hbond)    S(metal)    S(lipo)     H(rot)  DE(clash)    DE(int)     intcor
     14.09     -15.23       1.76        0.00      73.51       1.85       0.11       1.03       ----

> <Gold.Chemscore.Fitness>
14.0862

> <Gold.Chemscore.DG>
-15.2306

> <Gold.Chemscore.ZeroCoef>
-5.4800

> <Gold.Chemscore.Hbond>
1.7609

> <Gold.Chemscore.Metal>
0.0000

> <Gold.Chemscore.Lipo>
73.5074

> <Gold.Chemscore.Internal_Hbond>
0.0000

> <Gold.Chemscore.DEClash>
0.1128

> <Gold.Chemscore.DEInternal>
1.0316

> <Gold.Chemscore.Rot>
1.8481

> <Gold.Chemscore.Internal.Correction>
   9.000000E+99

> <Gold.Chemscore.Hbonds>
donor molecule, donor type, donor heavy atom, donor atom, acceptor molecule, acceptor atom, score
      L1  H    10    28       P1  8028  0.89
      P1  H  7989  7998       L1     1  0.26
      P1  H  7997  8010       L1     1  0.22

> <Gold.Chemscore.Hbond.Weighted>
-5.8815

> <Gold.Chemscore.Metal.Weighted>
-0.0000

> <Gold.Chemscore.Lipo.Weighted>
-8.6004

> <Gold.Chemscore.Internal_Hbond.Weighted>
0.0000

> <Gold.Chemscore.DEClash.Weighted>
0.1128

> <Gold.Chemscore.DEInternal.Weighted>
1.0316

> <Gold.Chemscore.Rot.Weighted>
4.7313

> <Gold.Chemscore.Internal.Correction.Weighted>
   9.000000E+99

> <Gold.Protein.RotatedTorsions>
[ 6907 6896 6895 6894 ] final -164.91 input  -60.11 | X-H torsion
[ 7974 7965 7964 7962 ] final   77.15 input  175.53 | X-H torsion
[ 8008 7997 7996 7995 ] final  111.97 input   59.86 | X-H torsion
[ 10167 10162 10161 10158 ] final -153.72 input  -65.29 | X-H torsion
[ 10718 10713 10712 10709 ] final  163.30 input   66.30 | X-H torsion
[ 10763 10752 10751 10750 ] final  122.54 input  -60.55 | X-H torsion
[ 11005 11000 10999 10996 ] final -105.06 input  -57.11 | X-H torsion

> <Gold.Protein.ActiveResidues>
 VAL166  LYS551  ARG553  GLY616  TRP617  ASP618  TYR619  PRO620  LYS621  CYS622 
 ASP623  PHE694  ASN695  SER759  ASP760  ASP761  ALA762  ILE779  LEU786  VAL792 
 PHE793  MET794  SER795  GLU796  ALA797  LYS798  CYS799  TRP800  GLU811  SER814 

> <Gold.Protein.RotatedAtoms>
  151.4193  133.3703  159.2753 H   0  0  0  0  0  0  0  0  0  0  0  0  # atno 6907 bound_to 6896
  150.9305  134.8721  159.7559 H   0  0  0  0  0  0  0  0  0  0  0  0  # atno 6908 bound_to 6896
  152.5025  134.4138  159.9509 H   0  0  0  0  0  0  0  0  0  0  0  0  # atno 6909 bound_to 6896
  145.6937  139.2560  143.1745 H   0  0  0  0  0  0  0  0  0  0  0  0  # atno 7974 bound_to 7965
  156.2161  140.3008  155.9842 H   0  0  0  0  0  0  0  0  0  0  0  0  # atno 8008 bound_to 7997
  155.2602  140.0429  157.3013 H   0  0  0  0  0  0  0  0  0  0  0  0  # atno 8009 bound_to 7997
  154.5769  140.2364  155.8117 H   0  0  0  0  0  0  0  0  0  0  0  0  # atno 8010 bound_to 7997
  139.7073  143.9165  152.2454 H   0  0  0  0  0  0  0  0  0  0  0  0  # atno 10167 bound_to 10162
  157.1105  131.0466  151.2459 H   0  0  0  0  0  0  0  0  0  0  0  0  # atno 10718 bound_to 10713
  153.6314  135.3395  155.3043 H   0  0  0  0  0  0  0  0  0  0  0  0  # atno 10763 bound_to 10752
  154.8579  135.4296  154.2102 H   0  0  0  0  0  0  0  0  0  0  0  0  # atno 10764 bound_to 10752
  153.2998  135.7023  153.7287 H   0  0  0  0  0  0  0  0  0  0  0  0  # atno 10765 bound_to 10752
  141.1071  133.8775  157.1687 H   0  0  0  0  0  0  0  0  0  0  0  0  # atno 11005 bound_to 11000
  146.0859  140.7711  142.9618 LP  0  0  0  0  0  0  0  0  0  0  0  0  # atno 17320 bound_to 7965
  144.6989  140.3562  143.7172 LP  0  0  0  0  0  0  0  0  0  0  0  0  # atno 17321 bound_to 7965
  139.9024  144.6904  150.8650 LP  0  0  0  0  0  0  0  0  0  0  0  0  # atno 17342 bound_to 10162
  140.7725  143.3503  151.2027 LP  0  0  0  0  0  0  0  0  0  0  0  0  # atno 17343 bound_to 10162
  157.4563  130.7627  149.7196 LP  0  0  0  0  0  0  0  0  0  0  0  0  # atno 17370 bound_to 10713
  155.9851  130.3985  150.3275 LP  0  0  0  0  0  0  0  0  0  0  0  0  # atno 17371 bound_to 10713
  139.9947  135.0051  157.0055 LP  0  0  0  0  0  0  0  0  0  0  0  0  # atno 17394 bound_to 11000
  140.4873  134.1229  155.7226 LP  0  0  0  0  0  0  0  0  0  0  0  0  # atno 17395 bound_to 11000

$$$$
