AV-unprocessed.smi:3241|AV-procd|sdf|12385|dock5
  -GOLD-   2272018253D 1   1.00000     0.00000
 Structure written by MMmdl.
 44 45  0  0  0  0  0  0  0  0  2 V2000
  151.6800  144.9599  158.6916 C   0  0  0  0  0  0  0  0  0  0  0  0
  151.8565  143.5123  159.1788 C   0  0  2  0  0  0  0  0  0  0  0  0
  153.1027  143.3911  160.0789 C   0  0  0  0  0  0  0  0  0  0  0  0
  153.3075  141.9534  160.5789 C   0  0  0  0  0  0  0  0  0  0  0  0
  153.3922  140.9692  159.4045 C   0  0  0  0  0  0  0  0  0  0  0  0
  152.1502  141.0730  158.5074 C   0  0  0  0  0  0  0  0  0  0  0  0
  151.9345  142.5153  157.9999 C   0  0  1  0  0  0  0  0  0  0  0  0
  150.7082  142.5940  157.2828 O   0  0  0  0  0  0  0  0  0  0  0  0
  150.6381  141.7603  156.1353 C   0  0  0  0  0  0  0  0  0  0  0  0
  149.1733  141.3767  155.9029 C   0  0  0  0  0  0  0  0  0  0  0  0
  148.5577  142.2354  154.8722 N   0  3  0  0  0  0  0  0  0  0  0  0
  147.1580  141.8889  154.5600 C   0  0  0  0  0  0  0  0  0  0  0  0
  146.6132  142.7670  153.4244 C   0  0  0  0  0  0  0  0  0  0  0  0
  145.5298  143.6185  153.8755 N   0  0  0  0  0  0  0  0  0  0  0  0
  144.8585  144.5983  153.1746 C   0  0  0  0  0  0  0  0  0  0  0  0
  143.9231  145.1301  154.0154 C   0  0  0  0  0  0  0  0  0  0  0  0
  144.1035  144.4031  155.2252 C   0  0  0  0  0  0  0  0  0  0  0  0
  145.0669  143.4996  155.1383 N   0  0  0  0  0  0  0  0  0  0  0  0
  152.5173  145.2726  158.0668 H   0  0  0  0  0  0  0  0  0  0  0  0
  151.6164  145.6511  159.5324 H   0  0  0  0  0  0  0  0  0  0  0  0
  150.7673  145.0752  158.1067 H   0  0  0  0  0  0  0  0  0  0  0  0
  150.9838  143.2572  159.7820 H   0  0  0  0  0  0  0  0  0  0  0  0
  153.9881  143.7121  159.5280 H   0  0  0  0  0  0  0  0  0  0  0  0
  153.0127  144.0627  160.9335 H   0  0  0  0  0  0  0  0  0  0  0  0
  154.2153  141.8945  161.1800 H   0  0  0  0  0  0  0  0  0  0  0  0
  152.4829  141.6722  161.2353 H   0  0  0  0  0  0  0  0  0  0  0  0
  154.2874  141.1760  158.8165 H   0  0  0  0  0  0  0  0  0  0  0  0
  153.4962  139.9507  159.7799 H   0  0  0  0  0  0  0  0  0  0  0  0
  152.2569  140.3817  157.6720 H   0  0  0  0  0  0  0  0  0  0  0  0
  151.2721  140.7474  159.0667 H   0  0  0  0  0  0  0  0  0  0  0  0
  152.7670  142.8065  157.3562 H   0  0  0  0  0  0  0  0  0  0  0  0
  151.0127  142.3029  155.2662 H   0  0  0  0  0  0  0  0  0  0  0  0
  151.2501  140.8657  156.2521 H   0  0  0  0  0  0  0  0  0  0  0  0
  149.1025  140.3294  155.6066 H   0  0  0  0  0  0  0  0  0  0  0  0
  148.6138  141.4870  156.8327 H   0  0  0  0  0  0  0  0  0  0  0  0
  148.5905  143.1941  155.1885 H   0  0  0  0  0  0  0  0  0  0  0  0
  147.1030  140.8372  154.2755 H   0  0  0  0  0  0  0  0  0  0  0  0
  146.5514  142.0132  155.4580 H   0  0  0  0  0  0  0  0  0  0  0  0
  147.4027  143.3986  153.0143 H   0  0  0  0  0  0  0  0  0  0  0  0
  146.2472  142.1453  152.6062 H   0  0  0  0  0  0  0  0  0  0  0  0
  145.0982  144.8335  152.1481 H   0  0  0  0  0  0  0  0  0  0  0  0
  143.2184  145.9195  153.8001 H   0  0  0  0  0  0  0  0  0  0  0  0
  143.5673  144.5050  156.1572 H   0  0  0  0  0  0  0  0  0  0  0  0
  149.1041  142.1552  154.0263 H   0  0  0  0  0  0  0  0  0  0  0  0
  1  2  1  0  0  0  0
  1 19  1  0  0  0  0
  1 20  1  0  0  0  0
  1 21  1  0  0  0  0
  2  7  1  0  0  0  0
  2  3  1  0  0  0  0
  2 22  1  0  0  0  0
  3  4  1  0  0  0  0
  3 23  1  0  0  0  0
  3 24  1  0  0  0  0
  4  5  1  0  0  0  0
  4 25  1  0  0  0  0
  4 26  1  0  0  0  0
  5  6  1  0  0  0  0
  5 27  1  0  0  0  0
  5 28  1  0  0  0  0
  6  7  1  0  0  0  0
  6 29  1  0  0  0  0
  6 30  1  0  0  0  0
  7  8  1  0  0  0  0
  7 31  1  0  0  0  0
  8  9  1  0  0  0  0
  9 10  1  0  0  0  0
  9 32  1  0  0  0  0
  9 33  1  0  0  0  0
 10 11  1  0  0  0  0
 10 34  1  0  0  0  0
 10 35  1  0  0  0  0
 11 12  1  0  0  0  0
 11 36  1  0  0  0  0
 11 44  1  0  0  0  0
 12 13  1  0  0  0  0
 12 37  1  0  0  0  0
 12 38  1  0  0  0  0
 13 14  1  0  0  0  0
 13 39  1  0  0  0  0
 13 40  1  0  0  0  0
 14 18  1  0  0  0  0
 14 15  1  0  0  0  0
 15 16  2  0  0  0  0
 15 41  1  0  0  0  0
 16 17  1  0  0  0  0
 16 42  1  0  0  0  0
 17 18  2  0  0  0  0
 17 43  1  0  0  0  0
M  CHG  1  11   1
M  END
> <s_m_source_file>
AV-unprocessed.smi

> <i_m_source_file_index>
3241

> <i_lp_mmshare_version>
43012

> <i_f3d_flags>
0

> <s_epik_input>
W0NIM11bQ0BASF0xW0NIMl1bQ0gyXVtDSDJdW0NIMl1bQ0BIXTFPW0NIMl1bQ0gyXVtOSF1bQ0gyXVtDSDJdbjJbY0hdW2NIXVtjSF1uMg==

> <s_epik_cmdline>
J2VwaWtfcHl0aG9uJywgJy1waCcsICc3LjAnLCAnLXRuJywgJzgnLCAnLW1hJywgJzIwMCcsICctbWV0YWxfYmluZGluZycsICctaW1hZScsICc8aW5maWxlLm1hZT4nLCAnLW9tYWUnLCAnPG91dGZpbGUubWFlPic=

> <r_lp_tautomer_probability>
1

> <r_epik_Ionization_Penalty>
0.00924946

> <r_epik_Ionization_Penalty_Charging>
0.00924645

> <r_epik_Ionization_Penalty_Neutral>
3.00629e-06

> <r_epik_State_Penalty>
0.0070118

> <r_epik_Charging_Adjusted_Penalty>
0.0162583

> <i_epik_Tot_Q>
1

> <i_epik_Tot_abs_Q>
1

> <r_epik_Metal_State_Penalty>
0.00702523

> <b_epik_Metal_Only>
0

> <s_lp_Force_Field>
OPLS_2005

> <r_lp_Energy>
13.7412

> <b_lp_Chiralities_Consistent>
1

> <s_lp_Variant>
AV-unprocessed.smi:3241-1

> <Gold.Version>
5.8.1

> <Gold.Id.Protein>
6NUR|6NUR_protein|mol2

> <Gold.PLP.Fitness>
49.5902

> <Gold.PLP.PLP>
-45.1856

> <Gold.PLP.part.hbond>
-1.0000

> <Gold.PLP.part.metal>
0.0000

> <Gold.PLP.part.buried>
-8.0668

> <Gold.PLP.part.nonpolar>
-36.4549

> <Gold.PLP.part.repulsive>
0.5057

> <Gold.PLP.ligand.clash>
0.0000

> <Gold.PLP.ligand.torsion>
0.8401

> <Gold.PLP.Chemscore.Hbond>
2.0000

> <Gold.PLP.Chemscore.CHOScore>
0.0000

> <Gold.PLP.Chemscore.Metal>
0.0000

> <Gold.Chemscore.Hbonds>
donor molecule, donor type, donor heavy atom, donor atom, acceptor molecule, acceptor atom, score
      L1  H    11    36       P1  8028  2.00

> <Gold.PLP.Chemscore.Internal.Correction>
0.0848

> <Gold.Rescore>
     Score         DG    S(hbond)    S(metal)    S(lipo)     H(rot)  DE(clash)    DE(int)     intcor
     16.54     -18.99       1.00        0.00     128.31       1.89       1.65       0.81       ----

> <Gold.Chemscore.Fitness>
16.5355

> <Gold.Chemscore.DG>
-18.9922

> <Gold.Chemscore.ZeroCoef>
-5.4800

> <Gold.Chemscore.Hbond>
1.0000

> <Gold.Chemscore.Metal>
0.0000

> <Gold.Chemscore.Lipo>
128.3103

> <Gold.Chemscore.Internal_Hbond>
0.0000

> <Gold.Chemscore.DEClash>
1.6458

> <Gold.Chemscore.DEInternal>
0.8110

> <Gold.Chemscore.Rot>
1.8906

> <Gold.Chemscore.Internal.Correction>
   9.000000E+99

> <Gold.Chemscore.Hbonds>
donor molecule, donor type, donor heavy atom, donor atom, acceptor molecule, acceptor atom, score
      L1  H    11    36       P1  8028  0.99

> <Gold.Chemscore.Hbond.Weighted>
-3.3399

> <Gold.Chemscore.Metal.Weighted>
-0.0000

> <Gold.Chemscore.Lipo.Weighted>
-15.0123

> <Gold.Chemscore.Internal_Hbond.Weighted>
0.0000

> <Gold.Chemscore.DEClash.Weighted>
1.6458

> <Gold.Chemscore.DEInternal.Weighted>
0.8110

> <Gold.Chemscore.Rot.Weighted>
4.8400

> <Gold.Chemscore.Internal.Correction.Weighted>
   9.000000E+99

> <Gold.Protein.RotatedTorsions>
[ 6907 6896 6895 6894 ] final -147.77 input  -60.11 | X-H torsion
[ 7974 7965 7964 7962 ] final  -74.71 input  175.53 | X-H torsion
[ 8008 7997 7996 7995 ] final  -56.07 input   59.86 | X-H torsion
[ 10167 10162 10161 10158 ] final  -37.46 input  -65.29 | X-H torsion
[ 10718 10713 10712 10709 ] final   47.83 input   66.30 | X-H torsion
[ 10763 10752 10751 10750 ] final  -19.77 input  -60.55 | X-H torsion
[ 11005 11000 10999 10996 ] final   63.68 input  -57.11 | X-H torsion

> <Gold.Protein.ActiveResidues>
 VAL166  LYS551  ARG553  GLY616  TRP617  ASP618  TYR619  PRO620  LYS621  CYS622 
 ASP623  PHE694  ASN695  SER759  ASP760  ASP761  ALA762  ILE779  LEU786  VAL792 
 PHE793  MET794  SER795  GLU796  ALA797  LYS798  CYS799  TRP800  GLU811  SER814 

> <Gold.Protein.RotatedAtoms>
  151.1604  133.4849  159.2594 H   0  0  0  0  0  0  0  0  0  0  0  0  # atno 6907 bound_to 6896
  151.1460  135.0203  159.8657 H   0  0  0  0  0  0  0  0  0  0  0  0  # atno 6908 bound_to 6896
  152.5463  134.1493  159.8565 H   0  0  0  0  0  0  0  0  0  0  0  0  # atno 6909 bound_to 6896
  145.6355  140.9326  143.1064 H   0  0  0  0  0  0  0  0  0  0  0  0  # atno 7974 bound_to 7965
  154.4217  140.1138  156.5579 H   0  0  0  0  0  0  0  0  0  0  0  0  # atno 8008 bound_to 7997
  155.6342  140.3496  155.4674 H   0  0  0  0  0  0  0  0  0  0  0  0  # atno 8009 bound_to 7997
  155.9923  140.1182  157.0616 H   0  0  0  0  0  0  0  0  0  0  0  0  # atno 8010 bound_to 7997
  140.7117  143.3340  151.2504 H   0  0  0  0  0  0  0  0  0  0  0  0  # atno 10167 bound_to 10162
  157.4625  130.8205  149.7901 H   0  0  0  0  0  0  0  0  0  0  0  0  # atno 10718 bound_to 10713
  153.6101  135.6996  153.5350 H   0  0  0  0  0  0  0  0  0  0  0  0  # atno 10763 bound_to 10752
  153.3024  135.4125  155.1264 H   0  0  0  0  0  0  0  0  0  0  0  0  # atno 10764 bound_to 10752
  154.8565  135.3652  154.5639 H   0  0  0  0  0  0  0  0  0  0  0  0  # atno 10765 bound_to 10752
  140.0008  134.6445  155.9934 H   0  0  0  0  0  0  0  0  0  0  0  0  # atno 11005 bound_to 11000
  144.7177  139.8138  143.7393 LP  0  0  0  0  0  0  0  0  0  0  0  0  # atno 17320 bound_to 7965
  146.1323  139.4360  143.0161 LP  0  0  0  0  0  0  0  0  0  0  0  0  # atno 17321 bound_to 7965
  139.6830  143.9821  152.2819 LP  0  0  0  0  0  0  0  0  0  0  0  0  # atno 17342 bound_to 10162
  139.9457  144.6653  150.8221 LP  0  0  0  0  0  0  0  0  0  0  0  0  # atno 17343 bound_to 10162
  156.0035  130.3867  150.2516 LP  0  0  0  0  0  0  0  0  0  0  0  0  # atno 17370 bound_to 10713
  157.0694  131.0112  151.3195 LP  0  0  0  0  0  0  0  0  0  0  0  0  # atno 17371 bound_to 10713
  141.1640  133.6537  156.4417 LP  0  0  0  0  0  0  0  0  0  0  0  0  # atno 17394 bound_to 11000
  140.4731  134.6734  157.5138 LP  0  0  0  0  0  0  0  0  0  0  0  0  # atno 17395 bound_to 11000

$$$$
