AV-unprocessed.smi:1769|AV-procd|sdf|7152|dock7
  -GOLD-   22720 8393D 1   1.00000     0.00000
 Structure written by MMmdl.
 41 42  0  0  0  0  0  0  0  0  1 V2000
  155.6927  140.5280  160.4075 C   0  0  0  0  0  0  0  0  0  0  0  0
  154.3866  140.2239  159.6700 C   0  0  0  0  0  0  0  0  0  0  0  0
  154.3878  139.3111  158.8437 O   0  0  0  0  0  0  0  0  0  0  0  0
  153.2842  140.9625  159.9435 N   0  0  0  0  0  0  0  0  0  0  0  0
  153.2375  142.1177  160.8492 C   0  0  0  0  0  0  0  0  0  0  0  0
  153.0725  143.3971  160.0090 C   0  0  0  0  0  0  0  0  0  0  0  0
  151.8248  143.3091  159.1084 C   0  0  0  0  0  0  0  0  0  0  0  0
  151.8008  141.9963  158.2899 C   0  0  2  0  0  0  0  0  0  0  0  0
  150.4927  141.8422  157.5045 C   0  0  0  0  0  0  0  0  0  0  0  0
  149.4088  141.9181  158.0840 O   0  0  0  0  0  0  0  0  0  0  0  0
  150.6118  141.5988  156.1892 N   0  0  0  0  0  0  0  0  0  0  0  0
  149.5073  141.3234  155.2732 C   0  0  0  0  0  0  0  0  0  0  0  0
  149.9362  140.4161  154.1034 C   0  0  0  0  0  0  0  0  0  0  0  0
  150.1838  138.9739  154.5109 C   0  0  0  0  0  0  0  0  0  0  0  0
  149.1313  138.1593  154.9779 C   0  0  0  0  0  0  0  0  0  0  0  0
  149.4065  136.8193  155.3101 C   0  0  0  0  0  0  0  0  0  0  0  0
  150.7277  136.3509  155.1664 C   0  0  0  0  0  0  0  0  0  0  0  0
  151.7447  137.1230  154.7272 N   0  0  0  0  0  0  0  0  0  0  0  0
  151.4713  138.4061  154.4069 C   0  0  0  0  0  0  0  0  0  0  0  0
  152.0156  140.7863  159.2267 C   0  0  0  0  0  0  0  0  0  0  0  0
  156.0059  141.5577  160.2322 H   0  0  0  0  0  0  0  0  0  0  0  0
  156.4928  139.8742  160.0586 H   0  0  0  0  0  0  0  0  0  0  0  0
  155.5767  140.3693  161.4798 H   0  0  0  0  0  0  0  0  0  0  0  0
  152.3898  142.0059  161.5266 H   0  0  0  0  0  0  0  0  0  0  0  0
  154.1120  142.2053  161.4922 H   0  0  0  0  0  0  0  0  0  0  0  0
  153.0003  144.2677  160.6613 H   0  0  0  0  0  0  0  0  0  0  0  0
  153.9599  143.5441  159.3922 H   0  0  0  0  0  0  0  0  0  0  0  0
  150.9363  143.3711  159.7389 H   0  0  0  0  0  0  0  0  0  0  0  0
  151.7885  144.1718  158.4419 H   0  0  0  0  0  0  0  0  0  0  0  0
  152.6280  142.0268  157.5777 H   0  0  0  0  0  0  0  0  0  0  0  0
  151.5432  141.5539  155.8018 H   0  0  0  0  0  0  0  0  0  0  0  0
  148.6669  140.8747  155.8056 H   0  0  0  0  0  0  0  0  0  0  0  0
  149.1434  142.2741  154.8831 H   0  0  0  0  0  0  0  0  0  0  0  0
  149.1701  140.4337  153.3274 H   0  0  0  0  0  0  0  0  0  0  0  0
  150.8410  140.8147  153.6430 H   0  0  0  0  0  0  0  0  0  0  0  0
  148.1274  138.5479  155.0658 H   0  0  0  0  0  0  0  0  0  0  0  0
  148.6227  136.1648  155.6619 H   0  0  0  0  0  0  0  0  0  0  0  0
  150.9740  135.3282  155.4108 H   0  0  0  0  0  0  0  0  0  0  0  0
  152.3029  138.9950  154.0489 H   0  0  0  0  0  0  0  0  0  0  0  0
  151.9858  139.8558  158.6577 H   0  0  0  0  0  0  0  0  0  0  0  0
  151.2030  140.7117  159.9515 H   0  0  0  0  0  0  0  0  0  0  0  0
  1  2  1  0  0  0  0
  1 21  1  0  0  0  0
  1 22  1  0  0  0  0
  1 23  1  0  0  0  0
  2  3  2  0  0  0  0
  2  4  1  0  0  0  0
  4 20  1  0  0  0  0
  4  5  1  0  0  0  0
  5  6  1  0  0  0  0
  5 24  1  0  0  0  0
  5 25  1  0  0  0  0
  6  7  1  0  0  0  0
  6 26  1  0  0  0  0
  6 27  1  0  0  0  0
  7  8  1  0  0  0  0
  7 28  1  0  0  0  0
  7 29  1  0  0  0  0
  8  9  1  0  0  0  0
  8 20  1  0  0  0  0
  8 30  1  0  0  0  0
  9 10  2  0  0  0  0
  9 11  1  0  0  0  0
 11 12  1  0  0  0  0
 11 31  1  0  0  0  0
 12 13  1  0  0  0  0
 12 32  1  0  0  0  0
 12 33  1  0  0  0  0
 13 14  1  0  0  0  0
 13 34  1  0  0  0  0
 13 35  1  0  0  0  0
 14 19  1  0  0  0  0
 14 15  2  0  0  0  0
 15 16  1  0  0  0  0
 15 36  1  0  0  0  0
 16 17  2  0  0  0  0
 16 37  1  0  0  0  0
 17 18  1  0  0  0  0
 17 38  1  0  0  0  0
 18 19  2  0  0  0  0
 19 39  1  0  0  0  0
 20 40  1  0  0  0  0
 20 41  1  0  0  0  0
M  END
> <s_m_source_file>
AV-unprocessed.smi

> <i_m_source_file_index>
1769

> <i_lp_mmshare_version>
43012

> <i_f3d_flags>
0

> <s_epik_input>
W0NIM11DKD1PKU4xW0NIMl1bQ0gyXVtDSDJdW0NASF0oW0NIMl0xKUMoPU8pW05IXVtDSDJdW0NIMl1jMltjSF1bY0hdW2NIXW5bY0hdMg==

> <s_epik_cmdline>
J2VwaWtfcHl0aG9uJywgJy1waCcsICc3LjAnLCAnLXRuJywgJzgnLCAnLW1hJywgJzIwMCcsICctbWV0YWxfYmluZGluZycsICctaW1hZScsICc8aW5maWxlLm1hZT4nLCAnLW9tYWUnLCAnPG91dGZpbGUubWFlPic=

> <r_epik_Ionization_Penalty>
0.0134099

> <r_epik_Ionization_Penalty_Charging>
0

> <r_epik_Ionization_Penalty_Neutral>
0.0134099

> <r_epik_State_Penalty>
0.010434

> <r_epik_Charging_Adjusted_Penalty>
0.010434

> <i_epik_Tot_Q>
0

> <i_epik_Tot_abs_Q>
0

> <r_epik_Metal_State_Penalty>
0.0102025

> <b_epik_Metal_Only>
0

> <s_lp_Force_Field>
OPLS_2005

> <r_lp_Energy>
22.8084

> <b_lp_Chiralities_Consistent>
1

> <s_lp_Variant>
AV-unprocessed.smi:1769-2

> <Gold.Version>
5.8.1

> <Gold.Id.Protein>
6NUR|6NUR_protein|mol2

> <Gold.PLP.Fitness>
42.7796

> <Gold.PLP.PLP>
-37.5153

> <Gold.PLP.part.hbond>
-2.0000

> <Gold.PLP.part.metal>
0.0000

> <Gold.PLP.part.buried>
-1.0672

> <Gold.PLP.part.nonpolar>
-34.6202

> <Gold.PLP.part.repulsive>
0.3380

> <Gold.PLP.ligand.clash>
0.0000

> <Gold.PLP.ligand.torsion>
0.3838

> <Gold.PLP.Chemscore.Hbond>
2.0000

> <Gold.PLP.Chemscore.CHOScore>
0.0000

> <Gold.PLP.Chemscore.Metal>
0.0000

> <Gold.Chemscore.Hbonds>
donor molecule, donor type, donor heavy atom, donor atom, acceptor molecule, acceptor atom, score
      P1  H  7997  8009       L1     3  1.00
      P1  H 10752 10765       L1    18  0.89

> <Gold.PLP.Chemscore.Internal.Correction>
0.0318

> <Gold.Rescore>
     Score         DG    S(hbond)    S(metal)    S(lipo)     H(rot)  DE(clash)    DE(int)     intcor
     16.59     -18.84       1.73        0.00      98.07       1.52       1.80       0.45       ----

> <Gold.Chemscore.Fitness>
16.5872

> <Gold.Chemscore.DG>
-18.8373

> <Gold.Chemscore.ZeroCoef>
-5.4800

> <Gold.Chemscore.Hbond>
1.7293

> <Gold.Chemscore.Metal>
0.0000

> <Gold.Chemscore.Lipo>
98.0688

> <Gold.Chemscore.Internal_Hbond>
0.0000

> <Gold.Chemscore.DEClash>
1.8047

> <Gold.Chemscore.DEInternal>
0.4454

> <Gold.Chemscore.Rot>
1.5205

> <Gold.Chemscore.Internal.Correction>
   9.000000E+99

> <Gold.Chemscore.Hbonds>
donor molecule, donor type, donor heavy atom, donor atom, acceptor molecule, acceptor atom, score
      P1  H  7997  8009       L1     3  0.60
      P1  H 10752 10765       L1    18  0.17

> <Gold.Chemscore.Hbond.Weighted>
-5.7759

> <Gold.Chemscore.Metal.Weighted>
-0.0000

> <Gold.Chemscore.Lipo.Weighted>
-11.4740

> <Gold.Chemscore.Internal_Hbond.Weighted>
0.0000

> <Gold.Chemscore.DEClash.Weighted>
1.8047

> <Gold.Chemscore.DEInternal.Weighted>
0.4454

> <Gold.Chemscore.Rot.Weighted>
3.8926

> <Gold.Chemscore.Internal.Correction.Weighted>
   9.000000E+99

> <Gold.Protein.RotatedTorsions>
[ 6907 6896 6895 6894 ] final  -74.78 input  -60.11 | X-H torsion
[ 7974 7965 7964 7962 ] final   52.00 input  175.53 | X-H torsion
[ 8008 7997 7996 7995 ] final  127.03 input   59.86 | X-H torsion
[ 10167 10162 10161 10158 ] final  -57.19 input  -65.29 | X-H torsion
[ 10718 10713 10712 10709 ] final   71.34 input   66.30 | X-H torsion
[ 10763 10752 10751 10750 ] final  157.64 input  -60.55 | X-H torsion
[ 11005 11000 10999 10996 ] final  114.72 input  -57.11 | X-H torsion

> <Gold.Protein.ActiveResidues>
 VAL166  LYS551  ARG553  GLY616  TRP617  ASP618  TYR619  PRO620  LYS621  CYS622 
 ASP623  PHE694  ASN695  SER759  ASP760  ASP761  ALA762  ILE779  LEU786  VAL792 
 PHE793  MET794  SER795  GLU796  ALA797  LYS798  CYS799  TRP800  GLU811  SER814 

> <Gold.Protein.RotatedAtoms>
  150.7081  134.4818  159.5473 H   0  0  0  0  0  0  0  0  0  0  0  0  # atno 6907 bound_to 6896
  152.2453  134.8184  160.0463 H   0  0  0  0  0  0  0  0  0  0  0  0  # atno 6908 bound_to 6896
  151.8951  133.3490  159.3848 H   0  0  0  0  0  0  0  0  0  0  0  0  # atno 6909 bound_to 6896
  145.9857  139.4287  143.0104 H   0  0  0  0  0  0  0  0  0  0  0  0  # atno 7974 bound_to 7965
  156.2880  140.2678  156.2208 H   0  0  0  0  0  0  0  0  0  0  0  0  # atno 8008 bound_to 7997
  155.0170  140.0387  157.2440 H   0  0  0  0  0  0  0  0  0  0  0  0  # atno 8009 bound_to 7997
  154.7468  140.2735  155.6331 H   0  0  0  0  0  0  0  0  0  0  0  0  # atno 8010 bound_to 7997
  140.6273  143.2444  151.5331 H   0  0  0  0  0  0  0  0  0  0  0  0  # atno 10167 bound_to 10162
  157.6446  130.9523  150.0775 H   0  0  0  0  0  0  0  0  0  0  0  0  # atno 10718 bound_to 10713
  154.2034  135.2789  155.2983 H   0  0  0  0  0  0  0  0  0  0  0  0  # atno 10763 bound_to 10752
  154.5836  135.5581  153.7213 H   0  0  0  0  0  0  0  0  0  0  0  0  # atno 10764 bound_to 10752
  153.0082  135.6351  154.2172 H   0  0  0  0  0  0  0  0  0  0  0  0  # atno 10765 bound_to 10752
  139.8988  134.9572  156.6935 H   0  0  0  0  0  0  0  0  0  0  0  0  # atno 11005 bound_to 11000
  145.7704  140.9899  143.1152 LP  0  0  0  0  0  0  0  0  0  0  0  0  # atno 17320 bound_to 7965
  144.6874  139.9440  143.7476 LP  0  0  0  0  0  0  0  0  0  0  0  0  # atno 17321 bound_to 7965
  139.5491  144.2442  152.1498 LP  0  0  0  0  0  0  0  0  0  0  0  0  # atno 17342 bound_to 10162
  140.1676  144.4966  150.6597 LP  0  0  0  0  0  0  0  0  0  0  0  0  # atno 17343 bound_to 10162
  156.1761  130.3648  149.9099 LP  0  0  0  0  0  0  0  0  0  0  0  0  # atno 17370 bound_to 10713
  156.7062  130.8952  151.3605 LP  0  0  0  0  0  0  0  0  0  0  0  0  # atno 17371 bound_to 10713
  140.7207  133.9143  155.8144 LP  0  0  0  0  0  0  0  0  0  0  0  0  # atno 17394 bound_to 11000
  141.0230  134.0863  157.4100 LP  0  0  0  0  0  0  0  0  0  0  0  0  # atno 17395 bound_to 11000

$$$$
