AV-unprocessed.smi:265|AV-procd|sdf|2017|dock10
  -GOLD-   2262021223D 1   1.00000     0.00000
 Structure written by MMmdl.
 52 56  0  0  0  0  0  0  0  0  1 V2000
  148.6945  133.0518  152.6218 C   0  0  0  0  0  0  0  0  0  0  0  0
  148.8731  132.9818  154.1464 C   0  0  2  0  0  0  0  0  0  0  0  0
  147.7772  132.3083  154.7643 O   0  0  0  0  0  0  0  0  0  0  0  0
  147.3122  133.0446  155.8894 C   0  0  0  0  0  0  0  0  0  0  0  0
  148.4551  133.9877  156.2488 C   0  0  0  0  0  0  0  0  0  0  0  0
  149.0414  134.3297  154.8855 C   0  0  2  0  0  0  0  0  0  0  0  0
  148.2303  135.3258  154.2850 O   0  0  0  0  0  0  0  0  0  0  0  0
  150.4819  134.9045  154.9048 C   0  0  0  0  0  0  0  0  0  0  0  0
  150.6664  136.0741  155.7498 N   0  0  0  0  0  0  0  0  0  0  0  0
  151.0816  136.0865  157.0634 C   0  0  0  0  0  0  0  0  0  0  0  0
  151.1716  137.2685  157.6100 N   0  0  0  0  0  0  0  0  0  0  0  0
  150.8101  138.1369  156.5888 C   0  0  0  0  0  0  0  0  0  0  0  0
  150.6922  139.5469  156.4896 C   0  0  0  0  0  0  0  0  0  0  0  0
  150.9468  140.3598  157.5361 N   0  0  0  0  0  0  0  0  0  0  0  0
  152.1879  140.0351  158.2400 C   0  0  0  0  0  0  0  0  0  0  0  0
  152.3200  140.8555  159.5373 C   0  0  0  0  0  0  0  0  0  0  0  0
  152.1761  142.3511  159.2236 C   0  0  2  0  0  0  0  0  0  0  0  0
  152.1828  143.1473  160.3988 O   0  0  0  0  0  0  0  0  0  0  0  0
  152.2162  144.5535  160.1303 C   0  0  0  0  0  0  0  0  0  0  0  0
  151.1983  144.9830  159.0514 C   0  0  0  0  0  0  0  0  0  0  0  0
  150.9491  146.1749  158.8855 O   0  0  0  0  0  0  0  0  0  0  0  0
  150.6404  144.0279  158.2888 N   0  0  0  0  0  0  0  0  0  0  0  0
  150.8272  142.6036  158.5308 C   0  0  1  0  0  0  0  0  0  0  0  0
  150.7416  141.7771  157.2379 C   0  0  0  0  0  0  0  0  0  0  0  0
  150.3084  140.0747  155.2978 N   0  0  0  0  0  0  0  0  0  0  0  0
  150.0545  139.2660  154.2639 C   0  0  0  0  0  0  0  0  0  0  0  0
  150.1171  137.9330  154.2104 N   0  0  0  0  0  0  0  0  0  0  0  0
  150.5005  137.4054  155.4089 C   0  0  0  0  0  0  0  0  0  0  0  0
  153.0031  142.6534  158.5772 H   0  0  0  0  0  0  0  0  0  0  0  0
  150.0212  142.2898  159.1968 H   0  0  0  0  0  0  0  0  0  0  0  0
  149.5305  133.5715  152.1534 H   0  0  0  0  0  0  0  0  0  0  0  0
  147.7760  133.5703  152.3464 H   0  0  0  0  0  0  0  0  0  0  0  0
  148.6449  132.0503  152.1943 H   0  0  0  0  0  0  0  0  0  0  0  0
  149.7331  132.3474  154.3549 H   0  0  0  0  0  0  0  0  0  0  0  0
  146.4259  133.6092  155.5977 H   0  0  0  0  0  0  0  0  0  0  0  0
  147.0375  132.3847  156.7124 H   0  0  0  0  0  0  0  0  0  0  0  0
  148.1310  134.8588  156.8194 H   0  0  0  0  0  0  0  0  0  0  0  0
  149.1724  133.4388  156.8577 H   0  0  0  0  0  0  0  0  0  0  0  0
  148.5589  135.4964  153.4156 H   0  0  0  0  0  0  0  0  0  0  0  0
  151.1824  134.1370  155.2370 H   0  0  0  0  0  0  0  0  0  0  0  0
  150.7887  135.1728  153.8929 H   0  0  0  0  0  0  0  0  0  0  0  0
  151.3085  135.1827  157.6103 H   0  0  0  0  0  0  0  0  0  0  0  0
  152.2126  138.9695  158.4723 H   0  0  0  0  0  0  0  0  0  0  0  0
  153.0382  140.2391  157.5874 H   0  0  0  0  0  0  0  0  0  0  0  0
  151.5515  140.5487  160.2480 H   0  0  0  0  0  0  0  0  0  0  0  0
  153.2820  140.6589  160.0108 H   0  0  0  0  0  0  0  0  0  0  0  0
  152.0241  145.0965  161.0560 H   0  0  0  0  0  0  0  0  0  0  0  0
  153.2170  144.8302  159.7964 H   0  0  0  0  0  0  0  0  0  0  0  0
  149.9982  144.3008  157.5589 H   0  0  0  0  0  0  0  0  0  0  0  0
  151.4949  142.1156  156.5247 H   0  0  0  0  0  0  0  0  0  0  0  0
  149.7664  141.9161  156.7689 H   0  0  0  0  0  0  0  0  0  0  0  0
  149.7580  139.7567  153.3485 H   0  0  0  0  0  0  0  0  0  0  0  0
  1  2  1  0  0  0  0
  1 31  1  0  0  0  0
  1 32  1  0  0  0  0
  1 33  1  0  0  0  0
  2  6  1  0  0  0  0
  2  3  1  0  0  0  0
  2 34  1  0  0  0  0
  3  4  1  0  0  0  0
  4  5  1  0  0  0  0
  4 35  1  0  0  0  0
  4 36  1  0  0  0  0
  5  6  1  0  0  0  0
  5 37  1  0  0  0  0
  5 38  1  0  0  0  0
  6  7  1  0  0  0  0
  6  8  1  0  0  0  0
  7 39  1  0  0  0  0
  8  9  1  0  0  0  0
  8 40  1  0  0  0  0
  8 41  1  0  0  0  0
  9 28  1  0  0  0  0
  9 10  1  0  0  0  0
 10 11  2  0  0  0  0
 10 42  1  0  0  0  0
 11 12  1  0  0  0  0
 12 28  2  0  0  0  0
 12 13  1  0  0  0  0
 13 14  1  0  0  0  0
 13 25  2  0  0  0  0
 14 24  1  0  0  0  0
 14 15  1  0  0  0  0
 15 16  1  0  0  0  0
 15 43  1  0  0  0  0
 15 44  1  0  0  0  0
 16 17  1  0  0  0  0
 16 45  1  0  0  0  0
 16 46  1  0  0  0  0
 17 29  1  0  0  0  0
 17 23  1  0  0  0  0
 17 18  1  0  0  0  0
 18 19  1  0  0  0  0
 19 20  1  0  0  0  0
 19 47  1  0  0  0  0
 19 48  1  0  0  0  0
 20 21  2  0  0  0  0
 20 22  1  0  0  0  0
 22 23  1  0  0  0  0
 22 49  1  0  0  0  0
 23 30  1  0  0  0  0
 23 24  1  0  0  0  0
 24 50  1  0  0  0  0
 24 51  1  0  0  0  0
 25 26  1  0  0  0  0
 26 27  2  0  0  0  0
 26 52  1  0  0  0  0
 27 28  1  0  0  0  0
M  END
> <s_m_source_file>
AV-unprocessed.smi

> <i_m_source_file_index>
265

> <i_lp_mmshare_version>
43012

> <i_f3d_flags>
0

> <s_epik_input>
W0NIMl0xW0NIMl1PW0NAQEhdKFtDSDNdKVtDQEBdMShbT0hdKVtDSDJdbihbY0hdbjIpYyhjMjMpbltjSF1uYzNOKFtDSDJdW0NIMl00KVtDSDJdW0NAQEhdKFtDQEhdNDUpW05IXUMoPU8pW0NIMl1PNQ==

> <s_epik_cmdline>
J2VwaWtfcHl0aG9uJywgJy1waCcsICc3LjAnLCAnLXRuJywgJzgnLCAnLW1hJywgJzIwMCcsICctbWV0YWxfYmluZGluZycsICctaW1hZScsICc8aW5maWxlLm1hZT4nLCAnLW9tYWUnLCAnPG91dGZpbGUubWFlPic=

> <r_lp_tautomer_probability>
1

> <r_epik_Ionization_Penalty>
0.00221504

> <r_epik_Ionization_Penalty_Charging>
0

> <r_epik_Ionization_Penalty_Neutral>
0.00221504

> <r_epik_State_Penalty>
-0

> <r_epik_Charging_Adjusted_Penalty>
0

> <i_epik_Tot_Q>
0

> <i_epik_Tot_abs_Q>
0

> <r_epik_Metal_State_Penalty>
-0

> <b_epik_Metal_Only>
0

> <s_lp_Force_Field>
OPLS_2005

> <r_lp_Energy>
49.4841

> <b_lp_Chiralities_Consistent>
1

> <s_lp_Variant>
AV-unprocessed.smi:265-3

> <Gold.Version>
5.8.1

> <Gold.Id.Protein>
6NUR|6NUR_protein|mol2

> <Gold.PLP.Fitness>
41.3767

> <Gold.PLP.PLP>
-34.5225

> <Gold.PLP.part.hbond>
-3.0984

> <Gold.PLP.part.metal>
0.0000

> <Gold.PLP.part.buried>
-1.3012

> <Gold.PLP.part.nonpolar>
-30.4812

> <Gold.PLP.part.repulsive>
1.0004

> <Gold.PLP.ligand.clash>
0.0000

> <Gold.PLP.ligand.torsion>
0.5607

> <Gold.PLP.Chemscore.Hbond>
1.5850

> <Gold.PLP.Chemscore.CHOScore>
1.0000

> <Gold.PLP.Chemscore.Metal>
0.0000

> <Gold.Chemscore.Hbonds>
donor molecule, donor type, donor heavy atom, donor atom, acceptor molecule, acceptor atom, score
      L1  H     7    39       P1  7948  1.00
      L1  H    22    49       P1  8028  0.55
      L1  C    26    52       P1  7957  1.00

> <Gold.PLP.Chemscore.Internal.Correction>
0.2206

> <Gold.Rescore>
     Score         DG    S(hbond)    S(metal)    S(lipo)     H(rot)  DE(clash)    DE(int)     intcor
     10.57     -11.23       1.00        0.00      69.74       2.25       0.18       0.48       ----

> <Gold.Chemscore.Fitness>
10.5717

> <Gold.Chemscore.DG>
-11.2315

> <Gold.Chemscore.ZeroCoef>
-5.4800

> <Gold.Chemscore.Hbond>
1.0000

> <Gold.Chemscore.Metal>
0.0000

> <Gold.Chemscore.Lipo>
69.7383

> <Gold.Chemscore.Internal_Hbond>
0.0000

> <Gold.Chemscore.DEClash>
0.1847

> <Gold.Chemscore.DEInternal>
0.4751

> <Gold.Chemscore.Rot>
2.2453

> <Gold.Chemscore.Internal.Correction>
   9.000000E+99

> <Gold.Chemscore.Hbonds>
donor molecule, donor type, donor heavy atom, donor atom, acceptor molecule, acceptor atom, score
      L1  H     7    39       P1  7948  0.98
      L1  H    22    49       P1  8028  0.20

> <Gold.Chemscore.Hbond.Weighted>
-3.3400

> <Gold.Chemscore.Metal.Weighted>
-0.0000

> <Gold.Chemscore.Lipo.Weighted>
-8.1594

> <Gold.Chemscore.Internal_Hbond.Weighted>
0.0000

> <Gold.Chemscore.DEClash.Weighted>
0.1847

> <Gold.Chemscore.DEInternal.Weighted>
0.4751

> <Gold.Chemscore.Rot.Weighted>
5.7479

> <Gold.Chemscore.Internal.Correction.Weighted>
   9.000000E+99

> <Gold.Protein.RotatedTorsions>
[ 6907 6896 6895 6894 ] final  139.79 input  -60.11 | X-H torsion
[ 7974 7965 7964 7962 ] final -145.43 input  175.53 | X-H torsion
[ 8008 7997 7996 7995 ] final -142.69 input   59.86 | X-H torsion
[ 10167 10162 10161 10158 ] final -167.39 input  -65.29 | X-H torsion
[ 10718 10713 10712 10709 ] final   28.32 input   66.30 | X-H torsion
[ 10763 10752 10751 10750 ] final  -77.56 input  -60.55 | X-H torsion
[ 11005 11000 10999 10996 ] final   -8.33 input  -57.11 | X-H torsion

> <Gold.Protein.ActiveResidues>
 VAL166  LYS551  ARG553  GLY616  TRP617  ASP618  TYR619  PRO620  LYS621  CYS622 
 ASP623  PHE694  ASN695  SER759  ASP760  ASP761  ALA762  ILE779  LEU786  VAL792 
 PHE793  MET794  SER795  GLU796  ALA797  LYS798  CYS799  TRP800  GLU811  SER814 

> <Gold.Protein.RotatedAtoms>
  152.2507  133.5213  159.5323 H   0  0  0  0  0  0  0  0  0  0  0  0  # atno 6907 bound_to 6896
  150.7093  134.0964  159.3959 H   0  0  0  0  0  0  0  0  0  0  0  0  # atno 6908 bound_to 6896
  151.8883  135.0426  160.0546 H   0  0  0  0  0  0  0  0  0  0  0  0  # atno 6909 bound_to 6896
  144.8228  140.5585  143.5567 H   0  0  0  0  0  0  0  0  0  0  0  0  # atno 7974 bound_to 7965
  155.4983  140.0573  157.2943 H   0  0  0  0  0  0  0  0  0  0  0  0  # atno 8008 bound_to 7997
  154.4597  140.1990  156.0230 H   0  0  0  0  0  0  0  0  0  0  0  0  # atno 8009 bound_to 7997
  156.0866  140.3239  155.7766 H   0  0  0  0  0  0  0  0  0  0  0  0  # atno 8010 bound_to 7997
  139.6052  144.0927  152.1785 H   0  0  0  0  0  0  0  0  0  0  0  0  # atno 10167 bound_to 10162
  157.2319  130.7028  149.6317 H   0  0  0  0  0  0  0  0  0  0  0  0  # atno 10718 bound_to 10713
  154.5145  135.5760  153.6631 H   0  0  0  0  0  0  0  0  0  0  0  0  # atno 10763 bound_to 10752
  152.9904  135.6166  154.2836 H   0  0  0  0  0  0  0  0  0  0  0  0  # atno 10764 bound_to 10752
  154.2752  135.2852  155.2700 H   0  0  0  0  0  0  0  0  0  0  0  0  # atno 10765 bound_to 10752
  140.7223  133.8818  155.8830 H   0  0  0  0  0  0  0  0  0  0  0  0  # atno 11005 bound_to 11000
  145.5066  139.1481  143.3628 LP  0  0  0  0  0  0  0  0  0  0  0  0  # atno 17320 bound_to 7965
  146.2534  140.5207  142.8884 LP  0  0  0  0  0  0  0  0  0  0  0  0  # atno 17321 bound_to 7965
  140.0533  144.5915  150.7319 LP  0  0  0  0  0  0  0  0  0  0  0  0  # atno 17342 bound_to 10162
  140.7279  143.2657  151.4054 LP  0  0  0  0  0  0  0  0  0  0  0  0  # atno 17343 bound_to 10162
  155.9675  130.4486  150.5625 LP  0  0  0  0  0  0  0  0  0  0  0  0  # atno 17370 bound_to 10713
  157.3469  131.0726  151.1744 LP  0  0  0  0  0  0  0  0  0  0  0  0  # atno 17371 bound_to 10713
  140.9992  134.1173  157.4333 LP  0  0  0  0  0  0  0  0  0  0  0  0  # atno 17394 bound_to 11000
  139.8845  135.0063  156.6374 LP  0  0  0  0  0  0  0  0  0  0  0  0  # atno 17395 bound_to 11000

$$$$
