AV-unprocessed.smi:490|AV-procd|sdf|2703|dock3
  -GOLD-   2262023143D 1   1.00000     0.00000
 Structure written by MMmdl.
 49 51  0  0  0  0  0  0  0  0  1 V2000
  151.8550  139.5372  155.4363 C   0  0  0  0  0  0  0  0  0  0  0  0
  150.4356  140.0040  155.1628 C   0  0  0  0  0  0  0  0  0  0  0  0
  150.1135  141.3617  155.3624 C   0  0  0  0  0  0  0  0  0  0  0  0
  148.8102  141.8280  155.1173 C   0  0  0  0  0  0  0  0  0  0  0  0
  147.8104  140.9379  154.6803 C   0  0  0  0  0  0  0  0  0  0  0  0
  146.4081  141.4545  154.4180 C   0  0  0  0  0  0  0  0  0  0  0  0
  148.1187  139.5709  154.4936 C   0  0  0  0  0  0  0  0  0  0  0  0
  147.1321  138.7134  154.0794 O   0  0  0  0  0  0  0  0  0  0  0  0
  146.6740  138.9695  152.7593 C   0  0  0  0  0  0  0  0  0  0  0  0
  146.5591  137.6378  152.0053 C   0  0  2  0  0  0  0  0  0  0  0  0
  146.3959  137.9130  150.6283 O   0  0  0  0  0  0  0  0  0  0  0  0
  145.3879  136.7737  152.5158 C   0  0  0  0  0  0  0  0  0  0  0  0
  145.6307  135.3466  152.3552 N   0  0  0  0  0  0  0  0  0  0  0  0
  146.4287  134.5474  153.1073 C   0  0  0  0  0  0  0  0  0  0  0  0
  147.1950  135.0891  154.2811 C   0  0  0  0  0  0  0  0  0  0  0  0
  148.5913  134.8851  154.1994 O   0  0  0  0  0  0  0  0  0  0  0  0
  146.4684  133.2640  152.7408 N   0  0  0  0  0  0  0  0  0  0  0  0
  145.6209  133.2297  151.6511 C   0  0  0  0  0  0  0  0  0  0  0  0
  145.2425  132.1545  150.8158 C   0  0  0  0  0  0  0  0  0  0  0  0
  144.3453  132.3616  149.7476 C   0  0  0  0  0  0  0  0  0  0  0  0
  143.8145  133.6441  149.5002 C   0  0  0  0  0  0  0  0  0  0  0  0
  144.1796  134.7295  150.3198 C   0  0  0  0  0  0  0  0  0  0  0  0
  145.0762  134.5175  151.3845 C   0  0  0  0  0  0  0  0  0  0  0  0
  149.4387  139.1021  154.7133 C   0  0  0  0  0  0  0  0  0  0  0  0
  149.7829  137.6389  154.4684 C   0  0  0  0  0  0  0  0  0  0  0  0
  152.4440  140.3180  155.9186 H   0  0  0  0  0  0  0  0  0  0  0  0
  152.3531  139.2685  154.5047 H   0  0  0  0  0  0  0  0  0  0  0  0
  151.8547  138.6681  156.0946 H   0  0  0  0  0  0  0  0  0  0  0  0
  150.8680  142.0562  155.7017 H   0  0  0  0  0  0  0  0  0  0  0  0
  148.5817  142.8727  155.2691 H   0  0  0  0  0  0  0  0  0  0  0  0
  146.0320  141.0796  153.4658 H   0  0  0  0  0  0  0  0  0  0  0  0
  146.3878  142.5439  154.3811 H   0  0  0  0  0  0  0  0  0  0  0  0
  145.7314  141.1289  155.2079 H   0  0  0  0  0  0  0  0  0  0  0  0
  145.7129  139.4864  152.7698 H   0  0  0  0  0  0  0  0  0  0  0  0
  147.3859  139.6241  152.2538 H   0  0  0  0  0  0  0  0  0  0  0  0
  147.4967  137.0923  152.1146 H   0  0  0  0  0  0  0  0  0  0  0  0
  145.5698  138.3548  150.5054 H   0  0  0  0  0  0  0  0  0  0  0  0
  145.1959  136.9773  153.5696 H   0  0  0  0  0  0  0  0  0  0  0  0
  144.4685  137.0326  151.9896 H   0  0  0  0  0  0  0  0  0  0  0  0
  147.0158  136.1598  154.3730 H   0  0  0  0  0  0  0  0  0  0  0  0
  146.8252  134.6175  155.1918 H   0  0  0  0  0  0  0  0  0  0  0  0
  148.9488  135.5001  153.5778 H   0  0  0  0  0  0  0  0  0  0  0  0
  145.6438  131.1684  150.9978 H   0  0  0  0  0  0  0  0  0  0  0  0
  144.0636  131.5325  149.1152 H   0  0  0  0  0  0  0  0  0  0  0  0
  143.1279  133.7942  148.6799 H   0  0  0  0  0  0  0  0  0  0  0  0
  143.7773  135.7133  150.1303 H   0  0  0  0  0  0  0  0  0  0  0  0
  149.0365  137.1391  153.8521 H   0  0  0  0  0  0  0  0  0  0  0  0
  149.8515  137.1064  155.4171 H   0  0  0  0  0  0  0  0  0  0  0  0
  150.7362  137.5425  153.9494 H   0  0  0  0  0  0  0  0  0  0  0  0
  1  2  1  0  0  0  0
  1 26  1  0  0  0  0
  1 27  1  0  0  0  0
  1 28  1  0  0  0  0
  2 24  1  0  0  0  0
  2  3  2  0  0  0  0
  3  4  1  0  0  0  0
  3 29  1  0  0  0  0
  4  5  2  0  0  0  0
  4 30  1  0  0  0  0
  5  6  1  0  0  0  0
  5  7  1  0  0  0  0
  6 31  1  0  0  0  0
  6 32  1  0  0  0  0
  6 33  1  0  0  0  0
  7  8  1  0  0  0  0
  7 24  2  0  0  0  0
  8  9  1  0  0  0  0
  9 10  1  0  0  0  0
  9 34  1  0  0  0  0
  9 35  1  0  0  0  0
 10 11  1  0  0  0  0
 10 12  1  0  0  0  0
 10 36  1  0  0  0  0
 11 37  1  0  0  0  0
 12 13  1  0  0  0  0
 12 38  1  0  0  0  0
 12 39  1  0  0  0  0
 13 23  1  0  0  0  0
 13 14  1  0  0  0  0
 14 15  1  0  0  0  0
 14 17  2  0  0  0  0
 15 16  1  0  0  0  0
 15 40  1  0  0  0  0
 15 41  1  0  0  0  0
 16 42  1  0  0  0  0
 17 18  1  0  0  0  0
 18 23  2  0  0  0  0
 18 19  1  0  0  0  0
 19 20  2  0  0  0  0
 19 43  1  0  0  0  0
 20 21  1  0  0  0  0
 20 44  1  0  0  0  0
 21 22  2  0  0  0  0
 21 45  1  0  0  0  0
 22 23  1  0  0  0  0
 22 46  1  0  0  0  0
 24 25  1  0  0  0  0
 25 47  1  0  0  0  0
 25 48  1  0  0  0  0
 25 49  1  0  0  0  0
M  END
> <s_m_source_file>
AV-unprocessed.smi

> <i_m_source_file_index>
490

> <i_lp_mmshare_version>
43012

> <i_f3d_flags>
0

> <s_epik_input>
W0NIM11jMVtjSF1bY0hdYyhbQ0gzXSljKGMxW0NIM10pT1tDSDJdW0NASF0oW09IXSlbQ0gyXW4oYyhuMilbQ0gyXVtPSF0pYyhjMjMpW2NIXVtjSF1bY0hdW2NIXTM=

> <s_epik_cmdline>
J2VwaWtfcHl0aG9uJywgJy1waCcsICc3LjAnLCAnLXRuJywgJzgnLCAnLW1hJywgJzIwMCcsICctbWV0YWxfYmluZGluZycsICctaW1hZScsICc8aW5maWxlLm1hZT4nLCAnLW9tYWUnLCAnPG91dGZpbGUubWFlPic=

> <r_lp_tautomer_probability>
1

> <r_epik_Ionization_Penalty>
0.0555874

> <r_epik_Ionization_Penalty_Charging>
0

> <r_epik_Ionization_Penalty_Neutral>
0.0555874

> <r_epik_State_Penalty>
0.0478234

> <r_epik_Charging_Adjusted_Penalty>
0.0478234

> <i_epik_Tot_Q>
0

> <i_epik_Tot_abs_Q>
0

> <r_epik_Metal_State_Penalty>
4.98044e-05

> <b_epik_Metal_Only>
0

> <s_lp_Force_Field>
OPLS_2005

> <r_lp_Energy>
19.7492

> <b_lp_Chiralities_Consistent>
1

> <s_lp_Variant>
AV-unprocessed.smi:490-1

> <Gold.Version>
5.8.1

> <Gold.Id.Protein>
6NUR|6NUR_protein|mol2

> <Gold.PLP.Fitness>
49.3487

> <Gold.PLP.PLP>
-42.2834

> <Gold.PLP.part.hbond>
-3.9369

> <Gold.PLP.part.metal>
0.0000

> <Gold.PLP.part.buried>
4.7043

> <Gold.PLP.part.nonpolar>
-42.6259

> <Gold.PLP.part.repulsive>
0.2750

> <Gold.PLP.ligand.clash>
0.0140

> <Gold.PLP.ligand.torsion>
1.0053

> <Gold.PLP.Chemscore.Hbond>
2.9280

> <Gold.PLP.Chemscore.CHOScore>
0.0000

> <Gold.PLP.Chemscore.Metal>
0.0000

> <Gold.Chemscore.Hbonds>
donor molecule, donor type, donor heavy atom, donor atom, acceptor molecule, acceptor atom, score
      L1  H    11    37       P1 10171  1.00
      L1  H    16    42       P1  7948  0.99
      P1  H  7954  7966       L1    11  0.98

> <Gold.PLP.Chemscore.Internal.Correction>
0.3058

> <Gold.Rescore>
     Score         DG    S(hbond)    S(metal)    S(lipo)     H(rot)  DE(clash)    DE(int)     intcor
     17.22     -21.35       2.57        0.00     126.40       2.93       2.06       2.07       ----

> <Gold.Chemscore.Fitness>
17.2166

> <Gold.Chemscore.DG>
-21.3550

> <Gold.Chemscore.ZeroCoef>
-5.4800

> <Gold.Chemscore.Hbond>
2.5692

> <Gold.Chemscore.Metal>
0.0000

> <Gold.Chemscore.Lipo>
126.4036

> <Gold.Chemscore.Internal_Hbond>
0.0000

> <Gold.Chemscore.DEClash>
2.0637

> <Gold.Chemscore.DEInternal>
2.0746

> <Gold.Chemscore.Rot>
2.9279

> <Gold.Chemscore.Internal.Correction>
   9.000000E+99

> <Gold.Chemscore.Hbonds>
donor molecule, donor type, donor heavy atom, donor atom, acceptor molecule, acceptor atom, score
      L1  H    11    37       P1 10171  0.99
      L1  H    16    42       P1  7948  0.74
      P1  H  7954  7966       L1    11  0.51

> <Gold.Chemscore.Hbond.Weighted>
-8.5812

> <Gold.Chemscore.Metal.Weighted>
-0.0000

> <Gold.Chemscore.Lipo.Weighted>
-14.7892

> <Gold.Chemscore.Internal_Hbond.Weighted>
0.0000

> <Gold.Chemscore.DEClash.Weighted>
2.0637

> <Gold.Chemscore.DEInternal.Weighted>
2.0746

> <Gold.Chemscore.Rot.Weighted>
7.4954

> <Gold.Chemscore.Internal.Correction.Weighted>
   9.000000E+99

> <Gold.Protein.RotatedTorsions>
[ 6907 6896 6895 6894 ] final  122.16 input  -60.11 | X-H torsion
[ 7974 7965 7964 7962 ] final  102.80 input  175.53 | X-H torsion
[ 8008 7997 7996 7995 ] final  104.37 input   59.86 | X-H torsion
[ 10167 10162 10161 10158 ] final  160.11 input  -65.29 | X-H torsion
[ 10718 10713 10712 10709 ] final  -86.43 input   66.30 | X-H torsion
[ 10763 10752 10751 10750 ] final -163.71 input  -60.55 | X-H torsion
[ 11005 11000 10999 10996 ] final  162.53 input  -57.11 | X-H torsion

> <Gold.Protein.ActiveResidues>
 VAL166  LYS551  ARG553  GLY616  TRP617  ASP618  TYR619  PRO620  LYS621  CYS622 
 ASP623  PHE694  ASN695  SER759  ASP760  ASP761  ALA762  ILE779  LEU786  VAL792 
 PHE793  MET794  SER795  GLU796  ALA797  LYS798  CYS799  TRP800  GLU811  SER814 

> <Gold.Protein.RotatedAtoms>
  152.4265  133.7203  159.6529 H   0  0  0  0  0  0  0  0  0  0  0  0  # atno 6907 bound_to 6896
  150.8141  133.8357  159.3174 H   0  0  0  0  0  0  0  0  0  0  0  0  # atno 6908 bound_to 6896
  151.6059  135.1046  160.0122 H   0  0  0  0  0  0  0  0  0  0  0  0  # atno 6909 bound_to 6896
  145.3543  139.2432  143.3541 H   0  0  0  0  0  0  0  0  0  0  0  0  # atno 7974 bound_to 7965
  156.1567  140.3149  155.8738 H   0  0  0  0  0  0  0  0  0  0  0  0  # atno 8008 bound_to 7997
  155.3864  140.0491  157.3059 H   0  0  0  0  0  0  0  0  0  0  0  0  # atno 8009 bound_to 7997
  154.5108  140.2164  155.9171 H   0  0  0  0  0  0  0  0  0  0  0  0  # atno 8010 bound_to 7997
  139.4837  144.4665  151.8634 H   0  0  0  0  0  0  0  0  0  0  0  0  # atno 10167 bound_to 10162
  155.9990  130.4765  150.4713 H   0  0  0  0  0  0  0  0  0  0  0  0  # atno 10718 bound_to 10713
  154.7097  135.3004  154.9216 H   0  0  0  0  0  0  0  0  0  0  0  0  # atno 10763 bound_to 10752
  154.0121  135.6693  153.4770 H   0  0  0  0  0  0  0  0  0  0  0  0  # atno 10764 bound_to 10752
  153.0745  135.5042  154.8288 H   0  0  0  0  0  0  0  0  0  0  0  0  # atno 10765 bound_to 10752
  140.2266  134.8155  157.3275 H   0  0  0  0  0  0  0  0  0  0  0  0  # atno 11005 bound_to 11000
  146.2955  140.4165  142.8723 LP  0  0  0  0  0  0  0  0  0  0  0  0  # atno 17320 bound_to 7965
  144.8694  140.7251  143.6056 LP  0  0  0  0  0  0  0  0  0  0  0  0  # atno 17321 bound_to 7965
  140.4131  144.2343  150.5888 LP  0  0  0  0  0  0  0  0  0  0  0  0  # atno 17342 bound_to 10162
  140.4947  143.2336  151.8767 LP  0  0  0  0  0  0  0  0  0  0  0  0  # atno 17343 bound_to 10162
  157.2728  131.0590  151.2249 LP  0  0  0  0  0  0  0  0  0  0  0  0  # atno 17370 bound_to 10713
  157.3323  130.6991  149.6332 LP  0  0  0  0  0  0  0  0  0  0  0  0  # atno 17371 bound_to 10713
  140.1793  134.4509  155.7782 LP  0  0  0  0  0  0  0  0  0  0  0  0  # atno 17394 bound_to 11000
  141.2220  133.6976  156.7842 LP  0  0  0  0  0  0  0  0  0  0  0  0  # atno 17395 bound_to 11000

$$$$
