AV-unprocessed.smi:1567|AV-procd|sdf|6309|dock3
  -GOLD-   22720 6513D 1   1.00000     0.00000
 Structure written by MMmdl.
 43 45  0  0  0  0  0  0  0  0  2 V2000
  151.3158  135.9025  157.5493 O   0  0  0  0  0  0  0  0  0  0  0  0
  150.9570  136.3455  156.2585 C   0  0  0  0  0  0  0  0  0  0  0  0
  151.9025  137.4702  155.8165 C   0  0  0  0  0  0  0  0  0  0  0  0
  151.6172  137.9458  154.3820 C   0  0  0  0  0  0  0  0  0  0  0  0
  150.4470  138.8776  154.2854 C   0  0  0  0  0  0  0  0  0  0  0  0
  149.3241  138.7080  153.5276 N   0  3  0  0  0  0  0  0  0  0  0  0
  148.4623  139.7910  153.7051 C   0  0  0  0  0  0  0  0  0  0  0  0
  147.2158  140.0659  153.1510 C   0  0  0  0  0  0  0  0  0  0  0  0
  146.5999  141.2718  153.5461 C   0  0  0  0  0  0  0  0  0  0  0  0
  147.2214  142.1494  154.4585 C   0  0  0  0  0  0  0  0  0  0  0  0
  148.4845  141.8591  155.0148 C   0  0  0  0  0  0  0  0  0  0  0  0
  149.0864  140.6654  154.6172 C   0  0  0  0  0  0  0  0  0  0  0  0
  150.3033  140.0609  154.9499 N   0  0  0  0  0  0  0  0  0  0  0  0
  151.1980  140.7358  155.9025 C   0  0  0  0  0  0  0  0  0  0  0  0
  150.5636  140.9216  157.2953 C   0  0  1  0  0  0  0  0  0  0  0  0
  150.2585  139.6571  157.8535 O   0  0  0  0  0  0  0  0  0  0  0  0
  151.4564  141.7655  158.1951 C   0  0  0  0  0  0  0  0  0  0  0  0
  151.4201  143.1769  158.1289 C   0  0  0  0  0  0  0  0  0  0  0  0
  152.2413  143.9507  158.9718 C   0  0  0  0  0  0  0  0  0  0  0  0
  152.2017  145.3021  158.9007 F   0  0  0  0  0  0  0  0  0  0  0  0
  153.1014  143.3196  159.8901 C   0  0  0  0  0  0  0  0  0  0  0  0
  153.1364  141.9146  159.9678 C   0  0  0  0  0  0  0  0  0  0  0  0
  152.3161  141.1387  159.1258 C   0  0  0  0  0  0  0  0  0  0  0  0
  152.3542  139.7875  159.2210 F   0  0  0  0  0  0  0  0  0  0  0  0
  151.7111  135.0469  157.4759 H   0  0  0  0  0  0  0  0  0  0  0  0
  151.0073  135.5045  155.5664 H   0  0  0  0  0  0  0  0  0  0  0  0
  149.9239  136.6942  156.2770 H   0  0  0  0  0  0  0  0  0  0  0  0
  151.8057  138.3101  156.5061 H   0  0  0  0  0  0  0  0  0  0  0  0
  152.9341  137.1222  155.8883 H   0  0  0  0  0  0  0  0  0  0  0  0
  152.4953  138.4502  153.9776 H   0  0  0  0  0  0  0  0  0  0  0  0
  151.4266  137.0849  153.7406 H   0  0  0  0  0  0  0  0  0  0  0  0
  146.7379  139.3950  152.4523 H   0  0  0  0  0  0  0  0  0  0  0  0
  145.6317  141.5289  153.1417 H   0  0  0  0  0  0  0  0  0  0  0  0
  146.7187  143.0641  154.7382 H   0  0  0  0  0  0  0  0  0  0  0  0
  148.9516  142.5369  155.7139 H   0  0  0  0  0  0  0  0  0  0  0  0
  152.1136  140.1482  155.9784 H   0  0  0  0  0  0  0  0  0  0  0  0
  151.4872  141.6968  155.4749 H   0  0  0  0  0  0  0  0  0  0  0  0
  149.6093  141.4374  157.1866 H   0  0  0  0  0  0  0  0  0  0  0  0
  149.4224  139.7159  158.2903 H   0  0  0  0  0  0  0  0  0  0  0  0
  150.7595  143.6749  157.4341 H   0  0  0  0  0  0  0  0  0  0  0  0
  153.7307  143.9126  160.5372 H   0  0  0  0  0  0  0  0  0  0  0  0
  153.7920  141.4306  160.6768 H   0  0  0  0  0  0  0  0  0  0  0  0
  149.1635  137.9061  152.9318 H   0  0  0  0  0  0  0  0  0  0  0  0
  1  2  1  0  0  0  0
  1 25  1  0  0  0  0
  2  3  1  0  0  0  0
  2 26  1  0  0  0  0
  2 27  1  0  0  0  0
  3  4  1  0  0  0  0
  3 28  1  0  0  0  0
  3 29  1  0  0  0  0
  4  5  1  0  0  0  0
  4 30  1  0  0  0  0
  4 31  1  0  0  0  0
  5 13  1  0  0  0  0
  5  6  2  0  0  0  0
  6  7  1  0  0  0  0
  6 43  1  0  0  0  0
  7 12  2  0  0  0  0
  7  8  1  0  0  0  0
  8  9  2  0  0  0  0
  8 32  1  0  0  0  0
  9 10  1  0  0  0  0
  9 33  1  0  0  0  0
 10 11  2  0  0  0  0
 10 34  1  0  0  0  0
 11 12  1  0  0  0  0
 11 35  1  0  0  0  0
 12 13  1  0  0  0  0
 13 14  1  0  0  0  0
 14 15  1  0  0  0  0
 14 36  1  0  0  0  0
 14 37  1  0  0  0  0
 15 16  1  0  0  0  0
 15 17  1  0  0  0  0
 15 38  1  0  0  0  0
 16 39  1  0  0  0  0
 17 23  1  0  0  0  0
 17 18  2  0  0  0  0
 18 19  1  0  0  0  0
 18 40  1  0  0  0  0
 19 20  1  0  0  0  0
 19 21  2  0  0  0  0
 21 22  1  0  0  0  0
 21 41  1  0  0  0  0
 22 23  2  0  0  0  0
 22 42  1  0  0  0  0
 23 24  1  0  0  0  0
M  CHG  1   6   1
M  END
> <s_m_source_file>
AV-unprocessed.smi

> <i_m_source_file_index>
1567

> <i_lp_mmshare_version>
43012

> <i_f3d_flags>
0

> <s_epik_input>
W09IXVtDSDJdW0NIMl1bQ0gyXWMobjEpbihjKGMxMilbY0hdW2NIXVtjSF1bY0hdMilbQ0gyXVtDQEhdKFtPSF0pYzNbY0hdYyhGKVtjSF1bY0hdYzNG

> <s_epik_cmdline>
J2VwaWtfcHl0aG9uJywgJy1waCcsICc3LjAnLCAnLXRuJywgJzgnLCAnLW1hJywgJzIwMCcsICctbWV0YWxfYmluZGluZycsICctaW1hZScsICc8aW5maWxlLm1hZT4nLCAnLW9tYWUnLCAnPG91dGZpbGUubWFlPic=

> <r_epik_Ionization_Penalty>
0.786443

> <r_epik_Ionization_Penalty_Charging>
0.786439

> <r_epik_Ionization_Penalty_Neutral>
3.69699e-06

> <r_epik_State_Penalty>
0.816472

> <r_epik_Charging_Adjusted_Penalty>
1.60291

> <i_epik_Tot_Q>
1

> <i_epik_Tot_abs_Q>
1

> <r_epik_Metal_State_Penalty>
4.73733

> <b_epik_Metal_Only>
0

> <s_lp_Force_Field>
OPLS_2005

> <r_lp_Energy>
17.6008

> <b_lp_Chiralities_Consistent>
1

> <s_lp_Variant>
AV-unprocessed.smi:1567-4

> <Gold.Version>
5.8.1

> <Gold.Id.Protein>
6NUR|6NUR_protein|mol2

> <Gold.PLP.Fitness>
60.0609

> <Gold.PLP.PLP>
-55.5436

> <Gold.PLP.part.hbond>
-3.0000

> <Gold.PLP.part.metal>
0.0000

> <Gold.PLP.part.buried>
0.6314

> <Gold.PLP.part.nonpolar>
-52.9424

> <Gold.PLP.part.repulsive>
0.0774

> <Gold.PLP.ligand.clash>
0.0000

> <Gold.PLP.ligand.torsion>
0.7917

> <Gold.PLP.Chemscore.Hbond>
2.0000

> <Gold.PLP.Chemscore.CHOScore>
0.0000

> <Gold.PLP.Chemscore.Metal>
0.0000

> <Gold.Chemscore.Hbonds>
donor molecule, donor type, donor heavy atom, donor atom, acceptor molecule, acceptor atom, score
      L1  H     6    43       P1  7948  2.00

> <Gold.PLP.Chemscore.Internal.Correction>
0.1008

> <Gold.Rescore>
     Score         DG    S(hbond)    S(metal)    S(lipo)     H(rot)  DE(clash)    DE(int)     intcor
     12.80     -15.40       0.99        0.00     129.08       3.31       0.12       2.48       ----

> <Gold.Chemscore.Fitness>
12.8031

> <Gold.Chemscore.DG>
-15.4035

> <Gold.Chemscore.ZeroCoef>
-5.4800

> <Gold.Chemscore.Hbond>
0.9886

> <Gold.Chemscore.Metal>
0.0000

> <Gold.Chemscore.Lipo>
129.0784

> <Gold.Chemscore.Internal_Hbond>
0.0000

> <Gold.Chemscore.DEClash>
0.1240

> <Gold.Chemscore.DEInternal>
2.4764

> <Gold.Chemscore.Rot>
3.3127

> <Gold.Chemscore.Internal.Correction>
   9.000000E+99

> <Gold.Chemscore.Hbonds>
donor molecule, donor type, donor heavy atom, donor atom, acceptor molecule, acceptor atom, score
      L1  H     6    43       P1  7948  0.97

> <Gold.Chemscore.Hbond.Weighted>
-3.3018

> <Gold.Chemscore.Metal.Weighted>
-0.0000

> <Gold.Chemscore.Lipo.Weighted>
-15.1022

> <Gold.Chemscore.Internal_Hbond.Weighted>
0.0000

> <Gold.Chemscore.DEClash.Weighted>
0.1240

> <Gold.Chemscore.DEInternal.Weighted>
2.4764

> <Gold.Chemscore.Rot.Weighted>
8.4805

> <Gold.Chemscore.Internal.Correction.Weighted>
   9.000000E+99

> <Gold.Protein.RotatedTorsions>
[ 6907 6896 6895 6894 ] final   21.15 input  -60.11 | X-H torsion
[ 7974 7965 7964 7962 ] final -108.54 input  175.53 | X-H torsion
[ 8008 7997 7996 7995 ] final   43.79 input   59.86 | X-H torsion
[ 10167 10162 10161 10158 ] final  111.43 input  -65.29 | X-H torsion
[ 10718 10713 10712 10709 ] final -174.58 input   66.30 | X-H torsion
[ 10763 10752 10751 10750 ] final  171.42 input  -60.55 | X-H torsion
[ 11005 11000 10999 10996 ] final  -45.85 input  -57.11 | X-H torsion

> <Gold.Protein.ActiveResidues>
 VAL166  LYS551  ARG553  GLY616  TRP617  ASP618  TYR619  PRO620  LYS621  CYS622 
 ASP623  PHE694  ASN695  SER759  ASP760  ASP761  ALA762  ILE779  LEU786  VAL792 
 PHE793  MET794  SER795  GLU796  ALA797  LYS798  CYS799  TRP800  GLU811  SER814 

> <Gold.Protein.RotatedAtoms>
  151.9074  135.0353  160.0511 H   0  0  0  0  0  0  0  0  0  0  0  0  # atno 6907 bound_to 6896
  152.2308  133.5052  159.5223 H   0  0  0  0  0  0  0  0  0  0  0  0  # atno 6908 bound_to 6896
  150.7025  134.1135  159.4051 H   0  0  0  0  0  0  0  0  0  0  0  0  # atno 6909 bound_to 6896
  145.1916  140.9017  143.3421 H   0  0  0  0  0  0  0  0  0  0  0  0  # atno 7974 bound_to 7965
  155.3086  140.3389  155.4245 H   0  0  0  0  0  0  0  0  0  0  0  0  # atno 8008 bound_to 7997
  156.1966  140.1717  156.8023 H   0  0  0  0  0  0  0  0  0  0  0  0  # atno 8009 bound_to 7997
  154.5507  140.0706  156.8646 H   0  0  0  0  0  0  0  0  0  0  0  0  # atno 8010 bound_to 7997
  139.6611  144.7128  151.1863 H   0  0  0  0  0  0  0  0  0  0  0  0  # atno 10167 bound_to 10162
  156.7872  130.9505  151.3120 H   0  0  0  0  0  0  0  0  0  0  0  0  # atno 10718 bound_to 10713
  154.4116  135.2756  155.2033 H   0  0  0  0  0  0  0  0  0  0  0  0  # atno 10763 bound_to 10752
  154.4016  135.6043  153.5904 H   0  0  0  0  0  0  0  0  0  0  0  0  # atno 10764 bound_to 10752
  152.9831  135.5928  154.4398 H   0  0  0  0  0  0  0  0  0  0  0  0  # atno 10765 bound_to 10752
  141.0542  133.6732  156.3072 H   0  0  0  0  0  0  0  0  0  0  0  0  # atno 11005 bound_to 11000
  145.0035  139.3576  143.6155 LP  0  0  0  0  0  0  0  0  0  0  0  0  # atno 17320 bound_to 7965
  146.3435  139.9269  142.8759 LP  0  0  0  0  0  0  0  0  0  0  0  0  # atno 17321 bound_to 7965
  140.7580  143.5992  150.8717 LP  0  0  0  0  0  0  0  0  0  0  0  0  # atno 17342 bound_to 10162
  139.9650  143.6121  152.2991 LP  0  0  0  0  0  0  0  0  0  0  0  0  # atno 17343 bound_to 10162
  157.6618  130.8972  149.9846 LP  0  0  0  0  0  0  0  0  0  0  0  0  # atno 17370 bound_to 10713
  156.1181  130.3647  149.9933 LP  0  0  0  0  0  0  0  0  0  0  0  0  # atno 17371 bound_to 10713
  140.5997  134.5567  157.5515 LP  0  0  0  0  0  0  0  0  0  0  0  0  # atno 17394 bound_to 11000
  139.9376  134.7847  156.0763 LP  0  0  0  0  0  0  0  0  0  0  0  0  # atno 17395 bound_to 11000

$$$$
