AV-unprocessed.smi:34|AV-procd|sdf|218|dock6
  -GOLD-   2262015533D 1   1.00000     0.00000
 Structure written by MMmdl.
 55 59  0  0  0  0  0  0  0  0  1 V2000
  154.3075  141.6630  161.9680 O   0  0  0  0  0  0  0  0  0  0  0  0
  153.7146  141.5907  160.8913 C   0  0  0  0  0  0  0  0  0  0  0  0
  153.6879  140.3722  160.1018 N   0  0  0  0  0  0  0  0  0  0  0  0
  154.2128  139.1632  160.4104 C   0  0  0  0  0  0  0  0  0  0  0  0
  154.2902  138.7063  161.6877 N   0  0  0  0  0  0  0  0  0  0  0  0
  154.8181  137.5056  161.9408 C   0  0  0  0  0  0  0  0  0  0  0  0
  155.3171  136.6170  161.0799 N   0  0  0  0  0  0  0  0  0  0  0  0
  155.2419  137.0647  159.7931 C   0  0  0  0  0  0  0  0  0  0  0  0
  154.7041  138.3169  159.3823 C   0  0  0  0  0  0  0  0  0  0  0  0
  154.7858  138.4345  158.0014 N   0  0  0  0  0  0  0  0  0  0  0  0
  155.3416  137.3160  157.6218 C   0  0  0  0  0  0  0  0  0  0  0  0
  155.6487  136.4325  158.6328 N   0  0  0  0  0  0  0  0  0  0  0  0
  156.2848  135.0814  158.4857 C   0  0  1  0  0  0  0  0  0  0  0  0
  156.0006  134.5618  157.2172 O   0  0  0  0  0  0  0  0  0  0  0  0
  157.2106  134.3527  156.4917 C   0  0  2  0  0  0  0  0  0  0  0  0
  157.0442  133.1927  155.5040 C   0  0  0  0  0  0  0  0  0  0  0  0
  157.3871  133.6339  154.2006 O   0  0  0  0  0  0  0  0  0  0  0  0
  157.6943  132.7388  153.2422 C   0  0  0  0  0  0  0  0  0  0  0  0
  157.2250  131.5998  153.1970 O   0  0  0  0  0  0  0  0  0  0  0  0
  158.6601  133.2727  152.2386 C   0  0  0  0  0  0  0  0  0  0  0  0
  158.8902  134.6669  152.1709 C   0  0  0  0  0  0  0  0  0  0  0  0
  159.7997  135.1993  151.2363 C   0  0  0  0  0  0  0  0  0  0  0  0
  160.4895  134.3444  150.3572 C   0  0  0  0  0  0  0  0  0  0  0  0
  160.2678  132.9560  150.4130 C   0  0  0  0  0  0  0  0  0  0  0  0
  159.3589  132.4215  151.3471 C   0  0  0  0  0  0  0  0  0  0  0  0
  158.2360  134.1060  157.5942 C   0  0  1  0  0  0  0  0  0  0  0  0
  159.5044  134.2462  157.2043 F   0  0  0  0  0  0  0  0  0  0  0  0
  157.8186  135.1132  158.6501 C   0  0  1  0  0  0  0  0  0  0  0  0
  158.3896  136.3897  158.4134 O   0  0  0  0  0  0  0  0  0  0  0  0
  153.0505  142.7863  160.2740 C   0  0  0  0  0  0  0  0  0  0  0  0
  152.6587  143.8748  161.0853 C   0  0  0  0  0  0  0  0  0  0  0  0
  152.0270  144.9973  160.5153 C   0  0  0  0  0  0  0  0  0  0  0  0
  151.7733  145.0363  159.1312 C   0  0  0  0  0  0  0  0  0  0  0  0
  152.1474  143.9500  158.3179 C   0  0  0  0  0  0  0  0  0  0  0  0
  152.7799  142.8272  158.8866 C   0  0  0  0  0  0  0  0  0  0  0  0
  153.2190  140.4351  159.2100 H   0  0  0  0  0  0  0  0  0  0  0  0
  154.8441  137.2160  162.9809 H   0  0  0  0  0  0  0  0  0  0  0  0
  155.5427  137.1014  156.5823 H   0  0  0  0  0  0  0  0  0  0  0  0
  155.7919  134.4628  159.2367 H   0  0  0  0  0  0  0  0  0  0  0  0
  157.4553  135.2694  155.9538 H   0  0  0  0  0  0  0  0  0  0  0  0
  157.6654  132.3454  155.7982 H   0  0  0  0  0  0  0  0  0  0  0  0
  156.0069  132.8555  155.5044 H   0  0  0  0  0  0  0  0  0  0  0  0
  158.3730  135.3432  152.8362 H   0  0  0  0  0  0  0  0  0  0  0  0
  159.9682  136.2653  151.1950 H   0  0  0  0  0  0  0  0  0  0  0  0
  161.1873  134.7529  149.6411 H   0  0  0  0  0  0  0  0  0  0  0  0
  160.7953  132.2981  149.7382 H   0  0  0  0  0  0  0  0  0  0  0  0
  159.2120  131.3514  151.3624 H   0  0  0  0  0  0  0  0  0  0  0  0
  158.1296  133.0933  157.9856 H   0  0  0  0  0  0  0  0  0  0  0  0
  158.0899  134.7892  159.6553 H   0  0  0  0  0  0  0  0  0  0  0  0
  158.9471  136.3325  157.6524 H   0  0  0  0  0  0  0  0  0  0  0  0
  152.8473  143.8598  162.1491 H   0  0  0  0  0  0  0  0  0  0  0  0
  151.7368  145.8285  161.1408 H   0  0  0  0  0  0  0  0  0  0  0  0
  151.2892  145.8973  158.6943 H   0  0  0  0  0  0  0  0  0  0  0  0
  151.9472  143.9766  157.2569 H   0  0  0  0  0  0  0  0  0  0  0  0
  153.0510  141.9998  158.2467 H   0  0  0  0  0  0  0  0  0  0  0  0
  1  2  2  0  0  0  0
  2  3  1  0  0  0  0
  2 30  1  0  0  0  0
  3  4  1  0  0  0  0
  3 36  1  0  0  0  0
  4  9  1  0  0  0  0
  4  5  2  0  0  0  0
  5  6  1  0  0  0  0
  6  7  2  0  0  0  0
  6 37  1  0  0  0  0
  7  8  1  0  0  0  0
  8 12  1  0  0  0  0
  8  9  2  0  0  0  0
  9 10  1  0  0  0  0
 10 11  2  0  0  0  0
 11 12  1  0  0  0  0
 11 38  1  0  0  0  0
 12 13  1  0  0  0  0
 13 28  1  0  0  0  0
 13 14  1  0  0  0  0
 13 39  1  0  0  0  0
 14 15  1  0  0  0  0
 15 16  1  0  0  0  0
 15 26  1  0  0  0  0
 15 40  1  0  0  0  0
 16 17  1  0  0  0  0
 16 41  1  0  0  0  0
 16 42  1  0  0  0  0
 17 18  1  0  0  0  0
 18 19  2  0  0  0  0
 18 20  1  0  0  0  0
 20 25  1  0  0  0  0
 20 21  2  0  0  0  0
 21 22  1  0  0  0  0
 21 43  1  0  0  0  0
 22 23  2  0  0  0  0
 22 44  1  0  0  0  0
 23 24  1  0  0  0  0
 23 45  1  0  0  0  0
 24 25  2  0  0  0  0
 24 46  1  0  0  0  0
 25 47  1  0  0  0  0
 26 27  1  0  0  0  0
 26 28  1  0  0  0  0
 26 48  1  0  0  0  0
 28 29  1  0  0  0  0
 28 49  1  0  0  0  0
 29 50  1  0  0  0  0
 30 35  1  0  0  0  0
 30 31  2  0  0  0  0
 31 32  1  0  0  0  0
 31 51  1  0  0  0  0
 32 33  2  0  0  0  0
 32 52  1  0  0  0  0
 33 34  1  0  0  0  0
 33 53  1  0  0  0  0
 34 35  2  0  0  0  0
 34 54  1  0  0  0  0
 35 55  1  0  0  0  0
M  END
> <s_m_source_file>
AV-unprocessed.smi

> <i_m_source_file_index>
34

> <i_lp_mmshare_version>
43012

> <i_f3d_flags>
0

> <s_epik_input>
W2NIXTFbY0hdW2NIXVtjSF1bY0hdYzFDKD1PKVtOSF1jKG5bY0hdbjIpYyhjMjMpbltjSF1uM1tDQEBIXTRPW0NASF0oW0NAQEhdKEYpW0NASF00W09IXSlbQ0gyXU9DKD1PKWM1W2NIXVtjSF1bY0hdW2NIXVtjSF01

> <s_epik_cmdline>
J2VwaWtfcHl0aG9uJywgJy1waCcsICc3LjAnLCAnLXRuJywgJzgnLCAnLW1hJywgJzIwMCcsICctbWV0YWxfYmluZGluZycsICctaW1hZScsICc8aW5maWxlLm1hZT4nLCAnLW9tYWUnLCAnPG91dGZpbGUubWFlPic=

> <r_lp_tautomer_probability>
1

> <r_epik_Ionization_Penalty>
0.00257489

> <r_epik_Ionization_Penalty_Charging>
0

> <r_epik_Ionization_Penalty_Neutral>
0.00257489

> <r_epik_State_Penalty>
0.00519398

> <r_epik_Charging_Adjusted_Penalty>
0.00519398

> <i_epik_Tot_Q>
0

> <i_epik_Tot_abs_Q>
0

> <r_epik_Metal_State_Penalty>
0.335891

> <b_epik_Metal_Only>
0

> <s_epik_Chemistry_Notes>
This compound has an ester and may undergo hydrolysis at high or low pH. This compound contains an acetal/aminal-like group ( X-CH(R)-Y where X, Y are N, S, or O) that may be acid/base labile, releasing an aldehyde.

> <s_lp_Force_Field>
OPLS_2005

> <r_lp_Energy>
55.7216

> <b_lp_Chiralities_Consistent>
1

> <s_lp_Variant>
AV-unprocessed.smi:34-4

> <Gold.Version>
5.8.1

> <Gold.Id.Protein>
6NUR|6NUR_protein|mol2

> <Gold.PLP.Fitness>
58.5315

> <Gold.PLP.PLP>
-57.5326

> <Gold.PLP.part.hbond>
-2.8862

> <Gold.PLP.part.metal>
0.0000

> <Gold.PLP.part.buried>
-7.7624

> <Gold.PLP.part.nonpolar>
-48.1054

> <Gold.PLP.part.repulsive>
0.0738

> <Gold.PLP.ligand.clash>
0.0000

> <Gold.PLP.ligand.torsion>
2.4288

> <Gold.PLP.Chemscore.Hbond>
1.8713

> <Gold.PLP.Chemscore.CHOScore>
0.0000

> <Gold.PLP.Chemscore.Metal>
0.0000

> <Gold.Chemscore.Hbonds>
donor molecule, donor type, donor heavy atom, donor atom, acceptor molecule, acceptor atom, score
      P1  H  7997  8010       L1    10  0.86
      P1  H 10713 10718       L1    19  1.00

> <Gold.PLP.Chemscore.Internal.Correction>
0.2428

> <Gold.Rescore>
     Score         DG    S(hbond)    S(metal)    S(lipo)     H(rot)  DE(clash)    DE(int)     intcor
     18.19     -21.85       1.72        0.00     150.30       2.72       0.16       3.50       ----

> <Gold.Chemscore.Fitness>
18.1880

> <Gold.Chemscore.DG>
-21.8487

> <Gold.Chemscore.ZeroCoef>
-5.4800

> <Gold.Chemscore.Hbond>
1.7218

> <Gold.Chemscore.Metal>
0.0000

> <Gold.Chemscore.Lipo>
150.2994

> <Gold.Chemscore.Internal_Hbond>
0.0000

> <Gold.Chemscore.DEClash>
0.1596

> <Gold.Chemscore.DEInternal>
3.5010

> <Gold.Chemscore.Rot>
2.7215

> <Gold.Chemscore.Internal.Correction>
   9.000000E+99

> <Gold.Chemscore.Hbonds>
donor molecule, donor type, donor heavy atom, donor atom, acceptor molecule, acceptor atom, score
      P1  H  7997  8010       L1    10  0.82
      P1  H 10713 10718       L1    19  0.69

> <Gold.Chemscore.Hbond.Weighted>
-5.7507

> <Gold.Chemscore.Metal.Weighted>
-0.0000

> <Gold.Chemscore.Lipo.Weighted>
-17.5850

> <Gold.Chemscore.Internal_Hbond.Weighted>
0.0000

> <Gold.Chemscore.DEClash.Weighted>
0.1596

> <Gold.Chemscore.DEInternal.Weighted>
3.5010

> <Gold.Chemscore.Rot.Weighted>
6.9670

> <Gold.Chemscore.Internal.Correction.Weighted>
   9.000000E+99

> <Gold.Protein.RotatedTorsions>
[ 6907 6896 6895 6894 ] final   71.95 input  -60.11 | X-H torsion
[ 7974 7965 7964 7962 ] final  -38.26 input  175.53 | X-H torsion
[ 8008 7997 7996 7995 ] final   -4.72 input   59.86 | X-H torsion
[ 10167 10162 10161 10158 ] final  -54.69 input  -65.29 | X-H torsion
[ 10718 10713 10712 10709 ] final  167.00 input   66.30 | X-H torsion
[ 10763 10752 10751 10750 ] final  -46.69 input  -60.55 | X-H torsion
[ 11005 11000 10999 10996 ] final  -88.57 input  -57.11 | X-H torsion

> <Gold.Protein.ActiveResidues>
 VAL166  LYS551  ARG553  GLY616  TRP617  ASP618  TYR619  PRO620  LYS621  CYS622 
 ASP623  PHE694  ASN695  SER759  ASP760  ASP761  ALA762  ILE779  LEU786  VAL792 
 PHE793  MET794  SER795  GLU796  ALA797  LYS798  CYS799  TRP800  GLU811  SER814 

> <Gold.Protein.RotatedAtoms>
  152.4840  134.4643  159.9615 H   0  0  0  0  0  0  0  0  0  0  0  0  # atno 6907 bound_to 6896
  151.4643  133.3579  159.2822 H   0  0  0  0  0  0  0  0  0  0  0  0  # atno 6908 bound_to 6896
  150.8935  134.8366  159.7371 H   0  0  0  0  0  0  0  0  0  0  0  0  # atno 6909 bound_to 6896
  146.0502  140.6491  142.9045 H   0  0  0  0  0  0  0  0  0  0  0  0  # atno 7974 bound_to 7965
  154.6113  140.2477  155.7665 H   0  0  0  0  0  0  0  0  0  0  0  0  # atno 8008 bound_to 7997
  156.2372  140.2946  156.0296 H   0  0  0  0  0  0  0  0  0  0  0  0  # atno 8009 bound_to 7997
  155.2047  140.0395  157.2914 H   0  0  0  0  0  0  0  0  0  0  0  0  # atno 8010 bound_to 7997
  140.6416  143.2511  151.4973 H   0  0  0  0  0  0  0  0  0  0  0  0  # atno 10167 bound_to 10162
  157.0578  131.0331  151.2658 H   0  0  0  0  0  0  0  0  0  0  0  0  # atno 10718 bound_to 10713
  154.0492  135.6633  153.4798 H   0  0  0  0  0  0  0  0  0  0  0  0  # atno 10763 bound_to 10752
  153.0470  135.5108  154.7767 H   0  0  0  0  0  0  0  0  0  0  0  0  # atno 10764 bound_to 10752
  154.6768  135.3038  154.9633 H   0  0  0  0  0  0  0  0  0  0  0  0  # atno 10765 bound_to 10752
  141.1599  133.7578  156.9471 H   0  0  0  0  0  0  0  0  0  0  0  0  # atno 11005 bound_to 11000
  144.7119  140.4069  143.7074 LP  0  0  0  0  0  0  0  0  0  0  0  0  # atno 17320 bound_to 7965
  145.6737  139.1604  143.2740 LP  0  0  0  0  0  0  0  0  0  0  0  0  # atno 17321 bound_to 7965
  139.5626  144.2120  152.1715 LP  0  0  0  0  0  0  0  0  0  0  0  0  # atno 17342 bound_to 10162
  140.1392  144.5217  150.6754 LP  0  0  0  0  0  0  0  0  0  0  0  0  # atno 17343 bound_to 10162
  157.4979  130.7861  149.7574 LP  0  0  0  0  0  0  0  0  0  0  0  0  # atno 17370 bound_to 10713
  155.9987  130.3892  150.2690 LP  0  0  0  0  0  0  0  0  0  0  0  0  # atno 17371 bound_to 10713
  140.1282  134.9373  157.2300 LP  0  0  0  0  0  0  0  0  0  0  0  0  # atno 17394 bound_to 11000
  140.2986  134.3158  155.7296 LP  0  0  0  0  0  0  0  0  0  0  0  0  # atno 17395 bound_to 11000

$$$$
