AV-unprocessed.smi:60|AV-procd|sdf|593|dock8
  -GOLD-   2262016483D 1   1.00000     0.00000
 Structure written by MMmdl.
 36 37  0  0  0  0  0  0  0  0  1 V2000
  152.6635  140.1574  157.5732 O   0  0  0  0  0  0  0  0  0  0  0  0
  151.4752  140.4739  157.5502 C   0  0  0  0  0  0  0  0  0  0  0  0
  150.5166  139.5242  157.1838 N   0  0  0  0  0  0  0  0  0  0  0  0
  149.1409  139.7417  157.1216 C   0  0  0  0  0  0  0  0  0  0  0  0
  148.3850  138.8328  156.7777 O   0  0  0  0  0  0  0  0  0  0  0  0
  148.6880  141.0308  157.4710 N   0  0  0  0  0  0  0  0  0  0  0  0
  147.2618  141.2857  157.3741 C   0  0  0  0  0  0  0  0  0  0  0  0
  147.0496  142.3585  156.5145 O   0  0  0  0  0  0  0  0  0  0  0  0
  146.2762  142.0157  155.3753 C   0  0  0  0  0  0  0  0  0  0  0  0
  147.2112  141.8062  154.1783 C   0  0  0  0  0  0  0  0  0  0  0  0
  148.1600  142.8493  154.1149 O   0  0  0  0  0  0  0  0  0  0  0  0
  149.6018  142.0107  157.8208 C   0  0  0  0  0  0  0  0  0  0  0  0
  150.9413  141.7997  157.8824 C   0  0  0  0  0  0  0  0  0  0  0  0
  151.9129  142.9019  158.2779 C   0  0  0  0  0  0  0  0  0  0  0  0
  152.3100  142.8543  159.7426 C   0  0  0  0  0  0  0  0  0  0  0  0
  151.9121  143.8864  160.6190 C   0  0  0  0  0  0  0  0  0  0  0  0
  152.2748  143.8402  161.9791 C   0  0  0  0  0  0  0  0  0  0  0  0
  153.0388  142.7633  162.4684 C   0  0  0  0  0  0  0  0  0  0  0  0
  153.4400  141.7325  161.5965 C   0  0  0  0  0  0  0  0  0  0  0  0
  153.0760  141.7772  160.2364 C   0  0  0  0  0  0  0  0  0  0  0  0
  150.8496  138.6022  156.9422 H   0  0  0  0  0  0  0  0  0  0  0  0
  146.7606  140.3809  157.0212 H   0  0  0  0  0  0  0  0  0  0  0  0
  146.8752  141.5227  158.3671 H   0  0  0  0  0  0  0  0  0  0  0  0
  145.7480  141.0833  155.5821 H   0  0  0  0  0  0  0  0  0  0  0  0
  145.5216  142.7736  155.1569 H   0  0  0  0  0  0  0  0  0  0  0  0
  147.7090  140.8372  154.2267 H   0  0  0  0  0  0  0  0  0  0  0  0
  146.6355  141.8284  153.2528 H   0  0  0  0  0  0  0  0  0  0  0  0
  148.6273  142.8807  154.9359 H   0  0  0  0  0  0  0  0  0  0  0  0
  149.2273  142.9951  158.0637 H   0  0  0  0  0  0  0  0  0  0  0  0
  152.7987  142.8639  157.6420 H   0  0  0  0  0  0  0  0  0  0  0  0
  151.4540  143.8721  158.0838 H   0  0  0  0  0  0  0  0  0  0  0  0
  151.3253  144.7152  160.2511 H   0  0  0  0  0  0  0  0  0  0  0  0
  151.9662  144.6305  162.6473 H   0  0  0  0  0  0  0  0  0  0  0  0
  153.3169  142.7278  163.5114 H   0  0  0  0  0  0  0  0  0  0  0  0
  154.0255  140.9058  161.9715 H   0  0  0  0  0  0  0  0  0  0  0  0
  153.3843  140.9803  159.5754 H   0  0  0  0  0  0  0  0  0  0  0  0
  1  2  2  0  0  0  0
  2 13  1  0  0  0  0
  2  3  1  0  0  0  0
  3 21  1  0  0  0  0
  3  4  1  0  0  0  0
  4  5  2  0  0  0  0
  4  6  1  0  0  0  0
  6  7  1  0  0  0  0
  6 12  1  0  0  0  0
  7  8  1  0  0  0  0
  7 22  1  0  0  0  0
  7 23  1  0  0  0  0
  8  9  1  0  0  0  0
  9 10  1  0  0  0  0
  9 24  1  0  0  0  0
  9 25  1  0  0  0  0
 10 11  1  0  0  0  0
 10 26  1  0  0  0  0
 10 27  1  0  0  0  0
 11 28  1  0  0  0  0
 12 13  2  0  0  0  0
 12 29  1  0  0  0  0
 13 14  1  0  0  0  0
 14 15  1  0  0  0  0
 14 30  1  0  0  0  0
 14 31  1  0  0  0  0
 15 20  1  0  0  0  0
 15 16  2  0  0  0  0
 16 17  1  0  0  0  0
 16 32  1  0  0  0  0
 17 18  2  0  0  0  0
 17 33  1  0  0  0  0
 18 19  1  0  0  0  0
 18 34  1  0  0  0  0
 19 20  2  0  0  0  0
 19 35  1  0  0  0  0
 20 36  1  0  0  0  0
M  END
> <s_m_source_file>
AV-unprocessed.smi

> <i_m_source_file_index>
60

> <i_lp_mmshare_version>
43012

> <i_f3d_flags>
0

> <s_epik_input>
W09IXVtDSDJdW0NIMl1PW0NIMl1uKGMoPU8pW25IXWMxPU8pW2NIXWMxW0NIMl1jMltjSF1bY0hdW2NIXVtjSF1bY0hdMg==

> <s_epik_cmdline>
J2VwaWtfcHl0aG9uJywgJy1waCcsICc3LjAnLCAnLXRuJywgJzgnLCAnLW1hJywgJzIwMCcsICctbWV0YWxfYmluZGluZycsICctaW1hZScsICc8aW5maWxlLm1hZT4nLCAnLW9tYWUnLCAnPG91dGZpbGUubWFlPic=

> <r_lp_tautomer_probability>
0.999537

> <r_epik_Ionization_Penalty>
0.00298861

> <r_epik_Ionization_Penalty_Charging>
0.00298856

> <r_epik_Ionization_Penalty_Neutral>
5.3532e-08

> <r_epik_State_Penalty>
0.00209779

> <r_epik_Charging_Adjusted_Penalty>
0.00508635

> <i_epik_Tot_Q>
0

> <i_epik_Tot_abs_Q>
0

> <r_epik_Metal_State_Penalty>
1.06718

> <b_epik_Metal_Only>
0

> <s_epik_Chemistry_Notes>
This compound contains an acetal/aminal-like group ( X-CH(R)-Y where X, Y are N, S, or O) that may be acid/base labile, releasing an aldehyde.

> <s_lp_Force_Field>
OPLS_2005

> <r_lp_Energy>
6.34754

> <b_lp_Chiralities_Consistent>
1

> <s_lp_Variant>
AV-unprocessed.smi:60-1

> <Gold.Version>
5.8.1

> <Gold.Id.Protein>
6NUR|6NUR_protein|mol2

> <Gold.PLP.Fitness>
46.8281

> <Gold.PLP.PLP>
-42.4573

> <Gold.PLP.part.hbond>
-3.5594

> <Gold.PLP.part.metal>
0.0000

> <Gold.PLP.part.buried>
-4.4649

> <Gold.PLP.part.nonpolar>
-33.7321

> <Gold.PLP.part.repulsive>
1.0405

> <Gold.PLP.ligand.clash>
0.0000

> <Gold.PLP.ligand.torsion>
1.1025

> <Gold.PLP.Chemscore.Hbond>
2.1760

> <Gold.PLP.Chemscore.CHOScore>
0.0000

> <Gold.PLP.Chemscore.Metal>
0.0000

> <Gold.Chemscore.Hbonds>
donor molecule, donor type, donor heavy atom, donor atom, acceptor molecule, acceptor atom, score
      L1  H    11    28       P1  8028  0.26
      P1  H  7997  8010       L1     1  0.96
      P1  H  8022  8030       L1    11  0.73

> <Gold.PLP.Chemscore.Internal.Correction>
0.0478

> <Gold.Rescore>
     Score         DG    S(hbond)    S(metal)    S(lipo)     H(rot)  DE(clash)    DE(int)     intcor
     14.45     -15.58       1.98        0.00     101.49       3.28       0.09       1.04       ----

> <Gold.Chemscore.Fitness>
14.4490

> <Gold.Chemscore.DG>
-15.5777

> <Gold.Chemscore.ZeroCoef>
-5.4800

> <Gold.Chemscore.Hbond>
1.9846

> <Gold.Chemscore.Metal>
0.0000

> <Gold.Chemscore.Lipo>
101.4896

> <Gold.Chemscore.Internal_Hbond>
0.0000

> <Gold.Chemscore.DEClash>
0.0888

> <Gold.Chemscore.DEInternal>
1.0400

> <Gold.Chemscore.Rot>
3.2832

> <Gold.Chemscore.Internal.Correction>
   9.000000E+99

> <Gold.Chemscore.Hbonds>
donor molecule, donor type, donor heavy atom, donor atom, acceptor molecule, acceptor atom, score
      L1  H    11    28       P1  8028  0.26
      P1  H  7997  8010       L1     1  0.91
      P1  H  8022  8030       L1    11  0.08

> <Gold.Chemscore.Hbond.Weighted>
-6.6285

> <Gold.Chemscore.Metal.Weighted>
-0.0000

> <Gold.Chemscore.Lipo.Weighted>
-11.8743

> <Gold.Chemscore.Internal_Hbond.Weighted>
0.0000

> <Gold.Chemscore.DEClash.Weighted>
0.0888

> <Gold.Chemscore.DEInternal.Weighted>
1.0400

> <Gold.Chemscore.Rot.Weighted>
8.4050

> <Gold.Chemscore.Internal.Correction.Weighted>
   9.000000E+99

> <Gold.Protein.RotatedTorsions>
[ 6907 6896 6895 6894 ] final   72.01 input  -60.11 | X-H torsion
[ 7974 7965 7964 7962 ] final   17.46 input  175.53 | X-H torsion
[ 8008 7997 7996 7995 ] final   41.24 input   59.86 | X-H torsion
[ 10167 10162 10161 10158 ] final -147.65 input  -65.29 | X-H torsion
[ 10718 10713 10712 10709 ] final  -31.78 input   66.30 | X-H torsion
[ 10763 10752 10751 10750 ] final   89.57 input  -60.55 | X-H torsion
[ 11005 11000 10999 10996 ] final   66.73 input  -57.11 | X-H torsion

> <Gold.Protein.ActiveResidues>
 VAL166  LYS551  ARG553  GLY616  TRP617  ASP618  TYR619  PRO620  LYS621  CYS622 
 ASP623  PHE694  ASN695  SER759  ASP760  ASP761  ALA762  ILE779  LEU786  VAL792 
 PHE793  MET794  SER795  GLU796  ALA797  LYS798  CYS799  TRP800  GLU811  SER814 

> <Gold.Protein.RotatedAtoms>
  152.4843  134.4635  159.9612 H   0  0  0  0  0  0  0  0  0  0  0  0  # atno 6907 bound_to 6896
  151.4635  133.3581  159.2820 H   0  0  0  0  0  0  0  0  0  0  0  0  # atno 6908 bound_to 6896
  150.8941  134.8372  159.7374 H   0  0  0  0  0  0  0  0  0  0  0  0  # atno 6909 bound_to 6896
  146.2217  139.8599  142.8606 H   0  0  0  0  0  0  0  0  0  0  0  0  # atno 7974 bound_to 7965
  155.2663  140.3363  155.4269 H   0  0  0  0  0  0  0  0  0  0  0  0  # atno 8008 bound_to 7997
  156.2152  140.1786  156.7646 H   0  0  0  0  0  0  0  0  0  0  0  0  # atno 8009 bound_to 7997
  154.5744  140.0664  156.8996 H   0  0  0  0  0  0  0  0  0  0  0  0  # atno 8010 bound_to 7997
  139.7602  143.8387  152.2605 H   0  0  0  0  0  0  0  0  0  0  0  0  # atno 10167 bound_to 10162
  156.3830  130.4359  149.7454 H   0  0  0  0  0  0  0  0  0  0  0  0  # atno 10718 bound_to 10713
  153.1884  135.4465  155.0118 H   0  0  0  0  0  0  0  0  0  0  0  0  # atno 10763 bound_to 10752
  154.8075  135.3280  154.7395 H   0  0  0  0  0  0  0  0  0  0  0  0  # atno 10764 bound_to 10752
  153.7852  135.6974  153.4936 H   0  0  0  0  0  0  0  0  0  0  0  0  # atno 10765 bound_to 10752
  139.9814  134.6738  156.0256 H   0  0  0  0  0  0  0  0  0  0  0  0  # atno 11005 bound_to 11000
  145.2715  141.0110  143.3769 LP  0  0  0  0  0  0  0  0  0  0  0  0  # atno 17320 bound_to 7965
  144.9220  139.4400  143.6536 LP  0  0  0  0  0  0  0  0  0  0  0  0  # atno 17321 bound_to 7965
  139.8392  144.7218  150.9353 LP  0  0  0  0  0  0  0  0  0  0  0  0  # atno 17342 bound_to 10162
  140.7806  143.3999  151.1166 LP  0  0  0  0  0  0  0  0  0  0  0  0  # atno 17343 bound_to 10162
  156.4537  130.7919  151.2940 LP  0  0  0  0  0  0  0  0  0  0  0  0  # atno 17370 bound_to 10713
  157.7494  131.0087  150.3240 LP  0  0  0  0  0  0  0  0  0  0  0  0  # atno 17371 bound_to 10713
  141.1485  133.6552  156.3941 LP  0  0  0  0  0  0  0  0  0  0  0  0  # atno 17394 bound_to 11000
  140.5089  134.6414  157.5277 LP  0  0  0  0  0  0  0  0  0  0  0  0  # atno 17395 bound_to 11000

$$$$
