AV-unprocessed.smi:3346|AV-procd|sdf|12910|dock7
  -GOLD-   2272019323D 1   1.00000     0.00000
 Structure written by MMmdl.
 47 48  0  0  0  0  0  0  0  0  1 V2000
  153.5562  141.4463  160.2706 C   0  0  0  0  0  0  0  0  0  0  0  0
  152.8279  142.5972  159.5554 C   0  0  0  0  0  0  0  0  0  0  0  0
  152.0470  143.4453  160.5708 C   0  0  0  0  0  0  0  0  0  0  0  0
  151.8913  142.0987  158.4320 C   0  0  0  0  0  0  0  0  0  0  0  0
  151.0401  143.1887  157.7455 C   0  0  1  0  0  0  0  0  0  0  0  0
  151.8767  144.4345  157.4210 C   0  0  0  0  0  0  0  0  0  0  0  0
  150.5134  142.6813  156.4848 N   0  0  0  0  0  0  0  0  0  0  0  0
  149.7120  141.4864  156.6953 C   0  0  0  0  0  0  0  0  0  0  0  0
  148.7886  141.2021  155.5233 C   0  0  0  0  0  0  0  0  0  0  0  0
  147.8027  142.1470  155.1710 C   0  0  0  0  0  0  0  0  0  0  0  0
  146.9569  141.8794  154.0790 C   0  0  0  0  0  0  0  0  0  0  0  0
  147.1321  140.6705  153.3803 C   0  0  0  0  0  0  0  0  0  0  0  0
  148.0679  139.7553  153.7084 N   0  0  0  0  0  0  0  0  0  0  0  0
  148.8841  140.0101  154.7601 C   0  0  0  0  0  0  0  0  0  0  0  0
  149.8331  139.0306  155.0971 N   0  0  0  0  0  0  0  0  0  0  0  0
  149.5991  137.7562  154.4306 C   0  0  0  0  0  0  0  0  0  0  0  0
  150.5584  136.6893  154.9858 C   0  0  0  0  0  0  0  0  0  0  0  0
  151.9047  137.1387  154.8562 O   0  0  0  0  0  0  0  0  0  0  0  0
  152.1376  138.3484  155.5728 C   0  0  0  0  0  0  0  0  0  0  0  0
  151.2255  139.4559  155.0188 C   0  0  0  0  0  0  0  0  0  0  0  0
  152.8487  140.7442  160.7127 H   0  0  0  0  0  0  0  0  0  0  0  0
  154.1912  141.8248  161.0722 H   0  0  0  0  0  0  0  0  0  0  0  0
  154.1997  140.8888  159.5908 H   0  0  0  0  0  0  0  0  0  0  0  0
  153.5820  143.2495  159.1141 H   0  0  0  0  0  0  0  0  0  0  0  0
  151.2675  142.8598  161.0595 H   0  0  0  0  0  0  0  0  0  0  0  0
  151.5694  144.2977  160.0872 H   0  0  0  0  0  0  0  0  0  0  0  0
  152.7058  143.8366  161.3466 H   0  0  0  0  0  0  0  0  0  0  0  0
  152.4981  141.5953  157.6781 H   0  0  0  0  0  0  0  0  0  0  0  0
  151.2250  141.3314  158.8297 H   0  0  0  0  0  0  0  0  0  0  0  0
  150.2334  143.5034  158.4083 H   0  0  0  0  0  0  0  0  0  0  0  0
  152.2939  144.8718  158.3284 H   0  0  0  0  0  0  0  0  0  0  0  0
  151.2694  145.2019  156.9397 H   0  0  0  0  0  0  0  0  0  0  0  0
  152.7072  144.1988  156.7543 H   0  0  0  0  0  0  0  0  0  0  0  0
  149.9262  143.3918  156.0726 H   0  0  0  0  0  0  0  0  0  0  0  0
  150.3675  140.6277  156.8439 H   0  0  0  0  0  0  0  0  0  0  0  0
  149.1228  141.5921  157.6070 H   0  0  0  0  0  0  0  0  0  0  0  0
  147.6958  143.0659  155.7290 H   0  0  0  0  0  0  0  0  0  0  0  0
  146.1929  142.5833  153.7844 H   0  0  0  0  0  0  0  0  0  0  0  0
  146.5024  140.4303  152.5364 H   0  0  0  0  0  0  0  0  0  0  0  0
  148.5651  137.4402  154.5728 H   0  0  0  0  0  0  0  0  0  0  0  0
  149.7538  137.8740  153.3573 H   0  0  0  0  0  0  0  0  0  0  0  0
  150.3373  136.4744  156.0321 H   0  0  0  0  0  0  0  0  0  0  0  0
  150.4398  135.7554  154.4366 H   0  0  0  0  0  0  0  0  0  0  0  0
  151.9582  138.1928  156.6380 H   0  0  0  0  0  0  0  0  0  0  0  0
  153.1842  138.6329  155.4637 H   0  0  0  0  0  0  0  0  0  0  0  0
  151.4930  139.6685  153.9829 H   0  0  0  0  0  0  0  0  0  0  0  0
  151.3635  140.3768  155.5863 H   0  0  0  0  0  0  0  0  0  0  0  0
  1  2  1  0  0  0  0
  1 21  1  0  0  0  0
  1 22  1  0  0  0  0
  1 23  1  0  0  0  0
  2  3  1  0  0  0  0
  2  4  1  0  0  0  0
  2 24  1  0  0  0  0
  3 25  1  0  0  0  0
  3 26  1  0  0  0  0
  3 27  1  0  0  0  0
  4  5  1  0  0  0  0
  4 28  1  0  0  0  0
  4 29  1  0  0  0  0
  5  6  1  0  0  0  0
  5  7  1  0  0  0  0
  5 30  1  0  0  0  0
  6 31  1  0  0  0  0
  6 32  1  0  0  0  0
  6 33  1  0  0  0  0
  7  8  1  0  0  0  0
  7 34  1  0  0  0  0
  8  9  1  0  0  0  0
  8 35  1  0  0  0  0
  8 36  1  0  0  0  0
  9 14  1  0  0  0  0
  9 10  2  0  0  0  0
 10 11  1  0  0  0  0
 10 37  1  0  0  0  0
 11 12  2  0  0  0  0
 11 38  1  0  0  0  0
 12 13  1  0  0  0  0
 12 39  1  0  0  0  0
 13 14  2  0  0  0  0
 14 15  1  0  0  0  0
 15 20  1  0  0  0  0
 15 16  1  0  0  0  0
 16 17  1  0  0  0  0
 16 40  1  0  0  0  0
 16 41  1  0  0  0  0
 17 18  1  0  0  0  0
 17 42  1  0  0  0  0
 17 43  1  0  0  0  0
 18 19  1  0  0  0  0
 19 20  1  0  0  0  0
 19 44  1  0  0  0  0
 19 45  1  0  0  0  0
 20 46  1  0  0  0  0
 20 47  1  0  0  0  0
M  END
> <s_m_source_file>
AV-unprocessed.smi

> <i_m_source_file_index>
3346

> <i_lp_mmshare_version>
43012

> <i_f3d_flags>
0

> <s_epik_input>
W0NIM11bQ0hdKFtDSDNdKVtDSDJdW0NASF0oW0NIM10pW05IXVtDSDJdYzFbY0hdW2NIXVtjSF1uYzFOMltDSDJdW0NIMl1PW0NIMl1bQ0gyXTI=

> <s_epik_cmdline>
J2VwaWtfcHl0aG9uJywgJy1waCcsICc3LjAnLCAnLXRuJywgJzgnLCAnLW1hJywgJzIwMCcsICctbWV0YWxfYmluZGluZycsICctaW1hZScsICc8aW5maWxlLm1hZT4nLCAnLW9tYWUnLCAnPG91dGZpbGUubWFlPic=

> <r_lp_tautomer_probability>
1

> <r_epik_Ionization_Penalty>
2.09752

> <r_epik_Ionization_Penalty_Charging>
0

> <r_epik_Ionization_Penalty_Neutral>
2.09752

> <r_epik_State_Penalty>
2.22589

> <r_epik_Charging_Adjusted_Penalty>
2.22589

> <i_epik_Tot_Q>
0

> <i_epik_Tot_abs_Q>
0

> <r_epik_Metal_State_Penalty>
2.21996

> <b_epik_Metal_Only>
0

> <s_lp_Force_Field>
OPLS_2005

> <r_lp_Energy>
27.6792

> <b_lp_Chiralities_Consistent>
1

> <s_lp_Variant>
AV-unprocessed.smi:3346-4

> <Gold.Version>
5.8.1

> <Gold.Id.Protein>
6NUR|6NUR_protein|mol2

> <Gold.PLP.Fitness>
47.0883

> <Gold.PLP.PLP>
-40.2066

> <Gold.PLP.part.hbond>
-2.0000

> <Gold.PLP.part.metal>
0.0000

> <Gold.PLP.part.buried>
-1.9895

> <Gold.PLP.part.nonpolar>
-38.0363

> <Gold.PLP.part.repulsive>
0.8784

> <Gold.PLP.ligand.clash>
0.0000

> <Gold.PLP.ligand.torsion>
0.3848

> <Gold.PLP.Chemscore.Hbond>
2.0000

> <Gold.PLP.Chemscore.CHOScore>
0.4823

> <Gold.PLP.Chemscore.Metal>
0.0000

> <Gold.Chemscore.Hbonds>
donor molecule, donor type, donor heavy atom, donor atom, acceptor molecule, acceptor atom, score
      L1  H     7    34       P1  8028  1.00
      P1  H 10752 10765       L1    18  0.99
      L1  C    12    39       P1 10175  0.28

> <Gold.PLP.Chemscore.Internal.Correction>
0.2043

> <Gold.Rescore>
     Score         DG    S(hbond)    S(metal)    S(lipo)     H(rot)  DE(clash)    DE(int)     intcor
     20.16     -22.16       1.93        0.00     121.31       1.55       1.49       0.52       ----

> <Gold.Chemscore.Fitness>
20.1570

> <Gold.Chemscore.DG>
-22.1633

> <Gold.Chemscore.ZeroCoef>
-5.4800

> <Gold.Chemscore.Hbond>
1.9346

> <Gold.Chemscore.Metal>
0.0000

> <Gold.Chemscore.Lipo>
121.3104

> <Gold.Chemscore.Internal_Hbond>
0.0000

> <Gold.Chemscore.DEClash>
1.4911

> <Gold.Chemscore.DEInternal>
0.5153

> <Gold.Chemscore.Rot>
1.5514

> <Gold.Chemscore.Internal.Correction>
   9.000000E+99

> <Gold.Chemscore.Hbonds>
donor molecule, donor type, donor heavy atom, donor atom, acceptor molecule, acceptor atom, score
      L1  H     7    34       P1  8028  1.00
      P1  H 10752 10765       L1    18  0.57

> <Gold.Chemscore.Hbond.Weighted>
-6.4615

> <Gold.Chemscore.Metal.Weighted>
-0.0000

> <Gold.Chemscore.Lipo.Weighted>
-14.1933

> <Gold.Chemscore.Internal_Hbond.Weighted>
0.0000

> <Gold.Chemscore.DEClash.Weighted>
1.4911

> <Gold.Chemscore.DEInternal.Weighted>
0.5153

> <Gold.Chemscore.Rot.Weighted>
3.9715

> <Gold.Chemscore.Internal.Correction.Weighted>
   9.000000E+99

> <Gold.Protein.RotatedTorsions>
[ 6907 6896 6895 6894 ] final  -82.77 input  -60.11 | X-H torsion
[ 7974 7965 7964 7962 ] final   -6.52 input  175.53 | X-H torsion
[ 8008 7997 7996 7995 ] final   42.92 input   59.86 | X-H torsion
[ 10167 10162 10161 10158 ] final   44.52 input  -65.29 | X-H torsion
[ 10718 10713 10712 10709 ] final  -63.12 input   66.30 | X-H torsion
[ 10763 10752 10751 10750 ] final  172.69 input  -60.55 | X-H torsion
[ 11005 11000 10999 10996 ] final -163.08 input  -57.11 | X-H torsion

> <Gold.Protein.ActiveResidues>
 VAL166  LYS551  ARG553  GLY616  TRP617  ASP618  TYR619  PRO620  LYS621  CYS622 
 ASP623  PHE694  ASN695  SER759  ASP760  ASP761  ALA762  ILE779  LEU786  VAL792 
 PHE793  MET794  SER795  GLU796  ALA797  LYS798  CYS799  TRP800  GLU811  SER814 

> <Gold.Protein.RotatedAtoms>
  150.6893  134.3613  159.4951 H   0  0  0  0  0  0  0  0  0  0  0  0  # atno 6907 bound_to 6896
  152.1442  134.9036  160.0561 H   0  0  0  0  0  0  0  0  0  0  0  0  # atno 6908 bound_to 6896
  152.0158  133.3844  159.4275 H   0  0  0  0  0  0  0  0  0  0  0  0  # atno 6909 bound_to 6896
  146.2329  140.2182  142.8337 H   0  0  0  0  0  0  0  0  0  0  0  0  # atno 7974 bound_to 7965
  155.2942  140.3381  155.4251 H   0  0  0  0  0  0  0  0  0  0  0  0  # atno 8008 bound_to 7997
  156.2032  140.1741  156.7896 H   0  0  0  0  0  0  0  0  0  0  0  0  # atno 8009 bound_to 7997
  154.5586  140.0692  156.8767 H   0  0  0  0  0  0  0  0  0  0  0  0  # atno 8010 bound_to 7997
  140.3335  144.2559  150.6165 H   0  0  0  0  0  0  0  0  0  0  0  0  # atno 10167 bound_to 10162
  156.0811  130.4217  150.1232 H   0  0  0  0  0  0  0  0  0  0  0  0  # atno 10718 bound_to 10713
  154.4296  135.2759  155.1921 H   0  0  0  0  0  0  0  0  0  0  0  0  # atno 10763 bound_to 10752
  154.3833  135.6082  153.5806 H   0  0  0  0  0  0  0  0  0  0  0  0  # atno 10764 bound_to 10752
  152.9835  135.5885  154.4605 H   0  0  0  0  0  0  0  0  0  0  0  0  # atno 10765 bound_to 10752
  140.6021  134.4937  157.5206 H   0  0  0  0  0  0  0  0  0  0  0  0  # atno 11005 bound_to 11000
  144.9653  140.8315  143.5488 LP  0  0  0  0  0  0  0  0  0  0  0  0  # atno 17320 bound_to 7965
  145.2157  139.2183  143.5119 LP  0  0  0  0  0  0  0  0  0  0  0  0  # atno 17321 bound_to 7965
  140.5375  143.2230  151.8139 LP  0  0  0  0  0  0  0  0  0  0  0  0  # atno 17342 bound_to 10162
  139.4852  144.4642  151.9504 LP  0  0  0  0  0  0  0  0  0  0  0  0  # atno 17343 bound_to 10162
  156.9263  130.9699  151.3540 LP  0  0  0  0  0  0  0  0  0  0  0  0  # atno 17370 bound_to 10713
  157.5928  130.8456  149.8684 LP  0  0  0  0  0  0  0  0  0  0  0  0  # atno 17371 bound_to 10713
  139.9228  134.8115  156.1159 LP  0  0  0  0  0  0  0  0  0  0  0  0  # atno 17394 bound_to 11000
  141.0865  133.6732  156.2448 LP  0  0  0  0  0  0  0  0  0  0  0  0  # atno 17395 bound_to 11000

$$$$
