AV-unprocessed.smi:236|AV-procd|sdf|1814|dock9
  -GOLD-   2262020403D 1   1.00000     0.00000
 Structure written by MMmdl.
 58 62  0  0  0  0  0  0  0  0  1 V2000
  154.4333  135.0987  163.1052 C   0  0  0  0  0  0  0  0  0  0  0  0
  154.4614  136.4032  162.2924 C   0  0  1  0  0  0  0  0  0  0  0  0
  153.9217  137.4770  163.0495 O   0  0  0  0  0  0  0  0  0  0  0  0
  154.3324  138.6756  162.4174 C   0  0  0  0  0  0  0  0  0  0  0  0
  155.8010  138.4073  162.1125 C   0  0  0  0  0  0  0  0  0  0  0  0
  155.8480  136.9065  161.8089 C   0  0  1  0  0  0  0  0  0  0  0  0
  156.9067  136.3376  162.5620 O   0  0  0  0  0  0  0  0  0  0  0  0
  156.1128  136.6233  160.3092 C   0  0  0  0  0  0  0  0  0  0  0  0
  155.1185  137.2090  159.4219 N   0  0  0  0  0  0  0  0  0  0  0  0
  154.8662  138.5500  159.2360 C   0  0  0  0  0  0  0  0  0  0  0  0
  153.9244  138.8265  158.3759 N   0  0  0  0  0  0  0  0  0  0  0  0
  153.4874  137.5813  157.9409 C   0  0  0  0  0  0  0  0  0  0  0  0
  152.4987  137.1396  157.0169 C   0  0  0  0  0  0  0  0  0  0  0  0
  151.6974  137.9516  156.2967 N   0  0  0  0  0  0  0  0  0  0  0  0
  151.7202  137.6904  154.8636 C   0  0  0  0  0  0  0  0  0  0  0  0
  150.6694  138.5640  154.1593 C   0  0  0  0  0  0  0  0  0  0  0  0
  150.8997  139.9332  154.4793 O   0  0  0  0  0  0  0  0  0  0  0  0
  150.7834  140.1932  155.8773 C   0  0  2  0  0  0  0  0  0  0  0  0
  150.9707  141.6984  156.1064 C   0  0  0  0  0  0  0  0  0  0  0  0
  151.1133  141.9378  157.4964 O   0  0  0  0  0  0  0  0  0  0  0  0
  150.5923  143.1963  157.8951 C   0  0  0  0  0  0  0  0  0  0  0  0
  151.5465  143.9210  158.8273 C   0  0  0  0  0  0  0  0  0  0  0  0
  152.7141  144.7199  158.2852 C   0  0  0  0  0  0  0  0  0  0  0  0
  152.9676  143.4324  159.0217 C   0  0  0  0  0  0  0  0  0  0  0  0
  151.8521  139.3648  156.6163 C   0  0  0  0  0  0  0  0  0  0  0  0
  152.3390  135.8050  156.8438 N   0  0  0  0  0  0  0  0  0  0  0  0
  153.0989  134.9474  157.5317 C   0  0  0  0  0  0  0  0  0  0  0  0
  154.0572  135.2098  158.4232 N   0  0  0  0  0  0  0  0  0  0  0  0
  154.2215  136.5531  158.5963 C   0  0  0  0  0  0  0  0  0  0  0  0
  154.8596  134.2716  162.5372 H   0  0  0  0  0  0  0  0  0  0  0  0
  153.4093  134.8285  163.3632 H   0  0  0  0  0  0  0  0  0  0  0  0
  154.9920  135.1939  164.0366 H   0  0  0  0  0  0  0  0  0  0  0  0
  153.8007  136.2869  161.4331 H   0  0  0  0  0  0  0  0  0  0  0  0
  153.7613  138.8243  161.4994 H   0  0  0  0  0  0  0  0  0  0  0  0
  154.1861  139.5433  163.0610 H   0  0  0  0  0  0  0  0  0  0  0  0
  156.1731  139.0293  161.2977 H   0  0  0  0  0  0  0  0  0  0  0  0
  156.3907  138.6471  162.9991 H   0  0  0  0  0  0  0  0  0  0  0  0
  157.2248  136.9867  163.1704 H   0  0  0  0  0  0  0  0  0  0  0  0
  157.0932  137.0081  160.0250 H   0  0  0  0  0  0  0  0  0  0  0  0
  156.1447  135.5486  160.1237 H   0  0  0  0  0  0  0  0  0  0  0  0
  155.4116  139.3232  159.7571 H   0  0  0  0  0  0  0  0  0  0  0  0
  152.7093  137.9092  154.4601 H   0  0  0  0  0  0  0  0  0  0  0  0
  151.5196  136.6350  154.6742 H   0  0  0  0  0  0  0  0  0  0  0  0
  150.7352  138.4346  153.0790 H   0  0  0  0  0  0  0  0  0  0  0  0
  149.6598  138.2746  154.4551 H   0  0  0  0  0  0  0  0  0  0  0  0
  149.7916  139.8999  156.2269 H   0  0  0  0  0  0  0  0  0  0  0  0
  151.8709  142.0410  155.5938 H   0  0  0  0  0  0  0  0  0  0  0  0
  150.1269  142.2561  155.6969 H   0  0  0  0  0  0  0  0  0  0  0  0
  150.4132  143.8237  157.0209 H   0  0  0  0  0  0  0  0  0  0  0  0
  149.6391  143.0617  158.4082 H   0  0  0  0  0  0  0  0  0  0  0  0
  151.0614  144.3332  159.7101 H   0  0  0  0  0  0  0  0  0  0  0  0
  152.8790  144.7230  157.2095 H   0  0  0  0  0  0  0  0  0  0  0  0
  152.9666  145.6469  158.7958 H   0  0  0  0  0  0  0  0  0  0  0  0
  153.3872  143.5004  160.0231 H   0  0  0  0  0  0  0  0  0  0  0  0
  153.3015  142.5780  158.4363 H   0  0  0  0  0  0  0  0  0  0  0  0
  151.7599  139.5098  157.6935 H   0  0  0  0  0  0  0  0  0  0  0  0
  152.8487  139.7026  156.3286 H   0  0  0  0  0  0  0  0  0  0  0  0
  152.9130  133.9011  157.3400 H   0  0  0  0  0  0  0  0  0  0  0  0
  1  2  1  0  0  0  0
  1 30  1  0  0  0  0
  1 31  1  0  0  0  0
  1 32  1  0  0  0  0
  2  6  1  0  0  0  0
  2  3  1  0  0  0  0
  2 33  1  0  0  0  0
  3  4  1  0  0  0  0
  4  5  1  0  0  0  0
  4 34  1  0  0  0  0
  4 35  1  0  0  0  0
  5  6  1  0  0  0  0
  5 36  1  0  0  0  0
  5 37  1  0  0  0  0
  6  7  1  0  0  0  0
  6  8  1  0  0  0  0
  7 38  1  0  0  0  0
  8  9  1  0  0  0  0
  8 39  1  0  0  0  0
  8 40  1  0  0  0  0
  9 29  1  0  0  0  0
  9 10  1  0  0  0  0
 10 11  2  0  0  0  0
 10 41  1  0  0  0  0
 11 12  1  0  0  0  0
 12 29  2  0  0  0  0
 12 13  1  0  0  0  0
 13 14  1  0  0  0  0
 13 26  2  0  0  0  0
 14 25  1  0  0  0  0
 14 15  1  0  0  0  0
 15 16  1  0  0  0  0
 15 42  1  0  0  0  0
 15 43  1  0  0  0  0
 16 17  1  0  0  0  0
 16 44  1  0  0  0  0
 16 45  1  0  0  0  0
 17 18  1  0  0  0  0
 18 19  1  0  0  0  0
 18 25  1  0  0  0  0
 18 46  1  0  0  0  0
 19 20  1  0  0  0  0
 19 47  1  0  0  0  0
 19 48  1  0  0  0  0
 20 21  1  0  0  0  0
 21 22  1  0  0  0  0
 21 49  1  0  0  0  0
 21 50  1  0  0  0  0
 22 24  1  0  0  0  0
 22 23  1  0  0  0  0
 22 51  1  0  0  0  0
 23 24  1  0  0  0  0
 23 52  1  0  0  0  0
 23 53  1  0  0  0  0
 24 54  1  0  0  0  0
 24 55  1  0  0  0  0
 25 56  1  0  0  0  0
 25 57  1  0  0  0  0
 26 27  1  0  0  0  0
 27 28  2  0  0  0  0
 27 58  1  0  0  0  0
 28 29  1  0  0  0  0
M  END
> <s_m_source_file>
AV-unprocessed.smi

> <i_m_source_file_index>
236

> <i_lp_mmshare_version>
43012

> <i_f3d_flags>
0

> <s_epik_input>
W0NIMl0xW0NIMl1PW0NAQEhdKFtDSDNdKVtDQEBdMShbT0hdKVtDSDJdbihbY0hdbjIpYyhjMjMpbltjSF1uYzNONFtDSDJdW0NIMl1PW0NASF0oW0NIMl00KVtDSDJdT1tDSDJdW0NIXTVbQ0gyXVtDSDJdNQ==

> <s_epik_cmdline>
J2VwaWtfcHl0aG9uJywgJy1waCcsICc3LjAnLCAnLXRuJywgJzgnLCAnLW1hJywgJzIwMCcsICctbWV0YWxfYmluZGluZycsICctaW1hZScsICc8aW5maWxlLm1hZT4nLCAnLW9tYWUnLCAnPG91dGZpbGUubWFlPic=

> <r_lp_tautomer_probability>
1

> <r_epik_Ionization_Penalty>
7.21838e-05

> <r_epik_Ionization_Penalty_Charging>
0

> <r_epik_Ionization_Penalty_Neutral>
7.21838e-05

> <r_epik_State_Penalty>
-0

> <r_epik_Charging_Adjusted_Penalty>
0

> <i_epik_Tot_Q>
0

> <i_epik_Tot_abs_Q>
0

> <r_epik_Metal_State_Penalty>
-0

> <b_epik_Metal_Only>
0

> <s_lp_Force_Field>
OPLS_2005

> <r_lp_Energy>
47.3448

> <b_lp_Chiralities_Consistent>
1

> <s_lp_Variant>
AV-unprocessed.smi:236-6

> <Gold.Version>
5.8.1

> <Gold.Id.Protein>
6NUR|6NUR_protein|mol2

> <Gold.PLP.Fitness>
45.7617

> <Gold.PLP.PLP>
-38.4985

> <Gold.PLP.part.hbond>
-3.3075

> <Gold.PLP.part.metal>
0.0000

> <Gold.PLP.part.buried>
-3.7915

> <Gold.PLP.part.nonpolar>
-31.2290

> <Gold.PLP.part.repulsive>
0.1420

> <Gold.PLP.ligand.clash>
0.0000

> <Gold.PLP.ligand.torsion>
1.1311

> <Gold.PLP.Chemscore.Hbond>
2.9000

> <Gold.PLP.Chemscore.CHOScore>
0.0000

> <Gold.PLP.Chemscore.Metal>
0.0000

> <Gold.Chemscore.Hbonds>
donor molecule, donor type, donor heavy atom, donor atom, acceptor molecule, acceptor atom, score
      P1  H  7989  7998       L1    17  1.00
      P1  H  7997  8010       L1    11  1.00
      P1  H 10752 10763       L1    26  0.90

> <Gold.PLP.Chemscore.Internal.Correction>
0.8255

> <Gold.Rescore>
     Score         DG    S(hbond)    S(metal)    S(lipo)     H(rot)  DE(clash)    DE(int)     intcor
     15.32     -18.28       1.96        0.00     116.11       2.87       0.31       2.65       ----

> <Gold.Chemscore.Fitness>
15.3212

> <Gold.Chemscore.DG>
-18.2803

> <Gold.Chemscore.ZeroCoef>
-5.4800

> <Gold.Chemscore.Hbond>
1.9614

> <Gold.Chemscore.Metal>
0.0000

> <Gold.Chemscore.Lipo>
116.1104

> <Gold.Chemscore.Internal_Hbond>
0.0000

> <Gold.Chemscore.DEClash>
0.3066

> <Gold.Chemscore.DEInternal>
2.6525

> <Gold.Chemscore.Rot>
2.8655

> <Gold.Chemscore.Internal.Correction>
   9.000000E+99

> <Gold.Chemscore.Hbonds>
donor molecule, donor type, donor heavy atom, donor atom, acceptor molecule, acceptor atom, score
      P1  H  7989  7998       L1    17  0.93
      P1  H  7997  8010       L1    11  0.53
      P1  H 10752 10763       L1    26  0.07

> <Gold.Chemscore.Hbond.Weighted>
-6.5512

> <Gold.Chemscore.Metal.Weighted>
-0.0000

> <Gold.Chemscore.Lipo.Weighted>
-13.5849

> <Gold.Chemscore.Internal_Hbond.Weighted>
0.0000

> <Gold.Chemscore.DEClash.Weighted>
0.3066

> <Gold.Chemscore.DEInternal.Weighted>
2.6525

> <Gold.Chemscore.Rot.Weighted>
7.3358

> <Gold.Chemscore.Internal.Correction.Weighted>
   9.000000E+99

> <Gold.Protein.RotatedTorsions>
[ 6907 6896 6895 6894 ] final -113.35 input  -60.11 | X-H torsion
[ 7974 7965 7964 7962 ] final   58.94 input  175.53 | X-H torsion
[ 8008 7997 7996 7995 ] final   26.71 input   59.86 | X-H torsion
[ 10167 10162 10161 10158 ] final  157.24 input  -65.29 | X-H torsion
[ 10718 10713 10712 10709 ] final -119.18 input   66.30 | X-H torsion
[ 10763 10752 10751 10750 ] final   85.10 input  -60.55 | X-H torsion
[ 11005 11000 10999 10996 ] final  -84.05 input  -57.11 | X-H torsion

> <Gold.Protein.ActiveResidues>
 VAL166  LYS551  ARG553  GLY616  TRP617  ASP618  TYR619  PRO620  LYS621  CYS622 
 ASP623  PHE694  ASN695  SER759  ASP760  ASP761  ALA762  ILE779  LEU786  VAL792 
 PHE793  MET794  SER795  GLU796  ALA797  LYS798  CYS799  TRP800  GLU811  SER814 

> <Gold.Protein.RotatedAtoms>
  150.7822  133.8958  159.3326 H   0  0  0  0  0  0  0  0  0  0  0  0  # atno 6907 bound_to 6896
  151.6818  135.0959  160.0227 H   0  0  0  0  0  0  0  0  0  0  0  0  # atno 6908 bound_to 6896
  152.3877  133.6596  159.6247 H   0  0  0  0  0  0  0  0  0  0  0  0  # atno 6909 bound_to 6896
  145.9126  139.3666  143.0526 H   0  0  0  0  0  0  0  0  0  0  0  0  # atno 7974 bound_to 7965
  155.0316  140.3159  155.4756 H   0  0  0  0  0  0  0  0  0  0  0  0  # atno 8008 bound_to 7997
  156.2873  140.2179  156.5380 H   0  0  0  0  0  0  0  0  0  0  0  0  # atno 8009 bound_to 7997
  154.7366  140.0477  157.0762 H   0  0  0  0  0  0  0  0  0  0  0  0  # atno 8010 bound_to 7997
  139.4822  144.4935  151.8273 H   0  0  0  0  0  0  0  0  0  0  0  0  # atno 10167 bound_to 10162
  156.1161  130.6287  150.9384 H   0  0  0  0  0  0  0  0  0  0  0  0  # atno 10718 bound_to 10713
  153.1444  135.4629  154.9543 H   0  0  0  0  0  0  0  0  0  0  0  0  # atno 10763 bound_to 10752
  154.7774  135.3177  154.8066 H   0  0  0  0  0  0  0  0  0  0  0  0  # atno 10764 bound_to 10752
  153.8583  135.6915  153.4839 H   0  0  0  0  0  0  0  0  0  0  0  0  # atno 10765 bound_to 10752
  141.1653  133.7326  156.8811 H   0  0  0  0  0  0  0  0  0  0  0  0  # atno 11005 bound_to 11000
  145.8652  140.9452  143.0679 LP  0  0  0  0  0  0  0  0  0  0  0  0  # atno 17320 bound_to 7965
  144.6745  140.0583  143.7477 LP  0  0  0  0  0  0  0  0  0  0  0  0  # atno 17321 bound_to 7965
  140.4421  144.1971  150.5892 LP  0  0  0  0  0  0  0  0  0  0  0  0  # atno 17342 bound_to 10162
  140.4672  143.2426  151.9139 LP  0  0  0  0  0  0  0  0  0  0  0  0  # atno 17343 bound_to 10162
  157.6345  131.0917  150.8376 LP  0  0  0  0  0  0  0  0  0  0  0  0  # atno 17370 bound_to 10713
  156.8480  130.5070  149.5314 LP  0  0  0  0  0  0  0  0  0  0  0  0  # atno 17371 bound_to 10713
  140.1714  134.9097  157.2838 LP  0  0  0  0  0  0  0  0  0  0  0  0  # atno 17394 bound_to 11000
  140.2497  134.3697  155.7447 LP  0  0  0  0  0  0  0  0  0  0  0  0  # atno 17395 bound_to 11000

$$$$
