AV-unprocessed.smi:2388|AV-procd|sdf|9471|dock2
  -GOLD-   2272013103D 1   1.00000     0.00000
 Structure written by MMmdl.
 43 44  0  0  0  0  0  0  0  0  1 V2000
  141.6380  134.7139  153.1492 C   0  0  0  0  0  0  0  0  0  0  0  0
  142.9805  134.4903  152.4856 C   0  0  0  0  0  0  0  0  0  0  0  0
  143.2174  133.3485  151.6953 C   0  0  0  0  0  0  0  0  0  0  0  0
  144.4842  133.2047  151.1018 C   0  0  0  0  0  0  0  0  0  0  0  0
  145.4550  134.2009  151.3215 C   0  0  0  0  0  0  0  0  0  0  0  0
  145.1373  135.3146  152.1312 C   0  0  0  0  0  0  0  0  0  0  0  0
  146.1849  136.2598  152.2926 N   0  0  0  0  0  0  0  0  0  0  0  0
  146.1332  137.4650  152.8870 C   0  0  0  0  0  0  0  0  0  0  0  0
  145.1343  137.9572  153.4126 O   0  0  0  0  0  0  0  0  0  0  0  0
  147.3256  138.0758  152.8429 N   0  0  0  0  0  0  0  0  0  0  0  0
  147.6221  139.3890  153.4039 C   0  0  0  0  0  0  0  0  0  0  0  0
  148.8336  139.3055  154.3504 C   0  0  0  0  0  0  0  0  0  0  0  0
  149.4508  140.6728  154.6945 C   0  0  0  0  0  0  0  0  0  0  0  0
  149.0914  141.6663  154.0603 O   0  0  0  0  0  0  0  0  0  0  0  0
  150.3771  140.7450  155.6819 N   0  0  0  0  0  0  0  0  0  0  0  0
  151.0187  141.9765  156.1630 C   0  0  0  0  0  0  0  0  0  0  0  0
  150.4605  142.3106  157.5585 C   0  0  0  0  0  0  0  0  0  0  0  0
  150.6670  141.1320  158.5295 C   0  0  0  0  0  0  0  0  0  0  0  0
  150.1703  139.8030  157.9287 C   0  0  0  0  0  0  0  0  0  0  0  0
  150.7397  139.5901  156.5138 C   0  0  0  0  0  0  0  0  0  0  0  0
  143.9117  135.4451  152.6976 N   0  0  0  0  0  0  0  0  0  0  0  0
  140.9904  133.8443  153.0348 H   0  0  0  0  0  0  0  0  0  0  0  0
  141.1364  135.5741  152.7050 H   0  0  0  0  0  0  0  0  0  0  0  0
  141.7665  134.9038  154.2153 H   0  0  0  0  0  0  0  0  0  0  0  0
  142.4512  132.6024  151.5453 H   0  0  0  0  0  0  0  0  0  0  0  0
  144.7088  132.3451  150.4877 H   0  0  0  0  0  0  0  0  0  0  0  0
  146.4331  134.1051  150.8725 H   0  0  0  0  0  0  0  0  0  0  0  0
  147.0800  135.9829  151.9179 H   0  0  0  0  0  0  0  0  0  0  0  0
  148.0893  137.5927  152.3929 H   0  0  0  0  0  0  0  0  0  0  0  0
  147.8228  140.1148  152.6134 H   0  0  0  0  0  0  0  0  0  0  0  0
  146.7379  139.7362  153.9403 H   0  0  0  0  0  0  0  0  0  0  0  0
  148.5355  138.8167  155.2789 H   0  0  0  0  0  0  0  0  0  0  0  0
  149.5973  138.6816  153.8837 H   0  0  0  0  0  0  0  0  0  0  0  0
  152.0963  141.8177  156.2234 H   0  0  0  0  0  0  0  0  0  0  0  0
  150.8927  142.8276  155.4959 H   0  0  0  0  0  0  0  0  0  0  0  0
  150.9422  143.2059  157.9520 H   0  0  0  0  0  0  0  0  0  0  0  0
  149.3966  142.5385  157.4801 H   0  0  0  0  0  0  0  0  0  0  0  0
  151.7295  141.0426  158.7591 H   0  0  0  0  0  0  0  0  0  0  0  0
  150.1631  141.3296  159.4760 H   0  0  0  0  0  0  0  0  0  0  0  0
  150.4509  138.9720  158.5762 H   0  0  0  0  0  0  0  0  0  0  0  0
  149.0803  139.8069  157.8843 H   0  0  0  0  0  0  0  0  0  0  0  0
  150.3804  138.6439  156.1074 H   0  0  0  0  0  0  0  0  0  0  0  0
  151.8262  139.5003  156.5561 H   0  0  0  0  0  0  0  0  0  0  0  0
  1  2  1  0  0  0  0
  1 22  1  0  0  0  0
  1 23  1  0  0  0  0
  1 24  1  0  0  0  0
  2 21  1  0  0  0  0
  2  3  2  0  0  0  0
  3  4  1  0  0  0  0
  3 25  1  0  0  0  0
  4  5  2  0  0  0  0
  4 26  1  0  0  0  0
  5  6  1  0  0  0  0
  5 27  1  0  0  0  0
  6  7  1  0  0  0  0
  6 21  2  0  0  0  0
  7  8  1  0  0  0  0
  7 28  1  0  0  0  0
  8  9  2  0  0  0  0
  8 10  1  0  0  0  0
 10 11  1  0  0  0  0
 10 29  1  0  0  0  0
 11 12  1  0  0  0  0
 11 30  1  0  0  0  0
 11 31  1  0  0  0  0
 12 13  1  0  0  0  0
 12 32  1  0  0  0  0
 12 33  1  0  0  0  0
 13 14  2  0  0  0  0
 13 15  1  0  0  0  0
 15 20  1  0  0  0  0
 15 16  1  0  0  0  0
 16 17  1  0  0  0  0
 16 34  1  0  0  0  0
 16 35  1  0  0  0  0
 17 18  1  0  0  0  0
 17 36  1  0  0  0  0
 17 37  1  0  0  0  0
 18 19  1  0  0  0  0
 18 38  1  0  0  0  0
 18 39  1  0  0  0  0
 19 20  1  0  0  0  0
 19 40  1  0  0  0  0
 19 41  1  0  0  0  0
 20 42  1  0  0  0  0
 20 43  1  0  0  0  0
M  END
> <s_m_source_file>
AV-unprocessed.smi

> <i_m_source_file_index>
2388

> <i_lp_mmshare_version>
43012

> <i_f3d_flags>
0

> <s_epik_input>
W0NIM11jMVtjSF1bY0hdW2NIXWMobjEpW05IXUMoPU8pW05IXVtDSDJdW0NIMl1DKD1PKU4yW0NIMl1bQ0gyXVtDSDJdW0NIMl1bQ0gyXTI=

> <s_epik_cmdline>
J2VwaWtfcHl0aG9uJywgJy1waCcsICc3LjAnLCAnLXRuJywgJzgnLCAnLW1hJywgJzIwMCcsICctbWV0YWxfYmluZGluZycsICctaW1hZScsICc8aW5maWxlLm1hZT4nLCAnLW9tYWUnLCAnPG91dGZpbGUubWFlPic=

> <r_lp_tautomer_probability>
1

> <r_epik_Ionization_Penalty>
7.16628e-05

> <r_epik_Ionization_Penalty_Charging>
0

> <r_epik_Ionization_Penalty_Neutral>
7.16628e-05

> <r_epik_State_Penalty>
-0

> <r_epik_Charging_Adjusted_Penalty>
0

> <i_epik_Tot_Q>
0

> <i_epik_Tot_abs_Q>
0

> <r_epik_Metal_State_Penalty>
-0

> <b_epik_Metal_Only>
0

> <s_lp_Force_Field>
OPLS_2005

> <r_lp_Energy>
26.3076

> <b_lp_Chiralities_Consistent>
1

> <s_lp_Variant>
AV-unprocessed.smi:2388-1

> <Gold.Version>
5.8.1

> <Gold.Id.Protein>
6NUR|6NUR_protein|mol2

> <Gold.PLP.Fitness>
42.9729

> <Gold.PLP.PLP>
-35.5635

> <Gold.PLP.part.hbond>
-3.5150

> <Gold.PLP.part.metal>
0.0000

> <Gold.PLP.part.buried>
-5.7267

> <Gold.PLP.part.nonpolar>
-27.4082

> <Gold.PLP.part.repulsive>
1.0051

> <Gold.PLP.ligand.clash>
0.0000

> <Gold.PLP.ligand.torsion>
0.2053

> <Gold.PLP.Chemscore.Hbond>
2.5920

> <Gold.PLP.Chemscore.CHOScore>
0.0000

> <Gold.PLP.Chemscore.Metal>
0.0000

> <Gold.Chemscore.Hbonds>
donor molecule, donor type, donor heavy atom, donor atom, acceptor molecule, acceptor atom, score
      L1  H     7    28       P1  7948  1.00
      L1  H    10    29       P1  7948  1.00
      P1  H  8011  8017       L1    14  0.59

> <Gold.PLP.Chemscore.Internal.Correction>
0.0441

> <Gold.Rescore>
     Score         DG    S(hbond)    S(metal)    S(lipo)     H(rot)  DE(clash)    DE(int)     intcor
     16.49     -18.30       2.54        0.00      70.12       1.51       0.31       1.50       ----

> <Gold.Chemscore.Fitness>
16.4916

> <Gold.Chemscore.DG>
-18.2976

> <Gold.Chemscore.ZeroCoef>
-5.4800

> <Gold.Chemscore.Hbond>
2.5412

> <Gold.Chemscore.Metal>
0.0000

> <Gold.Chemscore.Lipo>
70.1159

> <Gold.Chemscore.Internal_Hbond>
0.0000

> <Gold.Chemscore.DEClash>
0.3078

> <Gold.Chemscore.DEInternal>
1.4981

> <Gold.Chemscore.Rot>
1.5131

> <Gold.Chemscore.Internal.Correction>
   9.000000E+99

> <Gold.Chemscore.Hbonds>
donor molecule, donor type, donor heavy atom, donor atom, acceptor molecule, acceptor atom, score
      L1  H     7    28       P1  7948  0.94
      L1  H    10    29       P1  7948  0.99
      P1  H  8011  8017       L1    14  0.55

> <Gold.Chemscore.Hbond.Weighted>
-8.4875

> <Gold.Chemscore.Metal.Weighted>
-0.0000

> <Gold.Chemscore.Lipo.Weighted>
-8.2036

> <Gold.Chemscore.Internal_Hbond.Weighted>
0.0000

> <Gold.Chemscore.DEClash.Weighted>
0.3078

> <Gold.Chemscore.DEInternal.Weighted>
1.4981

> <Gold.Chemscore.Rot.Weighted>
3.8735

> <Gold.Chemscore.Internal.Correction.Weighted>
   9.000000E+99

> <Gold.Protein.RotatedTorsions>
[ 6907 6896 6895 6894 ] final -170.41 input  -60.11 | X-H torsion
[ 7974 7965 7964 7962 ] final  113.51 input  175.53 | X-H torsion
[ 8008 7997 7996 7995 ] final -133.61 input   59.86 | X-H torsion
[ 10167 10162 10161 10158 ] final  125.56 input  -65.29 | X-H torsion
[ 10718 10713 10712 10709 ] final -117.48 input   66.30 | X-H torsion
[ 10763 10752 10751 10750 ] final -176.12 input  -60.55 | X-H torsion
[ 11005 11000 10999 10996 ] final  -84.93 input  -57.11 | X-H torsion

> <Gold.Protein.ActiveResidues>
 VAL166  LYS551  ARG553  GLY616  TRP617  ASP618  TYR619  PRO620  LYS621  CYS622 
 ASP623  PHE694  ASN695  SER759  ASP760  ASP761  ALA762  ILE779  LEU786  VAL792 
 PHE793  MET794  SER795  GLU796  ALA797  LYS798  CYS799  TRP800  GLU811  SER814 

> <Gold.Protein.RotatedAtoms>
  151.5073  133.3492  159.2878 H   0  0  0  0  0  0  0  0  0  0  0  0  # atno 6907 bound_to 6896
  150.8734  134.8115  159.7183 H   0  0  0  0  0  0  0  0  0  0  0  0  # atno 6908 bound_to 6896
  152.4714  134.4961  159.9762 H   0  0  0  0  0  0  0  0  0  0  0  0  # atno 6909 bound_to 6896
  145.2160  139.2884  143.4243 H   0  0  0  0  0  0  0  0  0  0  0  0  # atno 7974 bound_to 7965
  155.3484  140.0476  157.3046 H   0  0  0  0  0  0  0  0  0  0  0  0  # atno 8008 bound_to 7997
  154.5240  140.2235  155.8888 H   0  0  0  0  0  0  0  0  0  0  0  0  # atno 8009 bound_to 7997
  156.1720  140.3093  155.8997 H   0  0  0  0  0  0  0  0  0  0  0  0  # atno 8010 bound_to 7997
  139.5679  144.6922  151.3859 H   0  0  0  0  0  0  0  0  0  0  0  0  # atno 10167 bound_to 10162
  156.1037  130.6193  150.9170 H   0  0  0  0  0  0  0  0  0  0  0  0  # atno 10718 bound_to 10713
  154.5762  135.2832  155.0778 H   0  0  0  0  0  0  0  0  0  0  0  0  # atno 10763 bound_to 10752
  154.2132  135.6404  153.5125 H   0  0  0  0  0  0  0  0  0  0  0  0  # atno 10764 bound_to 10752
  153.0073  135.5496  154.6401 H   0  0  0  0  0  0  0  0  0  0  0  0  # atno 10765 bound_to 10752
  141.1646  133.7372  156.8941 H   0  0  0  0  0  0  0  0  0  0  0  0  # atno 11005 bound_to 11000
  146.3387  140.2451  142.8597 LP  0  0  0  0  0  0  0  0  0  0  0  0  # atno 17320 bound_to 7965
  144.9810  140.8459  143.5397 LP  0  0  0  0  0  0  0  0  0  0  0  0  # atno 17321 bound_to 7965
  140.6963  143.7741  150.7332 LP  0  0  0  0  0  0  0  0  0  0  0  0  # atno 17342 bound_to 10162
  140.1238  143.4587  152.2296 LP  0  0  0  0  0  0  0  0  0  0  0  0  # atno 17343 bound_to 10162
  157.6211  131.0929  150.8620 LP  0  0  0  0  0  0  0  0  0  0  0  0  # atno 17370 bound_to 10713
  156.8743  130.5157  149.5294 LP  0  0  0  0  0  0  0  0  0  0  0  0  # atno 17371 bound_to 10713
  140.1628  134.9153  157.2736 LP  0  0  0  0  0  0  0  0  0  0  0  0  # atno 17394 bound_to 11000
  140.2591  134.3592  155.7413 LP  0  0  0  0  0  0  0  0  0  0  0  0  # atno 17395 bound_to 11000

$$$$
