AV-unprocessed.smi:2378|AV-procd|sdf|9450|dock2
  -GOLD-   2272013 83D 1   1.00000     0.00000
 Structure written by MMmdl.
 40 41  0  0  0  0  0  0  0  0  1 V2000
  146.2310  130.2839  151.8179 C   0  0  0  0  0  0  0  0  0  0  0  0
  145.5328  131.5861  151.4861 C   0  0  0  0  0  0  0  0  0  0  0  0
  144.2562  131.5915  150.8923 C   0  0  0  0  0  0  0  0  0  0  0  0
  143.6618  132.8347  150.6074 C   0  0  0  0  0  0  0  0  0  0  0  0
  144.2557  134.0166  150.8750 N   0  0  0  0  0  0  0  0  0  0  0  0
  145.4856  134.0244  151.4467 C   0  0  0  0  0  0  0  0  0  0  0  0
  146.1973  135.2099  151.7718 N   0  0  0  0  0  0  0  0  0  0  0  0
  145.7001  136.4195  152.0854 C   0  0  0  0  0  0  0  0  0  0  0  0
  144.5039  136.7076  152.1355 O   0  0  0  0  0  0  0  0  0  0  0  0
  146.6825  137.2966  152.3376 N   0  0  0  0  0  0  0  0  0  0  0  0
  146.4851  138.6976  152.6915 C   0  0  0  0  0  0  0  0  0  0  0  0
  147.4325  139.1313  153.8230 C   0  0  0  0  0  0  0  0  0  0  0  0
  147.0260  140.4674  154.4642 C   0  0  1  0  0  0  0  0  0  0  0  0
  146.9972  141.6141  153.4348 C   0  0  0  0  0  0  0  0  0  0  0  0
  146.5161  142.9136  154.0897 C   0  0  0  0  0  0  0  0  0  0  0  0
  145.1773  142.6709  154.7939 C   0  0  0  0  0  0  0  0  0  0  0  0
  145.2856  141.4709  155.7483 C   0  0  0  0  0  0  0  0  0  0  0  0
  145.7265  140.3203  155.0338 O   0  0  0  0  0  0  0  0  0  0  0  0
  146.1535  132.8204  151.7657 C   0  0  0  0  0  0  0  0  0  0  0  0
  145.5617  129.4324  151.6905 H   0  0  0  0  0  0  0  0  0  0  0  0
  146.5778  130.2920  152.8515 H   0  0  0  0  0  0  0  0  0  0  0  0
  147.0932  130.1416  151.1661 H   0  0  0  0  0  0  0  0  0  0  0  0
  143.7423  130.6705  150.6591 H   0  0  0  0  0  0  0  0  0  0  0  0
  142.6835  132.8818  150.1521 H   0  0  0  0  0  0  0  0  0  0  0  0
  147.2032  135.1278  151.7627 H   0  0  0  0  0  0  0  0  0  0  0  0
  147.6370  136.9746  152.2735 H   0  0  0  0  0  0  0  0  0  0  0  0
  146.6196  139.3292  151.8116 H   0  0  0  0  0  0  0  0  0  0  0  0
  145.4490  138.8224  153.0061 H   0  0  0  0  0  0  0  0  0  0  0  0
  147.4445  138.3560  154.5902 H   0  0  0  0  0  0  0  0  0  0  0  0
  148.4535  139.2055  153.4460 H   0  0  0  0  0  0  0  0  0  0  0  0
  147.7396  140.7095  155.2540 H   0  0  0  0  0  0  0  0  0  0  0  0
  147.9870  141.7604  153.0017 H   0  0  0  0  0  0  0  0  0  0  0  0
  146.3312  141.3534  152.6112 H   0  0  0  0  0  0  0  0  0  0  0  0
  147.2563  143.2557  154.8140 H   0  0  0  0  0  0  0  0  0  0  0  0
  146.4172  143.7025  153.3437 H   0  0  0  0  0  0  0  0  0  0  0  0
  144.8701  143.5632  155.3400 H   0  0  0  0  0  0  0  0  0  0  0  0
  144.4030  142.4757  154.0508 H   0  0  0  0  0  0  0  0  0  0  0  0
  145.9707  141.6868  156.5696 H   0  0  0  0  0  0  0  0  0  0  0  0
  144.3137  141.2571  156.1934 H   0  0  0  0  0  0  0  0  0  0  0  0
  147.1334  132.8404  152.2208 H   0  0  0  0  0  0  0  0  0  0  0  0
  1  2  1  0  0  0  0
  1 20  1  0  0  0  0
  1 21  1  0  0  0  0
  1 22  1  0  0  0  0
  2 19  1  0  0  0  0
  2  3  2  0  0  0  0
  3  4  1  0  0  0  0
  3 23  1  0  0  0  0
  4  5  2  0  0  0  0
  4 24  1  0  0  0  0
  5  6  1  0  0  0  0
  6  7  1  0  0  0  0
  6 19  2  0  0  0  0
  7  8  1  0  0  0  0
  7 25  1  0  0  0  0
  8  9  2  0  0  0  0
  8 10  1  0  0  0  0
 10 11  1  0  0  0  0
 10 26  1  0  0  0  0
 11 12  1  0  0  0  0
 11 27  1  0  0  0  0
 11 28  1  0  0  0  0
 12 13  1  0  0  0  0
 12 29  1  0  0  0  0
 12 30  1  0  0  0  0
 13 18  1  0  0  0  0
 13 14  1  0  0  0  0
 13 31  1  0  0  0  0
 14 15  1  0  0  0  0
 14 32  1  0  0  0  0
 14 33  1  0  0  0  0
 15 16  1  0  0  0  0
 15 34  1  0  0  0  0
 15 35  1  0  0  0  0
 16 17  1  0  0  0  0
 16 36  1  0  0  0  0
 16 37  1  0  0  0  0
 17 18  1  0  0  0  0
 17 38  1  0  0  0  0
 17 39  1  0  0  0  0
 19 40  1  0  0  0  0
M  END
> <s_m_source_file>
AV-unprocessed.smi

> <i_m_source_file_index>
2378

> <i_lp_mmshare_version>
43012

> <i_f3d_flags>
0

> <s_epik_input>
W0NIM11jMVtjSF1bY0hdbmMoW2NIXTEpW05IXUMoPU8pW05IXVtDSDJdW0NIMl1bQ0BASF0yW0NIMl1bQ0gyXVtDSDJdW0NIMl1PMg==

> <s_epik_cmdline>
J2VwaWtfcHl0aG9uJywgJy1waCcsICc3LjAnLCAnLXRuJywgJzgnLCAnLW1hJywgJzIwMCcsICctbWV0YWxfYmluZGluZycsICctaW1hZScsICc8aW5maWxlLm1hZT4nLCAnLW9tYWUnLCAnPG91dGZpbGUubWFlPic=

> <r_lp_tautomer_probability>
1

> <r_epik_Ionization_Penalty>
8.60919e-05

> <r_epik_Ionization_Penalty_Charging>
0

> <r_epik_Ionization_Penalty_Neutral>
8.60919e-05

> <r_epik_State_Penalty>
-0

> <r_epik_Charging_Adjusted_Penalty>
0

> <i_epik_Tot_Q>
0

> <i_epik_Tot_abs_Q>
0

> <r_epik_Metal_State_Penalty>
-0

> <b_epik_Metal_Only>
0

> <s_lp_Force_Field>
OPLS_2005

> <r_lp_Energy>
10.7522

> <b_lp_Chiralities_Consistent>
1

> <s_lp_Variant>
AV-unprocessed.smi:2378-2

> <Gold.Version>
5.8.1

> <Gold.Id.Protein>
6NUR|6NUR_protein|mol2

> <Gold.PLP.Fitness>
41.1986

> <Gold.PLP.PLP>
-33.2279

> <Gold.PLP.part.hbond>
-2.0000

> <Gold.PLP.part.metal>
0.0000

> <Gold.PLP.part.buried>
-6.3276

> <Gold.PLP.part.nonpolar>
-26.4740

> <Gold.PLP.part.repulsive>
1.4333

> <Gold.PLP.ligand.clash>
0.0000

> <Gold.PLP.ligand.torsion>
0.3412

> <Gold.PLP.Chemscore.Hbond>
1.8800

> <Gold.PLP.Chemscore.CHOScore>
1.0000

> <Gold.PLP.Chemscore.Metal>
0.0000

> <Gold.Chemscore.Hbonds>
donor molecule, donor type, donor heavy atom, donor atom, acceptor molecule, acceptor atom, score
      L1  H     7    25       P1  7948  0.88
      L1  H    10    26       P1  7948  1.00
      L1  C     4    24       P1 10186  1.00

> <Gold.PLP.Chemscore.Internal.Correction>
0.0130

> <Gold.Rescore>
     Score         DG    S(hbond)    S(metal)    S(lipo)     H(rot)  DE(clash)    DE(int)     intcor
     15.52     -16.98       1.83        0.00      77.11       1.42       0.08       1.38       ----

> <Gold.Chemscore.Fitness>
15.5188

> <Gold.Chemscore.DG>
-16.9811

> <Gold.Chemscore.ZeroCoef>
-5.4800

> <Gold.Chemscore.Hbond>
1.8343

> <Gold.Chemscore.Metal>
0.0000

> <Gold.Chemscore.Lipo>
77.1113

> <Gold.Chemscore.Internal_Hbond>
0.0000

> <Gold.Chemscore.DEClash>
0.0785

> <Gold.Chemscore.DEInternal>
1.3838

> <Gold.Chemscore.Rot>
1.4248

> <Gold.Chemscore.Internal.Correction>
   9.000000E+99

> <Gold.Chemscore.Hbonds>
donor molecule, donor type, donor heavy atom, donor atom, acceptor molecule, acceptor atom, score
      L1  H     7    25       P1  7948  0.76
      L1  H    10    26       P1  7948  0.95

> <Gold.Chemscore.Hbond.Weighted>
-6.1267

> <Gold.Chemscore.Metal.Weighted>
-0.0000

> <Gold.Chemscore.Lipo.Weighted>
-9.0220

> <Gold.Chemscore.Internal_Hbond.Weighted>
0.0000

> <Gold.Chemscore.DEClash.Weighted>
0.0785

> <Gold.Chemscore.DEInternal.Weighted>
1.3838

> <Gold.Chemscore.Rot.Weighted>
3.6476

> <Gold.Chemscore.Internal.Correction.Weighted>
   9.000000E+99

> <Gold.Protein.RotatedTorsions>
[ 6907 6896 6895 6894 ] final  -53.96 input  -60.11 | X-H torsion
[ 7974 7965 7964 7962 ] final  116.35 input  175.53 | X-H torsion
[ 8008 7997 7996 7995 ] final  -72.87 input   59.86 | X-H torsion
[ 10167 10162 10161 10158 ] final  -44.77 input  -65.29 | X-H torsion
[ 10718 10713 10712 10709 ] final   42.01 input   66.30 | X-H torsion
[ 10763 10752 10751 10750 ] final  -86.63 input  -60.55 | X-H torsion
[ 11005 11000 10999 10996 ] final -175.36 input  -57.11 | X-H torsion

> <Gold.Protein.ActiveResidues>
 VAL166  LYS551  ARG553  GLY616  TRP617  ASP618  TYR619  PRO620  LYS621  CYS622 
 ASP623  PHE694  ASN695  SER759  ASP760  ASP761  ALA762  ILE779  LEU786  VAL792 
 PHE793  MET794  SER795  GLU796  ALA797  LYS798  CYS799  TRP800  GLU811  SER814 

> <Gold.Protein.RotatedAtoms>
  150.8380  134.7661  159.6908 H   0  0  0  0  0  0  0  0  0  0  0  0  # atno 6907 bound_to 6896
  152.4473  134.5464  159.9864 H   0  0  0  0  0  0  0  0  0  0  0  0  # atno 6908 bound_to 6896
  151.5610  133.3365  159.3007 H   0  0  0  0  0  0  0  0  0  0  0  0  # atno 6909 bound_to 6896
  145.1807  139.3051  143.4419 H   0  0  0  0  0  0  0  0  0  0  0  0  # atno 7974 bound_to 7965
  154.5201  140.0789  156.8156 H   0  0  0  0  0  0  0  0  0  0  0  0  # atno 8008 bound_to 7997
  155.3595  140.3417  155.4222 H   0  0  0  0  0  0  0  0  0  0  0  0  # atno 8009 bound_to 7997
  156.1671  140.1607  156.8499 H   0  0  0  0  0  0  0  0  0  0  0  0  # atno 8010 bound_to 7997
  140.6884  143.2913  151.3543 H   0  0  0  0  0  0  0  0  0  0  0  0  # atno 10167 bound_to 10162
  157.4001  130.7855  149.7341 H   0  0  0  0  0  0  0  0  0  0  0  0  # atno 10718 bound_to 10713
  154.6246  135.5442  153.7613 H   0  0  0  0  0  0  0  0  0  0  0  0  # atno 10763 bound_to 10752
  153.0254  135.6421  154.1391 H   0  0  0  0  0  0  0  0  0  0  0  0  # atno 10764 bound_to 10752
  154.1324  135.2913  155.3162 H   0  0  0  0  0  0  0  0  0  0  0  0  # atno 10765 bound_to 10752
  140.4641  134.6227  157.4855 H   0  0  0  0  0  0  0  0  0  0  0  0  # atno 11005 bound_to 11000
  146.3453  140.1986  142.8589 LP  0  0  0  0  0  0  0  0  0  0  0  0  # atno 17320 bound_to 7965
  145.0139  140.8737  143.5207 LP  0  0  0  0  0  0  0  0  0  0  0  0  # atno 17321 bound_to 7965
  139.6263  144.0807  152.2437 LP  0  0  0  0  0  0  0  0  0  0  0  0  # atno 17342 bound_to 10162
  140.0268  144.6111  150.7521 LP  0  0  0  0  0  0  0  0  0  0  0  0  # atno 17343 bound_to 10162
  155.9821  130.4013  150.3436 LP  0  0  0  0  0  0  0  0  0  0  0  0  # atno 17370 bound_to 10713
  157.1563  131.0333  151.2862 LP  0  0  0  0  0  0  0  0  0  0  0  0  # atno 17371 bound_to 10713
  139.9926  134.6961  155.9663 LP  0  0  0  0  0  0  0  0  0  0  0  0  # atno 17394 bound_to 11000
  141.1607  133.6539  156.4311 LP  0  0  0  0  0  0  0  0  0  0  0  0  # atno 17395 bound_to 11000

$$$$
