AV-unprocessed.smi:2105|AV-procd|sdf|8592|dock2
  -GOLD-   2272011323D 1   1.00000     0.00000
 Structure written by MMmdl.
 43 44  0  0  0  0  0  0  0  0  2 V2000
  153.7875  141.6802  160.1086 C   0  0  0  0  0  0  0  0  0  0  0  0
  152.4834  142.3683  159.7205 C   0  0  0  0  0  0  0  0  0  0  0  0
  151.4199  142.0041  160.2210 O   0  0  0  0  0  0  0  0  0  0  0  0
  152.5805  143.3630  158.8255 N   0  0  0  0  0  0  0  0  0  0  0  0
  151.4639  144.1607  158.3284 C   0  0  0  0  0  0  0  0  0  0  0  0
  150.6574  144.8088  159.4711 C   0  0  0  0  0  0  0  0  0  0  0  0
  149.2250  144.8286  159.1918 N   0  0  0  0  0  0  0  0  0  0  0  0
  148.2588  144.6387  160.1013 C   0  0  0  0  0  0  0  0  0  0  0  0
  148.4781  144.4302  161.2945 O   0  0  0  0  0  0  0  0  0  0  0  0
  147.0405  144.6880  159.5370 N   0  0  0  0  0  0  0  0  0  0  0  0
  145.7748  144.5089  160.1650 C   0  0  0  0  0  0  0  0  0  0  0  0
  145.6736  144.2732  161.5605 C   0  0  0  0  0  0  0  0  0  0  0  0
  144.4113  144.0782  162.1516 C   0  0  0  0  0  0  0  0  0  0  0  0
  143.2658  144.1264  161.3394 C   0  0  0  0  0  0  0  0  0  0  0  0
  143.3925  144.3735  160.0193 N   0  3  0  0  0  0  0  0  0  0  0  0
  144.5779  144.5843  159.3939 C   0  0  0  0  0  0  0  0  0  0  0  0
  144.5516  144.8462  158.0049 N   0  0  0  0  0  0  0  0  0  0  0  0
  143.8938  143.9191  157.0913 C   0  0  0  0  0  0  0  0  0  0  0  0
  143.7648  144.6840  155.7771 C   0  0  0  0  0  0  0  0  0  0  0  0
  143.5179  146.1125  156.2526 C   0  0  0  0  0  0  0  0  0  0  0  0
  144.3386  146.2142  157.5429 C   0  0  0  0  0  0  0  0  0  0  0  0
  154.3167  141.3324  159.2212 H   0  0  0  0  0  0  0  0  0  0  0  0
  153.5955  140.8194  160.7500 H   0  0  0  0  0  0  0  0  0  0  0  0
  154.4344  142.3712  160.6496 H   0  0  0  0  0  0  0  0  0  0  0  0
  153.4977  143.5935  158.4716 H   0  0  0  0  0  0  0  0  0  0  0  0
  151.8500  144.9386  157.6677 H   0  0  0  0  0  0  0  0  0  0  0  0
  150.8258  143.5308  157.7080 H   0  0  0  0  0  0  0  0  0  0  0  0
  150.8282  144.2884  160.4139 H   0  0  0  0  0  0  0  0  0  0  0  0
  151.0035  145.8319  159.6274 H   0  0  0  0  0  0  0  0  0  0  0  0
  148.9545  144.9904  158.2328 H   0  0  0  0  0  0  0  0  0  0  0  0
  147.0212  144.7633  158.5306 H   0  0  0  0  0  0  0  0  0  0  0  0
  146.5486  144.2444  162.1918 H   0  0  0  0  0  0  0  0  0  0  0  0
  144.3249  143.8933  163.2125 H   0  0  0  0  0  0  0  0  0  0  0  0
  142.2584  143.9850  161.7030 H   0  0  0  0  0  0  0  0  0  0  0  0
  144.4698  143.0011  156.9707 H   0  0  0  0  0  0  0  0  0  0  0  0
  142.9014  143.6585  157.4612 H   0  0  0  0  0  0  0  0  0  0  0  0
  144.7022  144.6327  155.2211 H   0  0  0  0  0  0  0  0  0  0  0  0
  142.9688  144.3011  155.1377 H   0  0  0  0  0  0  0  0  0  0  0  0
  143.7971  146.8627  155.5120 H   0  0  0  0  0  0  0  0  0  0  0  0
  142.4590  146.2433  156.4800 H   0  0  0  0  0  0  0  0  0  0  0  0
  143.8293  146.8256  158.2893 H   0  0  0  0  0  0  0  0  0  0  0  0
  145.3073  146.6685  157.3324 H   0  0  0  0  0  0  0  0  0  0  0  0
  142.5414  144.4123  159.4584 H   0  0  0  0  0  0  0  0  0  0  0  0
  1  2  1  0  0  0  0
  1 22  1  0  0  0  0
  1 23  1  0  0  0  0
  1 24  1  0  0  0  0
  2  3  2  0  0  0  0
  2  4  1  0  0  0  0
  4  5  1  0  0  0  0
  4 25  1  0  0  0  0
  5  6  1  0  0  0  0
  5 26  1  0  0  0  0
  5 27  1  0  0  0  0
  6  7  1  0  0  0  0
  6 28  1  0  0  0  0
  6 29  1  0  0  0  0
  7  8  1  0  0  0  0
  7 30  1  0  0  0  0
  8  9  2  0  0  0  0
  8 10  1  0  0  0  0
 10 11  1  0  0  0  0
 10 31  1  0  0  0  0
 11 16  1  0  0  0  0
 11 12  2  0  0  0  0
 12 13  1  0  0  0  0
 12 32  1  0  0  0  0
 13 14  2  0  0  0  0
 13 33  1  0  0  0  0
 14 15  1  0  0  0  0
 14 34  1  0  0  0  0
 15 16  2  0  0  0  0
 15 43  1  0  0  0  0
 16 17  1  0  0  0  0
 17 21  1  0  0  0  0
 17 18  1  0  0  0  0
 18 19  1  0  0  0  0
 18 35  1  0  0  0  0
 18 36  1  0  0  0  0
 19 20  1  0  0  0  0
 19 37  1  0  0  0  0
 19 38  1  0  0  0  0
 20 21  1  0  0  0  0
 20 39  1  0  0  0  0
 20 40  1  0  0  0  0
 21 41  1  0  0  0  0
 21 42  1  0  0  0  0
M  CHG  1  15   1
M  END
> <s_m_source_file>
AV-unprocessed.smi

> <i_m_source_file_index>
2105

> <i_lp_mmshare_version>
43012

> <i_f3d_flags>
0

> <s_epik_input>
W0NIM11DKD1PKVtOSF1bQ0gyXVtDSDJdW05IXUMoPU8pW05IXWMxW2NIXVtjSF1bY0hdbmMxTjJbQ0gyXVtDSDJdW0NIMl1bQ0gyXTI=

> <s_epik_cmdline>
J2VwaWtfcHl0aG9uJywgJy1waCcsICc3LjAnLCAnLXRuJywgJzgnLCAnLW1hJywgJzIwMCcsICctbWV0YWxfYmluZGluZycsICctaW1hZScsICc8aW5maWxlLm1hZT4nLCAnLW9tYWUnLCAnPG91dGZpbGUubWFlPic=

> <r_lp_tautomer_probability>
0.999994

> <r_epik_Ionization_Penalty>
1.12691

> <r_epik_Ionization_Penalty_Charging>
1.12689

> <r_epik_Ionization_Penalty_Neutral>
1.95207e-05

> <r_epik_State_Penalty>
1.18624

> <r_epik_Charging_Adjusted_Penalty>
2.31313

> <i_epik_Tot_Q>
1

> <i_epik_Tot_abs_Q>
1

> <r_epik_Metal_State_Penalty>
1.26987

> <b_epik_Metal_Only>
0

> <s_lp_Force_Field>
OPLS_2005

> <r_lp_Energy>
38.5687

> <b_lp_Chiralities_Consistent>
1

> <s_lp_Variant>
AV-unprocessed.smi:2105-2

> <Gold.Version>
5.8.1

> <Gold.Id.Protein>
6NUR|6NUR_protein|mol2

> <Gold.PLP.Fitness>
49.3601

> <Gold.PLP.PLP>
-42.2064

> <Gold.PLP.part.hbond>
-4.0000

> <Gold.PLP.part.metal>
0.0000

> <Gold.PLP.part.buried>
-9.5845

> <Gold.PLP.part.nonpolar>
-29.4839

> <Gold.PLP.part.repulsive>
0.6669

> <Gold.PLP.ligand.clash>
0.0000

> <Gold.PLP.ligand.torsion>
0.8053

> <Gold.PLP.Chemscore.Hbond>
2.7840

> <Gold.PLP.Chemscore.CHOScore>
0.0000

> <Gold.PLP.Chemscore.Metal>
0.0000

> <Gold.Chemscore.Hbonds>
donor molecule, donor type, donor heavy atom, donor atom, acceptor molecule, acceptor atom, score
      L1  H     7    30       P1  8029  0.85
      L1  H    10    31       P1  8029  0.69
      P1  H  6933  6944       L1     9  0.81

> <Gold.PLP.Chemscore.Internal.Correction>
0.4123

> <Gold.Rescore>
     Score         DG    S(hbond)    S(metal)    S(lipo)     H(rot)  DE(clash)    DE(int)     intcor
     17.02     -18.95       2.88        0.00      76.13       1.98       0.00       1.94       ----

> <Gold.Chemscore.Fitness>
17.0178

> <Gold.Chemscore.DG>
-18.9532

> <Gold.Chemscore.ZeroCoef>
-5.4800

> <Gold.Chemscore.Hbond>
2.8816

> <Gold.Chemscore.Metal>
0.0000

> <Gold.Chemscore.Lipo>
76.1306

> <Gold.Chemscore.Internal_Hbond>
0.0000

> <Gold.Chemscore.DEClash>
0.0000

> <Gold.Chemscore.DEInternal>
1.9354

> <Gold.Chemscore.Rot>
1.9760

> <Gold.Chemscore.Internal.Correction>
   9.000000E+99

> <Gold.Chemscore.Hbonds>
donor molecule, donor type, donor heavy atom, donor atom, acceptor molecule, acceptor atom, score
      L1  H     7    30       P1  8029  0.54
      L1  H    10    31       P1  8029  0.67
      P1  H  6933  6944       L1     9  0.39

> <Gold.Chemscore.Hbond.Weighted>
-9.6244

> <Gold.Chemscore.Metal.Weighted>
-0.0000

> <Gold.Chemscore.Lipo.Weighted>
-8.9073

> <Gold.Chemscore.Internal_Hbond.Weighted>
0.0000

> <Gold.Chemscore.DEClash.Weighted>
0.0000

> <Gold.Chemscore.DEInternal.Weighted>
1.9354

> <Gold.Chemscore.Rot.Weighted>
5.0585

> <Gold.Chemscore.Internal.Correction.Weighted>
   9.000000E+99

> <Gold.Protein.RotatedTorsions>
[ 6907 6896 6895 6894 ] final   -7.76 input  -60.11 | X-H torsion
[ 7974 7965 7964 7962 ] final  -48.28 input  175.53 | X-H torsion
[ 8008 7997 7996 7995 ] final  138.40 input   59.86 | X-H torsion
[ 10167 10162 10161 10158 ] final   80.67 input  -65.29 | X-H torsion
[ 10718 10713 10712 10709 ] final   17.55 input   66.30 | X-H torsion
[ 10763 10752 10751 10750 ] final -123.96 input  -60.55 | X-H torsion
[ 11005 11000 10999 10996 ] final   -3.69 input  -57.11 | X-H torsion

> <Gold.Protein.ActiveResidues>
 VAL166  LYS551  ARG553  GLY616  TRP617  ASP618  TYR619  PRO620  LYS621  CYS622 
 ASP623  PHE694  ASN695  SER759  ASP760  ASP761  ALA762  ILE779  LEU786  VAL792 
 PHE793  MET794  SER795  GLU796  ALA797  LYS798  CYS799  TRP800  GLU811  SER814 

> <Gold.Protein.RotatedAtoms>
  151.4445  135.1023  159.9679 H   0  0  0  0  0  0  0  0  0  0  0  0  # atno 6907 bound_to 6896
  152.4911  133.8498  159.7206 H   0  0  0  0  0  0  0  0  0  0  0  0  # atno 6908 bound_to 6896
  150.9065  133.6992  159.2893 H   0  0  0  0  0  0  0  0  0  0  0  0  # atno 6909 bound_to 6896
  145.9528  140.7556  142.9496 H   0  0  0  0  0  0  0  0  0  0  0  0  # atno 7974 bound_to 7965
  156.2997  140.2394  156.4067 H   0  0  0  0  0  0  0  0  0  0  0  0  # atno 8008 bound_to 7997
  154.8478  140.0425  157.1604 H   0  0  0  0  0  0  0  0  0  0  0  0  # atno 8009 bound_to 7997
  154.9032  140.2980  155.5310 H   0  0  0  0  0  0  0  0  0  0  0  0  # atno 8010 bound_to 7997
  139.9473  144.6049  150.8194 H   0  0  0  0  0  0  0  0  0  0  0  0  # atno 10167 bound_to 10162
  157.0837  130.6398  149.5832 H   0  0  0  0  0  0  0  0  0  0  0  0  # atno 10718 bound_to 10713
  154.8716  135.4080  154.3028 H   0  0  0  0  0  0  0  0  0  0  0  0  # atno 10763 bound_to 10752
  153.3885  135.7014  153.6518 H   0  0  0  0  0  0  0  0  0  0  0  0  # atno 10764 bound_to 10752
  153.5311  135.3667  155.2647 H   0  0  0  0  0  0  0  0  0  0  0  0  # atno 10765 bound_to 10752
  140.6721  133.9227  155.8501 H   0  0  0  0  0  0  0  0  0  0  0  0  # atno 11005 bound_to 11000
  144.6799  140.2462  143.7337 LP  0  0  0  0  0  0  0  0  0  0  0  0  # atno 17320 bound_to 7965
  145.8148  139.2018  143.1972 LP  0  0  0  0  0  0  0  0  0  0  0  0  # atno 17321 bound_to 7965
  140.7593  143.3126  151.2808 LP  0  0  0  0  0  0  0  0  0  0  0  0  # atno 17342 bound_to 10162
  139.6656  144.0111  152.2721 LP  0  0  0  0  0  0  0  0  0  0  0  0  # atno 17343 bound_to 10162
  155.9917  130.4972  150.7308 LP  0  0  0  0  0  0  0  0  0  0  0  0  # atno 17370 bound_to 10713
  157.4779  131.0899  151.0569 LP  0  0  0  0  0  0  0  0  0  0  0  0  # atno 17371 bound_to 10713
  141.0384  134.0656  157.3931 LP  0  0  0  0  0  0  0  0  0  0  0  0  # atno 17394 bound_to 11000
  139.8978  135.0152  156.7119 LP  0  0  0  0  0  0  0  0  0  0  0  0  # atno 17395 bound_to 11000

$$$$
