AV-unprocessed.smi:1403|AV-procd|sdf|5704|dock8
  -GOLD-   22720 5333D 1   1.00000     0.00000
 Structure written by MMmdl.
 35 36  0  0  0  0  0  0  0  0  2 V2000
  150.6617  140.5825  157.9241 C   0  0  0  0  0  0  0  0  0  0  0  0
  150.9016  141.9124  157.1928 C   0  0  1  0  0  0  0  0  0  0  0  0
  149.9020  142.0463  156.1358 N   0  0  0  0  0  0  0  0  0  0  0  0
  149.8221  141.2882  155.0314 C   0  0  0  0  0  0  0  0  0  0  0  0
  150.6083  140.3745  154.7775 O   0  0  0  0  0  0  0  0  0  0  0  0
  148.6980  141.6477  154.0507 C   0  0  0  0  0  0  0  0  0  0  0  0
  147.3551  141.4236  154.6093 N   0  0  0  0  0  0  0  0  0  0  0  0
  146.4880  142.5274  154.6909 C   0  0  0  0  0  0  0  0  0  0  0  0
  145.2403  142.4152  155.1848 C   0  0  0  0  0  0  0  0  0  0  0  0
  144.7946  141.1055  155.6433 C   0  0  0  0  0  0  0  0  0  0  0  0
  143.6604  140.9857  156.1027 O   0  0  0  0  0  0  0  0  0  0  0  0
  145.6713  140.0641  155.5386 N   0  5  0  0  0  0  0  0  0  0  0  0
  146.9364  140.1922  155.0307 C   0  0  0  0  0  0  0  0  0  0  0  0
  147.7105  139.2383  154.9421 O   0  0  0  0  0  0  0  0  0  0  0  0
  150.8283  143.1280  158.1409 C   0  0  1  0  0  0  0  0  0  0  0  0
  151.6354  142.9764  159.4327 C   0  0  0  0  0  0  0  0  0  0  0  0
  151.9128  144.4164  159.7970 C   0  0  0  0  0  0  0  0  0  0  0  0
  152.1722  145.0312  158.4269 C   0  0  0  0  0  0  0  0  0  0  0  0
  151.3648  144.2937  157.5142 O   0  0  0  0  0  0  0  0  0  0  0  0
  151.4134  140.4094  158.6944 H   0  0  0  0  0  0  0  0  0  0  0  0
  150.7096  139.7418  157.2310 H   0  0  0  0  0  0  0  0  0  0  0  0
  149.6824  140.5628  158.4036 H   0  0  0  0  0  0  0  0  0  0  0  0
  151.8994  141.8707  156.7521 H   0  0  0  0  0  0  0  0  0  0  0  0
  149.2153  142.7771  156.2524 H   0  0  0  0  0  0  0  0  0  0  0  0
  148.8028  142.6859  153.7299 H   0  0  0  0  0  0  0  0  0  0  0  0
  148.8377  141.0543  153.1463 H   0  0  0  0  0  0  0  0  0  0  0  0
  146.8928  143.4589  154.3240 H   0  0  0  0  0  0  0  0  0  0  0  0
  144.5854  143.2723  155.2375 H   0  0  0  0  0  0  0  0  0  0  0  0
  149.7891  143.3439  158.3956 H   0  0  0  0  0  0  0  0  0  0  0  0
  151.0957  142.4375  160.2119 H   0  0  0  0  0  0  0  0  0  0  0  0
  152.5746  142.4545  159.2422 H   0  0  0  0  0  0  0  0  0  0  0  0
  151.0287  144.8657  160.2511 H   0  0  0  0  0  0  0  0  0  0  0  0
  152.7510  144.5341  160.4840 H   0  0  0  0  0  0  0  0  0  0  0  0
  151.9401  146.0959  158.3963 H   0  0  0  0  0  0  0  0  0  0  0  0
  153.2176  144.9031  158.1435 H   0  0  0  0  0  0  0  0  0  0  0  0
  1  2  1  0  0  0  0
  1 20  1  0  0  0  0
  1 21  1  0  0  0  0
  1 22  1  0  0  0  0
  2  3  1  0  0  0  0
  2 15  1  0  0  0  0
  2 23  1  0  0  0  0
  3  4  1  0  0  0  0
  3 24  1  0  0  0  0
  4  5  2  0  0  0  0
  4  6  1  0  0  0  0
  6  7  1  0  0  0  0
  6 25  1  0  0  0  0
  6 26  1  0  0  0  0
  7 13  1  0  0  0  0
  7  8  1  0  0  0  0
  8  9  2  0  0  0  0
  8 27  1  0  0  0  0
  9 10  1  0  0  0  0
  9 28  1  0  0  0  0
 10 11  2  0  0  0  0
 10 12  1  0  0  0  0
 12 13  1  0  0  0  0
 13 14  2  0  0  0  0
 15 19  1  0  0  0  0
 15 16  1  0  0  0  0
 15 29  1  0  0  0  0
 16 17  1  0  0  0  0
 16 30  1  0  0  0  0
 16 31  1  0  0  0  0
 17 18  1  0  0  0  0
 17 32  1  0  0  0  0
 17 33  1  0  0  0  0
 18 19  1  0  0  0  0
 18 34  1  0  0  0  0
 18 35  1  0  0  0  0
M  CHG  1  12  -1
M  END
> <s_m_source_file>
AV-unprocessed.smi

> <i_m_source_file_index>
1403

> <i_lp_mmshare_version>
43012

> <i_f3d_flags>
0

> <s_epik_input>
TzFbQ0gyXVtDSDJdW0NIMl1bQ0BIXTFbQ0BIXShbQ0gzXSlbTkhdQyg9TylbQ0gyXW4yW2NIXVtjSF1jKD1PKVtuSF1jMj1P

> <s_epik_cmdline>
J2VwaWtfcHl0aG9uJywgJy1waCcsICc3LjAnLCAnLXRuJywgJzgnLCAnLW1hJywgJzIwMCcsICctbWV0YWxfYmluZGluZycsICctaW1hZScsICc8aW5maWxlLm1hZT4nLCAnLW9tYWUnLCAnPG91dGZpbGUubWFlPic=

> <r_lp_tautomer_probability>
0.999537

> <r_epik_Ionization_Penalty>
3.07438

> <r_epik_Ionization_Penalty_Charging>
2.82466e-08

> <r_epik_Ionization_Penalty_Neutral>
3.07438

> <r_epik_State_Penalty>
3.07341

> <r_epik_Charging_Adjusted_Penalty>
3.07341

> <i_epik_Tot_Q>
-1

> <i_epik_Tot_abs_Q>
1

> <r_epik_Metal_State_Penalty>
0.45947

> <b_epik_Metal_Only>
1

> <s_lp_Force_Field>
OPLS_2005

> <r_lp_Energy>
26.7212

> <b_lp_Chiralities_Consistent>
1

> <s_lp_Variant>
AV-unprocessed.smi:1403-8

> <Gold.Version>
5.8.1

> <Gold.Id.Protein>
6NUR|6NUR_protein|mol2

> <Gold.PLP.Fitness>
41.1391

> <Gold.PLP.PLP>
-34.8506

> <Gold.PLP.part.hbond>
-2.0000

> <Gold.PLP.part.metal>
0.0000

> <Gold.PLP.part.buried>
-3.4124

> <Gold.PLP.part.nonpolar>
-29.3031

> <Gold.PLP.part.repulsive>
0.5064

> <Gold.PLP.ligand.clash>
0.0000

> <Gold.PLP.ligand.torsion>
0.2673

> <Gold.PLP.Chemscore.Hbond>
1.8580

> <Gold.PLP.Chemscore.CHOScore>
0.4102

> <Gold.PLP.Chemscore.Metal>
0.0000

> <Gold.Chemscore.Hbonds>
donor molecule, donor type, donor heavy atom, donor atom, acceptor molecule, acceptor atom, score
      L1  H     3    24       P1  8028  0.74
      P1  H  7989  7998       L1     5  1.00
      L1  C     8    27       P1  8028  0.34

> <Gold.PLP.Chemscore.Internal.Correction>
0.0185

> <Gold.Rescore>
     Score         DG    S(hbond)    S(metal)    S(lipo)     H(rot)  DE(clash)    DE(int)     intcor
     11.98     -14.31       1.52        0.00      75.80       1.99       0.14       2.19       ----

> <Gold.Chemscore.Fitness>
11.9782

> <Gold.Chemscore.DG>
-14.3136

> <Gold.Chemscore.ZeroCoef>
-5.4800

> <Gold.Chemscore.Hbond>
1.5179

> <Gold.Chemscore.Metal>
0.0000

> <Gold.Chemscore.Lipo>
75.7993

> <Gold.Chemscore.Internal_Hbond>
0.0000

> <Gold.Chemscore.DEClash>
0.1423

> <Gold.Chemscore.DEInternal>
2.1931

> <Gold.Chemscore.Rot>
1.9940

> <Gold.Chemscore.Internal.Correction>
   9.000000E+99

> <Gold.Chemscore.Hbonds>
donor molecule, donor type, donor heavy atom, donor atom, acceptor molecule, acceptor atom, score
      L1  H     3    24       P1  8028  0.70
      P1  H  7989  7998       L1     5  0.64

> <Gold.Chemscore.Hbond.Weighted>
-5.0698

> <Gold.Chemscore.Metal.Weighted>
-0.0000

> <Gold.Chemscore.Lipo.Weighted>
-8.8685

> <Gold.Chemscore.Internal_Hbond.Weighted>
0.0000

> <Gold.Chemscore.DEClash.Weighted>
0.1423

> <Gold.Chemscore.DEInternal.Weighted>
2.1931

> <Gold.Chemscore.Rot.Weighted>
5.1047

> <Gold.Chemscore.Internal.Correction.Weighted>
   9.000000E+99

> <Gold.Protein.RotatedTorsions>
[ 6907 6896 6895 6894 ] final  105.08 input  -60.11 | X-H torsion
[ 7974 7965 7964 7962 ] final  128.29 input  175.53 | X-H torsion
[ 8008 7997 7996 7995 ] final   65.27 input   59.86 | X-H torsion
[ 10167 10162 10161 10158 ] final  -78.28 input  -65.29 | X-H torsion
[ 10718 10713 10712 10709 ] final -141.83 input   66.30 | X-H torsion
[ 10763 10752 10751 10750 ] final  -16.22 input  -60.55 | X-H torsion
[ 11005 11000 10999 10996 ] final  134.64 input  -57.11 | X-H torsion

> <Gold.Protein.ActiveResidues>
 VAL166  LYS551  ARG553  GLY616  TRP617  ASP618  TYR619  PRO620  LYS621  CYS622 
 ASP623  PHE694  ASN695  SER759  ASP760  ASP761  ALA762  ILE779  LEU786  VAL792 
 PHE793  MET794  SER795  GLU796  ALA797  LYS798  CYS799  TRP800  GLU811  SER814 

> <Gold.Protein.RotatedAtoms>
  152.5243  133.9582  159.7704 H   0  0  0  0  0  0  0  0  0  0  0  0  # atno 6907 bound_to 6896
  150.9878  133.6172  159.2720 H   0  0  0  0  0  0  0  0  0  0  0  0  # atno 6908 bound_to 6896
  151.3326  135.0851  159.9397 H   0  0  0  0  0  0  0  0  0  0  0  0  # atno 6909 bound_to 6896
  145.0411  139.3962  143.5101 H   0  0  0  0  0  0  0  0  0  0  0  0  # atno 7974 bound_to 7965
  155.6591  140.3497  155.4776 H   0  0  0  0  0  0  0  0  0  0  0  0  # atno 8008 bound_to 7997
  155.9784  140.1169  157.0772 H   0  0  0  0  0  0  0  0  0  0  0  0  # atno 8009 bound_to 7997
  154.4185  140.1143  156.5387 H   0  0  0  0  0  0  0  0  0  0  0  0  # atno 8010 bound_to 7997
  140.4696  143.2430  151.8225 H   0  0  0  0  0  0  0  0  0  0  0  0  # atno 10167 bound_to 10162
  156.3387  130.7625  151.1757 H   0  0  0  0  0  0  0  0  0  0  0  0  # atno 10718 bound_to 10713
  153.5552  135.7011  153.5573 H   0  0  0  0  0  0  0  0  0  0  0  0  # atno 10763 bound_to 10752
  153.3479  135.4003  155.1623 H   0  0  0  0  0  0  0  0  0  0  0  0  # atno 10764 bound_to 10752
  154.8656  135.3758  154.5065 H   0  0  0  0  0  0  0  0  0  0  0  0  # atno 10765 bound_to 10752
  139.9928  134.9508  156.9896 H   0  0  0  0  0  0  0  0  0  0  0  0  # atno 11005 bound_to 11000
  146.3509  140.0013  142.8676 LP  0  0  0  0  0  0  0  0  0  0  0  0  # atno 17320 bound_to 7965
  145.1646  140.9690  143.4357 LP  0  0  0  0  0  0  0  0  0  0  0  0  # atno 17321 bound_to 7965
  139.4816  144.4908  151.9187 LP  0  0  0  0  0  0  0  0  0  0  0  0  # atno 17342 bound_to 10162
  140.3993  144.2514  150.5894 LP  0  0  0  0  0  0  0  0  0  0  0  0  # atno 17343 bound_to 10162
  157.7443  131.0461  150.4875 LP  0  0  0  0  0  0  0  0  0  0  0  0  # atno 17370 bound_to 10713
  156.5052  130.4126  149.6331 LP  0  0  0  0  0  0  0  0  0  0  0  0  # atno 17371 bound_to 10713
  140.4875  134.1226  155.7227 LP  0  0  0  0  0  0  0  0  0  0  0  0  # atno 17394 bound_to 11000
  141.1580  133.8846  157.1925 LP  0  0  0  0  0  0  0  0  0  0  0  0  # atno 17395 bound_to 11000

$$$$
