AV-unprocessed.smi:1015|AV-procd|sdf|4435|dock2
  -GOLD-   22720 2393D 1   1.00000     0.00000
 Structure written by MMmdl.
 43 44  0  0  0  0  0  0  0  0  2 V2000
  144.0537  133.0934  149.2702 C   0  0  0  0  0  0  0  0  0  0  0  0
  145.3740  132.5898  149.1652 O   0  0  0  0  0  0  0  0  0  0  0  0
  146.1268  132.7856  150.3507 C   0  0  0  0  0  0  0  0  0  0  0  0
  145.9825  131.5424  151.2421 C   0  0  0  0  0  0  0  0  0  0  0  0
  147.1319  131.3680  152.1665 N   0  3  2  0  0  0  0  0  0  0  0  0
  147.0385  130.1064  152.9455 C   0  0  0  0  0  0  0  0  0  0  0  0
  148.2990  129.8784  153.8010 C   0  0  0  0  0  0  0  0  0  0  0  0
  148.5951  131.0675  154.7340 C   0  0  2  0  0  0  0  0  0  0  0  0
  147.6216  131.1206  155.9355 C   0  0  0  0  0  0  0  0  0  0  0  0
  147.6303  132.4274  156.5845 N   0  0  0  0  0  0  0  0  0  0  0  0
  148.3537  132.7537  157.6677 C   0  0  0  0  0  0  0  0  0  0  0  0
  149.1636  131.9952  158.1998 O   0  0  0  0  0  0  0  0  0  0  0  0
  148.0951  134.1357  158.2660 C   0  0  0  0  0  0  0  0  0  0  0  0
  147.5657  134.0129  159.6112 N   0  0  0  0  0  0  0  0  0  0  0  0
  148.0479  133.3936  160.6909 C   0  0  0  0  0  0  0  0  0  0  0  0
  147.2582  133.5562  161.7412 N   0  0  0  0  0  0  0  0  0  0  0  0
  146.2247  134.3306  161.2410 N   0  0  0  0  0  0  0  0  0  0  0  0
  146.4021  134.6059  159.9781 N   0  0  0  0  0  0  0  0  0  0  0  0
  148.6400  132.3571  153.8869 C   0  0  0  0  0  0  0  0  0  0  0  0
  147.3638  132.5421  153.0489 C   0  0  0  0  0  0  0  0  0  0  0  0
  143.5182  132.9148  148.3378 H   0  0  0  0  0  0  0  0  0  0  0  0
  144.0555  134.1681  149.4565 H   0  0  0  0  0  0  0  0  0  0  0  0
  143.5051  132.5995  150.0733 H   0  0  0  0  0  0  0  0  0  0  0  0
  147.1709  132.9933  150.1159 H   0  0  0  0  0  0  0  0  0  0  0  0
  145.7425  133.6572  150.8830 H   0  0  0  0  0  0  0  0  0  0  0  0
  145.0554  131.5883  151.8153 H   0  0  0  0  0  0  0  0  0  0  0  0
  145.8970  130.6710  150.5914 H   0  0  0  0  0  0  0  0  0  0  0  0
  146.1459  130.1278  153.5720 H   0  0  0  0  0  0  0  0  0  0  0  0
  146.9195  129.2642  152.2628 H   0  0  0  0  0  0  0  0  0  0  0  0
  148.1974  128.9593  154.3793 H   0  0  0  0  0  0  0  0  0  0  0  0
  149.1515  129.7235  153.1380 H   0  0  0  0  0  0  0  0  0  0  0  0
  149.5928  130.9156  155.1488 H   0  0  0  0  0  0  0  0  0  0  0  0
  146.6113  130.8399  155.6367 H   0  0  0  0  0  0  0  0  0  0  0  0
  147.9248  130.3854  156.6813 H   0  0  0  0  0  0  0  0  0  0  0  0
  146.9985  133.1215  156.2119 H   0  0  0  0  0  0  0  0  0  0  0  0
  149.0192  134.7153  158.2939 H   0  0  0  0  0  0  0  0  0  0  0  0
  147.3831  134.6879  157.6513 H   0  0  0  0  0  0  0  0  0  0  0  0
  148.9743  132.8382  160.7100 H   0  0  0  0  0  0  0  0  0  0  0  0
  148.8117  133.2346  154.5101 H   0  0  0  0  0  0  0  0  0  0  0  0
  149.4964  132.3085  153.2130 H   0  0  0  0  0  0  0  0  0  0  0  0
  147.4682  133.4486  152.4544 H   0  0  0  0  0  0  0  0  0  0  0  0
  146.4991  132.6931  153.6963 H   0  0  0  0  0  0  0  0  0  0  0  0
  147.9506  131.2745  151.5819 H   0  0  0  0  0  0  0  0  0  0  0  0
  1  2  1  0  0  0  0
  1 21  1  0  0  0  0
  1 22  1  0  0  0  0
  1 23  1  0  0  0  0
  2  3  1  0  0  0  0
  3  4  1  0  0  0  0
  3 24  1  0  0  0  0
  3 25  1  0  0  0  0
  4  5  1  0  0  0  0
  4 26  1  0  0  0  0
  4 27  1  0  0  0  0
  5 20  1  0  0  0  0
  5  6  1  0  0  0  0
  5 43  1  0  0  0  0
  6  7  1  0  0  0  0
  6 28  1  0  0  0  0
  6 29  1  0  0  0  0
  7  8  1  0  0  0  0
  7 30  1  0  0  0  0
  7 31  1  0  0  0  0
  8  9  1  0  0  0  0
  8 19  1  0  0  0  0
  8 32  1  0  0  0  0
  9 10  1  0  0  0  0
  9 33  1  0  0  0  0
  9 34  1  0  0  0  0
 10 11  1  0  0  0  0
 10 35  1  0  0  0  0
 11 12  2  0  0  0  0
 11 13  1  0  0  0  0
 13 14  1  0  0  0  0
 13 36  1  0  0  0  0
 13 37  1  0  0  0  0
 14 18  1  0  0  0  0
 14 15  1  0  0  0  0
 15 16  2  0  0  0  0
 15 38  1  0  0  0  0
 16 17  1  0  0  0  0
 17 18  2  0  0  0  0
 19 20  1  0  0  0  0
 19 39  1  0  0  0  0
 19 40  1  0  0  0  0
 20 41  1  0  0  0  0
 20 42  1  0  0  0  0
M  CHG  1   5   1
M  END
> <s_m_source_file>
AV-unprocessed.smi

> <i_m_source_file_index>
1015

> <i_lp_mmshare_version>
43012

> <i_f3d_flags>
0

> <s_epik_input>
W0NIM11PW0NIMl1bQ0gyXU4xW0NIMl1bQ0gyXVtDSF0oW0NIMl1bQ0gyXTEpW0NIMl1bTkhdQyg9TylbQ0gyXW4yW2NIXW5ubjI=

> <s_epik_cmdline>
J2VwaWtfcHl0aG9uJywgJy1waCcsICc3LjAnLCAnLXRuJywgJzgnLCAnLW1hJywgJzIwMCcsICctbWV0YWxfYmluZGluZycsICctaW1hZScsICc8aW5maWxlLm1hZT4nLCAnLW9tYWUnLCAnPG91dGZpbGUubWFlPic=

> <r_lp_tautomer_probability>
1

> <r_epik_Ionization_Penalty>
0.0104119

> <r_epik_Ionization_Penalty_Charging>
0.0104107

> <r_epik_Ionization_Penalty_Neutral>
1.19574e-06

> <r_epik_State_Penalty>
0.00795975

> <r_epik_Charging_Adjusted_Penalty>
0.0183705

> <i_epik_Tot_Q>
1

> <i_epik_Tot_abs_Q>
1

> <r_epik_Metal_State_Penalty>
0.00795975

> <b_epik_Metal_Only>
0

> <s_lp_Force_Field>
OPLS_2005

> <r_lp_Energy>
22.9597

> <b_lp_Chiralities_Consistent>
1

> <s_lp_Variant>
AV-unprocessed.smi:1015-2

> <Gold.Version>
5.8.1

> <Gold.Id.Protein>
6NUR|6NUR_protein|mol2

> <Gold.PLP.Fitness>
40.3511

> <Gold.PLP.PLP>
-29.7542

> <Gold.PLP.part.hbond>
-4.2287

> <Gold.PLP.part.metal>
0.0000

> <Gold.PLP.part.buried>
-4.0277

> <Gold.PLP.part.nonpolar>
-21.7242

> <Gold.PLP.part.repulsive>
0.1700

> <Gold.PLP.ligand.clash>
0.0000

> <Gold.PLP.ligand.torsion>
0.7314

> <Gold.PLP.Chemscore.Hbond>
4.0000

> <Gold.PLP.Chemscore.CHOScore>
0.0000

> <Gold.PLP.Chemscore.Metal>
0.0000

> <Gold.Chemscore.Hbonds>
donor molecule, donor type, donor heavy atom, donor atom, acceptor molecule, acceptor atom, score
      L1  H     5    43       P1 10747  1.00

> <Gold.PLP.Chemscore.Internal.Correction>
0.0597

> <Gold.Rescore>
     Score         DG    S(hbond)    S(metal)    S(lipo)     H(rot)  DE(clash)    DE(int)     intcor
     12.88     -13.59       2.79        0.00      59.47       3.19       0.02       0.69       ----

> <Gold.Chemscore.Fitness>
12.8750

> <Gold.Chemscore.DG>
-13.5894

> <Gold.Chemscore.ZeroCoef>
-5.4800

> <Gold.Chemscore.Hbond>
2.7920

> <Gold.Chemscore.Metal>
0.0000

> <Gold.Chemscore.Lipo>
59.4681

> <Gold.Chemscore.Internal_Hbond>
0.0000

> <Gold.Chemscore.DEClash>
0.0234

> <Gold.Chemscore.DEInternal>
0.6910

> <Gold.Chemscore.Rot>
3.1928

> <Gold.Chemscore.Internal.Correction>
   9.000000E+99

> <Gold.Chemscore.Hbonds>
donor molecule, donor type, donor heavy atom, donor atom, acceptor molecule, acceptor atom, score
      L1  H     5    43       P1 10747  1.00

> <Gold.Chemscore.Hbond.Weighted>
-9.3254

> <Gold.Chemscore.Metal.Weighted>
-0.0000

> <Gold.Chemscore.Lipo.Weighted>
-6.9578

> <Gold.Chemscore.Internal_Hbond.Weighted>
0.0000

> <Gold.Chemscore.DEClash.Weighted>
0.0234

> <Gold.Chemscore.DEInternal.Weighted>
0.6910

> <Gold.Chemscore.Rot.Weighted>
8.1737

> <Gold.Chemscore.Internal.Correction.Weighted>
   9.000000E+99

> <Gold.Protein.RotatedTorsions>
[ 6907 6896 6895 6894 ] final -109.39 input  -60.11 | X-H torsion
[ 7974 7965 7964 7962 ] final   71.47 input  175.53 | X-H torsion
[ 8008 7997 7996 7995 ] final  101.80 input   59.86 | X-H torsion
[ 10167 10162 10161 10158 ] final   59.04 input  -65.29 | X-H torsion
[ 10718 10713 10712 10709 ] final -139.44 input   66.30 | X-H torsion
[ 10763 10752 10751 10750 ] final  -30.75 input  -60.55 | X-H torsion
[ 11005 11000 10999 10996 ] final  115.93 input  -57.11 | X-H torsion

> <Gold.Protein.ActiveResidues>
 VAL166  LYS551  ARG553  GLY616  TRP617  ASP618  TYR619  PRO620  LYS621  CYS622 
 ASP623  PHE694  ASN695  SER759  ASP760  ASP761  ALA762  ILE779  LEU786  VAL792 
 PHE793  MET794  SER795  GLU796  ALA797  LYS798  CYS799  TRP800  GLU811  SER814 

> <Gold.Protein.RotatedAtoms>
  150.7559  133.9536  159.3493 H   0  0  0  0  0  0  0  0  0  0  0  0  # atno 6907 bound_to 6896
  151.7455  135.0842  160.0332 H   0  0  0  0  0  0  0  0  0  0  0  0  # atno 6908 bound_to 6896
  152.3500  133.6131  159.5974 H   0  0  0  0  0  0  0  0  0  0  0  0  # atno 6909 bound_to 6896
  145.7654  139.2819  143.1352 H   0  0  0  0  0  0  0  0  0  0  0  0  # atno 7974 bound_to 7965
  156.1333  140.3191  155.8382 H   0  0  0  0  0  0  0  0  0  0  0  0  # atno 8008 bound_to 7997
  155.4291  140.0517  157.3037 H   0  0  0  0  0  0  0  0  0  0  0  0  # atno 8009 bound_to 7997
  154.4917  140.2094  155.9547 H   0  0  0  0  0  0  0  0  0  0  0  0  # atno 8010 bound_to 7997
  140.1807  144.4184  150.6616 H   0  0  0  0  0  0  0  0  0  0  0  0  # atno 10167 bound_to 10162
  156.3108  130.7480  151.1555 H   0  0  0  0  0  0  0  0  0  0  0  0  # atno 10718 bound_to 10713
  153.7861  135.6901  153.4880 H   0  0  0  0  0  0  0  0  0  0  0  0  # atno 10763 bound_to 10752
  153.1780  135.4517  154.9989 H   0  0  0  0  0  0  0  0  0  0  0  0  # atno 10764 bound_to 10752
  154.8063  135.3358  154.7360 H   0  0  0  0  0  0  0  0  0  0  0  0  # atno 10765 bound_to 10752
  139.9025  134.9591  156.7120 H   0  0  0  0  0  0  0  0  0  0  0  0  # atno 11005 bound_to 11000
  146.0223  140.8337  142.9917 LP  0  0  0  0  0  0  0  0  0  0  0  0  # atno 17320 bound_to 7965
  144.6822  140.2646  143.7314 LP  0  0  0  0  0  0  0  0  0  0  0  0  # atno 17321 bound_to 7965
  140.6521  143.2228  151.6053 LP  0  0  0  0  0  0  0  0  0  0  0  0  # atno 17342 bound_to 10162
  139.5297  144.2952  152.1119 LP  0  0  0  0  0  0  0  0  0  0  0  0  # atno 17343 bound_to 10162
  157.7390  131.0534  150.5257 LP  0  0  0  0  0  0  0  0  0  0  0  0  # atno 17370 bound_to 10713
  156.5397  130.4205  149.6160 LP  0  0  0  0  0  0  0  0  0  0  0  0  # atno 17371 bound_to 10713
  140.7068  133.9258  155.8059 LP  0  0  0  0  0  0  0  0  0  0  0  0  # atno 17394 bound_to 11000
  141.0330  134.0729  157.3992 LP  0  0  0  0  0  0  0  0  0  0  0  0  # atno 17395 bound_to 11000

$$$$
