AV-unprocessed.smi:682|AV-procd|sdf|3329|dock1
  -GOLD-   22720 0293D 1   1.00000     0.00000
 Structure written by MMmdl.
 41 42  0  0  0  0  0  0  0  0  1 V2000
  147.9833  140.7267  156.6196 C   0  0  0  0  0  0  0  0  0  0  0  0
  147.2887  139.4962  156.4630 O   0  0  0  0  0  0  0  0  0  0  0  0
  146.3061  139.4506  155.4270 C   0  0  2  0  0  0  0  0  0  0  0  0
  145.2543  140.5482  155.6507 C   0  0  0  0  0  0  0  0  0  0  0  0
  145.8066  138.0186  155.1623 C   0  0  0  0  0  0  0  0  0  0  0  0
  145.9227  138.3473  153.6756 C   0  0  2  0  0  0  0  0  0  0  0  0
  146.3735  137.2086  152.8827 N   0  0  0  0  0  0  0  0  0  0  0  0
  145.5556  136.3265  152.2932 C   0  0  0  0  0  0  0  0  0  0  0  0
  144.3282  136.3832  152.3673 O   0  0  0  0  0  0  0  0  0  0  0  0
  146.2477  135.3932  151.6205 N   0  0  0  0  0  0  0  0  0  0  0  0
  145.7226  134.3127  150.8689 C   0  0  0  0  0  0  0  0  0  0  0  0
  146.3381  133.0798  150.5104 C   0  0  0  0  0  0  0  0  0  0  0  0
  145.5127  132.3262  149.7992 N   0  0  0  0  0  0  0  0  0  0  0  0
  144.3741  133.0533  149.6934 N   0  0  0  0  0  0  0  0  0  0  0  0
  143.2497  132.5062  148.9646 C   0  0  0  0  0  0  0  0  0  0  0  0
  144.4691  134.2712  150.3365 C   0  0  0  0  0  0  0  0  0  0  0  0
  147.0303  139.3681  154.0438 C   0  0  0  0  0  0  0  0  0  0  0  0
  147.0642  140.6497  153.2049 C   0  0  0  0  0  0  0  0  0  0  0  0
  148.4800  138.8422  154.0663 C   0  0  0  0  0  0  0  0  0  0  0  0
  148.6241  140.6646  157.4990 H   0  0  0  0  0  0  0  0  0  0  0  0
  147.3019  141.5645  156.7677 H   0  0  0  0  0  0  0  0  0  0  0  0
  148.6255  140.9425  155.7661 H   0  0  0  0  0  0  0  0  0  0  0  0
  144.5735  140.6367  154.8047 H   0  0  0  0  0  0  0  0  0  0  0  0
  145.7224  141.5220  155.7957 H   0  0  0  0  0  0  0  0  0  0  0  0
  144.6333  140.3447  156.5225 H   0  0  0  0  0  0  0  0  0  0  0  0
  146.4994  137.2436  155.4960 H   0  0  0  0  0  0  0  0  0  0  0  0
  144.7902  137.8183  155.5024 H   0  0  0  0  0  0  0  0  0  0  0  0
  145.0147  138.8198  153.2934 H   0  0  0  0  0  0  0  0  0  0  0  0
  147.3699  137.0907  152.7729 H   0  0  0  0  0  0  0  0  0  0  0  0
  147.2543  135.4650  151.6464 H   0  0  0  0  0  0  0  0  0  0  0  0
  147.3269  132.7067  150.7315 H   0  0  0  0  0  0  0  0  0  0  0  0
  142.4483  133.2431  148.9038 H   0  0  0  0  0  0  0  0  0  0  0  0
  142.8770  131.6181  149.4758 H   0  0  0  0  0  0  0  0  0  0  0  0
  143.5588  132.2358  147.9544 H   0  0  0  0  0  0  0  0  0  0  0  0
  143.6565  134.9825  150.3582 H   0  0  0  0  0  0  0  0  0  0  0  0
  147.5207  140.4785  152.2295 H   0  0  0  0  0  0  0  0  0  0  0  0
  147.6333  141.4357  153.7019 H   0  0  0  0  0  0  0  0  0  0  0  0
  146.0651  141.0414  153.0154 H   0  0  0  0  0  0  0  0  0  0  0  0
  148.8487  138.6337  153.0614 H   0  0  0  0  0  0  0  0  0  0  0  0
  148.5774  137.9196  154.6387 H   0  0  0  0  0  0  0  0  0  0  0  0
  149.1597  139.5680  154.5140 H   0  0  0  0  0  0  0  0  0  0  0  0
  1  2  1  0  0  0  0
  1 20  1  0  0  0  0
  1 21  1  0  0  0  0
  1 22  1  0  0  0  0
  2  3  1  0  0  0  0
  3 17  1  0  0  0  0
  3  4  1  0  0  0  0
  3  5  1  0  0  0  0
  4 23  1  0  0  0  0
  4 24  1  0  0  0  0
  4 25  1  0  0  0  0
  5  6  1  0  0  0  0
  5 26  1  0  0  0  0
  5 27  1  0  0  0  0
  6  7  1  0  0  0  0
  6 17  1  0  0  0  0
  6 28  1  0  0  0  0
  7  8  1  0  0  0  0
  7 29  1  0  0  0  0
  8  9  2  0  0  0  0
  8 10  1  0  0  0  0
 10 11  1  0  0  0  0
 10 30  1  0  0  0  0
 11 16  2  0  0  0  0
 11 12  1  0  0  0  0
 12 13  2  0  0  0  0
 12 31  1  0  0  0  0
 13 14  1  0  0  0  0
 14 15  1  0  0  0  0
 14 16  1  0  0  0  0
 15 32  1  0  0  0  0
 15 33  1  0  0  0  0
 15 34  1  0  0  0  0
 16 35  1  0  0  0  0
 17 18  1  0  0  0  0
 17 19  1  0  0  0  0
 18 36  1  0  0  0  0
 18 37  1  0  0  0  0
 18 38  1  0  0  0  0
 19 39  1  0  0  0  0
 19 40  1  0  0  0  0
 19 41  1  0  0  0  0
M  END
> <s_m_source_file>
AV-unprocessed.smi

> <i_m_source_file_index>
682

> <i_lp_mmshare_version>
43012

> <i_f3d_flags>
0

> <s_epik_input>
W0NIM11PW0NAQF0xKFtDSDNdKVtDSDJdW0NASF0oQzEoW0NIM10pW0NIM10pW05IXUMoPU8pW05IXWMyW2NIXW5uKFtDSDNdKVtjSF0y

> <s_epik_cmdline>
J2VwaWtfcHl0aG9uJywgJy1waCcsICc3LjAnLCAnLXRuJywgJzgnLCAnLW1hJywgJzIwMCcsICctbWV0YWxfYmluZGluZycsICctaW1hZScsICc8aW5maWxlLm1hZT4nLCAnLW9tYWUnLCAnPG91dGZpbGUubWFlPic=

> <r_lp_tautomer_probability>
1

> <r_epik_Ionization_Penalty>
0.000192302

> <r_epik_Ionization_Penalty_Charging>
0

> <r_epik_Ionization_Penalty_Neutral>
0.000192302

> <r_epik_State_Penalty>
-0

> <r_epik_Charging_Adjusted_Penalty>
0

> <i_epik_Tot_Q>
0

> <i_epik_Tot_abs_Q>
0

> <r_epik_Metal_State_Penalty>
-0

> <b_epik_Metal_Only>
0

> <s_lp_Force_Field>
OPLS_2005

> <r_lp_Energy>
23.9348

> <b_lp_Chiralities_Consistent>
1

> <s_lp_Variant>
AV-unprocessed.smi:682-4

> <Gold.Version>
5.8.1

> <Gold.Id.Protein>
6NUR|6NUR_protein|mol2

> <Gold.PLP.Fitness>
33.6101

> <Gold.PLP.PLP>
-24.3644

> <Gold.PLP.part.hbond>
-2.0000

> <Gold.PLP.part.metal>
0.0000

> <Gold.PLP.part.buried>
-0.8975

> <Gold.PLP.part.nonpolar>
-22.3298

> <Gold.PLP.part.repulsive>
0.4122

> <Gold.PLP.ligand.clash>
0.0000

> <Gold.PLP.ligand.torsion>
0.4308

> <Gold.PLP.Chemscore.Hbond>
2.0000

> <Gold.PLP.Chemscore.CHOScore>
1.2453

> <Gold.PLP.Chemscore.Metal>
0.0000

> <Gold.Chemscore.Hbonds>
donor molecule, donor type, donor heavy atom, donor atom, acceptor molecule, acceptor atom, score
      L1  H     7    29       P1  7948  1.00
      L1  H    10    30       P1  7948  1.00
      L1  C    12    31       P1 10747  1.00
      L1  C    16    35       P1 10186  0.27

> <Gold.PLP.Chemscore.Internal.Correction>
0.3713

> <Gold.Rescore>
     Score         DG    S(hbond)    S(metal)    S(lipo)     H(rot)  DE(clash)    DE(int)     intcor
     14.42     -16.27       1.91        0.00      64.80       1.23       0.23       1.62       ----

> <Gold.Chemscore.Fitness>
14.4246

> <Gold.Chemscore.DG>
-16.2724

> <Gold.Chemscore.ZeroCoef>
-5.4800

> <Gold.Chemscore.Hbond>
1.9070

> <Gold.Chemscore.Metal>
0.0000

> <Gold.Chemscore.Lipo>
64.7956

> <Gold.Chemscore.Internal_Hbond>
0.0000

> <Gold.Chemscore.DEClash>
0.2281

> <Gold.Chemscore.DEInternal>
1.6197

> <Gold.Chemscore.Rot>
1.2336

> <Gold.Chemscore.Internal.Correction>
   9.000000E+99

> <Gold.Chemscore.Hbonds>
donor molecule, donor type, donor heavy atom, donor atom, acceptor molecule, acceptor atom, score
      L1  H     7    29       P1  7948  0.90
      L1  H    10    30       P1  7948  0.98

> <Gold.Chemscore.Hbond.Weighted>
-6.3694

> <Gold.Chemscore.Metal.Weighted>
-0.0000

> <Gold.Chemscore.Lipo.Weighted>
-7.5811

> <Gold.Chemscore.Internal_Hbond.Weighted>
0.0000

> <Gold.Chemscore.DEClash.Weighted>
0.2281

> <Gold.Chemscore.DEInternal.Weighted>
1.6197

> <Gold.Chemscore.Rot.Weighted>
3.1581

> <Gold.Chemscore.Internal.Correction.Weighted>
   9.000000E+99

> <Gold.Protein.RotatedTorsions>
[ 6907 6896 6895 6894 ] final   96.97 input  -60.11 | X-H torsion
[ 7974 7965 7964 7962 ] final -134.95 input  175.53 | X-H torsion
[ 8008 7997 7996 7995 ] final  -31.95 input   59.86 | X-H torsion
[ 10167 10162 10161 10158 ] final  -93.02 input  -65.29 | X-H torsion
[ 10718 10713 10712 10709 ] final   33.35 input   66.30 | X-H torsion
[ 10763 10752 10751 10750 ] final  -11.50 input  -60.55 | X-H torsion
[ 11005 11000 10999 10996 ] final   34.36 input  -57.11 | X-H torsion

> <Gold.Protein.ActiveResidues>
 VAL166  LYS551  ARG553  GLY616  TRP617  ASP618  TYR619  PRO620  LYS621  CYS622 
 ASP623  PHE694  ASN695  SER759  ASP760  ASP761  ALA762  ILE779  LEU786  VAL792 
 PHE793  MET794  SER795  GLU796  ALA797  LYS798  CYS799  TRP800  GLU811  SER814 

> <Gold.Protein.RotatedAtoms>
  152.5429  134.0805  159.8232 H   0  0  0  0  0  0  0  0  0  0  0  0  # atno 6907 bound_to 6896
  151.0907  133.5311  159.2622 H   0  0  0  0  0  0  0  0  0  0  0  0  # atno 6908 bound_to 6896
  151.2103  135.0487  159.8962 H   0  0  0  0  0  0  0  0  0  0  0  0  # atno 6909 bound_to 6896
  144.9057  140.6829  143.5057 H   0  0  0  0  0  0  0  0  0  0  0  0  # atno 7974 bound_to 7965
  154.4196  140.1750  156.1649 H   0  0  0  0  0  0  0  0  0  0  0  0  # atno 8008 bound_to 7997
  155.9808  140.3377  155.6637 H   0  0  0  0  0  0  0  0  0  0  0  0  # atno 8009 bound_to 7997
  155.6503  140.0689  157.2580 H   0  0  0  0  0  0  0  0  0  0  0  0  # atno 8010 bound_to 7997
  140.3289  143.3006  151.9964 H   0  0  0  0  0  0  0  0  0  0  0  0  # atno 10167 bound_to 10162
  157.2968  130.7330  149.6643 H   0  0  0  0  0  0  0  0  0  0  0  0  # atno 10718 bound_to 10713
  153.4847  135.7017  153.5918 H   0  0  0  0  0  0  0  0  0  0  0  0  # atno 10763 bound_to 10752
  153.4116  135.3847  155.2054 H   0  0  0  0  0  0  0  0  0  0  0  0  # atno 10764 bound_to 10752
  154.8720  135.3906  154.4300 H   0  0  0  0  0  0  0  0  0  0  0  0  # atno 10765 bound_to 10752
  140.2536  134.3274  155.7881 H   0  0  0  0  0  0  0  0  0  0  0  0  # atno 11005 bound_to 11000
  145.3540  139.1699  143.4419 LP  0  0  0  0  0  0  0  0  0  0  0  0  # atno 17320 bound_to 7965
  146.3132  140.3595  142.8663 LP  0  0  0  0  0  0  0  0  0  0  0  0  # atno 17321 bound_to 7965
  139.4860  144.6251  151.7180 LP  0  0  0  0  0  0  0  0  0  0  0  0  # atno 17342 bound_to 10162
  140.5415  144.0571  150.6090 LP  0  0  0  0  0  0  0  0  0  0  0  0  # atno 17343 bound_to 10162
  155.9669  130.4292  150.4822 LP  0  0  0  0  0  0  0  0  0  0  0  0  # atno 17370 bound_to 10713
  157.2795  131.0604  151.2207 LP  0  0  0  0  0  0  0  0  0  0  0  0  # atno 17371 bound_to 10713
  141.2198  133.7368  156.9076 LP  0  0  0  0  0  0  0  0  0  0  0  0  # atno 17394 bound_to 11000
  140.1533  134.9215  157.2621 LP  0  0  0  0  0  0  0  0  0  0  0  0  # atno 17395 bound_to 11000

$$$$
