AV-unprocessed.smi:2980|AV-procd|sdf|11372|dock7
  -GOLD-   2272016293D 1   1.00000     0.00000
 Structure written by MMmdl.
 38 39  0  0  0  0  0  0  0  0  1 V2000
  146.7756  142.0834  154.3581 C   0  0  0  0  0  0  0  0  0  0  0  0
  147.7662  141.0990  153.7328 C   0  0  0  0  0  0  0  0  0  0  0  0
  149.0849  141.5078  154.0543 O   0  0  0  0  0  0  0  0  0  0  0  0
  149.4321  141.2247  155.3987 C   0  0  0  0  0  0  0  0  0  0  0  0
  150.8500  141.7424  155.6624 C   0  0  0  0  0  0  0  0  0  0  0  0
  151.3086  141.4101  157.0030 N   0  0  0  0  0  0  0  0  0  0  0  0
  151.4326  140.1898  157.5902 C   0  0  0  0  0  0  0  0  0  0  0  0
  151.0971  138.8982  156.8960 C   0  0  0  0  0  0  0  0  0  0  0  0
  151.8898  138.6691  155.5959 C   0  0  0  0  0  0  0  0  0  0  0  0
  151.1954  137.7271  154.6014 C   0  0  0  0  0  0  0  0  0  0  0  0
  152.1628  136.9949  153.8815 O   0  0  0  0  0  0  0  0  0  0  0  0
  151.8391  140.2028  158.8609 N   0  0  0  0  0  0  0  0  0  0  0  0
  152.0379  141.5459  159.1085 C   0  0  0  0  0  0  0  0  0  0  0  0
  152.4872  142.2087  160.2731 C   0  0  0  0  0  0  0  0  0  0  0  0
  152.6165  143.6130  160.2901 C   0  0  0  0  0  0  0  0  0  0  0  0
  152.2972  144.3725  159.1460 C   0  0  0  0  0  0  0  0  0  0  0  0
  151.8447  143.7316  157.9766 C   0  0  0  0  0  0  0  0  0  0  0  0
  151.7187  142.3292  157.9644 C   0  0  0  0  0  0  0  0  0  0  0  0
  145.7480  141.7983  154.1323 H   0  0  0  0  0  0  0  0  0  0  0  0
  146.9342  143.0927  153.9773 H   0  0  0  0  0  0  0  0  0  0  0  0
  146.8845  142.1129  155.4425 H   0  0  0  0  0  0  0  0  0  0  0  0
  147.5817  140.0930  154.1125 H   0  0  0  0  0  0  0  0  0  0  0  0
  147.6324  141.0747  152.6503 H   0  0  0  0  0  0  0  0  0  0  0  0
  148.7230  141.7026  156.0736 H   0  0  0  0  0  0  0  0  0  0  0  0
  149.3861  140.1492  155.5771 H   0  0  0  0  0  0  0  0  0  0  0  0
  151.5398  141.2993  154.9436 H   0  0  0  0  0  0  0  0  0  0  0  0
  150.9135  142.8186  155.5052 H   0  0  0  0  0  0  0  0  0  0  0  0
  151.2990  138.0823  157.5907 H   0  0  0  0  0  0  0  0  0  0  0  0
  150.0345  138.8422  156.6691 H   0  0  0  0  0  0  0  0  0  0  0  0
  152.0833  139.6295  155.1158 H   0  0  0  0  0  0  0  0  0  0  0  0
  152.8675  138.2579  155.8503 H   0  0  0  0  0  0  0  0  0  0  0  0
  150.5474  137.0257  155.1263 H   0  0  0  0  0  0  0  0  0  0  0  0
  150.5791  138.2846  153.8956 H   0  0  0  0  0  0  0  0  0  0  0  0
  151.7697  136.6832  153.0807 H   0  0  0  0  0  0  0  0  0  0  0  0
  152.7342  141.6348  161.1540 H   0  0  0  0  0  0  0  0  0  0  0  0
  152.9624  144.1095  161.1847 H   0  0  0  0  0  0  0  0  0  0  0  0
  152.3992  145.4477  159.1670 H   0  0  0  0  0  0  0  0  0  0  0  0
  151.5994  144.3119  157.0997 H   0  0  0  0  0  0  0  0  0  0  0  0
  1  2  1  0  0  0  0
  1 19  1  0  0  0  0
  1 20  1  0  0  0  0
  1 21  1  0  0  0  0
  2  3  1  0  0  0  0
  2 22  1  0  0  0  0
  2 23  1  0  0  0  0
  3  4  1  0  0  0  0
  4  5  1  0  0  0  0
  4 24  1  0  0  0  0
  4 25  1  0  0  0  0
  5  6  1  0  0  0  0
  5 26  1  0  0  0  0
  5 27  1  0  0  0  0
  6 18  1  0  0  0  0
  6  7  1  0  0  0  0
  7  8  1  0  0  0  0
  7 12  2  0  0  0  0
  8  9  1  0  0  0  0
  8 28  1  0  0  0  0
  8 29  1  0  0  0  0
  9 10  1  0  0  0  0
  9 30  1  0  0  0  0
  9 31  1  0  0  0  0
 10 11  1  0  0  0  0
 10 32  1  0  0  0  0
 10 33  1  0  0  0  0
 11 34  1  0  0  0  0
 12 13  1  0  0  0  0
 13 18  2  0  0  0  0
 13 14  1  0  0  0  0
 14 15  2  0  0  0  0
 14 35  1  0  0  0  0
 15 16  1  0  0  0  0
 15 36  1  0  0  0  0
 16 17  2  0  0  0  0
 16 37  1  0  0  0  0
 17 18  1  0  0  0  0
 17 38  1  0  0  0  0
M  END
> <s_m_source_file>
AV-unprocessed.smi

> <i_m_source_file_index>
2980

> <i_lp_mmshare_version>
43012

> <i_f3d_flags>
0

> <s_epik_input>
W0NIM11bQ0gyXU9bQ0gyXVtDSDJdbihjKG4xKVtDSDJdW0NIMl1bQ0gyXVtPSF0pYyhjMTIpW2NIXVtjSF1bY0hdW2NIXTI=

> <s_epik_cmdline>
J2VwaWtfcHl0aG9uJywgJy1waCcsICc3LjAnLCAnLXRuJywgJzgnLCAnLW1hJywgJzIwMCcsICctbWV0YWxfYmluZGluZycsICctaW1hZScsICc8aW5maWxlLm1hZT4nLCAnLW9tYWUnLCAnPG91dGZpbGUubWFlPic=

> <r_epik_Ionization_Penalty>
0.173195

> <r_epik_Ionization_Penalty_Charging>
0

> <r_epik_Ionization_Penalty_Neutral>
0.173195

> <r_epik_State_Penalty>
0.162604

> <r_epik_Charging_Adjusted_Penalty>
0.162604

> <i_epik_Tot_Q>
0

> <i_epik_Tot_abs_Q>
0

> <r_epik_Metal_State_Penalty>
0.000187077

> <b_epik_Metal_Only>
0

> <s_lp_Force_Field>
OPLS_2005

> <r_lp_Energy>
8.24734

> <b_lp_Chiralities_Consistent>
1

> <s_lp_Variant>
AV-unprocessed.smi:2980-1

> <Gold.Version>
5.8.1

> <Gold.Id.Protein>
6NUR|6NUR_protein|mol2

> <Gold.PLP.Fitness>
50.5635

> <Gold.PLP.PLP>
-43.6212

> <Gold.PLP.part.hbond>
-3.4046

> <Gold.PLP.part.metal>
0.0000

> <Gold.PLP.part.buried>
-6.3380

> <Gold.PLP.part.nonpolar>
-34.1926

> <Gold.PLP.part.repulsive>
0.1938

> <Gold.PLP.ligand.clash>
0.0000

> <Gold.PLP.ligand.torsion>
0.4186

> <Gold.PLP.Chemscore.Hbond>
2.5760

> <Gold.PLP.Chemscore.CHOScore>
0.0000

> <Gold.PLP.Chemscore.Metal>
0.0000

> <Gold.Chemscore.Hbonds>
donor molecule, donor type, donor heavy atom, donor atom, acceptor molecule, acceptor atom, score
      L1  H    11    34       P1  7949  1.00
      P1  H  8011  8017       L1     3  0.61
      P1  H 10752 10763       L1    11  0.83

> <Gold.PLP.Chemscore.Internal.Correction>
0.0515

> <Gold.Rescore>
     Score         DG    S(hbond)    S(metal)    S(lipo)     H(rot)  DE(clash)    DE(int)     intcor
     18.35     -19.03       2.11        0.00     109.98       2.48       0.25       0.42       ----

> <Gold.Chemscore.Fitness>
18.3515

> <Gold.Chemscore.DG>
-19.0274

> <Gold.Chemscore.ZeroCoef>
-5.4800

> <Gold.Chemscore.Hbond>
2.1056

> <Gold.Chemscore.Metal>
0.0000

> <Gold.Chemscore.Lipo>
109.9820

> <Gold.Chemscore.Internal_Hbond>
0.0000

> <Gold.Chemscore.DEClash>
0.2543

> <Gold.Chemscore.DEInternal>
0.4215

> <Gold.Chemscore.Rot>
2.4817

> <Gold.Chemscore.Internal.Correction>
   9.000000E+99

> <Gold.Chemscore.Hbonds>
donor molecule, donor type, donor heavy atom, donor atom, acceptor molecule, acceptor atom, score
      L1  H    11    34       P1  7949  0.99
      P1  H  8011  8017       L1     3  0.29
      P1  H 10752 10763       L1    11  0.13

> <Gold.Chemscore.Hbond.Weighted>
-7.0326

> <Gold.Chemscore.Metal.Weighted>
-0.0000

> <Gold.Chemscore.Lipo.Weighted>
-12.8679

> <Gold.Chemscore.Internal_Hbond.Weighted>
0.0000

> <Gold.Chemscore.DEClash.Weighted>
0.2543

> <Gold.Chemscore.DEInternal.Weighted>
0.4215

> <Gold.Chemscore.Rot.Weighted>
6.3531

> <Gold.Chemscore.Internal.Correction.Weighted>
   9.000000E+99

> <Gold.Protein.RotatedTorsions>
[ 6907 6896 6895 6894 ] final -101.36 input  -60.11 | X-H torsion
[ 7974 7965 7964 7962 ] final  147.62 input  175.53 | X-H torsion
[ 8008 7997 7996 7995 ] final   77.70 input   59.86 | X-H torsion
[ 10167 10162 10161 10158 ] final  -81.58 input  -65.29 | X-H torsion
[ 10718 10713 10712 10709 ] final   78.57 input   66.30 | X-H torsion
[ 10763 10752 10751 10750 ] final   38.23 input  -60.55 | X-H torsion
[ 11005 11000 10999 10996 ] final   76.03 input  -57.11 | X-H torsion

> <Gold.Protein.ActiveResidues>
 VAL166  LYS551  ARG553  GLY616  TRP617  ASP618  TYR619  PRO620  LYS621  CYS622 
 ASP623  PHE694  ASN695  SER759  ASP760  ASP761  ALA762  ILE779  LEU786  VAL792 
 PHE793  MET794  SER795  GLU796  ALA797  LYS798  CYS799  TRP800  GLU811  SER814 

> <Gold.Protein.RotatedAtoms>
  150.7151  134.0747  159.3876 H   0  0  0  0  0  0  0  0  0  0  0  0  # atno 6907 bound_to 6896
  151.8729  135.0480  160.0490 H   0  0  0  0  0  0  0  0  0  0  0  0  # atno 6908 bound_to 6896
  152.2628  133.5277  159.5429 H   0  0  0  0  0  0  0  0  0  0  0  0  # atno 6909 bound_to 6896
  144.8577  139.6051  143.5944 H   0  0  0  0  0  0  0  0  0  0  0  0  # atno 7974 bound_to 7965
  155.8454  140.3460  155.5658 H   0  0  0  0  0  0  0  0  0  0  0  0  # atno 8008 bound_to 7997
  155.8096  140.0897  157.1931 H   0  0  0  0  0  0  0  0  0  0  0  0  # atno 8009 bound_to 7997
  154.4006  140.1450  156.3358 H   0  0  0  0  0  0  0  0  0  0  0  0  # atno 8010 bound_to 7997
  140.4399  143.2518  151.8640 H   0  0  0  0  0  0  0  0  0  0  0  0  # atno 10167 bound_to 10162
  157.6749  130.9874  150.1806 H   0  0  0  0  0  0  0  0  0  0  0  0  # atno 10718 bound_to 10713
  153.0008  135.6255  154.2271 H   0  0  0  0  0  0  0  0  0  0  0  0  # atno 10763 bound_to 10752
  154.2014  135.2804  155.2991 H   0  0  0  0  0  0  0  0  0  0  0  0  # atno 10764 bound_to 10752
  154.5681  135.5685  153.7128 H   0  0  0  0  0  0  0  0  0  0  0  0  # atno 10765 bound_to 10752
  139.9317  134.7567  156.1344 H   0  0  0  0  0  0  0  0  0  0  0  0  # atno 11005 bound_to 11000
  146.2836  139.6944  142.9211 LP  0  0  0  0  0  0  0  0  0  0  0  0  # atno 17320 bound_to 7965
  145.4373  141.0420  143.2877 LP  0  0  0  0  0  0  0  0  0  0  0  0  # atno 17321 bound_to 7965
  139.4789  144.5240  151.8761 LP  0  0  0  0  0  0  0  0  0  0  0  0  # atno 17342 bound_to 10162
  140.4330  144.2090  150.5888 LP  0  0  0  0  0  0  0  0  0  0  0  0  # atno 17343 bound_to 10162
  156.2539  130.3703  149.8202 LP  0  0  0  0  0  0  0  0  0  0  0  0  # atno 17370 bound_to 10713
  156.5967  130.8529  151.3421 LP  0  0  0  0  0  0  0  0  0  0  0  0  # atno 17371 bound_to 10713
  141.0909  133.6715  156.2538 LP  0  0  0  0  0  0  0  0  0  0  0  0  # atno 17394 bound_to 11000
  140.6185  134.5386  157.5544 LP  0  0  0  0  0  0  0  0  0  0  0  0  # atno 17395 bound_to 11000

$$$$
