AV-unprocessed.smi:1644|AV-procd|sdf|6594|dock6
  -GOLD-   22720 7293D 1   1.00000     0.00000
 Structure written by MMmdl.
 48 50  0  0  0  0  0  0  0  0  2 V2000
  152.9917  142.5509  162.4422 C   0  0  0  0  0  0  0  0  0  0  0  0
  152.5418  142.9426  161.0304 C   0  0  0  0  0  0  0  0  0  0  0  0
  152.5068  141.7401  160.0754 C   0  0  0  0  0  0  0  0  0  0  0  0
  152.0128  142.0957  158.6591 C   0  0  2  0  0  0  0  0  0  0  0  0
  150.6944  142.6938  158.6887 N   0  5  0  0  0  0  0  0  0  0  0  0
  149.8695  141.9612  157.9047 C   0  0  0  0  0  0  0  0  0  0  0  0
  148.6858  142.1963  157.6650 O   0  0  0  0  0  0  0  0  0  0  0  0
  150.5118  140.8986  157.3822 N   0  0  0  0  0  0  0  0  0  0  0  0
  149.9329  139.9462  156.4255 C   0  0  0  0  0  0  0  0  0  0  0  0
  149.6174  140.5411  155.0343 C   0  0  1  0  0  0  0  0  0  0  0  0
  150.5422  139.9787  154.1263 O   0  0  0  0  0  0  0  0  0  0  0  0
  148.1994  140.2472  154.4975 C   0  0  0  0  0  0  0  0  0  0  0  0
  147.1383  140.8899  155.2544 N   0  0  0  0  0  0  0  0  0  0  0  0
  146.7296  140.5796  156.5008 C   0  0  0  0  0  0  0  0  0  0  0  0
  145.7809  141.3386  157.0404 N   0  0  0  0  0  0  0  0  0  0  0  0
  145.5499  142.2537  156.0292 C   0  0  0  0  0  0  0  0  0  0  0  0
  144.6522  143.3424  155.9688 C   0  0  0  0  0  0  0  0  0  0  0  0
  144.5719  144.1518  154.8136 C   0  0  0  0  0  0  0  0  0  0  0  0
  143.5776  145.2987  154.7835 C   0  0  0  0  0  0  0  0  0  0  0  0
  145.4079  143.8846  153.7000 C   0  0  0  0  0  0  0  0  0  0  0  0
  145.3305  144.7318  152.4430 C   0  0  0  0  0  0  0  0  0  0  0  0
  146.3207  142.8107  153.7497 C   0  0  0  0  0  0  0  0  0  0  0  0
  146.3821  142.0022  154.8988 C   0  0  0  0  0  0  0  0  0  0  0  0
  151.7846  140.8736  157.7923 C   0  0  0  0  0  0  0  0  0  0  0  0
  152.6491  140.0393  157.5204 O   0  0  0  0  0  0  0  0  0  0  0  0
  153.0046  143.4195  163.1005 H   0  0  0  0  0  0  0  0  0  0  0  0
  153.9953  142.1254  162.4310 H   0  0  0  0  0  0  0  0  0  0  0  0
  152.3188  141.8117  162.8777 H   0  0  0  0  0  0  0  0  0  0  0  0
  151.5532  143.3995  161.0833 H   0  0  0  0  0  0  0  0  0  0  0  0
  153.2141  143.7048  160.6353 H   0  0  0  0  0  0  0  0  0  0  0  0
  153.5092  141.3128  160.0196 H   0  0  0  0  0  0  0  0  0  0  0  0
  151.8710  140.9664  160.5017 H   0  0  0  0  0  0  0  0  0  0  0  0
  152.7466  142.7284  158.1579 H   0  0  0  0  0  0  0  0  0  0  0  0
  150.6418  139.1236  156.3136 H   0  0  0  0  0  0  0  0  0  0  0  0
  149.0304  139.4904  156.8370 H   0  0  0  0  0  0  0  0  0  0  0  0
  149.8080  141.6141  155.0302 H   0  0  0  0  0  0  0  0  0  0  0  0
  150.3938  139.0464  154.0882 H   0  0  0  0  0  0  0  0  0  0  0  0
  148.1096  140.6113  153.4729 H   0  0  0  0  0  0  0  0  0  0  0  0
  148.0211  139.1723  154.4567 H   0  0  0  0  0  0  0  0  0  0  0  0
  147.1616  139.7559  157.0498 H   0  0  0  0  0  0  0  0  0  0  0  0
  144.0139  143.5423  156.8166 H   0  0  0  0  0  0  0  0  0  0  0  0
  144.0970  146.2513  154.6781 H   0  0  0  0  0  0  0  0  0  0  0  0
  142.9870  145.3370  155.6993 H   0  0  0  0  0  0  0  0  0  0  0  0
  142.8876  145.1852  153.9472 H   0  0  0  0  0  0  0  0  0  0  0  0
  146.0467  144.3957  151.6927 H   0  0  0  0  0  0  0  0  0  0  0  0
  145.5475  145.7757  152.6700 H   0  0  0  0  0  0  0  0  0  0  0  0
  144.3342  144.6705  152.0043 H   0  0  0  0  0  0  0  0  0  0  0  0
  146.9579  142.5944  152.9051 H   0  0  0  0  0  0  0  0  0  0  0  0
  1  2  1  0  0  0  0
  1 26  1  0  0  0  0
  1 27  1  0  0  0  0
  1 28  1  0  0  0  0
  2  3  1  0  0  0  0
  2 29  1  0  0  0  0
  2 30  1  0  0  0  0
  3  4  1  0  0  0  0
  3 31  1  0  0  0  0
  3 32  1  0  0  0  0
  4 24  1  0  0  0  0
  4  5  1  0  0  0  0
  4 33  1  0  0  0  0
  5  6  1  0  0  0  0
  6  7  2  0  0  0  0
  6  8  1  0  0  0  0
  8  9  1  0  0  0  0
  8 24  1  0  0  0  0
  9 10  1  0  0  0  0
  9 34  1  0  0  0  0
  9 35  1  0  0  0  0
 10 11  1  0  0  0  0
 10 12  1  0  0  0  0
 10 36  1  0  0  0  0
 11 37  1  0  0  0  0
 12 13  1  0  0  0  0
 12 38  1  0  0  0  0
 12 39  1  0  0  0  0
 13 23  1  0  0  0  0
 13 14  1  0  0  0  0
 14 15  2  0  0  0  0
 14 40  1  0  0  0  0
 15 16  1  0  0  0  0
 16 23  2  0  0  0  0
 16 17  1  0  0  0  0
 17 18  2  0  0  0  0
 17 41  1  0  0  0  0
 18 19  1  0  0  0  0
 18 20  1  0  0  0  0
 19 42  1  0  0  0  0
 19 43  1  0  0  0  0
 19 44  1  0  0  0  0
 20 21  1  0  0  0  0
 20 22  2  0  0  0  0
 21 45  1  0  0  0  0
 21 46  1  0  0  0  0
 21 47  1  0  0  0  0
 22 23  1  0  0  0  0
 22 48  1  0  0  0  0
 24 25  2  0  0  0  0
M  CHG  1   5  -1
M  END
> <s_m_source_file>
AV-unprocessed.smi

> <i_m_source_file_index>
1644

> <i_lp_mmshare_version>
43012

> <i_f3d_flags>
0

> <s_epik_input>
W0NIM11bQ0gyXVtDSDJdW0NAQEhdMVtOSF1DKD1PKU4oQzE9TylbQ0gyXVtDQEhdKFtPSF0pW0NIMl1uKFtjSF1uMiljKGMyMylbY0hdYyhbQ0gzXSljKFtjSF0zKVtDSDNd

> <s_epik_cmdline>
J2VwaWtfcHl0aG9uJywgJy1waCcsICc3LjAnLCAnLXRuJywgJzgnLCAnLW1hJywgJzIwMCcsICctbWV0YWxfYmluZGluZycsICctaW1hZScsICc8aW5maWxlLm1hZT4nLCAnLW9tYWUnLCAnPG91dGZpbGUubWFlPic=

> <r_lp_tautomer_probability>
1

> <r_epik_Ionization_Penalty>
5.95212

> <r_epik_Ionization_Penalty_Charging>
5.84419

> <r_epik_Ionization_Penalty_Neutral>
0.107924

> <r_epik_State_Penalty>
5.94088

> <r_epik_Charging_Adjusted_Penalty>
11.7851

> <i_epik_Tot_Q>
-1

> <i_epik_Tot_abs_Q>
1

> <r_epik_Metal_State_Penalty>
1.99095

> <b_epik_Metal_Only>
1

> <s_lp_Force_Field>
OPLS_2005

> <r_lp_Energy>
16.2411

> <b_lp_Chiralities_Consistent>
1

> <s_lp_Variant>
AV-unprocessed.smi:1644-11

> <Gold.Version>
5.8.1

> <Gold.Id.Protein>
6NUR|6NUR_protein|mol2

> <Gold.PLP.Fitness>
52.2913

> <Gold.PLP.PLP>
-48.0972

> <Gold.PLP.part.hbond>
-2.7198

> <Gold.PLP.part.metal>
0.0000

> <Gold.PLP.part.buried>
-7.7677

> <Gold.PLP.part.nonpolar>
-38.2460

> <Gold.PLP.part.repulsive>
0.2363

> <Gold.PLP.ligand.clash>
0.0000

> <Gold.PLP.ligand.torsion>
0.9694

> <Gold.PLP.Chemscore.Hbond>
2.0000

> <Gold.PLP.Chemscore.CHOScore>
0.0000

> <Gold.PLP.Chemscore.Metal>
0.0000

> <Gold.Chemscore.Hbonds>
donor molecule, donor type, donor heavy atom, donor atom, acceptor molecule, acceptor atom, score
      P1  H  7989  7998       L1    11  1.00
      P1  H  7997  8008       L1    25  1.00

> <Gold.PLP.Chemscore.Internal.Correction>
0.1330

> <Gold.Rescore>
     Score         DG    S(hbond)    S(metal)    S(lipo)     H(rot)  DE(clash)    DE(int)     intcor
     16.27     -17.40       1.96        0.00     103.83       2.65       0.15       0.98       ----

> <Gold.Chemscore.Fitness>
16.2684

> <Gold.Chemscore.DG>
-17.3950

> <Gold.Chemscore.ZeroCoef>
-5.4800

> <Gold.Chemscore.Hbond>
1.9605

> <Gold.Chemscore.Metal>
0.0000

> <Gold.Chemscore.Lipo>
103.8254

> <Gold.Chemscore.Internal_Hbond>
0.0000

> <Gold.Chemscore.DEClash>
0.1481

> <Gold.Chemscore.DEInternal>
0.9786

> <Gold.Chemscore.Rot>
2.6486

> <Gold.Chemscore.Internal.Correction>
   9.000000E+99

> <Gold.Chemscore.Hbonds>
donor molecule, donor type, donor heavy atom, donor atom, acceptor molecule, acceptor atom, score
      P1  H  7989  7998       L1    11  0.91
      P1  H  7997  8008       L1    25  0.96

> <Gold.Chemscore.Hbond.Weighted>
-6.5479

> <Gold.Chemscore.Metal.Weighted>
-0.0000

> <Gold.Chemscore.Lipo.Weighted>
-12.1476

> <Gold.Chemscore.Internal_Hbond.Weighted>
0.0000

> <Gold.Chemscore.DEClash.Weighted>
0.1481

> <Gold.Chemscore.DEInternal.Weighted>
0.9786

> <Gold.Chemscore.Rot.Weighted>
6.7804

> <Gold.Chemscore.Internal.Correction.Weighted>
   9.000000E+99

> <Gold.Protein.RotatedTorsions>
[ 6907 6896 6895 6894 ] final -167.98 input  -60.11 | X-H torsion
[ 7974 7965 7964 7962 ] final    3.17 input  175.53 | X-H torsion
[ 8008 7997 7996 7995 ] final  -75.77 input   59.86 | X-H torsion
[ 10167 10162 10161 10158 ] final  -98.23 input  -65.29 | X-H torsion
[ 10718 10713 10712 10709 ] final   55.38 input   66.30 | X-H torsion
[ 10763 10752 10751 10750 ] final   82.78 input  -60.55 | X-H torsion
[ 11005 11000 10999 10996 ] final   16.23 input  -57.11 | X-H torsion

> <Gold.Protein.ActiveResidues>
 VAL166  LYS551  ARG553  GLY616  TRP617  ASP618  TYR619  PRO620  LYS621  CYS622 
 ASP623  PHE694  ASN695  SER759  ASP760  ASP761  ALA762  ILE779  LEU786  VAL792 
 PHE793  MET794  SER795  GLU796  ALA797  LYS798  CYS799  TRP800  GLU811  SER814 

> <Gold.Protein.RotatedAtoms>
  151.4683  133.3575  159.2819 H   0  0  0  0  0  0  0  0  0  0  0  0  # atno 6907 bound_to 6896
  150.8978  134.8390  159.7350 H   0  0  0  0  0  0  0  0  0  0  0  0  # atno 6908 bound_to 6896
  152.4862  134.4600  159.9654 H   0  0  0  0  0  0  0  0  0  0  0  0  # atno 6909 bound_to 6896
  146.2445  140.0726  142.8361 H   0  0  0  0  0  0  0  0  0  0  0  0  # atno 7974 bound_to 7965
  154.5446  140.0738  156.8567 H   0  0  0  0  0  0  0  0  0  0  0  0  # atno 8008 bound_to 7997
  155.3113  140.3390  155.4225 H   0  0  0  0  0  0  0  0  0  0  0  0  # atno 8009 bound_to 7997
  156.1906  140.1685  156.8086 H   0  0  0  0  0  0  0  0  0  0  0  0  # atno 8010 bound_to 7997
  140.2751  143.3318  152.0496 H   0  0  0  0  0  0  0  0  0  0  0  0  # atno 10167 bound_to 10162
  157.5339  130.8650  149.8726 H   0  0  0  0  0  0  0  0  0  0  0  0  # atno 10718 bound_to 10713
  153.1233  135.4715  154.9231 H   0  0  0  0  0  0  0  0  0  0  0  0  # atno 10763 bound_to 10752
  154.7596  135.3128  154.8406 H   0  0  0  0  0  0  0  0  0  0  0  0  # atno 10764 bound_to 10752
  153.8965  135.6879  153.4811 H   0  0  0  0  0  0  0  0  0  0  0  0  # atno 10765 bound_to 10752
  140.4494  134.1240  155.7700 H   0  0  0  0  0  0  0  0  0  0  0  0  # atno 11005 bound_to 11000
  145.0803  140.9216  143.4829 LP  0  0  0  0  0  0  0  0  0  0  0  0  # atno 17320 bound_to 7965
  145.0878  139.2912  143.5750 LP  0  0  0  0  0  0  0  0  0  0  0  0  # atno 17321 bound_to 7965
  139.4978  144.6630  151.6421 LP  0  0  0  0  0  0  0  0  0  0  0  0  # atno 17342 bound_to 10162
  140.5858  143.9867  150.6294 LP  0  0  0  0  0  0  0  0  0  0  0  0  # atno 17343 bound_to 10162
  156.0444  130.3731  150.1355 LP  0  0  0  0  0  0  0  0  0  0  0  0  # atno 17370 bound_to 10713
  156.9538  130.9783  151.3493 LP  0  0  0  0  0  0  0  0  0  0  0  0  # atno 17371 bound_to 10713
  141.1671  133.8682  157.1683 LP  0  0  0  0  0  0  0  0  0  0  0  0  # atno 17394 bound_to 11000
  140.0017  135.0025  157.0204 LP  0  0  0  0  0  0  0  0  0  0  0  0  # atno 17395 bound_to 11000

$$$$
