AV-unprocessed.smi:2472|AV-procd|sdf|9742|dock7
  -GOLD-   2272013383D 1   1.00000     0.00000
 Structure written by MMmdl.
 48 50  0  0  0  0  0  0  0  0  2 V2000
  152.1168  143.7652  162.0252 C   0  0  0  0  0  0  0  0  0  0  0  0
  151.9502  143.4957  160.5400 C   0  0  0  0  0  0  0  0  0  0  0  0
  150.8935  144.1120  159.8346 C   0  0  0  0  0  0  0  0  0  0  0  0
  150.7328  143.8799  158.5146 N   0  3  0  0  0  0  0  0  0  0  0  0
  151.5461  143.0638  157.8126 C   0  0  0  0  0  0  0  0  0  0  0  0
  152.6198  142.4182  158.4573 C   0  0  0  0  0  0  0  0  0  0  0  0
  152.8414  142.6428  159.8398 C   0  0  0  0  0  0  0  0  0  0  0  0
  153.8938  142.0102  160.5587 N   0  0  0  0  0  0  0  0  0  0  0  0
  154.7056  141.0262  160.1369 C   0  0  0  0  0  0  0  0  0  0  0  0
  154.6528  140.4937  159.0285 O   0  0  0  0  0  0  0  0  0  0  0  0
  155.6199  140.7145  161.0729 N   0  0  0  0  0  0  0  0  0  0  0  0
  156.7058  139.7202  160.9806 C   0  0  0  0  0  0  0  0  0  0  0  0
  156.1998  138.3013  160.5907 C   0  0  0  0  0  0  0  0  0  0  0  0
  155.6123  138.1295  159.5217 O   0  0  0  0  0  0  0  0  0  0  0  0
  156.4081  137.2949  161.4555 N   0  0  0  0  0  0  0  0  0  0  0  0
  156.0127  135.9115  161.2424 C   0  0  0  0  0  0  0  0  0  0  0  0
  154.7894  135.5005  162.0345 C   0  0  0  0  0  0  0  0  0  0  0  0
  153.7462  136.5216  162.4231 C   0  0  0  0  0  0  0  0  0  0  0  0
  154.6275  135.9026  163.4816 C   0  0  0  0  0  0  0  0  0  0  0  0
  157.7100  140.1999  159.9049 C   0  0  0  0  0  0  0  0  0  0  0  0
  159.0982  139.8071  160.4058 C   0  0  0  0  0  0  0  0  0  0  0  0
  159.0119  140.0045  161.9132 C   0  0  0  0  0  0  0  0  0  0  0  0
  157.5578  139.6915  162.2889 C   0  0  0  0  0  0  0  0  0  0  0  0
  151.3712  144.4748  162.3850 H   0  0  0  0  0  0  0  0  0  0  0  0
  153.1034  144.1825  162.2292 H   0  0  0  0  0  0  0  0  0  0  0  0
  152.0062  142.8418  162.5944 H   0  0  0  0  0  0  0  0  0  0  0  0
  150.1727  144.7801  160.2834 H   0  0  0  0  0  0  0  0  0  0  0  0
  151.3123  142.9472  156.7646 H   0  0  0  0  0  0  0  0  0  0  0  0
  153.2478  141.7529  157.8843 H   0  0  0  0  0  0  0  0  0  0  0  0
  154.1173  142.4194  161.4541 H   0  0  0  0  0  0  0  0  0  0  0  0
  155.5730  141.2209  161.9448 H   0  0  0  0  0  0  0  0  0  0  0  0
  156.8904  137.5045  162.3168 H   0  0  0  0  0  0  0  0  0  0  0  0
  155.8293  135.7502  160.1790 H   0  0  0  0  0  0  0  0  0  0  0  0
  156.8368  135.2547  161.5255 H   0  0  0  0  0  0  0  0  0  0  0  0
  154.4027  134.5198  161.7623 H   0  0  0  0  0  0  0  0  0  0  0  0
  153.9309  137.5618  162.1619 H   0  0  0  0  0  0  0  0  0  0  0  0
  152.7037  136.2114  162.3929 H   0  0  0  0  0  0  0  0  0  0  0  0
  154.1736  135.1786  164.1555 H   0  0  0  0  0  0  0  0  0  0  0  0
  155.3979  136.5314  163.9236 H   0  0  0  0  0  0  0  0  0  0  0  0
  157.5117  139.7914  158.9123 H   0  0  0  0  0  0  0  0  0  0  0  0
  157.6717  141.2860  159.8056 H   0  0  0  0  0  0  0  0  0  0  0  0
  159.2938  138.7585  160.1787 H   0  0  0  0  0  0  0  0  0  0  0  0
  159.8925  140.3995  159.9508 H   0  0  0  0  0  0  0  0  0  0  0  0
  159.7256  139.3831  162.4549 H   0  0  0  0  0  0  0  0  0  0  0  0
  159.2334  141.0450  162.1545 H   0  0  0  0  0  0  0  0  0  0  0  0
  157.2203  140.4175  163.0294 H   0  0  0  0  0  0  0  0  0  0  0  0
  157.5065  138.7220  162.7866 H   0  0  0  0  0  0  0  0  0  0  0  0
  149.9609  144.3368  158.0281 H   0  0  0  0  0  0  0  0  0  0  0  0
  1  2  1  0  0  0  0
  1 24  1  0  0  0  0
  1 25  1  0  0  0  0
  1 26  1  0  0  0  0
  2  7  1  0  0  0  0
  2  3  2  0  0  0  0
  3  4  1  0  0  0  0
  3 27  1  0  0  0  0
  4  5  2  0  0  0  0
  4 48  1  0  0  0  0
  5  6  1  0  0  0  0
  5 28  1  0  0  0  0
  6  7  2  0  0  0  0
  6 29  1  0  0  0  0
  7  8  1  0  0  0  0
  8  9  1  0  0  0  0
  8 30  1  0  0  0  0
  9 10  2  0  0  0  0
  9 11  1  0  0  0  0
 11 12  1  0  0  0  0
 11 31  1  0  0  0  0
 12 23  1  0  0  0  0
 12 13  1  0  0  0  0
 12 20  1  0  0  0  0
 13 14  2  0  0  0  0
 13 15  1  0  0  0  0
 15 16  1  0  0  0  0
 15 32  1  0  0  0  0
 16 17  1  0  0  0  0
 16 33  1  0  0  0  0
 16 34  1  0  0  0  0
 17 19  1  0  0  0  0
 17 18  1  0  0  0  0
 17 35  1  0  0  0  0
 18 19  1  0  0  0  0
 18 36  1  0  0  0  0
 18 37  1  0  0  0  0
 19 38  1  0  0  0  0
 19 39  1  0  0  0  0
 20 21  1  0  0  0  0
 20 40  1  0  0  0  0
 20 41  1  0  0  0  0
 21 22  1  0  0  0  0
 21 42  1  0  0  0  0
 21 43  1  0  0  0  0
 22 23  1  0  0  0  0
 22 44  1  0  0  0  0
 22 45  1  0  0  0  0
 23 46  1  0  0  0  0
 23 47  1  0  0  0  0
M  CHG  1   4   1
M  END
> <s_m_source_file>
AV-unprocessed.smi

> <i_m_source_file_index>
2472

> <i_lp_mmshare_version>
43012

> <i_f3d_flags>
0

> <s_epik_input>
W0NIM11jMVtjSF1uW2NIXVtjSF1jMVtOSF1DKD1PKVtOSF1DMihbQ0gyXVtDSDJdW0NIMl1bQ0gyXTIpQyg9TylbTkhdW0NIMl1bQ0hdM1tDSDJdW0NIMl0z

> <s_epik_cmdline>
J2VwaWtfcHl0aG9uJywgJy1waCcsICc3LjAnLCAnLXRuJywgJzgnLCAnLW1hJywgJzIwMCcsICctbWV0YWxfYmluZGluZycsICctaW1hZScsICc8aW5maWxlLm1hZT4nLCAnLW9tYWUnLCAnPG91dGZpbGUubWFlPic=

> <r_epik_Ionization_Penalty>
0.772167

> <r_epik_Ionization_Penalty_Charging>
0.772149

> <r_epik_Ionization_Penalty_Neutral>
1.87678e-05

> <r_epik_State_Penalty>
0.800952

> <r_epik_Charging_Adjusted_Penalty>
1.5731

> <i_epik_Tot_Q>
1

> <i_epik_Tot_abs_Q>
1

> <r_epik_Metal_State_Penalty>
0.9454

> <b_epik_Metal_Only>
0

> <s_lp_Force_Field>
OPLS_2005

> <r_lp_Energy>
39.076

> <b_lp_Chiralities_Consistent>
1

> <s_lp_Variant>
AV-unprocessed.smi:2472-2

> <Gold.Version>
5.8.1

> <Gold.Id.Protein>
6NUR|6NUR_protein|mol2

> <Gold.PLP.Fitness>
39.6080

> <Gold.PLP.PLP>
-37.2139

> <Gold.PLP.part.hbond>
-2.0000

> <Gold.PLP.part.metal>
0.0000

> <Gold.PLP.part.buried>
-4.2196

> <Gold.PLP.part.nonpolar>
-29.8344

> <Gold.PLP.part.repulsive>
0.0931

> <Gold.PLP.ligand.clash>
0.0000

> <Gold.PLP.ligand.torsion>
0.4788

> <Gold.PLP.Chemscore.Hbond>
0.9040

> <Gold.PLP.Chemscore.CHOScore>
0.0000

> <Gold.PLP.Chemscore.Metal>
0.0000

> <Gold.Chemscore.Hbonds>
donor molecule, donor type, donor heavy atom, donor atom, acceptor molecule, acceptor atom, score
      P1  H  7997  8010       L1    10  0.72

> <Gold.PLP.Chemscore.Internal.Correction>
0.6397

> <Gold.Rescore>
     Score         DG    S(hbond)    S(metal)    S(lipo)     H(rot)  DE(clash)    DE(int)     intcor
     12.99     -17.44       0.89        0.00     112.42       1.63       1.07       3.38       ----

> <Gold.Chemscore.Fitness>
12.9880

> <Gold.Chemscore.DG>
-17.4403

> <Gold.Chemscore.ZeroCoef>
-5.4800

> <Gold.Chemscore.Hbond>
0.8913

> <Gold.Chemscore.Metal>
0.0000

> <Gold.Chemscore.Lipo>
112.4156

> <Gold.Chemscore.Internal_Hbond>
0.0000

> <Gold.Chemscore.DEClash>
1.0679

> <Gold.Chemscore.DEInternal>
3.3844

> <Gold.Chemscore.Rot>
1.6286

> <Gold.Chemscore.Internal.Correction>
   9.000000E+99

> <Gold.Chemscore.Hbonds>
donor molecule, donor type, donor heavy atom, donor atom, acceptor molecule, acceptor atom, score
      P1  H  7997  8010       L1    10  0.72

> <Gold.Chemscore.Hbond.Weighted>
-2.9769

> <Gold.Chemscore.Metal.Weighted>
-0.0000

> <Gold.Chemscore.Lipo.Weighted>
-13.1526

> <Gold.Chemscore.Internal_Hbond.Weighted>
0.0000

> <Gold.Chemscore.DEClash.Weighted>
1.0679

> <Gold.Chemscore.DEInternal.Weighted>
3.3844

> <Gold.Chemscore.Rot.Weighted>
4.1692

> <Gold.Chemscore.Internal.Correction.Weighted>
   9.000000E+99

> <Gold.Protein.RotatedTorsions>
[ 6907 6896 6895 6894 ] final  -48.55 input  -60.11 | X-H torsion
[ 7974 7965 7964 7962 ] final -174.37 input  175.53 | X-H torsion
[ 8008 7997 7996 7995 ] final    7.25 input   59.86 | X-H torsion
[ 10167 10162 10161 10158 ] final -139.32 input  -65.29 | X-H torsion
[ 10718 10713 10712 10709 ] final -137.20 input   66.30 | X-H torsion
[ 10763 10752 10751 10750 ] final   27.74 input  -60.55 | X-H torsion
[ 11005 11000 10999 10996 ] final -167.17 input  -57.11 | X-H torsion

> <Gold.Protein.ActiveResidues>
 VAL166  LYS551  ARG553  GLY616  TRP617  ASP618  TYR619  PRO620  LYS621  CYS622 
 ASP623  PHE694  ASN695  SER759  ASP760  ASP761  ALA762  ILE779  LEU786  VAL792 
 PHE793  MET794  SER795  GLU796  ALA797  LYS798  CYS799  TRP800  GLU811  SER814 

> <Gold.Protein.RotatedAtoms>
  150.8895  134.8296  159.7282 H   0  0  0  0  0  0  0  0  0  0  0  0  # atno 6907 bound_to 6896
  152.4828  134.4671  159.9633 H   0  0  0  0  0  0  0  0  0  0  0  0  # atno 6908 bound_to 6896
  151.4735  133.3524  159.2862 H   0  0  0  0  0  0  0  0  0  0  0  0  # atno 6909 bound_to 6896
  144.7132  140.1481  143.6386 H   0  0  0  0  0  0  0  0  0  0  0  0  # atno 7974 bound_to 7965
  154.7514  140.2767  155.6289 H   0  0  0  0  0  0  0  0  0  0  0  0  # atno 8008 bound_to 7997
  156.2896  140.2678  156.2195 H   0  0  0  0  0  0  0  0  0  0  0  0  # atno 8009 bound_to 7997
  155.0132  140.0372  157.2397 H   0  0  0  0  0  0  0  0  0  0  0  0  # atno 8010 bound_to 7997
  139.8391  143.7346  152.2664 H   0  0  0  0  0  0  0  0  0  0  0  0  # atno 10167 bound_to 10162
  156.2855  130.7345  151.1355 H   0  0  0  0  0  0  0  0  0  0  0  0  # atno 10718 bound_to 10713
  153.0536  135.6530  154.0632 H   0  0  0  0  0  0  0  0  0  0  0  0  # atno 10763 bound_to 10752
  154.0315  135.2911  155.3369 H   0  0  0  0  0  0  0  0  0  0  0  0  # atno 10764 bound_to 10752
  154.6839  135.5309  153.8367 H   0  0  0  0  0  0  0  0  0  0  0  0  # atno 10765 bound_to 10752
  140.5562  134.5378  157.5133 H   0  0  0  0  0  0  0  0  0  0  0  0  # atno 11005 bound_to 11000
  145.9141  139.2505  143.1420 LP  0  0  0  0  0  0  0  0  0  0  0  0  # atno 17320 bound_to 7965
  145.9687  140.8778  143.0174 LP  0  0  0  0  0  0  0  0  0  0  0  0  # atno 17321 bound_to 7965
  139.7577  144.7516  151.0410 LP  0  0  0  0  0  0  0  0  0  0  0  0  # atno 17342 bound_to 10162
  140.7800  143.4786  151.0048 LP  0  0  0  0  0  0  0  0  0  0  0  0  # atno 17343 bound_to 10162
  157.7327  131.0597  150.5613 LP  0  0  0  0  0  0  0  0  0  0  0  0  # atno 17370 bound_to 10713
  156.5724  130.4283  149.6013 LP  0  0  0  0  0  0  0  0  0  0  0  0  # atno 17371 bound_to 10713
  139.9430  134.7752  156.0631 LP  0  0  0  0  0  0  0  0  0  0  0  0  # atno 17394 bound_to 11000
  141.1142  133.6633  156.3052 LP  0  0  0  0  0  0  0  0  0  0  0  0  # atno 17395 bound_to 11000

$$$$
