AV-unprocessed.smi:158|AV-procd|sdf|1329|dock5
  -GOLD-   2262019 23D 1   1.00000     0.00000
 Structure written by MMmdl.
 31 33  0  0  0  0  0  0  0  0  1 V2000
  150.3940  133.6391  156.5366 N   0  0  0  0  0  0  0  0  0  0  0  0
  150.2354  134.9427  156.8062 C   0  0  0  0  0  0  0  0  0  0  0  0
  149.6847  135.2924  157.9919 N   0  0  0  0  0  0  0  0  0  0  0  0
  149.5099  136.5832  158.3014 C   0  0  0  0  0  0  0  0  0  0  0  0
  148.8012  136.9144  159.8380 Cl  0  0  0  0  0  0  0  0  0  0  0  0
  149.8245  137.6459  157.5537 N   0  0  0  0  0  0  0  0  0  0  0  0
  150.3806  137.2978  156.3567 C   0  0  0  0  0  0  0  0  0  0  0  0
  150.6175  135.9704  155.9096 C   0  0  0  0  0  0  0  0  0  0  0  0
  151.1927  135.9913  154.6461 N   0  0  0  0  0  0  0  0  0  0  0  0
  151.2889  137.2638  154.3664 C   0  0  0  0  0  0  0  0  0  0  0  0
  150.8242  138.1205  155.3401 N   0  0  0  0  0  0  0  0  0  0  0  0
  150.8055  139.6159  155.3059 C   0  0  2  0  0  0  0  0  0  0  0  0
  150.9718  140.1125  156.6018 O   0  0  0  0  0  0  0  0  0  0  0  0
  149.9770  141.0984  156.8843 C   0  0  1  0  0  0  0  0  0  0  0  0
  150.6106  142.2421  157.6912 C   0  0  0  0  0  0  0  0  0  0  0  0
  149.6561  143.2454  157.9664 O   0  0  0  0  0  0  0  0  0  0  0  0
  149.4452  141.5001  155.5032 C   0  0  2  0  0  0  0  0  0  0  0  0
  148.1427  142.0496  155.5271 O   0  0  0  0  0  0  0  0  0  0  0  0
  149.4846  140.1754  154.7674 C   0  0  2  0  0  0  0  0  0  0  0  0
  148.4697  139.3876  155.1366 F   0  0  0  0  0  0  0  0  0  0  0  0
  151.6665  139.8986  154.6985 H   0  0  0  0  0  0  0  0  0  0  0  0
  149.1917  140.6110  157.4654 H   0  0  0  0  0  0  0  0  0  0  0  0
  150.1270  142.2059  155.0264 H   0  0  0  0  0  0  0  0  0  0  0  0
  149.4908  140.2574  153.6803 H   0  0  0  0  0  0  0  0  0  0  0  0
  150.8032  133.3535  155.6586 H   0  0  0  0  0  0  0  0  0  0  0  0
  150.1063  132.9457  157.2118 H   0  0  0  0  0  0  0  0  0  0  0  0
  151.7053  137.6155  153.4339 H   0  0  0  0  0  0  0  0  0  0  0  0
  150.9883  141.8621  158.6407 H   0  0  0  0  0  0  0  0  0  0  0  0
  151.4571  142.6766  157.1586 H   0  0  0  0  0  0  0  0  0  0  0  0
  149.2432  143.4977  157.1545 H   0  0  0  0  0  0  0  0  0  0  0  0
  148.2070  142.9777  155.3586 H   0  0  0  0  0  0  0  0  0  0  0  0
  1  2  1  0  0  0  0
  1 25  1  0  0  0  0
  1 26  1  0  0  0  0
  2  8  1  0  0  0  0
  2  3  2  0  0  0  0
  3  4  1  0  0  0  0
  4  5  1  0  0  0  0
  4  6  2  0  0  0  0
  6  7  1  0  0  0  0
  7 11  1  0  0  0  0
  7  8  2  0  0  0  0
  8  9  1  0  0  0  0
  9 10  2  0  0  0  0
 10 11  1  0  0  0  0
 10 27  1  0  0  0  0
 11 12  1  0  0  0  0
 12 21  1  0  0  0  0
 12 19  1  0  0  0  0
 12 13  1  0  0  0  0
 13 14  1  0  0  0  0
 14 22  1  0  0  0  0
 14 15  1  0  0  0  0
 14 17  1  0  0  0  0
 15 16  1  0  0  0  0
 15 28  1  0  0  0  0
 15 29  1  0  0  0  0
 16 30  1  0  0  0  0
 17 23  1  0  0  0  0
 17 18  1  0  0  0  0
 17 19  1  0  0  0  0
 18 31  1  0  0  0  0
 19 24  1  0  0  0  0
 19 20  1  0  0  0  0
M  END
> <s_m_source_file>
AV-unprocessed.smi

> <i_m_source_file_index>
158

> <i_lp_mmshare_version>
43012

> <i_f3d_flags>
0

> <s_epik_input>
Q2xjKG4xKW5jKFtOSDJdKWMoYzEyKW5bY0hdbjJbQ0BASF0zT1tDQEhdKFtDSDJdW09IXSlbQ0BASF0oW09IXSlbQ0BASF0zRg==

> <s_epik_cmdline>
J2VwaWtfcHl0aG9uJywgJy1waCcsICc3LjAnLCAnLXRuJywgJzgnLCAnLW1hJywgJzIwMCcsICctbWV0YWxfYmluZGluZycsICctaW1hZScsICc8aW5maWxlLm1hZT4nLCAnLW9tYWUnLCAnPG91dGZpbGUubWFlPic=

> <r_lp_tautomer_probability>
1

> <r_epik_Ionization_Penalty>
6.51543e-05

> <r_epik_Ionization_Penalty_Charging>
0

> <r_epik_Ionization_Penalty_Neutral>
6.51543e-05

> <r_epik_State_Penalty>
-0

> <r_epik_Charging_Adjusted_Penalty>
0

> <i_epik_Tot_Q>
0

> <i_epik_Tot_abs_Q>
0

> <r_epik_Metal_State_Penalty>
-0

> <b_epik_Metal_Only>
0

> <s_epik_Chemistry_Notes>
This compound contains an acetal/aminal-like group ( X-CH(R)-Y where X, Y are N, S, or O) that may be acid/base labile, releasing an aldehyde.

> <s_lp_Force_Field>
OPLS_2005

> <r_lp_Energy>
35.9636

> <b_lp_Chiralities_Consistent>
1

> <s_lp_Variant>
AV-unprocessed.smi:158-7

> <Gold.Version>
5.8.1

> <Gold.Id.Protein>
6NUR|6NUR_protein|mol2

> <Gold.PLP.Fitness>
36.5775

> <Gold.PLP.PLP>
-24.6447

> <Gold.PLP.part.hbond>
-4.2553

> <Gold.PLP.part.metal>
0.0000

> <Gold.PLP.part.buried>
-3.2335

> <Gold.PLP.part.nonpolar>
-20.1338

> <Gold.PLP.part.repulsive>
0.6386

> <Gold.PLP.ligand.clash>
0.0000

> <Gold.PLP.ligand.torsion>
0.7391

> <Gold.PLP.Chemscore.Hbond>
3.8600

> <Gold.PLP.Chemscore.CHOScore>
0.6088

> <Gold.PLP.Chemscore.Metal>
0.0000

> <Gold.Chemscore.Hbonds>
donor molecule, donor type, donor heavy atom, donor atom, acceptor molecule, acceptor atom, score
      L1  H    16    30       P1  8028  1.00
      L1  H    18    31       P1  8028  1.00
      P1  H  6896  6909       L1     3  0.98
      P1  H 10752 10763       L1     9  0.85
      L1  C    10    27       P1  7949  0.54

> <Gold.PLP.Chemscore.Internal.Correction>
0.0044

> <Gold.Rescore>
     Score         DG    S(hbond)    S(metal)    S(lipo)     H(rot)  DE(clash)    DE(int)     intcor
      9.46     -11.64       2.97        0.00      36.15       3.12       0.08       2.10       ----

> <Gold.Chemscore.Fitness>
9.4634

> <Gold.Chemscore.DG>
-11.6421

> <Gold.Chemscore.ZeroCoef>
-5.4800

> <Gold.Chemscore.Hbond>
2.9722

> <Gold.Chemscore.Metal>
0.0000

> <Gold.Chemscore.Lipo>
36.1536

> <Gold.Chemscore.Internal_Hbond>
0.0000

> <Gold.Chemscore.DEClash>
0.0814

> <Gold.Chemscore.DEInternal>
2.0973

> <Gold.Chemscore.Rot>
3.1230

> <Gold.Chemscore.Internal.Correction>
   9.000000E+99

> <Gold.Chemscore.Hbonds>
donor molecule, donor type, donor heavy atom, donor atom, acceptor molecule, acceptor atom, score
      L1  H    16    30       P1  8028  0.71
      L1  H    18    31       P1  8028  0.95
      P1  H  6896  6909       L1     3  0.45
      P1  H 10752 10763       L1     9  0.14

> <Gold.Chemscore.Hbond.Weighted>
-9.9271

> <Gold.Chemscore.Metal.Weighted>
-0.0000

> <Gold.Chemscore.Lipo.Weighted>
-4.2300

> <Gold.Chemscore.Internal_Hbond.Weighted>
0.0000

> <Gold.Chemscore.DEClash.Weighted>
0.0814

> <Gold.Chemscore.DEInternal.Weighted>
2.0973

> <Gold.Chemscore.Rot.Weighted>
7.9950

> <Gold.Chemscore.Internal.Correction.Weighted>
   9.000000E+99

> <Gold.Protein.RotatedTorsions>
[ 6907 6896 6895 6894 ] final   31.00 input  -60.11 | X-H torsion
[ 7974 7965 7964 7962 ] final   42.20 input  175.53 | X-H torsion
[ 8008 7997 7996 7995 ] final  -60.48 input   59.86 | X-H torsion
[ 10167 10162 10161 10158 ] final   31.80 input  -65.29 | X-H torsion
[ 10718 10713 10712 10709 ] final  -77.19 input   66.30 | X-H torsion
[ 10763 10752 10751 10750 ] final   50.71 input  -60.55 | X-H torsion
[ 11005 11000 10999 10996 ] final  -49.08 input  -57.11 | X-H torsion

> <Gold.Protein.ActiveResidues>
 VAL166  LYS551  ARG553  GLY616  TRP617  ASP618  TYR619  PRO620  LYS621  CYS622 
 ASP623  PHE694  ASN695  SER759  ASP760  ASP761  ALA762  ILE779  LEU786  VAL792 
 PHE793  MET794  SER795  GLU796  ALA797  LYS798  CYS799  TRP800  GLU811  SER814 

> <Gold.Protein.RotatedAtoms>
  152.0540  134.9636  160.0574 H   0  0  0  0  0  0  0  0  0  0  0  0  # atno 6907 bound_to 6896
  152.1026  133.4253  159.4602 H   0  0  0  0  0  0  0  0  0  0  0  0  # atno 6908 bound_to 6896
  150.6840  134.2662  159.4613 H   0  0  0  0  0  0  0  0  0  0  0  0  # atno 6909 bound_to 6896
  146.0760  139.5327  142.9567 H   0  0  0  0  0  0  0  0  0  0  0  0  # atno 7974 bound_to 7965
  154.4401  140.1038  156.6281 H   0  0  0  0  0  0  0  0  0  0  0  0  # atno 8008 bound_to 7997
  155.5635  140.3488  155.4478 H   0  0  0  0  0  0  0  0  0  0  0  0  # atno 8009 bound_to 7997
  156.0442  140.1289  157.0111 H   0  0  0  0  0  0  0  0  0  0  0  0  # atno 8010 bound_to 7997
  140.4556  144.0983  150.6201 H   0  0  0  0  0  0  0  0  0  0  0  0  # atno 10167 bound_to 10162
  156.0152  130.4485  150.3308 H   0  0  0  0  0  0  0  0  0  0  0  0  # atno 10718 bound_to 10713
  152.9784  135.5870  154.4297 H   0  0  0  0  0  0  0  0  0  0  0  0  # atno 10763 bound_to 10752
  154.3912  135.2768  155.2156 H   0  0  0  0  0  0  0  0  0  0  0  0  # atno 10764 bound_to 10752
  154.4027  135.6100  153.5961 H   0  0  0  0  0  0  0  0  0  0  0  0  # atno 10765 bound_to 10752
  141.0738  133.6671  156.3534 H   0  0  0  0  0  0  0  0  0  0  0  0  # atno 11005 bound_to 11000
  145.6305  141.0305  143.1866 LP  0  0  0  0  0  0  0  0  0  0  0  0  # atno 17320 bound_to 7965
  144.7262  139.7869  143.7364 LP  0  0  0  0  0  0  0  0  0  0  0  0  # atno 17321 bound_to 7965
  140.4155  143.2636  151.9780 LP  0  0  0  0  0  0  0  0  0  0  0  0  # atno 17342 bound_to 10162
  139.4801  144.5877  151.7824 LP  0  0  0  0  0  0  0  0  0  0  0  0  # atno 17343 bound_to 10162
  157.1406  131.0295  151.2929 LP  0  0  0  0  0  0  0  0  0  0  0  0  # atno 17370 bound_to 10713
  157.4475  130.7579  149.7122 LP  0  0  0  0  0  0  0  0  0  0  0  0  # atno 17371 bound_to 10713
  140.5616  134.5928  157.5435 LP  0  0  0  0  0  0  0  0  0  0  0  0  # atno 17394 bound_to 11000
  139.9551  134.7549  156.0360 LP  0  0  0  0  0  0  0  0  0  0  0  0  # atno 17395 bound_to 11000

$$$$
