AV-unprocessed.smi:1870|AV-procd|sdf|7596|dock10
  -GOLD-   22720 9313D 1   1.00000     0.00000
 Structure written by MMmdl.
 48 50  0  0  0  0  0  0  0  0  2 V2000
  145.7545  142.7649  162.1690 C   0  0  0  0  0  0  0  0  0  0  0  0
  145.5799  143.0541  160.7025 C   0  0  0  0  0  0  0  0  0  0  0  0
  146.1688  142.2515  159.8779 N   0  0  0  0  0  0  0  0  0  0  0  0
  146.0589  142.4157  158.5104 N   0  0  0  0  0  0  0  0  0  0  0  0
  146.7196  141.3637  157.7244 C   0  0  0  0  0  0  0  0  0  0  0  0
  148.0723  141.8275  157.1369 C   0  0  1  0  0  0  0  0  0  0  0  0
  147.8187  142.8404  156.1849 O   0  0  0  0  0  0  0  0  0  0  0  0
  149.0390  142.3842  158.2067 C   0  0  0  0  0  0  0  0  0  0  0  0
  150.1862  143.1517  157.6463 N   0  3  2  0  0  0  0  0  0  0  0  0
  151.1662  142.3566  156.8592 C   0  0  0  0  0  0  0  0  0  0  0  0
  151.8592  141.2906  157.7264 C   0  0  0  0  0  0  0  0  0  0  0  0
  152.3125  141.8378  159.0713 C   0  0  0  0  0  0  0  0  0  0  0  0
  153.1816  141.0732  159.8759 C   0  0  0  0  0  0  0  0  0  0  0  0
  153.5707  141.5446  161.1442 C   0  0  0  0  0  0  0  0  0  0  0  0
  153.0888  142.7810  161.6142 C   0  0  0  0  0  0  0  0  0  0  0  0
  152.2193  143.5482  160.8155 C   0  0  0  0  0  0  0  0  0  0  0  0
  151.8263  143.0834  159.5433 C   0  0  0  0  0  0  0  0  0  0  0  0
  150.8972  143.9386  158.6860 C   0  0  0  0  0  0  0  0  0  0  0  0
  145.3780  143.4299  157.9039 C   0  0  0  0  0  0  0  0  0  0  0  0
  145.3235  143.5510  156.6795 O   0  0  0  0  0  0  0  0  0  0  0  0
  144.7114  144.3340  158.8433 C   0  0  0  0  0  0  0  0  0  0  0  0
  143.9603  145.3922  158.2488 C   0  0  0  0  0  0  0  0  0  0  0  0
  143.3476  146.2375  157.7489 N   0  0  0  0  0  0  0  0  0  0  0  0
  144.7930  144.1694  160.1872 C   0  0  0  0  0  0  0  0  0  0  0  0
  144.1140  145.0767  161.2037 C   0  0  0  0  0  0  0  0  0  0  0  0
  146.3024  143.5699  162.6589 H   0  0  0  0  0  0  0  0  0  0  0  0
  146.3063  141.8392  162.3386 H   0  0  0  0  0  0  0  0  0  0  0  0
  144.7875  142.6636  162.6620 H   0  0  0  0  0  0  0  0  0  0  0  0
  146.8672  140.4830  158.3523 H   0  0  0  0  0  0  0  0  0  0  0  0
  146.0639  141.0349  156.9155 H   0  0  0  0  0  0  0  0  0  0  0  0
  148.5177  140.9870  156.6091 H   0  0  0  0  0  0  0  0  0  0  0  0
  148.4134  143.5587  156.3394 H   0  0  0  0  0  0  0  0  0  0  0  0
  148.4735  143.0237  158.8862 H   0  0  0  0  0  0  0  0  0  0  0  0
  149.4316  141.5812  158.8281 H   0  0  0  0  0  0  0  0  0  0  0  0
  150.7110  141.9039  155.9799 H   0  0  0  0  0  0  0  0  0  0  0  0
  151.9185  143.0448  156.4704 H   0  0  0  0  0  0  0  0  0  0  0  0
  151.1853  140.4516  157.9054 H   0  0  0  0  0  0  0  0  0  0  0  0
  152.7187  140.8839  157.1928 H   0  0  0  0  0  0  0  0  0  0  0  0
  153.5461  140.1184  159.5256 H   0  0  0  0  0  0  0  0  0  0  0  0
  154.2355  140.9553  161.7586 H   0  0  0  0  0  0  0  0  0  0  0  0
  153.3871  143.1414  162.5878 H   0  0  0  0  0  0  0  0  0  0  0  0
  151.8584  144.4984  161.1815 H   0  0  0  0  0  0  0  0  0  0  0  0
  151.4996  144.7048  158.1963 H   0  0  0  0  0  0  0  0  0  0  0  0
  150.1823  144.4684  159.3172 H   0  0  0  0  0  0  0  0  0  0  0  0
  143.6404  145.9390  160.7352 H   0  0  0  0  0  0  0  0  0  0  0  0
  144.8363  145.4576  161.9262 H   0  0  0  0  0  0  0  0  0  0  0  0
  143.3416  144.5288  161.7446 H   0  0  0  0  0  0  0  0  0  0  0  0
  149.7804  143.8242  157.0109 H   0  0  0  0  0  0  0  0  0  0  0  0
  1  2  1  0  0  0  0
  1 26  1  0  0  0  0
  1 27  1  0  0  0  0
  1 28  1  0  0  0  0
  2 24  1  0  0  0  0
  2  3  2  0  0  0  0
  3  4  1  0  0  0  0
  4  5  1  0  0  0  0
  4 19  1  0  0  0  0
  5  6  1  0  0  0  0
  5 29  1  0  0  0  0
  5 30  1  0  0  0  0
  6  7  1  0  0  0  0
  6  8  1  0  0  0  0
  6 31  1  0  0  0  0
  7 32  1  0  0  0  0
  8  9  1  0  0  0  0
  8 33  1  0  0  0  0
  8 34  1  0  0  0  0
  9 18  1  0  0  0  0
  9 10  1  0  0  0  0
  9 48  1  0  0  0  0
 10 11  1  0  0  0  0
 10 35  1  0  0  0  0
 10 36  1  0  0  0  0
 11 12  1  0  0  0  0
 11 37  1  0  0  0  0
 11 38  1  0  0  0  0
 12 17  2  0  0  0  0
 12 13  1  0  0  0  0
 13 14  2  0  0  0  0
 13 39  1  0  0  0  0
 14 15  1  0  0  0  0
 14 40  1  0  0  0  0
 15 16  2  0  0  0  0
 15 41  1  0  0  0  0
 16 17  1  0  0  0  0
 16 42  1  0  0  0  0
 17 18  1  0  0  0  0
 18 43  1  0  0  0  0
 18 44  1  0  0  0  0
 19 20  2  0  0  0  0
 19 21  1  0  0  0  0
 21 22  1  0  0  0  0
 21 24  2  0  0  0  0
 22 23  3  0  0  0  0
 24 25  1  0  0  0  0
 25 45  1  0  0  0  0
 25 46  1  0  0  0  0
 25 47  1  0  0  0  0
M  CHG  1   9   1
M  END
> <s_m_source_file>
AV-unprocessed.smi

> <i_m_source_file_index>
1870

> <i_lp_mmshare_version>
43012

> <i_f3d_flags>
0

> <s_epik_input>
TiNDYyhjMVtDSDNdKWMoPU8pbihuYzFbQ0gzXSlbQ0gyXVtDQEhdKFtPSF0pW0NIMl1OKFtDSDJdW0NIMl0yKVtDSDJdYyhjMjMpW2NIXVtjSF1bY0hdW2NIXTM=

> <s_epik_cmdline>
J2VwaWtfcHl0aG9uJywgJy1waCcsICc3LjAnLCAnLXRuJywgJzgnLCAnLW1hJywgJzIwMCcsICctbWV0YWxfYmluZGluZycsICctaW1hZScsICc8aW5maWxlLm1hZT4nLCAnLW9tYWUnLCAnPG91dGZpbGUubWFlPic=

> <r_epik_Ionization_Penalty>
0.0122865

> <r_epik_Ionization_Penalty_Charging>
0.0122864

> <r_epik_Ionization_Penalty_Neutral>
1.48087e-07

> <r_epik_State_Penalty>
0.00950248

> <r_epik_Charging_Adjusted_Penalty>
0.0217889

> <i_epik_Tot_Q>
1

> <i_epik_Tot_abs_Q>
1

> <r_epik_Metal_State_Penalty>
0.00950248

> <b_epik_Metal_Only>
0

> <s_lp_Force_Field>
OPLS_2005

> <r_lp_Energy>
37.2352

> <b_lp_Chiralities_Consistent>
1

> <s_lp_Variant>
AV-unprocessed.smi:1870-4

> <Gold.Version>
5.8.1

> <Gold.Id.Protein>
6NUR|6NUR_protein|mol2

> <Gold.PLP.Fitness>
54.7368

> <Gold.PLP.PLP>
-43.5817

> <Gold.PLP.part.hbond>
-3.0000

> <Gold.PLP.part.metal>
0.0000

> <Gold.PLP.part.buried>
-8.0681

> <Gold.PLP.part.nonpolar>
-32.7070

> <Gold.PLP.part.repulsive>
0.1715

> <Gold.PLP.ligand.clash>
0.0000

> <Gold.PLP.ligand.torsion>
0.4357

> <Gold.PLP.Chemscore.Hbond>
4.0000

> <Gold.PLP.Chemscore.CHOScore>
0.0000

> <Gold.PLP.Chemscore.Metal>
0.0000

> <Gold.Chemscore.Hbonds>
donor molecule, donor type, donor heavy atom, donor atom, acceptor molecule, acceptor atom, score
      L1  H     7    32       P1  8028  0.54
      L1  H     9    48       P1  8028  2.00
      P1  H  6934  6946       L1     3  1.00

> <Gold.PLP.Chemscore.Internal.Correction>
0.0265

> <Gold.Rescore>
     Score         DG    S(hbond)    S(metal)    S(lipo)     H(rot)  DE(clash)    DE(int)     intcor
     20.59     -22.37       2.81        0.00     111.36       2.16       0.00       1.78       ----

> <Gold.Chemscore.Fitness>
20.5861

> <Gold.Chemscore.DG>
-22.3681

> <Gold.Chemscore.ZeroCoef>
-5.4800

> <Gold.Chemscore.Hbond>
2.8132

> <Gold.Chemscore.Metal>
0.0000

> <Gold.Chemscore.Lipo>
111.3576

> <Gold.Chemscore.Internal_Hbond>
0.0000

> <Gold.Chemscore.DEClash>
0.0000

> <Gold.Chemscore.DEInternal>
1.7820

> <Gold.Chemscore.Rot>
2.1628

> <Gold.Chemscore.Internal.Correction>
   9.000000E+99

> <Gold.Chemscore.Hbonds>
donor molecule, donor type, donor heavy atom, donor atom, acceptor molecule, acceptor atom, score
      L1  H     7    32       P1  8028  0.23
      L1  H     9    48       P1  8028  0.93
      P1  H  6934  6946       L1     3  0.82

> <Gold.Chemscore.Hbond.Weighted>
-9.3960

> <Gold.Chemscore.Metal.Weighted>
-0.0000

> <Gold.Chemscore.Lipo.Weighted>
-13.0288

> <Gold.Chemscore.Internal_Hbond.Weighted>
0.0000

> <Gold.Chemscore.DEClash.Weighted>
0.0000

> <Gold.Chemscore.DEInternal.Weighted>
1.7820

> <Gold.Chemscore.Rot.Weighted>
5.5367

> <Gold.Chemscore.Internal.Correction.Weighted>
   9.000000E+99

> <Gold.Protein.RotatedTorsions>
[ 6907 6896 6895 6894 ] final -137.28 input  -60.11 | X-H torsion
[ 7974 7965 7964 7962 ] final -134.28 input  175.53 | X-H torsion
[ 8008 7997 7996 7995 ] final  -67.48 input   59.86 | X-H torsion
[ 10167 10162 10161 10158 ] final -171.12 input  -65.29 | X-H torsion
[ 10718 10713 10712 10709 ] final  -97.54 input   66.30 | X-H torsion
[ 10763 10752 10751 10750 ] final  103.25 input  -60.55 | X-H torsion
[ 11005 11000 10999 10996 ] final -135.78 input  -57.11 | X-H torsion

> <Gold.Protein.ActiveResidues>
 VAL166  LYS551  ARG553  GLY616  TRP617  ASP618  TYR619  PRO620  LYS621  CYS622 
 ASP623  PHE694  ASN695  SER759  ASP760  ASP761  ALA762  ILE779  LEU786  VAL792 
 PHE793  MET794  SER795  GLU796  ALA797  LYS798  CYS799  TRP800  GLU811  SER814 

> <Gold.Protein.RotatedAtoms>
  151.0205  133.5881  159.2671 H   0  0  0  0  0  0  0  0  0  0  0  0  # atno 6907 bound_to 6896
  151.2999  135.0765  159.9244 H   0  0  0  0  0  0  0  0  0  0  0  0  # atno 6908 bound_to 6896
  152.5322  133.9889  159.7895 H   0  0  0  0  0  0  0  0  0  0  0  0  # atno 6909 bound_to 6896
  144.9117  140.6903  143.5021 H   0  0  0  0  0  0  0  0  0  0  0  0  # atno 7974 bound_to 7965
  154.4802  140.0892  156.7360 H   0  0  0  0  0  0  0  0  0  0  0  0  # atno 8008 bound_to 7997
  155.4489  140.3456  155.4280 H   0  0  0  0  0  0  0  0  0  0  0  0  # atno 8009 bound_to 7997
  156.1180  140.1466  156.9233 H   0  0  0  0  0  0  0  0  0  0  0  0  # atno 8010 bound_to 7997
  139.5821  144.1400  152.1528 H   0  0  0  0  0  0  0  0  0  0  0  0  # atno 10167 bound_to 10162
  156.0086  130.5198  150.6389 H   0  0  0  0  0  0  0  0  0  0  0  0  # atno 10718 bound_to 10713
  153.3503  135.3983  155.1640 H   0  0  0  0  0  0  0  0  0  0  0  0  # atno 10763 bound_to 10752
  154.8661  135.3655  154.5231 H   0  0  0  0  0  0  0  0  0  0  0  0  # atno 10764 bound_to 10752
  153.5682  135.7079  153.5576 H   0  0  0  0  0  0  0  0  0  0  0  0  # atno 10765 bound_to 10752
  140.8866  134.1864  157.4556 H   0  0  0  0  0  0  0  0  0  0  0  0  # atno 11005 bound_to 11000
  145.3443  139.1723  143.4469 LP  0  0  0  0  0  0  0  0  0  0  0  0  # atno 17320 bound_to 7965
  146.3162  140.3488  142.8654 LP  0  0  0  0  0  0  0  0  0  0  0  0  # atno 17321 bound_to 7965
  140.0956  144.5584  150.7024 LP  0  0  0  0  0  0  0  0  0  0  0  0  # atno 17342 bound_to 10162
  140.7098  143.2496  151.4616 LP  0  0  0  0  0  0  0  0  0  0  0  0  # atno 17343 bound_to 10162
  157.4173  131.0832  151.1165 LP  0  0  0  0  0  0  0  0  0  0  0  0  # atno 17370 bound_to 10713
  157.1778  130.6296  149.5661 LP  0  0  0  0  0  0  0  0  0  0  0  0  # atno 17371 bound_to 10713
  139.8725  134.9840  156.5223 LP  0  0  0  0  0  0  0  0  0  0  0  0  # atno 17394 bound_to 11000
  140.8397  133.8214  155.9063 LP  0  0  0  0  0  0  0  0  0  0  0  0  # atno 17395 bound_to 11000

$$$$
