AV-unprocessed.smi:598|AV-procd|sdf|3025|dock9
  -GOLD-   2262023533D 1   1.00000     0.00000
 Structure written by MMmdl.
 43 44  0  0  0  0  0  0  0  0  3 V2000
  152.2791  143.9542  160.8312 C   0  0  0  0  0  0  0  0  0  0  0  0
  152.8533  143.4247  159.5009 C   0  0  2  0  0  0  0  0  0  0  0  0
  152.0740  143.9732  158.2882 C   0  0  0  0  0  0  0  0  0  0  0  0
  150.6869  143.3268  158.1489 C   0  0  0  0  0  0  0  0  0  0  0  0
  150.7939  141.7977  158.0719 C   0  0  0  0  0  0  0  0  0  0  0  0
  151.5640  141.2123  159.2736 C   0  0  1  0  0  0  0  0  0  0  0  0
  151.7059  139.7672  159.1060 N   0  0  0  0  0  0  0  0  0  0  0  0
  152.2995  139.1581  158.0687 C   0  0  0  0  0  0  0  0  0  0  0  0
  152.8223  139.7685  157.1352 O   0  0  0  0  0  0  0  0  0  0  0  0
  152.3176  137.6238  158.1121 C   0  0  0  0  0  0  0  0  0  0  0  0
  150.9952  137.0220  157.8709 N   0  0  0  0  0  0  0  0  0  0  0  0
  150.0409  137.1368  158.9012 C   0  0  0  0  0  0  0  0  0  0  0  0
  148.8024  136.6173  158.7910 C   0  0  0  0  0  0  0  0  0  0  0  0
  147.8371  136.7394  159.8613 N   0  3  0  0  0  0  0  0  0  0  0  0
  146.6838  136.3734  159.6583 O   0  0  0  0  0  0  0  0  0  0  0  0
  148.1979  137.2051  160.9383 O   0  5  0  0  0  0  0  0  0  0  0  0
  148.4687  135.9249  157.5613 C   0  0  0  0  0  0  0  0  0  0  0  0
  149.3781  135.8091  156.5736 C   0  0  0  0  0  0  0  0  0  0  0  0
  150.7266  136.3721  156.6971 C   0  0  0  0  0  0  0  0  0  0  0  0
  151.5635  136.2657  155.8005 O   0  0  0  0  0  0  0  0  0  0  0  0
  152.9569  141.8775  159.4235 C   0  0  2  0  0  0  0  0  0  0  0  0
  153.7844  141.2859  160.5822 C   0  0  0  0  0  0  0  0  0  0  0  0
  151.2802  143.5685  161.0321 H   0  0  0  0  0  0  0  0  0  0  0  0
  152.2129  145.0424  160.8191 H   0  0  0  0  0  0  0  0  0  0  0  0
  152.9128  143.6864  161.6765 H   0  0  0  0  0  0  0  0  0  0  0  0
  153.8666  143.8222  159.4276 H   0  0  0  0  0  0  0  0  0  0  0  0
  151.9747  145.0568  158.3599 H   0  0  0  0  0  0  0  0  0  0  0  0
  152.6458  143.7834  157.3788 H   0  0  0  0  0  0  0  0  0  0  0  0
  150.0551  143.6100  158.9913 H   0  0  0  0  0  0  0  0  0  0  0  0
  150.1913  143.7069  157.2553 H   0  0  0  0  0  0  0  0  0  0  0  0
  149.7937  141.3661  158.0192 H   0  0  0  0  0  0  0  0  0  0  0  0
  151.2966  141.5215  157.1438 H   0  0  0  0  0  0  0  0  0  0  0  0
  150.9932  141.4048  160.1837 H   0  0  0  0  0  0  0  0  0  0  0  0
  151.3099  139.1869  159.8312 H   0  0  0  0  0  0  0  0  0  0  0  0
  153.0392  137.2730  157.3733 H   0  0  0  0  0  0  0  0  0  0  0  0
  152.7115  137.2910  159.0746 H   0  0  0  0  0  0  0  0  0  0  0  0
  150.3892  137.6635  159.7780 H   0  0  0  0  0  0  0  0  0  0  0  0
  147.4879  135.4936  157.4237 H   0  0  0  0  0  0  0  0  0  0  0  0
  149.1082  135.2881  155.6666 H   0  0  0  0  0  0  0  0  0  0  0  0
  153.5143  141.6555  158.5117 H   0  0  0  0  0  0  0  0  0  0  0  0
  153.2491  141.3471  161.5301 H   0  0  0  0  0  0  0  0  0  0  0  0
  154.7316  141.8131  160.6971 H   0  0  0  0  0  0  0  0  0  0  0  0
  154.0213  140.2359  160.4096 H   0  0  0  0  0  0  0  0  0  0  0  0
  1  2  1  0  0  0  0
  1 23  1  0  0  0  0
  1 24  1  0  0  0  0
  1 25  1  0  0  0  0
  2 21  1  0  0  0  0
  2  3  1  0  0  0  0
  2 26  1  0  0  0  0
  3  4  1  0  0  0  0
  3 27  1  0  0  0  0
  3 28  1  0  0  0  0
  4  5  1  0  0  0  0
  4 29  1  0  0  0  0
  4 30  1  0  0  0  0
  5  6  1  0  0  0  0
  5 31  1  0  0  0  0
  5 32  1  0  0  0  0
  6  7  1  0  0  0  0
  6 21  1  0  0  0  0
  6 33  1  0  0  0  0
  7  8  1  0  0  0  0
  7 34  1  0  0  0  0
  8  9  2  0  0  0  0
  8 10  1  0  0  0  0
 10 11  1  0  0  0  0
 10 35  1  0  0  0  0
 10 36  1  0  0  0  0
 11 19  1  0  0  0  0
 11 12  1  0  0  0  0
 12 13  2  0  0  0  0
 12 37  1  0  0  0  0
 13 14  1  0  0  0  0
 13 17  1  0  0  0  0
 14 15  2  0  0  0  0
 14 16  1  0  0  0  0
 17 18  2  0  0  0  0
 17 38  1  0  0  0  0
 18 19  1  0  0  0  0
 18 39  1  0  0  0  0
 19 20  2  0  0  0  0
 21 22  1  0  0  0  0
 21 40  1  0  0  0  0
 22 41  1  0  0  0  0
 22 42  1  0  0  0  0
 22 43  1  0  0  0  0
M  CHG  1  14   1
M  CHG  1  16  -1
M  END
> <s_m_source_file>
AV-unprocessed.smi

> <i_m_source_file_index>
598

> <i_lp_mmshare_version>
43012

> <i_f3d_flags>
0

> <s_epik_input>
W0NIM11bQ0BASF0xW0NIMl1bQ0gyXVtDSDJdW0NASF0oW0NASF0xW0NIM10pW05IXUMoPU8pW0NIMl1uMltjSF1jKFtOK10oPU8pW08tXSlbY0hdW2NIXWMyPU8=

> <s_epik_cmdline>
J2VwaWtfcHl0aG9uJywgJy1waCcsICc3LjAnLCAnLXRuJywgJzgnLCAnLW1hJywgJzIwMCcsICctbWV0YWxfYmluZGluZycsICctaW1hZScsICc8aW5maWxlLm1hZT4nLCAnLW9tYWUnLCAnPG91dGZpbGUubWFlPic=

> <r_lp_tautomer_probability>
1

> <r_epik_Ionization_Penalty>
1.91291e-08

> <r_epik_Ionization_Penalty_Charging>
8.21931e-11

> <r_epik_Ionization_Penalty_Neutral>
1.90469e-08

> <r_epik_State_Penalty>
-0

> <r_epik_Charging_Adjusted_Penalty>
8.21931e-11

> <i_epik_Tot_Q>
0

> <i_epik_Tot_abs_Q>
2

> <r_epik_Metal_State_Penalty>
-0

> <b_epik_Metal_Only>
0

> <s_lp_Force_Field>
OPLS_2005

> <r_lp_Energy>
25.21

> <b_lp_Chiralities_Consistent>
1

> <s_lp_Variant>
AV-unprocessed.smi:598-5

> <Gold.Version>
5.8.1

> <Gold.Id.Protein>
6NUR|6NUR_protein|mol2

> <Gold.PLP.Fitness>
47.7923

> <Gold.PLP.PLP>
-37.7467

> <Gold.PLP.part.hbond>
-3.9434

> <Gold.PLP.part.metal>
0.0000

> <Gold.PLP.part.buried>
-3.7769

> <Gold.PLP.part.nonpolar>
-30.4191

> <Gold.PLP.part.repulsive>
0.1893

> <Gold.PLP.ligand.clash>
0.0000

> <Gold.PLP.ligand.torsion>
0.2860

> <Gold.PLP.Chemscore.Hbond>
3.5360

> <Gold.PLP.Chemscore.CHOScore>
0.0000

> <Gold.PLP.Chemscore.Metal>
0.0000

> <Gold.Chemscore.Hbonds>
donor molecule, donor type, donor heavy atom, donor atom, acceptor molecule, acceptor atom, score
      P1  H  6931  6943       L1    16  0.93
      P1  H  6934  6947       L1    16  0.57
      P1  H  7997  8008       L1     9  1.00
      P1  H 10752 10765       L1    20  1.00

> <Gold.PLP.Chemscore.Internal.Correction>
0.0096

> <Gold.Rescore>
     Score         DG    S(hbond)    S(metal)    S(lipo)     H(rot)  DE(clash)    DE(int)     intcor
     23.11     -24.27       3.53        0.00      93.45       1.54       0.00       1.16       ----

> <Gold.Chemscore.Fitness>
23.1116

> <Gold.Chemscore.DG>
-24.2733

> <Gold.Chemscore.ZeroCoef>
-5.4800

> <Gold.Chemscore.Hbond>
3.5330

> <Gold.Chemscore.Metal>
0.0000

> <Gold.Chemscore.Lipo>
93.4527

> <Gold.Chemscore.Internal_Hbond>
0.0000

> <Gold.Chemscore.DEClash>
0.0000

> <Gold.Chemscore.DEInternal>
1.1618

> <Gold.Chemscore.Rot>
1.5393

> <Gold.Chemscore.Internal.Correction>
   9.000000E+99

> <Gold.Chemscore.Hbonds>
donor molecule, donor type, donor heavy atom, donor atom, acceptor molecule, acceptor atom, score
      P1  H  6931  6943       L1    16  0.91
      P1  H  6934  6947       L1    16  0.17
      P1  H  7997  8008       L1     9  0.99
      P1  H 10752 10765       L1    20  1.00

> <Gold.Chemscore.Hbond.Weighted>
-11.8001

> <Gold.Chemscore.Metal.Weighted>
-0.0000

> <Gold.Chemscore.Lipo.Weighted>
-10.9340

> <Gold.Chemscore.Internal_Hbond.Weighted>
0.0000

> <Gold.Chemscore.DEClash.Weighted>
0.0000

> <Gold.Chemscore.DEInternal.Weighted>
1.1618

> <Gold.Chemscore.Rot.Weighted>
3.9407

> <Gold.Chemscore.Internal.Correction.Weighted>
   9.000000E+99

> <Gold.Protein.RotatedTorsions>
[ 6907 6896 6895 6894 ] final -135.94 input  -60.11 | X-H torsion
[ 7974 7965 7964 7962 ] final   12.65 input  175.53 | X-H torsion
[ 8008 7997 7996 7995 ] final  -52.54 input   59.86 | X-H torsion
[ 10167 10162 10161 10158 ] final  -95.61 input  -65.29 | X-H torsion
[ 10718 10713 10712 10709 ] final  -90.92 input   66.30 | X-H torsion
[ 10763 10752 10751 10750 ] final -171.90 input  -60.55 | X-H torsion
[ 11005 11000 10999 10996 ] final -152.53 input  -57.11 | X-H torsion

> <Gold.Protein.ActiveResidues>
 VAL166  LYS551  ARG553  GLY616  TRP617  ASP618  TYR619  PRO620  LYS621  CYS622 
 ASP623  PHE694  ASN695  SER759  ASP760  ASP761  ALA762  ILE779  LEU786  VAL792 
 PHE793  MET794  SER795  GLU796  ALA797  LYS798  CYS799  TRP800  GLU811  SER814 

> <Gold.Protein.RotatedAtoms>
  151.0040  133.6029  159.2691 H   0  0  0  0  0  0  0  0  0  0  0  0  # atno 6907 bound_to 6896
  151.3205  135.0816  159.9314 H   0  0  0  0  0  0  0  0  0  0  0  0  # atno 6908 bound_to 6896
  152.5281  133.9688  159.7806 H   0  0  0  0  0  0  0  0  0  0  0  0  # atno 6909 bound_to 6896
  146.2347  139.9305  142.8497 H   0  0  0  0  0  0  0  0  0  0  0  0  # atno 7974 bound_to 7965
  154.4109  140.1221  156.5009 H   0  0  0  0  0  0  0  0  0  0  0  0  # atno 8008 bound_to 7997
  155.6896  140.3495  155.4869 H   0  0  0  0  0  0  0  0  0  0  0  0  # atno 8009 bound_to 7997
  155.9480  140.1099  157.0990 H   0  0  0  0  0  0  0  0  0  0  0  0  # atno 8010 bound_to 7997
  140.3023  143.3155  152.0235 H   0  0  0  0  0  0  0  0  0  0  0  0  # atno 10167 bound_to 10162
  155.9990  130.4928  150.5396 H   0  0  0  0  0  0  0  0  0  0  0  0  # atno 10718 bound_to 10713
  154.6253  135.2880  155.0279 H   0  0  0  0  0  0  0  0  0  0  0  0  # atno 10763 bound_to 10752
  154.1459  135.6511  153.4956 H   0  0  0  0  0  0  0  0  0  0  0  0  # atno 10764 bound_to 10752
  153.0254  135.5344  154.7059 H   0  0  0  0  0  0  0  0  0  0  0  0  # atno 10765 bound_to 10752
  140.7179  134.3760  157.5188 H   0  0  0  0  0  0  0  0  0  0  0  0  # atno 11005 bound_to 11000
  145.2049  140.9870  143.4134 LP  0  0  0  0  0  0  0  0  0  0  0  0  # atno 17320 bound_to 7965
  144.9741  139.3849  143.6294 LP  0  0  0  0  0  0  0  0  0  0  0  0  # atno 17321 bound_to 7965
  139.4912  144.6446  151.6805 LP  0  0  0  0  0  0  0  0  0  0  0  0  # atno 17342 bound_to 10162
  140.5640  144.0221  150.6183 LP  0  0  0  0  0  0  0  0  0  0  0  0  # atno 17343 bound_to 10162
  157.3334  131.0703  151.1843 LP  0  0  0  0  0  0  0  0  0  0  0  0  # atno 17370 bound_to 10713
  157.2716  130.6707  149.6022 LP  0  0  0  0  0  0  0  0  0  0  0  0  # atno 17371 bound_to 10713
  139.8855  134.8935  156.2638 LP  0  0  0  0  0  0  0  0  0  0  0  0  # atno 17394 bound_to 11000
  141.0028  133.7141  156.0988 LP  0  0  0  0  0  0  0  0  0  0  0  0  # atno 17395 bound_to 11000

$$$$
