AV-unprocessed.smi:158|AV-procd|sdf|1324|dock9
  -GOLD-   2262019 23D 1   1.00000     0.00000
 Structure written by MMmdl.
 31 33  0  0  0  0  0  0  0  0  1 V2000
  147.3354  138.2671  154.8212 N   0  0  0  0  0  0  0  0  0  0  0  0
  147.0034  136.9849  154.6142 C   0  0  0  0  0  0  0  0  0  0  0  0
  147.3639  136.0682  155.5424 N   0  0  0  0  0  0  0  0  0  0  0  0
  147.0515  134.7774  155.3739 C   0  0  0  0  0  0  0  0  0  0  0  0
  147.5592  133.6956  156.6166 Cl  0  0  0  0  0  0  0  0  0  0  0  0
  146.3872  134.2309  154.3503 N   0  0  0  0  0  0  0  0  0  0  0  0
  146.0218  135.1512  153.4117 C   0  0  0  0  0  0  0  0  0  0  0  0
  146.2930  136.5444  153.4708 C   0  0  0  0  0  0  0  0  0  0  0  0
  145.7765  137.1755  152.3477 N   0  0  0  0  0  0  0  0  0  0  0  0
  145.2313  136.2039  151.6653 C   0  0  0  0  0  0  0  0  0  0  0  0
  145.3262  134.9531  152.2357 N   0  0  0  0  0  0  0  0  0  0  0  0
  144.8108  133.6610  151.6865 C   0  0  1  0  0  0  0  0  0  0  0  0
  144.1657  133.9119  150.4738 O   0  0  0  0  0  0  0  0  0  0  0  0
  144.7894  133.1910  149.4116 C   0  0  2  0  0  0  0  0  0  0  0  0
  143.7284  132.7375  148.3967 C   0  0  0  0  0  0  0  0  0  0  0  0
  143.4404  133.7829  147.4931 O   0  0  0  0  0  0  0  0  0  0  0  0
  145.4836  132.0259  150.1236 C   0  0  1  0  0  0  0  0  0  0  0  0
  146.5824  131.5406  149.3786 O   0  0  0  0  0  0  0  0  0  0  0  0
  145.9459  132.6704  151.4155 C   0  0  2  0  0  0  0  0  0  0  0  0
  146.0287  131.7855  152.4096 F   0  0  0  0  0  0  0  0  0  0  0  0
  144.0860  133.3032  152.4193 H   0  0  0  0  0  0  0  0  0  0  0  0
  145.5374  133.8271  148.9356 H   0  0  0  0  0  0  0  0  0  0  0  0
  144.7743  131.2231  150.3307 H   0  0  0  0  0  0  0  0  0  0  0  0
  146.9021  133.1837  151.3061 H   0  0  0  0  0  0  0  0  0  0  0  0
  147.0767  138.9690  154.1425 H   0  0  0  0  0  0  0  0  0  0  0  0
  147.8447  138.5287  155.6529 H   0  0  0  0  0  0  0  0  0  0  0  0
  144.7381  136.3757  150.7196 H   0  0  0  0  0  0  0  0  0  0  0  0
  144.1040  131.8968  147.8123 H   0  0  0  0  0  0  0  0  0  0  0  0
  142.8185  132.4035  148.8960 H   0  0  0  0  0  0  0  0  0  0  0  0
  144.2132  134.3177  147.3957 H   0  0  0  0  0  0  0  0  0  0  0  0
  147.2836  131.3331  149.9775 H   0  0  0  0  0  0  0  0  0  0  0  0
  1  2  1  0  0  0  0
  1 25  1  0  0  0  0
  1 26  1  0  0  0  0
  2  8  1  0  0  0  0
  2  3  2  0  0  0  0
  3  4  1  0  0  0  0
  4  5  1  0  0  0  0
  4  6  2  0  0  0  0
  6  7  1  0  0  0  0
  7 11  1  0  0  0  0
  7  8  2  0  0  0  0
  8  9  1  0  0  0  0
  9 10  2  0  0  0  0
 10 11  1  0  0  0  0
 10 27  1  0  0  0  0
 11 12  1  0  0  0  0
 12 21  1  0  0  0  0
 12 19  1  0  0  0  0
 12 13  1  0  0  0  0
 13 14  1  0  0  0  0
 14 22  1  0  0  0  0
 14 15  1  0  0  0  0
 14 17  1  0  0  0  0
 15 16  1  0  0  0  0
 15 28  1  0  0  0  0
 15 29  1  0  0  0  0
 16 30  1  0  0  0  0
 17 23  1  0  0  0  0
 17 18  1  0  0  0  0
 17 19  1  0  0  0  0
 18 31  1  0  0  0  0
 19 24  1  0  0  0  0
 19 20  1  0  0  0  0
M  END
> <s_m_source_file>
AV-unprocessed.smi

> <i_m_source_file_index>
158

> <i_lp_mmshare_version>
43012

> <i_f3d_flags>
0

> <s_epik_input>
Q2xjKG4xKW5jKFtOSDJdKWMoYzEyKW5bY0hdbjJbQ0BASF0zT1tDQEhdKFtDSDJdW09IXSlbQ0BASF0oW09IXSlbQ0BASF0zRg==

> <s_epik_cmdline>
J2VwaWtfcHl0aG9uJywgJy1waCcsICc3LjAnLCAnLXRuJywgJzgnLCAnLW1hJywgJzIwMCcsICctbWV0YWxfYmluZGluZycsICctaW1hZScsICc8aW5maWxlLm1hZT4nLCAnLW9tYWUnLCAnPG91dGZpbGUubWFlPic=

> <r_lp_tautomer_probability>
1

> <r_epik_Ionization_Penalty>
6.51543e-05

> <r_epik_Ionization_Penalty_Charging>
0

> <r_epik_Ionization_Penalty_Neutral>
6.51543e-05

> <r_epik_State_Penalty>
-0

> <r_epik_Charging_Adjusted_Penalty>
0

> <i_epik_Tot_Q>
0

> <i_epik_Tot_abs_Q>
0

> <r_epik_Metal_State_Penalty>
-0

> <b_epik_Metal_Only>
0

> <s_epik_Chemistry_Notes>
This compound contains an acetal/aminal-like group ( X-CH(R)-Y where X, Y are N, S, or O) that may be acid/base labile, releasing an aldehyde.

> <s_lp_Force_Field>
OPLS_2005

> <r_lp_Energy>
33.0982

> <b_lp_Chiralities_Consistent>
1

> <s_lp_Variant>
AV-unprocessed.smi:158-2

> <Gold.Version>
5.8.1

> <Gold.Id.Protein>
6NUR|6NUR_protein|mol2

> <Gold.PLP.Fitness>
37.4624

> <Gold.PLP.PLP>
-26.0185

> <Gold.PLP.part.hbond>
-4.7622

> <Gold.PLP.part.metal>
0.0000

> <Gold.PLP.part.buried>
-2.6121

> <Gold.PLP.part.nonpolar>
-18.9548

> <Gold.PLP.part.repulsive>
0.5287

> <Gold.PLP.ligand.clash>
0.0000

> <Gold.PLP.ligand.torsion>
0.2085

> <Gold.PLP.Chemscore.Hbond>
2.9920

> <Gold.PLP.Chemscore.CHOScore>
0.9587

> <Gold.PLP.Chemscore.Metal>
0.0000

> <Gold.Chemscore.Hbonds>
donor molecule, donor type, donor heavy atom, donor atom, acceptor molecule, acceptor atom, score
      L1  H    16    30       P1  7921  1.00
      L1  H    18    31       P1 10747  0.98
      P1  H 10192 10197       L1    16  1.00
      L1  C    10    27       P1 10171  0.95

> <Gold.PLP.Chemscore.Internal.Correction>
0.0087

> <Gold.Rescore>
     Score         DG    S(hbond)    S(metal)    S(lipo)     H(rot)  DE(clash)    DE(int)     intcor
     10.46     -12.39       2.86        0.00      45.79       3.12       1.61       0.32       ----

> <Gold.Chemscore.Fitness>
10.4577

> <Gold.Chemscore.DG>
-12.3895

> <Gold.Chemscore.ZeroCoef>
-5.4800

> <Gold.Chemscore.Hbond>
2.8586

> <Gold.Chemscore.Metal>
0.0000

> <Gold.Chemscore.Lipo>
45.7854

> <Gold.Chemscore.Internal_Hbond>
0.0000

> <Gold.Chemscore.DEClash>
1.6109

> <Gold.Chemscore.DEInternal>
0.3209

> <Gold.Chemscore.Rot>
3.1230

> <Gold.Chemscore.Internal.Correction>
   9.000000E+99

> <Gold.Chemscore.Hbonds>
donor molecule, donor type, donor heavy atom, donor atom, acceptor molecule, acceptor atom, score
      L1  H    16    30       P1  7921  0.98
      L1  H    18    31       P1 10747  0.93
      P1  H 10192 10197       L1    16  0.25

> <Gold.Chemscore.Hbond.Weighted>
-9.5476

> <Gold.Chemscore.Metal.Weighted>
-0.0000

> <Gold.Chemscore.Lipo.Weighted>
-5.3569

> <Gold.Chemscore.Internal_Hbond.Weighted>
0.0000

> <Gold.Chemscore.DEClash.Weighted>
1.6109

> <Gold.Chemscore.DEInternal.Weighted>
0.3209

> <Gold.Chemscore.Rot.Weighted>
7.9950

> <Gold.Chemscore.Internal.Correction.Weighted>
   9.000000E+99

> <Gold.Protein.RotatedTorsions>
[ 6907 6896 6895 6894 ] final  110.04 input  -60.11 | X-H torsion
[ 7974 7965 7964 7962 ] final -131.98 input  175.53 | X-H torsion
[ 8008 7997 7996 7995 ] final -150.00 input   59.86 | X-H torsion
[ 10167 10162 10161 10158 ] final -109.04 input  -65.29 | X-H torsion
[ 10718 10713 10712 10709 ] final    7.80 input   66.30 | X-H torsion
[ 10763 10752 10751 10750 ] final -136.39 input  -60.55 | X-H torsion
[ 11005 11000 10999 10996 ] final  -29.86 input  -57.11 | X-H torsion

> <Gold.Protein.ActiveResidues>
 VAL166  LYS551  ARG553  GLY616  TRP617  ASP618  TYR619  PRO620  LYS621  CYS622 
 ASP623  PHE694  ASN695  SER759  ASP760  ASP761  ALA762  ILE779  LEU786  VAL792 
 PHE793  MET794  SER795  GLU796  ALA797  LYS798  CYS799  TRP800  GLU811  SER814 

> <Gold.Protein.RotatedAtoms>
  152.5038  133.8857  159.7368 H   0  0  0  0  0  0  0  0  0  0  0  0  # atno 6907 bound_to 6896
  150.9308  133.6760  159.2818 H   0  0  0  0  0  0  0  0  0  0  0  0  # atno 6908 bound_to 6896
  151.4105  135.0989  159.9636 H   0  0  0  0  0  0  0  0  0  0  0  0  # atno 6909 bound_to 6896
  144.9328  140.7148  143.4895 H   0  0  0  0  0  0  0  0  0  0  0  0  # atno 7974 bound_to 7965
  155.6165  140.0677  157.2690 H   0  0  0  0  0  0  0  0  0  0  0  0  # atno 8008 bound_to 7997
  154.4240  140.1792  156.1375 H   0  0  0  0  0  0  0  0  0  0  0  0  # atno 8009 bound_to 7997
  156.0043  140.3333  155.6880 H   0  0  0  0  0  0  0  0  0  0  0  0  # atno 8010 bound_to 7997
  140.1596  143.4131  152.1435 H   0  0  0  0  0  0  0  0  0  0  0  0  # atno 10167 bound_to 10162
  156.9422  130.5865  149.5653 H   0  0  0  0  0  0  0  0  0  0  0  0  # atno 10718 bound_to 10713
  154.8684  135.3674  154.5053 H   0  0  0  0  0  0  0  0  0  0  0  0  # atno 10763 bound_to 10752
  153.5692  135.7021  153.5517 H   0  0  0  0  0  0  0  0  0  0  0  0  # atno 10764 bound_to 10752
  153.3558  135.4060  155.1644 H   0  0  0  0  0  0  0  0  0  0  0  0  # atno 10765 bound_to 10752
  140.9332  133.7325  156.0967 H   0  0  0  0  0  0  0  0  0  0  0  0  # atno 11005 bound_to 11000
  145.3115  139.1817  143.4636 LP  0  0  0  0  0  0  0  0  0  0  0  0  # atno 17320 bound_to 7965
  146.3254  140.3120  142.8627 LP  0  0  0  0  0  0  0  0  0  0  0  0  # atno 17321 bound_to 7965
  139.5387  144.7236  151.4805 LP  0  0  0  0  0  0  0  0  0  0  0  0  # atno 17342 bound_to 10162
  140.6651  143.8414  150.6933 LP  0  0  0  0  0  0  0  0  0  0  0  0  # atno 17343 bound_to 10162
  156.0399  130.5483  150.8746 LP  0  0  0  0  0  0  0  0  0  0  0  0  # atno 17370 bound_to 10713
  157.5777  131.0946  150.9319 LP  0  0  0  0  0  0  0  0  0  0  0  0  # atno 17371 bound_to 10713
  140.7834  134.3700  157.5482 LP  0  0  0  0  0  0  0  0  0  0  0  0  # atno 17394 bound_to 11000
  139.8801  134.9096  156.2993 LP  0  0  0  0  0  0  0  0  0  0  0  0  # atno 17395 bound_to 11000

$$$$
