AV-unprocessed.smi:258|AV-procd|sdf|1967|dock1
  -GOLD-   2262021123D 1   1.00000     0.00000
 Structure written by MMmdl.
 57 60  0  0  0  0  0  0  0  0  1 V2000
  151.8098  146.4345  160.4832 O   0  0  0  0  0  0  0  0  0  0  0  0
  151.8693  145.6491  159.3115 C   0  0  0  0  0  0  0  0  0  0  0  0
  151.5121  144.1921  159.6305 C   0  0  0  0  0  0  0  0  0  0  0  0
  152.6455  143.5542  160.2015 O   0  0  0  0  0  0  0  0  0  0  0  0
  152.6332  142.1352  160.1154 C   0  0  2  0  0  0  0  0  0  0  0  0
  153.9599  141.5320  160.6177 C   0  0  0  0  0  0  0  0  0  0  0  0
  153.9753  140.0151  160.3784 C   0  0  0  0  0  0  0  0  0  0  0  0
  153.7156  139.6837  158.9001 C   0  0  0  0  0  0  0  0  0  0  0  0
  152.4881  140.3265  158.4271 N   0  0  0  0  0  0  0  0  0  0  0  0
  151.9322  139.7955  157.3064 C   0  0  0  0  0  0  0  0  0  0  0  0
  152.2766  138.5204  156.9870 N   0  0  0  0  0  0  0  0  0  0  0  0
  151.7638  137.9274  155.9059 C   0  0  0  0  0  0  0  0  0  0  0  0
  150.9006  138.4189  155.0165 N   0  0  0  0  0  0  0  0  0  0  0  0
  150.5498  139.6997  155.3239 C   0  0  0  0  0  0  0  0  0  0  0  0
  151.0121  140.4595  156.4382 C   0  0  0  0  0  0  0  0  0  0  0  0
  150.4388  141.7273  156.4023 N   0  0  0  0  0  0  0  0  0  0  0  0
  149.6786  141.7129  155.3427 C   0  0  0  0  0  0  0  0  0  0  0  0
  149.6792  140.5312  154.6403 N   0  0  0  0  0  0  0  0  0  0  0  0
  148.9254  140.2458  153.4315 C   0  0  0  0  0  0  0  0  0  0  0  0
  147.4154  140.0245  153.6933 C   0  0  1  0  0  0  0  0  0  0  0  0
  147.1452  138.5600  154.1118 C   0  0  0  0  0  0  0  0  0  0  0  0
  147.0348  137.7310  152.9735 O   0  0  0  0  0  0  0  0  0  0  0  0
  146.8220  141.0717  154.6775 C   0  0  2  0  0  0  0  0  0  0  0  0
  145.4154  140.7827  155.1929 C   0  0  0  0  0  0  0  0  0  0  0  0
  144.8752  142.1787  155.4668 C   0  0  0  0  0  0  0  0  0  0  0  0
  145.3808  142.9254  154.3731 O   0  0  0  0  0  0  0  0  0  0  0  0
  146.7200  142.5078  154.1323 C   0  0  0  0  0  0  0  0  0  0  0  0
  152.4081  141.7712  158.6373 C   0  0  0  0  0  0  0  0  0  0  0  0
  152.1914  147.2792  160.2983 H   0  0  0  0  0  0  0  0  0  0  0  0
  151.1479  146.0588  158.6042 H   0  0  0  0  0  0  0  0  0  0  0  0
  152.8541  145.7249  158.8492 H   0  0  0  0  0  0  0  0  0  0  0  0
  150.6377  144.1400  160.2797 H   0  0  0  0  0  0  0  0  0  0  0  0
  151.2563  143.6800  158.7018 H   0  0  0  0  0  0  0  0  0  0  0  0
  151.8010  141.7337  160.6970 H   0  0  0  0  0  0  0  0  0  0  0  0
  154.7977  141.9953  160.0951 H   0  0  0  0  0  0  0  0  0  0  0  0
  154.1041  141.7320  161.6790 H   0  0  0  0  0  0  0  0  0  0  0  0
  154.9316  139.5956  160.6919 H   0  0  0  0  0  0  0  0  0  0  0  0
  153.2111  139.5414  160.9959 H   0  0  0  0  0  0  0  0  0  0  0  0
  154.5486  140.0338  158.2892 H   0  0  0  0  0  0  0  0  0  0  0  0
  153.6751  138.6007  158.7821 H   0  0  0  0  0  0  0  0  0  0  0  0
  152.0909  136.9135  155.7292 H   0  0  0  0  0  0  0  0  0  0  0  0
  149.0895  142.5679  155.0439 H   0  0  0  0  0  0  0  0  0  0  0  0
  149.0754  141.0817  152.7474 H   0  0  0  0  0  0  0  0  0  0  0  0
  149.3571  139.3712  152.9438 H   0  0  0  0  0  0  0  0  0  0  0  0
  146.8989  140.1829  152.7449 H   0  0  0  0  0  0  0  0  0  0  0  0
  147.9442  138.1767  154.7460 H   0  0  0  0  0  0  0  0  0  0  0  0
  146.2191  138.4671  154.6775 H   0  0  0  0  0  0  0  0  0  0  0  0
  147.9000  137.4397  152.7286 H   0  0  0  0  0  0  0  0  0  0  0  0
  147.4744  141.1385  155.5488 H   0  0  0  0  0  0  0  0  0  0  0  0
  144.7974  140.3055  154.4336 H   0  0  0  0  0  0  0  0  0  0  0  0
  145.4076  140.1479  156.0789 H   0  0  0  0  0  0  0  0  0  0  0  0
  143.7863  142.2101  155.5083 H   0  0  0  0  0  0  0  0  0  0  0  0
  145.2715  142.5774  156.4021 H   0  0  0  0  0  0  0  0  0  0  0  0
  147.4042  143.1665  154.6689 H   0  0  0  0  0  0  0  0  0  0  0  0
  146.9553  142.5930  153.0719 H   0  0  0  0  0  0  0  0  0  0  0  0
  151.4312  142.1426  158.3250 H   0  0  0  0  0  0  0  0  0  0  0  0
  153.1588  142.2623  158.0170 H   0  0  0  0  0  0  0  0  0  0  0  0
  1  2  1  0  0  0  0
  1 29  1  0  0  0  0
  2  3  1  0  0  0  0
  2 30  1  0  0  0  0
  2 31  1  0  0  0  0
  3  4  1  0  0  0  0
  3 32  1  0  0  0  0
  3 33  1  0  0  0  0
  4  5  1  0  0  0  0
  5 28  1  0  0  0  0
  5  6  1  0  0  0  0
  5 34  1  0  0  0  0
  6  7  1  0  0  0  0
  6 35  1  0  0  0  0
  6 36  1  0  0  0  0
  7  8  1  0  0  0  0
  7 37  1  0  0  0  0
  7 38  1  0  0  0  0
  8  9  1  0  0  0  0
  8 39  1  0  0  0  0
  8 40  1  0  0  0  0
  9 10  1  0  0  0  0
  9 28  1  0  0  0  0
 10 15  1  0  0  0  0
 10 11  2  0  0  0  0
 11 12  1  0  0  0  0
 12 13  2  0  0  0  0
 12 41  1  0  0  0  0
 13 14  1  0  0  0  0
 14 18  1  0  0  0  0
 14 15  2  0  0  0  0
 15 16  1  0  0  0  0
 16 17  2  0  0  0  0
 17 18  1  0  0  0  0
 17 42  1  0  0  0  0
 18 19  1  0  0  0  0
 19 20  1  0  0  0  0
 19 43  1  0  0  0  0
 19 44  1  0  0  0  0
 20 21  1  0  0  0  0
 20 23  1  0  0  0  0
 20 45  1  0  0  0  0
 21 22  1  0  0  0  0
 21 46  1  0  0  0  0
 21 47  1  0  0  0  0
 22 48  1  0  0  0  0
 23 27  1  0  0  0  0
 23 24  1  0  0  0  0
 23 49  1  0  0  0  0
 24 25  1  0  0  0  0
 24 50  1  0  0  0  0
 24 51  1  0  0  0  0
 25 26  1  0  0  0  0
 25 52  1  0  0  0  0
 25 53  1  0  0  0  0
 26 27  1  0  0  0  0
 27 54  1  0  0  0  0
 27 55  1  0  0  0  0
 28 56  1  0  0  0  0
 28 57  1  0  0  0  0
M  END
> <s_m_source_file>
AV-unprocessed.smi

> <i_m_source_file_index>
258

> <i_lp_mmshare_version>
43012

> <i_f3d_flags>
0

> <s_epik_input>
W09IXVtDSDJdW0NIMl1PW0NAQEhdMVtDSDJdW0NIMl1bQ0gyXU4oW0NIMl0xKWMobltjSF1uMiljKGMyMyluW2NIXW4zW0NIMl1bQ0BIXShbQ0gyXVtPSF0pW0NAQEhdNFtDSDJdW0NIMl1PW0NIMl00

> <s_epik_cmdline>
J2VwaWtfcHl0aG9uJywgJy1waCcsICc3LjAnLCAnLXRuJywgJzgnLCAnLW1hJywgJzIwMCcsICctbWV0YWxfYmluZGluZycsICctaW1hZScsICc8aW5maWxlLm1hZT4nLCAnLW9tYWUnLCAnPG91dGZpbGUubWFlPic=

> <r_lp_tautomer_probability>
1

> <r_epik_Ionization_Penalty>
0.00349036

> <r_epik_Ionization_Penalty_Charging>
0

> <r_epik_Ionization_Penalty_Neutral>
0.00349036

> <r_epik_State_Penalty>
0.00229798

> <r_epik_Charging_Adjusted_Penalty>
0.00229798

> <i_epik_Tot_Q>
0

> <i_epik_Tot_abs_Q>
0

> <r_epik_Metal_State_Penalty>
-0

> <b_epik_Metal_Only>
0

> <s_lp_Force_Field>
OPLS_2005

> <r_lp_Energy>
47.4534

> <b_lp_Chiralities_Consistent>
1

> <s_lp_Variant>
AV-unprocessed.smi:258-3

> <Gold.Version>
5.8.1

> <Gold.Id.Protein>
6NUR|6NUR_protein|mol2

> <Gold.PLP.Fitness>
52.3922

> <Gold.PLP.PLP>
-48.1101

> <Gold.PLP.part.hbond>
-4.5281

> <Gold.PLP.part.metal>
0.0000

> <Gold.PLP.part.buried>
0.9818

> <Gold.PLP.part.nonpolar>
-44.2066

> <Gold.PLP.part.repulsive>
0.4019

> <Gold.PLP.ligand.clash>
0.0000

> <Gold.PLP.ligand.torsion>
1.2303

> <Gold.PLP.Chemscore.Hbond>
1.0000

> <Gold.PLP.Chemscore.CHOScore>
1.0000

> <Gold.PLP.Chemscore.Metal>
0.0000

> <Gold.Chemscore.Hbonds>
donor molecule, donor type, donor heavy atom, donor atom, acceptor molecule, acceptor atom, score
      L1  H    22    48       P1  7948  0.99
      L1  C    17    42       P1  8028  1.00

> <Gold.PLP.Chemscore.Internal.Correction>
0.7428

> <Gold.Rescore>
     Score         DG    S(hbond)    S(metal)    S(lipo)     H(rot)  DE(clash)    DE(int)     intcor
      5.54     -11.35       0.98        0.00     108.46       3.94       3.55       2.26       ----

> <Gold.Chemscore.Fitness>
5.5409

> <Gold.Chemscore.DG>
-11.3528

> <Gold.Chemscore.ZeroCoef>
-5.4800

> <Gold.Chemscore.Hbond>
0.9755

> <Gold.Chemscore.Metal>
0.0000

> <Gold.Chemscore.Lipo>
108.4600

> <Gold.Chemscore.Internal_Hbond>
0.0000

> <Gold.Chemscore.DEClash>
3.5549

> <Gold.Chemscore.DEInternal>
2.2570

> <Gold.Chemscore.Rot>
3.9356

> <Gold.Chemscore.Internal.Correction>
   9.000000E+99

> <Gold.Chemscore.Hbonds>
donor molecule, donor type, donor heavy atom, donor atom, acceptor molecule, acceptor atom, score
      L1  H    22    48       P1  7948  0.93

> <Gold.Chemscore.Hbond.Weighted>
-3.2581

> <Gold.Chemscore.Metal.Weighted>
-0.0000

> <Gold.Chemscore.Lipo.Weighted>
-12.6898

> <Gold.Chemscore.Internal_Hbond.Weighted>
0.0000

> <Gold.Chemscore.DEClash.Weighted>
3.5549

> <Gold.Chemscore.DEInternal.Weighted>
2.2570

> <Gold.Chemscore.Rot.Weighted>
10.0751

> <Gold.Chemscore.Internal.Correction.Weighted>
   9.000000E+99

> <Gold.Protein.RotatedTorsions>
[ 6907 6896 6895 6894 ] final  -24.34 input  -60.11 | X-H torsion
[ 7974 7965 7964 7962 ] final   37.59 input  175.53 | X-H torsion
[ 8008 7997 7996 7995 ] final  107.92 input   59.86 | X-H torsion
[ 10167 10162 10161 10158 ] final -119.57 input  -65.29 | X-H torsion
[ 10718 10713 10712 10709 ] final  167.79 input   66.30 | X-H torsion
[ 10763 10752 10751 10750 ] final  111.30 input  -60.55 | X-H torsion
[ 11005 11000 10999 10996 ] final  177.36 input  -57.11 | X-H torsion

> <Gold.Protein.ActiveResidues>
 VAL166  LYS551  ARG553  GLY616  TRP617  ASP618  TYR619  PRO620  LYS621  CYS622 
 ASP623  PHE694  ASN695  SER759  ASP760  ASP761  ALA762  ILE779  LEU786  VAL792 
 PHE793  MET794  SER795  GLU796  ALA797  LYS798  CYS799  TRP800  GLU811  SER814 

> <Gold.Protein.RotatedAtoms>
  151.1910  135.0402  159.8832 H   0  0  0  0  0  0  0  0  0  0  0  0  # atno 6907 bound_to 6896
  152.5439  134.0956  159.8306 H   0  0  0  0  0  0  0  0  0  0  0  0  # atno 6908 bound_to 6896
  151.1085  133.5143  159.2639 H   0  0  0  0  0  0  0  0  0  0  0  0  # atno 6909 bound_to 6896
  146.1126  139.5875  142.9342 H   0  0  0  0  0  0  0  0  0  0  0  0  # atno 7974 bound_to 7965
  156.1862  140.3086  155.9243 H   0  0  0  0  0  0  0  0  0  0  0  0  # atno 8008 bound_to 7997
  155.3275  140.0459  157.3058 H   0  0  0  0  0  0  0  0  0  0  0  0  # atno 8009 bound_to 7997
  154.5398  140.2258  155.8669 H   0  0  0  0  0  0  0  0  0  0  0  0  # atno 8010 bound_to 7997
  140.0452  143.5114  152.2110 H   0  0  0  0  0  0  0  0  0  0  0  0  # atno 10167 bound_to 10162
  157.0465  131.0301  151.2695 H   0  0  0  0  0  0  0  0  0  0  0  0  # atno 10718 bound_to 10713
  153.4614  135.3721  155.2340 H   0  0  0  0  0  0  0  0  0  0  0  0  # atno 10763 bound_to 10752
  154.8757  135.3909  154.3920 H   0  0  0  0  0  0  0  0  0  0  0  0  # atno 10764 bound_to 10752
  153.4494  135.7085  153.6182 H   0  0  0  0  0  0  0  0  0  0  0  0  # atno 10765 bound_to 10752
  140.3832  134.6928  157.4463 H   0  0  0  0  0  0  0  0  0  0  0  0  # atno 11005 bound_to 11000
  145.5633  141.0402  143.2214 LP  0  0  0  0  0  0  0  0  0  0  0  0  # atno 17320 bound_to 7965
  144.7525  139.7159  143.7267 LP  0  0  0  0  0  0  0  0  0  0  0  0  # atno 17321 bound_to 7965
  139.5988  144.7576  151.3221 LP  0  0  0  0  0  0  0  0  0  0  0  0  # atno 17342 bound_to 10162
  140.7242  143.7051  150.7814 LP  0  0  0  0  0  0  0  0  0  0  0  0  # atno 17343 bound_to 10162
  157.5064  130.7911  149.7658 LP  0  0  0  0  0  0  0  0  0  0  0  0  # atno 17370 bound_to 10713
  156.0021  130.3874  150.2566 LP  0  0  0  0  0  0  0  0  0  0  0  0  # atno 17371 bound_to 10713
  140.0462  134.6195  155.8918 LP  0  0  0  0  0  0  0  0  0  0  0  0  # atno 17394 bound_to 11000
  141.1916  133.6572  156.5465 LP  0  0  0  0  0  0  0  0  0  0  0  0  # atno 17395 bound_to 11000

$$$$
