AV-unprocessed.smi:1019|AV-procd|sdf|4447|dock1
  -GOLD-   22720 2413D 1   1.00000     0.00000
 Structure written by MMmdl.
 45 47  0  0  0  0  0  0  0  0  3 V2000
  147.2622  137.6177  159.1820 C   0  0  0  0  0  0  0  0  0  0  0  0
  148.4931  137.0712  159.7971 N   0  3  1  0  0  0  0  0  0  0  0  0
  148.3758  135.6242  160.1020 C   0  0  0  0  0  0  0  0  0  0  0  0
  147.8741  135.3962  161.5177 C   0  0  0  0  0  0  0  0  0  0  0  0
  147.2912  134.1590  161.8662 C   0  0  0  0  0  0  0  0  0  0  0  0
  146.8071  133.9465  163.1714 C   0  0  0  0  0  0  0  0  0  0  0  0
  146.9077  134.9683  164.1349 C   0  0  0  0  0  0  0  0  0  0  0  0
  147.4940  136.2023  163.7933 C   0  0  0  0  0  0  0  0  0  0  0  0
  147.9775  136.4159  162.4878 C   0  0  0  0  0  0  0  0  0  0  0  0
  149.7180  137.4229  159.0321 C   0  0  0  0  0  0  0  0  0  0  0  0
  149.6128  138.8256  158.4068 C   0  0  2  0  0  0  0  0  0  0  0  0
  149.2733  138.6734  157.0436 O   0  0  0  0  0  0  0  0  0  0  0  0
  150.9318  139.6202  158.5186 C   0  0  0  0  0  0  0  0  0  0  0  0
  150.7805  141.0383  158.1683 N   0  0  0  0  0  0  0  0  0  0  0  0
  150.0567  141.6218  157.1739 C   0  0  0  0  0  0  0  0  0  0  0  0
  150.2463  142.9677  157.2635 N   0  3  0  0  0  0  0  0  0  0  0  0
  151.1075  143.2482  158.3268 C   0  0  0  0  0  0  0  0  0  0  0  0
  151.5963  144.4581  158.8102 C   0  0  0  0  0  0  0  0  0  0  0  0
  152.4652  144.3917  159.9194 C   0  0  0  0  0  0  0  0  0  0  0  0
  152.8172  143.1578  160.5044 C   0  0  0  0  0  0  0  0  0  0  0  0
  152.3153  141.9368  160.0066 C   0  0  0  0  0  0  0  0  0  0  0  0
  151.4565  142.0119  158.9108 C   0  0  0  0  0  0  0  0  0  0  0  0
  147.0621  137.1435  158.2199 H   0  0  0  0  0  0  0  0  0  0  0  0
  147.3499  138.6925  159.0214 H   0  0  0  0  0  0  0  0  0  0  0  0
  146.4010  137.4516  159.8298 H   0  0  0  0  0  0  0  0  0  0  0  0
  147.6619  135.1572  159.4217 H   0  0  0  0  0  0  0  0  0  0  0  0
  149.3327  135.1250  159.9407 H   0  0  0  0  0  0  0  0  0  0  0  0
  147.2091  133.3708  161.1319 H   0  0  0  0  0  0  0  0  0  0  0  0
  146.3588  132.9997  163.4343 H   0  0  0  0  0  0  0  0  0  0  0  0
  146.5375  134.8047  165.1363 H   0  0  0  0  0  0  0  0  0  0  0  0
  147.5731  136.9849  164.5335 H   0  0  0  0  0  0  0  0  0  0  0  0
  148.4236  137.3665  162.2340 H   0  0  0  0  0  0  0  0  0  0  0  0
  150.6007  137.3950  159.6709 H   0  0  0  0  0  0  0  0  0  0  0  0
  149.8915  136.6687  158.2625 H   0  0  0  0  0  0  0  0  0  0  0  0
  148.8025  139.3810  158.8796 H   0  0  0  0  0  0  0  0  0  0  0  0
  149.0378  139.5199  156.6950 H   0  0  0  0  0  0  0  0  0  0  0  0
  151.3460  139.5606  159.5258 H   0  0  0  0  0  0  0  0  0  0  0  0
  151.6856  139.1990  157.8515 H   0  0  0  0  0  0  0  0  0  0  0  0
  149.4420  141.1108  156.4464 H   0  0  0  0  0  0  0  0  0  0  0  0
  151.3294  145.4050  158.3640 H   0  0  0  0  0  0  0  0  0  0  0  0
  152.8700  145.3058  160.3295 H   0  0  0  0  0  0  0  0  0  0  0  0
  153.4864  143.1483  161.3527 H   0  0  0  0  0  0  0  0  0  0  0  0
  152.5911  140.9975  160.4618 H   0  0  0  0  0  0  0  0  0  0  0  0
  148.5835  137.5223  160.6959 H   0  0  0  0  0  0  0  0  0  0  0  0
  149.8200  143.6429  156.6415 H   0  0  0  0  0  0  0  0  0  0  0  0
  1  2  1  0  0  0  0
  1 23  1  0  0  0  0
  1 24  1  0  0  0  0
  1 25  1  0  0  0  0
  2  3  1  0  0  0  0
  2 10  1  0  0  0  0
  2 44  1  0  0  0  0
  3  4  1  0  0  0  0
  3 26  1  0  0  0  0
  3 27  1  0  0  0  0
  4  9  1  0  0  0  0
  4  5  2  0  0  0  0
  5  6  1  0  0  0  0
  5 28  1  0  0  0  0
  6  7  2  0  0  0  0
  6 29  1  0  0  0  0
  7  8  1  0  0  0  0
  7 30  1  0  0  0  0
  8  9  2  0  0  0  0
  8 31  1  0  0  0  0
  9 32  1  0  0  0  0
 10 11  1  0  0  0  0
 10 33  1  0  0  0  0
 10 34  1  0  0  0  0
 11 12  1  0  0  0  0
 11 13  1  0  0  0  0
 11 35  1  0  0  0  0
 12 36  1  0  0  0  0
 13 14  1  0  0  0  0
 13 37  1  0  0  0  0
 13 38  1  0  0  0  0
 14 22  1  0  0  0  0
 14 15  1  0  0  0  0
 15 16  2  0  0  0  0
 15 39  1  0  0  0  0
 16 17  1  0  0  0  0
 16 45  1  0  0  0  0
 17 22  2  0  0  0  0
 17 18  1  0  0  0  0
 18 19  2  0  0  0  0
 18 40  1  0  0  0  0
 19 20  1  0  0  0  0
 19 41  1  0  0  0  0
 20 21  2  0  0  0  0
 20 42  1  0  0  0  0
 21 22  1  0  0  0  0
 21 43  1  0  0  0  0
M  CHG  1   2   1
M  CHG  1  16   1
M  END
> <s_m_source_file>
AV-unprocessed.smi

> <i_m_source_file_index>
1019

> <i_lp_mmshare_version>
43012

> <i_f3d_flags>
0

> <s_epik_input>
W2NIXTFbY0hdW2NIXVtjSF1bY0hdYzFbQ0gyXU4oW0NIM10pW0NIMl1bQ0BIXShbT0hdKVtDSDJdbihbY0hdbjIpYyhjMjMpW2NIXVtjSF1bY0hdW2NIXTM=

> <s_epik_cmdline>
J2VwaWtfcHl0aG9uJywgJy1waCcsICc3LjAnLCAnLXRuJywgJzgnLCAnLW1hJywgJzIwMCcsICctbWV0YWxfYmluZGluZycsICctaW1hZScsICc8aW5maWxlLm1hZT4nLCAnLW9tYWUnLCAnPG91dGZpbGUubWFlPic=

> <r_epik_Ionization_Penalty>
1.5198

> <r_epik_Ionization_Penalty_Charging>
1.5198

> <r_epik_Ionization_Penalty_Neutral>
3.13312e-06

> <r_epik_State_Penalty>
1.624

> <r_epik_Charging_Adjusted_Penalty>
3.1438

> <i_epik_Tot_Q>
2

> <i_epik_Tot_abs_Q>
2

> <r_epik_Metal_State_Penalty>
5.67392

> <b_epik_Metal_Only>
0

> <s_lp_Force_Field>
OPLS_2005

> <r_lp_Energy>
24.5939

> <b_lp_Chiralities_Consistent>
1

> <s_lp_Variant>
AV-unprocessed.smi:1019-5

> <Gold.Version>
5.8.1

> <Gold.Id.Protein>
6NUR|6NUR_protein|mol2

> <Gold.PLP.Fitness>
51.3876

> <Gold.PLP.PLP>
-48.5782

> <Gold.PLP.part.hbond>
-0.8973

> <Gold.PLP.part.metal>
0.0000

> <Gold.PLP.part.buried>
-6.0552

> <Gold.PLP.part.nonpolar>
-43.2401

> <Gold.PLP.part.repulsive>
0.2052

> <Gold.PLP.ligand.clash>
0.0000

> <Gold.PLP.ligand.torsion>
1.8994

> <Gold.PLP.Chemscore.Hbond>
1.9520

> <Gold.PLP.Chemscore.CHOScore>
0.0000

> <Gold.PLP.Chemscore.Metal>
0.0000

> <Gold.Chemscore.Hbonds>
donor molecule, donor type, donor heavy atom, donor atom, acceptor molecule, acceptor atom, score
      L1  H    16    45       P1  8028  2.00

> <Gold.PLP.Chemscore.Internal.Correction>
0.7523

> <Gold.Rescore>
     Score         DG    S(hbond)    S(metal)    S(lipo)     H(rot)  DE(clash)    DE(int)     intcor
     15.88     -17.70       0.97        0.00     130.50       2.46       0.10       1.72       ----

> <Gold.Chemscore.Fitness>
15.8756

> <Gold.Chemscore.DG>
-17.6965

> <Gold.Chemscore.ZeroCoef>
-5.4800

> <Gold.Chemscore.Hbond>
0.9682

> <Gold.Chemscore.Metal>
0.0000

> <Gold.Chemscore.Lipo>
130.4958

> <Gold.Chemscore.Internal_Hbond>
0.0000

> <Gold.Chemscore.DEClash>
0.0968

> <Gold.Chemscore.DEInternal>
1.7241

> <Gold.Chemscore.Rot>
2.4552

> <Gold.Chemscore.Internal.Correction>
   9.000000E+99

> <Gold.Chemscore.Hbonds>
donor molecule, donor type, donor heavy atom, donor atom, acceptor molecule, acceptor atom, score
      L1  H    16    45       P1  8028  1.00

> <Gold.Chemscore.Hbond.Weighted>
-3.2339

> <Gold.Chemscore.Metal.Weighted>
-0.0000

> <Gold.Chemscore.Lipo.Weighted>
-15.2680

> <Gold.Chemscore.Internal_Hbond.Weighted>
0.0000

> <Gold.Chemscore.DEClash.Weighted>
0.0968

> <Gold.Chemscore.DEInternal.Weighted>
1.7241

> <Gold.Chemscore.Rot.Weighted>
6.2854

> <Gold.Chemscore.Internal.Correction.Weighted>
   9.000000E+99

> <Gold.Protein.RotatedTorsions>
[ 6907 6896 6895 6894 ] final  -46.62 input  -60.11 | X-H torsion
[ 7974 7965 7964 7962 ] final  144.74 input  175.53 | X-H torsion
[ 8008 7997 7996 7995 ] final   47.39 input   59.86 | X-H torsion
[ 10167 10162 10161 10158 ] final  -19.03 input  -65.29 | X-H torsion
[ 10718 10713 10712 10709 ] final   86.87 input   66.30 | X-H torsion
[ 10763 10752 10751 10750 ] final -176.21 input  -60.55 | X-H torsion
[ 11005 11000 10999 10996 ] final   15.85 input  -57.11 | X-H torsion

> <Gold.Protein.ActiveResidues>
 VAL166  LYS551  ARG553  GLY616  TRP617  ASP618  TYR619  PRO620  LYS621  CYS622 
 ASP623  PHE694  ASN695  SER759  ASP760  ASP761  ALA762  ILE779  LEU786  VAL792 
 PHE793  MET794  SER795  GLU796  ALA797  LYS798  CYS799  TRP800  GLU811  SER814 

> <Gold.Protein.RotatedAtoms>
  150.9094  134.8510  159.7414 H   0  0  0  0  0  0  0  0  0  0  0  0  # atno 6907 bound_to 6896
  152.4936  134.4383  159.9545 H   0  0  0  0  0  0  0  0  0  0  0  0  # atno 6908 bound_to 6896
  151.4426  133.3600  159.2819 H   0  0  0  0  0  0  0  0  0  0  0  0  # atno 6909 bound_to 6896
  144.8811  139.5698  143.5842 H   0  0  0  0  0  0  0  0  0  0  0  0  # atno 7974 bound_to 7965
  155.3683  140.3422  155.4242 H   0  0  0  0  0  0  0  0  0  0  0  0  # atno 8008 bound_to 7997
  156.1676  140.1621  156.8537 H   0  0  0  0  0  0  0  0  0  0  0  0  # atno 8009 bound_to 7997
  154.5201  140.0769  156.8138 H   0  0  0  0  0  0  0  0  0  0  0  0  # atno 8010 bound_to 7997
  140.7264  143.4858  151.0057 H   0  0  0  0  0  0  0  0  0  0  0  0  # atno 10167 bound_to 10162
  157.6934  131.0233  150.3037 H   0  0  0  0  0  0  0  0  0  0  0  0  # atno 10718 bound_to 10713
  154.5751  135.2831  155.0788 H   0  0  0  0  0  0  0  0  0  0  0  0  # atno 10763 bound_to 10752
  154.2146  135.6402  153.5129 H   0  0  0  0  0  0  0  0  0  0  0  0  # atno 10764 bound_to 10752
  153.0070  135.5500  154.6387 H   0  0  0  0  0  0  0  0  0  0  0  0  # atno 10765 bound_to 10752
  140.4537  134.1198  155.7706 H   0  0  0  0  0  0  0  0  0  0  0  0  # atno 11005 bound_to 11000
  146.2995  139.7381  142.9102 LP  0  0  0  0  0  0  0  0  0  0  0  0  # atno 17320 bound_to 7965
  145.3953  141.0378  143.3101 LP  0  0  0  0  0  0  0  0  0  0  0  0  # atno 17321 bound_to 7965
  139.8560  143.7377  152.3176 LP  0  0  0  0  0  0  0  0  0  0  0  0  # atno 17342 bound_to 10162
  139.7575  144.7516  151.0413 LP  0  0  0  0  0  0  0  0  0  0  0  0  # atno 17343 bound_to 10162
  156.3549  130.3837  149.7298 LP  0  0  0  0  0  0  0  0  0  0  0  0  # atno 17370 bound_to 10713
  156.4763  130.8020  151.3036 LP  0  0  0  0  0  0  0  0  0  0  0  0  # atno 17371 bound_to 10713
  141.1653  133.8715  157.1733 LP  0  0  0  0  0  0  0  0  0  0  0  0  # atno 17394 bound_to 11000
  139.9990  135.0035  157.0148 LP  0  0  0  0  0  0  0  0  0  0  0  0  # atno 17395 bound_to 11000

$$$$
