AV-unprocessed.smi:1565|AV-procd|sdf|6302|dock5
  -GOLD-   22720 6503D 1   1.00000     0.00000
 Structure written by MMmdl.
 39 40  0  0  0  0  0  0  0  0  2 V2000
  151.9336  143.5348  157.5400 C   0  0  0  0  0  0  0  0  0  0  0  0
  151.0618  142.7875  158.5649 C   0  0  1  0  0  0  0  0  0  0  0  0
  151.2571  141.2591  158.5355 C   0  0  0  0  0  0  0  0  0  0  0  0
  152.5177  140.8793  159.1665 N   0  0  0  0  0  0  0  0  0  0  0  0
  152.9254  139.5471  158.9429 C   0  0  0  0  0  0  0  0  0  0  0  0
  153.2221  138.7050  160.0395 C   0  0  0  0  0  0  0  0  0  0  0  0
  153.6363  137.3811  159.7968 C   0  0  0  0  0  0  0  0  0  0  0  0
  153.7366  136.9226  158.4634 C   0  0  0  0  0  0  0  0  0  0  0  0
  154.2106  135.5343  158.1275 C   0  0  0  0  0  0  0  0  0  0  0  0
  153.9016  134.6158  158.8949 O   0  0  0  0  0  0  0  0  0  0  0  0
  154.9822  135.5047  157.0041 N   0  5  0  0  0  0  0  0  0  0  0  0
  156.1886  134.6869  156.8551 C   0  0  0  0  0  0  0  0  0  0  0  0
  157.4474  135.5645  156.7005 C   0  0  0  0  0  0  0  0  0  0  0  0
  158.5139  134.7740  156.5791 F   0  0  0  0  0  0  0  0  0  0  0  0
  157.3615  136.3256  155.6085 F   0  0  0  0  0  0  0  0  0  0  0  0
  157.6243  136.3460  157.7668 F   0  0  0  0  0  0  0  0  0  0  0  0
  153.4237  137.8395  157.4369 C   0  0  0  0  0  0  0  0  0  0  0  0
  153.0242  139.1094  157.6639 N   0  0  0  0  0  0  0  0  0  0  0  0
  152.6747  141.4278  160.5104 C   0  0  0  0  0  0  0  0  0  0  0  0
  152.4971  142.9561  160.4887 C   0  0  2  0  0  0  0  0  0  0  0  0
  152.5227  143.5538  161.8992 C   0  0  0  0  0  0  0  0  0  0  0  0
  151.2424  143.2841  159.8930 O   0  0  0  0  0  0  0  0  0  0  0  0
  151.6778  143.2328  156.5243 H   0  0  0  0  0  0  0  0  0  0  0  0
  152.9961  143.3358  157.6773 H   0  0  0  0  0  0  0  0  0  0  0  0
  151.7817  144.6120  157.6116 H   0  0  0  0  0  0  0  0  0  0  0  0
  150.0235  142.9933  158.3036 H   0  0  0  0  0  0  0  0  0  0  0  0
  150.4455  140.7775  159.0825 H   0  0  0  0  0  0  0  0  0  0  0  0
  151.1915  140.9050  157.5073 H   0  0  0  0  0  0  0  0  0  0  0  0
  153.1290  139.0534  161.0573 H   0  0  0  0  0  0  0  0  0  0  0  0
  153.8750  136.7371  160.6305 H   0  0  0  0  0  0  0  0  0  0  0  0
  156.3291  134.0038  157.6945 H   0  0  0  0  0  0  0  0  0  0  0  0
  156.1053  134.0424  155.9794 H   0  0  0  0  0  0  0  0  0  0  0  0
  153.4911  137.5517  156.3977 H   0  0  0  0  0  0  0  0  0  0  0  0
  151.9377  140.9706  161.1725 H   0  0  0  0  0  0  0  0  0  0  0  0
  153.6627  141.1843  160.9033 H   0  0  0  0  0  0  0  0  0  0  0  0
  153.3057  143.4100  159.9158 H   0  0  0  0  0  0  0  0  0  0  0  0
  153.4678  143.3402  162.3989 H   0  0  0  0  0  0  0  0  0  0  0  0
  151.7190  143.1481  162.5142 H   0  0  0  0  0  0  0  0  0  0  0  0
  152.4023  144.6369  161.8651 H   0  0  0  0  0  0  0  0  0  0  0  0
  1  2  1  0  0  0  0
  1 23  1  0  0  0  0
  1 24  1  0  0  0  0
  1 25  1  0  0  0  0
  2 22  1  0  0  0  0
  2  3  1  0  0  0  0
  2 26  1  0  0  0  0
  3  4  1  0  0  0  0
  3 27  1  0  0  0  0
  3 28  1  0  0  0  0
  4  5  1  0  0  0  0
  4 19  1  0  0  0  0
  5 18  1  0  0  0  0
  5  6  2  0  0  0  0
  6  7  1  0  0  0  0
  6 29  1  0  0  0  0
  7  8  2  0  0  0  0
  7 30  1  0  0  0  0
  8  9  1  0  0  0  0
  8 17  1  0  0  0  0
  9 10  2  0  0  0  0
  9 11  1  0  0  0  0
 11 12  1  0  0  0  0
 12 13  1  0  0  0  0
 12 31  1  0  0  0  0
 12 32  1  0  0  0  0
 13 14  1  0  0  0  0
 13 15  1  0  0  0  0
 13 16  1  0  0  0  0
 17 18  2  0  0  0  0
 17 33  1  0  0  0  0
 19 20  1  0  0  0  0
 19 34  1  0  0  0  0
 19 35  1  0  0  0  0
 20 21  1  0  0  0  0
 20 22  1  0  0  0  0
 20 36  1  0  0  0  0
 21 37  1  0  0  0  0
 21 38  1  0  0  0  0
 21 39  1  0  0  0  0
M  CHG  1  11  -1
M  END
> <s_m_source_file>
AV-unprocessed.smi

> <i_m_source_file_index>
1565

> <i_lp_mmshare_version>
43012

> <i_f3d_flags>
0

> <s_epik_input>
W0NIM11bQ0BASF0xW0NIMl1OKFtDSDJdW0NASF0oTzEpW0NIM10pYzJbY0hdW2NIXWMoW2NIXW4yKUMoPU8pW05IXVtDSDJdQyhGKShGKUY=

> <s_epik_cmdline>
J2VwaWtfcHl0aG9uJywgJy1waCcsICc3LjAnLCAnLXRuJywgJzgnLCAnLW1hJywgJzIwMCcsICctbWV0YWxfYmluZGluZycsICctaW1hZScsICc8aW5maWxlLm1hZT4nLCAnLW9tYWUnLCAnPG91dGZpbGUubWFlPic=

> <r_lp_tautomer_probability>
1

> <r_epik_Ionization_Penalty>
6.78525

> <r_epik_Ionization_Penalty_Charging>
6.78469

> <r_epik_Ionization_Penalty_Neutral>
0.000559052

> <r_epik_State_Penalty>
6.78469

> <r_epik_Charging_Adjusted_Penalty>
13.5694

> <i_epik_Tot_Q>
-1

> <i_epik_Tot_abs_Q>
1

> <r_epik_Metal_State_Penalty>
2.70441

> <b_epik_Metal_Only>
1

> <s_lp_Force_Field>
OPLS_2005

> <r_lp_Energy>
29.3503

> <b_lp_Chiralities_Consistent>
1

> <s_lp_Variant>
AV-unprocessed.smi:1565-6

> <Gold.Version>
5.8.1

> <Gold.Id.Protein>
6NUR|6NUR_protein|mol2

> <Gold.PLP.Fitness>
42.8126

> <Gold.PLP.PLP>
-32.4290

> <Gold.PLP.part.hbond>
-3.2240

> <Gold.PLP.part.metal>
0.0000

> <Gold.PLP.part.buried>
-5.3649

> <Gold.PLP.part.nonpolar>
-23.9297

> <Gold.PLP.part.repulsive>
0.0261

> <Gold.PLP.ligand.clash>
0.0000

> <Gold.PLP.ligand.torsion>
0.9707

> <Gold.PLP.Chemscore.Hbond>
4.0000

> <Gold.PLP.Chemscore.CHOScore>
0.0000

> <Gold.PLP.Chemscore.Metal>
0.0000

> <Gold.Chemscore.Hbonds>
donor molecule, donor type, donor heavy atom, donor atom, acceptor molecule, acceptor atom, score
      P1  H  6896  6908       L1    10  0.98
      P1  H  7997  8009       L1    18  1.00
      P1  H 10752 10765       L1    11  1.90

> <Gold.PLP.Chemscore.Internal.Correction>
0.3250

> <Gold.Rescore>
     Score         DG    S(hbond)    S(metal)    S(lipo)     H(rot)  DE(clash)    DE(int)     intcor
     17.12     -18.63       2.03        0.00      82.73       1.29       0.49       1.02       ----

> <Gold.Chemscore.Fitness>
17.1242

> <Gold.Chemscore.DG>
-18.6344

> <Gold.Chemscore.ZeroCoef>
-5.4800

> <Gold.Chemscore.Hbond>
2.0306

> <Gold.Chemscore.Metal>
0.0000

> <Gold.Chemscore.Lipo>
82.7343

> <Gold.Chemscore.Internal_Hbond>
0.0000

> <Gold.Chemscore.DEClash>
0.4887

> <Gold.Chemscore.DEInternal>
1.0216

> <Gold.Chemscore.Rot>
1.2921

> <Gold.Chemscore.Internal.Correction>
   9.000000E+99

> <Gold.Chemscore.Hbonds>
donor molecule, donor type, donor heavy atom, donor atom, acceptor molecule, acceptor atom, score
      P1  H  6896  6908       L1    10  0.93
      P1  H  7997  8009       L1    18  0.17
      P1  H 10752 10765       L1    11  0.21

> <Gold.Chemscore.Hbond.Weighted>
-6.7822

> <Gold.Chemscore.Metal.Weighted>
-0.0000

> <Gold.Chemscore.Lipo.Weighted>
-9.6799

> <Gold.Chemscore.Internal_Hbond.Weighted>
0.0000

> <Gold.Chemscore.DEClash.Weighted>
0.4887

> <Gold.Chemscore.DEInternal.Weighted>
1.0216

> <Gold.Chemscore.Rot.Weighted>
3.3078

> <Gold.Chemscore.Internal.Correction.Weighted>
   9.000000E+99

> <Gold.Protein.RotatedTorsions>
[ 6907 6896 6895 6894 ] final  -31.30 input  -60.11 | X-H torsion
[ 7974 7965 7964 7962 ] final -134.33 input  175.53 | X-H torsion
[ 8008 7997 7996 7995 ] final  168.95 input   59.86 | X-H torsion
[ 10167 10162 10161 10158 ] final  -98.36 input  -65.29 | X-H torsion
[ 10718 10713 10712 10709 ] final  -20.55 input   66.30 | X-H torsion
[ 10763 10752 10751 10750 ] final  -77.29 input  -60.55 | X-H torsion
[ 11005 11000 10999 10996 ] final   40.25 input  -57.11 | X-H torsion

> <Gold.Protein.ActiveResidues>
 VAL166  LYS551  ARG553  GLY616  TRP617  ASP618  TYR619  PRO620  LYS621  CYS622 
 ASP623  PHE694  ASN695  SER759  ASP760  ASP761  ALA762  ILE779  LEU786  VAL792 
 PHE793  MET794  SER795  GLU796  ALA797  LYS798  CYS799  TRP800  GLU811  SER814 

> <Gold.Protein.RotatedAtoms>
  151.0940  134.9933  159.8416 H   0  0  0  0  0  0  0  0  0  0  0  0  # atno 6907 bound_to 6896
  152.5431  134.2031  159.8730 H   0  0  0  0  0  0  0  0  0  0  0  0  # atno 6908 bound_to 6896
  151.2069  133.4534  159.2630 H   0  0  0  0  0  0  0  0  0  0  0  0  # atno 6909 bound_to 6896
  144.9113  140.6898  143.5023 H   0  0  0  0  0  0  0  0  0  0  0  0  # atno 7974 bound_to 7965
  156.1501  140.1577  156.8783 H   0  0  0  0  0  0  0  0  0  0  0  0  # atno 8008 bound_to 7997
  154.5063  140.0812  156.7939 H   0  0  0  0  0  0  0  0  0  0  0  0  # atno 8009 bound_to 7997
  155.3912  140.3410  155.4254 H   0  0  0  0  0  0  0  0  0  0  0  0  # atno 8010 bound_to 7997
  140.2737  143.3327  152.0509 H   0  0  0  0  0  0  0  0  0  0  0  0  # atno 10167 bound_to 10162
  156.5304  130.4653  149.6550 H   0  0  0  0  0  0  0  0  0  0  0  0  # atno 10718 bound_to 10713
  154.5110  135.5769  153.6604 H   0  0  0  0  0  0  0  0  0  0  0  0  # atno 10763 bound_to 10752
  152.9897  135.6158  154.2879 H   0  0  0  0  0  0  0  0  0  0  0  0  # atno 10764 bound_to 10752
  154.2794  135.2851  155.2683 H   0  0  0  0  0  0  0  0  0  0  0  0  # atno 10765 bound_to 10752
  140.1949  134.3941  155.8127 H   0  0  0  0  0  0  0  0  0  0  0  0  # atno 11005 bound_to 11000
  145.3450  139.1721  143.4465 LP  0  0  0  0  0  0  0  0  0  0  0  0  # atno 17320 bound_to 7965
  146.3159  140.3496  142.8655 LP  0  0  0  0  0  0  0  0  0  0  0  0  # atno 17321 bound_to 7965
  139.4981  144.6639  151.6402 LP  0  0  0  0  0  0  0  0  0  0  0  0  # atno 17342 bound_to 10162
  140.5868  143.9849  150.6300 LP  0  0  0  0  0  0  0  0  0  0  0  0  # atno 17343 bound_to 10162
  156.3065  130.7206  151.2089 LP  0  0  0  0  0  0  0  0  0  0  0  0  # atno 17370 bound_to 10713
  157.7422  131.0492  150.5037 LP  0  0  0  0  0  0  0  0  0  0  0  0  # atno 17371 bound_to 10713
  141.2227  133.7064  156.8158 LP  0  0  0  0  0  0  0  0  0  0  0  0  # atno 17394 bound_to 11000
  140.2119  134.8821  157.3283 LP  0  0  0  0  0  0  0  0  0  0  0  0  # atno 17395 bound_to 11000

$$$$
