AV-unprocessed.smi:232|AV-procd|sdf|1772|dock4
  -GOLD-   2262020313D 1   1.00000     0.00000
 Structure written by MMmdl.
 52 55  0  0  0  0  0  0  0  0  1 V2000
  152.2194  144.9440  158.6962 C   0  0  0  0  0  0  0  0  0  0  0  0
  151.6794  143.5085  158.6761 C   0  0  0  0  0  0  0  0  0  0  0  0
  152.7721  142.4452  158.9170 C   0  0  1  0  0  0  0  0  0  0  0  0
  153.4144  142.5208  160.3113 C   0  0  0  0  0  0  0  0  0  0  0  0
  153.7377  141.0678  160.6791 C   0  0  0  0  0  0  0  0  0  0  0  0
  153.3019  140.2556  159.4554 C   0  0  1  0  0  0  0  0  0  0  0  0
  152.8106  138.8406  159.8008 C   0  0  0  0  0  0  0  0  0  0  0  0
  152.2796  141.0758  158.8155 N   0  0  0  0  0  0  0  0  0  0  0  0
  151.8953  140.6997  157.5726 C   0  0  0  0  0  0  0  0  0  0  0  0
  152.6613  139.8489  156.8389 N   0  0  0  0  0  0  0  0  0  0  0  0
  152.2770  139.4982  155.6075 C   0  0  0  0  0  0  0  0  0  0  0  0
  151.1895  139.8772  154.9315 N   0  0  0  0  0  0  0  0  0  0  0  0
  150.4228  140.7328  155.6672 C   0  0  0  0  0  0  0  0  0  0  0  0
  150.7002  141.1901  156.9853 C   0  0  0  0  0  0  0  0  0  0  0  0
  149.6990  142.0520  157.4140 N   0  0  0  0  0  0  0  0  0  0  0  0
  148.8755  142.1058  156.4026 C   0  0  0  0  0  0  0  0  0  0  0  0
  149.2345  141.3465  155.3119 N   0  0  0  0  0  0  0  0  0  0  0  0
  148.5086  141.2345  154.0593 C   0  0  0  0  0  0  0  0  0  0  0  0
  148.0203  139.7965  153.7935 C   0  0  1  0  0  0  0  0  0  0  0  0
  149.1325  138.9740  153.4947 O   0  0  0  0  0  0  0  0  0  0  0  0
  147.2653  139.2007  154.9965 C   0  0  2  0  0  0  0  0  0  0  0  0
  146.0238  139.9925  155.4163 C   0  0  0  0  0  0  0  0  0  0  0  0
  145.9015  139.6255  156.8768 C   0  0  0  0  0  0  0  0  0  0  0  0
  147.3639  139.6016  157.3062 C   0  0  0  0  0  0  0  0  0  0  0  0
  148.0997  139.1968  156.1549 O   0  0  0  0  0  0  0  0  0  0  0  0
  151.4234  145.6593  158.4895 H   0  0  0  0  0  0  0  0  0  0  0  0
  152.9945  145.0830  157.9421 H   0  0  0  0  0  0  0  0  0  0  0  0
  152.6454  145.1978  159.6670 H   0  0  0  0  0  0  0  0  0  0  0  0
  150.8903  143.4036  159.4218 H   0  0  0  0  0  0  0  0  0  0  0  0
  151.2061  143.3410  157.7081 H   0  0  0  0  0  0  0  0  0  0  0  0
  153.5577  142.5747  158.1697 H   0  0  0  0  0  0  0  0  0  0  0  0
  154.3029  143.1529  160.3056 H   0  0  0  0  0  0  0  0  0  0  0  0
  152.7190  142.9343  161.0431 H   0  0  0  0  0  0  0  0  0  0  0  0
  154.7938  140.9198  160.9063 H   0  0  0  0  0  0  0  0  0  0  0  0
  153.1649  140.7796  161.5616 H   0  0  0  0  0  0  0  0  0  0  0  0
  154.1609  140.1749  158.7872 H   0  0  0  0  0  0  0  0  0  0  0  0
  153.5845  138.2773  160.3227 H   0  0  0  0  0  0  0  0  0  0  0  0
  152.5473  138.2814  158.9024 H   0  0  0  0  0  0  0  0  0  0  0  0
  151.9300  138.8728  160.4433 H   0  0  0  0  0  0  0  0  0  0  0  0
  152.9358  138.8171  155.0895 H   0  0  0  0  0  0  0  0  0  0  0  0
  147.9793  142.7089  156.4217 H   0  0  0  0  0  0  0  0  0  0  0  0
  147.6686  141.9302  154.0753 H   0  0  0  0  0  0  0  0  0  0  0  0
  149.1692  141.5642  153.2566 H   0  0  0  0  0  0  0  0  0  0  0  0
  147.3618  139.7964  152.9237 H   0  0  0  0  0  0  0  0  0  0  0  0
  149.4080  139.1522  152.6084 H   0  0  0  0  0  0  0  0  0  0  0  0
  146.9788  138.1675  154.7921 H   0  0  0  0  0  0  0  0  0  0  0  0
  146.1973  141.0651  155.3170 H   0  0  0  0  0  0  0  0  0  0  0  0
  145.1378  139.7350  154.8352 H   0  0  0  0  0  0  0  0  0  0  0  0
  145.2986  140.3304  157.4497 H   0  0  0  0  0  0  0  0  0  0  0  0
  145.4610  138.6325  156.9785 H   0  0  0  0  0  0  0  0  0  0  0  0
  147.6925  140.6017  157.5918 H   0  0  0  0  0  0  0  0  0  0  0  0
  147.5401  138.9334  158.1495 H   0  0  0  0  0  0  0  0  0  0  0  0
  1  2  1  0  0  0  0
  1 26  1  0  0  0  0
  1 27  1  0  0  0  0
  1 28  1  0  0  0  0
  2  3  1  0  0  0  0
  2 29  1  0  0  0  0
  2 30  1  0  0  0  0
  3  8  1  0  0  0  0
  3  4  1  0  0  0  0
  3 31  1  0  0  0  0
  4  5  1  0  0  0  0
  4 32  1  0  0  0  0
  4 33  1  0  0  0  0
  5  6  1  0  0  0  0
  5 34  1  0  0  0  0
  5 35  1  0  0  0  0
  6  7  1  0  0  0  0
  6  8  1  0  0  0  0
  6 36  1  0  0  0  0
  7 37  1  0  0  0  0
  7 38  1  0  0  0  0
  7 39  1  0  0  0  0
  8  9  1  0  0  0  0
  9 14  1  0  0  0  0
  9 10  2  0  0  0  0
 10 11  1  0  0  0  0
 11 12  2  0  0  0  0
 11 40  1  0  0  0  0
 12 13  1  0  0  0  0
 13 17  1  0  0  0  0
 13 14  2  0  0  0  0
 14 15  1  0  0  0  0
 15 16  2  0  0  0  0
 16 17  1  0  0  0  0
 16 41  1  0  0  0  0
 17 18  1  0  0  0  0
 18 19  1  0  0  0  0
 18 42  1  0  0  0  0
 18 43  1  0  0  0  0
 19 20  1  0  0  0  0
 19 21  1  0  0  0  0
 19 44  1  0  0  0  0
 20 45  1  0  0  0  0
 21 25  1  0  0  0  0
 21 22  1  0  0  0  0
 21 46  1  0  0  0  0
 22 23  1  0  0  0  0
 22 47  1  0  0  0  0
 22 48  1  0  0  0  0
 23 24  1  0  0  0  0
 23 49  1  0  0  0  0
 23 50  1  0  0  0  0
 24 25  1  0  0  0  0
 24 51  1  0  0  0  0
 24 52  1  0  0  0  0
M  END
> <s_m_source_file>
AV-unprocessed.smi

> <i_m_source_file_index>
232

> <i_lp_mmshare_version>
43012

> <i_f3d_flags>
0

> <s_epik_input>
W0NIM11bQ0gyXVtDQEBIXTFbQ0gyXVtDSDJdW0NAQEhdKFtDSDNdKU4xYyhuW2NIXW4yKWMoYzIzKW5bY0hdbjNbQ0gyXVtDQEhdKFtPSF0pW0NAQEhdNFtDSDJdW0NIMl1bQ0gyXU80

> <s_epik_cmdline>
J2VwaWtfcHl0aG9uJywgJy1waCcsICc3LjAnLCAnLXRuJywgJzgnLCAnLW1hJywgJzIwMCcsICctbWV0YWxfYmluZGluZycsICctaW1hZScsICc8aW5maWxlLm1hZT4nLCAnLW9tYWUnLCAnPG91dGZpbGUubWFlPic=

> <r_lp_tautomer_probability>
1

> <r_epik_Ionization_Penalty>
0.00258048

> <r_epik_Ionization_Penalty_Charging>
0

> <r_epik_Ionization_Penalty_Neutral>
0.00258048

> <r_epik_State_Penalty>
0.00168551

> <r_epik_Charging_Adjusted_Penalty>
0.00168551

> <i_epik_Tot_Q>
0

> <i_epik_Tot_abs_Q>
0

> <r_epik_Metal_State_Penalty>
-0

> <b_epik_Metal_Only>
0

> <s_lp_Force_Field>
OPLS_2005

> <r_lp_Energy>
51.197

> <b_lp_Chiralities_Consistent>
1

> <s_lp_Variant>
AV-unprocessed.smi:232-6

> <Gold.Version>
5.8.1

> <Gold.Id.Protein>
6NUR|6NUR_protein|mol2

> <Gold.PLP.Fitness>
52.7928

> <Gold.PLP.PLP>
-43.4558

> <Gold.PLP.part.hbond>
-3.5187

> <Gold.PLP.part.metal>
0.0000

> <Gold.PLP.part.buried>
-1.9064

> <Gold.PLP.part.nonpolar>
-37.9036

> <Gold.PLP.part.repulsive>
0.1775

> <Gold.PLP.ligand.clash>
0.0000

> <Gold.PLP.ligand.torsion>
0.4358

> <Gold.PLP.Chemscore.Hbond>
3.0000

> <Gold.PLP.Chemscore.CHOScore>
0.3796

> <Gold.PLP.Chemscore.Metal>
0.0000

> <Gold.Chemscore.Hbonds>
donor molecule, donor type, donor heavy atom, donor atom, acceptor molecule, acceptor atom, score
      L1  H    20    45       P1  7957  1.00
      P1  H  7989  7998       L1    12  1.00
      P1  H  7997  8008       L1    10  1.00
      L1  C    16    41       P1  8028  0.40

> <Gold.PLP.Chemscore.Internal.Correction>
0.0698

> <Gold.Rescore>
     Score         DG    S(hbond)    S(metal)    S(lipo)     H(rot)  DE(clash)    DE(int)     intcor
     11.19     -17.29       2.14        0.00      93.09       2.43       1.20       4.90       ----

> <Gold.Chemscore.Fitness>
11.1864

> <Gold.Chemscore.DG>
-17.2921

> <Gold.Chemscore.ZeroCoef>
-5.4800

> <Gold.Chemscore.Hbond>
2.1351

> <Gold.Chemscore.Metal>
0.0000

> <Gold.Chemscore.Lipo>
93.0896

> <Gold.Chemscore.Internal_Hbond>
0.0000

> <Gold.Chemscore.DEClash>
1.2021

> <Gold.Chemscore.DEInternal>
4.9036

> <Gold.Chemscore.Rot>
2.4260

> <Gold.Chemscore.Internal.Correction>
   9.000000E+99

> <Gold.Chemscore.Hbonds>
donor molecule, donor type, donor heavy atom, donor atom, acceptor molecule, acceptor atom, score
      L1  H    20    45       P1  7957  0.98
      P1  H  7989  7998       L1    12  0.31
      P1  H  7997  8008       L1    10  0.34

> <Gold.Chemscore.Hbond.Weighted>
-7.1313

> <Gold.Chemscore.Metal.Weighted>
-0.0000

> <Gold.Chemscore.Lipo.Weighted>
-10.8915

> <Gold.Chemscore.Internal_Hbond.Weighted>
0.0000

> <Gold.Chemscore.DEClash.Weighted>
1.2021

> <Gold.Chemscore.DEInternal.Weighted>
4.9036

> <Gold.Chemscore.Rot.Weighted>
6.2107

> <Gold.Chemscore.Internal.Correction.Weighted>
   9.000000E+99

> <Gold.Protein.RotatedTorsions>
[ 6907 6896 6895 6894 ] final   31.30 input  -60.11 | X-H torsion
[ 7974 7965 7964 7962 ] final    1.39 input  175.53 | X-H torsion
[ 8008 7997 7996 7995 ] final  -60.22 input   59.86 | X-H torsion
[ 10167 10162 10161 10158 ] final  -42.10 input  -65.29 | X-H torsion
[ 10718 10713 10712 10709 ] final   73.67 input   66.30 | X-H torsion
[ 10763 10752 10751 10750 ] final -128.62 input  -60.55 | X-H torsion
[ 11005 11000 10999 10996 ] final   56.22 input  -57.11 | X-H torsion

> <Gold.Protein.ActiveResidues>
 VAL166  LYS551  ARG553  GLY616  TRP617  ASP618  TYR619  PRO620  LYS621  CYS622 
 ASP623  PHE694  ASN695  SER759  ASP760  ASP761  ALA762  ILE779  LEU786  VAL792 
 PHE793  MET794  SER795  GLU796  ALA797  LYS798  CYS799  TRP800  GLU811  SER814 

> <Gold.Protein.RotatedAtoms>
  152.0583  134.9610  160.0574 H   0  0  0  0  0  0  0  0  0  0  0  0  # atno 6907 bound_to 6896
  152.0984  133.4232  159.4584 H   0  0  0  0  0  0  0  0  0  0  0  0  # atno 6908 bound_to 6896
  150.6838  134.2709  159.4631 H   0  0  0  0  0  0  0  0  0  0  0  0  # atno 6909 bound_to 6896
  146.2440  140.0994  142.8348 H   0  0  0  0  0  0  0  0  0  0  0  0  # atno 7974 bound_to 7965
  154.4388  140.1044  156.6239 H   0  0  0  0  0  0  0  0  0  0  0  0  # atno 8008 bound_to 7997
  155.5678  140.3488  155.4489 H   0  0  0  0  0  0  0  0  0  0  0  0  # atno 8009 bound_to 7997
  156.0412  140.1282  157.0143 H   0  0  0  0  0  0  0  0  0  0  0  0  # atno 8010 bound_to 7997
  140.6980  143.3056  151.3161 H   0  0  0  0  0  0  0  0  0  0  0  0  # atno 10167 bound_to 10162
  157.6558  130.9640  150.1102 H   0  0  0  0  0  0  0  0  0  0  0  0  # atno 10718 bound_to 10713
  154.8756  135.3922  154.3787 H   0  0  0  0  0  0  0  0  0  0  0  0  # atno 10763 bound_to 10752
  153.4537  135.7028  153.6098 H   0  0  0  0  0  0  0  0  0  0  0  0  # atno 10764 bound_to 10752
  153.4626  135.3808  155.2315 H   0  0  0  0  0  0  0  0  0  0  0  0  # atno 10765 bound_to 10752
  140.0546  134.5689  155.9223 H   0  0  0  0  0  0  0  0  0  0  0  0  # atno 11005 bound_to 11000
  145.0581  140.9068  143.4955 LP  0  0  0  0  0  0  0  0  0  0  0  0  # atno 17320 bound_to 7965
  145.1104  139.2761  143.5640 LP  0  0  0  0  0  0  0  0  0  0  0  0  # atno 17321 bound_to 7965
  139.6461  144.0449  152.2592 LP  0  0  0  0  0  0  0  0  0  0  0  0  # atno 17342 bound_to 10162
  139.9970  144.6321  150.7764 LP  0  0  0  0  0  0  0  0  0  0  0  0  # atno 17343 bound_to 10162
  156.2001  130.3659  149.8799 LP  0  0  0  0  0  0  0  0  0  0  0  0  # atno 17370 bound_to 10713
  156.6705  130.8818  151.3561 LP  0  0  0  0  0  0  0  0  0  0  0  0  # atno 17371 bound_to 10713
  141.1946  133.6583  156.5602 LP  0  0  0  0  0  0  0  0  0  0  0  0  # atno 17394 bound_to 11000
  140.3864  134.7478  157.4694 LP  0  0  0  0  0  0  0  0  0  0  0  0  # atno 17395 bound_to 11000

$$$$
