AV-unprocessed.smi:1019|AV-procd|sdf|4447|dock4
  -GOLD-   22720 2413D 1   1.00000     0.00000
 Structure written by MMmdl.
 45 47  0  0  0  0  0  0  0  0  3 V2000
  147.4659  135.9930  154.9175 C   0  0  0  0  0  0  0  0  0  0  0  0
  147.7374  137.0318  153.8978 N   0  3  1  0  0  0  0  0  0  0  0  0
  146.4946  137.5413  153.2683 C   0  0  0  0  0  0  0  0  0  0  0  0
  145.7750  136.4464  152.4993 C   0  0  0  0  0  0  0  0  0  0  0  0
  144.4398  136.6395  152.0850 C   0  0  0  0  0  0  0  0  0  0  0  0
  143.7601  135.6220  151.3880 C   0  0  0  0  0  0  0  0  0  0  0  0
  144.4137  134.4091  151.0983 C   0  0  0  0  0  0  0  0  0  0  0  0
  145.7479  134.2142  151.5045 C   0  0  0  0  0  0  0  0  0  0  0  0
  146.4281  135.2310  152.2026 C   0  0  0  0  0  0  0  0  0  0  0  0
  148.6352  138.1042  154.4008 C   0  0  0  0  0  0  0  0  0  0  0  0
  150.0481  137.5691  154.6955 C   0  0  2  0  0  0  0  0  0  0  0  0
  150.0583  137.0620  156.0144 O   0  0  0  0  0  0  0  0  0  0  0  0
  151.1311  138.6610  154.5602 C   0  0  0  0  0  0  0  0  0  0  0  0
  150.7168  139.9543  155.1189 N   0  0  0  0  0  0  0  0  0  0  0  0
  149.9333  140.9294  154.5815 C   0  0  0  0  0  0  0  0  0  0  0  0
  149.8491  141.9377  155.4933 N   0  3  0  0  0  0  0  0  0  0  0  0
  150.5936  141.6051  156.6273 C   0  0  0  0  0  0  0  0  0  0  0  0
  150.8133  142.3026  157.8114 C   0  0  0  0  0  0  0  0  0  0  0  0
  151.6319  141.6745  158.7731 C   0  0  0  0  0  0  0  0  0  0  0  0
  152.1967  140.4035  158.5403 C   0  0  0  0  0  0  0  0  0  0  0  0
  151.9670  139.7049  157.3363 C   0  0  0  0  0  0  0  0  0  0  0  0
  151.1560  140.3326  156.3918 C   0  0  0  0  0  0  0  0  0  0  0  0
  146.8793  136.3993  155.7429 H   0  0  0  0  0  0  0  0  0  0  0  0
  148.3949  135.5921  155.3235 H   0  0  0  0  0  0  0  0  0  0  0  0
  146.9117  135.1610  154.4821 H   0  0  0  0  0  0  0  0  0  0  0  0
  145.8109  137.9064  154.0363 H   0  0  0  0  0  0  0  0  0  0  0  0
  146.7194  138.3909  152.6213 H   0  0  0  0  0  0  0  0  0  0  0  0
  143.9312  137.5669  152.3050 H   0  0  0  0  0  0  0  0  0  0  0  0
  142.7373  135.7717  151.0747 H   0  0  0  0  0  0  0  0  0  0  0  0
  143.8925  133.6293  150.5625 H   0  0  0  0  0  0  0  0  0  0  0  0
  146.2496  133.2845  151.2799 H   0  0  0  0  0  0  0  0  0  0  0  0
  147.4507  135.0719  152.5124 H   0  0  0  0  0  0  0  0  0  0  0  0
  148.7174  138.9171  153.6793 H   0  0  0  0  0  0  0  0  0  0  0  0
  148.1970  138.5516  155.2948 H   0  0  0  0  0  0  0  0  0  0  0  0
  150.2741  136.7362  154.0294 H   0  0  0  0  0  0  0  0  0  0  0  0
  149.5801  136.2468  156.0280 H   0  0  0  0  0  0  0  0  0  0  0  0
  152.0593  138.3610  155.0481 H   0  0  0  0  0  0  0  0  0  0  0  0
  151.3758  138.8240  153.5094 H   0  0  0  0  0  0  0  0  0  0  0  0
  149.4621  140.9071  153.6090 H   0  0  0  0  0  0  0  0  0  0  0  0
  150.3828  143.2766  157.9927 H   0  0  0  0  0  0  0  0  0  0  0  0
  151.8309  142.1782  159.7083 H   0  0  0  0  0  0  0  0  0  0  0  0
  152.8193  139.9558  159.3015 H   0  0  0  0  0  0  0  0  0  0  0  0
  152.4044  138.7321  157.1680 H   0  0  0  0  0  0  0  0  0  0  0  0
  148.2393  136.5710  153.1526 H   0  0  0  0  0  0  0  0  0  0  0  0
  149.3235  142.7905  155.3485 H   0  0  0  0  0  0  0  0  0  0  0  0
  1  2  1  0  0  0  0
  1 23  1  0  0  0  0
  1 24  1  0  0  0  0
  1 25  1  0  0  0  0
  2  3  1  0  0  0  0
  2 10  1  0  0  0  0
  2 44  1  0  0  0  0
  3  4  1  0  0  0  0
  3 26  1  0  0  0  0
  3 27  1  0  0  0  0
  4  9  1  0  0  0  0
  4  5  2  0  0  0  0
  5  6  1  0  0  0  0
  5 28  1  0  0  0  0
  6  7  2  0  0  0  0
  6 29  1  0  0  0  0
  7  8  1  0  0  0  0
  7 30  1  0  0  0  0
  8  9  2  0  0  0  0
  8 31  1  0  0  0  0
  9 32  1  0  0  0  0
 10 11  1  0  0  0  0
 10 33  1  0  0  0  0
 10 34  1  0  0  0  0
 11 12  1  0  0  0  0
 11 13  1  0  0  0  0
 11 35  1  0  0  0  0
 12 36  1  0  0  0  0
 13 14  1  0  0  0  0
 13 37  1  0  0  0  0
 13 38  1  0  0  0  0
 14 22  1  0  0  0  0
 14 15  1  0  0  0  0
 15 16  2  0  0  0  0
 15 39  1  0  0  0  0
 16 17  1  0  0  0  0
 16 45  1  0  0  0  0
 17 22  2  0  0  0  0
 17 18  1  0  0  0  0
 18 19  2  0  0  0  0
 18 40  1  0  0  0  0
 19 20  1  0  0  0  0
 19 41  1  0  0  0  0
 20 21  2  0  0  0  0
 20 42  1  0  0  0  0
 21 22  1  0  0  0  0
 21 43  1  0  0  0  0
M  CHG  1   2   1
M  CHG  1  16   1
M  END
> <s_m_source_file>
AV-unprocessed.smi

> <i_m_source_file_index>
1019

> <i_lp_mmshare_version>
43012

> <i_f3d_flags>
0

> <s_epik_input>
W2NIXTFbY0hdW2NIXVtjSF1bY0hdYzFbQ0gyXU4oW0NIM10pW0NIMl1bQ0BIXShbT0hdKVtDSDJdbihbY0hdbjIpYyhjMjMpW2NIXVtjSF1bY0hdW2NIXTM=

> <s_epik_cmdline>
J2VwaWtfcHl0aG9uJywgJy1waCcsICc3LjAnLCAnLXRuJywgJzgnLCAnLW1hJywgJzIwMCcsICctbWV0YWxfYmluZGluZycsICctaW1hZScsICc8aW5maWxlLm1hZT4nLCAnLW9tYWUnLCAnPG91dGZpbGUubWFlPic=

> <r_epik_Ionization_Penalty>
1.5198

> <r_epik_Ionization_Penalty_Charging>
1.5198

> <r_epik_Ionization_Penalty_Neutral>
3.13312e-06

> <r_epik_State_Penalty>
1.624

> <r_epik_Charging_Adjusted_Penalty>
3.1438

> <i_epik_Tot_Q>
2

> <i_epik_Tot_abs_Q>
2

> <r_epik_Metal_State_Penalty>
5.67392

> <b_epik_Metal_Only>
0

> <s_lp_Force_Field>
OPLS_2005

> <r_lp_Energy>
24.5939

> <b_lp_Chiralities_Consistent>
1

> <s_lp_Variant>
AV-unprocessed.smi:1019-5

> <Gold.Version>
5.8.1

> <Gold.Id.Protein>
6NUR|6NUR_protein|mol2

> <Gold.PLP.Fitness>
45.9662

> <Gold.PLP.PLP>
-33.0201

> <Gold.PLP.part.hbond>
-2.0000

> <Gold.PLP.part.metal>
0.0000

> <Gold.PLP.part.buried>
1.3347

> <Gold.PLP.part.nonpolar>
-31.3449

> <Gold.PLP.part.repulsive>
0.1894

> <Gold.PLP.ligand.clash>
0.0000

> <Gold.PLP.ligand.torsion>
1.0523

> <Gold.PLP.Chemscore.Hbond>
3.9840

> <Gold.PLP.Chemscore.CHOScore>
0.9614

> <Gold.PLP.Chemscore.Metal>
0.0000

> <Gold.Chemscore.Hbonds>
donor molecule, donor type, donor heavy atom, donor atom, acceptor molecule, acceptor atom, score
      L1  H     2    44       P1  7948  1.92
      L1  H    16    45       P1  8028  2.00
      L1  C    15    39       P1  7957  0.83

> <Gold.PLP.Chemscore.Internal.Correction>
0.2147

> <Gold.Rescore>
     Score         DG    S(hbond)    S(metal)    S(lipo)     H(rot)  DE(clash)    DE(int)     intcor
     13.37     -16.15       1.96        0.00      89.01       2.46       1.56       1.21       ----

> <Gold.Chemscore.Fitness>
13.3701

> <Gold.Chemscore.DG>
-16.1471

> <Gold.Chemscore.ZeroCoef>
-5.4800

> <Gold.Chemscore.Hbond>
1.9575

> <Gold.Chemscore.Metal>
0.0000

> <Gold.Chemscore.Lipo>
89.0113

> <Gold.Chemscore.Internal_Hbond>
0.0000

> <Gold.Chemscore.DEClash>
1.5646

> <Gold.Chemscore.DEInternal>
1.2124

> <Gold.Chemscore.Rot>
2.4552

> <Gold.Chemscore.Internal.Correction>
   9.000000E+99

> <Gold.Chemscore.Hbonds>
donor molecule, donor type, donor heavy atom, donor atom, acceptor molecule, acceptor atom, score
      L1  H     2    44       P1  7948  0.91
      L1  H    16    45       P1  8028  0.94

> <Gold.Chemscore.Hbond.Weighted>
-6.5382

> <Gold.Chemscore.Metal.Weighted>
-0.0000

> <Gold.Chemscore.Lipo.Weighted>
-10.4143

> <Gold.Chemscore.Internal_Hbond.Weighted>
0.0000

> <Gold.Chemscore.DEClash.Weighted>
1.5646

> <Gold.Chemscore.DEInternal.Weighted>
1.2124

> <Gold.Chemscore.Rot.Weighted>
6.2854

> <Gold.Chemscore.Internal.Correction.Weighted>
   9.000000E+99

> <Gold.Protein.RotatedTorsions>
[ 6907 6896 6895 6894 ] final   -5.48 input  -60.11 | X-H torsion
[ 7974 7965 7964 7962 ] final  -84.41 input  175.53 | X-H torsion
[ 8008 7997 7996 7995 ] final -114.26 input   59.86 | X-H torsion
[ 10167 10162 10161 10158 ] final  163.53 input  -65.29 | X-H torsion
[ 10718 10713 10712 10709 ] final -102.29 input   66.30 | X-H torsion
[ 10763 10752 10751 10750 ] final  138.77 input  -60.55 | X-H torsion
[ 11005 11000 10999 10996 ] final  103.87 input  -57.11 | X-H torsion

> <Gold.Protein.ActiveResidues>
 VAL166  LYS551  ARG553  GLY616  TRP617  ASP618  TYR619  PRO620  LYS621  CYS622 
 ASP623  PHE694  ASN695  SER759  ASP760  ASP761  ALA762  ILE779  LEU786  VAL792 
 PHE793  MET794  SER795  GLU796  ALA797  LYS798  CYS799  TRP800  GLU811  SER814 

> <Gold.Protein.RotatedAtoms>
  151.4810  135.1052  159.9777 H   0  0  0  0  0  0  0  0  0  0  0  0  # atno 6907 bound_to 6896
  152.4779  133.8179  159.7048 H   0  0  0  0  0  0  0  0  0  0  0  0  # atno 6908 bound_to 6896
  150.8830  133.7285  159.2953 H   0  0  0  0  0  0  0  0  0  0  0  0  # atno 6909 bound_to 6896
  145.5069  140.9543  143.1728 H   0  0  0  0  0  0  0  0  0  0  0  0  # atno 7974 bound_to 7965
  155.0335  140.0393  157.2483 H   0  0  0  0  0  0  0  0  0  0  0  0  # atno 8008 bound_to 7997
  154.7276  140.2724  155.6461 H   0  0  0  0  0  0  0  0  0  0  0  0  # atno 8009 bound_to 7997
  156.2833  140.2690  156.1967 H   0  0  0  0  0  0  0  0  0  0  0  0  # atno 8010 bound_to 7997
  139.4875  144.4327  151.9050 H   0  0  0  0  0  0  0  0  0  0  0  0  # atno 10167 bound_to 10162
  156.0223  130.5413  150.7087 H   0  0  0  0  0  0  0  0  0  0  0  0  # atno 10718 bound_to 10713
  153.8951  135.3028  155.3448 H   0  0  0  0  0  0  0  0  0  0  0  0  # atno 10763 bound_to 10752
  154.7697  135.4892  153.9628 H   0  0  0  0  0  0  0  0  0  0  0  0  # atno 10764 bound_to 10752
  153.1276  135.6796  153.9330 H   0  0  0  0  0  0  0  0  0  0  0  0  # atno 10765 bound_to 10752
  139.8787  134.9279  156.5275 H   0  0  0  0  0  0  0  0  0  0  0  0  # atno 11005 bound_to 11000
  144.7748  139.6653  143.7179 LP  0  0  0  0  0  0  0  0  0  0  0  0  # atno 17320 bound_to 7965
  146.2191  139.5602  142.9630 LP  0  0  0  0  0  0  0  0  0  0  0  0  # atno 17321 bound_to 7965
  140.3775  144.2777  150.5912 LP  0  0  0  0  0  0  0  0  0  0  0  0  # atno 17342 bound_to 10162
  140.5263  143.2253  151.8310 LP  0  0  0  0  0  0  0  0  0  0  0  0  # atno 17343 bound_to 10162
  157.4730  131.0895  151.0621 LP  0  0  0  0  0  0  0  0  0  0  0  0  # atno 17370 bound_to 10713
  157.1076  130.6008  149.5474 LP  0  0  0  0  0  0  0  0  0  0  0  0  # atno 17371 bound_to 10713
  140.8405  133.8209  155.9070 LP  0  0  0  0  0  0  0  0  0  0  0  0  # atno 17394 bound_to 11000
  140.9242  134.2104  157.4907 LP  0  0  0  0  0  0  0  0  0  0  0  0  # atno 17395 bound_to 11000

$$$$
