AV-unprocessed.smi:2023|AV-procd|sdf|8189|dock9
  -GOLD-   2272010443D 1   1.00000     0.00000
 Structure written by MMmdl.
 35 36  0  0  0  0  0  0  0  0  1 V2000
  149.1692  141.5556  153.9746 O   0  0  0  0  0  0  0  0  0  0  0  0
  149.9211  141.0423  155.1297 S   0  0  0  0  0  0  0  0  0  0  0  0
  151.1100  140.1967  154.9433 O   0  0  0  0  0  0  0  0  0  0  0  0
  150.3660  142.3653  156.1443 N   0  0  0  0  0  0  0  0  0  0  0  0
  151.0026  142.0934  157.4345 C   0  0  0  0  0  0  0  0  0  0  0  0
  151.7622  143.3290  157.9461 C   0  0  0  0  0  0  0  0  0  0  0  0
  152.0977  143.2555  159.4247 C   0  0  0  0  0  0  0  0  0  0  0  0
  152.8099  142.1590  159.9529 C   0  0  0  0  0  0  0  0  0  0  0  0
  153.0746  142.1233  161.3351 C   0  0  0  0  0  0  0  0  0  0  0  0
  152.6182  143.1920  162.1321 C   0  0  0  0  0  0  0  0  0  0  0  0
  151.9413  144.2505  161.6371 N   0  0  0  0  0  0  0  0  0  0  0  0
  151.6887  144.2747  160.3107 C   0  0  0  0  0  0  0  0  0  0  0  0
  148.8147  140.2311  156.1850 N   0  0  0  0  0  0  0  0  0  0  0  0
  147.5965  140.9715  156.5536 C   0  0  0  0  0  0  0  0  0  0  0  0
  146.6058  140.0741  157.3129 C   0  0  0  0  0  0  0  0  0  0  0  0
  147.2446  139.4779  158.4308 O   0  0  0  0  0  0  0  0  0  0  0  0
  148.3136  138.6371  158.0269 C   0  0  0  0  0  0  0  0  0  0  0  0
  149.3907  139.4599  157.3019 C   0  0  0  0  0  0  0  0  0  0  0  0
  149.6318  143.0703  156.2056 H   0  0  0  0  0  0  0  0  0  0  0  0
  150.2308  141.8075  158.1492 H   0  0  0  0  0  0  0  0  0  0  0  0
  151.6772  141.2412  157.3417 H   0  0  0  0  0  0  0  0  0  0  0  0
  152.6807  143.4640  157.3733 H   0  0  0  0  0  0  0  0  0  0  0  0
  151.1626  144.2231  157.7715 H   0  0  0  0  0  0  0  0  0  0  0  0
  153.1400  141.3540  159.3130 H   0  0  0  0  0  0  0  0  0  0  0  0
  153.6121  141.2962  161.7747 H   0  0  0  0  0  0  0  0  0  0  0  0
  152.8032  143.1973  163.1961 H   0  0  0  0  0  0  0  0  0  0  0  0
  151.1368  145.1289  159.9470 H   0  0  0  0  0  0  0  0  0  0  0  0
  147.8773  141.8257  157.1708 H   0  0  0  0  0  0  0  0  0  0  0  0
  147.1209  141.3678  155.6563 H   0  0  0  0  0  0  0  0  0  0  0  0
  145.7604  140.6657  157.6647 H   0  0  0  0  0  0  0  0  0  0  0  0
  146.1998  139.3029  156.6561 H   0  0  0  0  0  0  0  0  0  0  0  0
  148.7401  138.1610  158.9098 H   0  0  0  0  0  0  0  0  0  0  0  0
  147.9410  137.8368  157.3854 H   0  0  0  0  0  0  0  0  0  0  0  0
  150.1705  138.7941  156.9343 H   0  0  0  0  0  0  0  0  0  0  0  0
  149.8653  140.1509  157.9999 H   0  0  0  0  0  0  0  0  0  0  0  0
  1  2  2  0  0  0  0
  2  3  2  0  0  0  0
  2  4  1  0  0  0  0
  2 13  1  0  0  0  0
  4  5  1  0  0  0  0
  4 19  1  0  0  0  0
  5  6  1  0  0  0  0
  5 20  1  0  0  0  0
  5 21  1  0  0  0  0
  6  7  1  0  0  0  0
  6 22  1  0  0  0  0
  6 23  1  0  0  0  0
  7 12  1  0  0  0  0
  7  8  2  0  0  0  0
  8  9  1  0  0  0  0
  8 24  1  0  0  0  0
  9 10  2  0  0  0  0
  9 25  1  0  0  0  0
 10 11  1  0  0  0  0
 10 26  1  0  0  0  0
 11 12  2  0  0  0  0
 12 27  1  0  0  0  0
 13 18  1  0  0  0  0
 13 14  1  0  0  0  0
 14 15  1  0  0  0  0
 14 28  1  0  0  0  0
 14 29  1  0  0  0  0
 15 16  1  0  0  0  0
 15 30  1  0  0  0  0
 15 31  1  0  0  0  0
 16 17  1  0  0  0  0
 17 18  1  0  0  0  0
 17 32  1  0  0  0  0
 17 33  1  0  0  0  0
 18 34  1  0  0  0  0
 18 35  1  0  0  0  0
M  END
> <s_m_source_file>
AV-unprocessed.smi

> <i_m_source_file_index>
2023

> <i_lp_mmshare_version>
43012

> <i_f3d_flags>
0

> <s_epik_input>
W0NIMl0xW0NIMl1PW0NIMl1bQ0gyXU4xUyg9TykoPU8pW05IXVtDSDJdW0NIMl1jMltjSF1bY0hdW2NIXW5bY0hdMg==

> <s_epik_cmdline>
J2VwaWtfcHl0aG9uJywgJy1waCcsICc3LjAnLCAnLXRuJywgJzgnLCAnLW1hJywgJzIwMCcsICctbWV0YWxfYmluZGluZycsICctaW1hZScsICc8aW5maWxlLm1hZT4nLCAnLW9tYWUnLCAnPG91dGZpbGUubWFlPic=

> <r_epik_Ionization_Penalty>
0.0861056

> <r_epik_Ionization_Penalty_Charging>
0

> <r_epik_Ionization_Penalty_Neutral>
0.0861056

> <r_epik_State_Penalty>
0.0574425

> <r_epik_Charging_Adjusted_Penalty>
0.0574425

> <i_epik_Tot_Q>
0

> <i_epik_Tot_abs_Q>
0

> <r_epik_Metal_State_Penalty>
0.317425

> <b_epik_Metal_Only>
0

> <s_lp_Force_Field>
OPLS_2005

> <r_lp_Energy>
8.68862

> <b_lp_Chiralities_Consistent>
1

> <s_lp_Variant>
AV-unprocessed.smi:2023-1

> <Gold.Version>
5.8.1

> <Gold.Id.Protein>
6NUR|6NUR_protein|mol2

> <Gold.PLP.Fitness>
43.7735

> <Gold.PLP.PLP>
-36.3581

> <Gold.PLP.part.hbond>
-4.7720

> <Gold.PLP.part.metal>
0.0000

> <Gold.PLP.part.buried>
-5.6655

> <Gold.PLP.part.nonpolar>
-26.3346

> <Gold.PLP.part.repulsive>
0.4473

> <Gold.PLP.ligand.clash>
0.0000

> <Gold.PLP.ligand.torsion>
0.5865

> <Gold.PLP.Chemscore.Hbond>
2.6160

> <Gold.PLP.Chemscore.CHOScore>
0.0000

> <Gold.PLP.Chemscore.Metal>
0.0000

> <Gold.Chemscore.Hbonds>
donor molecule, donor type, donor heavy atom, donor atom, acceptor molecule, acceptor atom, score
      L1  H     4    19       P1  8028  1.00
      P1  H  7989  7998       L1     3  0.90
      P1  H  8011  8017       L1     1  0.67

> <Gold.PLP.Chemscore.Internal.Correction>
0.7404

> <Gold.Rescore>
     Score         DG    S(hbond)    S(metal)    S(lipo)     H(rot)  DE(clash)    DE(int)     intcor
     16.62     -17.32       2.17        0.00      79.46       1.84       0.01       0.69       ----

> <Gold.Chemscore.Fitness>
16.6224

> <Gold.Chemscore.DG>
-17.3187

> <Gold.Chemscore.ZeroCoef>
-5.4800

> <Gold.Chemscore.Hbond>
2.1700

> <Gold.Chemscore.Metal>
0.0000

> <Gold.Chemscore.Lipo>
79.4590

> <Gold.Chemscore.Internal_Hbond>
0.0000

> <Gold.Chemscore.DEClash>
0.0060

> <Gold.Chemscore.DEInternal>
0.6903

> <Gold.Chemscore.Rot>
1.8382

> <Gold.Chemscore.Internal.Correction>
   9.000000E+99

> <Gold.Chemscore.Hbonds>
donor molecule, donor type, donor heavy atom, donor atom, acceptor molecule, acceptor atom, score
      L1  H     4    19       P1  8028  0.94
      P1  H  7989  7998       L1     3  0.18
      P1  H  8011  8017       L1     1  0.65

> <Gold.Chemscore.Hbond.Weighted>
-7.2476

> <Gold.Chemscore.Metal.Weighted>
-0.0000

> <Gold.Chemscore.Lipo.Weighted>
-9.2967

> <Gold.Chemscore.Internal_Hbond.Weighted>
0.0000

> <Gold.Chemscore.DEClash.Weighted>
0.0060

> <Gold.Chemscore.DEInternal.Weighted>
0.6903

> <Gold.Chemscore.Rot.Weighted>
4.7057

> <Gold.Chemscore.Internal.Correction.Weighted>
   9.000000E+99

> <Gold.Protein.RotatedTorsions>
[ 6907 6896 6895 6894 ] final  108.43 input  -60.11 | X-H torsion
[ 7974 7965 7964 7962 ] final   92.15 input  175.53 | X-H torsion
[ 8008 7997 7996 7995 ] final  -29.09 input   59.86 | X-H torsion
[ 10167 10162 10161 10158 ] final -103.60 input  -65.29 | X-H torsion
[ 10718 10713 10712 10709 ] final   29.68 input   66.30 | X-H torsion
[ 10763 10752 10751 10750 ] final -132.28 input  -60.55 | X-H torsion
[ 11005 11000 10999 10996 ] final -168.85 input  -57.11 | X-H torsion

> <Gold.Protein.ActiveResidues>
 VAL166  LYS551  ARG553  GLY616  TRP617  ASP618  TYR619  PRO620  LYS621  CYS622 
 ASP623  PHE694  ASN695  SER759  ASP760  ASP761  ALA762  ILE779  LEU786  VAL792 
 PHE793  MET794  SER795  GLU796  ALA797  LYS798  CYS799  TRP800  GLU811  SER814 

> <Gold.Protein.RotatedAtoms>
  152.5112  133.9089  159.7477 H   0  0  0  0  0  0  0  0  0  0  0  0  # atno 6907 bound_to 6896
  150.9487  133.6565  159.2783 H   0  0  0  0  0  0  0  0  0  0  0  0  # atno 6908 bound_to 6896
  151.3851  135.0951  159.9561 H   0  0  0  0  0  0  0  0  0  0  0  0  # atno 6909 bound_to 6896
  145.4962  139.2276  143.2802 H   0  0  0  0  0  0  0  0  0  0  0  0  # atno 7974 bound_to 7965
  154.4304  140.1827  156.1193 H   0  0  0  0  0  0  0  0  0  0  0  0  # atno 8008 bound_to 7997
  156.0156  140.3346  155.6960 H   0  0  0  0  0  0  0  0  0  0  0  0  # atno 8009 bound_to 7997
  155.6049  140.0644  157.2713 H   0  0  0  0  0  0  0  0  0  0  0  0  # atno 8010 bound_to 7997
  140.2182  143.3695  152.0992 H   0  0  0  0  0  0  0  0  0  0  0  0  # atno 10167 bound_to 10162
  157.2497  130.7109  149.6399 H   0  0  0  0  0  0  0  0  0  0  0  0  # atno 10718 bound_to 10713
  154.8744  135.3803  154.4383 H   0  0  0  0  0  0  0  0  0  0  0  0  # atno 10763 bound_to 10752
  153.5070  135.7030  153.5806 H   0  0  0  0  0  0  0  0  0  0  0  0  # atno 10764 bound_to 10752
  153.4112  135.3924  155.2018 H   0  0  0  0  0  0  0  0  0  0  0  0  # atno 10765 bound_to 10752
  140.5374  134.5556  157.5091 H   0  0  0  0  0  0  0  0  0  0  0  0  # atno 11005 bound_to 11000
  146.2254  140.5760  142.8999 LP  0  0  0  0  0  0  0  0  0  0  0  0  # atno 17320 bound_to 7965
  144.7806  140.5831  143.6608 LP  0  0  0  0  0  0  0  0  0  0  0  0  # atno 17321 bound_to 7965
  139.5154  144.6962  151.5623 LP  0  0  0  0  0  0  0  0  0  0  0  0  # atno 17342 bound_to 10162
  140.6274  143.9142  150.6576 LP  0  0  0  0  0  0  0  0  0  0  0  0  # atno 17343 bound_to 10162
  155.9666  130.4431  150.5410 LP  0  0  0  0  0  0  0  0  0  0  0  0  # atno 17370 bound_to 10713
  157.3291  131.0696  151.1874 LP  0  0  0  0  0  0  0  0  0  0  0  0  # atno 17371 bound_to 10713
  139.9522  134.7597  156.0423 LP  0  0  0  0  0  0  0  0  0  0  0  0  # atno 17394 bound_to 11000
  141.1247  133.6603  156.3305 LP  0  0  0  0  0  0  0  0  0  0  0  0  # atno 17395 bound_to 11000

$$$$
