AV-unprocessed.smi:193|AV-procd|sdf|1498|dock6
  -GOLD-   2262019323D 1   1.00000     0.00000
 Structure written by MMmdl.
 62 66  0  0  0  0  0  0  0  0  2 V2000
  152.0928  139.5061  155.0647 C   0  0  0  0  0  0  0  0  0  0  0  0
  150.8032  139.8971  155.8033 C   0  0  2  0  0  0  0  0  0  0  0  0
  149.6310  139.0567  155.2534 C   0  0  0  0  0  0  0  0  0  0  0  0
  148.4069  139.1594  156.0413 N   0  0  0  0  0  0  0  0  0  0  0  0
  147.4889  138.2427  155.6683 C   0  0  0  0  0  0  0  0  0  0  0  0
  147.1740  137.2751  156.5634 N   0  0  0  0  0  0  0  0  0  0  0  0
  146.2737  136.3400  156.2435 C   0  0  0  0  0  0  0  0  0  0  0  0
  145.5908  136.1921  155.1057 N   0  0  0  0  0  0  0  0  0  0  0  0
  145.9134  137.1618  154.2022 C   0  0  0  0  0  0  0  0  0  0  0  0
  146.8457  138.2184  154.3995 C   0  0  0  0  0  0  0  0  0  0  0  0
  146.9184  139.0088  153.2591 N   0  0  0  0  0  0  0  0  0  0  0  0
  146.0744  138.4509  152.4337 C   0  0  0  0  0  0  0  0  0  0  0  0
  145.4235  137.3394  152.9204 N   0  0  0  0  0  0  0  0  0  0  0  0
  144.4408  136.5268  152.2189 C   0  0  0  0  0  0  0  0  0  0  0  0
  145.0601  135.4762  151.2644 C   0  0  0  0  0  0  0  0  0  0  0  0
  145.6127  136.1723  150.1600 O   0  0  0  0  0  0  0  0  0  0  0  0
  146.1948  134.7088  151.9721 C   0  0  0  0  0  0  0  0  0  0  0  0
  146.7263  133.5421  151.1203 C   0  0  0  0  0  0  0  0  0  0  0  0
  145.6581  132.6738  150.7624 O   0  0  0  0  0  0  0  0  0  0  0  0
  144.6762  133.3129  149.9557 C   0  0  0  0  0  0  0  0  0  0  0  0
  144.0189  134.4662  150.7345 C   0  0  0  0  0  0  0  0  0  0  0  0
  147.8462  140.4817  156.3016 C   0  0  0  0  0  0  0  0  0  0  0  0
  148.6796  141.2424  157.3438 C   0  0  0  0  0  0  0  0  0  0  0  0
  149.7925  142.0415  156.7686 N   0  3  1  0  0  0  0  0  0  0  0  0
  150.6989  142.5483  157.8246 C   0  0  2  0  0  0  0  0  0  0  0  0
  150.1024  143.6609  158.6557 C   0  0  0  0  0  0  0  0  0  0  0  0
  151.1510  143.9764  157.6108 C   0  0  1  0  0  0  0  0  0  0  0  0
  152.5352  144.4194  158.0314 C   0  0  0  0  0  0  0  0  0  0  0  0
  150.5397  141.4132  155.6443 C   0  0  0  0  0  0  0  0  0  0  0  0
  152.0203  139.7202  153.9978 H   0  0  0  0  0  0  0  0  0  0  0  0
  152.3041  138.4422  155.1766 H   0  0  0  0  0  0  0  0  0  0  0  0
  152.9529  140.0502  155.4565 H   0  0  0  0  0  0  0  0  0  0  0  0
  150.9626  139.6562  156.8552 H   0  0  0  0  0  0  0  0  0  0  0  0
  149.4211  139.3375  154.2200 H   0  0  0  0  0  0  0  0  0  0  0  0
  149.9311  138.0074  155.2299 H   0  0  0  0  0  0  0  0  0  0  0  0
  146.0715  135.6047  157.0085 H   0  0  0  0  0  0  0  0  0  0  0  0
  145.8987  138.8386  151.4406 H   0  0  0  0  0  0  0  0  0  0  0  0
  143.8075  136.0401  152.9619 H   0  0  0  0  0  0  0  0  0  0  0  0
  143.7875  137.1976  151.6594 H   0  0  0  0  0  0  0  0  0  0  0  0
  145.7624  135.5544  149.4607 H   0  0  0  0  0  0  0  0  0  0  0  0
  147.0108  135.3843  152.2324 H   0  0  0  0  0  0  0  0  0  0  0  0
  145.8231  134.3039  152.9144 H   0  0  0  0  0  0  0  0  0  0  0  0
  147.2315  133.9056  150.2241 H   0  0  0  0  0  0  0  0  0  0  0  0
  147.4631  132.9733  151.6876 H   0  0  0  0  0  0  0  0  0  0  0  0
  145.1273  133.6711  149.0291 H   0  0  0  0  0  0  0  0  0  0  0  0
  143.9222  132.5778  149.6738 H   0  0  0  0  0  0  0  0  0  0  0  0
  143.4671  134.0456  151.5761 H   0  0  0  0  0  0  0  0  0  0  0  0
  143.2811  134.9611  150.1017 H   0  0  0  0  0  0  0  0  0  0  0  0
  147.7440  141.0546  155.3790 H   0  0  0  0  0  0  0  0  0  0  0  0
  146.8374  140.3574  156.6993 H   0  0  0  0  0  0  0  0  0  0  0  0
  148.0264  141.9385  157.8704 H   0  0  0  0  0  0  0  0  0  0  0  0
  149.0530  140.5516  158.1021 H   0  0  0  0  0  0  0  0  0  0  0  0
  151.3637  141.8167  158.2810 H   0  0  0  0  0  0  0  0  0  0  0  0
  149.0812  143.9749  158.4475 H   0  0  0  0  0  0  0  0  0  0  0  0
  150.3993  143.7175  159.7011 H   0  0  0  0  0  0  0  0  0  0  0  0
  150.7905  144.4749  156.7125 H   0  0  0  0  0  0  0  0  0  0  0  0
  152.8551  143.8915  158.9302 H   0  0  0  0  0  0  0  0  0  0  0  0
  152.5387  145.4900  158.2375 H   0  0  0  0  0  0  0  0  0  0  0  0
  153.2510  144.2158  157.2351 H   0  0  0  0  0  0  0  0  0  0  0  0
  151.4813  141.9499  155.5191 H   0  0  0  0  0  0  0  0  0  0  0  0
  149.9920  141.5953  154.7191 H   0  0  0  0  0  0  0  0  0  0  0  0
  149.3631  142.8623  156.3661 H   0  0  0  0  0  0  0  0  0  0  0  0
  1  2  1  0  0  0  0
  1 30  1  0  0  0  0
  1 31  1  0  0  0  0
  1 32  1  0  0  0  0
  2 29  1  0  0  0  0
  2  3  1  0  0  0  0
  2 33  1  0  0  0  0
  3  4  1  0  0  0  0
  3 34  1  0  0  0  0
  3 35  1  0  0  0  0
  4  5  1  0  0  0  0
  4 22  1  0  0  0  0
  5 10  1  0  0  0  0
  5  6  2  0  0  0  0
  6  7  1  0  0  0  0
  7  8  2  0  0  0  0
  7 36  1  0  0  0  0
  8  9  1  0  0  0  0
  9 13  1  0  0  0  0
  9 10  2  0  0  0  0
 10 11  1  0  0  0  0
 11 12  2  0  0  0  0
 12 13  1  0  0  0  0
 12 37  1  0  0  0  0
 13 14  1  0  0  0  0
 14 15  1  0  0  0  0
 14 38  1  0  0  0  0
 14 39  1  0  0  0  0
 15 21  1  0  0  0  0
 15 16  1  0  0  0  0
 15 17  1  0  0  0  0
 16 40  1  0  0  0  0
 17 18  1  0  0  0  0
 17 41  1  0  0  0  0
 17 42  1  0  0  0  0
 18 19  1  0  0  0  0
 18 43  1  0  0  0  0
 18 44  1  0  0  0  0
 19 20  1  0  0  0  0
 20 21  1  0  0  0  0
 20 45  1  0  0  0  0
 20 46  1  0  0  0  0
 21 47  1  0  0  0  0
 21 48  1  0  0  0  0
 22 23  1  0  0  0  0
 22 49  1  0  0  0  0
 22 50  1  0  0  0  0
 23 24  1  0  0  0  0
 23 51  1  0  0  0  0
 23 52  1  0  0  0  0
 24 25  1  0  0  0  0
 24 29  1  0  0  0  0
 24 62  1  0  0  0  0
 25 27  1  0  0  0  0
 25 26  1  0  0  0  0
 25 53  1  0  0  0  0
 26 27  1  0  0  0  0
 26 54  1  0  0  0  0
 26 55  1  0  0  0  0
 27 28  1  0  0  0  0
 27 56  1  0  0  0  0
 28 57  1  0  0  0  0
 28 58  1  0  0  0  0
 28 59  1  0  0  0  0
 29 60  1  0  0  0  0
 29 61  1  0  0  0  0
M  CHG  1  24   1
M  END
> <s_m_source_file>
AV-unprocessed.smi

> <i_m_source_file_index>
193

> <i_lp_mmshare_version>
43012

> <i_f3d_flags>
0

> <s_epik_input>
W0NIM11bQ0BASF0xW0NIMl1bQ0BIXTFOKFtDSDJdMilbQ0gyXVtDSDJdTihbQ0gyXVtDQEhdMltDSDNdKWMobltjSF1uMyljKGMzNCluW2NIXW40W0NIMl1DNShbT0hdKVtDSDJdW0NIMl1PW0NIMl1bQ0gyXTU=

> <s_epik_cmdline>
J2VwaWtfcHl0aG9uJywgJy1waCcsICc3LjAnLCAnLXRuJywgJzgnLCAnLW1hJywgJzIwMCcsICctbWV0YWxfYmluZGluZycsICctaW1hZScsICc8aW5maWxlLm1hZT4nLCAnLW9tYWUnLCAnPG91dGZpbGUubWFlPic=

> <r_lp_tautomer_probability>
1

> <r_epik_Ionization_Penalty>
0.0540825

> <r_epik_Ionization_Penalty_Charging>
0.0538476

> <r_epik_Ionization_Penalty_Neutral>
0.000234891

> <r_epik_State_Penalty>
0.0200719

> <r_epik_Charging_Adjusted_Penalty>
0.0739194

> <i_epik_Tot_Q>
1

> <i_epik_Tot_abs_Q>
1

> <r_epik_Metal_State_Penalty>
0.0199414

> <b_epik_Metal_Only>
0

> <s_lp_Force_Field>
OPLS_2005

> <r_lp_Energy>
56.0511

> <b_lp_Chiralities_Consistent>
1

> <s_lp_Variant>
AV-unprocessed.smi:193-3

> <Gold.Version>
5.8.1

> <Gold.Id.Protein>
6NUR|6NUR_protein|mol2

> <Gold.PLP.Fitness>
49.9986

> <Gold.PLP.PLP>
-39.5303

> <Gold.PLP.part.hbond>
-2.8602

> <Gold.PLP.part.metal>
0.0000

> <Gold.PLP.part.buried>
-0.4207

> <Gold.PLP.part.nonpolar>
-36.4008

> <Gold.PLP.part.repulsive>
0.3930

> <Gold.PLP.ligand.clash>
0.0000

> <Gold.PLP.ligand.torsion>
1.2277

> <Gold.PLP.Chemscore.Hbond>
3.0000

> <Gold.PLP.Chemscore.CHOScore>
0.7764

> <Gold.PLP.Chemscore.Metal>
0.0000

> <Gold.Chemscore.Hbonds>
donor molecule, donor type, donor heavy atom, donor atom, acceptor molecule, acceptor atom, score
      L1  H    16    40       P1  7921  1.00
      L1  H    24    62       P1  8028  1.92
      L1  C    12    37       P1 10171  0.83
      L1  C    12    37       P1 10175  0.01

> <Gold.PLP.Chemscore.Internal.Correction>
1.5947

> <Gold.Rescore>
     Score         DG    S(hbond)    S(metal)    S(lipo)     H(rot)  DE(clash)    DE(int)     intcor
     16.96     -18.77       1.77        0.00     111.26       2.20       0.63       1.18       ----

> <Gold.Chemscore.Fitness>
16.9564

> <Gold.Chemscore.DG>
-18.7701

> <Gold.Chemscore.ZeroCoef>
-5.4800

> <Gold.Chemscore.Hbond>
1.7694

> <Gold.Chemscore.Metal>
0.0000

> <Gold.Chemscore.Lipo>
111.2570

> <Gold.Chemscore.Internal_Hbond>
0.0000

> <Gold.Chemscore.DEClash>
0.6347

> <Gold.Chemscore.DEInternal>
1.1790

> <Gold.Chemscore.Rot>
2.2018

> <Gold.Chemscore.Internal.Correction>
   9.000000E+99

> <Gold.Chemscore.Hbonds>
donor molecule, donor type, donor heavy atom, donor atom, acceptor molecule, acceptor atom, score
      L1  H    16    40       P1  7921  0.96
      L1  H    24    62       P1  8028  0.91

> <Gold.Chemscore.Hbond.Weighted>
-5.9096

> <Gold.Chemscore.Metal.Weighted>
-0.0000

> <Gold.Chemscore.Lipo.Weighted>
-13.0171

> <Gold.Chemscore.Internal_Hbond.Weighted>
0.0000

> <Gold.Chemscore.DEClash.Weighted>
0.6347

> <Gold.Chemscore.DEInternal.Weighted>
1.1790

> <Gold.Chemscore.Rot.Weighted>
5.6366

> <Gold.Chemscore.Internal.Correction.Weighted>
   9.000000E+99

> <Gold.Protein.RotatedTorsions>
[ 6907 6896 6895 6894 ] final  105.96 input  -60.11 | X-H torsion
[ 7974 7965 7964 7962 ] final -174.77 input  175.53 | X-H torsion
[ 8008 7997 7996 7995 ] final  -93.15 input   59.86 | X-H torsion
[ 10167 10162 10161 10158 ] final -144.71 input  -65.29 | X-H torsion
[ 10718 10713 10712 10709 ] final -148.57 input   66.30 | X-H torsion
[ 10763 10752 10751 10750 ] final  -89.59 input  -60.55 | X-H torsion
[ 11005 11000 10999 10996 ] final  148.21 input  -57.11 | X-H torsion

> <Gold.Protein.ActiveResidues>
 VAL166  LYS551  ARG553  GLY616  TRP617  ASP618  TYR619  PRO620  LYS621  CYS622 
 ASP623  PHE694  ASN695  SER759  ASP760  ASP761  ALA762  ILE779  LEU786  VAL792 
 PHE793  MET794  SER795  GLU796  ALA797  LYS798  CYS799  TRP800  GLU811  SER814 

> <Gold.Protein.RotatedAtoms>
  152.5211  133.9451  159.7644 H   0  0  0  0  0  0  0  0  0  0  0  0  # atno 6907 bound_to 6896
  150.9773  133.6273  159.2735 H   0  0  0  0  0  0  0  0  0  0  0  0  # atno 6908 bound_to 6896
  151.3464  135.0880  159.9441 H   0  0  0  0  0  0  0  0  0  0  0  0  # atno 6909 bound_to 6896
  144.7130  140.1422  143.6391 H   0  0  0  0  0  0  0  0  0  0  0  0  # atno 7974 bound_to 7965
  154.7321  140.0502  157.0735 H   0  0  0  0  0  0  0  0  0  0  0  0  # atno 8008 bound_to 7997
  155.0289  140.3155  155.4746 H   0  0  0  0  0  0  0  0  0  0  0  0  # atno 8009 bound_to 7997
  156.2844  140.2153  156.5409 H   0  0  0  0  0  0  0  0  0  0  0  0  # atno 8010 bound_to 7997
  139.7873  143.8015  152.2646 H   0  0  0  0  0  0  0  0  0  0  0  0  # atno 10167 bound_to 10162
  156.4220  130.8033  151.2256 H   0  0  0  0  0  0  0  0  0  0  0  0  # atno 10718 bound_to 10713
  154.6568  135.5335  153.7969 H   0  0  0  0  0  0  0  0  0  0  0  0  # atno 10763 bound_to 10752
  153.0418  135.6496  154.0932 H   0  0  0  0  0  0  0  0  0  0  0  0  # atno 10764 bound_to 10752
  154.0845  135.2944  155.3264 H   0  0  0  0  0  0  0  0  0  0  0  0  # atno 10765 bound_to 10752
  140.0940  134.9023  157.1695 H   0  0  0  0  0  0  0  0  0  0  0  0  # atno 11005 bound_to 11000
  145.9192  139.2535  143.1392 LP  0  0  0  0  0  0  0  0  0  0  0  0  # atno 17320 bound_to 7965
  145.9638  140.8815  143.0197 LP  0  0  0  0  0  0  0  0  0  0  0  0  # atno 17321 bound_to 7965
  139.8096  144.7341  150.9715 LP  0  0  0  0  0  0  0  0  0  0  0  0  # atno 17342 bound_to 10162
  140.7820  143.4264  151.0762 LP  0  0  0  0  0  0  0  0  0  0  0  0  # atno 17343 bound_to 10162
  157.7508  131.0225  150.3795 LP  0  0  0  0  0  0  0  0  0  0  0  0  # atno 17370 bound_to 10713
  156.4114  130.3935  149.6888 LP  0  0  0  0  0  0  0  0  0  0  0  0  # atno 17371 bound_to 10713
  140.3312  134.2808  155.7228 LP  0  0  0  0  0  0  0  0  0  0  0  0  # atno 17394 bound_to 11000
  141.2086  133.7771  157.0046 LP  0  0  0  0  0  0  0  0  0  0  0  0  # atno 17395 bound_to 11000

$$$$
