AV-unprocessed.smi:252|AV-procd|sdf|1942|dock2
  -GOLD-   2262021 73D 1   1.00000     0.00000
 Structure written by MMmdl.
 56 59  0  0  0  0  0  0  0  0  1 V2000
  152.1763  145.2511  158.9411 C   0  0  0  0  0  0  0  0  0  0  0  0
  150.7992  144.6673  158.5889 C   0  0  0  0  0  0  0  0  0  0  0  0
  150.8559  143.2306  158.0593 C   0  0  0  0  0  0  0  0  0  0  0  0
  151.4170  142.3399  158.6981 O   0  0  0  0  0  0  0  0  0  0  0  0
  150.2592  143.0223  156.8761 N   0  0  0  0  0  0  0  0  0  0  0  0
  150.1740  141.7402  156.1851 C   0  0  2  0  0  0  0  0  0  0  0  0
  149.1001  141.7856  155.0799 C   0  0  0  0  0  0  0  0  0  0  0  0
  148.9326  140.4010  154.4368 C   0  0  0  0  0  0  0  0  0  0  0  0
  148.6348  139.3322  155.5002 C   0  0  0  0  0  0  0  0  0  0  0  0
  149.6575  139.3441  156.5470 N   0  0  0  0  0  0  0  0  0  0  0  0
  149.7185  138.2755  157.3806 C   0  0  0  0  0  0  0  0  0  0  0  0
  150.9125  137.6728  157.6281 N   0  0  0  0  0  0  0  0  0  0  0  0
  150.9772  136.6125  158.4386 C   0  0  0  0  0  0  0  0  0  0  0  0
  149.9891  136.0025  159.0954 N   0  0  0  0  0  0  0  0  0  0  0  0
  148.7892  136.6038  158.8544 C   0  0  0  0  0  0  0  0  0  0  0  0
  148.5674  137.7367  158.0212 C   0  0  0  0  0  0  0  0  0  0  0  0
  147.2202  138.0787  158.0367 N   0  0  0  0  0  0  0  0  0  0  0  0
  146.6766  137.1961  158.8294 C   0  0  0  0  0  0  0  0  0  0  0  0
  147.5438  136.2639  159.3537 N   0  0  0  0  0  0  0  0  0  0  0  0
  147.2095  135.1768  160.2606 C   0  0  0  0  0  0  0  0  0  0  0  0
  146.3853  135.6155  161.5028 C   0  0  2  0  0  0  0  0  0  0  0  0
  145.0533  135.8953  161.1158 O   0  0  0  0  0  0  0  0  0  0  0  0
  146.9549  136.8291  162.2275 C   0  0  0  0  0  0  0  0  0  0  0  0
  148.0302  136.2112  163.1165 C   0  0  0  0  0  0  0  0  0  0  0  0
  147.5750  134.8941  163.4130 O   0  0  0  0  0  0  0  0  0  0  0  0
  146.4034  134.5960  162.6579 C   0  0  2  0  0  0  0  0  0  0  0  0
  146.3687  133.1103  162.2707 C   0  0  0  0  0  0  0  0  0  0  0  0
  149.8543  140.6340  157.2070 C   0  0  0  0  0  0  0  0  0  0  0  0
  152.0807  146.2819  159.2829 H   0  0  0  0  0  0  0  0  0  0  0  0
  152.8419  145.2511  158.0771 H   0  0  0  0  0  0  0  0  0  0  0  0
  152.6569  144.6839  159.7390 H   0  0  0  0  0  0  0  0  0  0  0  0
  150.1573  144.6871  159.4701 H   0  0  0  0  0  0  0  0  0  0  0  0
  150.3216  145.2982  157.8382 H   0  0  0  0  0  0  0  0  0  0  0  0
  149.8237  143.8120  156.4220 H   0  0  0  0  0  0  0  0  0  0  0  0
  151.1407  141.5112  155.7315 H   0  0  0  0  0  0  0  0  0  0  0  0
  148.1466  142.1071  155.5011 H   0  0  0  0  0  0  0  0  0  0  0  0
  149.3677  142.5177  154.3173 H   0  0  0  0  0  0  0  0  0  0  0  0
  148.1319  140.4252  153.6974 H   0  0  0  0  0  0  0  0  0  0  0  0
  149.8442  140.1365  153.8993 H   0  0  0  0  0  0  0  0  0  0  0  0
  147.6571  139.5155  155.9485 H   0  0  0  0  0  0  0  0  0  0  0  0
  148.5949  138.3505  155.0261 H   0  0  0  0  0  0  0  0  0  0  0  0
  151.9616  136.1908  158.5795 H   0  0  0  0  0  0  0  0  0  0  0  0
  145.6190  137.1966  159.0502 H   0  0  0  0  0  0  0  0  0  0  0  0
  146.6626  134.4251  159.6904 H   0  0  0  0  0  0  0  0  0  0  0  0
  148.1406  134.7019  160.5715 H   0  0  0  0  0  0  0  0  0  0  0  0
  144.7300  135.1696  160.6040 H   0  0  0  0  0  0  0  0  0  0  0  0
  147.3339  137.6165  161.5775 H   0  0  0  0  0  0  0  0  0  0  0  0
  146.1918  137.2805  162.8644 H   0  0  0  0  0  0  0  0  0  0  0  0
  148.9782  136.1421  162.5818 H   0  0  0  0  0  0  0  0  0  0  0  0
  148.1972  136.7882  164.0262 H   0  0  0  0  0  0  0  0  0  0  0  0
  145.5590  134.8003  163.3193 H   0  0  0  0  0  0  0  0  0  0  0  0
  145.4919  132.8846  161.6633 H   0  0  0  0  0  0  0  0  0  0  0  0
  146.3262  132.4821  163.1607 H   0  0  0  0  0  0  0  0  0  0  0  0
  147.2554  132.8175  161.7083 H   0  0  0  0  0  0  0  0  0  0  0  0
  150.6551  140.5826  157.9444 H   0  0  0  0  0  0  0  0  0  0  0  0
  148.9436  140.8828  157.7541 H   0  0  0  0  0  0  0  0  0  0  0  0
  1  2  1  0  0  0  0
  1 29  1  0  0  0  0
  1 30  1  0  0  0  0
  1 31  1  0  0  0  0
  2  3  1  0  0  0  0
  2 32  1  0  0  0  0
  2 33  1  0  0  0  0
  3  4  2  0  0  0  0
  3  5  1  0  0  0  0
  5  6  1  0  0  0  0
  5 34  1  0  0  0  0
  6 28  1  0  0  0  0
  6  7  1  0  0  0  0
  6 35  1  0  0  0  0
  7  8  1  0  0  0  0
  7 36  1  0  0  0  0
  7 37  1  0  0  0  0
  8  9  1  0  0  0  0
  8 38  1  0  0  0  0
  8 39  1  0  0  0  0
  9 10  1  0  0  0  0
  9 40  1  0  0  0  0
  9 41  1  0  0  0  0
 10 11  1  0  0  0  0
 10 28  1  0  0  0  0
 11 16  1  0  0  0  0
 11 12  2  0  0  0  0
 12 13  1  0  0  0  0
 13 14  2  0  0  0  0
 13 42  1  0  0  0  0
 14 15  1  0  0  0  0
 15 19  1  0  0  0  0
 15 16  2  0  0  0  0
 16 17  1  0  0  0  0
 17 18  2  0  0  0  0
 18 19  1  0  0  0  0
 18 43  1  0  0  0  0
 19 20  1  0  0  0  0
 20 21  1  0  0  0  0
 20 44  1  0  0  0  0
 20 45  1  0  0  0  0
 21 26  1  0  0  0  0
 21 22  1  0  0  0  0
 21 23  1  0  0  0  0
 22 46  1  0  0  0  0
 23 24  1  0  0  0  0
 23 47  1  0  0  0  0
 23 48  1  0  0  0  0
 24 25  1  0  0  0  0
 24 49  1  0  0  0  0
 24 50  1  0  0  0  0
 25 26  1  0  0  0  0
 26 27  1  0  0  0  0
 26 51  1  0  0  0  0
 27 52  1  0  0  0  0
 27 53  1  0  0  0  0
 27 54  1  0  0  0  0
 28 55  1  0  0  0  0
 28 56  1  0  0  0  0
M  END
> <s_m_source_file>
AV-unprocessed.smi

> <i_m_source_file_index>
252

> <i_lp_mmshare_version>
43012

> <i_f3d_flags>
0

> <s_epik_input>
W0NIM11bQ0gyXUMoPU8pW05IXVtDQEBIXTFbQ0gyXVtDSDJdW0NIMl1OKFtDSDJdMSljKG5bY0hdbjIpYyhjMjMpbltjSF1uM1tDSDJdW0NAQF00KFtPSF0pW0NIMl1bQ0gyXU9bQ0BIXTRbQ0gzXQ==

> <s_epik_cmdline>
J2VwaWtfcHl0aG9uJywgJy1waCcsICc3LjAnLCAnLXRuJywgJzgnLCAnLW1hJywgJzIwMCcsICctbWV0YWxfYmluZGluZycsICctaW1hZScsICc8aW5maWxlLm1hZT4nLCAnLW9tYWUnLCAnPG91dGZpbGUubWFlPic=

> <r_lp_tautomer_probability>
1

> <r_epik_Ionization_Penalty>
0.00182575

> <r_epik_Ionization_Penalty_Charging>
0

> <r_epik_Ionization_Penalty_Neutral>
0.00182575

> <r_epik_State_Penalty>
0.00104524

> <r_epik_Charging_Adjusted_Penalty>
0.00104524

> <i_epik_Tot_Q>
0

> <i_epik_Tot_abs_Q>
0

> <r_epik_Metal_State_Penalty>
-0

> <b_epik_Metal_Only>
0

> <s_lp_Force_Field>
OPLS_2005

> <r_lp_Energy>
36.2255

> <b_lp_Chiralities_Consistent>
1

> <s_lp_Variant>
AV-unprocessed.smi:252-7

> <Gold.Version>
5.8.1

> <Gold.Id.Protein>
6NUR|6NUR_protein|mol2

> <Gold.PLP.Fitness>
46.1676

> <Gold.PLP.PLP>
-41.7092

> <Gold.PLP.part.hbond>
-2.7815

> <Gold.PLP.part.metal>
0.0000

> <Gold.PLP.part.buried>
-3.8821

> <Gold.PLP.part.nonpolar>
-36.7699

> <Gold.PLP.part.repulsive>
0.0643

> <Gold.PLP.ligand.clash>
0.0000

> <Gold.PLP.ligand.torsion>
0.9869

> <Gold.PLP.Chemscore.Hbond>
2.0000

> <Gold.PLP.Chemscore.CHOScore>
0.0000

> <Gold.PLP.Chemscore.Metal>
0.0000

> <Gold.Chemscore.Hbonds>
donor molecule, donor type, donor heavy atom, donor atom, acceptor molecule, acceptor atom, score
      L1  H     5    34       P1  8028  0.93
      P1  H  6896  6908       L1    14  1.00

> <Gold.PLP.Chemscore.Internal.Correction>
0.4322

> <Gold.Rescore>
     Score         DG    S(hbond)    S(metal)    S(lipo)     H(rot)  DE(clash)    DE(int)     intcor
     12.26     -15.25       1.49        0.00      99.98       2.70       0.91       2.08       ----

> <Gold.Chemscore.Fitness>
12.2596

> <Gold.Chemscore.DG>
-15.2471

> <Gold.Chemscore.ZeroCoef>
-5.4800

> <Gold.Chemscore.Hbond>
1.4945

> <Gold.Chemscore.Metal>
0.0000

> <Gold.Chemscore.Lipo>
99.9833

> <Gold.Chemscore.Internal_Hbond>
0.0000

> <Gold.Chemscore.DEClash>
0.9103

> <Gold.Chemscore.DEInternal>
2.0772

> <Gold.Chemscore.Rot>
2.7041

> <Gold.Chemscore.Internal.Correction>
   9.000000E+99

> <Gold.Chemscore.Hbonds>
donor molecule, donor type, donor heavy atom, donor atom, acceptor molecule, acceptor atom, score
      L1  H     5    34       P1  8028  0.89
      P1  H  6896  6908       L1    14  0.29

> <Gold.Chemscore.Hbond.Weighted>
-4.9915

> <Gold.Chemscore.Metal.Weighted>
-0.0000

> <Gold.Chemscore.Lipo.Weighted>
-11.6980

> <Gold.Chemscore.Internal_Hbond.Weighted>
0.0000

> <Gold.Chemscore.DEClash.Weighted>
0.9103

> <Gold.Chemscore.DEInternal.Weighted>
2.0772

> <Gold.Chemscore.Rot.Weighted>
6.9225

> <Gold.Chemscore.Internal.Correction.Weighted>
   9.000000E+99

> <Gold.Protein.RotatedTorsions>
[ 6907 6896 6895 6894 ] final  173.74 input  -60.11 | X-H torsion
[ 7974 7965 7964 7962 ] final -178.45 input  175.53 | X-H torsion
[ 8008 7997 7996 7995 ] final  -98.93 input   59.86 | X-H torsion
[ 10167 10162 10161 10158 ] final -127.12 input  -65.29 | X-H torsion
[ 10718 10713 10712 10709 ] final -153.24 input   66.30 | X-H torsion
[ 10763 10752 10751 10750 ] final -147.41 input  -60.55 | X-H torsion
[ 11005 11000 10999 10996 ] final   -6.58 input  -57.11 | X-H torsion

> <Gold.Protein.ActiveResidues>
 VAL166  LYS551  ARG553  GLY616  TRP617  ASP618  TYR619  PRO620  LYS621  CYS622 
 ASP623  PHE694  ASN695  SER759  ASP760  ASP761  ALA762  ILE779  LEU786  VAL792 
 PHE793  MET794  SER795  GLU796  ALA797  LYS798  CYS799  TRP800  GLU811  SER814 

> <Gold.Protein.RotatedAtoms>
  151.7634  133.3335  159.3423 H   0  0  0  0  0  0  0  0  0  0  0  0  # atno 6907 bound_to 6896
  150.7489  134.6085  159.6083 H   0  0  0  0  0  0  0  0  0  0  0  0  # atno 6908 bound_to 6896
  152.3390  134.7162  160.0320 H   0  0  0  0  0  0  0  0  0  0  0  0  # atno 6909 bound_to 6896
  144.7131  140.0867  143.6423 H   0  0  0  0  0  0  0  0  0  0  0  0  # atno 7974 bound_to 7965
  154.8079  140.0451  157.1321 H   0  0  0  0  0  0  0  0  0  0  0  0  # atno 8008 bound_to 7997
  154.9403  140.3051  155.5104 H   0  0  0  0  0  0  0  0  0  0  0  0  # atno 8009 bound_to 7997
  156.2968  140.2307  156.4471 H   0  0  0  0  0  0  0  0  0  0  0  0  # atno 8010 bound_to 7997
  139.9642  143.5916  152.2435 H   0  0  0  0  0  0  0  0  0  0  0  0  # atno 10167 bound_to 10162
  156.4832  130.8312  151.2539 H   0  0  0  0  0  0  0  0  0  0  0  0  # atno 10718 bound_to 10713
  154.8287  135.3361  154.6813 H   0  0  0  0  0  0  0  0  0  0  0  0  # atno 10763 bound_to 10752
  153.7435  135.6944  153.4966 H   0  0  0  0  0  0  0  0  0  0  0  0  # atno 10764 bound_to 10752
  153.2227  135.4443  155.0458 H   0  0  0  0  0  0  0  0  0  0  0  0  # atno 10765 bound_to 10752
  140.7036  133.8969  155.8700 H   0  0  0  0  0  0  0  0  0  0  0  0  # atno 11005 bound_to 11000
  145.9655  139.2831  143.1130 LP  0  0  0  0  0  0  0  0  0  0  0  0  # atno 17320 bound_to 7965
  145.9174  140.9139  143.0423 LP  0  0  0  0  0  0  0  0  0  0  0  0  # atno 17321 bound_to 7965
  139.6530  144.7661  151.2110 LP  0  0  0  0  0  0  0  0  0  0  0  0  # atno 17342 bound_to 10162
  140.7543  143.6130  150.8587 LP  0  0  0  0  0  0  0  0  0  0  0  0  # atno 17343 bound_to 10162
  157.7481  131.0038  150.3052 LP  0  0  0  0  0  0  0  0  0  0  0  0  # atno 17370 bound_to 10713
  156.3501  130.3829  149.7336 LP  0  0  0  0  0  0  0  0  0  0  0  0  # atno 17371 bound_to 10713
  141.0143  134.0977  157.4188 LP  0  0  0  0  0  0  0  0  0  0  0  0  # atno 17394 bound_to 11000
  139.8890  135.0102  156.6654 LP  0  0  0  0  0  0  0  0  0  0  0  0  # atno 17395 bound_to 11000

$$$$
