AV-unprocessed.smi:1787|AV-procd|sdf|7208|dock9
  -GOLD-   22720 8453D 1   1.00000     0.00000
 Structure written by MMmdl.
 45 47  0  0  0  0  0  0  0  0  2 V2000
  151.2678  141.2105  156.5531 O   0  0  0  0  0  0  0  0  0  0  0  0
  150.5379  142.1788  156.3475 C   0  0  0  0  0  0  0  0  0  0  0  0
  149.6567  142.2388  155.3395 N   0  0  0  0  0  0  0  0  0  0  0  0
  149.4222  141.1904  154.3463 C   0  0  0  0  0  0  0  0  0  0  0  0
  148.1416  140.3383  154.6264 C   0  0  1  0  0  0  0  0  0  0  0  0
  148.5196  139.1455  155.4725 N   0  3  0  0  0  0  0  0  0  0  0  0
  149.4767  138.2104  154.8167 C   0  0  0  0  0  0  0  0  0  0  0  0
  149.6543  136.9334  155.6510 C   0  0  0  0  0  0  0  0  0  0  0  0
  150.1266  137.2843  156.9427 O   0  0  0  0  0  0  0  0  0  0  0  0
  149.1893  138.0939  157.6367 C   0  0  0  0  0  0  0  0  0  0  0  0
  148.9496  139.4100  156.8746 C   0  0  0  0  0  0  0  0  0  0  0  0
  147.0598  141.2215  155.2940 C   0  0  0  0  0  0  0  0  0  0  0  0
  146.5071  142.2011  154.2483 C   0  0  0  0  0  0  0  0  0  0  0  0
  146.6425  141.4203  152.6203 S   0  0  0  0  0  0  0  0  0  0  0  0
  147.4721  139.9536  153.2794 C   0  0  0  0  0  0  0  0  0  0  0  0
  150.5115  143.3084  157.0753 N   0  0  0  0  0  0  0  0  0  0  0  0
  151.2625  143.6484  158.2336 C   0  0  0  0  0  0  0  0  0  0  0  0
  152.3200  142.8718  158.7680 C   0  0  0  0  0  0  0  0  0  0  0  0
  152.9721  143.3216  159.9324 C   0  0  0  0  0  0  0  0  0  0  0  0
  152.5414  144.5248  160.5241 C   0  0  0  0  0  0  0  0  0  0  0  0
  151.5288  145.2689  160.0322 N   0  0  0  0  0  0  0  0  0  0  0  0
  150.9097  144.8325  158.9153 C   0  0  0  0  0  0  0  0  0  0  0  0
  149.1195  143.0873  155.2369 H   0  0  0  0  0  0  0  0  0  0  0  0
  149.3356  141.6903  153.3821 H   0  0  0  0  0  0  0  0  0  0  0  0
  150.3109  140.5665  154.2459 H   0  0  0  0  0  0  0  0  0  0  0  0
  149.1319  137.9294  153.8231 H   0  0  0  0  0  0  0  0  0  0  0  0
  150.4478  138.6915  154.6945 H   0  0  0  0  0  0  0  0  0  0  0  0
  148.7182  136.3771  155.7228 H   0  0  0  0  0  0  0  0  0  0  0  0
  150.3819  136.2741  155.1773 H   0  0  0  0  0  0  0  0  0  0  0  0
  148.2534  137.5488  157.7708 H   0  0  0  0  0  0  0  0  0  0  0  0
  149.5772  138.3045  158.6335 H   0  0  0  0  0  0  0  0  0  0  0  0
  149.8540  140.0192  156.8821 H   0  0  0  0  0  0  0  0  0  0  0  0
  148.1810  139.9462  157.4282 H   0  0  0  0  0  0  0  0  0  0  0  0
  146.2394  140.5966  155.6481 H   0  0  0  0  0  0  0  0  0  0  0  0
  147.4372  141.7633  156.1619 H   0  0  0  0  0  0  0  0  0  0  0  0
  145.4740  142.4771  154.4607 H   0  0  0  0  0  0  0  0  0  0  0  0
  147.0964  143.1184  154.2364 H   0  0  0  0  0  0  0  0  0  0  0  0
  148.1584  139.5195  152.5537 H   0  0  0  0  0  0  0  0  0  0  0  0
  146.6540  139.2490  153.4127 H   0  0  0  0  0  0  0  0  0  0  0  0
  149.8997  144.0365  156.7368 H   0  0  0  0  0  0  0  0  0  0  0  0
  152.6390  141.9422  158.3242 H   0  0  0  0  0  0  0  0  0  0  0  0
  153.7830  142.7545  160.3646 H   0  0  0  0  0  0  0  0  0  0  0  0
  153.0196  144.8969  161.4179 H   0  0  0  0  0  0  0  0  0  0  0  0
  150.1036  145.4534  158.5522 H   0  0  0  0  0  0  0  0  0  0  0  0
  147.6581  138.6271  155.5697 H   0  0  0  0  0  0  0  0  0  0  0  0
  1  2  2  0  0  0  0
  2  3  1  0  0  0  0
  2 16  1  0  0  0  0
  3  4  1  0  0  0  0
  3 23  1  0  0  0  0
  4  5  1  0  0  0  0
  4 24  1  0  0  0  0
  4 25  1  0  0  0  0
  5 15  1  0  0  0  0
  5  6  1  0  0  0  0
  5 12  1  0  0  0  0
  6 11  1  0  0  0  0
  6  7  1  0  0  0  0
  6 45  1  0  0  0  0
  7  8  1  0  0  0  0
  7 26  1  0  0  0  0
  7 27  1  0  0  0  0
  8  9  1  0  0  0  0
  8 28  1  0  0  0  0
  8 29  1  0  0  0  0
  9 10  1  0  0  0  0
 10 11  1  0  0  0  0
 10 30  1  0  0  0  0
 10 31  1  0  0  0  0
 11 32  1  0  0  0  0
 11 33  1  0  0  0  0
 12 13  1  0  0  0  0
 12 34  1  0  0  0  0
 12 35  1  0  0  0  0
 13 14  1  0  0  0  0
 13 36  1  0  0  0  0
 13 37  1  0  0  0  0
 14 15  1  0  0  0  0
 15 38  1  0  0  0  0
 15 39  1  0  0  0  0
 16 17  1  0  0  0  0
 16 40  1  0  0  0  0
 17 22  1  0  0  0  0
 17 18  2  0  0  0  0
 18 19  1  0  0  0  0
 18 41  1  0  0  0  0
 19 20  2  0  0  0  0
 19 42  1  0  0  0  0
 20 21  1  0  0  0  0
 20 43  1  0  0  0  0
 21 22  2  0  0  0  0
 22 44  1  0  0  0  0
M  CHG  1   6   1
M  END
> <s_m_source_file>
AV-unprocessed.smi

> <i_m_source_file_index>
1787

> <i_lp_mmshare_version>
43012

> <i_f3d_flags>
0

> <s_epik_input>
W2NIXTFuW2NIXVtjSF1bY0hdYzFbTkhdQyg9TylbTkhdW0NIMl1bQ0BdMihbQ0gyXVtDSDJdU1tDSDJdMilOM1tDSDJdW0NIMl1PW0NIMl1bQ0gyXTM=

> <s_epik_cmdline>
J2VwaWtfcHl0aG9uJywgJy1waCcsICc3LjAnLCAnLXRuJywgJzgnLCAnLW1hJywgJzIwMCcsICctbWV0YWxfYmluZGluZycsICctaW1hZScsICc8aW5maWxlLm1hZT4nLCAnLW9tYWUnLCAnPG91dGZpbGUubWFlPic=

> <r_epik_Ionization_Penalty>
2.03633

> <r_epik_Ionization_Penalty_Charging>
2.03219

> <r_epik_Ionization_Penalty_Neutral>
0.00414252

> <r_epik_State_Penalty>
2.16328

> <r_epik_Charging_Adjusted_Penalty>
4.19546

> <i_epik_Tot_Q>
1

> <i_epik_Tot_abs_Q>
1

> <r_epik_Metal_State_Penalty>
2.16381

> <b_epik_Metal_Only>
0

> <s_lp_Force_Field>
OPLS_2005

> <r_lp_Energy>
45.3922

> <b_lp_Chiralities_Consistent>
1

> <s_lp_Variant>
AV-unprocessed.smi:1787-3

> <Gold.Version>
5.8.1

> <Gold.Id.Protein>
6NUR|6NUR_protein|mol2

> <Gold.PLP.Fitness>
40.5697

> <Gold.PLP.PLP>
-33.0485

> <Gold.PLP.part.hbond>
-2.0000

> <Gold.PLP.part.metal>
0.0000

> <Gold.PLP.part.buried>
-5.7249

> <Gold.PLP.part.nonpolar>
-26.0835

> <Gold.PLP.part.repulsive>
0.3724

> <Gold.PLP.ligand.clash>
0.0000

> <Gold.PLP.ligand.torsion>
0.8003

> <Gold.PLP.Chemscore.Hbond>
2.0000

> <Gold.PLP.Chemscore.CHOScore>
1.0000

> <Gold.PLP.Chemscore.Metal>
0.0000

> <Gold.Chemscore.Hbonds>
donor molecule, donor type, donor heavy atom, donor atom, acceptor molecule, acceptor atom, score
      L1  H     3    23       P1  8028  0.99
      L1  H    16    40       P1  8028  1.00
      L1  C    22    44       P1  8029  0.87

> <Gold.PLP.Chemscore.Internal.Correction>
0.1217

> <Gold.Rescore>
     Score         DG    S(hbond)    S(metal)    S(lipo)     H(rot)  DE(clash)    DE(int)     intcor
     16.67     -20.48       1.97        0.00     104.43       1.49       1.96       1.85       ----

> <Gold.Chemscore.Fitness>
16.6707

> <Gold.Chemscore.DG>
-20.4834

> <Gold.Chemscore.ZeroCoef>
-5.4800

> <Gold.Chemscore.Hbond>
1.9728

> <Gold.Chemscore.Metal>
0.0000

> <Gold.Chemscore.Lipo>
104.4317

> <Gold.Chemscore.Internal_Hbond>
0.0000

> <Gold.Chemscore.DEClash>
1.9624

> <Gold.Chemscore.DEInternal>
1.8503

> <Gold.Chemscore.Rot>
1.4860

> <Gold.Chemscore.Internal.Correction>
   9.000000E+99

> <Gold.Chemscore.Hbonds>
donor molecule, donor type, donor heavy atom, donor atom, acceptor molecule, acceptor atom, score
      L1  H     3    23       P1  8028  0.94
      L1  H    16    40       P1  8028  0.95

> <Gold.Chemscore.Hbond.Weighted>
-6.5892

> <Gold.Chemscore.Metal.Weighted>
-0.0000

> <Gold.Chemscore.Lipo.Weighted>
-12.2185

> <Gold.Chemscore.Internal_Hbond.Weighted>
0.0000

> <Gold.Chemscore.DEClash.Weighted>
1.9624

> <Gold.Chemscore.DEInternal.Weighted>
1.8503

> <Gold.Chemscore.Rot.Weighted>
3.8042

> <Gold.Chemscore.Internal.Correction.Weighted>
   9.000000E+99

> <Gold.Protein.RotatedTorsions>
[ 6907 6896 6895 6894 ] final  161.02 input  -60.11 | X-H torsion
[ 7974 7965 7964 7962 ] final   81.72 input  175.53 | X-H torsion
[ 8008 7997 7996 7995 ] final   99.42 input   59.86 | X-H torsion
[ 10167 10162 10161 10158 ] final   47.26 input  -65.29 | X-H torsion
[ 10718 10713 10712 10709 ] final   71.93 input   66.30 | X-H torsion
[ 10763 10752 10751 10750 ] final -173.81 input  -60.55 | X-H torsion
[ 11005 11000 10999 10996 ] final -123.57 input  -57.11 | X-H torsion

> <Gold.Protein.ActiveResidues>
 VAL166  LYS551  ARG553  GLY616  TRP617  ASP618  TYR619  PRO620  LYS621  CYS622 
 ASP623  PHE694  ASN695  SER759  ASP760  ASP761  ALA762  ILE779  LEU786  VAL792 
 PHE793  MET794  SER795  GLU796  ALA797  LYS798  CYS799  TRP800  GLU811  SER814 

> <Gold.Protein.RotatedAtoms>
  151.9618  133.3698  159.4037 H   0  0  0  0  0  0  0  0  0  0  0  0  # atno 6907 bound_to 6896
  150.6963  134.4232  159.5224 H   0  0  0  0  0  0  0  0  0  0  0  0  # atno 6908 bound_to 6896
  152.1922  134.8662  160.0567 H   0  0  0  0  0  0  0  0  0  0  0  0  # atno 6909 bound_to 6896
  145.6345  139.2412  143.2066 H   0  0  0  0  0  0  0  0  0  0  0  0  # atno 7974 bound_to 7965
  156.1103  140.3229  155.8063 H   0  0  0  0  0  0  0  0  0  0  0  0  # atno 8008 bound_to 7997
  155.4684  140.0545  157.3000 H   0  0  0  0  0  0  0  0  0  0  0  0  # atno 8009 bound_to 7997
  154.4755  140.2030  155.9902 H   0  0  0  0  0  0  0  0  0  0  0  0  # atno 8010 bound_to 7997
  140.3054  144.2884  150.6210 H   0  0  0  0  0  0  0  0  0  0  0  0  # atno 10167 bound_to 10162
  157.6476  130.9553  150.0858 H   0  0  0  0  0  0  0  0  0  0  0  0  # atno 10718 bound_to 10713
  154.6036  135.2857  155.0509 H   0  0  0  0  0  0  0  0  0  0  0  0  # atno 10763 bound_to 10752
  154.1765  135.6464  153.5026 H   0  0  0  0  0  0  0  0  0  0  0  0  # atno 10764 bound_to 10752
  153.0166  135.5413  154.6764 H   0  0  0  0  0  0  0  0  0  0  0  0  # atno 10765 bound_to 10752
  140.9908  134.0541  157.3656 H   0  0  0  0  0  0  0  0  0  0  0  0  # atno 11005 bound_to 11000
  146.1330  140.7160  142.9403 LP  0  0  0  0  0  0  0  0  0  0  0  0  # atno 17320 bound_to 7965
  144.7181  140.4279  143.7029 LP  0  0  0  0  0  0  0  0  0  0  0  0  # atno 17321 bound_to 7965
  140.5614  143.2191  151.7758 LP  0  0  0  0  0  0  0  0  0  0  0  0  # atno 17342 bound_to 10162
  139.4905  144.4343  151.9837 LP  0  0  0  0  0  0  0  0  0  0  0  0  # atno 17343 bound_to 10162
  156.1821  130.3650  149.9021 LP  0  0  0  0  0  0  0  0  0  0  0  0  # atno 17370 bound_to 10713
  156.6970  130.8918  151.3595 LP  0  0  0  0  0  0  0  0  0  0  0  0  # atno 17371 bound_to 10713
  139.8991  135.0157  156.7182 LP  0  0  0  0  0  0  0  0  0  0  0  0  # atno 17394 bound_to 11000
  140.7042  133.9279  155.8043 LP  0  0  0  0  0  0  0  0  0  0  0  0  # atno 17395 bound_to 11000

$$$$
