AV-unprocessed.smi:2646|AV-procd|sdf|10281|dock4
  -GOLD-   2272014293D 1   1.00000     0.00000
 Structure written by MMmdl.
 43 44  0  0  0  0  0  0  0  0  1 V2000
  144.1973  135.0531  153.0075 C   0  0  0  0  0  0  0  0  0  0  0  0
  145.2891  135.1042  151.9082 C   0  0  1  0  0  0  0  0  0  0  0  0
  144.6254  135.5536  150.5729 C   0  0  0  0  0  0  0  0  0  0  0  0
  145.5249  136.2459  149.7305 O   0  0  0  0  0  0  0  0  0  0  0  0
  146.3299  136.0743  152.2832 N   0  0  0  0  0  0  0  0  0  0  0  0
  146.1905  137.3084  152.7949 C   0  0  0  0  0  0  0  0  0  0  0  0
  145.1065  137.8380  153.0353 O   0  0  0  0  0  0  0  0  0  0  0  0
  147.3902  137.8841  152.9835 N   0  0  0  0  0  0  0  0  0  0  0  0
  147.6782  139.1712  153.5115 C   0  0  0  0  0  0  0  0  0  0  0  0
  148.9153  139.3578  154.1616 C   0  0  0  0  0  0  0  0  0  0  0  0
  149.2187  140.6183  154.7102 C   0  0  0  0  0  0  0  0  0  0  0  0
  148.2633  141.6464  154.5947 C   0  0  0  0  0  0  0  0  0  0  0  0
  147.0680  141.4808  153.9903 N   0  0  0  0  0  0  0  0  0  0  0  0
  146.7839  140.2696  153.4647 C   0  0  0  0  0  0  0  0  0  0  0  0
  145.9852  133.7038  151.7673 C   0  0  0  0  0  0  0  0  0  0  0  0
  145.0305  132.5832  151.2712 C   0  0  0  0  0  0  0  0  0  0  0  0
  145.7528  131.2382  151.0923 C   0  0  0  0  0  0  0  0  0  0  0  0
  146.4404  130.7969  152.3901 C   0  0  0  0  0  0  0  0  0  0  0  0
  147.4049  131.8813  152.8853 C   0  0  0  0  0  0  0  0  0  0  0  0
  146.6878  133.2282  153.0680 C   0  0  0  0  0  0  0  0  0  0  0  0
  143.5269  134.2058  152.8593 H   0  0  0  0  0  0  0  0  0  0  0  0
  143.5773  135.9496  153.0075 H   0  0  0  0  0  0  0  0  0  0  0  0
  144.6225  134.9675  154.0070 H   0  0  0  0  0  0  0  0  0  0  0  0
  144.2493  134.6976  150.0127 H   0  0  0  0  0  0  0  0  0  0  0  0
  143.7611  136.1922  150.7556 H   0  0  0  0  0  0  0  0  0  0  0  0
  145.7239  135.6951  148.9888 H   0  0  0  0  0  0  0  0  0  0  0  0
  147.2766  135.7596  152.1295 H   0  0  0  0  0  0  0  0  0  0  0  0
  148.1897  137.3607  152.6582 H   0  0  0  0  0  0  0  0  0  0  0  0
  149.6270  138.5486  154.2367 H   0  0  0  0  0  0  0  0  0  0  0  0
  150.1611  140.7933  155.2077 H   0  0  0  0  0  0  0  0  0  0  0  0
  148.4625  142.6259  155.0037 H   0  0  0  0  0  0  0  0  0  0  0  0
  145.8043  140.1913  153.0199 H   0  0  0  0  0  0  0  0  0  0  0  0
  146.7617  133.8006  151.0070 H   0  0  0  0  0  0  0  0  0  0  0  0
  144.2038  132.4509  151.9698 H   0  0  0  0  0  0  0  0  0  0  0  0
  144.5841  132.8507  150.3146 H   0  0  0  0  0  0  0  0  0  0  0  0
  145.0422  130.4756  150.7721 H   0  0  0  0  0  0  0  0  0  0  0  0
  146.4933  131.3240  150.2960 H   0  0  0  0  0  0  0  0  0  0  0  0
  145.6897  130.5939  153.1551 H   0  0  0  0  0  0  0  0  0  0  0  0
  146.9803  129.8635  152.2278 H   0  0  0  0  0  0  0  0  0  0  0  0
  147.8579  131.5722  153.8277 H   0  0  0  0  0  0  0  0  0  0  0  0
  148.2228  131.9974  152.1729 H   0  0  0  0  0  0  0  0  0  0  0  0
  147.4282  133.9563  153.3958 H   0  0  0  0  0  0  0  0  0  0  0  0
  145.9637  133.1402  153.8786 H   0  0  0  0  0  0  0  0  0  0  0  0
  1  2  1  0  0  0  0
  1 21  1  0  0  0  0
  1 22  1  0  0  0  0
  1 23  1  0  0  0  0
  2  3  1  0  0  0  0
  2  5  1  0  0  0  0
  2 15  1  0  0  0  0
  3  4  1  0  0  0  0
  3 24  1  0  0  0  0
  3 25  1  0  0  0  0
  4 26  1  0  0  0  0
  5  6  1  0  0  0  0
  5 27  1  0  0  0  0
  6  7  2  0  0  0  0
  6  8  1  0  0  0  0
  8  9  1  0  0  0  0
  8 28  1  0  0  0  0
  9 14  1  0  0  0  0
  9 10  2  0  0  0  0
 10 11  1  0  0  0  0
 10 29  1  0  0  0  0
 11 12  2  0  0  0  0
 11 30  1  0  0  0  0
 12 13  1  0  0  0  0
 12 31  1  0  0  0  0
 13 14  2  0  0  0  0
 14 32  1  0  0  0  0
 15 20  1  0  0  0  0
 15 16  1  0  0  0  0
 15 33  1  0  0  0  0
 16 17  1  0  0  0  0
 16 34  1  0  0  0  0
 16 35  1  0  0  0  0
 17 18  1  0  0  0  0
 17 36  1  0  0  0  0
 17 37  1  0  0  0  0
 18 19  1  0  0  0  0
 18 38  1  0  0  0  0
 18 39  1  0  0  0  0
 19 20  1  0  0  0  0
 19 40  1  0  0  0  0
 19 41  1  0  0  0  0
 20 42  1  0  0  0  0
 20 43  1  0  0  0  0
M  END
> <s_m_source_file>
AV-unprocessed.smi

> <i_m_source_file_index>
2646

> <i_lp_mmshare_version>
43012

> <i_f3d_flags>
0

> <s_epik_input>
W0NIMl0xW0NIMl1bQ0gyXVtDSDJdW0NIMl1bQ0hdMVtDQF0oW0NIM10pKFtDSDJdW09IXSlbTkhdQyg9TylbTkhdYzJbY0hdW2NIXVtjSF1uW2NIXTI=

> <s_epik_cmdline>
J2VwaWtfcHl0aG9uJywgJy1waCcsICc3LjAnLCAnLXRuJywgJzgnLCAnLW1hJywgJzIwMCcsICctbWV0YWxfYmluZGluZycsICctaW1hZScsICc8aW5maWxlLm1hZT4nLCAnLW9tYWUnLCAnPG91dGZpbGUubWFlPic=

> <r_epik_Ionization_Penalty>
0.00498697

> <r_epik_Ionization_Penalty_Charging>
0

> <r_epik_Ionization_Penalty_Neutral>
0.00498697

> <r_epik_State_Penalty>
0.00359645

> <r_epik_Charging_Adjusted_Penalty>
0.00359645

> <i_epik_Tot_Q>
0

> <i_epik_Tot_abs_Q>
0

> <r_epik_Metal_State_Penalty>
-0

> <b_epik_Metal_Only>
0

> <s_lp_Force_Field>
OPLS_2005

> <r_lp_Energy>
21.3241

> <b_lp_Chiralities_Consistent>
1

> <s_lp_Variant>
AV-unprocessed.smi:2646-1

> <Gold.Version>
5.8.1

> <Gold.Id.Protein>
6NUR|6NUR_protein|mol2

> <Gold.PLP.Fitness>
46.2774

> <Gold.PLP.PLP>
-33.3194

> <Gold.PLP.part.hbond>
-3.9848

> <Gold.PLP.part.metal>
0.0000

> <Gold.PLP.part.buried>
-1.4257

> <Gold.PLP.part.nonpolar>
-28.6981

> <Gold.PLP.part.repulsive>
1.3753

> <Gold.PLP.ligand.clash>
0.0000

> <Gold.PLP.ligand.torsion>
0.9839

> <Gold.PLP.Chemscore.Hbond>
2.9600

> <Gold.PLP.Chemscore.CHOScore>
2.0000

> <Gold.PLP.Chemscore.Metal>
0.0000

> <Gold.Chemscore.Hbonds>
donor molecule, donor type, donor heavy atom, donor atom, acceptor molecule, acceptor atom, score
      L1  H     4    26       P1  7921  1.00
      L1  H     5    27       P1  7948  0.94
      L1  H     8    28       P1  7948  1.00
      L1  C    12    31       P1  8028  1.00
      L1  C    14    32       P1 10175  1.00

> <Gold.PLP.Chemscore.Internal.Correction>
0.0457

> <Gold.Rescore>
     Score         DG    S(hbond)    S(metal)    S(lipo)     H(rot)  DE(clash)    DE(int)     intcor
     16.71     -19.98       2.94        0.00      83.25       1.98       0.07       3.19       ----

> <Gold.Chemscore.Fitness>
16.7137

> <Gold.Chemscore.DG>
-19.9775

> <Gold.Chemscore.ZeroCoef>
-5.4800

> <Gold.Chemscore.Hbond>
2.9417

> <Gold.Chemscore.Metal>
0.0000

> <Gold.Chemscore.Lipo>
83.2509

> <Gold.Chemscore.Internal_Hbond>
0.0000

> <Gold.Chemscore.DEClash>
0.0736

> <Gold.Chemscore.DEInternal>
3.1902

> <Gold.Chemscore.Rot>
1.9798

> <Gold.Chemscore.Internal.Correction>
   9.000000E+99

> <Gold.Chemscore.Hbonds>
donor molecule, donor type, donor heavy atom, donor atom, acceptor molecule, acceptor atom, score
      L1  H     4    26       P1  7921  1.00
      L1  H     5    27       P1  7948  0.91
      L1  H     8    28       P1  7948  0.96

> <Gold.Chemscore.Hbond.Weighted>
-9.8253

> <Gold.Chemscore.Metal.Weighted>
-0.0000

> <Gold.Chemscore.Lipo.Weighted>
-9.7404

> <Gold.Chemscore.Internal_Hbond.Weighted>
0.0000

> <Gold.Chemscore.DEClash.Weighted>
0.0736

> <Gold.Chemscore.DEInternal.Weighted>
3.1902

> <Gold.Chemscore.Rot.Weighted>
5.0682

> <Gold.Chemscore.Internal.Correction.Weighted>
   9.000000E+99

> <Gold.Protein.RotatedTorsions>
[ 6907 6896 6895 6894 ] final  -14.34 input  -60.11 | X-H torsion
[ 7974 7965 7964 7962 ] final  153.30 input  175.53 | X-H torsion
[ 8008 7997 7996 7995 ] final  165.28 input   59.86 | X-H torsion
[ 10167 10162 10161 10158 ] final   -5.05 input  -65.29 | X-H torsion
[ 10718 10713 10712 10709 ] final  -31.96 input   66.30 | X-H torsion
[ 10763 10752 10751 10750 ] final  -10.75 input  -60.55 | X-H torsion
[ 11005 11000 10999 10996 ] final -159.80 input  -57.11 | X-H torsion

> <Gold.Protein.ActiveResidues>
 VAL166  LYS551  ARG553  GLY616  TRP617  ASP618  TYR619  PRO620  LYS621  CYS622 
 ASP623  PHE694  ASN695  SER759  ASP760  ASP761  ALA762  ILE779  LEU786  VAL792 
 PHE793  MET794  SER795  GLU796  ALA797  LYS798  CYS799  TRP800  GLU811  SER814 

> <Gold.Protein.RotatedAtoms>
  151.3409  135.0863  159.9370 H   0  0  0  0  0  0  0  0  0  0  0  0  # atno 6907 bound_to 6896
  152.5211  133.9448  159.7654 H   0  0  0  0  0  0  0  0  0  0  0  0  # atno 6908 bound_to 6896
  150.9805  133.6197  159.2753 H   0  0  0  0  0  0  0  0  0  0  0  0  # atno 6909 bound_to 6896
  144.8164  139.6782  143.6119 H   0  0  0  0  0  0  0  0  0  0  0  0  # atno 7974 bound_to 7965
  156.1813  140.1674  156.8268 H   0  0  0  0  0  0  0  0  0  0  0  0  # atno 8008 bound_to 7997
  154.5363  140.0746  156.8467 H   0  0  0  0  0  0  0  0  0  0  0  0  # atno 8009 bound_to 7997
  155.3304  140.3379  155.4242 H   0  0  0  0  0  0  0  0  0  0  0  0  # atno 8010 bound_to 7997
  140.6949  143.6353  150.8485 H   0  0  0  0  0  0  0  0  0  0  0  0  # atno 10167 bound_to 10162
  156.3807  130.4355  149.7471 H   0  0  0  0  0  0  0  0  0  0  0  0  # atno 10718 bound_to 10713
  153.4737  135.7017  153.5978 H   0  0  0  0  0  0  0  0  0  0  0  0  # atno 10763 bound_to 10752
  153.4221  135.3823  155.2118 H   0  0  0  0  0  0  0  0  0  0  0  0  # atno 10764 bound_to 10752
  154.8724  135.3930  154.4179 H   0  0  0  0  0  0  0  0  0  0  0  0  # atno 10765 bound_to 10752
  140.6386  134.4575  157.5232 H   0  0  0  0  0  0  0  0  0  0  0  0  # atno 11005 bound_to 11000
  146.2467  139.6113  142.9455 LP  0  0  0  0  0  0  0  0  0  0  0  0  # atno 17320 bound_to 7965
  145.5205  141.0432  143.2438 LP  0  0  0  0  0  0  0  0  0  0  0  0  # atno 17321 bound_to 7965
  140.0070  143.5683  152.2854 LP  0  0  0  0  0  0  0  0  0  0  0  0  # atno 17342 bound_to 10162
  139.6393  144.7653  151.2371 LP  0  0  0  0  0  0  0  0  0  0  0  0  # atno 17343 bound_to 10162
  156.4562  130.7930  151.2951 LP  0  0  0  0  0  0  0  0  0  0  0  0  # atno 17370 bound_to 10713
  157.7492  131.0080  150.3211 LP  0  0  0  0  0  0  0  0  0  0  0  0  # atno 17371 bound_to 10713
  139.9089  134.8389  156.1603 LP  0  0  0  0  0  0  0  0  0  0  0  0  # atno 17394 bound_to 11000
  141.0623  133.6836  156.1977 LP  0  0  0  0  0  0  0  0  0  0  0  0  # atno 17395 bound_to 11000

$$$$
