AV-unprocessed.smi:157|AV-procd|sdf|1308|dock5
  -GOLD-   2262018593D 1   1.00000     0.00000
 Structure written by MMmdl.
 36 38  0  0  0  0  0  0  0  0  2 V2000
  142.6794  132.1235  148.6564 O   0  0  0  0  0  0  0  0  0  0  0  0
  144.0570  132.4319  148.6689 C   0  0  0  0  0  0  0  0  0  0  0  0
  144.4689  132.9747  150.0482 C   0  0  2  0  0  0  0  0  0  0  0  0
  144.4595  134.4016  150.0621 O   0  0  0  0  0  0  0  0  0  0  0  0
  145.5183  134.8831  150.8337 C   0  0  1  0  0  0  0  0  0  0  0  0
  144.9828  135.8763  151.8149 N   0  0  0  0  0  0  0  0  0  0  0  0
  145.6251  136.9902  152.2218 C   0  0  0  0  0  0  0  0  0  0  0  0
  144.9481  137.7274  153.0856 N   0  3  0  0  0  0  0  0  0  0  0  0
  143.7457  137.0847  153.2896 C   0  0  0  0  0  0  0  0  0  0  0  0
  143.7873  135.9328  152.4995 C   0  0  0  0  0  0  0  0  0  0  0  0
  142.8238  134.9252  152.3369 N   0  0  0  0  0  0  0  0  0  0  0  0
  141.8273  134.7622  153.1449 C   0  0  0  0  0  0  0  0  0  0  0  0
  141.4423  135.5389  154.2248 N   0  0  0  0  0  0  0  0  0  0  0  0
  141.3590  136.9873  154.1669 C   0  0  0  0  0  0  0  0  0  0  0  0
  142.7251  137.6843  154.2059 C   0  0  1  0  0  0  0  0  0  0  0  0
  143.1660  137.7389  155.5468 O   0  0  0  0  0  0  0  0  0  0  0  0
  146.1559  133.6884  151.5450 C   0  0  0  0  0  0  0  0  0  0  0  0
  145.8556  132.5672  150.5726 C   0  0  2  0  0  0  0  0  0  0  0  0
  146.8316  132.5220  149.5483 O   0  0  0  0  0  0  0  0  0  0  0  0
  143.7249  132.6624  150.7829 H   0  0  0  0  0  0  0  0  0  0  0  0
  146.2187  135.4318  150.2023 H   0  0  0  0  0  0  0  0  0  0  0  0
  142.5742  138.7197  153.8984 H   0  0  0  0  0  0  0  0  0  0  0  0
  145.8307  131.5960  151.0675 H   0  0  0  0  0  0  0  0  0  0  0  0
  142.2008  132.8731  148.9765 H   0  0  0  0  0  0  0  0  0  0  0  0
  144.6367  131.5508  148.3928 H   0  0  0  0  0  0  0  0  0  0  0  0
  144.2444  133.1861  147.9042 H   0  0  0  0  0  0  0  0  0  0  0  0
  146.6059  137.2539  151.8682 H   0  0  0  0  0  0  0  0  0  0  0  0
  141.1601  133.9122  152.9943 H   0  0  0  0  0  0  0  0  0  0  0  0
  140.7762  135.1569  154.8814 H   0  0  0  0  0  0  0  0  0  0  0  0
  140.8559  137.2479  153.2345 H   0  0  0  0  0  0  0  0  0  0  0  0
  140.7157  137.3508  154.9690 H   0  0  0  0  0  0  0  0  0  0  0  0
  142.9585  138.5901  155.9005 H   0  0  0  0  0  0  0  0  0  0  0  0
  147.2172  133.8538  151.7336 H   0  0  0  0  0  0  0  0  0  0  0  0
  145.6527  133.5043  152.4950 H   0  0  0  0  0  0  0  0  0  0  0  0
  147.4445  131.8311  149.7501 H   0  0  0  0  0  0  0  0  0  0  0  0
  145.2531  138.5977  153.5027 H   0  0  0  0  0  0  0  0  0  0  0  0
  1  2  1  0  0  0  0
  1 24  1  0  0  0  0
  2  3  1  0  0  0  0
  2 25  1  0  0  0  0
  2 26  1  0  0  0  0
  3 20  1  0  0  0  0
  3 18  1  0  0  0  0
  3  4  1  0  0  0  0
  4  5  1  0  0  0  0
  5 21  1  0  0  0  0
  5  6  1  0  0  0  0
  5 17  1  0  0  0  0
  6 10  1  0  0  0  0
  6  7  1  0  0  0  0
  7  8  2  0  0  0  0
  7 27  1  0  0  0  0
  8  9  1  0  0  0  0
  8 36  1  0  0  0  0
  9 15  1  0  0  0  0
  9 10  2  0  0  0  0
 10 11  1  0  0  0  0
 11 12  2  0  0  0  0
 12 13  1  0  0  0  0
 12 28  1  0  0  0  0
 13 14  1  0  0  0  0
 13 29  1  0  0  0  0
 14 15  1  0  0  0  0
 14 30  1  0  0  0  0
 14 31  1  0  0  0  0
 15 22  1  0  0  0  0
 15 16  1  0  0  0  0
 16 32  1  0  0  0  0
 17 18  1  0  0  0  0
 17 33  1  0  0  0  0
 17 34  1  0  0  0  0
 18 23  1  0  0  0  0
 18 19  1  0  0  0  0
 19 35  1  0  0  0  0
M  CHG  1   8   1
M  END
> <s_m_source_file>
AV-unprocessed.smi

> <i_m_source_file_index>
157

> <i_lp_mmshare_version>
43012

> <i_f3d_flags>
0

> <s_epik_input>
W09IXVtDSDJdW0NASF0xT1tDQEhdKFtDSDJdW0NAQEhdMVtPSF0pbihbY0hdbjIpYyhjMjMpTj1bQ0hdW05IXVtDSDJdW0NASF0zW09IXQ==

> <s_epik_cmdline>
J2VwaWtfcHl0aG9uJywgJy1waCcsICc3LjAnLCAnLXRuJywgJzgnLCAnLW1hJywgJzIwMCcsICctbWV0YWxfYmluZGluZycsICctaW1hZScsICc8aW5maWxlLm1hZT4nLCAnLW9tYWUnLCAnPG91dGZpbGUubWFlPic=

> <r_epik_Ionization_Penalty>
1.68594

> <r_epik_Ionization_Penalty_Charging>
0

> <r_epik_Ionization_Penalty_Neutral>
1.68594

> <r_epik_State_Penalty>
1.79006

> <r_epik_Charging_Adjusted_Penalty>
1.79006

> <i_epik_Tot_Q>
1

> <i_epik_Tot_abs_Q>
1

> <r_epik_Metal_State_Penalty>
5.85324

> <b_epik_Metal_Only>
0

> <s_epik_Chemistry_Notes>
This compound has an imine and may undergo hydrolysis. This compound contains an acetal/aminal-like group ( X-CH(R)-Y where X, Y are N, S, or O) that may be acid/base labile, releasing an aldehyde.

> <s_lp_Force_Field>
OPLS_2005

> <r_lp_Energy>
54.692

> <b_lp_Chiralities_Consistent>
1

> <s_lp_Variant>
AV-unprocessed.smi:157-18

> <Gold.Version>
5.8.1

> <Gold.Id.Protein>
6NUR|6NUR_protein|mol2

> <Gold.PLP.Fitness>
45.3680

> <Gold.PLP.PLP>
-34.5858

> <Gold.PLP.part.hbond>
-7.8811

> <Gold.PLP.part.metal>
0.0000

> <Gold.PLP.part.buried>
-5.1500

> <Gold.PLP.part.nonpolar>
-23.5864

> <Gold.PLP.part.repulsive>
1.3761

> <Gold.PLP.ligand.clash>
0.0000

> <Gold.PLP.ligand.torsion>
1.1724

> <Gold.PLP.Chemscore.Hbond>
3.4500

> <Gold.PLP.Chemscore.CHOScore>
0.9244

> <Gold.PLP.Chemscore.Metal>
0.0000

> <Gold.Chemscore.Hbonds>
donor molecule, donor type, donor heavy atom, donor atom, acceptor molecule, acceptor atom, score
      L1  H     1    24       P1 10186  1.00
      L1  H    13    29       P1 11000  0.86
      L1  H    19    35       P1 10747  1.00
      P1  H 10785 10796       L1     1  0.39
      L1  C     7    27       P1  7948  0.98

> <Gold.PLP.Chemscore.Internal.Correction>
0.0040

> <Gold.Rescore>
     Score         DG    S(hbond)    S(metal)    S(lipo)     H(rot)  DE(clash)    DE(int)     intcor
      6.91     -10.74       2.73        0.00      47.18       3.67       1.52       2.31       ----

> <Gold.Chemscore.Fitness>
6.9064

> <Gold.Chemscore.DG>
-10.7399

> <Gold.Chemscore.ZeroCoef>
-5.4800

> <Gold.Chemscore.Hbond>
2.7320

> <Gold.Chemscore.Metal>
0.0000

> <Gold.Chemscore.Lipo>
47.1775

> <Gold.Chemscore.Internal_Hbond>
0.0000

> <Gold.Chemscore.DEClash>
1.5191

> <Gold.Chemscore.DEInternal>
2.3144

> <Gold.Chemscore.Rot>
3.6659

> <Gold.Chemscore.Internal.Correction>
   9.000000E+99

> <Gold.Chemscore.Hbonds>
donor molecule, donor type, donor heavy atom, donor atom, acceptor molecule, acceptor atom, score
      L1  H     1    24       P1 10186  0.94
      L1  H    13    29       P1 11000  0.28
      L1  H    19    35       P1 10747  1.00
      P1  H 10785 10796       L1     1  0.01

> <Gold.Chemscore.Hbond.Weighted>
-9.1249

> <Gold.Chemscore.Metal.Weighted>
-0.0000

> <Gold.Chemscore.Lipo.Weighted>
-5.5198

> <Gold.Chemscore.Internal_Hbond.Weighted>
0.0000

> <Gold.Chemscore.DEClash.Weighted>
1.5191

> <Gold.Chemscore.DEInternal.Weighted>
2.3144

> <Gold.Chemscore.Rot.Weighted>
9.3848

> <Gold.Chemscore.Internal.Correction.Weighted>
   9.000000E+99

> <Gold.Protein.RotatedTorsions>
[ 6907 6896 6895 6894 ] final  126.77 input  -60.11 | X-H torsion
[ 7974 7965 7964 7962 ] final    9.65 input  175.53 | X-H torsion
[ 8008 7997 7996 7995 ] final    4.41 input   59.86 | X-H torsion
[ 10167 10162 10161 10158 ] final   16.89 input  -65.29 | X-H torsion
[ 10718 10713 10712 10709 ] final   20.62 input   66.30 | X-H torsion
[ 10763 10752 10751 10750 ] final    8.45 input  -60.55 | X-H torsion
[ 11005 11000 10999 10996 ] final  162.13 input  -57.11 | X-H torsion

> <Gold.Protein.ActiveResidues>
 VAL166  LYS551  ARG553  GLY616  TRP617  ASP618  TYR619  PRO620  LYS621  CYS622 
 ASP623  PHE694  ASN695  SER759  ASP760  ASP761  ALA762  ILE779  LEU786  VAL792 
 PHE793  MET794  SER795  GLU796  ALA797  LYS798  CYS799  TRP800  GLU811  SER814 

> <Gold.Protein.RotatedAtoms>
  152.3873  133.6629  159.6208 H   0  0  0  0  0  0  0  0  0  0  0  0  # atno 6907 bound_to 6896
  150.7789  133.9013  159.3351 H   0  0  0  0  0  0  0  0  0  0  0  0  # atno 6908 bound_to 6896
  151.6807  135.0963  160.0267 H   0  0  0  0  0  0  0  0  0  0  0  0  # atno 6909 bound_to 6896
  146.2400  139.9752  142.8442 H   0  0  0  0  0  0  0  0  0  0  0  0  # atno 7974 bound_to 7965
  154.7156  140.2701  155.6588 H   0  0  0  0  0  0  0  0  0  0  0  0  # atno 8008 bound_to 7997
  156.2809  140.2744  156.1737 H   0  0  0  0  0  0  0  0  0  0  0  0  # atno 8009 bound_to 7997
  155.0575  140.0371  157.2555 H   0  0  0  0  0  0  0  0  0  0  0  0  # atno 8010 bound_to 7997
  140.5765  143.9063  150.6754 H   0  0  0  0  0  0  0  0  0  0  0  0  # atno 10167 bound_to 10162
  157.1270  130.6574  149.5940 H   0  0  0  0  0  0  0  0  0  0  0  0  # atno 10718 bound_to 10713
  153.2249  135.6885  153.7957 H   0  0  0  0  0  0  0  0  0  0  0  0  # atno 10763 bound_to 10752
  153.7142  135.3277  155.3254 H   0  0  0  0  0  0  0  0  0  0  0  0  # atno 10764 bound_to 10752
  154.8287  135.4598  154.1111 H   0  0  0  0  0  0  0  0  0  0  0  0  # atno 10765 bound_to 10752
  140.2227  134.8184  157.3236 H   0  0  0  0  0  0  0  0  0  0  0  0  # atno 11005 bound_to 11000
  145.1644  140.9689  143.4358 LP  0  0  0  0  0  0  0  0  0  0  0  0  # atno 17320 bound_to 7965
  145.0086  139.3531  143.6131 LP  0  0  0  0  0  0  0  0  0  0  0  0  # atno 17321 bound_to 7965
  140.2551  143.3564  152.1371 LP  0  0  0  0  0  0  0  0  0  0  0  0  # atno 17342 bound_to 10162
  139.5145  144.6949  151.5657 LP  0  0  0  0  0  0  0  0  0  0  0  0  # atno 17343 bound_to 10162
  155.9816  130.4824  150.6836 LP  0  0  0  0  0  0  0  0  0  0  0  0  # atno 17370 bound_to 10713
  157.4426  131.0863  151.0928 LP  0  0  0  0  0  0  0  0  0  0  0  0  # atno 17371 bound_to 10713
  140.1833  134.4462  155.7759 LP  0  0  0  0  0  0  0  0  0  0  0  0  # atno 17394 bound_to 11000
  141.2222  133.6993  156.7905 LP  0  0  0  0  0  0  0  0  0  0  0  0  # atno 17395 bound_to 11000

$$$$
