AV-unprocessed.smi:12|AV-procd|sdf|62|dock6
  -GOLD-   2262015183D 1   1.00000     0.00000
 Structure written by MMmdl.
 41 44  0  0  0  0  0  0  0  0  1 V2000
  144.6612  142.8140  156.4920 C   0  0  0  0  0  0  0  0  0  0  0  0
  145.3899  141.5058  156.2423 C   0  0  0  0  0  0  0  0  0  0  0  0
  146.5103  141.4478  155.4841 C   0  0  0  0  0  0  0  0  0  0  0  0
  147.1312  140.2448  155.2956 N   0  0  0  0  0  0  0  0  0  0  0  0
  146.5930  139.0812  155.8811 C   0  0  0  0  0  0  0  0  0  0  0  0
  145.5274  139.0525  156.6195 N   0  0  0  0  0  0  0  0  0  0  0  0
  144.8510  140.2650  156.8541 C   0  0  0  0  0  0  0  0  0  0  0  0
  143.8363  140.2896  157.5493 O   0  0  0  0  0  0  0  0  0  0  0  0
  147.3696  138.0198  155.5346 O   0  0  0  0  0  0  0  0  0  0  0  0
  148.4164  138.4369  154.6403 C   0  0  2  0  0  0  0  0  0  0  0  0
  149.8023  138.2431  155.2404 C   0  0  2  0  0  0  0  0  0  0  0  0
  149.9098  137.0252  155.9498 O   0  0  0  0  0  0  0  0  0  0  0  0
  149.9853  139.5041  156.0845 C   0  0  1  0  0  0  0  0  0  0  0  0
  151.4442  139.8495  156.4091 C   0  0  0  0  0  0  0  0  0  0  0  0
  151.4818  140.8323  157.4311 O   0  0  0  0  0  0  0  0  0  0  0  0
  152.3504  140.7121  158.4537 C   0  0  0  0  0  0  0  0  0  0  0  0
  153.1271  139.7635  158.5811 O   0  0  0  0  0  0  0  0  0  0  0  0
  152.2728  141.8489  159.4165 C   0  0  0  0  0  0  0  0  0  0  0  0
  151.7095  143.0763  158.9954 C   0  0  0  0  0  0  0  0  0  0  0  0
  151.6227  144.1674  159.8817 C   0  0  0  0  0  0  0  0  0  0  0  0
  152.0990  144.0448  161.1998 C   0  0  0  0  0  0  0  0  0  0  0  0
  152.6619  142.8296  161.6309 C   0  0  0  0  0  0  0  0  0  0  0  0
  152.7492  141.7368  160.7464 C   0  0  0  0  0  0  0  0  0  0  0  0
  149.4381  140.4988  155.2233 O   0  0  0  0  0  0  0  0  0  0  0  0
  148.3455  139.9757  154.5214 C   0  0  2  0  0  0  0  0  0  0  0  0
  145.1543  143.6458  155.9881 H   0  0  0  0  0  0  0  0  0  0  0  0
  144.6321  143.0352  157.5594 H   0  0  0  0  0  0  0  0  0  0  0  0
  143.6367  142.7564  156.1233 H   0  0  0  0  0  0  0  0  0  0  0  0
  146.9232  142.3374  155.0311 H   0  0  0  0  0  0  0  0  0  0  0  0
  148.3037  137.9632  153.6645 H   0  0  0  0  0  0  0  0  0  0  0  0
  150.5392  138.2402  154.4357 H   0  0  0  0  0  0  0  0  0  0  0  0
  150.7828  136.9611  156.3064 H   0  0  0  0  0  0  0  0  0  0  0  0
  149.3879  139.4566  156.9968 H   0  0  0  0  0  0  0  0  0  0  0  0
  151.9861  138.9556  156.7213 H   0  0  0  0  0  0  0  0  0  0  0  0
  151.9393  140.2391  155.5186 H   0  0  0  0  0  0  0  0  0  0  0  0
  151.3369  143.1944  157.9881 H   0  0  0  0  0  0  0  0  0  0  0  0
  151.1900  145.0994  159.5491 H   0  0  0  0  0  0  0  0  0  0  0  0
  152.0325  144.8821  161.8790 H   0  0  0  0  0  0  0  0  0  0  0  0
  153.0278  142.7345  162.6426 H   0  0  0  0  0  0  0  0  0  0  0  0
  153.1872  140.8189  161.1105 H   0  0  0  0  0  0  0  0  0  0  0  0
  148.1774  140.3880  153.5261 H   0  0  0  0  0  0  0  0  0  0  0  0
  1  2  1  0  0  0  0
  1 26  1  0  0  0  0
  1 27  1  0  0  0  0
  1 28  1  0  0  0  0
  2  7  1  0  0  0  0
  2  3  2  0  0  0  0
  3  4  1  0  0  0  0
  3 29  1  0  0  0  0
  4 25  1  0  0  0  0
  4  5  1  0  0  0  0
  5  6  2  0  0  0  0
  5  9  1  0  0  0  0
  6  7  1  0  0  0  0
  7  8  2  0  0  0  0
  9 10  1  0  0  0  0
 10 25  1  0  0  0  0
 10 11  1  0  0  0  0
 10 30  1  0  0  0  0
 11 12  1  0  0  0  0
 11 13  1  0  0  0  0
 11 31  1  0  0  0  0
 12 32  1  0  0  0  0
 13 14  1  0  0  0  0
 13 24  1  0  0  0  0
 13 33  1  0  0  0  0
 14 15  1  0  0  0  0
 14 34  1  0  0  0  0
 14 35  1  0  0  0  0
 15 16  1  0  0  0  0
 16 17  2  0  0  0  0
 16 18  1  0  0  0  0
 18 23  1  0  0  0  0
 18 19  2  0  0  0  0
 19 20  1  0  0  0  0
 19 36  1  0  0  0  0
 20 21  2  0  0  0  0
 20 37  1  0  0  0  0
 21 22  1  0  0  0  0
 21 38  1  0  0  0  0
 22 23  2  0  0  0  0
 22 39  1  0  0  0  0
 23 40  1  0  0  0  0
 24 25  1  0  0  0  0
 25 41  1  0  0  0  0
M  END
> <s_m_source_file>
AV-unprocessed.smi

> <i_m_source_file_index>
12

> <i_lp_mmshare_version>
43012

> <i_f3d_flags>
0

> <s_epik_input>
W0NIM11jKFtjSF0xKWMoPU8pbmMobjEyKU9bQ0BIXTNbQ0BASF0yT1tDQEBIXShbQ0BASF0zW09IXSlbQ0gyXU9DKD1PKWM0W2NIXVtjSF1bY0hdW2NIXVtjSF00

> <s_epik_cmdline>
J2VwaWtfcHl0aG9uJywgJy1waCcsICc3LjAnLCAnLXRuJywgJzgnLCAnLW1hJywgJzIwMCcsICctbWV0YWxfYmluZGluZycsICctaW1hZScsICc8aW5maWxlLm1hZT4nLCAnLW9tYWUnLCAnPG91dGZpbGUubWFlPic=

> <r_lp_tautomer_probability>
0.933681

> <r_epik_Ionization_Penalty>
0.00399549

> <r_epik_Ionization_Penalty_Charging>
3.09373e-09

> <r_epik_Ionization_Penalty_Neutral>
0.00399549

> <r_epik_State_Penalty>
0.00284953

> <r_epik_Charging_Adjusted_Penalty>
0.00284953

> <i_epik_Tot_Q>
0

> <i_epik_Tot_abs_Q>
0

> <r_epik_Metal_State_Penalty>
-0

> <b_epik_Metal_Only>
0

> <s_epik_Chemistry_Notes>
This compound has an ester and may undergo hydrolysis at high or low pH. This compound contains an acetal/aminal-like group ( X-CH(R)-Y where X, Y are N, S, or O) that may be acid/base labile, releasing an aldehyde.

> <s_lp_Force_Field>
OPLS_2005

> <r_lp_Energy>
46.3609

> <b_lp_Chiralities_Consistent>
1

> <s_lp_Variant>
AV-unprocessed.smi:12-2

> <Gold.Version>
5.8.1

> <Gold.Id.Protein>
6NUR|6NUR_protein|mol2

> <Gold.PLP.Fitness>
49.8241

> <Gold.PLP.PLP>
-43.8886

> <Gold.PLP.part.hbond>
-2.0000

> <Gold.PLP.part.metal>
0.0000

> <Gold.PLP.part.buried>
-1.0646

> <Gold.PLP.part.nonpolar>
-39.8740

> <Gold.PLP.part.repulsive>
0.3738

> <Gold.PLP.ligand.clash>
0.0000

> <Gold.PLP.ligand.torsion>
0.6472

> <Gold.PLP.Chemscore.Hbond>
1.5673

> <Gold.PLP.Chemscore.CHOScore>
0.8368

> <Gold.PLP.Chemscore.Metal>
0.0000

> <Gold.Chemscore.Hbonds>
donor molecule, donor type, donor heavy atom, donor atom, acceptor molecule, acceptor atom, score
      P1  H  7997  8010       L1    17  0.65

> <Gold.PLP.Chemscore.Internal.Correction>
0.0176

> <Gold.Rescore>
     Score         DG    S(hbond)    S(metal)    S(lipo)     H(rot)  DE(clash)    DE(int)     intcor
     13.83     -14.92       0.89        0.00     103.04       2.18       0.53       0.56       ----

> <Gold.Chemscore.Fitness>
13.8349

> <Gold.Chemscore.DG>
-14.9241

> <Gold.Chemscore.ZeroCoef>
-5.4800

> <Gold.Chemscore.Hbond>
0.8889

> <Gold.Chemscore.Metal>
0.0000

> <Gold.Chemscore.Lipo>
103.0418

> <Gold.Chemscore.Internal_Hbond>
0.0000

> <Gold.Chemscore.DEClash>
0.5297

> <Gold.Chemscore.DEInternal>
0.5596

> <Gold.Chemscore.Rot>
2.1800

> <Gold.Chemscore.Internal.Correction>
   9.000000E+99

> <Gold.Chemscore.Hbonds>
donor molecule, donor type, donor heavy atom, donor atom, acceptor molecule, acceptor atom, score
      P1  H  7997  8010       L1    17  0.25

> <Gold.Chemscore.Hbond.Weighted>
-2.9690

> <Gold.Chemscore.Metal.Weighted>
-0.0000

> <Gold.Chemscore.Lipo.Weighted>
-12.0559

> <Gold.Chemscore.Internal_Hbond.Weighted>
0.0000

> <Gold.Chemscore.DEClash.Weighted>
0.5297

> <Gold.Chemscore.DEInternal.Weighted>
0.5596

> <Gold.Chemscore.Rot.Weighted>
5.5807

> <Gold.Chemscore.Internal.Correction.Weighted>
   9.000000E+99

> <Gold.Protein.RotatedTorsions>
[ 6907 6896 6895 6894 ] final  155.02 input  -60.11 | X-H torsion
[ 7974 7965 7964 7962 ] final   41.41 input  175.53 | X-H torsion
[ 8008 7997 7996 7995 ] final   40.79 input   59.86 | X-H torsion
[ 10167 10162 10161 10158 ] final  -59.76 input  -65.29 | X-H torsion
[ 10718 10713 10712 10709 ] final  167.65 input   66.30 | X-H torsion
[ 10763 10752 10751 10750 ] final   99.85 input  -60.55 | X-H torsion
[ 11005 11000 10999 10996 ] final   66.03 input  -57.11 | X-H torsion

> <Gold.Protein.ActiveResidues>
 VAL166  LYS551  ARG553  GLY616  TRP617  ASP618  TYR619  PRO620  LYS621  CYS622 
 ASP623  PHE694  ASN695  SER759  ASP760  ASP761  ALA762  ILE779  LEU786  VAL792 
 PHE793  MET794  SER795  GLU796  ALA797  LYS798  CYS799  TRP800  GLU811  SER814 

> <Gold.Protein.RotatedAtoms>
  152.0501  133.4015  159.4373 H   0  0  0  0  0  0  0  0  0  0  0  0  # atno 6907 bound_to 6896
  150.6870  134.3317  159.4839 H   0  0  0  0  0  0  0  0  0  0  0  0  # atno 6908 bound_to 6896
  152.1126  134.9263  160.0617 H   0  0  0  0  0  0  0  0  0  0  0  0  # atno 6909 bound_to 6896
  146.0825  139.5418  142.9528 H   0  0  0  0  0  0  0  0  0  0  0  0  # atno 7974 bound_to 7965
  155.2590  140.3358  155.4275 H   0  0  0  0  0  0  0  0  0  0  0  0  # atno 8008 bound_to 7997
  156.2183  140.1798  156.7580 H   0  0  0  0  0  0  0  0  0  0  0  0  # atno 8009 bound_to 7997
  154.5786  140.0657  156.9056 H   0  0  0  0  0  0  0  0  0  0  0  0  # atno 8010 bound_to 7997
  140.6114  143.2388  151.5699 H   0  0  0  0  0  0  0  0  0  0  0  0  # atno 10167 bound_to 10162
  157.0484  131.0306  151.2689 H   0  0  0  0  0  0  0  0  0  0  0  0  # atno 10718 bound_to 10713
  153.3065  135.4099  155.1299 H   0  0  0  0  0  0  0  0  0  0  0  0  # atno 10763 bound_to 10752
  154.8564  135.3554  154.5781 H   0  0  0  0  0  0  0  0  0  0  0  0  # atno 10764 bound_to 10752
  153.6208  135.7064  153.5370 H   0  0  0  0  0  0  0  0  0  0  0  0  # atno 10765 bound_to 10752
  139.9857  134.6671  156.0180 H   0  0  0  0  0  0  0  0  0  0  0  0  # atno 11005 bound_to 11000
  145.6191  141.0326  143.1925 LP  0  0  0  0  0  0  0  0  0  0  0  0  # atno 17320 bound_to 7965
  144.7303  139.7746  143.7349 LP  0  0  0  0  0  0  0  0  0  0  0  0  # atno 17321 bound_to 7965
  139.5364  144.2768  152.1261 LP  0  0  0  0  0  0  0  0  0  0  0  0  # atno 17342 bound_to 10162
  140.1968  144.4697  150.6451 LP  0  0  0  0  0  0  0  0  0  0  0  0  # atno 17343 bound_to 10162
  157.5050  130.7903  149.7644 LP  0  0  0  0  0  0  0  0  0  0  0  0  # atno 17370 bound_to 10713
  156.0015  130.3877  150.2587 LP  0  0  0  0  0  0  0  0  0  0  0  0  # atno 17371 bound_to 10713
  141.1522  133.6547  156.4050 LP  0  0  0  0  0  0  0  0  0  0  0  0  # atno 17394 bound_to 11000
  140.5007  134.6488  157.5247 LP  0  0  0  0  0  0  0  0  0  0  0  0  # atno 17395 bound_to 11000

$$$$
