AV-unprocessed.smi:831|AV-procd|sdf|3875|dock10
  -GOLD-   22720 1333D 1   1.00000     0.00000
 Structure written by MMmdl.
 50 51  0  0  0  0  0  0  0  0  1 V2000
  149.6347  140.8562  154.9181 C   0  0  0  0  0  0  0  0  0  0  0  0
  150.0239  141.0297  156.3947 C   0  0  0  0  0  0  0  0  0  0  0  0
  151.0766  142.1360  156.5561 C   0  0  0  0  0  0  0  0  0  0  0  0
  150.5142  139.7069  157.0048 C   0  0  0  0  0  0  0  0  0  0  0  0
  151.7064  139.3012  156.3419 O   0  0  0  0  0  0  0  0  0  0  0  0
  151.5135  138.5042  155.1776 C   0  0  1  0  0  0  0  0  0  0  0  0
  152.7309  138.7281  154.2684 C   0  0  0  0  0  0  0  0  0  0  0  0
  151.3872  137.0174  155.5747 C   0  0  0  0  0  0  0  0  0  0  0  0
  152.3711  136.4279  156.0179 O   0  0  0  0  0  0  0  0  0  0  0  0
  150.2097  136.3820  155.4516 N   0  0  0  0  0  0  0  0  0  0  0  0
  149.9174  134.9904  155.7779 C   0  0  0  0  0  0  0  0  0  0  0  0
  149.0946  134.2673  154.7220 C   0  0  0  0  0  0  0  0  0  0  0  0
  149.5583  133.1122  154.0564 C   0  0  0  0  0  0  0  0  0  0  0  0
  148.7337  132.5007  153.0929 C   0  0  0  0  0  0  0  0  0  0  0  0
  147.4610  133.0553  152.8188 C   0  0  0  0  0  0  0  0  0  0  0  0
  146.6208  132.4608  151.8525 N   0  0  0  0  0  0  0  0  0  0  0  0
  146.4984  133.1881  150.5913 C   0  0  0  0  0  0  0  0  0  0  0  0
  145.8173  132.3087  149.5284 C   0  0  0  0  0  0  0  0  0  0  0  0
  144.5663  131.8395  150.0198 O   0  0  0  0  0  0  0  0  0  0  0  0
  144.7234  131.0375  151.1855 C   0  0  0  0  0  0  0  0  0  0  0  0
  145.3616  131.8735  152.3075 C   0  0  0  0  0  0  0  0  0  0  0  0
  147.0127  134.1559  153.4720 N   0  0  0  0  0  0  0  0  0  0  0  0
  147.8081  134.7394  154.3929 C   0  0  0  0  0  0  0  0  0  0  0  0
  150.4874  140.5368  154.3182 H   0  0  0  0  0  0  0  0  0  0  0  0
  149.2624  141.7904  154.4969 H   0  0  0  0  0  0  0  0  0  0  0  0
  148.8489  140.1094  154.8009 H   0  0  0  0  0  0  0  0  0  0  0  0
  149.1344  141.3427  156.9429 H   0  0  0  0  0  0  0  0  0  0  0  0
  151.9988  141.8859  156.0307 H   0  0  0  0  0  0  0  0  0  0  0  0
  151.3242  142.2939  157.6063 H   0  0  0  0  0  0  0  0  0  0  0  0
  150.7134  143.0845  156.1593 H   0  0  0  0  0  0  0  0  0  0  0  0
  150.6741  139.8301  158.0767 H   0  0  0  0  0  0  0  0  0  0  0  0
  149.7553  138.9335  156.8773 H   0  0  0  0  0  0  0  0  0  0  0  0
  150.6360  138.8657  154.6431 H   0  0  0  0  0  0  0  0  0  0  0  0
  152.6540  138.1400  153.3532 H   0  0  0  0  0  0  0  0  0  0  0  0
  153.6626  138.4558  154.7659 H   0  0  0  0  0  0  0  0  0  0  0  0
  152.8083  139.7764  153.9792 H   0  0  0  0  0  0  0  0  0  0  0  0
  149.4357  136.9255  155.0982 H   0  0  0  0  0  0  0  0  0  0  0  0
  150.8516  134.4441  155.9146 H   0  0  0  0  0  0  0  0  0  0  0  0
  149.3737  134.9521  156.7231 H   0  0  0  0  0  0  0  0  0  0  0  0
  150.5271  132.6886  154.2751 H   0  0  0  0  0  0  0  0  0  0  0  0
  149.0790  131.6101  152.5895 H   0  0  0  0  0  0  0  0  0  0  0  0
  145.9090  134.0899  150.7615 H   0  0  0  0  0  0  0  0  0  0  0  0
  147.4683  133.5100  150.2153 H   0  0  0  0  0  0  0  0  0  0  0  0
  145.6479  132.8840  148.6182 H   0  0  0  0  0  0  0  0  0  0  0  0
  146.4534  131.4645  149.2569 H   0  0  0  0  0  0  0  0  0  0  0  0
  143.7456  130.6728  151.5000 H   0  0  0  0  0  0  0  0  0  0  0  0
  145.3321  130.1607  150.9581 H   0  0  0  0  0  0  0  0  0  0  0  0
  145.5336  131.2390  153.1778 H   0  0  0  0  0  0  0  0  0  0  0  0
  144.6806  132.6693  152.6124 H   0  0  0  0  0  0  0  0  0  0  0  0
  147.4032  135.6139  154.8810 H   0  0  0  0  0  0  0  0  0  0  0  0
  1  2  1  0  0  0  0
  1 24  1  0  0  0  0
  1 25  1  0  0  0  0
  1 26  1  0  0  0  0
  2  3  1  0  0  0  0
  2  4  1  0  0  0  0
  2 27  1  0  0  0  0
  3 28  1  0  0  0  0
  3 29  1  0  0  0  0
  3 30  1  0  0  0  0
  4  5  1  0  0  0  0
  4 31  1  0  0  0  0
  4 32  1  0  0  0  0
  5  6  1  0  0  0  0
  6  7  1  0  0  0  0
  6  8  1  0  0  0  0
  6 33  1  0  0  0  0
  7 34  1  0  0  0  0
  7 35  1  0  0  0  0
  7 36  1  0  0  0  0
  8  9  2  0  0  0  0
  8 10  1  0  0  0  0
 10 11  1  0  0  0  0
 10 37  1  0  0  0  0
 11 12  1  0  0  0  0
 11 38  1  0  0  0  0
 11 39  1  0  0  0  0
 12 23  1  0  0  0  0
 12 13  2  0  0  0  0
 13 14  1  0  0  0  0
 13 40  1  0  0  0  0
 14 15  2  0  0  0  0
 14 41  1  0  0  0  0
 15 16  1  0  0  0  0
 15 22  1  0  0  0  0
 16 21  1  0  0  0  0
 16 17  1  0  0  0  0
 17 18  1  0  0  0  0
 17 42  1  0  0  0  0
 17 43  1  0  0  0  0
 18 19  1  0  0  0  0
 18 44  1  0  0  0  0
 18 45  1  0  0  0  0
 19 20  1  0  0  0  0
 20 21  1  0  0  0  0
 20 46  1  0  0  0  0
 20 47  1  0  0  0  0
 21 48  1  0  0  0  0
 21 49  1  0  0  0  0
 22 23  2  0  0  0  0
 23 50  1  0  0  0  0
M  END
> <s_m_source_file>
AV-unprocessed.smi

> <i_m_source_file_index>
831

> <i_lp_mmshare_version>
43012

> <i_f3d_flags>
0

> <s_epik_input>
W0NIM11bQ0hdKFtDSDNdKVtDSDJdT1tDQEhdKFtDSDNdKUMoPU8pW05IXVtDSDJdYzFbY0hdW2NIXWMobltjSF0xKU4yW0NIMl1bQ0gyXU9bQ0gyXVtDSDJdMg==

> <s_epik_cmdline>
J2VwaWtfcHl0aG9uJywgJy1waCcsICc3LjAnLCAnLXRuJywgJzgnLCAnLW1hJywgJzIwMCcsICctbWV0YWxfYmluZGluZycsICctaW1hZScsICc8aW5maWxlLm1hZT4nLCAnLW9tYWUnLCAnPG91dGZpbGUubWFlPic=

> <r_lp_tautomer_probability>
1

> <r_epik_Ionization_Penalty>
0.00456501

> <r_epik_Ionization_Penalty_Charging>
0

> <r_epik_Ionization_Penalty_Neutral>
0.00456501

> <r_epik_State_Penalty>
0.00329791

> <r_epik_Charging_Adjusted_Penalty>
0.00329791

> <i_epik_Tot_Q>
0

> <i_epik_Tot_abs_Q>
0

> <r_epik_Metal_State_Penalty>
-0

> <b_epik_Metal_Only>
0

> <s_lp_Force_Field>
OPLS_2005

> <r_lp_Energy>
24.1479

> <b_lp_Chiralities_Consistent>
1

> <s_lp_Variant>
AV-unprocessed.smi:831-2

> <Gold.Version>
5.8.1

> <Gold.Id.Protein>
6NUR|6NUR_protein|mol2

> <Gold.PLP.Fitness>
41.6116

> <Gold.PLP.PLP>
-40.1082

> <Gold.PLP.part.hbond>
-1.4795

> <Gold.PLP.part.metal>
0.0000

> <Gold.PLP.part.buried>
-5.4602

> <Gold.PLP.part.nonpolar>
-32.7218

> <Gold.PLP.part.repulsive>
0.4159

> <Gold.PLP.ligand.clash>
0.0000

> <Gold.PLP.ligand.torsion>
0.9370

> <Gold.PLP.Chemscore.Hbond>
1.0000

> <Gold.PLP.Chemscore.CHOScore>
0.0000

> <Gold.PLP.Chemscore.Metal>
0.0000

> <Gold.Chemscore.Hbonds>
donor molecule, donor type, donor heavy atom, donor atom, acceptor molecule, acceptor atom, score
      P1  H 10752 10765       L1     9  1.00

> <Gold.PLP.Chemscore.Internal.Correction>
0.3773

> <Gold.Rescore>
     Score         DG    S(hbond)    S(metal)    S(lipo)     H(rot)  DE(clash)    DE(int)     intcor
     13.19     -15.42       0.88        0.00     101.71       1.92       0.42       1.82       ----

> <Gold.Chemscore.Fitness>
13.1887

> <Gold.Chemscore.DG>
-15.4247

> <Gold.Chemscore.ZeroCoef>
-5.4800

> <Gold.Chemscore.Hbond>
0.8830

> <Gold.Chemscore.Metal>
0.0000

> <Gold.Chemscore.Lipo>
101.7115

> <Gold.Chemscore.Internal_Hbond>
0.0000

> <Gold.Chemscore.DEClash>
0.4179

> <Gold.Chemscore.DEInternal>
1.8182

> <Gold.Chemscore.Rot>
1.9159

> <Gold.Chemscore.Internal.Correction>
   9.000000E+99

> <Gold.Chemscore.Hbonds>
donor molecule, donor type, donor heavy atom, donor atom, acceptor molecule, acceptor atom, score
      P1  H 10752 10765       L1     9  0.69

> <Gold.Chemscore.Hbond.Weighted>
-2.9492

> <Gold.Chemscore.Metal.Weighted>
-0.0000

> <Gold.Chemscore.Lipo.Weighted>
-11.9002

> <Gold.Chemscore.Internal_Hbond.Weighted>
0.0000

> <Gold.Chemscore.DEClash.Weighted>
0.4179

> <Gold.Chemscore.DEInternal.Weighted>
1.8182

> <Gold.Chemscore.Rot.Weighted>
4.9047

> <Gold.Chemscore.Internal.Correction.Weighted>
   9.000000E+99

> <Gold.Protein.RotatedTorsions>
[ 6907 6896 6895 6894 ] final  -95.22 input  -60.11 | X-H torsion
[ 7974 7965 7964 7962 ] final -158.25 input  175.53 | X-H torsion
[ 8008 7997 7996 7995 ] final -162.95 input   59.86 | X-H torsion
[ 10167 10162 10161 10158 ] final   52.66 input  -65.29 | X-H torsion
[ 10718 10713 10712 10709 ] final    4.93 input   66.30 | X-H torsion
[ 10763 10752 10751 10750 ] final -164.61 input  -60.55 | X-H torsion
[ 11005 11000 10999 10996 ] final  142.98 input  -57.11 | X-H torsion

> <Gold.Protein.ActiveResidues>
 VAL166  LYS551  ARG553  GLY616  TRP617  ASP618  TYR619  PRO620  LYS621  CYS622 
 ASP623  PHE694  ASN695  SER759  ASP760  ASP761  ALA762  ILE779  LEU786  VAL792 
 PHE793  MET794  SER795  GLU796  ALA797  LYS798  CYS799  TRP800  GLU811  SER814 

> <Gold.Protein.RotatedAtoms>
  150.6959  134.1691  159.4205 H   0  0  0  0  0  0  0  0  0  0  0  0  # atno 6907 bound_to 6896
  151.9669  135.0093  160.0560 H   0  0  0  0  0  0  0  0  0  0  0  0  # atno 6908 bound_to 6896
  152.1876  133.4716  159.5028 H   0  0  0  0  0  0  0  0  0  0  0  0  # atno 6909 bound_to 6896
  144.7513  140.3853  143.6046 H   0  0  0  0  0  0  0  0  0  0  0  0  # atno 7974 bound_to 7965
  155.8143  140.0910  157.1886 H   0  0  0  0  0  0  0  0  0  0  0  0  # atno 8008 bound_to 7997
  154.3979  140.1449  156.3483 H   0  0  0  0  0  0  0  0  0  0  0  0  # atno 8009 bound_to 7997
  155.8333  140.3442  155.5588 H   0  0  0  0  0  0  0  0  0  0  0  0  # atno 8010 bound_to 7997
  140.2490  144.3500  150.6354 H   0  0  0  0  0  0  0  0  0  0  0  0  # atno 10167 bound_to 10162
  156.8999  130.5718  149.5648 H   0  0  0  0  0  0  0  0  0  0  0  0  # atno 10718 bound_to 10713
  154.7012  135.2988  154.9338 H   0  0  0  0  0  0  0  0  0  0  0  0  # atno 10763 bound_to 10752
  154.0270  135.6675  153.4781 H   0  0  0  0  0  0  0  0  0  0  0  0  # atno 10764 bound_to 10752
  153.0682  135.5076  154.8157 H   0  0  0  0  0  0  0  0  0  0  0  0  # atno 10765 bound_to 10752
  140.0518  134.9251  157.1031 H   0  0  0  0  0  0  0  0  0  0  0  0  # atno 11005 bound_to 11000
  145.6934  139.1644  143.2634 LP  0  0  0  0  0  0  0  0  0  0  0  0  # atno 17320 bound_to 7965
  146.1467  140.6982  142.9341 LP  0  0  0  0  0  0  0  0  0  0  0  0  # atno 17321 bound_to 7965
  140.6055  143.2167  151.6989 LP  0  0  0  0  0  0  0  0  0  0  0  0  # atno 17342 bound_to 10162
  139.5052  144.3725  152.0456 LP  0  0  0  0  0  0  0  0  0  0  0  0  # atno 17343 bound_to 10162
  156.0587  130.5644  150.9147 LP  0  0  0  0  0  0  0  0  0  0  0  0  # atno 17370 bound_to 10713
  157.6032  131.0940  150.8924 LP  0  0  0  0  0  0  0  0  0  0  0  0  # atno 17371 bound_to 10713
  140.3905  134.2190  155.7166 LP  0  0  0  0  0  0  0  0  0  0  0  0  # atno 17394 bound_to 11000
  141.1934  133.8152  157.0801 LP  0  0  0  0  0  0  0  0  0  0  0  0  # atno 17395 bound_to 11000

$$$$
