AV-unprocessed.smi:2322|AV-procd|sdf|9286|dock2
  -GOLD-   2272012513D 1   1.00000     0.00000
 Structure written by MMmdl.
 38 40  0  0  0  0  0  0  0  0  1 V2000
  147.4408  132.7118  152.5220 C   0  0  0  0  0  0  0  0  0  0  0  0
  148.4431  132.1868  153.4292 N   0  0  0  0  0  0  0  0  0  0  0  0
  148.4885  130.8665  153.7239 N   0  0  0  0  0  0  0  0  0  0  0  0
  149.5202  130.7886  154.5633 C   0  0  0  0  0  0  0  0  0  0  0  0
  150.1570  131.9649  154.8390 N   0  0  0  0  0  0  0  0  0  0  0  0
  149.4305  132.7950  154.0948 C   0  0  0  0  0  0  0  0  0  0  0  0
  149.6082  134.2040  153.9583 N   0  0  0  0  0  0  0  0  0  0  0  0
  150.1818  135.1114  154.7764 C   0  0  0  0  0  0  0  0  0  0  0  0
  150.6674  134.7749  155.8550 O   0  0  0  0  0  0  0  0  0  0  0  0
  150.1846  136.3824  154.3424 N   0  0  0  0  0  0  0  0  0  0  0  0
  150.7343  137.5257  155.0631 C   0  0  1  0  0  0  0  0  0  0  0  0
  152.0339  138.0173  154.4049 C   0  0  0  0  0  0  0  0  0  0  0  0
  152.5159  139.3184  155.0663 C   0  0  0  0  0  0  0  0  0  0  0  0
  151.4909  140.3052  155.0094 O   0  0  0  0  0  0  0  0  0  0  0  0
  150.3134  139.9329  155.7196 C   0  0  1  0  0  0  0  0  0  0  0  0
  149.3481  141.1008  155.6776 C   0  0  0  0  0  0  0  0  0  0  0  0
  147.8678  140.8757  155.4748 C   0  0  0  0  0  0  0  0  0  0  0  0
  148.6908  141.5102  154.3799 C   0  0  0  0  0  0  0  0  0  0  0  0
  149.7100  138.6692  155.0793 C   0  0  0  0  0  0  0  0  0  0  0  0
  147.9141  133.0050  151.5849 H   0  0  0  0  0  0  0  0  0  0  0  0
  146.9598  133.5829  152.9673 H   0  0  0  0  0  0  0  0  0  0  0  0
  146.6797  131.9584  152.3152 H   0  0  0  0  0  0  0  0  0  0  0  0
  149.8261  129.8466  154.9941 H   0  0  0  0  0  0  0  0  0  0  0  0
  149.2386  134.5891  153.1013 H   0  0  0  0  0  0  0  0  0  0  0  0
  149.7665  136.5700  153.4420 H   0  0  0  0  0  0  0  0  0  0  0  0
  150.9427  137.2377  156.0955 H   0  0  0  0  0  0  0  0  0  0  0  0
  152.8098  137.2544  154.4752 H   0  0  0  0  0  0  0  0  0  0  0  0
  151.8667  138.1963  153.3417 H   0  0  0  0  0  0  0  0  0  0  0  0
  152.8081  139.1425  156.1027 H   0  0  0  0  0  0  0  0  0  0  0  0
  153.3974  139.6966  154.5482 H   0  0  0  0  0  0  0  0  0  0  0  0
  150.5701  139.7318  156.7615 H   0  0  0  0  0  0  0  0  0  0  0  0
  149.6187  141.9165  156.3457 H   0  0  0  0  0  0  0  0  0  0  0  0
  147.5260  139.8546  155.3184 H   0  0  0  0  0  0  0  0  0  0  0  0
  147.1834  141.5170  156.0264 H   0  0  0  0  0  0  0  0  0  0  0  0
  148.5560  142.5746  154.2005 H   0  0  0  0  0  0  0  0  0  0  0  0
  148.8978  140.9105  153.4956 H   0  0  0  0  0  0  0  0  0  0  0  0
  149.3922  138.8951  154.0601 H   0  0  0  0  0  0  0  0  0  0  0  0
  148.8162  138.3630  155.6242 H   0  0  0  0  0  0  0  0  0  0  0  0
  1  2  1  0  0  0  0
  1 20  1  0  0  0  0
  1 21  1  0  0  0  0
  1 22  1  0  0  0  0
  2  6  1  0  0  0  0
  2  3  1  0  0  0  0
  3  4  2  0  0  0  0
  4  5  1  0  0  0  0
  4 23  1  0  0  0  0
  5  6  2  0  0  0  0
  6  7  1  0  0  0  0
  7  8  1  0  0  0  0
  7 24  1  0  0  0  0
  8  9  2  0  0  0  0
  8 10  1  0  0  0  0
 10 11  1  0  0  0  0
 10 25  1  0  0  0  0
 11 19  1  0  0  0  0
 11 12  1  0  0  0  0
 11 26  1  0  0  0  0
 12 13  1  0  0  0  0
 12 27  1  0  0  0  0
 12 28  1  0  0  0  0
 13 14  1  0  0  0  0
 13 29  1  0  0  0  0
 13 30  1  0  0  0  0
 14 15  1  0  0  0  0
 15 16  1  0  0  0  0
 15 19  1  0  0  0  0
 15 31  1  0  0  0  0
 16 18  1  0  0  0  0
 16 17  1  0  0  0  0
 16 32  1  0  0  0  0
 17 18  1  0  0  0  0
 17 33  1  0  0  0  0
 17 34  1  0  0  0  0
 18 35  1  0  0  0  0
 18 36  1  0  0  0  0
 19 37  1  0  0  0  0
 19 38  1  0  0  0  0
M  END
> <s_m_source_file>
AV-unprocessed.smi

> <i_m_source_file_index>
2322

> <i_lp_mmshare_version>
43012

> <i_f3d_flags>
0

> <s_epik_input>
W0NIM11uMW5bY0hdbmMxW05IXUMoPU8pW05IXVtDQEBIXTJbQ0gyXVtDSDJdT1tDQEhdKFtDSDJdMilbQ0hdM1tDSDJdW0NIMl0z

> <s_epik_cmdline>
J2VwaWtfcHl0aG9uJywgJy1waCcsICc3LjAnLCAnLXRuJywgJzgnLCAnLW1hJywgJzIwMCcsICctbWV0YWxfYmluZGluZycsICctaW1hZScsICc8aW5maWxlLm1hZT4nLCAnLW9tYWUnLCAnPG91dGZpbGUubWFlPic=

> <r_lp_tautomer_probability>
1

> <r_epik_Ionization_Penalty>
2.16399e-05

> <r_epik_Ionization_Penalty_Charging>
0

> <r_epik_Ionization_Penalty_Neutral>
2.16399e-05

> <r_epik_State_Penalty>
-0

> <r_epik_Charging_Adjusted_Penalty>
0

> <i_epik_Tot_Q>
0

> <i_epik_Tot_abs_Q>
0

> <r_epik_Metal_State_Penalty>
-0

> <b_epik_Metal_Only>
0

> <s_lp_Force_Field>
OPLS_2005

> <r_lp_Energy>
20.3548

> <b_lp_Chiralities_Consistent>
1

> <s_lp_Variant>
AV-unprocessed.smi:2322-2

> <Gold.Version>
5.8.1

> <Gold.Id.Protein>
6NUR|6NUR_protein|mol2

> <Gold.PLP.Fitness>
40.1036

> <Gold.PLP.PLP>
-33.2853

> <Gold.PLP.part.hbond>
-3.8472

> <Gold.PLP.part.metal>
0.0000

> <Gold.PLP.part.buried>
-2.8513

> <Gold.PLP.part.nonpolar>
-27.8796

> <Gold.PLP.part.repulsive>
0.2620

> <Gold.PLP.ligand.clash>
0.0000

> <Gold.PLP.ligand.torsion>
0.8548

> <Gold.PLP.Chemscore.Hbond>
2.4837

> <Gold.PLP.Chemscore.CHOScore>
0.0000

> <Gold.PLP.Chemscore.Metal>
0.0000

> <Gold.Chemscore.Hbonds>
donor molecule, donor type, donor heavy atom, donor atom, acceptor molecule, acceptor atom, score
      L1  H     7    24       P1  7948  0.35
      L1  H    10    25       P1  7948  1.00
      P1  H  7989  7998       L1    14  0.99

> <Gold.PLP.Chemscore.Internal.Correction>
1.0766

> <Gold.Rescore>
     Score         DG    S(hbond)    S(metal)    S(lipo)     H(rot)  DE(clash)    DE(int)     intcor
     14.82     -15.79       2.06        0.00      57.80       1.31       0.04       0.92       ----

> <Gold.Chemscore.Fitness>
14.8232

> <Gold.Chemscore.DG>
-15.7911

> <Gold.Chemscore.ZeroCoef>
-5.4800

> <Gold.Chemscore.Hbond>
2.0642

> <Gold.Chemscore.Metal>
0.0000

> <Gold.Chemscore.Lipo>
57.8034

> <Gold.Chemscore.Internal_Hbond>
0.0000

> <Gold.Chemscore.DEClash>
0.0440

> <Gold.Chemscore.DEInternal>
0.9239

> <Gold.Chemscore.Rot>
1.3072

> <Gold.Chemscore.Internal.Correction>
   9.000000E+99

> <Gold.Chemscore.Hbonds>
donor molecule, donor type, donor heavy atom, donor atom, acceptor molecule, acceptor atom, score
      L1  H     7    24       P1  7948  0.01
      L1  H    10    25       P1  7948  0.34
      P1  H  7989  7998       L1    14  0.32

> <Gold.Chemscore.Hbond.Weighted>
-6.8945

> <Gold.Chemscore.Metal.Weighted>
-0.0000

> <Gold.Chemscore.Lipo.Weighted>
-6.7630

> <Gold.Chemscore.Internal_Hbond.Weighted>
0.0000

> <Gold.Chemscore.DEClash.Weighted>
0.0440

> <Gold.Chemscore.DEInternal.Weighted>
0.9239

> <Gold.Chemscore.Rot.Weighted>
3.3464

> <Gold.Chemscore.Internal.Correction.Weighted>
   9.000000E+99

> <Gold.Protein.RotatedTorsions>
[ 6907 6896 6895 6894 ] final   19.63 input  -60.11 | X-H torsion
[ 7974 7965 7964 7962 ] final   31.50 input  175.53 | X-H torsion
[ 8008 7997 7996 7995 ] final -100.63 input   59.86 | X-H torsion
[ 10167 10162 10161 10158 ] final   54.02 input  -65.29 | X-H torsion
[ 10718 10713 10712 10709 ] final  133.82 input   66.30 | X-H torsion
[ 10763 10752 10751 10750 ] final   43.68 input  -60.55 | X-H torsion
[ 11005 11000 10999 10996 ] final  110.53 input  -57.11 | X-H torsion

> <Gold.Protein.ActiveResidues>
 VAL166  LYS551  ARG553  GLY616  TRP617  ASP618  TYR619  PRO620  LYS621  CYS622 
 ASP623  PHE694  ASN695  SER759  ASP760  ASP761  ALA762  ILE779  LEU786  VAL792 
 PHE793  MET794  SER795  GLU796  ALA797  LYS798  CYS799  TRP800  GLU811  SER814 

> <Gold.Protein.RotatedAtoms>
  151.8839  135.0443  160.0491 H   0  0  0  0  0  0  0  0  0  0  0  0  # atno 6907 bound_to 6896
  152.2490  133.5195  159.5323 H   0  0  0  0  0  0  0  0  0  0  0  0  # atno 6908 bound_to 6896
  150.7077  134.0902  159.3971 H   0  0  0  0  0  0  0  0  0  0  0  0  # atno 6909 bound_to 6896
  146.1546  139.6649  142.9075 H   0  0  0  0  0  0  0  0  0  0  0  0  # atno 7974 bound_to 7965
  154.8313  140.0439  157.1478 H   0  0  0  0  0  0  0  0  0  0  0  0  # atno 8008 bound_to 7997
  154.9149  140.3019  155.5226 H   0  0  0  0  0  0  0  0  0  0  0  0  # atno 8009 bound_to 7997
  156.2987  140.2351  156.4193 H   0  0  0  0  0  0  0  0  0  0  0  0  # atno 8010 bound_to 7997
  140.2346  144.3650  150.6402 H   0  0  0  0  0  0  0  0  0  0  0  0  # atno 10167 bound_to 10162
  157.4735  131.1081  150.9773 H   0  0  0  0  0  0  0  0  0  0  0  0  # atno 10718 bound_to 10713
  152.9855  135.6094  154.3152 H   0  0  0  0  0  0  0  0  0  0  0  0  # atno 10763 bound_to 10752
  154.2865  135.2776  155.2676 H   0  0  0  0  0  0  0  0  0  0  0  0  # atno 10764 bound_to 10752
  154.4991  135.5871  153.6574 H   0  0  0  0  0  0  0  0  0  0  0  0  # atno 10765 bound_to 10752
  139.8884  134.9486  156.6293 H   0  0  0  0  0  0  0  0  0  0  0  0  # atno 11005 bound_to 11000
  145.4739  141.0436  143.2683 LP  0  0  0  0  0  0  0  0  0  0  0  0  # atno 17320 bound_to 7965
  144.7947  139.6258  143.7098 LP  0  0  0  0  0  0  0  0  0  0  0  0  # atno 17321 bound_to 7965
  140.6160  143.2172  151.6792 LP  0  0  0  0  0  0  0  0  0  0  0  0  # atno 17342 bound_to 10162
  139.5098  144.3564  152.0604 LP  0  0  0  0  0  0  0  0  0  0  0  0  # atno 17343 bound_to 10162
  157.0530  130.5795  149.5373 LP  0  0  0  0  0  0  0  0  0  0  0  0  # atno 17370 bound_to 10713
  156.0085  130.5174  150.7910 LP  0  0  0  0  0  0  0  0  0  0  0  0  # atno 17371 bound_to 10713
  140.7679  133.8763  155.8469 LP  0  0  0  0  0  0  0  0  0  0  0  0  # atno 17394 bound_to 11000
  140.9867  134.1333  157.4446 LP  0  0  0  0  0  0  0  0  0  0  0  0  # atno 17395 bound_to 11000

$$$$
