AV-unprocessed.smi:701|AV-procd|sdf|3410|dock4
  -GOLD-   22720 0393D 1   1.00000     0.00000
 Structure written by MMmdl.
 49 51  0  0  0  0  0  0  0  0  1 V2000
  152.9837  138.4709  155.2094 C   0  0  0  0  0  0  0  0  0  0  0  0
  152.3104  139.8077  155.5275 C   0  0  0  0  0  0  0  0  0  0  0  0
  151.0115  139.8092  154.9605 O   0  0  0  0  0  0  0  0  0  0  0  0
  150.1980  138.7472  155.4301 C   0  0  2  0  0  0  0  0  0  0  0  0
  150.1126  137.5577  154.4693 C   0  0  0  0  0  0  0  0  0  0  0  0
  148.6536  137.4507  154.9092 C   0  0  2  0  0  0  0  0  0  0  0  0
  147.7642  137.0646  153.8195 N   0  0  0  0  0  0  0  0  0  0  0  0
  146.4743  137.4206  153.7349 C   0  0  0  0  0  0  0  0  0  0  0  0
  145.9152  138.1297  154.5726 O   0  0  0  0  0  0  0  0  0  0  0  0
  145.7090  136.9203  152.5025 C   0  0  0  0  0  0  0  0  0  0  0  0
  144.4084  136.3302  152.8499 N   0  0  0  0  0  0  0  0  0  0  0  0
  143.2336  137.0319  152.6192 C   0  0  0  0  0  0  0  0  0  0  0  0
  142.0057  136.5525  152.9299 C   0  0  0  0  0  0  0  0  0  0  0  0
  141.8596  135.2354  153.5404 C   0  0  0  0  0  0  0  0  0  0  0  0
  140.7924  134.7143  153.8563 O   0  0  0  0  0  0  0  0  0  0  0  0
  143.0643  134.5618  153.7580 N   0  0  0  0  0  0  0  0  0  0  0  0
  144.3327  135.0506  153.4422 C   0  0  0  0  0  0  0  0  0  0  0  0
  145.3329  134.3749  153.6814 O   0  0  0  0  0  0  0  0  0  0  0  0
  148.6732  138.9704  155.2329 C   0  0  0  0  0  0  0  0  0  0  0  0
  148.2429  139.9310  154.0935 C   0  0  0  0  0  0  0  0  0  0  0  0
  148.3938  141.4240  154.4440 C   0  0  0  0  0  0  0  0  0  0  0  0
  147.6633  141.7749  155.7453 C   0  0  0  0  0  0  0  0  0  0  0  0
  148.0850  140.8396  156.8842 C   0  0  0  0  0  0  0  0  0  0  0  0
  147.8833  139.3684  156.4901 C   0  0  0  0  0  0  0  0  0  0  0  0
  143.0132  133.6463  154.1808 H   0  0  0  0  0  0  0  0  0  0  0  0
  153.9890  138.4311  155.6293 H   0  0  0  0  0  0  0  0  0  0  0  0
  153.0640  138.3196  154.1327 H   0  0  0  0  0  0  0  0  0  0  0  0
  152.4142  137.6386  155.6237 H   0  0  0  0  0  0  0  0  0  0  0  0
  152.2549  139.9470  156.6079 H   0  0  0  0  0  0  0  0  0  0  0  0
  152.8999  140.6291  155.1179 H   0  0  0  0  0  0  0  0  0  0  0  0
  150.4402  138.4449  156.4519 H   0  0  0  0  0  0  0  0  0  0  0  0
  150.2426  137.8374  153.4223 H   0  0  0  0  0  0  0  0  0  0  0  0
  150.7358  136.7059  154.7424 H   0  0  0  0  0  0  0  0  0  0  0  0
  148.5555  136.8296  155.8032 H   0  0  0  0  0  0  0  0  0  0  0  0
  148.1529  136.4875  153.0879 H   0  0  0  0  0  0  0  0  0  0  0  0
  145.5746  137.7644  151.8245 H   0  0  0  0  0  0  0  0  0  0  0  0
  146.3132  136.1993  151.9476 H   0  0  0  0  0  0  0  0  0  0  0  0
  143.2940  138.0144  152.1731 H   0  0  0  0  0  0  0  0  0  0  0  0
  141.1267  137.1472  152.7276 H   0  0  0  0  0  0  0  0  0  0  0  0
  148.8067  139.7290  153.1826 H   0  0  0  0  0  0  0  0  0  0  0  0
  147.1987  139.7510  153.8351 H   0  0  0  0  0  0  0  0  0  0  0  0
  149.4468  141.6863  154.5393 H   0  0  0  0  0  0  0  0  0  0  0  0
  148.0061  142.0347  153.6284 H   0  0  0  0  0  0  0  0  0  0  0  0
  147.8609  142.8119  156.0180 H   0  0  0  0  0  0  0  0  0  0  0  0
  146.5866  141.6946  155.5902 H   0  0  0  0  0  0  0  0  0  0  0  0
  149.1325  141.0120  157.1349 H   0  0  0  0  0  0  0  0  0  0  0  0
  147.5095  141.0669  157.7819 H   0  0  0  0  0  0  0  0  0  0  0  0
  146.8198  139.1831  156.3337 H   0  0  0  0  0  0  0  0  0  0  0  0
  148.1678  138.7363  157.3318 H   0  0  0  0  0  0  0  0  0  0  0  0
  1  2  1  0  0  0  0
  1 26  1  0  0  0  0
  1 27  1  0  0  0  0
  1 28  1  0  0  0  0
  2  3  1  0  0  0  0
  2 29  1  0  0  0  0
  2 30  1  0  0  0  0
  3  4  1  0  0  0  0
  4 19  1  0  0  0  0
  4  5  1  0  0  0  0
  4 31  1  0  0  0  0
  5  6  1  0  0  0  0
  5 32  1  0  0  0  0
  5 33  1  0  0  0  0
  6  7  1  0  0  0  0
  6 19  1  0  0  0  0
  6 34  1  0  0  0  0
  7  8  1  0  0  0  0
  7 35  1  0  0  0  0
  8  9  2  0  0  0  0
  8 10  1  0  0  0  0
 10 11  1  0  0  0  0
 10 36  1  0  0  0  0
 10 37  1  0  0  0  0
 11 17  1  0  0  0  0
 11 12  1  0  0  0  0
 12 13  2  0  0  0  0
 12 38  1  0  0  0  0
 13 14  1  0  0  0  0
 13 39  1  0  0  0  0
 14 15  2  0  0  0  0
 14 16  1  0  0  0  0
 16 25  1  0  0  0  0
 16 17  1  0  0  0  0
 17 18  2  0  0  0  0
 19 24  1  0  0  0  0
 19 20  1  0  0  0  0
 20 21  1  0  0  0  0
 20 40  1  0  0  0  0
 20 41  1  0  0  0  0
 21 22  1  0  0  0  0
 21 42  1  0  0  0  0
 21 43  1  0  0  0  0
 22 23  1  0  0  0  0
 22 44  1  0  0  0  0
 22 45  1  0  0  0  0
 23 24  1  0  0  0  0
 23 46  1  0  0  0  0
 23 47  1  0  0  0  0
 24 48  1  0  0  0  0
 24 49  1  0  0  0  0
M  END
> <s_m_source_file>
AV-unprocessed.smi

> <i_m_source_file_index>
701

> <i_lp_mmshare_version>
43012

> <i_f3d_flags>
0

> <s_epik_input>
W0NIMl0xW0NIMl1bQ0gyXVtDSDJdW0NIMl1DMTJbQ0BIXShPW0NIMl1bQ0gzXSlbQ0gyXVtDQEhdMltOSF1DKD1PKVtDSDJdbjNbY0hdW2NIXWMoPU8pW25IXWMzPU8=

> <s_epik_cmdline>
J2VwaWtfcHl0aG9uJywgJy1waCcsICc3LjAnLCAnLXRuJywgJzgnLCAnLW1hJywgJzIwMCcsICctbWV0YWxfYmluZGluZycsICctaW1hZScsICc8aW5maWxlLm1hZT4nLCAnLW9tYWUnLCAnPG91dGZpbGUubWFlPic=

> <r_lp_tautomer_probability>
0.999537

> <r_epik_Ionization_Penalty>
0.00304597

> <r_epik_Ionization_Penalty_Charging>
0.00304595

> <r_epik_Ionization_Penalty_Neutral>
1.88422e-08

> <r_epik_State_Penalty>
0.00214084

> <r_epik_Charging_Adjusted_Penalty>
0.00518679

> <i_epik_Tot_Q>
0

> <i_epik_Tot_abs_Q>
0

> <r_epik_Metal_State_Penalty>
0.361872

> <b_epik_Metal_Only>
0

> <s_lp_Force_Field>
OPLS_2005

> <r_lp_Energy>
27.3359

> <b_lp_Chiralities_Consistent>
1

> <s_lp_Variant>
AV-unprocessed.smi:701-3

> <Gold.Version>
5.8.1

> <Gold.Id.Protein>
6NUR|6NUR_protein|mol2

> <Gold.PLP.Fitness>
45.3387

> <Gold.PLP.PLP>
-30.3269

> <Gold.PLP.part.hbond>
-4.8240

> <Gold.PLP.part.metal>
0.0000

> <Gold.PLP.part.buried>
-2.9409

> <Gold.PLP.part.nonpolar>
-23.3602

> <Gold.PLP.part.repulsive>
0.4199

> <Gold.PLP.ligand.clash>
0.0000

> <Gold.PLP.ligand.torsion>
0.9157

> <Gold.PLP.Chemscore.Hbond>
3.5413

> <Gold.PLP.Chemscore.CHOScore>
1.9581

> <Gold.PLP.Chemscore.Metal>
0.0000

> <Gold.Chemscore.Hbonds>
donor molecule, donor type, donor heavy atom, donor atom, acceptor molecule, acceptor atom, score
      L1  H     7    35       P1  7948  0.89
      L1  H    16    25       P1 10957  1.00
      P1  H  7989  7998       L1     3  0.50
      P1  H 11000 11005       L1    15  1.00
      L1  C    12    38       P1 10171  0.97
      L1  C    12    38       P1 10175  1.00

> <Gold.PLP.Chemscore.Internal.Correction>
0.3453

> <Gold.Rescore>
     Score         DG    S(hbond)    S(metal)    S(lipo)     H(rot)  DE(clash)    DE(int)     intcor
     15.73     -17.73       3.06        0.00      63.02       2.09       0.02       1.98       ----

> <Gold.Chemscore.Fitness>
15.7284

> <Gold.Chemscore.DG>
-17.7291

> <Gold.Chemscore.ZeroCoef>
-5.4800

> <Gold.Chemscore.Hbond>
3.0644

> <Gold.Chemscore.Metal>
0.0000

> <Gold.Chemscore.Lipo>
63.0165

> <Gold.Chemscore.Internal_Hbond>
0.0000

> <Gold.Chemscore.DEClash>
0.0243

> <Gold.Chemscore.DEInternal>
1.9763

> <Gold.Chemscore.Rot>
2.0933

> <Gold.Chemscore.Internal.Correction>
   9.000000E+99

> <Gold.Chemscore.Hbonds>
donor molecule, donor type, donor heavy atom, donor atom, acceptor molecule, acceptor atom, score
      L1  H     7    35       P1  7948  0.84
      L1  H    16    25       P1 10957  0.96
      P1  H  7989  7998       L1     3  0.02
      P1  H 11000 11005       L1    15  0.96

> <Gold.Chemscore.Hbond.Weighted>
-10.2350

> <Gold.Chemscore.Metal.Weighted>
-0.0000

> <Gold.Chemscore.Lipo.Weighted>
-7.3729

> <Gold.Chemscore.Internal_Hbond.Weighted>
0.0000

> <Gold.Chemscore.DEClash.Weighted>
0.0243

> <Gold.Chemscore.DEInternal.Weighted>
1.9763

> <Gold.Chemscore.Rot.Weighted>
5.3588

> <Gold.Chemscore.Internal.Correction.Weighted>
   9.000000E+99

> <Gold.Protein.RotatedTorsions>
[ 6907 6896 6895 6894 ] final  -88.93 input  -60.11 | X-H torsion
[ 7974 7965 7964 7962 ] final  179.35 input  175.53 | X-H torsion
[ 8008 7997 7996 7995 ] final  -41.69 input   59.86 | X-H torsion
[ 10167 10162 10161 10158 ] final  -23.23 input  -65.29 | X-H torsion
[ 10718 10713 10712 10709 ] final  -18.44 input   66.30 | X-H torsion
[ 10763 10752 10751 10750 ] final -141.22 input  -60.55 | X-H torsion
[ 11005 11000 10999 10996 ] final   36.82 input  -57.11 | X-H torsion

> <Gold.Protein.ActiveResidues>
 VAL166  LYS551  ARG553  GLY616  TRP617  ASP618  TYR619  PRO620  LYS621  CYS622 
 ASP623  PHE694  ASN695  SER759  ASP760  ASP761  ALA762  ILE779  LEU786  VAL792 
 PHE793  MET794  SER795  GLU796  ALA797  LYS798  CYS799  TRP800  GLU811  SER814 

> <Gold.Protein.RotatedAtoms>
  150.6871  134.2666  159.4570 H   0  0  0  0  0  0  0  0  0  0  0  0  # atno 6907 bound_to 6896
  152.0591  134.9603  160.0584 H   0  0  0  0  0  0  0  0  0  0  0  0  # atno 6908 bound_to 6896
  152.1037  133.4228  159.4636 H   0  0  0  0  0  0  0  0  0  0  0  0  # atno 6909 bound_to 6896
  144.7146  140.0535  143.6434 H   0  0  0  0  0  0  0  0  0  0  0  0  # atno 7974 bound_to 7965
  154.4002  140.1493  156.3232 H   0  0  0  0  0  0  0  0  0  0  0  0  # atno 8008 bound_to 7997
  155.8511  140.3458  155.5672 H   0  0  0  0  0  0  0  0  0  0  0  0  # atno 8009 bound_to 7997
  155.7983  140.0866  157.1961 H   0  0  0  0  0  0  0  0  0  0  0  0  # atno 8010 bound_to 7997
  140.7287  143.4462  151.0584 H   0  0  0  0  0  0  0  0  0  0  0  0  # atno 10167 bound_to 10162
  156.5595  130.4722  149.6413 H   0  0  0  0  0  0  0  0  0  0  0  0  # atno 10718 bound_to 10713
  154.8552  135.3530  154.5833 H   0  0  0  0  0  0  0  0  0  0  0  0  # atno 10763 bound_to 10752
  153.6444  135.6997  153.5235 H   0  0  0  0  0  0  0  0  0  0  0  0  # atno 10764 bound_to 10752
  153.2945  135.4225  155.1156 H   0  0  0  0  0  0  0  0  0  0  0  0  # atno 10765 bound_to 10752
  140.2288  134.3553  155.7973 H   0  0  0  0  0  0  0  0  0  0  0  0  # atno 11005 bound_to 11000
  145.9924  139.3025  143.0977 LP  0  0  0  0  0  0  0  0  0  0  0  0  # atno 17320 bound_to 7965
  145.8888  140.9317  143.0563 LP  0  0  0  0  0  0  0  0  0  0  0  0  # atno 17321 bound_to 7965
  139.8133  143.7920  152.3173 LP  0  0  0  0  0  0  0  0  0  0  0  0  # atno 17342 bound_to 10162
  139.7977  144.7386  150.9867 LP  0  0  0  0  0  0  0  0  0  0  0  0  # atno 17343 bound_to 10162
  156.2812  130.7072  151.1896 LP  0  0  0  0  0  0  0  0  0  0  0  0  # atno 17370 bound_to 10713
  157.7371  131.0555  150.5373 LP  0  0  0  0  0  0  0  0  0  0  0  0  # atno 17371 bound_to 10713
  141.2219  133.7234  156.8697 LP  0  0  0  0  0  0  0  0  0  0  0  0  # atno 17394 bound_to 11000
  140.1773  134.9058  157.2906 LP  0  0  0  0  0  0  0  0  0  0  0  0  # atno 17395 bound_to 11000

$$$$
