AV-unprocessed.smi:1419|AV-procd|sdf|5776|dock10
  -GOLD-   22720 5423D 1   1.00000     0.00000
 Structure written by MMmdl.
 42 43  0  0  0  0  0  0  0  0  2 V2000
  145.4546  133.8595  153.6543 C   0  0  0  0  0  0  0  0  0  0  0  0
  146.6184  133.9840  152.6622 C   0  0  2  0  0  0  0  0  0  0  0  0
  146.5946  132.8417  151.6244 C   0  0  0  0  0  0  0  0  0  0  0  0
  145.4173  132.8890  150.7500 N   0  0  0  0  0  0  0  0  0  0  0  0
  145.0539  131.9721  149.7972 C   0  0  0  0  0  0  0  0  0  0  0  0
  143.8833  132.4251  149.2452 C   0  0  0  0  0  0  0  0  0  0  0  0
  143.5864  133.6025  149.8777 N   0  3  0  0  0  0  0  0  0  0  0  0
  144.5225  133.8854  150.7896 C   0  0  0  0  0  0  0  0  0  0  0  0
  147.8765  133.9852  153.4073 N   0  0  0  0  0  0  0  0  0  0  0  0
  148.2193  133.1259  154.3830 C   0  0  0  0  0  0  0  0  0  0  0  0
  147.4857  132.1995  154.7307 O   0  0  0  0  0  0  0  0  0  0  0  0
  149.4310  133.3613  154.9435 N   0  0  0  0  0  0  0  0  0  0  0  0
  150.1118  134.6577  155.0550 C   0  0  0  0  0  0  0  0  0  0  0  0
  150.0322  135.1137  156.5247 C   0  0  2  0  0  0  0  0  0  0  0  0
  150.7700  136.4361  156.7593 C   0  0  0  0  0  0  0  0  0  0  0  0
  150.6284  134.1211  157.3642 O   0  0  0  0  0  0  0  0  0  0  0  0
  150.1022  132.7962  157.2349 C   0  0  1  0  0  0  0  0  0  0  0  0
  148.7169  132.6787  157.8956 C   0  0  0  0  0  0  0  0  0  0  0  0
  150.1327  132.3623  155.7532 C   0  0  0  0  0  0  0  0  0  0  0  0
  144.4946  133.8828  153.1380 H   0  0  0  0  0  0  0  0  0  0  0  0
  145.4605  134.6809  154.3716 H   0  0  0  0  0  0  0  0  0  0  0  0
  145.5074  132.9260  154.2162 H   0  0  0  0  0  0  0  0  0  0  0  0
  146.4952  134.9355  152.1417 H   0  0  0  0  0  0  0  0  0  0  0  0
  147.4931  132.8597  151.0047 H   0  0  0  0  0  0  0  0  0  0  0  0
  146.5786  131.8743  152.1280 H   0  0  0  0  0  0  0  0  0  0  0  0
  145.6354  131.0842  149.5946 H   0  0  0  0  0  0  0  0  0  0  0  0
  143.2563  132.0084  148.4702 H   0  0  0  0  0  0  0  0  0  0  0  0
  144.5438  134.7436  151.4376 H   0  0  0  0  0  0  0  0  0  0  0  0
  148.5416  134.7063  153.1679 H   0  0  0  0  0  0  0  0  0  0  0  0
  151.1540  134.5433  154.7524 H   0  0  0  0  0  0  0  0  0  0  0  0
  149.7030  135.4289  154.4022 H   0  0  0  0  0  0  0  0  0  0  0  0
  148.9883  135.2524  156.8084 H   0  0  0  0  0  0  0  0  0  0  0  0
  150.3459  137.2363  156.1524 H   0  0  0  0  0  0  0  0  0  0  0  0
  151.8271  136.3483  156.5069 H   0  0  0  0  0  0  0  0  0  0  0  0
  150.7008  136.7396  157.8042 H   0  0  0  0  0  0  0  0  0  0  0  0
  150.7769  132.1424  157.7884 H   0  0  0  0  0  0  0  0  0  0  0  0
  148.3592  131.6495  157.8629 H   0  0  0  0  0  0  0  0  0  0  0  0
  147.9693  133.2981  157.4035 H   0  0  0  0  0  0  0  0  0  0  0  0
  148.7602  132.9803  158.9421 H   0  0  0  0  0  0  0  0  0  0  0  0
  149.7187  131.3587  155.6434 H   0  0  0  0  0  0  0  0  0  0  0  0
  151.1660  132.2919  155.4104 H   0  0  0  0  0  0  0  0  0  0  0  0
  142.7754  134.1774  149.6855 H   0  0  0  0  0  0  0  0  0  0  0  0
  1  2  1  0  0  0  0
  1 20  1  0  0  0  0
  1 21  1  0  0  0  0
  1 22  1  0  0  0  0
  2  3  1  0  0  0  0
  2  9  1  0  0  0  0
  2 23  1  0  0  0  0
  3  4  1  0  0  0  0
  3 24  1  0  0  0  0
  3 25  1  0  0  0  0
  4  8  1  0  0  0  0
  4  5  1  0  0  0  0
  5  6  2  0  0  0  0
  5 26  1  0  0  0  0
  6  7  1  0  0  0  0
  6 27  1  0  0  0  0
  7  8  2  0  0  0  0
  7 42  1  0  0  0  0
  8 28  1  0  0  0  0
  9 10  1  0  0  0  0
  9 29  1  0  0  0  0
 10 11  2  0  0  0  0
 10 12  1  0  0  0  0
 12 19  1  0  0  0  0
 12 13  1  0  0  0  0
 13 14  1  0  0  0  0
 13 30  1  0  0  0  0
 13 31  1  0  0  0  0
 14 15  1  0  0  0  0
 14 16  1  0  0  0  0
 14 32  1  0  0  0  0
 15 33  1  0  0  0  0
 15 34  1  0  0  0  0
 15 35  1  0  0  0  0
 16 17  1  0  0  0  0
 17 18  1  0  0  0  0
 17 19  1  0  0  0  0
 17 36  1  0  0  0  0
 18 37  1  0  0  0  0
 18 38  1  0  0  0  0
 18 39  1  0  0  0  0
 19 40  1  0  0  0  0
 19 41  1  0  0  0  0
M  CHG  1   7   1
M  END
> <s_m_source_file>
AV-unprocessed.smi

> <i_m_source_file_index>
1419

> <i_lp_mmshare_version>
43012

> <i_f3d_flags>
0

> <s_epik_input>
W2NIXTFuW2NIXVtjSF1uMVtDSDJdW0NAQEhdKFtDSDNdKVtOSF1DKD1PKU4yW0NIMl1bQ0BASF0oW0NIM10pT1tDQEBIXShbQ0gzXSlbQ0gyXTI=

> <s_epik_cmdline>
J2VwaWtfcHl0aG9uJywgJy1waCcsICc3LjAnLCAnLXRuJywgJzgnLCAnLW1hJywgJzIwMCcsICctbWV0YWxfYmluZGluZycsICctaW1hZScsICc8aW5maWxlLm1hZT4nLCAnLW9tYWUnLCAnPG91dGZpbGUubWFlPic=

> <r_lp_tautomer_probability>
1

> <r_epik_Ionization_Penalty>
0.253607

> <r_epik_Ionization_Penalty_Charging>
0

> <r_epik_Ionization_Penalty_Neutral>
0.253607

> <r_epik_State_Penalty>
0.245018

> <r_epik_Charging_Adjusted_Penalty>
0.245018

> <i_epik_Tot_Q>
1

> <i_epik_Tot_abs_Q>
1

> <r_epik_Metal_State_Penalty>
0.535379

> <b_epik_Metal_Only>
0

> <s_lp_Force_Field>
OPLS_2005

> <r_lp_Energy>
31.3779

> <b_lp_Chiralities_Consistent>
1

> <s_lp_Variant>
AV-unprocessed.smi:1419-3

> <Gold.Version>
5.8.1

> <Gold.Id.Protein>
6NUR|6NUR_protein|mol2

> <Gold.PLP.Fitness>
43.5216

> <Gold.PLP.PLP>
-33.7247

> <Gold.PLP.part.hbond>
-3.0000

> <Gold.PLP.part.metal>
0.0000

> <Gold.PLP.part.buried>
-4.9015

> <Gold.PLP.part.nonpolar>
-26.2475

> <Gold.PLP.part.repulsive>
0.0895

> <Gold.PLP.ligand.clash>
0.0000

> <Gold.PLP.ligand.torsion>
0.4349

> <Gold.PLP.Chemscore.Hbond>
3.5417

> <Gold.PLP.Chemscore.CHOScore>
0.0000

> <Gold.PLP.Chemscore.Metal>
0.0000

> <Gold.Chemscore.Hbonds>
donor molecule, donor type, donor heavy atom, donor atom, acceptor molecule, acceptor atom, score
      L1  H     7    42       P1 10186  2.00
      L1  H     9    29       P1  7948  0.90
      P1  H  6896  6907       L1    16  0.14

> <Gold.PLP.Chemscore.Internal.Correction>
0.0416

> <Gold.Rescore>
     Score         DG    S(hbond)    S(metal)    S(lipo)     H(rot)  DE(clash)    DE(int)     intcor
     14.31     -16.25       2.28        0.00      62.65       1.63       0.02       1.92       ----

> <Gold.Chemscore.Fitness>
14.3080

> <Gold.Chemscore.DG>
-16.2467

> <Gold.Chemscore.ZeroCoef>
-5.4800

> <Gold.Chemscore.Hbond>
2.2763

> <Gold.Chemscore.Metal>
0.0000

> <Gold.Chemscore.Lipo>
62.6479

> <Gold.Chemscore.Internal_Hbond>
0.0000

> <Gold.Chemscore.DEClash>
0.0154

> <Gold.Chemscore.DEInternal>
1.9232

> <Gold.Chemscore.Rot>
1.6273

> <Gold.Chemscore.Internal.Correction>
   9.000000E+99

> <Gold.Chemscore.Hbonds>
donor molecule, donor type, donor heavy atom, donor atom, acceptor molecule, acceptor atom, score
      L1  H     7    42       P1 10186  0.97
      L1  H     9    29       P1  7948  0.38

> <Gold.Chemscore.Hbond.Weighted>
-7.6027

> <Gold.Chemscore.Metal.Weighted>
-0.0000

> <Gold.Chemscore.Lipo.Weighted>
-7.3298

> <Gold.Chemscore.Internal_Hbond.Weighted>
0.0000

> <Gold.Chemscore.DEClash.Weighted>
0.0154

> <Gold.Chemscore.DEInternal.Weighted>
1.9232

> <Gold.Chemscore.Rot.Weighted>
4.1658

> <Gold.Chemscore.Internal.Correction.Weighted>
   9.000000E+99

> <Gold.Protein.RotatedTorsions>
[ 6907 6896 6895 6894 ] final -138.52 input  -60.11 | X-H torsion
[ 7974 7965 7964 7962 ] final -178.17 input  175.53 | X-H torsion
[ 8008 7997 7996 7995 ] final  -73.01 input   59.86 | X-H torsion
[ 10167 10162 10161 10158 ] final  141.16 input  -65.29 | X-H torsion
[ 10718 10713 10712 10709 ] final  -61.11 input   66.30 | X-H torsion
[ 10763 10752 10751 10750 ] final   85.57 input  -60.55 | X-H torsion
[ 11005 11000 10999 10996 ] final  152.64 input  -57.11 | X-H torsion

> <Gold.Protein.ActiveResidues>
 VAL166  LYS551  ARG553  GLY616  TRP617  ASP618  TYR619  PRO620  LYS621  CYS622 
 ASP623  PHE694  ASN695  SER759  ASP760  ASP761  ALA762  ILE779  LEU786  VAL792 
 PHE793  MET794  SER795  GLU796  ALA797  LYS798  CYS799  TRP800  GLU811  SER814 

> <Gold.Protein.RotatedAtoms>
  151.0361  133.5747  159.2655 H   0  0  0  0  0  0  0  0  0  0  0  0  # atno 6907 bound_to 6896
  151.2810  135.0713  159.9179 H   0  0  0  0  0  0  0  0  0  0  0  0  # atno 6908 bound_to 6896
  152.5355  134.0076  159.7977 H   0  0  0  0  0  0  0  0  0  0  0  0  # atno 6909 bound_to 6896
  144.7130  140.0908  143.6421 H   0  0  0  0  0  0  0  0  0  0  0  0  # atno 7974 bound_to 7965
  154.5213  140.0787  156.8176 H   0  0  0  0  0  0  0  0  0  0  0  0  # atno 8008 bound_to 7997
  155.3571  140.3416  155.4222 H   0  0  0  0  0  0  0  0  0  0  0  0  # atno 8009 bound_to 7997
  156.1684  140.1611  156.8478 H   0  0  0  0  0  0  0  0  0  0  0  0  # atno 8010 bound_to 7997
  139.5028  144.6189  151.6099 H   0  0  0  0  0  0  0  0  0  0  0  0  # atno 10167 bound_to 10162
  156.0944  130.4195  150.0948 H   0  0  0  0  0  0  0  0  0  0  0  0  # atno 10718 bound_to 10713
  153.1487  135.4612  154.9605 H   0  0  0  0  0  0  0  0  0  0  0  0  # atno 10763 bound_to 10752
  154.7807  135.3187  154.7997 H   0  0  0  0  0  0  0  0  0  0  0  0  # atno 10764 bound_to 10752
  153.8507  135.6922  153.4847 H   0  0  0  0  0  0  0  0  0  0  0  0  # atno 10765 bound_to 10752
  140.1326  134.8792  157.2224 H   0  0  0  0  0  0  0  0  0  0  0  0  # atno 11005 bound_to 11000
  145.9622  139.2808  143.1149 LP  0  0  0  0  0  0  0  0  0  0  0  0  # atno 17320 bound_to 7965
  145.9209  140.9116  143.0406 LP  0  0  0  0  0  0  0  0  0  0  0  0  # atno 17321 bound_to 7965
  140.5885  143.9822  150.6310 LP  0  0  0  0  0  0  0  0  0  0  0  0  # atno 17342 bound_to 10162
  140.2994  143.3270  152.0986 LP  0  0  0  0  0  0  0  0  0  0  0  0  # atno 17343 bound_to 10162
  156.8950  130.9601  151.3583 LP  0  0  0  0  0  0  0  0  0  0  0  0  # atno 17370 bound_to 10713
  157.6101  130.8577  149.8938 LP  0  0  0  0  0  0  0  0  0  0  0  0  # atno 17371 bound_to 10713
  140.2823  134.3336  155.7339 LP  0  0  0  0  0  0  0  0  0  0  0  0  # atno 17394 bound_to 11000
  141.2173  133.7485  156.9382 LP  0  0  0  0  0  0  0  0  0  0  0  0  # atno 17395 bound_to 11000

$$$$
