AV-unprocessed.smi:1242|AV-procd|sdf|5216|dock6
  -GOLD-   22720 4313D 1   1.00000     0.00000
 Structure written by MMmdl.
 39 40  0  0  0  0  0  0  0  0  1 V2000
  150.8210  141.0172  157.8459 O   0  0  0  0  0  0  0  0  0  0  0  0
  150.7126  142.1315  157.3318 C   0  0  0  0  0  0  0  0  0  0  0  0
  151.5297  143.3262  157.8447 C   0  0  0  0  0  0  0  0  0  0  0  0
  152.0939  143.1260  159.1903 N   0  0  0  0  0  0  0  0  0  0  0  0
  153.0020  142.0610  159.3523 C   0  0  0  0  0  0  0  0  0  0  0  0
  153.5941  141.7746  160.5274 C   0  0  0  0  0  0  0  0  0  0  0  0
  154.5269  140.5833  160.6805 C   0  0  0  0  0  0  0  0  0  0  0  0
  154.9193  140.4380  161.9466 F   0  0  0  0  0  0  0  0  0  0  0  0
  153.9293  139.4549  160.2958 F   0  0  0  0  0  0  0  0  0  0  0  0
  155.6113  140.7559  159.9259 F   0  0  0  0  0  0  0  0  0  0  0  0
  153.2266  142.6086  161.6552 C   0  0  0  0  0  0  0  0  0  0  0  0
  152.3558  143.6278  161.5188 C   0  0  0  0  0  0  0  0  0  0  0  0
  151.7370  143.9404  160.2286 C   0  0  0  0  0  0  0  0  0  0  0  0
  150.9466  144.8742  160.0900 O   0  0  0  0  0  0  0  0  0  0  0  0
  149.8856  142.3920  156.3079 N   0  0  0  0  0  0  0  0  0  0  0  0
  149.0038  141.4281  155.6493 C   0  0  2  0  0  0  0  0  0  0  0  0
  147.9955  140.8303  156.6658 C   0  0  0  0  0  0  0  0  0  0  0  0
  147.4638  139.4167  156.3486 C   0  0  0  0  0  0  0  0  0  0  0  0
  146.8154  139.2456  154.9601 C   0  0  0  0  0  0  0  0  0  0  0  0
  147.6631  139.6819  153.7422 C   0  0  0  0  0  0  0  0  0  0  0  0
  149.1067  139.6195  153.9653 N   0  0  0  0  0  0  0  0  0  0  0  0
  149.7955  140.4019  154.8141 C   0  0  0  0  0  0  0  0  0  0  0  0
  151.0149  140.2939  154.9389 O   0  0  0  0  0  0  0  0  0  0  0  0
  152.3276  143.5423  157.1316 H   0  0  0  0  0  0  0  0  0  0  0  0
  150.8888  144.2088  157.8274 H   0  0  0  0  0  0  0  0  0  0  0  0
  153.1899  141.4892  158.4551 H   0  0  0  0  0  0  0  0  0  0  0  0
  153.6596  142.4164  162.6258 H   0  0  0  0  0  0  0  0  0  0  0  0
  152.1068  144.2296  162.3804 H   0  0  0  0  0  0  0  0  0  0  0  0
  149.8540  143.3381  155.9557 H   0  0  0  0  0  0  0  0  0  0  0  0
  148.4286  141.9976  154.9182 H   0  0  0  0  0  0  0  0  0  0  0  0
  148.4609  140.7865  157.6516 H   0  0  0  0  0  0  0  0  0  0  0  0
  147.1536  141.5157  156.7716 H   0  0  0  0  0  0  0  0  0  0  0  0
  148.2732  138.6937  156.4597 H   0  0  0  0  0  0  0  0  0  0  0  0
  146.7343  139.1399  157.1103 H   0  0  0  0  0  0  0  0  0  0  0  0
  146.5650  138.1907  154.8433 H   0  0  0  0  0  0  0  0  0  0  0  0
  145.8627  139.7753  154.9344 H   0  0  0  0  0  0  0  0  0  0  0  0
  147.4193  139.0526  152.8860 H   0  0  0  0  0  0  0  0  0  0  0  0
  147.3905  140.6936  153.4400 H   0  0  0  0  0  0  0  0  0  0  0  0
  149.6232  138.9383  153.4277 H   0  0  0  0  0  0  0  0  0  0  0  0
  1  2  2  0  0  0  0
  2  3  1  0  0  0  0
  2 15  1  0  0  0  0
  3  4  1  0  0  0  0
  3 24  1  0  0  0  0
  3 25  1  0  0  0  0
  4 13  1  0  0  0  0
  4  5  1  0  0  0  0
  5  6  2  0  0  0  0
  5 26  1  0  0  0  0
  6  7  1  0  0  0  0
  6 11  1  0  0  0  0
  7  8  1  0  0  0  0
  7  9  1  0  0  0  0
  7 10  1  0  0  0  0
 11 12  2  0  0  0  0
 11 27  1  0  0  0  0
 12 13  1  0  0  0  0
 12 28  1  0  0  0  0
 13 14  2  0  0  0  0
 15 16  1  0  0  0  0
 15 29  1  0  0  0  0
 16 22  1  0  0  0  0
 16 17  1  0  0  0  0
 16 30  1  0  0  0  0
 17 18  1  0  0  0  0
 17 31  1  0  0  0  0
 17 32  1  0  0  0  0
 18 19  1  0  0  0  0
 18 33  1  0  0  0  0
 18 34  1  0  0  0  0
 19 20  1  0  0  0  0
 19 35  1  0  0  0  0
 19 36  1  0  0  0  0
 20 21  1  0  0  0  0
 20 37  1  0  0  0  0
 20 38  1  0  0  0  0
 21 22  1  0  0  0  0
 21 39  1  0  0  0  0
 22 23  2  0  0  0  0
M  END
> <s_m_source_file>
AV-unprocessed.smi

> <i_m_source_file_index>
1242

> <i_lp_mmshare_version>
43012

> <i_f3d_flags>
0

> <s_epik_input>
Tz1jMVtjSF1bY0hdYyhDKEYpKEYpRilbY0hdbjFbQ0gyXUMoPU8pW05IXVtDQEBIXTJbQ0gyXVtDSDJdW0NIMl1bQ0gyXVtOSF1DMj1P

> <s_epik_cmdline>
J2VwaWtfcHl0aG9uJywgJy1waCcsICc3LjAnLCAnLXRuJywgJzgnLCAnLW1hJywgJzIwMCcsICctbWV0YWxfYmluZGluZycsICctaW1hZScsICc8aW5maWxlLm1hZT4nLCAnLW9tYWUnLCAnPG91dGZpbGUubWFlPic=

> <r_lp_tautomer_probability>
1

> <r_epik_Ionization_Penalty>
6.92876e-08

> <r_epik_Ionization_Penalty_Charging>
1.59659e-08

> <r_epik_Ionization_Penalty_Neutral>
5.33217e-08

> <r_epik_State_Penalty>
-0

> <r_epik_Charging_Adjusted_Penalty>
1.59659e-08

> <i_epik_Tot_Q>
0

> <i_epik_Tot_abs_Q>
0

> <r_epik_Metal_State_Penalty>
-0

> <b_epik_Metal_Only>
0

> <s_lp_Force_Field>
OPLS_2005

> <r_lp_Energy>
26.9049

> <b_lp_Chiralities_Consistent>
1

> <s_lp_Variant>
AV-unprocessed.smi:1242-1

> <Gold.Version>
5.8.1

> <Gold.Id.Protein>
6NUR|6NUR_protein|mol2

> <Gold.PLP.Fitness>
53.3083

> <Gold.PLP.PLP>
-48.0492

> <Gold.PLP.part.hbond>
-3.0000

> <Gold.PLP.part.metal>
0.0000

> <Gold.PLP.part.buried>
-5.6552

> <Gold.PLP.part.nonpolar>
-40.4833

> <Gold.PLP.part.repulsive>
0.4196

> <Gold.PLP.ligand.clash>
0.0000

> <Gold.PLP.ligand.torsion>
0.3280

> <Gold.PLP.Chemscore.Hbond>
1.9440

> <Gold.PLP.Chemscore.CHOScore>
0.0000

> <Gold.PLP.Chemscore.Metal>
0.0000

> <Gold.Chemscore.Hbonds>
donor molecule, donor type, donor heavy atom, donor atom, acceptor molecule, acceptor atom, score
      L1  H    15    29       P1  8028  0.94
      P1  H  7989  7998       L1    23  1.00

> <Gold.PLP.Chemscore.Internal.Correction>
0.0830

> <Gold.Rescore>
     Score         DG    S(hbond)    S(metal)    S(lipo)     H(rot)  DE(clash)    DE(int)     intcor
     14.46     -17.35       2.16        0.00      77.44       1.72       0.21       2.68       ----

> <Gold.Chemscore.Fitness>
14.4592

> <Gold.Chemscore.DG>
-17.3483

> <Gold.Chemscore.ZeroCoef>
-5.4800

> <Gold.Chemscore.Hbond>
2.1600

> <Gold.Chemscore.Metal>
0.0000

> <Gold.Chemscore.Lipo>
77.4380

> <Gold.Chemscore.Internal_Hbond>
0.0000

> <Gold.Chemscore.DEClash>
0.2054

> <Gold.Chemscore.DEInternal>
2.6837

> <Gold.Chemscore.Rot>
1.7212

> <Gold.Chemscore.Internal.Correction>
   9.000000E+99

> <Gold.Chemscore.Hbonds>
donor molecule, donor type, donor heavy atom, donor atom, acceptor molecule, acceptor atom, score
      L1  H    15    29       P1  8028  0.91
      P1  H  7989  7998       L1    23  0.50

> <Gold.Chemscore.Hbond.Weighted>
-7.2142

> <Gold.Chemscore.Metal.Weighted>
-0.0000

> <Gold.Chemscore.Lipo.Weighted>
-9.0602

> <Gold.Chemscore.Internal_Hbond.Weighted>
0.0000

> <Gold.Chemscore.DEClash.Weighted>
0.2054

> <Gold.Chemscore.DEInternal.Weighted>
2.6837

> <Gold.Chemscore.Rot.Weighted>
4.4062

> <Gold.Chemscore.Internal.Correction.Weighted>
   9.000000E+99

> <Gold.Protein.RotatedTorsions>
[ 6907 6896 6895 6894 ] final  120.31 input  -60.11 | X-H torsion
[ 7974 7965 7964 7962 ] final  171.59 input  175.53 | X-H torsion
[ 8008 7997 7996 7995 ] final -162.54 input   59.86 | X-H torsion
[ 10167 10162 10161 10158 ] final  -39.12 input  -65.29 | X-H torsion
[ 10718 10713 10712 10709 ] final  153.33 input   66.30 | X-H torsion
[ 10763 10752 10751 10750 ] final  -34.50 input  -60.55 | X-H torsion
[ 11005 11000 10999 10996 ] final  -52.35 input  -57.11 | X-H torsion

> <Gold.Protein.ActiveResidues>
 VAL166  LYS551  ARG553  GLY616  TRP617  ASP618  TYR619  PRO620  LYS621  CYS622 
 ASP623  PHE694  ASN695  SER759  ASP760  ASP761  ALA762  ILE779  LEU786  VAL792 
 PHE793  MET794  SER795  GLU796  ALA797  LYS798  CYS799  TRP800  GLU811  SER814 

> <Gold.Protein.RotatedAtoms>
  152.4407  133.7444  159.6658 H   0  0  0  0  0  0  0  0  0  0  0  0  # atno 6907 bound_to 6896
  150.8298  133.8100  159.3109 H   0  0  0  0  0  0  0  0  0  0  0  0  # atno 6908 bound_to 6896
  151.5757  135.1063  160.0057 H   0  0  0  0  0  0  0  0  0  0  0  0  # atno 6909 bound_to 6896
  144.7290  139.9373  143.6427 H   0  0  0  0  0  0  0  0  0  0  0  0  # atno 7974 bound_to 7965
  155.8083  140.0902  157.1918 H   0  0  0  0  0  0  0  0  0  0  0  0  # atno 8008 bound_to 7997
  154.3980  140.1459  156.3416 H   0  0  0  0  0  0  0  0  0  0  0  0  # atno 8009 bound_to 7997
  155.8391  140.3439  155.5623 H   0  0  0  0  0  0  0  0  0  0  0  0  # atno 8010 bound_to 7997
  140.7073  143.3234  151.2737 H   0  0  0  0  0  0  0  0  0  0  0  0  # atno 10167 bound_to 10162
  157.2461  131.0769  151.1761 H   0  0  0  0  0  0  0  0  0  0  0  0  # atno 10718 bound_to 10713
  153.8477  135.6852  153.4796 H   0  0  0  0  0  0  0  0  0  0  0  0  # atno 10763 bound_to 10752
  153.1416  135.4655  154.9502 H   0  0  0  0  0  0  0  0  0  0  0  0  # atno 10764 bound_to 10752
  154.7816  135.3271  154.7924 H   0  0  0  0  0  0  0  0  0  0  0  0  # atno 10765 bound_to 10752
  141.0920  133.6631  156.4012 H   0  0  0  0  0  0  0  0  0  0  0  0  # atno 11005 bound_to 11000
  146.0812  139.3799  143.0463 LP  0  0  0  0  0  0  0  0  0  0  0  0  # atno 17320 bound_to 7965
  145.7838  140.9844  143.1085 LP  0  0  0  0  0  0  0  0  0  0  0  0  # atno 17321 bound_to 7965
  139.6695  144.0045  152.2744 LP  0  0  0  0  0  0  0  0  0  0  0  0  # atno 17342 bound_to 10162
  139.9639  144.6539  150.8053 LP  0  0  0  0  0  0  0  0  0  0  0  0  # atno 17343 bound_to 10162
  157.3327  130.6993  149.6334 LP  0  0  0  0  0  0  0  0  0  0  0  0  # atno 17370 bound_to 10713
  155.9668  130.4302  150.4869 LP  0  0  0  0  0  0  0  0  0  0  0  0  # atno 17371 bound_to 10713
  140.5230  134.6286  157.5324 LP  0  0  0  0  0  0  0  0  0  0  0  0  # atno 17394 bound_to 11000
  139.9748  134.7234  155.9972 LP  0  0  0  0  0  0  0  0  0  0  0  0  # atno 17395 bound_to 11000

$$$$
