AV-unprocessed.smi:221|AV-procd|sdf|1697|dock4
  -GOLD-   2262020143D 1   1.00000     0.00000
 Structure written by MMmdl.
 50 53  0  0  0  0  0  0  0  0  1 V2000
  142.4027  134.4508  154.7302 N   0  0  0  0  0  0  0  0  0  0  0  0
  143.0058  135.3227  153.9151 C   0  0  0  0  0  0  0  0  0  0  0  0
  142.7006  136.5131  153.9089 O   0  0  0  0  0  0  0  0  0  0  0  0
  144.1043  134.8124  152.9615 C   0  0  1  0  0  0  0  0  0  0  0  0
  143.5386  133.7728  151.9798 C   0  0  0  0  0  0  0  0  0  0  0  0
  144.4750  133.8555  150.7794 C   0  0  2  0  0  0  0  0  0  0  0  0
  145.5733  133.1379  151.0209 F   0  0  0  0  0  0  0  0  0  0  0  0
  144.8390  135.3385  150.7214 C   0  0  0  0  0  0  0  0  0  0  0  0
  144.6909  135.8366  152.0853 N   0  0  0  0  0  0  0  0  0  0  0  0
  145.5733  136.7672  152.5407 C   0  0  0  0  0  0  0  0  0  0  0  0
  146.0200  137.7367  151.6987 N   0  0  0  0  0  0  0  0  0  0  0  0
  146.8891  138.6582  152.1227 C   0  0  0  0  0  0  0  0  0  0  0  0
  147.4411  138.7911  153.3296 N   0  0  0  0  0  0  0  0  0  0  0  0
  147.0086  137.8160  154.1784 C   0  0  0  0  0  0  0  0  0  0  0  0
  146.0845  136.7767  153.8714 C   0  0  0  0  0  0  0  0  0  0  0  0
  145.8997  135.9696  154.9891 N   0  0  0  0  0  0  0  0  0  0  0  0
  146.6594  136.5067  155.9038 C   0  0  0  0  0  0  0  0  0  0  0  0
  147.3688  137.6140  155.4986 N   0  0  0  0  0  0  0  0  0  0  0  0
  148.2914  138.4004  156.2983 C   0  0  0  0  0  0  0  0  0  0  0  0
  149.5424  138.8529  155.5013 C   0  0  2  0  0  0  0  0  0  0  0  0
  150.2815  137.6461  154.8774 C   0  0  0  0  0  0  0  0  0  0  0  0
  150.7496  137.9461  153.5790 O   0  0  0  0  0  0  0  0  0  0  0  0
  150.5015  139.7564  156.3244 C   0  0  1  0  0  0  0  0  0  0  0  0
  151.0316  139.1516  157.6248 C   0  0  0  0  0  0  0  0  0  0  0  0
  152.5110  139.5453  157.6461 C   0  0  0  0  0  0  0  0  0  0  0  0
  152.6233  140.5851  156.6865 O   0  0  0  0  0  0  0  0  0  0  0  0
  151.7676  140.2415  155.6105 C   0  0  0  0  0  0  0  0  0  0  0  0
  144.8950  134.3425  153.5491 H   0  0  0  0  0  0  0  0  0  0  0  0
  144.0337  133.4818  149.8553 H   0  0  0  0  0  0  0  0  0  0  0  0
  141.6786  134.7688  155.3577 H   0  0  0  0  0  0  0  0  0  0  0  0
  142.6710  133.4777  154.7120 H   0  0  0  0  0  0  0  0  0  0  0  0
  143.4921  132.7707  152.4077 H   0  0  0  0  0  0  0  0  0  0  0  0
  142.5293  134.0452  151.6651 H   0  0  0  0  0  0  0  0  0  0  0  0
  145.8429  135.4799  150.3176 H   0  0  0  0  0  0  0  0  0  0  0  0
  144.1388  135.8770  150.0819 H   0  0  0  0  0  0  0  0  0  0  0  0
  147.1858  139.3930  151.3889 H   0  0  0  0  0  0  0  0  0  0  0  0
  146.7316  136.1006  156.9023 H   0  0  0  0  0  0  0  0  0  0  0  0
  147.7386  139.2539  156.6887 H   0  0  0  0  0  0  0  0  0  0  0  0
  148.5818  137.8022  157.1620 H   0  0  0  0  0  0  0  0  0  0  0  0
  149.1846  139.4644  154.6715 H   0  0  0  0  0  0  0  0  0  0  0  0
  151.1194  137.3368  155.5024 H   0  0  0  0  0  0  0  0  0  0  0  0
  149.6195  136.7858  154.7848 H   0  0  0  0  0  0  0  0  0  0  0  0
  150.1360  137.5994  152.9495 H   0  0  0  0  0  0  0  0  0  0  0  0
  149.9544  140.6516  156.6230 H   0  0  0  0  0  0  0  0  0  0  0  0
  150.5041  139.5796  158.4779 H   0  0  0  0  0  0  0  0  0  0  0  0
  150.9156  138.0704  157.6870 H   0  0  0  0  0  0  0  0  0  0  0  0
  152.8446  139.8737  158.6306 H   0  0  0  0  0  0  0  0  0  0  0  0
  153.1350  138.7054  157.3374 H   0  0  0  0  0  0  0  0  0  0  0  0
  152.2447  139.4580  155.0223 H   0  0  0  0  0  0  0  0  0  0  0  0
  151.5826  141.0956  154.9587 H   0  0  0  0  0  0  0  0  0  0  0  0
  1  2  1  0  0  0  0
  1 30  1  0  0  0  0
  1 31  1  0  0  0  0
  2  3  2  0  0  0  0
  2  4  1  0  0  0  0
  4 28  1  0  0  0  0
  4  9  1  0  0  0  0
  4  5  1  0  0  0  0
  5  6  1  0  0  0  0
  5 32  1  0  0  0  0
  5 33  1  0  0  0  0
  6 29  1  0  0  0  0
  6  7  1  0  0  0  0
  6  8  1  0  0  0  0
  8  9  1  0  0  0  0
  8 34  1  0  0  0  0
  8 35  1  0  0  0  0
  9 10  1  0  0  0  0
 10 15  1  0  0  0  0
 10 11  2  0  0  0  0
 11 12  1  0  0  0  0
 12 13  2  0  0  0  0
 12 36  1  0  0  0  0
 13 14  1  0  0  0  0
 14 18  1  0  0  0  0
 14 15  2  0  0  0  0
 15 16  1  0  0  0  0
 16 17  2  0  0  0  0
 17 18  1  0  0  0  0
 17 37  1  0  0  0  0
 18 19  1  0  0  0  0
 19 20  1  0  0  0  0
 19 38  1  0  0  0  0
 19 39  1  0  0  0  0
 20 21  1  0  0  0  0
 20 23  1  0  0  0  0
 20 40  1  0  0  0  0
 21 22  1  0  0  0  0
 21 41  1  0  0  0  0
 21 42  1  0  0  0  0
 22 43  1  0  0  0  0
 23 27  1  0  0  0  0
 23 24  1  0  0  0  0
 23 44  1  0  0  0  0
 24 25  1  0  0  0  0
 24 45  1  0  0  0  0
 24 46  1  0  0  0  0
 25 26  1  0  0  0  0
 25 47  1  0  0  0  0
 25 48  1  0  0  0  0
 26 27  1  0  0  0  0
 27 49  1  0  0  0  0
 27 50  1  0  0  0  0
M  END
> <s_m_source_file>
AV-unprocessed.smi

> <i_m_source_file_index>
221

> <i_lp_mmshare_version>
43012

> <i_f3d_flags>
0

> <s_epik_input>
W05IMl1DKD1PKVtDQEBIXTFbQ0gyXVtDQEBIXShGKVtDSDJdTjFjKG5bY0hdbjIpYyhjMjMpbltjSF1uM1tDSDJdW0NASF0oW0NIMl1bT0hdKVtDQEBIXTRbQ0gyXVtDSDJdT1tDSDJdNA==

> <s_epik_cmdline>
J2VwaWtfcHl0aG9uJywgJy1waCcsICc3LjAnLCAnLXRuJywgJzgnLCAnLW1hJywgJzIwMCcsICctbWV0YWxfYmluZGluZycsICctaW1hZScsICc8aW5maWxlLm1hZT4nLCAnLW9tYWUnLCAnPG91dGZpbGUubWFlPic=

> <r_lp_tautomer_probability>
1

> <r_epik_Ionization_Penalty>
0.000818822

> <r_epik_Ionization_Penalty_Charging>
0

> <r_epik_Ionization_Penalty_Neutral>
0.000818822

> <r_epik_State_Penalty>
0.000440551

> <r_epik_Charging_Adjusted_Penalty>
0.000440551

> <i_epik_Tot_Q>
0

> <i_epik_Tot_abs_Q>
0

> <r_epik_Metal_State_Penalty>
-0

> <b_epik_Metal_Only>
0

> <s_lp_Force_Field>
OPLS_2005

> <r_lp_Energy>
49.9883

> <b_lp_Chiralities_Consistent>
1

> <s_lp_Variant>
AV-unprocessed.smi:221-12

> <Gold.Version>
5.8.1

> <Gold.Id.Protein>
6NUR|6NUR_protein|mol2

> <Gold.PLP.Fitness>
46.2105

> <Gold.PLP.PLP>
-33.4426

> <Gold.PLP.part.hbond>
-4.9200

> <Gold.PLP.part.metal>
0.0000

> <Gold.PLP.part.buried>
-6.6296

> <Gold.PLP.part.nonpolar>
-24.4256

> <Gold.PLP.part.repulsive>
1.4568

> <Gold.PLP.ligand.clash>
0.0000

> <Gold.PLP.ligand.torsion>
1.1045

> <Gold.PLP.Chemscore.Hbond>
3.9417

> <Gold.PLP.Chemscore.CHOScore>
0.9108

> <Gold.PLP.Chemscore.Metal>
0.0000

> <Gold.Chemscore.Hbonds>
donor molecule, donor type, donor heavy atom, donor atom, acceptor molecule, acceptor atom, score
      L1  H     1    30       P1 11000  0.85
      L1  H     1    31       P1 10957  1.00
      L1  H    22    43       P1  7948  0.75
      P1  H  7997  8008       L1    26  0.24
      L1  C    12    36       P1  7957  0.82

> <Gold.PLP.Chemscore.Internal.Correction>
0.4194

> <Gold.Rescore>
     Score         DG    S(hbond)    S(metal)    S(lipo)     H(rot)  DE(clash)    DE(int)     intcor
      9.99     -14.12       3.29        0.00      52.23       3.31       0.41       3.72       ----

> <Gold.Chemscore.Fitness>
9.9929

> <Gold.Chemscore.DG>
-14.1225

> <Gold.Chemscore.ZeroCoef>
-5.4800

> <Gold.Chemscore.Hbond>
3.2942

> <Gold.Chemscore.Metal>
0.0000

> <Gold.Chemscore.Lipo>
52.2293

> <Gold.Chemscore.Internal_Hbond>
0.0000

> <Gold.Chemscore.DEClash>
0.4050

> <Gold.Chemscore.DEInternal>
3.7246

> <Gold.Chemscore.Rot>
3.3089

> <Gold.Chemscore.Internal.Correction>
   9.000000E+99

> <Gold.Chemscore.Hbonds>
donor molecule, donor type, donor heavy atom, donor atom, acceptor molecule, acceptor atom, score
      L1  H     1    30       P1 11000  0.33
      L1  H     1    31       P1 10957  1.00
      L1  H    22    43       P1  7948  0.11

> <Gold.Chemscore.Hbond.Weighted>
-11.0026

> <Gold.Chemscore.Metal.Weighted>
-0.0000

> <Gold.Chemscore.Lipo.Weighted>
-6.1108

> <Gold.Chemscore.Internal_Hbond.Weighted>
0.0000

> <Gold.Chemscore.DEClash.Weighted>
0.4050

> <Gold.Chemscore.DEInternal.Weighted>
3.7246

> <Gold.Chemscore.Rot.Weighted>
8.4709

> <Gold.Chemscore.Internal.Correction.Weighted>
   9.000000E+99

> <Gold.Protein.RotatedTorsions>
[ 6907 6896 6895 6894 ] final  -90.85 input  -60.11 | X-H torsion
[ 7974 7965 7964 7962 ] final   45.21 input  175.53 | X-H torsion
[ 8008 7997 7996 7995 ] final  -57.98 input   59.86 | X-H torsion
[ 10167 10162 10161 10158 ] final    7.34 input  -65.29 | X-H torsion
[ 10718 10713 10712 10709 ] final   83.57 input   66.30 | X-H torsion
[ 10763 10752 10751 10750 ] final -135.82 input  -60.55 | X-H torsion
[ 11005 11000 10999 10996 ] final  155.06 input  -57.11 | X-H torsion

> <Gold.Protein.ActiveResidues>
 VAL166  LYS551  ARG553  GLY616  TRP617  ASP618  TYR619  PRO620  LYS621  CYS622 
 ASP623  PHE694  ASN695  SER759  ASP760  ASP761  ALA762  ILE779  LEU786  VAL792 
 PHE793  MET794  SER795  GLU796  ALA797  LYS798  CYS799  TRP800  GLU811  SER814 

> <Gold.Protein.RotatedAtoms>
  150.6886  134.2368  159.4456 H   0  0  0  0  0  0  0  0  0  0  0  0  # atno 6907 bound_to 6896
  152.0315  134.9763  160.0582 H   0  0  0  0  0  0  0  0  0  0  0  0  # atno 6908 bound_to 6896
  152.1300  133.4367  159.4753 H   0  0  0  0  0  0  0  0  0  0  0  0  # atno 6909 bound_to 6896
  146.0500  139.4989  142.9724 H   0  0  0  0  0  0  0  0  0  0  0  0  # atno 7974 bound_to 7965
  154.4290  140.1094  156.5884 H   0  0  0  0  0  0  0  0  0  0  0  0  # atno 8008 bound_to 7997
  155.6038  140.3493  155.4583 H   0  0  0  0  0  0  0  0  0  0  0  0  # atno 8009 bound_to 7997
  156.0152  140.1228  157.0403 H   0  0  0  0  0  0  0  0  0  0  0  0  # atno 8010 bound_to 7997
  140.6377  143.7847  150.7383 H   0  0  0  0  0  0  0  0  0  0  0  0  # atno 10167 bound_to 10162
  157.6881  131.0096  150.2542 H   0  0  0  0  0  0  0  0  0  0  0  0  # atno 10718 bound_to 10713
  154.8696  135.3692  154.4960 H   0  0  0  0  0  0  0  0  0  0  0  0  # atno 10763 bound_to 10752
  153.5603  135.7023  153.5555 H   0  0  0  0  0  0  0  0  0  0  0  0  # atno 10764 bound_to 10752
  153.3634  135.4040  155.1698 H   0  0  0  0  0  0  0  0  0  0  0  0  # atno 10765 bound_to 10752
  140.1546  134.8651  157.2498 H   0  0  0  0  0  0  0  0  0  0  0  0  # atno 11005 bound_to 11000
  145.6741  141.0209  143.1642 LP  0  0  0  0  0  0  0  0  0  0  0  0  # atno 17320 bound_to 7965
  144.7117  139.8344  143.7412 LP  0  0  0  0  0  0  0  0  0  0  0  0  # atno 17321 bound_to 7965
  140.1472  143.4389  152.2155 LP  0  0  0  0  0  0  0  0  0  0  0  0  # atno 17342 bound_to 10162
  139.5587  144.7391  151.4219 LP  0  0  0  0  0  0  0  0  0  0  0  0  # atno 17343 bound_to 10162
  156.3133  130.3775  149.7641 LP  0  0  0  0  0  0  0  0  0  0  0  0  # atno 17370 bound_to 10713
  156.5234  130.8225  151.3212 LP  0  0  0  0  0  0  0  0  0  0  0  0  # atno 17371 bound_to 10713
  140.2563  134.3624  155.7423 LP  0  0  0  0  0  0  0  0  0  0  0  0  # atno 17394 bound_to 11000
  141.2203  133.7344  156.9012 LP  0  0  0  0  0  0  0  0  0  0  0  0  # atno 17395 bound_to 11000

$$$$
