AV-unprocessed.smi:1824|AV-procd|sdf|7399|dock1
  -GOLD-   22720 9 73D 1   1.00000     0.00000
 Structure written by MMmdl.
 45 47  0  0  0  0  0  0  0  0  2 V2000
  146.6832  135.8935  155.8719 C   0  0  0  0  0  0  0  0  0  0  0  0
  147.1291  136.7573  154.6869 C   0  0  2  0  0  0  0  0  0  0  0  0
  148.3851  137.5841  155.0155 C   0  0  0  0  0  0  0  0  0  0  0  0
  148.7333  138.4690  153.8801 N   0  3  2  0  0  0  0  0  0  0  0  0
  150.0045  139.2054  154.0986 C   0  0  0  0  0  0  0  0  0  0  0  0
  150.1103  139.7931  155.5197 C   0  0  2  0  0  0  0  0  0  0  0  0
  149.1250  140.7978  155.6717 O   0  0  0  0  0  0  0  0  0  0  0  0
  151.5040  140.3949  155.7846 C   0  0  0  0  0  0  0  0  0  0  0  0
  151.8926  140.3103  157.1815 N   0  0  0  0  0  0  0  0  0  0  0  0
  152.1603  139.1908  157.8813 C   0  0  0  0  0  0  0  0  0  0  0  0
  152.5005  139.3371  159.1586 N   0  0  0  0  0  0  0  0  0  0  0  0
  152.4500  140.7126  159.3062 C   0  0  0  0  0  0  0  0  0  0  0  0
  152.7064  141.5245  160.4343 C   0  0  0  0  0  0  0  0  0  0  0  0
  152.5900  142.9276  160.3472 C   0  0  0  0  0  0  0  0  0  0  0  0
  152.8405  143.6907  161.4374 F   0  0  0  0  0  0  0  0  0  0  0  0
  152.2149  143.5390  159.1322 C   0  0  0  0  0  0  0  0  0  0  0  0
  152.1055  144.8866  159.0564 F   0  0  0  0  0  0  0  0  0  0  0  0
  151.9536  142.7507  157.9951 C   0  0  0  0  0  0  0  0  0  0  0  0
  152.0726  141.3514  158.0864 C   0  0  0  0  0  0  0  0  0  0  0  0
  147.5865  139.3477  153.5426 C   0  0  0  0  0  0  0  0  0  0  0  0
  146.3168  138.5193  153.2652 C   0  0  1  0  0  0  0  0  0  0  0  0
  146.3453  137.7859  151.9124 C   0  0  0  0  0  0  0  0  0  0  0  0
  146.0564  137.6357  154.3560 O   0  0  0  0  0  0  0  0  0  0  0  0
  147.4642  135.1905  156.1628 H   0  0  0  0  0  0  0  0  0  0  0  0
  145.7941  135.3151  155.6190 H   0  0  0  0  0  0  0  0  0  0  0  0
  146.4441  136.5070  156.7412 H   0  0  0  0  0  0  0  0  0  0  0  0
  147.3360  136.0949  153.8460 H   0  0  0  0  0  0  0  0  0  0  0  0
  148.2224  138.1866  155.9109 H   0  0  0  0  0  0  0  0  0  0  0  0
  149.2174  136.9118  155.2281 H   0  0  0  0  0  0  0  0  0  0  0  0
  150.8444  138.5393  153.8948 H   0  0  0  0  0  0  0  0  0  0  0  0
  150.0853  140.0223  153.3798 H   0  0  0  0  0  0  0  0  0  0  0  0
  149.9221  139.0204  156.2645 H   0  0  0  0  0  0  0  0  0  0  0  0
  148.3320  140.3993  155.9974 H   0  0  0  0  0  0  0  0  0  0  0  0
  152.2566  139.8745  155.1908 H   0  0  0  0  0  0  0  0  0  0  0  0
  151.5351  141.4407  155.4759 H   0  0  0  0  0  0  0  0  0  0  0  0
  152.1009  138.2122  157.4273 H   0  0  0  0  0  0  0  0  0  0  0  0
  152.9937  141.0678  161.3698 H   0  0  0  0  0  0  0  0  0  0  0  0
  151.6656  143.2179  157.0656 H   0  0  0  0  0  0  0  0  0  0  0  0
  147.4023  140.0272  154.3764 H   0  0  0  0  0  0  0  0  0  0  0  0
  147.8125  139.9699  152.6772 H   0  0  0  0  0  0  0  0  0  0  0  0
  145.4731  139.2094  153.2297 H   0  0  0  0  0  0  0  0  0  0  0  0
  146.4152  138.4973  151.0891 H   0  0  0  0  0  0  0  0  0  0  0  0
  145.4347  137.2042  151.7669 H   0  0  0  0  0  0  0  0  0  0  0  0
  147.1936  137.1076  151.8250 H   0  0  0  0  0  0  0  0  0  0  0  0
  148.8890  137.8636  153.0862 H   0  0  0  0  0  0  0  0  0  0  0  0
  1  2  1  0  0  0  0
  1 24  1  0  0  0  0
  1 25  1  0  0  0  0
  1 26  1  0  0  0  0
  2 23  1  0  0  0  0
  2  3  1  0  0  0  0
  2 27  1  0  0  0  0
  3  4  1  0  0  0  0
  3 28  1  0  0  0  0
  3 29  1  0  0  0  0
  4  5  1  0  0  0  0
  4 20  1  0  0  0  0
  4 45  1  0  0  0  0
  5  6  1  0  0  0  0
  5 30  1  0  0  0  0
  5 31  1  0  0  0  0
  6  7  1  0  0  0  0
  6  8  1  0  0  0  0
  6 32  1  0  0  0  0
  7 33  1  0  0  0  0
  8  9  1  0  0  0  0
  8 34  1  0  0  0  0
  8 35  1  0  0  0  0
  9 19  1  0  0  0  0
  9 10  1  0  0  0  0
 10 11  2  0  0  0  0
 10 36  1  0  0  0  0
 11 12  1  0  0  0  0
 12 19  2  0  0  0  0
 12 13  1  0  0  0  0
 13 14  2  0  0  0  0
 13 37  1  0  0  0  0
 14 15  1  0  0  0  0
 14 16  1  0  0  0  0
 16 17  1  0  0  0  0
 16 18  2  0  0  0  0
 18 19  1  0  0  0  0
 18 38  1  0  0  0  0
 20 21  1  0  0  0  0
 20 39  1  0  0  0  0
 20 40  1  0  0  0  0
 21 22  1  0  0  0  0
 21 23  1  0  0  0  0
 21 41  1  0  0  0  0
 22 42  1  0  0  0  0
 22 43  1  0  0  0  0
 22 44  1  0  0  0  0
M  CHG  1   4   1
M  END
> <s_m_source_file>
AV-unprocessed.smi

> <i_m_source_file_index>
1824

> <i_lp_mmshare_version>
43012

> <i_f3d_flags>
0

> <s_epik_input>
W0NIM11bQ0BASF0xW0NIMl1OKFtDSDJdW0NASF0oTzEpW0NIM10pW0NIMl1bQ0BIXShbT0hdKVtDSDJdbihbY0hdbjIpYyhjMjMpW2NIXWMoRiljKEYpW2NIXTM=

> <s_epik_cmdline>
J2VwaWtfcHl0aG9uJywgJy1waCcsICc3LjAnLCAnLXRuJywgJzgnLCAnLW1hJywgJzIwMCcsICctbWV0YWxfYmluZGluZycsICctaW1hZScsICc8aW5maWxlLm1hZT4nLCAnLW9tYWUnLCAnPG91dGZpbGUubWFlPic=

> <r_epik_Ionization_Penalty>
0.61967

> <r_epik_Ionization_Penalty_Charging>
0.608065

> <r_epik_Ionization_Penalty_Neutral>
0.0116057

> <r_epik_State_Penalty>
0.664205

> <r_epik_Charging_Adjusted_Penalty>
1.27227

> <i_epik_Tot_Q>
1

> <i_epik_Tot_abs_Q>
1

> <r_epik_Metal_State_Penalty>
0.654947

> <b_epik_Metal_Only>
0

> <s_lp_Force_Field>
OPLS_2005

> <r_lp_Energy>
23.0723

> <b_lp_Chiralities_Consistent>
1

> <s_lp_Variant>
AV-unprocessed.smi:1824-7

> <Gold.Version>
5.8.1

> <Gold.Id.Protein>
6NUR|6NUR_protein|mol2

> <Gold.PLP.Fitness>
45.6916

> <Gold.PLP.PLP>
-40.8897

> <Gold.PLP.part.hbond>
-1.2194

> <Gold.PLP.part.metal>
0.0000

> <Gold.PLP.part.buried>
-1.9001

> <Gold.PLP.part.nonpolar>
-38.3727

> <Gold.PLP.part.repulsive>
0.1128

> <Gold.PLP.ligand.clash>
0.0000

> <Gold.PLP.ligand.torsion>
0.6188

> <Gold.PLP.Chemscore.Hbond>
2.0000

> <Gold.PLP.Chemscore.CHOScore>
0.0000

> <Gold.PLP.Chemscore.Metal>
0.0000

> <Gold.Chemscore.Hbonds>
donor molecule, donor type, donor heavy atom, donor atom, acceptor molecule, acceptor atom, score
      L1  H     4    45       P1  7948  2.00

> <Gold.PLP.Chemscore.Internal.Correction>
0.0394

> <Gold.Rescore>
     Score         DG    S(hbond)    S(metal)    S(lipo)     H(rot)  DE(clash)    DE(int)     intcor
     12.21     -13.72       0.99        0.00      93.04       2.33       0.23       1.28       ----

> <Gold.Chemscore.Fitness>
12.2101

> <Gold.Chemscore.DG>
-13.7172

> <Gold.Chemscore.ZeroCoef>
-5.4800

> <Gold.Chemscore.Hbond>
0.9893

> <Gold.Chemscore.Metal>
0.0000

> <Gold.Chemscore.Lipo>
93.0357

> <Gold.Chemscore.Internal_Hbond>
0.0000

> <Gold.Chemscore.DEClash>
0.2311

> <Gold.Chemscore.DEInternal>
1.2760

> <Gold.Chemscore.Rot>
2.3251

> <Gold.Chemscore.Internal.Correction>
   9.000000E+99

> <Gold.Chemscore.Hbonds>
donor molecule, donor type, donor heavy atom, donor atom, acceptor molecule, acceptor atom, score
      L1  H     4    45       P1  7948  0.94

> <Gold.Chemscore.Hbond.Weighted>
-3.3043

> <Gold.Chemscore.Metal.Weighted>
-0.0000

> <Gold.Chemscore.Lipo.Weighted>
-10.8852

> <Gold.Chemscore.Internal_Hbond.Weighted>
0.0000

> <Gold.Chemscore.DEClash.Weighted>
0.2311

> <Gold.Chemscore.DEInternal.Weighted>
1.2760

> <Gold.Chemscore.Rot.Weighted>
5.9523

> <Gold.Chemscore.Internal.Correction.Weighted>
   9.000000E+99

> <Gold.Protein.RotatedTorsions>
[ 6907 6896 6895 6894 ] final  -42.30 input  -60.11 | X-H torsion
[ 7974 7965 7964 7962 ] final   59.23 input  175.53 | X-H torsion
[ 8008 7997 7996 7995 ] final  128.51 input   59.86 | X-H torsion
[ 10167 10162 10161 10158 ] final  106.64 input  -65.29 | X-H torsion
[ 10718 10713 10712 10709 ] final  -44.72 input   66.30 | X-H torsion
[ 10763 10752 10751 10750 ] final -134.66 input  -60.55 | X-H torsion
[ 11005 11000 10999 10996 ] final  127.10 input  -57.11 | X-H torsion

> <Gold.Protein.ActiveResidues>
 VAL166  LYS551  ARG553  GLY616  TRP617  ASP618  TYR619  PRO620  LYS621  CYS622 
 ASP623  PHE694  ASN695  SER759  ASP760  ASP761  ALA762  ILE779  LEU786  VAL792 
 PHE793  MET794  SER795  GLU796  ALA797  LYS798  CYS799  TRP800  GLU811  SER814 

> <Gold.Protein.RotatedAtoms>
  150.9568  134.8961  159.7705 H   0  0  0  0  0  0  0  0  0  0  0  0  # atno 6907 bound_to 6896
  152.5141  134.3729  159.9334 H   0  0  0  0  0  0  0  0  0  0  0  0  # atno 6908 bound_to 6896
  151.3742  133.3803  159.2738 H   0  0  0  0  0  0  0  0  0  0  0  0  # atno 6909 bound_to 6896
  145.9094  139.3642  143.0544 H   0  0  0  0  0  0  0  0  0  0  0  0  # atno 7974 bound_to 7965
  156.2916  140.2643  156.2448 H   0  0  0  0  0  0  0  0  0  0  0  0  # atno 8008 bound_to 7997
  154.9941  140.0388  157.2351 H   0  0  0  0  0  0  0  0  0  0  0  0  # atno 8009 bound_to 7997
  154.7659  140.2769  155.6181 H   0  0  0  0  0  0  0  0  0  0  0  0  # atno 8010 bound_to 7997
  139.6992  144.7097  151.1214 H   0  0  0  0  0  0  0  0  0  0  0  0  # atno 10167 bound_to 10162
  156.2357  130.4176  149.8821 H   0  0  0  0  0  0  0  0  0  0  0  0  # atno 10718 bound_to 10713
  154.8716  135.3727  154.4772 H   0  0  0  0  0  0  0  0  0  0  0  0  # atno 10763 bound_to 10752
  153.5428  135.7026  153.5633 H   0  0  0  0  0  0  0  0  0  0  0  0  # atno 10764 bound_to 10752
  153.3788  135.4002  155.1806 H   0  0  0  0  0  0  0  0  0  0  0  0  # atno 10765 bound_to 10752
  139.9490  134.9625  156.8805 H   0  0  0  0  0  0  0  0  0  0  0  0  # atno 11005 bound_to 11000
  145.8690  140.9431  143.0660 LP  0  0  0  0  0  0  0  0  0  0  0  0  # atno 17320 bound_to 7965
  144.6742  140.0630  143.7475 LP  0  0  0  0  0  0  0  0  0  0  0  0  # atno 17321 bound_to 7965
  140.7705  143.5448  150.9271 LP  0  0  0  0  0  0  0  0  0  0  0  0  # atno 17342 bound_to 10162
  139.9129  143.6699  152.3112 LP  0  0  0  0  0  0  0  0  0  0  0  0  # atno 17343 bound_to 10162
  156.6419  130.8708  151.3515 LP  0  0  0  0  0  0  0  0  0  0  0  0  # atno 17370 bound_to 10713
  157.7153  130.9490  150.1234 LP  0  0  0  0  0  0  0  0  0  0  0  0  # atno 17371 bound_to 10713
  140.5765  134.0393  155.7448 LP  0  0  0  0  0  0  0  0  0  0  0  0  # atno 17394 bound_to 11000
  141.1148  133.9558  157.2843 LP  0  0  0  0  0  0  0  0  0  0  0  0  # atno 17395 bound_to 11000

$$$$
