AV-unprocessed.smi:199|AV-procd|sdf|1564|dock5
  -GOLD-   2262019433D 1   1.00000     0.00000
 Structure written by MMmdl.
 51 55  0  0  0  0  0  0  0  0  1 V2000
  146.8790  131.2241  160.7616 C   0  0  0  0  0  0  0  0  0  0  0  0
  145.4823  131.8404  160.9385 C   0  0  2  0  0  0  0  0  0  0  0  0
  144.9819  132.1585  159.6424 O   0  0  0  0  0  0  0  0  0  0  0  0
  144.1196  133.2775  159.7473 C   0  0  0  0  0  0  0  0  0  0  0  0
  144.8527  134.1608  160.7449 C   0  0  0  0  0  0  0  0  0  0  0  0
  145.3946  133.1580  161.7603 C   0  0  1  0  0  0  0  0  0  0  0  0
  144.4039  132.9741  162.7587 O   0  0  0  0  0  0  0  0  0  0  0  0
  146.6986  133.6256  162.4596 C   0  0  0  0  0  0  0  0  0  0  0  0
  147.3870  134.6921  161.7473 N   0  0  0  0  0  0  0  0  0  0  0  0
  147.5469  135.9921  162.1680 C   0  0  0  0  0  0  0  0  0  0  0  0
  148.1993  136.7659  161.3454 N   0  0  0  0  0  0  0  0  0  0  0  0
  148.5299  135.9375  160.2789 C   0  0  0  0  0  0  0  0  0  0  0  0
  149.2289  136.1212  159.0495 C   0  0  0  0  0  0  0  0  0  0  0  0
  149.7727  137.3036  158.6486 N   0  0  0  0  0  0  0  0  0  0  0  0
  151.2149  137.4583  158.5231 C   0  0  2  0  0  0  0  0  0  0  0  0
  151.3611  138.9688  158.2703 C   0  0  0  0  0  0  0  0  0  0  0  0
  150.0999  139.2586  157.4430 C   0  0  0  0  0  0  0  0  0  0  0  0
  149.4822  137.8519  157.3299 C   0  0  1  0  0  0  0  0  0  0  0  0
  150.3038  136.9448  156.3768 C   0  0  1  0  0  0  0  0  0  0  0  0
  150.5566  137.4944  154.9607 C   0  0  0  0  0  0  0  0  0  0  0  0
  151.2733  136.5478  154.1971 O   0  0  0  0  0  0  0  0  0  0  0  0
  151.5656  136.7004  157.2262 C   0  0  0  0  0  0  0  0  0  0  0  0
  149.3215  135.0451  158.2228 N   0  0  0  0  0  0  0  0  0  0  0  0
  148.8029  133.8670  158.5786 C   0  0  0  0  0  0  0  0  0  0  0  0
  148.1452  133.5490  159.6937 N   0  0  0  0  0  0  0  0  0  0  0  0
  148.0231  134.6271  160.5193 C   0  0  0  0  0  0  0  0  0  0  0  0
  147.3179  130.9474  161.7202 H   0  0  0  0  0  0  0  0  0  0  0  0
  147.5598  131.9110  160.2585 H   0  0  0  0  0  0  0  0  0  0  0  0
  146.8244  130.3193  160.1561 H   0  0  0  0  0  0  0  0  0  0  0  0
  144.8248  131.0812  161.3667 H   0  0  0  0  0  0  0  0  0  0  0  0
  143.9699  133.7624  158.7825 H   0  0  0  0  0  0  0  0  0  0  0  0
  143.1487  132.9641  160.1343 H   0  0  0  0  0  0  0  0  0  0  0  0
  145.6767  134.6547  160.2291 H   0  0  0  0  0  0  0  0  0  0  0  0
  144.2209  134.9362  161.1811 H   0  0  0  0  0  0  0  0  0  0  0  0
  143.5542  132.9979  162.3457 H   0  0  0  0  0  0  0  0  0  0  0  0
  146.4836  133.9773  163.4694 H   0  0  0  0  0  0  0  0  0  0  0  0
  147.3960  132.7942  162.5643 H   0  0  0  0  0  0  0  0  0  0  0  0
  147.1548  136.3537  163.1075 H   0  0  0  0  0  0  0  0  0  0  0  0
  151.8047  137.1368  159.3793 H   0  0  0  0  0  0  0  0  0  0  0  0
  151.3407  139.5266  159.2075 H   0  0  0  0  0  0  0  0  0  0  0  0
  152.2825  139.2214  157.7446 H   0  0  0  0  0  0  0  0  0  0  0  0
  149.4327  139.9216  157.9955 H   0  0  0  0  0  0  0  0  0  0  0  0
  150.3092  139.7320  156.4849 H   0  0  0  0  0  0  0  0  0  0  0  0
  148.4215  137.8882  157.0790 H   0  0  0  0  0  0  0  0  0  0  0  0
  149.7682  135.9996  156.2722 H   0  0  0  0  0  0  0  0  0  0  0  0
  149.6101  137.6989  154.4600 H   0  0  0  0  0  0  0  0  0  0  0  0
  151.1250  138.4241  154.9830 H   0  0  0  0  0  0  0  0  0  0  0  0
  151.0955  136.7024  153.2820 H   0  0  0  0  0  0  0  0  0  0  0  0
  152.4802  137.0718  156.7625 H   0  0  0  0  0  0  0  0  0  0  0  0
  151.6964  135.6346  157.4175 H   0  0  0  0  0  0  0  0  0  0  0  0
  148.9329  133.0651  157.8668 H   0  0  0  0  0  0  0  0  0  0  0  0
  1  2  1  0  0  0  0
  1 27  1  0  0  0  0
  1 28  1  0  0  0  0
  1 29  1  0  0  0  0
  2  6  1  0  0  0  0
  2  3  1  0  0  0  0
  2 30  1  0  0  0  0
  3  4  1  0  0  0  0
  4  5  1  0  0  0  0
  4 31  1  0  0  0  0
  4 32  1  0  0  0  0
  5  6  1  0  0  0  0
  5 33  1  0  0  0  0
  5 34  1  0  0  0  0
  6  7  1  0  0  0  0
  6  8  1  0  0  0  0
  7 35  1  0  0  0  0
  8  9  1  0  0  0  0
  8 36  1  0  0  0  0
  8 37  1  0  0  0  0
  9 26  1  0  0  0  0
  9 10  1  0  0  0  0
 10 11  2  0  0  0  0
 10 38  1  0  0  0  0
 11 12  1  0  0  0  0
 12 26  2  0  0  0  0
 12 13  1  0  0  0  0
 13 14  1  0  0  0  0
 13 23  2  0  0  0  0
 14 18  1  0  0  0  0
 14 15  1  0  0  0  0
 15 22  1  0  0  0  0
 15 16  1  0  0  0  0
 15 39  1  0  0  0  0
 16 17  1  0  0  0  0
 16 40  1  0  0  0  0
 16 41  1  0  0  0  0
 17 18  1  0  0  0  0
 17 42  1  0  0  0  0
 17 43  1  0  0  0  0
 18 19  1  0  0  0  0
 18 44  1  0  0  0  0
 19 20  1  0  0  0  0
 19 22  1  0  0  0  0
 19 45  1  0  0  0  0
 20 21  1  0  0  0  0
 20 46  1  0  0  0  0
 20 47  1  0  0  0  0
 21 48  1  0  0  0  0
 22 49  1  0  0  0  0
 22 50  1  0  0  0  0
 23 24  1  0  0  0  0
 24 25  2  0  0  0  0
 24 51  1  0  0  0  0
 25 26  1  0  0  0  0
M  END
> <s_m_source_file>
AV-unprocessed.smi

> <i_m_source_file_index>
199

> <i_lp_mmshare_version>
43012

> <i_f3d_flags>
0

> <s_epik_input>
W0NIMl0xW0NIMl1PW0NAQEhdKFtDSDNdKVtDQEBdMShbT0hdKVtDSDJdbihbY0hdbjIpYyhjMjMpbltjSF1uYzNOKFtDQEBIXTQ1KVtDQEhdKFtDSDJdW0NIMl00KVtDQEhdKFtDSDJdNSlbQ0gyXVtPSF0=

> <s_epik_cmdline>
J2VwaWtfcHl0aG9uJywgJy1waCcsICc3LjAnLCAnLXRuJywgJzgnLCAnLW1hJywgJzIwMCcsICctbWV0YWxfYmluZGluZycsICctaW1hZScsICc8aW5maWxlLm1hZT4nLCAnLW9tYWUnLCAnPG91dGZpbGUubWFlPic=

> <r_lp_tautomer_probability>
1

> <r_epik_Ionization_Penalty>
0.00583903

> <r_epik_Ionization_Penalty_Charging>
0

> <r_epik_Ionization_Penalty_Neutral>
0.00583903

> <r_epik_State_Penalty>
-0

> <r_epik_Charging_Adjusted_Penalty>
0

> <i_epik_Tot_Q>
0

> <i_epik_Tot_abs_Q>
0

> <r_epik_Metal_State_Penalty>
-0

> <b_epik_Metal_Only>
0

> <s_lp_Force_Field>
OPLS_2005

> <r_lp_Energy>
84.0593

> <b_lp_Chiralities_Consistent>
1

> <s_lp_Variant>
AV-unprocessed.smi:199-5

> <Gold.Version>
5.8.1

> <Gold.Id.Protein>
6NUR|6NUR_protein|mol2

> <Gold.PLP.Fitness>
43.2220

> <Gold.PLP.PLP>
-34.3753

> <Gold.PLP.part.hbond>
-5.4194

> <Gold.PLP.part.metal>
0.0000

> <Gold.PLP.part.buried>
-4.3622

> <Gold.PLP.part.nonpolar>
-23.5841

> <Gold.PLP.part.repulsive>
0.0000

> <Gold.PLP.ligand.clash>
0.0000

> <Gold.PLP.ligand.torsion>
1.0822

> <Gold.PLP.Chemscore.Hbond>
3.6661

> <Gold.PLP.Chemscore.CHOScore>
0.0000

> <Gold.PLP.Chemscore.Metal>
0.0000

> <Gold.Chemscore.Hbonds>
donor molecule, donor type, donor heavy atom, donor atom, acceptor molecule, acceptor atom, score
      L1  H    21    48       P1  7949  0.93
      P1  H  6931  6943       L1    11  1.00
      P1  H 10752 10765       L1    21  1.00

> <Gold.PLP.Chemscore.Internal.Correction>
0.0126

> <Gold.Rescore>
     Score         DG    S(hbond)    S(metal)    S(lipo)     H(rot)  DE(clash)    DE(int)     intcor
      9.21     -13.15       2.60        0.00      58.68       3.07       0.14       3.80       ----

> <Gold.Chemscore.Fitness>
9.2101

> <Gold.Chemscore.DG>
-13.1473

> <Gold.Chemscore.ZeroCoef>
-5.4800

> <Gold.Chemscore.Hbond>
2.5953

> <Gold.Chemscore.Metal>
0.0000

> <Gold.Chemscore.Lipo>
58.6816

> <Gold.Chemscore.Internal_Hbond>
0.0000

> <Gold.Chemscore.DEClash>
0.1363

> <Gold.Chemscore.DEInternal>
3.8009

> <Gold.Chemscore.Rot>
3.0729

> <Gold.Chemscore.Internal.Correction>
   9.000000E+99

> <Gold.Chemscore.Hbonds>
donor molecule, donor type, donor heavy atom, donor atom, acceptor molecule, acceptor atom, score
      L1  H    21    48       P1  7949  0.35
      P1  H  6931  6943       L1    11  0.99
      P1  H  6934  6947       L1    11  0.01
      P1  H 10752 10765       L1    21  0.78

> <Gold.Chemscore.Hbond.Weighted>
-8.6683

> <Gold.Chemscore.Metal.Weighted>
-0.0000

> <Gold.Chemscore.Lipo.Weighted>
-6.8657

> <Gold.Chemscore.Internal_Hbond.Weighted>
0.0000

> <Gold.Chemscore.DEClash.Weighted>
0.1363

> <Gold.Chemscore.DEInternal.Weighted>
3.8009

> <Gold.Chemscore.Rot.Weighted>
7.8667

> <Gold.Chemscore.Internal.Correction.Weighted>
   9.000000E+99

> <Gold.Protein.RotatedTorsions>
[ 6907 6896 6895 6894 ] final    7.10 input  -60.11 | X-H torsion
[ 7974 7965 7964 7962 ] final   10.93 input  175.53 | X-H torsion
[ 8008 7997 7996 7995 ] final   24.12 input   59.86 | X-H torsion
[ 10167 10162 10161 10158 ] final  -27.04 input  -65.29 | X-H torsion
[ 10718 10713 10712 10709 ] final   67.09 input   66.30 | X-H torsion
[ 10763 10752 10751 10750 ] final  169.98 input  -60.55 | X-H torsion
[ 11005 11000 10999 10996 ] final   86.92 input  -57.11 | X-H torsion

> <Gold.Protein.ActiveResidues>
 VAL166  LYS551  ARG553  GLY616  TRP617  ASP618  TYR619  PRO620  LYS621  CYS622 
 ASP623  PHE694  ASN695  SER759  ASP760  ASP761  ALA762  ILE779  LEU786  VAL792 
 PHE793  MET794  SER795  GLU796  ALA797  LYS798  CYS799  TRP800  GLU811  SER814 

> <Gold.Protein.RotatedAtoms>
  151.6845  135.0956  160.0221 H   0  0  0  0  0  0  0  0  0  0  0  0  # atno 6907 bound_to 6896
  152.3816  133.6549  159.6174 H   0  0  0  0  0  0  0  0  0  0  0  0  # atno 6908 bound_to 6896
  150.7751  133.9022  159.3386 H   0  0  0  0  0  0  0  0  0  0  0  0  # atno 6909 bound_to 6896
  146.2380  139.9561  142.8464 H   0  0  0  0  0  0  0  0  0  0  0  0  # atno 7974 bound_to 7965
  154.9913  140.3114  155.4905 H   0  0  0  0  0  0  0  0  0  0  0  0  # atno 8008 bound_to 7997
  156.2939  140.2248  156.4958 H   0  0  0  0  0  0  0  0  0  0  0  0  # atno 8009 bound_to 7997
  154.7700  140.0453  157.1032 H   0  0  0  0  0  0  0  0  0  0  0  0  # atno 8010 bound_to 7997
  140.7279  143.4127  151.1079 H   0  0  0  0  0  0  0  0  0  0  0  0  # atno 10167 bound_to 10162
  157.6209  130.9302  150.0196 H   0  0  0  0  0  0  0  0  0  0  0  0  # atno 10718 bound_to 10713
  154.3910  135.2754  155.2154 H   0  0  0  0  0  0  0  0  0  0  0  0  # atno 10763 bound_to 10752
  154.4220  135.5997  153.6019 H   0  0  0  0  0  0  0  0  0  0  0  0  # atno 10764 bound_to 10752
  152.9832  135.5975  154.4165 H   0  0  0  0  0  0  0  0  0  0  0  0  # atno 10765 bound_to 10752
  139.8932  134.8388  156.2788 H   0  0  0  0  0  0  0  0  0  0  0  0  # atno 11005 bound_to 11000
  145.1816  140.9769  143.4263 LP  0  0  0  0  0  0  0  0  0  0  0  0  # atno 17320 bound_to 7965
  144.9937  139.3664  143.6202 LP  0  0  0  0  0  0  0  0  0  0  0  0  # atno 17321 bound_to 7965
  139.7763  143.8421  152.3130 LP  0  0  0  0  0  0  0  0  0  0  0  0  # atno 17342 bound_to 10162
  139.8357  144.7233  150.9394 LP  0  0  0  0  0  0  0  0  0  0  0  0  # atno 17343 bound_to 10162
  156.1354  130.3643  149.9665 LP  0  0  0  0  0  0  0  0  0  0  0  0  # atno 17370 bound_to 10713
  156.7717  130.9188  151.3644 LP  0  0  0  0  0  0  0  0  0  0  0  0  # atno 17371 bound_to 10713
  141.0052  133.7128  156.1024 LP  0  0  0  0  0  0  0  0  0  0  0  0  # atno 17394 bound_to 11000
  140.7443  134.4115  157.5550 LP  0  0  0  0  0  0  0  0  0  0  0  0  # atno 17395 bound_to 11000

$$$$
