AV-unprocessed.smi:1554|AV-procd|sdf|6242|dock3
  -GOLD-   22720 6423D 1   1.00000     0.00000
 Structure written by MMmdl.
 47 49  0  0  0  0  0  0  0  0  1 V2000
  153.3962  142.6434  160.6764 C   0  0  0  0  0  0  0  0  0  0  0  0
  152.6181  142.3033  159.4172 C   0  0  0  0  0  0  0  0  0  0  0  0
  152.5348  140.9544  159.0041 C   0  0  0  0  0  0  0  0  0  0  0  0
  151.8247  140.5967  157.8371 C   0  0  0  0  0  0  0  0  0  0  0  0
  151.6180  139.3575  157.2554 N   0  0  0  0  0  0  0  0  0  0  0  0
  150.8878  139.6796  156.1915 C   0  0  0  0  0  0  0  0  0  0  0  0
  150.5959  140.9823  156.0151 N   0  0  0  0  0  0  0  0  0  0  0  0
  149.8259  141.5639  154.9300 C   0  0  0  0  0  0  0  0  0  0  0  0
  148.6414  140.6720  154.5046 C   0  0  2  0  0  0  0  0  0  0  0  0
  149.1038  139.6581  153.6344 O   0  0  0  0  0  0  0  0  0  0  0  0
  147.5410  141.4570  153.7633 C   0  0  0  0  0  0  0  0  0  0  0  0
  146.7568  142.3786  154.5863 N   0  0  0  0  0  0  0  0  0  0  0  0
  145.9046  141.6869  155.5513 C   0  0  0  0  0  0  0  0  0  0  0  0
  145.0617  142.6702  156.3813 C   0  0  0  0  0  0  0  0  0  0  0  0
  144.2892  143.4916  155.5122 O   0  0  0  0  0  0  0  0  0  0  0  0
  145.0872  144.2267  154.5890 C   0  0  2  0  0  0  0  0  0  0  0  0
  144.1560  145.0783  153.7199 C   0  0  0  0  0  0  0  0  0  0  0  0
  145.9241  143.2392  153.7526 C   0  0  0  0  0  0  0  0  0  0  0  0
  151.1953  141.6337  157.0881 C   0  0  0  0  0  0  0  0  0  0  0  0
  151.2691  142.9792  157.4903 C   0  0  0  0  0  0  0  0  0  0  0  0
  151.9819  143.3190  158.6592 C   0  0  0  0  0  0  0  0  0  0  0  0
  152.0560  144.7748  159.0845 C   0  0  0  0  0  0  0  0  0  0  0  0
  153.8525  141.7553  161.1150 H   0  0  0  0  0  0  0  0  0  0  0  0
  152.7377  143.0865  161.4239 H   0  0  0  0  0  0  0  0  0  0  0  0
  154.1940  143.3521  160.4529 H   0  0  0  0  0  0  0  0  0  0  0  0
  153.0194  140.1805  159.5811 H   0  0  0  0  0  0  0  0  0  0  0  0
  150.5470  138.9254  155.4971 H   0  0  0  0  0  0  0  0  0  0  0  0
  149.4655  142.5398  155.2578 H   0  0  0  0  0  0  0  0  0  0  0  0
  150.4917  141.7472  154.0857 H   0  0  0  0  0  0  0  0  0  0  0  0
  148.2272  140.1691  155.3781 H   0  0  0  0  0  0  0  0  0  0  0  0
  149.3543  140.0564  152.8150 H   0  0  0  0  0  0  0  0  0  0  0  0
  148.0174  142.0196  152.9589 H   0  0  0  0  0  0  0  0  0  0  0  0
  146.8659  140.7537  153.2725 H   0  0  0  0  0  0  0  0  0  0  0  0
  145.2417  140.9940  155.0306 H   0  0  0  0  0  0  0  0  0  0  0  0
  146.5087  141.0899  156.2334 H   0  0  0  0  0  0  0  0  0  0  0  0
  144.3911  142.1271  157.0471 H   0  0  0  0  0  0  0  0  0  0  0  0
  145.7009  143.2936  157.0083 H   0  0  0  0  0  0  0  0  0  0  0  0
  145.7520  144.8895  155.1455 H   0  0  0  0  0  0  0  0  0  0  0  0
  144.7228  145.6721  153.0023 H   0  0  0  0  0  0  0  0  0  0  0  0
  143.5721  145.7653  154.3325 H   0  0  0  0  0  0  0  0  0  0  0  0
  143.4576  144.4542  153.1615 H   0  0  0  0  0  0  0  0  0  0  0  0
  146.5530  143.7993  153.0593 H   0  0  0  0  0  0  0  0  0  0  0  0
  145.2582  142.6270  153.1419 H   0  0  0  0  0  0  0  0  0  0  0  0
  150.7834  143.7431  156.9019 H   0  0  0  0  0  0  0  0  0  0  0  0
  151.4996  145.4178  158.4020 H   0  0  0  0  0  0  0  0  0  0  0  0
  153.0911  145.1169  159.0976 H   0  0  0  0  0  0  0  0  0  0  0  0
  151.6357  144.9030  160.0822 H   0  0  0  0  0  0  0  0  0  0  0  0
  1  2  1  0  0  0  0
  1 23  1  0  0  0  0
  1 24  1  0  0  0  0
  1 25  1  0  0  0  0
  2 21  1  0  0  0  0
  2  3  2  0  0  0  0
  3  4  1  0  0  0  0
  3 26  1  0  0  0  0
  4 19  2  0  0  0  0
  4  5  1  0  0  0  0
  5  6  2  0  0  0  0
  6  7  1  0  0  0  0
  6 27  1  0  0  0  0
  7  8  1  0  0  0  0
  7 19  1  0  0  0  0
  8  9  1  0  0  0  0
  8 28  1  0  0  0  0
  8 29  1  0  0  0  0
  9 10  1  0  0  0  0
  9 11  1  0  0  0  0
  9 30  1  0  0  0  0
 10 31  1  0  0  0  0
 11 12  1  0  0  0  0
 11 32  1  0  0  0  0
 11 33  1  0  0  0  0
 12 18  1  0  0  0  0
 12 13  1  0  0  0  0
 13 14  1  0  0  0  0
 13 34  1  0  0  0  0
 13 35  1  0  0  0  0
 14 15  1  0  0  0  0
 14 36  1  0  0  0  0
 14 37  1  0  0  0  0
 15 16  1  0  0  0  0
 16 17  1  0  0  0  0
 16 18  1  0  0  0  0
 16 38  1  0  0  0  0
 17 39  1  0  0  0  0
 17 40  1  0  0  0  0
 17 41  1  0  0  0  0
 18 42  1  0  0  0  0
 18 43  1  0  0  0  0
 19 20  1  0  0  0  0
 20 21  2  0  0  0  0
 20 44  1  0  0  0  0
 21 22  1  0  0  0  0
 22 45  1  0  0  0  0
 22 46  1  0  0  0  0
 22 47  1  0  0  0  0
M  END
> <s_m_source_file>
AV-unprocessed.smi

> <i_m_source_file_index>
1554

> <i_lp_mmshare_version>
43012

> <i_f3d_flags>
0

> <s_epik_input>
W0NIM11jKFtjSF0xKWMoW0NIM10pW2NIXWMoYzEyKW4oW2NIXW4yKVtDSDJdW0NASF0oW09IXSlbQ0gyXU4zW0NIMl1bQ0gyXU9bQ0BASF0oW0NIM10pW0NIMl0z

> <s_epik_cmdline>
J2VwaWtfcHl0aG9uJywgJy1waCcsICc3LjAnLCAnLXRuJywgJzgnLCAnLW1hJywgJzIwMCcsICctbWV0YWxfYmluZGluZycsICctaW1hZScsICc8aW5maWxlLm1hZT4nLCAnLW9tYWUnLCAnPG91dGZpbGUubWFlPic=

> <r_epik_Ionization_Penalty>
0.345108

> <r_epik_Ionization_Penalty_Charging>
0

> <r_epik_Ionization_Penalty_Neutral>
0.345108

> <r_epik_State_Penalty>
0.314544

> <r_epik_Charging_Adjusted_Penalty>
0.314544

> <i_epik_Tot_Q>
0

> <i_epik_Tot_abs_Q>
0

> <r_epik_Metal_State_Penalty>
0.239719

> <b_epik_Metal_Only>
0

> <s_lp_Force_Field>
OPLS_2005

> <r_lp_Energy>
27.3157

> <b_lp_Chiralities_Consistent>
1

> <s_lp_Variant>
AV-unprocessed.smi:1554-3

> <Gold.Version>
5.8.1

> <Gold.Id.Protein>
6NUR|6NUR_protein|mol2

> <Gold.PLP.Fitness>
50.4115

> <Gold.PLP.PLP>
-48.6348

> <Gold.PLP.part.hbond>
-1.0000

> <Gold.PLP.part.metal>
0.0000

> <Gold.PLP.part.buried>
-7.4952

> <Gold.PLP.part.nonpolar>
-41.0121

> <Gold.PLP.part.repulsive>
0.2849

> <Gold.PLP.ligand.clash>
0.0000

> <Gold.PLP.ligand.torsion>
0.6382

> <Gold.PLP.Chemscore.Hbond>
1.0000

> <Gold.PLP.Chemscore.CHOScore>
0.0000

> <Gold.PLP.Chemscore.Metal>
0.0000

> <Gold.Chemscore.Hbonds>
donor molecule, donor type, donor heavy atom, donor atom, acceptor molecule, acceptor atom, score
      L1  H    10    31       P1  7957  1.00

> <Gold.PLP.Chemscore.Internal.Correction>
0.0532

> <Gold.Rescore>
     Score         DG    S(hbond)    S(metal)    S(lipo)     H(rot)  DE(clash)    DE(int)     intcor
     17.77     -18.75       0.97        0.00     129.21       1.98       0.31       0.67       ----

> <Gold.Chemscore.Fitness>
17.7722

> <Gold.Chemscore.DG>
-18.7544

> <Gold.Chemscore.ZeroCoef>
-5.4800

> <Gold.Chemscore.Hbond>
0.9693

> <Gold.Chemscore.Metal>
0.0000

> <Gold.Chemscore.Lipo>
129.2145

> <Gold.Chemscore.Internal_Hbond>
0.0000

> <Gold.Chemscore.DEClash>
0.3140

> <Gold.Chemscore.DEInternal>
0.6683

> <Gold.Chemscore.Rot>
1.9848

> <Gold.Chemscore.Internal.Correction>
   9.000000E+99

> <Gold.Chemscore.Hbonds>
donor molecule, donor type, donor heavy atom, donor atom, acceptor molecule, acceptor atom, score
      L1  H    10    31       P1  7957  0.97

> <Gold.Chemscore.Hbond.Weighted>
-3.2373

> <Gold.Chemscore.Metal.Weighted>
-0.0000

> <Gold.Chemscore.Lipo.Weighted>
-15.1181

> <Gold.Chemscore.Internal_Hbond.Weighted>
0.0000

> <Gold.Chemscore.DEClash.Weighted>
0.3140

> <Gold.Chemscore.DEInternal.Weighted>
0.6683

> <Gold.Chemscore.Rot.Weighted>
5.0810

> <Gold.Chemscore.Internal.Correction.Weighted>
   9.000000E+99

> <Gold.Protein.RotatedTorsions>
[ 6907 6896 6895 6894 ] final   95.10 input  -60.11 | X-H torsion
[ 7974 7965 7964 7962 ] final  120.86 input  175.53 | X-H torsion
[ 8008 7997 7996 7995 ] final  -64.13 input   59.86 | X-H torsion
[ 10167 10162 10161 10158 ] final -150.61 input  -65.29 | X-H torsion
[ 10718 10713 10712 10709 ] final -178.14 input   66.30 | X-H torsion
[ 10763 10752 10751 10750 ] final -131.42 input  -60.55 | X-H torsion
[ 11005 11000 10999 10996 ] final  161.63 input  -57.11 | X-H torsion

> <Gold.Protein.ActiveResidues>
 VAL166  LYS551  ARG553  GLY616  TRP617  ASP618  TYR619  PRO620  LYS621  CYS622 
 ASP623  PHE694  ASN695  SER759  ASP760  ASP761  ALA762  ILE779  LEU786  VAL792 
 PHE793  MET794  SER795  GLU796  ALA797  LYS798  CYS799  TRP800  GLU811  SER814 

> <Gold.Protein.RotatedAtoms>
  152.5446  134.1091  159.8350 H   0  0  0  0  0  0  0  0  0  0  0  0  # atno 6907 bound_to 6896
  151.1160  133.5131  159.2611 H   0  0  0  0  0  0  0  0  0  0  0  0  # atno 6908 bound_to 6896
  151.1831  135.0379  159.8855 H   0  0  0  0  0  0  0  0  0  0  0  0  # atno 6909 bound_to 6896
  145.1261  139.3357  143.4689 H   0  0  0  0  0  0  0  0  0  0  0  0  # atno 7974 bound_to 7965
  154.4594  140.0960  156.6850 H   0  0  0  0  0  0  0  0  0  0  0  0  # atno 8008 bound_to 7997
  155.5040  140.3474  155.4358 H   0  0  0  0  0  0  0  0  0  0  0  0  # atno 8009 bound_to 7997
  156.0841  140.1380  156.9664 H   0  0  0  0  0  0  0  0  0  0  0  0  # atno 8010 bound_to 7997
  139.7339  143.8765  152.2543 H   0  0  0  0  0  0  0  0  0  0  0  0  # atno 10167 bound_to 10162
  156.8399  130.9683  151.3100 H   0  0  0  0  0  0  0  0  0  0  0  0  # atno 10718 bound_to 10713
  154.8751  135.3831  154.4243 H   0  0  0  0  0  0  0  0  0  0  0  0  # atno 10763 bound_to 10752
  153.4943  135.7030  153.5872 H   0  0  0  0  0  0  0  0  0  0  0  0  # atno 10764 bound_to 10752
  153.4231  135.3896  155.2091 H   0  0  0  0  0  0  0  0  0  0  0  0  # atno 10765 bound_to 10752
  140.2177  134.8220  157.3187 H   0  0  0  0  0  0  0  0  0  0  0  0  # atno 11005 bound_to 11000
  146.3517  140.1241  142.8599 LP  0  0  0  0  0  0  0  0  0  0  0  0  # atno 17320 bound_to 7965
  145.0686  140.9139  143.4895 LP  0  0  0  0  0  0  0  0  0  0  0  0  # atno 17321 bound_to 7965
  139.8697  144.7075  150.9002 LP  0  0  0  0  0  0  0  0  0  0  0  0  # atno 17342 bound_to 10162
  140.7776  143.3749  151.1582 LP  0  0  0  0  0  0  0  0  0  0  0  0  # atno 17343 bound_to 10162
  157.6361  130.8768  149.9362 LP  0  0  0  0  0  0  0  0  0  0  0  0  # atno 17370 bound_to 10713
  156.0886  130.3665  150.0438 LP  0  0  0  0  0  0  0  0  0  0  0  0  # atno 17371 bound_to 10713
  140.1883  134.4403  155.7730 LP  0  0  0  0  0  0  0  0  0  0  0  0  # atno 17394 bound_to 11000
  141.2224  133.7015  156.7985 LP  0  0  0  0  0  0  0  0  0  0  0  0  # atno 17395 bound_to 11000

$$$$
