AV-unprocessed.smi:620|AV-procd|sdf|3087|dock5
  -GOLD-   22720 0 13D 1   1.00000     0.00000
 Structure written by MMmdl.
 33 35  0  0  0  0  0  0  0  0  1 V2000
  143.5124  143.8980  162.2281 C   0  0  0  0  0  0  0  0  0  0  0  0
  144.6628  143.6433  161.3151 C   0  0  0  0  0  0  0  0  0  0  0  0
  145.8255  143.1296  161.7368 N   0  0  0  0  0  0  0  0  0  0  0  0
  146.7417  142.9772  160.7045 N   0  0  0  0  0  0  0  0  0  0  0  0
  146.2449  143.3826  159.5325 C   0  0  0  0  0  0  0  0  0  0  0  0
  147.0710  143.2786  158.3857 N   0  0  0  0  0  0  0  0  0  0  0  0
  147.6058  142.1689  157.8514 C   0  0  0  0  0  0  0  0  0  0  0  0
  147.4370  141.0247  158.2722 O   0  0  0  0  0  0  0  0  0  0  0  0
  148.3593  142.4622  156.7816 N   0  0  0  0  0  0  0  0  0  0  0  0
  149.0934  141.4989  155.9674 C   0  0  0  0  0  0  0  0  0  0  0  0
  150.6003  141.6625  156.0881 C   0  0  0  0  0  0  0  0  0  0  0  0
  151.5419  140.5113  155.8228 C   0  0  0  0  0  0  0  0  0  0  0  0
  151.3711  141.0389  157.2285 C   0  0  0  0  0  0  0  0  0  0  0  0
  148.6703  141.5672  154.5113 C   0  0  0  0  0  0  0  0  0  0  0  0
  147.2345  141.8366  154.1293 C   0  0  0  0  0  0  0  0  0  0  0  0
  147.8416  140.4744  153.8781 C   0  0  0  0  0  0  0  0  0  0  0  0
  144.5911  143.9930  159.5929 S   0  0  0  0  0  0  0  0  0  0  0  0
  143.7690  143.6355  163.2552 H   0  0  0  0  0  0  0  0  0  0  0  0
  142.6545  143.3007  161.9196 H   0  0  0  0  0  0  0  0  0  0  0  0
  143.2359  144.9520  162.1952 H   0  0  0  0  0  0  0  0  0  0  0  0
  147.2848  144.1507  157.9248 H   0  0  0  0  0  0  0  0  0  0  0  0
  148.4354  143.4310  156.5086 H   0  0  0  0  0  0  0  0  0  0  0  0
  148.8420  140.4969  156.3218 H   0  0  0  0  0  0  0  0  0  0  0  0
  150.9553  142.6368  155.7562 H   0  0  0  0  0  0  0  0  0  0  0  0
  151.1109  139.5368  155.6027 H   0  0  0  0  0  0  0  0  0  0  0  0
  152.4752  140.7346  155.3102 H   0  0  0  0  0  0  0  0  0  0  0  0
  152.1889  141.6159  157.6551 H   0  0  0  0  0  0  0  0  0  0  0  0
  150.8264  140.4127  157.9321 H   0  0  0  0  0  0  0  0  0  0  0  0
  149.4201  142.0194  153.8645 H   0  0  0  0  0  0  0  0  0  0  0  0
  146.5040  141.9214  154.9316 H   0  0  0  0  0  0  0  0  0  0  0  0
  147.0558  142.4751  153.2665 H   0  0  0  0  0  0  0  0  0  0  0  0
  148.0685  140.2061  152.8483 H   0  0  0  0  0  0  0  0  0  0  0  0
  147.5054  139.6551  154.5103 H   0  0  0  0  0  0  0  0  0  0  0  0
  1  2  1  0  0  0  0
  1 18  1  0  0  0  0
  1 19  1  0  0  0  0
  1 20  1  0  0  0  0
  2 17  1  0  0  0  0
  2  3  2  0  0  0  0
  3  4  1  0  0  0  0
  4  5  2  0  0  0  0
  5  6  1  0  0  0  0
  5 17  1  0  0  0  0
  6  7  1  0  0  0  0
  6 21  1  0  0  0  0
  7  8  2  0  0  0  0
  7  9  1  0  0  0  0
  9 10  1  0  0  0  0
  9 22  1  0  0  0  0
 10 11  1  0  0  0  0
 10 14  1  0  0  0  0
 10 23  1  0  0  0  0
 11 13  1  0  0  0  0
 11 12  1  0  0  0  0
 11 24  1  0  0  0  0
 12 13  1  0  0  0  0
 12 25  1  0  0  0  0
 12 26  1  0  0  0  0
 13 27  1  0  0  0  0
 13 28  1  0  0  0  0
 14 16  1  0  0  0  0
 14 15  1  0  0  0  0
 14 29  1  0  0  0  0
 15 16  1  0  0  0  0
 15 30  1  0  0  0  0
 15 31  1  0  0  0  0
 16 32  1  0  0  0  0
 16 33  1  0  0  0  0
M  END
> <s_m_source_file>
AV-unprocessed.smi

> <i_m_source_file_index>
620

> <i_lp_mmshare_version>
43012

> <i_f3d_flags>
0

> <s_epik_input>
W0NIM11jMW5uYyhzMSlbTkhdQyg9TylbTkhdW0NIXShbQ0hdMltDSDJdW0NIMl0yKVtDSF0zW0NIMl1bQ0gyXTM=

> <s_epik_cmdline>
J2VwaWtfcHl0aG9uJywgJy1waCcsICc3LjAnLCAnLXRuJywgJzgnLCAnLW1hJywgJzIwMCcsICctbWV0YWxfYmluZGluZycsICctaW1hZScsICc8aW5maWxlLm1hZT4nLCAnLW9tYWUnLCAnPG91dGZpbGUubWFlPic=

> <r_lp_tautomer_probability>
1

> <r_epik_Ionization_Penalty>
0.000349386

> <r_epik_Ionization_Penalty_Charging>
0

> <r_epik_Ionization_Penalty_Neutral>
0.000349386

> <r_epik_State_Penalty>
-0

> <r_epik_Charging_Adjusted_Penalty>
0

> <i_epik_Tot_Q>
0

> <i_epik_Tot_abs_Q>
0

> <r_epik_Metal_State_Penalty>
0.178889

> <b_epik_Metal_Only>
0

> <s_lp_Force_Field>
OPLS_2005

> <r_lp_Energy>
21.1743

> <b_lp_Chiralities_Consistent>
1

> <s_lp_Variant>
AV-unprocessed.smi:620-1

> <Gold.Version>
5.8.1

> <Gold.Id.Protein>
6NUR|6NUR_protein|mol2

> <Gold.PLP.Fitness>
41.7306

> <Gold.PLP.PLP>
-32.2545

> <Gold.PLP.part.hbond>
-5.0000

> <Gold.PLP.part.metal>
0.0000

> <Gold.PLP.part.buried>
-2.6935

> <Gold.PLP.part.nonpolar>
-25.0677

> <Gold.PLP.part.repulsive>
0.1363

> <Gold.PLP.ligand.clash>
0.0000

> <Gold.PLP.ligand.torsion>
2.0356

> <Gold.PLP.Chemscore.Hbond>
3.8080

> <Gold.PLP.Chemscore.CHOScore>
0.0000

> <Gold.PLP.Chemscore.Metal>
0.0000

> <Gold.Chemscore.Hbonds>
donor molecule, donor type, donor heavy atom, donor atom, acceptor molecule, acceptor atom, score
      L1  H     6    21       P1  8029  0.90
      L1  H     9    22       P1  8028  1.00
      P1  H  6933  6944       L1     4  0.98
      P1  H  6934  6946       L1     4  0.67

> <Gold.PLP.Chemscore.Internal.Correction>
2.1232

> <Gold.Rescore>
     Score         DG    S(hbond)    S(metal)    S(lipo)     H(rot)  DE(clash)    DE(int)     intcor
     14.58     -16.54       2.25        0.00      61.89       1.44       0.00       1.96       ----

> <Gold.Chemscore.Fitness>
14.5802

> <Gold.Chemscore.DG>
-16.5388

> <Gold.Chemscore.ZeroCoef>
-5.4800

> <Gold.Chemscore.Hbond>
2.2468

> <Gold.Chemscore.Metal>
0.0000

> <Gold.Chemscore.Lipo>
61.8882

> <Gold.Chemscore.Internal_Hbond>
0.0000

> <Gold.Chemscore.DEClash>
0.0000

> <Gold.Chemscore.DEInternal>
1.9585

> <Gold.Chemscore.Rot>
1.4400

> <Gold.Chemscore.Internal.Correction>
   9.000000E+99

> <Gold.Chemscore.Hbonds>
donor molecule, donor type, donor heavy atom, donor atom, acceptor molecule, acceptor atom, score
      L1  H     6    21       P1  8029  0.17
      L1  H     9    22       P1  8028  0.44
      P1  H  6933  6944       L1     4  0.63
      P1  H  6934  6946       L1     4  0.11

> <Gold.Chemscore.Hbond.Weighted>
-7.5043

> <Gold.Chemscore.Metal.Weighted>
-0.0000

> <Gold.Chemscore.Lipo.Weighted>
-7.2409

> <Gold.Chemscore.Internal_Hbond.Weighted>
0.0000

> <Gold.Chemscore.DEClash.Weighted>
0.0000

> <Gold.Chemscore.DEInternal.Weighted>
1.9585

> <Gold.Chemscore.Rot.Weighted>
3.6864

> <Gold.Chemscore.Internal.Correction.Weighted>
   9.000000E+99

> <Gold.Protein.RotatedTorsions>
[ 6907 6896 6895 6894 ] final  -39.59 input  -60.11 | X-H torsion
[ 7974 7965 7964 7962 ] final -175.63 input  175.53 | X-H torsion
[ 8008 7997 7996 7995 ] final -167.22 input   59.86 | X-H torsion
[ 10167 10162 10161 10158 ] final -111.37 input  -65.29 | X-H torsion
[ 10718 10713 10712 10709 ] final   -6.53 input   66.30 | X-H torsion
[ 10763 10752 10751 10750 ] final -123.86 input  -60.55 | X-H torsion
[ 11005 11000 10999 10996 ] final  -12.91 input  -57.11 | X-H torsion

> <Gold.Protein.ActiveResidues>
 VAL166  LYS551  ARG553  GLY616  TRP617  ASP618  TYR619  PRO620  LYS621  CYS622 
 ASP623  PHE694  ASN695  SER759  ASP760  ASP761  ALA762  ILE779  LEU786  VAL792 
 PHE793  MET794  SER795  GLU796  ALA797  LYS798  CYS799  TRP800  GLU811  SER814 

> <Gold.Protein.RotatedAtoms>
  150.9886  134.9226  159.7885 H   0  0  0  0  0  0  0  0  0  0  0  0  # atno 6907 bound_to 6896
  152.5244  134.3313  159.9194 H   0  0  0  0  0  0  0  0  0  0  0  0  # atno 6908 bound_to 6896
  151.3319  133.3956  159.2698 H   0  0  0  0  0  0  0  0  0  0  0  0  # atno 6909 bound_to 6896
  144.7128  140.1292  143.6400 H   0  0  0  0  0  0  0  0  0  0  0  0  # atno 7974 bound_to 7965
  155.8747  140.0999  157.1526 H   0  0  0  0  0  0  0  0  0  0  0  0  # atno 8008 bound_to 7997
  154.4000  140.1340  156.4184 H   0  0  0  0  0  0  0  0  0  0  0  0  # atno 8009 bound_to 7997
  155.7711  140.3461  155.5250 H   0  0  0  0  0  0  0  0  0  0  0  0  # atno 8010 bound_to 7997
  140.1344  143.4333  152.1605 H   0  0  0  0  0  0  0  0  0  0  0  0  # atno 10167 bound_to 10162
  156.7305  130.5178  149.5846 H   0  0  0  0  0  0  0  0  0  0  0  0  # atno 10718 bound_to 10713
  154.8714  135.4083  154.3012 H   0  0  0  0  0  0  0  0  0  0  0  0  # atno 10763 bound_to 10752
  153.3872  135.7013  153.6527 H   0  0  0  0  0  0  0  0  0  0  0  0  # atno 10764 bound_to 10752
  153.5325  135.3664  155.2653 H   0  0  0  0  0  0  0  0  0  0  0  0  # atno 10765 bound_to 10752
  140.7706  133.8441  155.9204 H   0  0  0  0  0  0  0  0  0  0  0  0  # atno 11005 bound_to 11000
  145.9302  139.2601  143.1329 LP  0  0  0  0  0  0  0  0  0  0  0  0  # atno 17320 bound_to 7965
  145.9530  140.8894  143.0249 LP  0  0  0  0  0  0  0  0  0  0  0  0  # atno 17321 bound_to 7965
  139.5503  144.7332  151.4454 LP  0  0  0  0  0  0  0  0  0  0  0  0  # atno 17342 bound_to 10162
  140.6798  143.8108  150.7106 LP  0  0  0  0  0  0  0  0  0  0  0  0  # atno 17343 bound_to 10162
  156.1532  130.6324  151.0623 LP  0  0  0  0  0  0  0  0  0  0  0  0  # atno 17370 bound_to 10713
  157.6861  131.0824  150.7240 LP  0  0  0  0  0  0  0  0  0  0  0  0  # atno 17371 bound_to 10713
  140.9577  134.1696  157.4679 LP  0  0  0  0  0  0  0  0  0  0  0  0  # atno 17394 bound_to 11000
  139.8756  134.9933  156.5638 LP  0  0  0  0  0  0  0  0  0  0  0  0  # atno 17395 bound_to 11000

$$$$
