AV-unprocessed.smi:311|AV-procd|sdf|2300|dock5
  -GOLD-   2262022203D 1   1.00000     0.00000
 Structure written by MMmdl.
 44 46  0  0  0  0  0  0  0  0  2 V2000
  151.1908  142.2767  157.6462 C   0  0  0  0  0  0  0  0  0  0  0  0
  151.2067  141.0573  156.7694 C   0  0  0  0  0  0  0  0  0  0  0  0
  152.2271  140.2186  156.8325 N   0  0  0  0  0  0  0  0  0  0  0  0
  151.9503  139.2076  155.9071 O   0  0  0  0  0  0  0  0  0  0  0  0
  150.7585  139.4792  155.3179 C   0  0  0  0  0  0  0  0  0  0  0  0
  150.2892  138.5125  154.2835 C   0  0  0  0  0  0  0  0  0  0  0  0
  150.2323  140.6388  155.8184 C   0  0  0  0  0  0  0  0  0  0  0  0
  148.9387  141.3237  155.4571 C   0  0  0  0  0  0  0  0  0  0  0  0
  148.0132  141.3693  156.6731 C   0  0  0  0  0  0  0  0  0  0  0  0
  147.7190  140.3304  157.2631 O   0  0  0  0  0  0  0  0  0  0  0  0
  147.5521  142.5787  157.0305 N   0  0  0  0  0  0  0  0  0  0  0  0
  146.6778  142.8502  158.1691 C   0  0  1  0  0  0  0  0  0  0  0  0
  147.3837  143.6338  159.2922 C   0  0  0  0  0  0  0  0  0  0  0  0
  146.3398  144.6479  159.7717 C   0  0  0  0  0  0  0  0  0  0  0  0
  145.5969  144.9581  158.5449 N   0  3  2  0  0  0  0  0  0  0  0  0
  144.3407  145.7273  158.6545 C   0  0  0  0  0  0  0  0  0  0  0  0
  143.8548  146.0747  157.2303 C   0  0  0  0  0  0  0  0  0  0  0  0
  143.7673  144.8291  156.3191 C   0  0  0  0  0  0  0  0  0  0  0  0
  145.0710  144.0019  156.3506 C   0  0  0  0  0  0  0  0  0  0  0  0
  145.4279  143.6898  157.8147 C   0  0  1  0  0  0  0  0  0  0  0  0
  150.9321  143.1665  157.0719 H   0  0  0  0  0  0  0  0  0  0  0  0
  152.1623  142.4543  158.1093 H   0  0  0  0  0  0  0  0  0  0  0  0
  150.4564  142.1720  158.4449 H   0  0  0  0  0  0  0  0  0  0  0  0
  149.2011  138.4486  154.2745 H   0  0  0  0  0  0  0  0  0  0  0  0
  150.6824  137.5137  154.4746 H   0  0  0  0  0  0  0  0  0  0  0  0
  150.6178  138.8221  153.2914 H   0  0  0  0  0  0  0  0  0  0  0  0
  149.1076  142.3422  155.1059 H   0  0  0  0  0  0  0  0  0  0  0  0
  148.4328  140.8045  154.6419 H   0  0  0  0  0  0  0  0  0  0  0  0
  147.8506  143.3736  156.4838 H   0  0  0  0  0  0  0  0  0  0  0  0
  146.3417  141.9002  158.5899 H   0  0  0  0  0  0  0  0  0  0  0  0
  147.7371  142.9882  160.0968 H   0  0  0  0  0  0  0  0  0  0  0  0
  148.2487  144.1685  158.8963 H   0  0  0  0  0  0  0  0  0  0  0  0
  145.6702  144.1934  160.5038 H   0  0  0  0  0  0  0  0  0  0  0  0
  146.7881  145.5376  160.2153 H   0  0  0  0  0  0  0  0  0  0  0  0
  143.5893  145.1477  159.1929 H   0  0  0  0  0  0  0  0  0  0  0  0
  144.5167  146.6402  159.2248 H   0  0  0  0  0  0  0  0  0  0  0  0
  142.8857  146.5726  157.2767 H   0  0  0  0  0  0  0  0  0  0  0  0
  144.5451  146.7915  156.7839 H   0  0  0  0  0  0  0  0  0  0  0  0
  142.9370  144.2029  156.6480 H   0  0  0  0  0  0  0  0  0  0  0  0
  143.5381  145.1289  155.2960 H   0  0  0  0  0  0  0  0  0  0  0  0
  144.9362  143.0807  155.7830 H   0  0  0  0  0  0  0  0  0  0  0  0
  145.8785  144.5571  155.8713 H   0  0  0  0  0  0  0  0  0  0  0  0
  144.5773  143.1683  158.2595 H   0  0  0  0  0  0  0  0  0  0  0  0
  146.2257  145.5178  157.9867 H   0  0  0  0  0  0  0  0  0  0  0  0
  1  2  1  0  0  0  0
  1 21  1  0  0  0  0
  1 22  1  0  0  0  0
  1 23  1  0  0  0  0
  2  7  1  0  0  0  0
  2  3  2  0  0  0  0
  3  4  1  0  0  0  0
  4  5  1  0  0  0  0
  5  6  1  0  0  0  0
  5  7  2  0  0  0  0
  6 24  1  0  0  0  0
  6 25  1  0  0  0  0
  6 26  1  0  0  0  0
  7  8  1  0  0  0  0
  8  9  1  0  0  0  0
  8 27  1  0  0  0  0
  8 28  1  0  0  0  0
  9 10  2  0  0  0  0
  9 11  1  0  0  0  0
 11 12  1  0  0  0  0
 11 29  1  0  0  0  0
 12 20  1  0  0  0  0
 12 13  1  0  0  0  0
 12 30  1  0  0  0  0
 13 14  1  0  0  0  0
 13 31  1  0  0  0  0
 13 32  1  0  0  0  0
 14 15  1  0  0  0  0
 14 33  1  0  0  0  0
 14 34  1  0  0  0  0
 15 20  1  0  0  0  0
 15 16  1  0  0  0  0
 15 44  1  0  0  0  0
 16 17  1  0  0  0  0
 16 35  1  0  0  0  0
 16 36  1  0  0  0  0
 17 18  1  0  0  0  0
 17 37  1  0  0  0  0
 17 38  1  0  0  0  0
 18 19  1  0  0  0  0
 18 39  1  0  0  0  0
 18 40  1  0  0  0  0
 19 20  1  0  0  0  0
 19 41  1  0  0  0  0
 19 42  1  0  0  0  0
 20 43  1  0  0  0  0
M  CHG  1  15   1
M  END
> <s_m_source_file>
AV-unprocessed.smi

> <i_m_source_file_index>
311

> <i_lp_mmshare_version>
43012

> <i_f3d_flags>
0

> <s_epik_input>
W0NIM11jMW5vYyhbQ0gzXSljMVtDSDJdQyg9TylbTkhdW0NASF0oW0NIMl1bQ0gyXTIpW0NAQEhdKE4yMylbQ0gyXVtDSDJdW0NIMl1bQ0gyXTM=

> <s_epik_cmdline>
J2VwaWtfcHl0aG9uJywgJy1waCcsICc3LjAnLCAnLXRuJywgJzgnLCAnLW1hJywgJzIwMCcsICctbWV0YWxfYmluZGluZycsICctaW1hZScsICc8aW5maWxlLm1hZT4nLCAnLW9tYWUnLCAnPG91dGZpbGUubWFlPic=

> <r_epik_Ionization_Penalty>
0.00173669

> <r_epik_Ionization_Penalty_Charging>
0.0017366

> <r_epik_Ionization_Penalty_Neutral>
9.2145e-08

> <r_epik_State_Penalty>
0.00117499

> <r_epik_Charging_Adjusted_Penalty>
0.00291159

> <i_epik_Tot_Q>
1

> <i_epik_Tot_abs_Q>
1

> <r_epik_Metal_State_Penalty>
-0

> <b_epik_Metal_Only>
0

> <s_lp_Force_Field>
OPLS_2005

> <r_lp_Energy>
35.4626

> <b_lp_Chiralities_Consistent>
1

> <s_lp_Variant>
AV-unprocessed.smi:311-4

> <Gold.Version>
5.8.1

> <Gold.Id.Protein>
6NUR|6NUR_protein|mol2

> <Gold.PLP.Fitness>
38.2744

> <Gold.PLP.PLP>
-27.4043

> <Gold.PLP.part.hbond>
-3.0000

> <Gold.PLP.part.metal>
0.0000

> <Gold.PLP.part.buried>
-2.1982

> <Gold.PLP.part.nonpolar>
-21.3954

> <Gold.PLP.part.repulsive>
0.0226

> <Gold.PLP.ligand.clash>
0.0000

> <Gold.PLP.ligand.torsion>
0.1152

> <Gold.PLP.Chemscore.Hbond>
3.7000

> <Gold.PLP.Chemscore.CHOScore>
0.0000

> <Gold.PLP.Chemscore.Metal>
0.0000

> <Gold.Chemscore.Hbonds>
donor molecule, donor type, donor heavy atom, donor atom, acceptor molecule, acceptor atom, score
      L1  H    11    29       P1  8028  0.60
      L1  H    15    44       P1  8029  2.00
      P1  H  7997  8009       L1     3  0.35

> <Gold.PLP.Chemscore.Internal.Correction>
0.0006

> <Gold.Rescore>
     Score         DG    S(hbond)    S(metal)    S(lipo)     H(rot)  DE(clash)    DE(int)     intcor
     16.30     -16.51       2.13        0.00      63.17       1.36       0.13       0.07       ----

> <Gold.Chemscore.Fitness>
16.3042

> <Gold.Chemscore.DG>
-16.5085

> <Gold.Chemscore.ZeroCoef>
-5.4800

> <Gold.Chemscore.Hbond>
2.1288

> <Gold.Chemscore.Metal>
0.0000

> <Gold.Chemscore.Lipo>
63.1743

> <Gold.Chemscore.Internal_Hbond>
0.0000

> <Gold.Chemscore.DEClash>
0.1349

> <Gold.Chemscore.DEInternal>
0.0695

> <Gold.Chemscore.Rot>
1.3567

> <Gold.Chemscore.Internal.Correction>
   9.000000E+99

> <Gold.Chemscore.Hbonds>
donor molecule, donor type, donor heavy atom, donor atom, acceptor molecule, acceptor atom, score
      L1  H    11    29       P1  8028  0.04
      L1  H    15    44       P1  8029  0.93
      P1  H  7997  8009       L1     3  0.02

> <Gold.Chemscore.Hbond.Weighted>
-7.1102

> <Gold.Chemscore.Metal.Weighted>
-0.0000

> <Gold.Chemscore.Lipo.Weighted>
-7.3914

> <Gold.Chemscore.Internal_Hbond.Weighted>
0.0000

> <Gold.Chemscore.DEClash.Weighted>
0.1349

> <Gold.Chemscore.DEInternal.Weighted>
0.0695

> <Gold.Chemscore.Rot.Weighted>
3.4731

> <Gold.Chemscore.Internal.Correction.Weighted>
   9.000000E+99

> <Gold.Protein.RotatedTorsions>
[ 6907 6896 6895 6894 ] final   -9.51 input  -60.11 | X-H torsion
[ 7974 7965 7964 7962 ] final   54.79 input  175.53 | X-H torsion
[ 8008 7997 7996 7995 ] final -160.03 input   59.86 | X-H torsion
[ 10167 10162 10161 10158 ] final  173.48 input  -65.29 | X-H torsion
[ 10718 10713 10712 10709 ] final    3.07 input   66.30 | X-H torsion
[ 10763 10752 10751 10750 ] final  117.99 input  -60.55 | X-H torsion
[ 11005 11000 10999 10996 ] final  139.27 input  -57.11 | X-H torsion

> <Gold.Protein.ActiveResidues>
 VAL166  LYS551  ARG553  GLY616  TRP617  ASP618  TYR619  PRO620  LYS621  CYS622 
 ASP623  PHE694  ASN695  SER759  ASP760  ASP761  ALA762  ILE779  LEU786  VAL792 
 PHE793  MET794  SER795  GLU796  ALA797  LYS798  CYS799  TRP800  GLU811  SER814 

> <Gold.Protein.RotatedAtoms>
  151.4167  135.0992  159.9601 H   0  0  0  0  0  0  0  0  0  0  0  0  # atno 6907 bound_to 6896
  152.5002  133.8746  159.7326 H   0  0  0  0  0  0  0  0  0  0  0  0  # atno 6908 bound_to 6896
  150.9253  133.6774  159.2851 H   0  0  0  0  0  0  0  0  0  0  0  0  # atno 6909 bound_to 6896
  145.9572  139.4025  143.0270 H   0  0  0  0  0  0  0  0  0  0  0  0  # atno 7974 bound_to 7965
  155.7714  140.0852  157.2106 H   0  0  0  0  0  0  0  0  0  0  0  0  # atno 8008 bound_to 7997
  154.3996  140.1524  156.3004 H   0  0  0  0  0  0  0  0  0  0  0  0  # atno 8009 bound_to 7997
  155.8743  140.3424  155.5846 H   0  0  0  0  0  0  0  0  0  0  0  0  # atno 8010 bound_to 7997
  139.5110  144.3256  152.0161 H   0  0  0  0  0  0  0  0  0  0  0  0  # atno 10167 bound_to 10162
  156.8724  130.5624  149.5657 H   0  0  0  0  0  0  0  0  0  0  0  0  # atno 10718 bound_to 10713
  153.5607  135.3521  155.2798 H   0  0  0  0  0  0  0  0  0  0  0  0  # atno 10763 bound_to 10752
  154.8695  135.4136  154.2834 H   0  0  0  0  0  0  0  0  0  0  0  0  # atno 10764 bound_to 10752
  153.3579  135.7058  153.6805 H   0  0  0  0  0  0  0  0  0  0  0  0  # atno 10765 bound_to 10752
  140.0243  134.9382  157.0537 H   0  0  0  0  0  0  0  0  0  0  0  0  # atno 11005 bound_to 11000
  145.8090  140.9735  143.0959 LP  0  0  0  0  0  0  0  0  0  0  0  0  # atno 17320 bound_to 7965
  144.6807  139.9897  143.7484 LP  0  0  0  0  0  0  0  0  0  0  0  0  # atno 17321 bound_to 7965
  140.2697  144.3978  150.6156 LP  0  0  0  0  0  0  0  0  0  0  0  0  # atno 17342 bound_to 10162
  140.6097  143.2169  151.6910 LP  0  0  0  0  0  0  0  0  0  0  0  0  # atno 17343 bound_to 10162
  156.0720  130.5750  150.9401 LP  0  0  0  0  0  0  0  0  0  0  0  0  # atno 17370 bound_to 10713
  157.6188  131.0931  150.8661 LP  0  0  0  0  0  0  0  0  0  0  0  0  # atno 17371 bound_to 10713
  140.4333  134.1757  155.7169 LP  0  0  0  0  0  0  0  0  0  0  0  0  # atno 17394 bound_to 11000
  141.1793  133.8448  157.1314 LP  0  0  0  0  0  0  0  0  0  0  0  0  # atno 17395 bound_to 11000

$$$$
