AV-unprocessed.smi:1394|AV-procd|sdf|5666|dock6
  -GOLD-   22720 5293D 1   1.00000     0.00000
 Structure written by MMmdl.
 41 42  0  0  0  0  0  0  0  0  1 V2000
  148.1547  140.1570  153.6683 C   0  0  0  0  0  0  0  0  0  0  0  0
  149.4865  140.4224  154.3908 C   0  0  1  0  0  0  0  0  0  0  0  0
  149.2588  140.9898  155.8071 C   0  0  0  0  0  0  0  0  0  0  0  0
  150.5881  141.3195  156.5045 C   0  0  0  0  0  0  0  0  0  0  0  0
  151.5123  140.0938  156.5524 C   0  0  0  0  0  0  0  0  0  0  0  0
  151.7467  139.5171  155.1455 C   0  0  0  0  0  0  0  0  0  0  0  0
  150.4259  139.1885  154.4199 C   0  0  1  0  0  0  0  0  0  0  0  0
  149.7922  138.0277  155.0494 N   0  0  0  0  0  0  0  0  0  0  0  0
  150.3564  136.8256  155.2433 C   0  0  0  0  0  0  0  0  0  0  0  0
  151.4989  136.5464  154.8765 O   0  0  0  0  0  0  0  0  0  0  0  0
  149.4747  135.7818  155.9446 C   0  0  0  0  0  0  0  0  0  0  0  0
  149.6452  134.4172  155.4156 N   0  0  0  0  0  0  0  0  0  0  0  0
  149.1729  134.1772  154.1129 C   0  0  0  0  0  0  0  0  0  0  0  0
  149.2851  132.9751  153.5319 C   0  0  0  0  0  0  0  0  0  0  0  0
  149.9141  131.9131  154.2781 C   0  0  0  0  0  0  0  0  0  0  0  0
  150.3800  132.1139  155.5326 C   0  0  0  0  0  0  0  0  0  0  0  0
  151.0580  131.0036  156.3321 C   0  0  0  0  0  0  0  0  0  0  0  0
  152.2877  131.3699  156.6960 F   0  0  0  0  0  0  0  0  0  0  0  0
  150.3611  130.7291  157.4355 F   0  0  0  0  0  0  0  0  0  0  0  0
  151.1619  129.8773  155.6247 F   0  0  0  0  0  0  0  0  0  0  0  0
  150.2459  133.4419  156.1659 C   0  0  0  0  0  0  0  0  0  0  0  0
  150.6500  133.6724  157.3070 O   0  0  0  0  0  0  0  0  0  0  0  0
  147.5340  139.4451  154.2128 H   0  0  0  0  0  0  0  0  0  0  0  0
  148.3241  139.7571  152.6683 H   0  0  0  0  0  0  0  0  0  0  0  0
  147.5801  141.0773  153.5611 H   0  0  0  0  0  0  0  0  0  0  0  0
  149.9996  141.1953  153.8164 H   0  0  0  0  0  0  0  0  0  0  0  0
  148.6458  141.8901  155.7521 H   0  0  0  0  0  0  0  0  0  0  0  0
  148.6979  140.2740  156.4094 H   0  0  0  0  0  0  0  0  0  0  0  0
  151.0866  142.1320  155.9743 H   0  0  0  0  0  0  0  0  0  0  0  0
  150.3980  141.6815  157.5153 H   0  0  0  0  0  0  0  0  0  0  0  0
  152.4664  140.3664  157.0040 H   0  0  0  0  0  0  0  0  0  0  0  0
  151.0751  139.3306  157.1975 H   0  0  0  0  0  0  0  0  0  0  0  0
  152.3075  140.2421  154.5543 H   0  0  0  0  0  0  0  0  0  0  0  0
  152.3753  138.6277  155.2067 H   0  0  0  0  0  0  0  0  0  0  0  0
  150.6839  138.9367  153.3897 H   0  0  0  0  0  0  0  0  0  0  0  0
  148.8454  138.1575  155.3753 H   0  0  0  0  0  0  0  0  0  0  0  0
  149.6837  135.7987  157.0159 H   0  0  0  0  0  0  0  0  0  0  0  0
  148.4353  136.1007  155.8542 H   0  0  0  0  0  0  0  0  0  0  0  0
  148.7233  135.0269  153.6199 H   0  0  0  0  0  0  0  0  0  0  0  0
  148.9191  132.8076  152.5294 H   0  0  0  0  0  0  0  0  0  0  0  0
  150.0110  130.9453  153.8094 H   0  0  0  0  0  0  0  0  0  0  0  0
  1  2  1  0  0  0  0
  1 23  1  0  0  0  0
  1 24  1  0  0  0  0
  1 25  1  0  0  0  0
  2  7  1  0  0  0  0
  2  3  1  0  0  0  0
  2 26  1  0  0  0  0
  3  4  1  0  0  0  0
  3 27  1  0  0  0  0
  3 28  1  0  0  0  0
  4  5  1  0  0  0  0
  4 29  1  0  0  0  0
  4 30  1  0  0  0  0
  5  6  1  0  0  0  0
  5 31  1  0  0  0  0
  5 32  1  0  0  0  0
  6  7  1  0  0  0  0
  6 33  1  0  0  0  0
  6 34  1  0  0  0  0
  7  8  1  0  0  0  0
  7 35  1  0  0  0  0
  8  9  1  0  0  0  0
  8 36  1  0  0  0  0
  9 10  2  0  0  0  0
  9 11  1  0  0  0  0
 11 12  1  0  0  0  0
 11 37  1  0  0  0  0
 11 38  1  0  0  0  0
 12 21  1  0  0  0  0
 12 13  1  0  0  0  0
 13 14  2  0  0  0  0
 13 39  1  0  0  0  0
 14 15  1  0  0  0  0
 14 40  1  0  0  0  0
 15 16  2  0  0  0  0
 15 41  1  0  0  0  0
 16 17  1  0  0  0  0
 16 21  1  0  0  0  0
 17 18  1  0  0  0  0
 17 19  1  0  0  0  0
 17 20  1  0  0  0  0
 21 22  2  0  0  0  0
M  END
> <s_m_source_file>
AV-unprocessed.smi

> <i_m_source_file_index>
1394

> <i_lp_mmshare_version>
43012

> <i_f3d_flags>
0

> <s_epik_input>
W0NIM11bQ0BASF0xW0NIMl1bQ0gyXVtDSDJdW0NIMl1bQ0BIXTFbTkhdQyg9TylbQ0gyXW4yW2NIXVtjSF1bY0hdYyhDKEYpKEYpRiljMj1P

> <s_epik_cmdline>
J2VwaWtfcHl0aG9uJywgJy1waCcsICc3LjAnLCAnLXRuJywgJzgnLCAnLW1hJywgJzIwMCcsICctbWV0YWxfYmluZGluZycsICctaW1hZScsICc8aW5maWxlLm1hZT4nLCAnLW9tYWUnLCAnPG91dGZpbGUubWFlPic=

> <r_lp_tautomer_probability>
1

> <r_epik_Ionization_Penalty>
2.11487e-08

> <r_epik_Ionization_Penalty_Charging>
2.10183e-09

> <r_epik_Ionization_Penalty_Neutral>
1.90469e-08

> <r_epik_State_Penalty>
-0

> <r_epik_Charging_Adjusted_Penalty>
2.10183e-09

> <i_epik_Tot_Q>
0

> <i_epik_Tot_abs_Q>
0

> <r_epik_Metal_State_Penalty>
-0

> <b_epik_Metal_Only>
0

> <s_lp_Force_Field>
OPLS_2005

> <r_lp_Energy>
19.806

> <b_lp_Chiralities_Consistent>
1

> <s_lp_Variant>
AV-unprocessed.smi:1394-2

> <Gold.Version>
5.8.1

> <Gold.Id.Protein>
6NUR|6NUR_protein|mol2

> <Gold.PLP.Fitness>
45.7303

> <Gold.PLP.PLP>
-38.4399

> <Gold.PLP.part.hbond>
-2.0000

> <Gold.PLP.part.metal>
0.0000

> <Gold.PLP.part.buried>
-0.6751

> <Gold.PLP.part.nonpolar>
-36.2618

> <Gold.PLP.part.repulsive>
0.1646

> <Gold.PLP.ligand.clash>
0.3174

> <Gold.PLP.ligand.torsion>
0.4330

> <Gold.PLP.Chemscore.Hbond>
1.7680

> <Gold.PLP.Chemscore.CHOScore>
0.9393

> <Gold.PLP.Chemscore.Metal>
0.0000

> <Gold.Chemscore.Hbonds>
donor molecule, donor type, donor heavy atom, donor atom, acceptor molecule, acceptor atom, score
      P1  H  6896  6907       L1    22  0.77
      P1  H 10752 10764       L1    10  1.00
      L1  C    13    39       P1  7948  1.00

> <Gold.PLP.Chemscore.Internal.Correction>
0.3518

> <Gold.Rescore>
     Score         DG    S(hbond)    S(metal)    S(lipo)     H(rot)  DE(clash)    DE(int)     intcor
     14.82     -16.99       1.90        0.00      77.47       1.52       0.03       2.14       ----

> <Gold.Chemscore.Fitness>
14.8222

> <Gold.Chemscore.DG>
-16.9898

> <Gold.Chemscore.ZeroCoef>
-5.4800

> <Gold.Chemscore.Hbond>
1.9005

> <Gold.Chemscore.Metal>
0.0000

> <Gold.Chemscore.Lipo>
77.4708

> <Gold.Chemscore.Internal_Hbond>
0.0000

> <Gold.Chemscore.DEClash>
0.0297

> <Gold.Chemscore.DEInternal>
2.1379

> <Gold.Chemscore.Rot>
1.5242

> <Gold.Chemscore.Internal.Correction>
   9.000000E+99

> <Gold.Chemscore.Hbonds>
donor molecule, donor type, donor heavy atom, donor atom, acceptor molecule, acceptor atom, score
      P1  H  6896  6907       L1    22  0.75
      P1  H 10752 10764       L1    10  1.00

> <Gold.Chemscore.Hbond.Weighted>
-6.3476

> <Gold.Chemscore.Metal.Weighted>
-0.0000

> <Gold.Chemscore.Lipo.Weighted>
-9.0641

> <Gold.Chemscore.Internal_Hbond.Weighted>
0.0000

> <Gold.Chemscore.DEClash.Weighted>
0.0297

> <Gold.Chemscore.DEInternal.Weighted>
2.1379

> <Gold.Chemscore.Rot.Weighted>
3.9019

> <Gold.Chemscore.Internal.Correction.Weighted>
   9.000000E+99

> <Gold.Protein.RotatedTorsions>
[ 6907 6896 6895 6894 ] final -139.92 input  -60.11 | X-H torsion
[ 7974 7965 7964 7962 ] final  -73.58 input  175.53 | X-H torsion
[ 8008 7997 7996 7995 ] final  165.25 input   59.86 | X-H torsion
[ 10167 10162 10161 10158 ] final  -92.76 input  -65.29 | X-H torsion
[ 10718 10713 10712 10709 ] final  -82.90 input   66.30 | X-H torsion
[ 10763 10752 10751 10750 ] final  -67.57 input  -60.55 | X-H torsion
[ 11005 11000 10999 10996 ] final  -94.80 input  -57.11 | X-H torsion

> <Gold.Protein.ActiveResidues>
 VAL166  LYS551  ARG553  GLY616  TRP617  ASP618  TYR619  PRO620  LYS621  CYS622 
 ASP623  PHE694  ASN695  SER759  ASP760  ASP761  ALA762  ILE779  LEU786  VAL792 
 PHE793  MET794  SER795  GLU796  ALA797  LYS798  CYS799  TRP800  GLU811  SER814 

> <Gold.Protein.RotatedAtoms>
  151.0540  133.5600  159.2639 H   0  0  0  0  0  0  0  0  0  0  0  0  # atno 6907 bound_to 6896
  151.2600  135.0650  159.9104 H   0  0  0  0  0  0  0  0  0  0  0  0  # atno 6908 bound_to 6896
  152.5387  134.0287  159.8069 H   0  0  0  0  0  0  0  0  0  0  0  0  # atno 6909 bound_to 6896
  145.6503  140.9284  143.0988 H   0  0  0  0  0  0  0  0  0  0  0  0  # atno 7974 bound_to 7965
  156.1815  140.1675  156.8264 H   0  0  0  0  0  0  0  0  0  0  0  0  # atno 8008 bound_to 7997
  154.5366  140.0745  156.8471 H   0  0  0  0  0  0  0  0  0  0  0  0  # atno 8009 bound_to 7997
  155.3299  140.3378  155.4242 H   0  0  0  0  0  0  0  0  0  0  0  0  # atno 8010 bound_to 7997
  140.3315  143.2992  151.9937 H   0  0  0  0  0  0  0  0  0  0  0  0  # atno 10167 bound_to 10162
  156.0026  130.4649  150.4175 H   0  0  0  0  0  0  0  0  0  0  0  0  # atno 10718 bound_to 10713
  154.3764  135.6084  153.5767 H   0  0  0  0  0  0  0  0  0  0  0  0  # atno 10763 bound_to 10752
  152.9789  135.5850  154.4461 H   0  0  0  0  0  0  0  0  0  0  0  0  # atno 10764 bound_to 10752
  154.4223  135.2846  155.1945 H   0  0  0  0  0  0  0  0  0  0  0  0  # atno 10765 bound_to 10752
  141.1460  133.7981  157.0348 H   0  0  0  0  0  0  0  0  0  0  0  0  # atno 11005 bound_to 11000
  144.7125  139.8317  143.7410 LP  0  0  0  0  0  0  0  0  0  0  0  0  # atno 17320 bound_to 7965
  146.1209  139.4227  143.0229 LP  0  0  0  0  0  0  0  0  0  0  0  0  # atno 17321 bound_to 7965
  139.4856  144.6231  151.7217 LP  0  0  0  0  0  0  0  0  0  0  0  0  # atno 17342 bound_to 10162
  140.5393  144.0605  150.6082 LP  0  0  0  0  0  0  0  0  0  0  0  0  # atno 17343 bound_to 10162
  157.2234  131.0487  151.2534 LP  0  0  0  0  0  0  0  0  0  0  0  0  # atno 17370 bound_to 10713
  157.3779  130.7216  149.6610 LP  0  0  0  0  0  0  0  0  0  0  0  0  # atno 17371 bound_to 10713
  140.0730  134.9691  157.1500 LP  0  0  0  0  0  0  0  0  0  0  0  0  # atno 17394 bound_to 11000
  140.3683  134.2418  155.7180 LP  0  0  0  0  0  0  0  0  0  0  0  0  # atno 17395 bound_to 11000

$$$$
