AV-unprocessed.smi:384|AV-procd|sdf|2469|dock4
  -GOLD-   2262022413D 1   1.00000     0.00000
 Structure written by MMmdl.
 33 34  0  0  0  0  0  0  0  0  3 V2000
  144.6678  135.3566  151.5552 C   0  0  0  0  0  0  0  0  0  0  0  0
  145.6791  134.2075  151.4929 C   0  0  1  0  0  0  0  0  0  0  0  0
  146.7004  134.2722  152.6441 C   0  0  0  0  0  0  0  0  0  0  0  0
  147.5781  133.1106  152.5993 N   0  0  0  0  0  0  0  0  0  0  0  0
  148.5953  133.1562  153.5611 C   0  0  0  0  0  0  0  0  0  0  0  0
  148.9179  132.0700  154.4068 C   0  0  0  0  0  0  0  0  0  0  0  0
  149.9590  132.2117  155.3471 C   0  0  0  0  0  0  0  0  0  0  0  0
  150.6649  133.4345  155.4312 C   0  0  0  0  0  0  0  0  0  0  0  0
  151.7792  133.6167  156.4220 C   0  0  0  0  0  0  0  0  0  0  0  0
  152.1168  132.6430  157.1311 O   0  0  0  0  0  0  0  0  0  0  0  0
  152.3326  134.7354  156.5057 O   0  5  0  0  0  0  0  0  0  0  0  0
  150.2955  134.4833  154.5584 C   0  0  0  0  0  0  0  0  0  0  0  0
  149.2914  134.3081  153.6713 N   0  3  0  0  0  0  0  0  0  0  0  0
  146.8410  131.8543  152.6042 C   0  0  0  0  0  0  0  0  0  0  0  0
  145.8182  131.8381  151.4530 C   0  0  1  0  0  0  0  0  0  0  0  0
  144.9482  130.5771  151.4734 C   0  0  0  0  0  0  0  0  0  0  0  0
  144.9663  132.9751  151.5758 O   0  0  0  0  0  0  0  0  0  0  0  0
  145.1671  136.3234  151.4863 H   0  0  0  0  0  0  0  0  0  0  0  0
  144.1031  135.3367  152.4878 H   0  0  0  0  0  0  0  0  0  0  0  0
  143.9546  135.2923  150.7328 H   0  0  0  0  0  0  0  0  0  0  0  0
  146.1999  134.2550  150.5348 H   0  0  0  0  0  0  0  0  0  0  0  0
  147.2946  135.1837  152.5682 H   0  0  0  0  0  0  0  0  0  0  0  0
  146.1797  134.3042  153.6024 H   0  0  0  0  0  0  0  0  0  0  0  0
  148.3775  131.1372  154.3414 H   0  0  0  0  0  0  0  0  0  0  0  0
  150.2066  131.3829  155.9947 H   0  0  0  0  0  0  0  0  0  0  0  0
  150.7687  135.4545  154.5407 H   0  0  0  0  0  0  0  0  0  0  0  0
  147.5372  131.0208  152.5000 H   0  0  0  0  0  0  0  0  0  0  0  0
  146.3284  131.7303  153.5591 H   0  0  0  0  0  0  0  0  0  0  0  0
  146.3397  131.8844  150.4952 H   0  0  0  0  0  0  0  0  0  0  0  0
  145.5574  129.6784  151.3725 H   0  0  0  0  0  0  0  0  0  0  0  0
  144.2314  130.5856  150.6520 H   0  0  0  0  0  0  0  0  0  0  0  0
  144.3868  130.4987  152.4048 H   0  0  0  0  0  0  0  0  0  0  0  0
  149.0493  135.0846  153.0558 H   0  0  0  0  0  0  0  0  0  0  0  0
  1  2  1  0  0  0  0
  1 18  1  0  0  0  0
  1 19  1  0  0  0  0
  1 20  1  0  0  0  0
  2 17  1  0  0  0  0
  2  3  1  0  0  0  0
  2 21  1  0  0  0  0
  3  4  1  0  0  0  0
  3 22  1  0  0  0  0
  3 23  1  0  0  0  0
  4  5  1  0  0  0  0
  4 14  1  0  0  0  0
  5 13  1  0  0  0  0
  5  6  2  0  0  0  0
  6  7  1  0  0  0  0
  6 24  1  0  0  0  0
  7  8  2  0  0  0  0
  7 25  1  0  0  0  0
  8  9  1  0  0  0  0
  8 12  1  0  0  0  0
  9 10  2  0  0  0  0
  9 11  1  0  0  0  0
 12 13  2  0  0  0  0
 12 26  1  0  0  0  0
 13 33  1  0  0  0  0
 14 15  1  0  0  0  0
 14 27  1  0  0  0  0
 14 28  1  0  0  0  0
 15 16  1  0  0  0  0
 15 17  1  0  0  0  0
 15 29  1  0  0  0  0
 16 30  1  0  0  0  0
 16 31  1  0  0  0  0
 16 32  1  0  0  0  0
M  CHG  1  11  -1
M  CHG  1  13   1
M  END
> <s_m_source_file>
AV-unprocessed.smi

> <i_m_source_file_index>
384

> <i_lp_mmshare_version>
43012

> <i_f3d_flags>
0

> <s_epik_input>
W0NIM11bQ0BASF0xW0NIMl1OKFtDSDJdW0NASF0oTzEpW0NIM10pYzJbY0hdW2NIXWMoW2NIXW4yKUMoPU8pW09IXQ==

> <s_epik_cmdline>
J2VwaWtfcHl0aG9uJywgJy1waCcsICc3LjAnLCAnLXRuJywgJzgnLCAnLW1hJywgJzIwMCcsICctbWV0YWxfYmluZGluZycsICctaW1hZScsICc8aW5maWxlLm1hZT4nLCAnLW9tYWUnLCAnPG91dGZpbGUubWFlPic=

> <r_epik_Ionization_Penalty>
2.35185

> <r_epik_Ionization_Penalty_Charging>
2.35185

> <r_epik_Ionization_Penalty_Neutral>
3.18713e-12

> <r_epik_State_Penalty>
2.50619

> <r_epik_Charging_Adjusted_Penalty>
4.85804

> <i_epik_Tot_Q>
0

> <i_epik_Tot_abs_Q>
2

> <r_epik_Metal_State_Penalty>
6.59026

> <b_epik_Metal_Only>
0

> <s_lp_Force_Field>
OPLS_2005

> <r_lp_Energy>
16.4977

> <b_lp_Chiralities_Consistent>
1

> <s_lp_Variant>
AV-unprocessed.smi:384-5

> <Gold.Version>
5.8.1

> <Gold.Id.Protein>
6NUR|6NUR_protein|mol2

> <Gold.PLP.Fitness>
44.4992

> <Gold.PLP.PLP>
-26.8988

> <Gold.PLP.part.hbond>
-3.1940

> <Gold.PLP.part.metal>
0.0000

> <Gold.PLP.part.buried>
-1.9572

> <Gold.PLP.part.nonpolar>
-21.4893

> <Gold.PLP.part.repulsive>
0.2782

> <Gold.PLP.ligand.clash>
0.0000

> <Gold.PLP.ligand.torsion>
0.1476

> <Gold.PLP.Chemscore.Hbond>
5.9360

> <Gold.PLP.Chemscore.CHOScore>
0.0000

> <Gold.PLP.Chemscore.Metal>
0.0000

> <Gold.Chemscore.Hbonds>
donor molecule, donor type, donor heavy atom, donor atom, acceptor molecule, acceptor atom, score
      L1  H    13    33       P1  7948  1.70
      P1  H  6896  6907       L1    10  0.77
      P1  H 10752 10764       L1    11  1.79

> <Gold.PLP.Chemscore.Internal.Correction>
0.0877

> <Gold.Rescore>
     Score         DG    S(hbond)    S(metal)    S(lipo)     H(rot)  DE(clash)    DE(int)     intcor
     17.16     -17.83       2.37        0.00      59.77       1.00       0.44       0.24       ----

> <Gold.Chemscore.Fitness>
17.1620

> <Gold.Chemscore.DG>
-17.8329

> <Gold.Chemscore.ZeroCoef>
-5.4800

> <Gold.Chemscore.Hbond>
2.3713

> <Gold.Chemscore.Metal>
0.0000

> <Gold.Chemscore.Lipo>
59.7667

> <Gold.Chemscore.Internal_Hbond>
0.0000

> <Gold.Chemscore.DEClash>
0.4353

> <Gold.Chemscore.DEInternal>
0.2356

> <Gold.Chemscore.Rot>
1.0000

> <Gold.Chemscore.Internal.Correction>
   9.000000E+99

> <Gold.Chemscore.Hbonds>
donor molecule, donor type, donor heavy atom, donor atom, acceptor molecule, acceptor atom, score
      L1  H    13    33       P1  7948  0.15
      P1  H  6896  6907       L1    10  0.16
      P1  H 10752 10764       L1    11  0.87

> <Gold.Chemscore.Hbond.Weighted>
-7.9202

> <Gold.Chemscore.Metal.Weighted>
-0.0000

> <Gold.Chemscore.Lipo.Weighted>
-6.9927

> <Gold.Chemscore.Internal_Hbond.Weighted>
0.0000

> <Gold.Chemscore.DEClash.Weighted>
0.4353

> <Gold.Chemscore.DEInternal.Weighted>
0.2356

> <Gold.Chemscore.Rot.Weighted>
2.5600

> <Gold.Chemscore.Internal.Correction.Weighted>
   9.000000E+99

> <Gold.Protein.RotatedTorsions>
[ 6907 6896 6895 6894 ] final -175.55 input  -60.11 | X-H torsion
[ 7974 7965 7964 7962 ] final -112.56 input  175.53 | X-H torsion
[ 8008 7997 7996 7995 ] final  -76.56 input   59.86 | X-H torsion
[ 10167 10162 10161 10158 ] final   -7.04 input  -65.29 | X-H torsion
[ 10718 10713 10712 10709 ] final   31.28 input   66.30 | X-H torsion
[ 10763 10752 10751 10750 ] final  -16.65 input  -60.55 | X-H torsion
[ 11005 11000 10999 10996 ] final   85.54 input  -57.11 | X-H torsion

> <Gold.Protein.ActiveResidues>
 VAL166  LYS551  ARG553  GLY616  TRP617  ASP618  TYR619  PRO620  LYS621  CYS622 
 ASP623  PHE694  ASN695  SER759  ASP760  ASP761  ALA762  ILE779  LEU786  VAL792 
 PHE793  MET794  SER795  GLU796  ALA797  LYS798  CYS799  TRP800  GLU811  SER814 

> <Gold.Protein.RotatedAtoms>
  151.5903  133.3367  159.3026 H   0  0  0  0  0  0  0  0  0  0  0  0  # atno 6907 bound_to 6896
  150.8264  134.7500  159.6827 H   0  0  0  0  0  0  0  0  0  0  0  0  # atno 6908 bound_to 6896
  152.4352  134.5705  159.9971 H   0  0  0  0  0  0  0  0  0  0  0  0  # atno 6909 bound_to 6896
  145.1425  140.8785  143.3694 H   0  0  0  0  0  0  0  0  0  0  0  0  # atno 7974 bound_to 7965
  154.5516  140.0725  156.8677 H   0  0  0  0  0  0  0  0  0  0  0  0  # atno 8008 bound_to 7997
  155.2982  140.3382  155.4231 H   0  0  0  0  0  0  0  0  0  0  0  0  # atno 8009 bound_to 7997
  156.1966  140.1706  156.7971 H   0  0  0  0  0  0  0  0  0  0  0  0  # atno 8010 bound_to 7997
  140.7016  143.6126  150.8689 H   0  0  0  0  0  0  0  0  0  0  0  0  # atno 10167 bound_to 10162
  157.2705  130.7205  149.6501 H   0  0  0  0  0  0  0  0  0  0  0  0  # atno 10718 bound_to 10713
  153.5618  135.7009  153.5544 H   0  0  0  0  0  0  0  0  0  0  0  0  # atno 10763 bound_to 10752
  153.3423  135.4018  155.1581 H   0  0  0  0  0  0  0  0  0  0  0  0  # atno 10764 bound_to 10752
  154.8646  135.3745  154.5135 H   0  0  0  0  0  0  0  0  0  0  0  0  # atno 10765 bound_to 10752
  139.8968  134.8294  156.2597 H   0  0  0  0  0  0  0  0  0  0  0  0  # atno 11005 bound_to 11000
  145.0517  139.3176  143.5925 LP  0  0  0  0  0  0  0  0  0  0  0  0  # atno 17320 bound_to 7965
  146.3503  139.9928  142.8684 LP  0  0  0  0  0  0  0  0  0  0  0  0  # atno 17321 bound_to 7965
  139.9848  143.5911  152.2930 LP  0  0  0  0  0  0  0  0  0  0  0  0  # atno 17342 bound_to 10162
  139.6545  144.7662  151.2082 LP  0  0  0  0  0  0  0  0  0  0  0  0  # atno 17343 bound_to 10162
  155.9663  130.4369  150.5154 LP  0  0  0  0  0  0  0  0  0  0  0  0  # atno 17370 bound_to 10713
  157.3077  131.0657  151.2023 LP  0  0  0  0  0  0  0  0  0  0  0  0  # atno 17371 bound_to 10713
  141.0171  133.7062  156.1206 LP  0  0  0  0  0  0  0  0  0  0  0  0  # atno 17394 bound_to 11000
  140.7287  134.4279  157.5568 LP  0  0  0  0  0  0  0  0  0  0  0  0  # atno 17395 bound_to 11000

$$$$
