AV-unprocessed.smi:1708|AV-procd|sdf|6889|dock5
  -GOLD-   22720 8 93D 1   1.00000     0.00000
 Structure written by MMmdl.
 36 38  0  0  0  0  0  0  0  0  1 V2000
  153.7428  140.5849  160.0750 C   0  0  0  0  0  0  0  0  0  0  0  0
  152.8808  141.3533  159.1852 N   0  0  0  0  0  0  0  0  0  0  0  0
  152.4000  140.9664  157.9809 C   0  0  0  0  0  0  0  0  0  0  0  0
  152.6109  139.8867  157.4287 O   0  0  0  0  0  0  0  0  0  0  0  0
  151.6286  141.9677  157.4950 N   0  0  0  0  0  0  0  0  0  0  0  0
  150.8831  141.9487  156.2354 C   0  0  0  0  0  0  0  0  0  0  0  0
  150.4779  140.5199  155.8129 C   0  0  2  0  0  0  0  0  0  0  0  0
  151.5245  139.9696  155.0399 O   0  0  0  0  0  0  0  0  0  0  0  0
  149.1388  140.4779  155.0881 C   0  0  0  0  0  0  0  0  0  0  0  0
  148.6671  139.2741  154.5201 C   0  0  0  0  0  0  0  0  0  0  0  0
  147.4433  139.2494  153.8240 C   0  0  0  0  0  0  0  0  0  0  0  0
  146.6842  140.4279  153.6910 C   0  0  0  0  0  0  0  0  0  0  0  0
  147.1496  141.6312  154.2550 C   0  0  0  0  0  0  0  0  0  0  0  0
  146.4228  142.7659  154.1236 F   0  0  0  0  0  0  0  0  0  0  0  0
  148.3726  141.6558  154.9525 C   0  0  0  0  0  0  0  0  0  0  0  0
  151.6091  143.0227  158.4214 C   0  0  0  0  0  0  0  0  0  0  0  0
  150.9519  144.2660  158.4020 C   0  0  0  0  0  0  0  0  0  0  0  0
  151.1300  145.1100  159.5230 C   0  0  0  0  0  0  0  0  0  0  0  0
  151.9409  144.7070  160.6156 C   0  0  0  0  0  0  0  0  0  0  0  0
  152.5902  143.4502  160.6106 C   0  0  0  0  0  0  0  0  0  0  0  0
  152.3954  142.6321  159.4848 C   0  0  0  0  0  0  0  0  0  0  0  0
  154.0768  139.6523  159.6184 H   0  0  0  0  0  0  0  0  0  0  0  0
  153.2100  140.3396  160.9940 H   0  0  0  0  0  0  0  0  0  0  0  0
  154.6278  141.1652  160.3370 H   0  0  0  0  0  0  0  0  0  0  0  0
  149.9963  142.5757  156.3297 H   0  0  0  0  0  0  0  0  0  0  0  0
  151.4899  142.4100  155.4545 H   0  0  0  0  0  0  0  0  0  0  0  0
  150.4004  139.9005  156.7074 H   0  0  0  0  0  0  0  0  0  0  0  0
  151.4876  139.0281  155.1136 H   0  0  0  0  0  0  0  0  0  0  0  0
  149.2483  138.3678  154.6077 H   0  0  0  0  0  0  0  0  0  0  0  0
  147.0886  138.3268  153.3888 H   0  0  0  0  0  0  0  0  0  0  0  0
  145.7467  140.4090  153.1553 H   0  0  0  0  0  0  0  0  0  0  0  0
  148.7266  142.5855  155.3737 H   0  0  0  0  0  0  0  0  0  0  0  0
  150.3309  144.5687  157.5723 H   0  0  0  0  0  0  0  0  0  0  0  0
  150.6410  146.0726  159.5480 H   0  0  0  0  0  0  0  0  0  0  0  0
  152.0624  145.3666  161.4620 H   0  0  0  0  0  0  0  0  0  0  0  0
  153.2064  143.1342  161.4392 H   0  0  0  0  0  0  0  0  0  0  0  0
  1  2  1  0  0  0  0
  1 22  1  0  0  0  0
  1 23  1  0  0  0  0
  1 24  1  0  0  0  0
  2 21  1  0  0  0  0
  2  3  1  0  0  0  0
  3  4  2  0  0  0  0
  3  5  1  0  0  0  0
  5  6  1  0  0  0  0
  5 16  1  0  0  0  0
  6  7  1  0  0  0  0
  6 25  1  0  0  0  0
  6 26  1  0  0  0  0
  7  8  1  0  0  0  0
  7  9  1  0  0  0  0
  7 27  1  0  0  0  0
  8 28  1  0  0  0  0
  9 15  1  0  0  0  0
  9 10  2  0  0  0  0
 10 11  1  0  0  0  0
 10 29  1  0  0  0  0
 11 12  2  0  0  0  0
 11 30  1  0  0  0  0
 12 13  1  0  0  0  0
 12 31  1  0  0  0  0
 13 14  1  0  0  0  0
 13 15  2  0  0  0  0
 15 32  1  0  0  0  0
 16 21  2  0  0  0  0
 16 17  1  0  0  0  0
 17 18  2  0  0  0  0
 17 33  1  0  0  0  0
 18 19  1  0  0  0  0
 18 34  1  0  0  0  0
 19 20  2  0  0  0  0
 19 35  1  0  0  0  0
 20 21  1  0  0  0  0
 20 36  1  0  0  0  0
M  END
> <s_m_source_file>
AV-unprocessed.smi

> <i_m_source_file_index>
1708

> <i_lp_mmshare_version>
43012

> <i_f3d_flags>
0

> <s_epik_input>
W2NIXTFbY0hdW2NIXVtjSF1jKGMxMiluKFtDSDNdKWMoPU8pbjJbQ0gyXVtDQEhdKFtPSF0pYzNbY0hdW2NIXVtjSF1jKEYpW2NIXTM=

> <s_epik_cmdline>
J2VwaWtfcHl0aG9uJywgJy1waCcsICc3LjAnLCAnLXRuJywgJzgnLCAnLW1hJywgJzIwMCcsICctbWV0YWxfYmluZGluZycsICctaW1hZScsICc8aW5maWxlLm1hZT4nLCAnLW9tYWUnLCAnPG91dGZpbGUubWFlPic=

> <r_lp_tautomer_probability>
1

> <r_epik_Ionization_Penalty>
3.53466e-06

> <r_epik_Ionization_Penalty_Charging>
2.57375e-09

> <r_epik_Ionization_Penalty_Neutral>
3.53208e-06

> <r_epik_State_Penalty>
-0

> <r_epik_Charging_Adjusted_Penalty>
2.57375e-09

> <i_epik_Tot_Q>
0

> <i_epik_Tot_abs_Q>
0

> <r_epik_Metal_State_Penalty>
-0

> <b_epik_Metal_Only>
0

> <s_lp_Force_Field>
OPLS_2005

> <r_lp_Energy>
39.7129

> <b_lp_Chiralities_Consistent>
1

> <s_lp_Variant>
AV-unprocessed.smi:1708-1

> <Gold.Version>
5.8.1

> <Gold.Id.Protein>
6NUR|6NUR_protein|mol2

> <Gold.PLP.Fitness>
55.9136

> <Gold.PLP.PLP>
-51.6193

> <Gold.PLP.part.hbond>
-2.0000

> <Gold.PLP.part.metal>
0.0000

> <Gold.PLP.part.buried>
-7.2026

> <Gold.PLP.part.nonpolar>
-41.7035

> <Gold.PLP.part.repulsive>
0.0000

> <Gold.PLP.ligand.clash>
0.0080

> <Gold.PLP.ligand.torsion>
0.8593

> <Gold.PLP.Chemscore.Hbond>
2.0000

> <Gold.PLP.Chemscore.CHOScore>
0.0000

> <Gold.PLP.Chemscore.Metal>
0.0000

> <Gold.Chemscore.Hbonds>
donor molecule, donor type, donor heavy atom, donor atom, acceptor molecule, acceptor atom, score
      P1  H  7989  7998       L1     8  1.00
      P1  H  7997  8009       L1     4  1.00

> <Gold.PLP.Chemscore.Internal.Correction>
0.0210

> <Gold.Rescore>
     Score         DG    S(hbond)    S(metal)    S(lipo)     H(rot)  DE(clash)    DE(int)     intcor
     18.23     -20.55       1.73        0.00     119.90       1.85       0.04       2.27       ----

> <Gold.Chemscore.Fitness>
18.2349

> <Gold.Chemscore.DG>
-20.5485

> <Gold.Chemscore.ZeroCoef>
-5.4800

> <Gold.Chemscore.Hbond>
1.7268

> <Gold.Chemscore.Metal>
0.0000

> <Gold.Chemscore.Lipo>
119.8973

> <Gold.Chemscore.Internal_Hbond>
0.0000

> <Gold.Chemscore.DEClash>
0.0399

> <Gold.Chemscore.DEInternal>
2.2736

> <Gold.Chemscore.Rot>
1.8465

> <Gold.Chemscore.Internal.Correction>
   9.000000E+99

> <Gold.Chemscore.Hbonds>
donor molecule, donor type, donor heavy atom, donor atom, acceptor molecule, acceptor atom, score
      P1  H  7989  7998       L1     8  0.68
      P1  H  7997  8009       L1     4  0.47

> <Gold.Chemscore.Hbond.Weighted>
-5.7675

> <Gold.Chemscore.Metal.Weighted>
-0.0000

> <Gold.Chemscore.Lipo.Weighted>
-14.0280

> <Gold.Chemscore.Internal_Hbond.Weighted>
0.0000

> <Gold.Chemscore.DEClash.Weighted>
0.0399

> <Gold.Chemscore.DEInternal.Weighted>
2.2736

> <Gold.Chemscore.Rot.Weighted>
4.7270

> <Gold.Chemscore.Internal.Correction.Weighted>
   9.000000E+99

> <Gold.Protein.RotatedTorsions>
[ 6907 6896 6895 6894 ] final -108.65 input  -60.11 | X-H torsion
[ 7974 7965 7964 7962 ] final -104.44 input  175.53 | X-H torsion
[ 8008 7997 7996 7995 ] final -171.09 input   59.86 | X-H torsion
[ 10167 10162 10161 10158 ] final  126.64 input  -65.29 | X-H torsion
[ 10718 10713 10712 10709 ] final  101.97 input   66.30 | X-H torsion
[ 10763 10752 10751 10750 ] final -144.98 input  -60.55 | X-H torsion
[ 11005 11000 10999 10996 ] final   84.35 input  -57.11 | X-H torsion

> <Gold.Protein.ActiveResidues>
 VAL166  LYS551  ARG553  GLY616  TRP617  ASP618  TYR619  PRO620  LYS621  CYS622 
 ASP623  PHE694  ASN695  SER759  ASP760  ASP761  ALA762  ILE779  LEU786  VAL792 
 PHE793  MET794  SER795  GLU796  ALA797  LYS798  CYS799  TRP800  GLU811  SER814 

> <Gold.Protein.RotatedAtoms>
  150.7514  133.9646  159.3526 H   0  0  0  0  0  0  0  0  0  0  0  0  # atno 6907 bound_to 6896
  151.7575  135.0816  160.0350 H   0  0  0  0  0  0  0  0  0  0  0  0  # atno 6908 bound_to 6896
  152.3425  133.6047  159.5923 H   0  0  0  0  0  0  0  0  0  0  0  0  # atno 6909 bound_to 6896
  145.2432  140.9212  143.3138 H   0  0  0  0  0  0  0  0  0  0  0  0  # atno 7974 bound_to 7965
  155.9270  140.1084  157.1162 H   0  0  0  0  0  0  0  0  0  0  0  0  # atno 8008 bound_to 7997
  154.4064  140.1245  156.4819 H   0  0  0  0  0  0  0  0  0  0  0  0  # atno 8009 bound_to 7997
  155.7126  140.3471  155.4983 H   0  0  0  0  0  0  0  0  0  0  0  0  # atno 8010 bound_to 7997
  139.5620  144.6888  151.4016 H   0  0  0  0  0  0  0  0  0  0  0  0  # atno 10167 bound_to 10162
  157.6815  131.0740  150.5333 H   0  0  0  0  0  0  0  0  0  0  0  0  # atno 10718 bound_to 10713
  154.8404  135.3425  154.6432 H   0  0  0  0  0  0  0  0  0  0  0  0  # atno 10763 bound_to 10752
  153.7043  135.6967  153.5059 H   0  0  0  0  0  0  0  0  0  0  0  0  # atno 10764 bound_to 10752
  153.2499  135.4357  155.0741 H   0  0  0  0  0  0  0  0  0  0  0  0  # atno 10765 bound_to 10752
  139.9003  134.8210  156.2434 H   0  0  0  0  0  0  0  0  0  0  0  0  # atno 11005 bound_to 11000
  144.9570  139.4020  143.6374 LP  0  0  0  0  0  0  0  0  0  0  0  0  # atno 17320 bound_to 7965
  146.3323  139.8605  142.8857 LP  0  0  0  0  0  0  0  0  0  0  0  0  # atno 17321 bound_to 7965
  140.6901  143.7883  150.7242 LP  0  0  0  0  0  0  0  0  0  0  0  0  # atno 17342 bound_to 10162
  140.1362  143.4482  152.2223 LP  0  0  0  0  0  0  0  0  0  0  0  0  # atno 17343 bound_to 10162
  156.5643  130.4263  149.6048 LP  0  0  0  0  0  0  0  0  0  0  0  0  # atno 17370 bound_to 10713
  156.2795  130.7062  151.1882 LP  0  0  0  0  0  0  0  0  0  0  0  0  # atno 17371 bound_to 10713
  141.0270  133.7009  156.1365 LP  0  0  0  0  0  0  0  0  0  0  0  0  # atno 17394 bound_to 11000
  140.7151  134.4419  157.5579 LP  0  0  0  0  0  0  0  0  0  0  0  0  # atno 17395 bound_to 11000

$$$$
