AV-unprocessed.smi:1762|AV-procd|sdf|7108|dock7
  -GOLD-   22720 8333D 1   1.00000     0.00000
 Structure written by MMmdl.
 53 54  0  0  0  0  0  0  0  0  2 V2000
  153.8339  137.7897  155.4535 C   0  0  0  0  0  0  0  0  0  0  0  0
  152.7445  138.8613  155.3313 C   0  0  1  0  0  0  0  0  0  0  0  0
  151.4262  138.2964  154.7673 C   0  0  0  0  0  0  0  0  0  0  0  0
  150.3549  139.2988  154.7139 N   0  0  0  0  0  0  0  0  0  0  0  0
  149.0878  138.7680  154.1368 C   0  0  1  0  0  0  0  0  0  0  0  0
  148.4686  137.6261  154.9773 C   0  0  0  0  0  0  0  0  0  0  0  0
  148.0581  137.8440  156.1178 O   0  0  0  0  0  0  0  0  0  0  0  0
  148.4349  136.4088  154.4120 N   0  0  0  0  0  0  0  0  0  0  0  0
  147.9160  135.2081  155.0556 C   0  0  0  0  0  0  0  0  0  0  0  0
  147.3661  134.2084  154.0242 C   0  0  0  0  0  0  0  0  0  0  0  0
  146.2957  134.8227  153.1438 C   0  0  0  0  0  0  0  0  0  0  0  0
  144.9197  134.6748  153.4237 C   0  0  0  0  0  0  0  0  0  0  0  0
  143.9738  135.2772  152.5681 C   0  0  0  0  0  0  0  0  0  0  0  0
  144.4230  136.0151  151.4533 C   0  0  0  0  0  0  0  0  0  0  0  0
  145.8089  136.1326  151.2222 C   0  0  0  0  0  0  0  0  0  0  0  0
  146.6840  135.5404  152.0646 N   0  3  0  0  0  0  0  0  0  0  0  0
  148.0100  139.8518  153.7973 C   0  0  0  0  0  0  0  0  0  0  0  0
  147.2439  140.3776  155.0272 C   0  0  0  0  0  0  0  0  0  0  0  0
  147.0217  139.4121  152.6983 C   0  0  0  0  0  0  0  0  0  0  0  0
  150.2091  139.8954  156.0532 C   0  0  0  0  0  0  0  0  0  0  0  0
  151.5368  140.4446  156.6097 C   0  0  1  0  0  0  0  0  0  0  0  0
  151.3914  140.9830  158.0373 C   0  0  0  0  0  0  0  0  0  0  0  0
  152.5048  139.4033  156.6237 O   0  0  0  0  0  0  0  0  0  0  0  0
  154.0663  137.3538  154.4816 H   0  0  0  0  0  0  0  0  0  0  0  0
  153.5221  136.9826  156.1170 H   0  0  0  0  0  0  0  0  0  0  0  0
  154.7542  138.2144  155.8551 H   0  0  0  0  0  0  0  0  0  0  0  0
  153.1100  139.6547  154.6770 H   0  0  0  0  0  0  0  0  0  0  0  0
  151.6483  137.9153  153.7728 H   0  0  0  0  0  0  0  0  0  0  0  0
  151.1060  137.4433  155.3681 H   0  0  0  0  0  0  0  0  0  0  0  0
  149.3530  138.3125  153.1800 H   0  0  0  0  0  0  0  0  0  0  0  0
  148.7942  136.3106  153.4732 H   0  0  0  0  0  0  0  0  0  0  0  0
  148.6984  134.7438  155.6585 H   0  0  0  0  0  0  0  0  0  0  0  0
  147.1273  135.5062  155.7466 H   0  0  0  0  0  0  0  0  0  0  0  0
  148.1754  133.8364  153.3944 H   0  0  0  0  0  0  0  0  0  0  0  0
  146.9462  133.3369  154.5282 H   0  0  0  0  0  0  0  0  0  0  0  0
  144.5914  134.1086  154.2833 H   0  0  0  0  0  0  0  0  0  0  0  0
  142.9164  135.1755  152.7648 H   0  0  0  0  0  0  0  0  0  0  0  0
  143.7149  136.4844  150.7862 H   0  0  0  0  0  0  0  0  0  0  0  0
  146.2404  136.6785  150.3957 H   0  0  0  0  0  0  0  0  0  0  0  0
  148.5243  140.7042  153.3569 H   0  0  0  0  0  0  0  0  0  0  0  0
  146.6126  139.6097  155.4736 H   0  0  0  0  0  0  0  0  0  0  0  0
  146.5952  141.2096  154.7520 H   0  0  0  0  0  0  0  0  0  0  0  0
  147.9230  140.7406  155.7987 H   0  0  0  0  0  0  0  0  0  0  0  0
  146.3490  138.6254  153.0412 H   0  0  0  0  0  0  0  0  0  0  0  0
  147.5498  139.0429  151.8188 H   0  0  0  0  0  0  0  0  0  0  0  0
  146.4011  140.2493  152.3777 H   0  0  0  0  0  0  0  0  0  0  0  0
  149.5068  140.7281  156.0434 H   0  0  0  0  0  0  0  0  0  0  0  0
  149.8032  139.1530  156.7428 H   0  0  0  0  0  0  0  0  0  0  0  0
  151.8938  141.2522  155.9682 H   0  0  0  0  0  0  0  0  0  0  0  0
  150.6681  141.7975  158.0782 H   0  0  0  0  0  0  0  0  0  0  0  0
  152.3429  141.3655  158.4077 H   0  0  0  0  0  0  0  0  0  0  0  0
  151.0572  140.2028  158.7216 H   0  0  0  0  0  0  0  0  0  0  0  0
  147.6822  135.6390  151.8782 H   0  0  0  0  0  0  0  0  0  0  0  0
  1  2  1  0  0  0  0
  1 24  1  0  0  0  0
  1 25  1  0  0  0  0
  1 26  1  0  0  0  0
  2 23  1  0  0  0  0
  2  3  1  0  0  0  0
  2 27  1  0  0  0  0
  3  4  1  0  0  0  0
  3 28  1  0  0  0  0
  3 29  1  0  0  0  0
  4  5  1  0  0  0  0
  4 20  1  0  0  0  0
  5  6  1  0  0  0  0
  5 17  1  0  0  0  0
  5 30  1  0  0  0  0
  6  7  2  0  0  0  0
  6  8  1  0  0  0  0
  8  9  1  0  0  0  0
  8 31  1  0  0  0  0
  9 10  1  0  0  0  0
  9 32  1  0  0  0  0
  9 33  1  0  0  0  0
 10 11  1  0  0  0  0
 10 34  1  0  0  0  0
 10 35  1  0  0  0  0
 11 16  1  0  0  0  0
 11 12  2  0  0  0  0
 12 13  1  0  0  0  0
 12 36  1  0  0  0  0
 13 14  2  0  0  0  0
 13 37  1  0  0  0  0
 14 15  1  0  0  0  0
 14 38  1  0  0  0  0
 15 16  2  0  0  0  0
 15 39  1  0  0  0  0
 16 53  1  0  0  0  0
 17 18  1  0  0  0  0
 17 19  1  0  0  0  0
 17 40  1  0  0  0  0
 18 41  1  0  0  0  0
 18 42  1  0  0  0  0
 18 43  1  0  0  0  0
 19 44  1  0  0  0  0
 19 45  1  0  0  0  0
 19 46  1  0  0  0  0
 20 21  1  0  0  0  0
 20 47  1  0  0  0  0
 20 48  1  0  0  0  0
 21 22  1  0  0  0  0
 21 23  1  0  0  0  0
 21 49  1  0  0  0  0
 22 50  1  0  0  0  0
 22 51  1  0  0  0  0
 22 52  1  0  0  0  0
M  CHG  1  16   1
M  END
> <s_m_source_file>
AV-unprocessed.smi

> <i_m_source_file_index>
1762

> <i_lp_mmshare_version>
43012

> <i_f3d_flags>
0

> <s_epik_input>
W0NIM11bQ0BASF0xW0NIMl1OKFtDSDJdW0NASF0oTzEpW0NIM10pW0NAQEhdKFtDSF0oW0NIM10pW0NIM10pQyg9TylbTkhdW0NIMl1bQ0gyXWMyW2NIXVtjSF1bY0hdW2NIXW4y

> <s_epik_cmdline>
J2VwaWtfcHl0aG9uJywgJy1waCcsICc3LjAnLCAnLXRuJywgJzgnLCAnLW1hJywgJzIwMCcsICctbWV0YWxfYmluZGluZycsICctaW1hZScsICc8aW5maWxlLm1hZT4nLCAnLW9tYWUnLCAnPG91dGZpbGUubWFlPic=

> <r_epik_Ionization_Penalty>
1.86475

> <r_epik_Ionization_Penalty_Charging>
1.85347

> <r_epik_Ionization_Penalty_Neutral>
0.0112771

> <r_epik_State_Penalty>
1.99714

> <r_epik_Charging_Adjusted_Penalty>
3.85061

> <i_epik_Tot_Q>
1

> <i_epik_Tot_abs_Q>
1

> <r_epik_Metal_State_Penalty>
2.02271

> <b_epik_Metal_Only>
0

> <s_lp_Force_Field>
OPLS_2005

> <r_lp_Energy>
32.1869

> <b_lp_Chiralities_Consistent>
1

> <s_lp_Variant>
AV-unprocessed.smi:1762-10

> <Gold.Version>
5.8.1

> <Gold.Id.Protein>
6NUR|6NUR_protein|mol2

> <Gold.PLP.Fitness>
42.7074

> <Gold.PLP.PLP>
-31.5449

> <Gold.PLP.part.hbond>
-3.3546

> <Gold.PLP.part.metal>
0.0000

> <Gold.PLP.part.buried>
-0.1050

> <Gold.PLP.part.nonpolar>
-29.2745

> <Gold.PLP.part.repulsive>
0.1922

> <Gold.PLP.ligand.clash>
0.0000

> <Gold.PLP.ligand.torsion>
0.9155

> <Gold.PLP.Chemscore.Hbond>
4.2154

> <Gold.PLP.Chemscore.CHOScore>
0.0000

> <Gold.PLP.Chemscore.Metal>
0.0000

> <Gold.Chemscore.Hbonds>
donor molecule, donor type, donor heavy atom, donor atom, acceptor molecule, acceptor atom, score
      L1  H     8    31       P1  7948  1.00
      L1  H    16    53       P1  7948  1.17
      P1  H  7989  7998       L1     4  0.13
      P1  H  7997  8008       L1    23  0.45

> <Gold.PLP.Chemscore.Internal.Correction>
0.3475

> <Gold.Rescore>
     Score         DG    S(hbond)    S(metal)    S(lipo)     H(rot)  DE(clash)    DE(int)     intcor
     16.50     -20.61       2.64        0.00      91.63       1.72       1.10       3.01       ----

> <Gold.Chemscore.Fitness>
16.5016

> <Gold.Chemscore.DG>
-20.6116

> <Gold.Chemscore.ZeroCoef>
-5.4800

> <Gold.Chemscore.Hbond>
2.6371

> <Gold.Chemscore.Metal>
0.0000

> <Gold.Chemscore.Lipo>
91.6256

> <Gold.Chemscore.Internal_Hbond>
0.0000

> <Gold.Chemscore.DEClash>
1.0967

> <Gold.Chemscore.DEInternal>
3.0133

> <Gold.Chemscore.Rot>
1.7174

> <Gold.Chemscore.Internal.Correction>
   9.000000E+99

> <Gold.Chemscore.Hbonds>
donor molecule, donor type, donor heavy atom, donor atom, acceptor molecule, acceptor atom, score
      L1  H     8    31       P1  7948  0.99
      L1  H    16    53       P1  7948  0.58
      P1  H  7989  7998       L1     4  0.01
      P1  H  7997  8008       L1    23  0.01

> <Gold.Chemscore.Hbond.Weighted>
-8.8079

> <Gold.Chemscore.Metal.Weighted>
-0.0000

> <Gold.Chemscore.Lipo.Weighted>
-10.7202

> <Gold.Chemscore.Internal_Hbond.Weighted>
0.0000

> <Gold.Chemscore.DEClash.Weighted>
1.0967

> <Gold.Chemscore.DEInternal.Weighted>
3.0133

> <Gold.Chemscore.Rot.Weighted>
4.3966

> <Gold.Chemscore.Internal.Correction.Weighted>
   9.000000E+99

> <Gold.Protein.RotatedTorsions>
[ 6907 6896 6895 6894 ] final  -82.70 input  -60.11 | X-H torsion
[ 7974 7965 7964 7962 ] final   76.42 input  175.53 | X-H torsion
[ 8008 7997 7996 7995 ] final  -62.92 input   59.86 | X-H torsion
[ 10167 10162 10161 10158 ] final  107.88 input  -65.29 | X-H torsion
[ 10718 10713 10712 10709 ] final   66.40 input   66.30 | X-H torsion
[ 10763 10752 10751 10750 ] final  -55.83 input  -60.55 | X-H torsion
[ 11005 11000 10999 10996 ] final  -77.74 input  -57.11 | X-H torsion

> <Gold.Protein.ActiveResidues>
 VAL166  LYS551  ARG553  GLY616  TRP617  ASP618  TYR619  PRO620  LYS621  CYS622 
 ASP623  PHE694  ASN695  SER759  ASP760  ASP761  ALA762  ILE779  LEU786  VAL792 
 PHE793  MET794  SER795  GLU796  ALA797  LYS798  CYS799  TRP800  GLU811  SER814 

> <Gold.Protein.RotatedAtoms>
  150.6894  134.3624  159.4955 H   0  0  0  0  0  0  0  0  0  0  0  0  # atno 6907 bound_to 6896
  152.1451  134.9029  160.0560 H   0  0  0  0  0  0  0  0  0  0  0  0  # atno 6908 bound_to 6896
  152.0148  133.3841  159.4271 H   0  0  0  0  0  0  0  0  0  0  0  0  # atno 6909 bound_to 6896
  145.7030  139.2589  143.1694 H   0  0  0  0  0  0  0  0  0  0  0  0  # atno 7974 bound_to 7965
  154.4526  140.0986  156.6663 H   0  0  0  0  0  0  0  0  0  0  0  0  # atno 8008 bound_to 7997
  155.5238  140.3479  155.4393 H   0  0  0  0  0  0  0  0  0  0  0  0  # atno 8009 bound_to 7997
  156.0712  140.1350  156.9815 H   0  0  0  0  0  0  0  0  0  0  0  0  # atno 8010 bound_to 7997
  139.6891  144.7110  151.1379 H   0  0  0  0  0  0  0  0  0  0  0  0  # atno 10167 bound_to 10162
  157.6166  130.9265  150.0103 H   0  0  0  0  0  0  0  0  0  0  0  0  # atno 10718 bound_to 10713
  154.1969  135.6417  153.5076 H   0  0  0  0  0  0  0  0  0  0  0  0  # atno 10763 bound_to 10752
  153.0021  135.5442  154.6356 H   0  0  0  0  0  0  0  0  0  0  0  0  # atno 10764 bound_to 10752
  154.5759  135.2921  155.0754 H   0  0  0  0  0  0  0  0  0  0  0  0  # atno 10765 bound_to 10752
  141.1662  133.7034  156.7866 H   0  0  0  0  0  0  0  0  0  0  0  0  # atno 11005 bound_to 11000
  146.0780  140.7795  142.9655 LP  0  0  0  0  0  0  0  0  0  0  0  0  # atno 17320 bound_to 7965
  144.6963  140.3445  143.7193 LP  0  0  0  0  0  0  0  0  0  0  0  0  # atno 17321 bound_to 7965
  140.7677  143.5585  150.9125 LP  0  0  0  0  0  0  0  0  0  0  0  0  # atno 17342 bound_to 10162
  139.9262  143.6548  152.3086 LP  0  0  0  0  0  0  0  0  0  0  0  0  # atno 17343 bound_to 10162
  156.1291  130.3644  149.9760 LP  0  0  0  0  0  0  0  0  0  0  0  0  # atno 17370 bound_to 10713
  156.7825  130.9226  151.3646 LP  0  0  0  0  0  0  0  0  0  0  0  0  # atno 17371 bound_to 10713
  140.2356  134.8653  157.3521 LP  0  0  0  0  0  0  0  0  0  0  0  0  # atno 17394 bound_to 11000
  140.1847  134.4445  155.7751 LP  0  0  0  0  0  0  0  0  0  0  0  0  # atno 17395 bound_to 11000

$$$$
