AV-unprocessed.smi:2104|AV-procd|sdf|8583|dock9
  -GOLD-   2272011313D 1   1.00000     0.00000
 Structure written by MMmdl.
 43 44  0  0  0  0  0  0  0  0  1 V2000
  149.0478  131.6921  153.9230 C   0  0  0  0  0  0  0  0  0  0  0  0
  149.5981  132.9500  154.5026 C   0  0  0  0  0  0  0  0  0  0  0  0
  149.3979  134.2714  154.2176 C   0  0  0  0  0  0  0  0  0  0  0  0
  150.2370  134.9314  155.1544 C   0  0  0  0  0  0  0  0  0  0  0  0
  150.3188  136.3470  155.1869 N   0  0  0  0  0  0  0  0  0  0  0  0
  151.3148  137.0987  155.6855 C   0  0  0  0  0  0  0  0  0  0  0  0
  152.3263  136.6613  156.2347 O   0  0  0  0  0  0  0  0  0  0  0  0
  151.0719  138.4057  155.5080 N   0  0  0  0  0  0  0  0  0  0  0  0
  151.9706  139.4888  155.8935 C   0  0  0  0  0  0  0  0  0  0  0  0
  151.2695  140.5010  156.8108 C   0  0  0  0  0  0  0  0  0  0  0  0
  152.2181  141.0359  157.7209 O   0  0  0  0  0  0  0  0  0  0  0  0
  151.7290  142.0890  158.5392 C   0  0  2  0  0  0  0  0  0  0  0  0
  151.3134  143.2726  157.6399 C   0  0  0  0  0  0  0  0  0  0  0  0
  150.9172  144.5020  158.4704 C   0  0  0  0  0  0  0  0  0  0  0  0
  152.0516  144.9119  159.4197 C   0  0  0  0  0  0  0  0  0  0  0  0
  152.4597  143.7410  160.3263 C   0  0  0  0  0  0  0  0  0  0  0  0
  152.8618  142.4974  159.5080 C   0  0  1  0  0  0  0  0  0  0  0  0
  153.2579  141.3400  160.4394 C   0  0  0  0  0  0  0  0  0  0  0  0
  150.8912  134.0890  155.9394 N   0  0  0  0  0  0  0  0  0  0  0  0
  150.4847  132.8148  155.5257 O   0  0  0  0  0  0  0  0  0  0  0  0
  148.3333  131.9085  153.1287 H   0  0  0  0  0  0  0  0  0  0  0  0
  148.5369  131.1060  154.6870 H   0  0  0  0  0  0  0  0  0  0  0  0
  149.8454  131.0791  153.5027 H   0  0  0  0  0  0  0  0  0  0  0  0
  148.7542  134.6940  153.4604 H   0  0  0  0  0  0  0  0  0  0  0  0
  149.5421  136.8401  154.7726 H   0  0  0  0  0  0  0  0  0  0  0  0
  150.2121  138.6720  155.0514 H   0  0  0  0  0  0  0  0  0  0  0  0
  152.8109  139.0419  156.4250 H   0  0  0  0  0  0  0  0  0  0  0  0
  152.3889  139.9850  155.0163 H   0  0  0  0  0  0  0  0  0  0  0  0
  150.7983  141.2829  156.2144 H   0  0  0  0  0  0  0  0  0  0  0  0
  150.4795  140.0032  157.3746 H   0  0  0  0  0  0  0  0  0  0  0  0
  150.8728  141.7494  159.1258 H   0  0  0  0  0  0  0  0  0  0  0  0
  152.1403  143.5341  156.9779 H   0  0  0  0  0  0  0  0  0  0  0  0
  150.4824  142.9915  156.9937 H   0  0  0  0  0  0  0  0  0  0  0  0
  150.6662  145.3323  157.8097 H   0  0  0  0  0  0  0  0  0  0  0  0
  150.0181  144.2809  159.0470 H   0  0  0  0  0  0  0  0  0  0  0  0
  152.9133  145.2446  158.8397 H   0  0  0  0  0  0  0  0  0  0  0  0
  151.7401  145.7621  160.0273 H   0  0  0  0  0  0  0  0  0  0  0  0
  153.2870  144.0490  160.9667 H   0  0  0  0  0  0  0  0  0  0  0  0
  151.6311  143.4928  160.9911 H   0  0  0  0  0  0  0  0  0  0  0  0
  153.7385  142.7585  158.9127 H   0  0  0  0  0  0  0  0  0  0  0  0
  152.4162  141.0208  161.0545 H   0  0  0  0  0  0  0  0  0  0  0  0
  154.0668  141.6339  161.1086 H   0  0  0  0  0  0  0  0  0  0  0  0
  153.6026  140.4746  159.8729 H   0  0  0  0  0  0  0  0  0  0  0  0
  1  2  1  0  0  0  0
  1 21  1  0  0  0  0
  1 22  1  0  0  0  0
  1 23  1  0  0  0  0
  2 20  1  0  0  0  0
  2  3  2  0  0  0  0
  3  4  1  0  0  0  0
  3 24  1  0  0  0  0
  4  5  1  0  0  0  0
  4 19  2  0  0  0  0
  5  6  1  0  0  0  0
  5 25  1  0  0  0  0
  6  7  2  0  0  0  0
  6  8  1  0  0  0  0
  8  9  1  0  0  0  0
  8 26  1  0  0  0  0
  9 10  1  0  0  0  0
  9 27  1  0  0  0  0
  9 28  1  0  0  0  0
 10 11  1  0  0  0  0
 10 29  1  0  0  0  0
 10 30  1  0  0  0  0
 11 12  1  0  0  0  0
 12 17  1  0  0  0  0
 12 13  1  0  0  0  0
 12 31  1  0  0  0  0
 13 14  1  0  0  0  0
 13 32  1  0  0  0  0
 13 33  1  0  0  0  0
 14 15  1  0  0  0  0
 14 34  1  0  0  0  0
 14 35  1  0  0  0  0
 15 16  1  0  0  0  0
 15 36  1  0  0  0  0
 15 37  1  0  0  0  0
 16 17  1  0  0  0  0
 16 38  1  0  0  0  0
 16 39  1  0  0  0  0
 17 18  1  0  0  0  0
 17 40  1  0  0  0  0
 18 41  1  0  0  0  0
 18 42  1  0  0  0  0
 18 43  1  0  0  0  0
 19 20  1  0  0  0  0
M  END
> <s_m_source_file>
AV-unprocessed.smi

> <i_m_source_file_index>
2104

> <i_lp_mmshare_version>
43012

> <i_f3d_flags>
0

> <s_epik_input>
W0NIM11jMVtjSF1jKG5vMSlbTkhdQyg9TylbTkhdW0NIMl1bQ0gyXU9bQ0BASF0yW0NIMl1bQ0gyXVtDSDJdW0NIMl1bQ0BIXTJbQ0gzXQ==

> <s_epik_cmdline>
J2VwaWtfcHl0aG9uJywgJy1waCcsICc3LjAnLCAnLXRuJywgJzgnLCAnLW1hJywgJzIwMCcsICctbWV0YWxfYmluZGluZycsICctaW1hZScsICc8aW5maWxlLm1hZT4nLCAnLW9tYWUnLCAnPG91dGZpbGUubWFlPic=

> <r_lp_tautomer_probability>
1

> <r_epik_Ionization_Penalty>
2.94418e-05

> <r_epik_Ionization_Penalty_Charging>
0

> <r_epik_Ionization_Penalty_Neutral>
2.94418e-05

> <r_epik_State_Penalty>
-0

> <r_epik_Charging_Adjusted_Penalty>
0

> <i_epik_Tot_Q>
0

> <i_epik_Tot_abs_Q>
0

> <r_epik_Metal_State_Penalty>
0.0104148

> <b_epik_Metal_Only>
0

> <s_lp_Force_Field>
OPLS_2005

> <r_lp_Energy>
8.87971

> <b_lp_Chiralities_Consistent>
1

> <s_lp_Variant>
AV-unprocessed.smi:2104-1

> <Gold.Version>
5.8.1

> <Gold.Id.Protein>
6NUR|6NUR_protein|mol2

> <Gold.PLP.Fitness>
43.2998

> <Gold.PLP.PLP>
-40.9598

> <Gold.PLP.part.hbond>
-1.0315

> <Gold.PLP.part.metal>
0.0000

> <Gold.PLP.part.buried>
-3.7406

> <Gold.PLP.part.nonpolar>
-36.6968

> <Gold.PLP.part.repulsive>
0.1439

> <Gold.PLP.ligand.clash>
0.0000

> <Gold.PLP.ligand.torsion>
0.3442

> <Gold.PLP.Chemscore.Hbond>
1.0000

> <Gold.PLP.Chemscore.CHOScore>
0.0000

> <Gold.PLP.Chemscore.Metal>
0.0000

> <Gold.Chemscore.Hbonds>
donor molecule, donor type, donor heavy atom, donor atom, acceptor molecule, acceptor atom, score
      P1  H 10752 10763       L1     7  0.99

> <Gold.PLP.Chemscore.Internal.Correction>
0.0284

> <Gold.Rescore>
     Score         DG    S(hbond)    S(metal)    S(lipo)     H(rot)  DE(clash)    DE(int)     intcor
     15.03     -16.54       0.97        0.00     105.30       1.75       0.00       1.51       ----

> <Gold.Chemscore.Fitness>
15.0278

> <Gold.Chemscore.DG>
-16.5411

> <Gold.Chemscore.ZeroCoef>
-5.4800

> <Gold.Chemscore.Hbond>
0.9662

> <Gold.Chemscore.Metal>
0.0000

> <Gold.Chemscore.Lipo>
105.3003

> <Gold.Chemscore.Internal_Hbond>
0.0000

> <Gold.Chemscore.DEClash>
0.0019

> <Gold.Chemscore.DEInternal>
1.5114

> <Gold.Chemscore.Rot>
1.7524

> <Gold.Chemscore.Internal.Correction>
   9.000000E+99

> <Gold.Chemscore.Hbonds>
donor molecule, donor type, donor heavy atom, donor atom, acceptor molecule, acceptor atom, score
      P1  H 10752 10763       L1     7  0.87

> <Gold.Chemscore.Hbond.Weighted>
-3.2271

> <Gold.Chemscore.Metal.Weighted>
-0.0000

> <Gold.Chemscore.Lipo.Weighted>
-12.3201

> <Gold.Chemscore.Internal_Hbond.Weighted>
0.0000

> <Gold.Chemscore.DEClash.Weighted>
0.0019

> <Gold.Chemscore.DEInternal.Weighted>
1.5114

> <Gold.Chemscore.Rot.Weighted>
4.4861

> <Gold.Chemscore.Internal.Correction.Weighted>
   9.000000E+99

> <Gold.Protein.RotatedTorsions>
[ 6907 6896 6895 6894 ] final   92.55 input  -60.11 | X-H torsion
[ 7974 7965 7964 7962 ] final   64.68 input  175.53 | X-H torsion
[ 8008 7997 7996 7995 ] final   85.52 input   59.86 | X-H torsion
[ 10167 10162 10161 10158 ] final  -81.87 input  -65.29 | X-H torsion
[ 10718 10713 10712 10709 ] final  173.56 input   66.30 | X-H torsion
[ 10763 10752 10751 10750 ] final  105.74 input  -60.55 | X-H torsion
[ 11005 11000 10999 10996 ] final -176.44 input  -57.11 | X-H torsion

> <Gold.Protein.ActiveResidues>
 VAL166  LYS551  ARG553  GLY616  TRP617  ASP618  TYR619  PRO620  LYS621  CYS622 
 ASP623  PHE694  ASN695  SER759  ASP760  ASP761  ALA762  ILE779  LEU786  VAL792 
 PHE793  MET794  SER795  GLU796  ALA797  LYS798  CYS799  TRP800  GLU811  SER814 

> <Gold.Protein.RotatedAtoms>
  152.5452  134.1485  159.8508 H   0  0  0  0  0  0  0  0  0  0  0  0  # atno 6907 bound_to 6896
  151.1514  133.4897  159.2602 H   0  0  0  0  0  0  0  0  0  0  0  0  # atno 6908 bound_to 6896
  151.1468  135.0218  159.8705 H   0  0  0  0  0  0  0  0  0  0  0  0  # atno 6909 bound_to 6896
  145.8473  139.3232  143.0896 H   0  0  0  0  0  0  0  0  0  0  0  0  # atno 7974 bound_to 7965
  155.9511  140.3401  155.6408 H   0  0  0  0  0  0  0  0  0  0  0  0  # atno 8008 bound_to 7997
  155.6919  140.0750  157.2463 H   0  0  0  0  0  0  0  0  0  0  0  0  # atno 8009 bound_to 7997
  154.4122  140.1655  156.2083 H   0  0  0  0  0  0  0  0  0  0  0  0  # atno 8010 bound_to 7997
  140.4372  143.2527  151.8676 H   0  0  0  0  0  0  0  0  0  0  0  0  # atno 10167 bound_to 10162
  156.9625  131.0065  151.2924 H   0  0  0  0  0  0  0  0  0  0  0  0  # atno 10718 bound_to 10713
  153.3835  135.3900  155.1873 H   0  0  0  0  0  0  0  0  0  0  0  0  # atno 10763 bound_to 10752
  154.8710  135.3731  154.4827 H   0  0  0  0  0  0  0  0  0  0  0  0  # atno 10764 bound_to 10752
  153.5306  135.7086  153.5746 H   0  0  0  0  0  0  0  0  0  0  0  0  # atno 10765 bound_to 10752
  140.4521  134.6333  157.4806 H   0  0  0  0  0  0  0  0  0  0  0  0  # atno 11005 bound_to 11000
  145.9397  140.8988  143.0314 LP  0  0  0  0  0  0  0  0  0  0  0  0  # atno 17320 bound_to 7965
  144.6730  140.1532  143.7428 LP  0  0  0  0  0  0  0  0  0  0  0  0  # atno 17321 bound_to 7965
  139.4787  144.5269  151.8722 LP  0  0  0  0  0  0  0  0  0  0  0  0  # atno 17342 bound_to 10162
  140.4359  144.2052  150.5889 LP  0  0  0  0  0  0  0  0  0  0  0  0  # atno 17343 bound_to 10162
  157.5648  130.8270  149.8312 LP  0  0  0  0  0  0  0  0  0  0  0  0  # atno 17370 bound_to 10713
  156.0316  130.3763  150.1672 LP  0  0  0  0  0  0  0  0  0  0  0  0  # atno 17371 bound_to 10713
  140.0000  134.6851  155.9546 LP  0  0  0  0  0  0  0  0  0  0  0  0  # atno 17394 bound_to 11000
  141.1659  133.6537  156.4479 LP  0  0  0  0  0  0  0  0  0  0  0  0  # atno 17395 bound_to 11000

$$$$
