AV-unprocessed.smi:774|AV-procd|sdf|3693|dock3
  -GOLD-   22720 1113D 1   1.00000     0.00000
 Structure written by MMmdl.
 37 38  0  0  0  0  0  0  0  0  1 V2000
  151.3223  139.4833  155.2625 C   0  0  0  0  0  0  0  0  0  0  0  0
  150.0257  139.3025  154.4689 C   0  0  0  0  0  0  0  0  0  0  0  0
  149.1743  140.8845  154.2199 S   0  0  0  0  0  0  0  0  0  0  0  0
  147.4776  140.3024  153.9359 C   0  0  2  0  0  0  0  0  0  0  0  0
  147.0040  139.2907  154.9780 C   0  0  0  0  0  0  0  0  0  0  0  0
  145.8320  138.5788  154.3019 C   0  0  0  0  0  0  0  0  0  0  0  0
  146.1366  138.5970  152.7904 C   0  0  2  0  0  0  0  0  0  0  0  0
  146.4609  137.2628  152.2918 N   0  0  0  0  0  0  0  0  0  0  0  0
  145.5668  136.2964  152.0394 C   0  0  0  0  0  0  0  0  0  0  0  0
  144.3555  136.4308  152.2129 O   0  0  0  0  0  0  0  0  0  0  0  0
  146.1709  135.1784  151.6017 N   0  0  0  0  0  0  0  0  0  0  0  0
  145.5770  133.9457  151.2177 C   0  0  0  0  0  0  0  0  0  0  0  0
  144.1716  133.8924  151.1150 C   0  0  0  0  0  0  0  0  0  0  0  0
  143.5552  132.6792  150.7539 C   0  0  0  0  0  0  0  0  0  0  0  0
  144.3729  131.5573  150.5177 C   0  0  0  0  0  0  0  0  0  0  0  0
  145.7178  131.5860  150.6266 N   0  0  0  0  0  0  0  0  0  0  0  0
  146.3029  132.7536  150.9714 C   0  0  0  0  0  0  0  0  0  0  0  0
  147.3276  139.5563  152.6067 C   0  0  0  0  0  0  0  0  0  0  0  0
  151.8256  138.5272  155.4073 H   0  0  0  0  0  0  0  0  0  0  0  0
  151.1245  139.9080  156.2470 H   0  0  0  0  0  0  0  0  0  0  0  0
  152.0126  140.1478  154.7422 H   0  0  0  0  0  0  0  0  0  0  0  0
  150.2439  138.8565  153.4985 H   0  0  0  0  0  0  0  0  0  0  0  0
  149.3587  138.6198  154.9960 H   0  0  0  0  0  0  0  0  0  0  0  0
  146.8043  141.1607  153.9346 H   0  0  0  0  0  0  0  0  0  0  0  0
  147.7962  138.5708  155.1885 H   0  0  0  0  0  0  0  0  0  0  0  0
  146.7168  139.7568  155.9208 H   0  0  0  0  0  0  0  0  0  0  0  0
  145.6794  137.5764  154.7044 H   0  0  0  0  0  0  0  0  0  0  0  0
  144.9150  139.1393  154.4885 H   0  0  0  0  0  0  0  0  0  0  0  0
  145.2717  138.9893  152.2516 H   0  0  0  0  0  0  0  0  0  0  0  0
  147.4371  137.0637  152.1279 H   0  0  0  0  0  0  0  0  0  0  0  0
  147.1801  135.1937  151.5924 H   0  0  0  0  0  0  0  0  0  0  0  0
  143.5708  134.7699  151.3059 H   0  0  0  0  0  0  0  0  0  0  0  0
  142.4815  132.6099  150.6615 H   0  0  0  0  0  0  0  0  0  0  0  0
  143.9349  130.6102  150.2392 H   0  0  0  0  0  0  0  0  0  0  0  0
  147.3763  132.7069  151.0684 H   0  0  0  0  0  0  0  0  0  0  0  0
  147.1793  140.2402  151.7703 H   0  0  0  0  0  0  0  0  0  0  0  0
  148.2398  138.9929  152.4015 H   0  0  0  0  0  0  0  0  0  0  0  0
  1  2  1  0  0  0  0
  1 19  1  0  0  0  0
  1 20  1  0  0  0  0
  1 21  1  0  0  0  0
  2  3  1  0  0  0  0
  2 22  1  0  0  0  0
  2 23  1  0  0  0  0
  3  4  1  0  0  0  0
  4 18  1  0  0  0  0
  4  5  1  0  0  0  0
  4 24  1  0  0  0  0
  5  6  1  0  0  0  0
  5 25  1  0  0  0  0
  5 26  1  0  0  0  0
  6  7  1  0  0  0  0
  6 27  1  0  0  0  0
  6 28  1  0  0  0  0
  7  8  1  0  0  0  0
  7 18  1  0  0  0  0
  7 29  1  0  0  0  0
  8  9  1  0  0  0  0
  8 30  1  0  0  0  0
  9 10  2  0  0  0  0
  9 11  1  0  0  0  0
 11 12  1  0  0  0  0
 11 31  1  0  0  0  0
 12 17  1  0  0  0  0
 12 13  2  0  0  0  0
 13 14  1  0  0  0  0
 13 32  1  0  0  0  0
 14 15  2  0  0  0  0
 14 33  1  0  0  0  0
 15 16  1  0  0  0  0
 15 34  1  0  0  0  0
 16 17  2  0  0  0  0
 17 35  1  0  0  0  0
 18 36  1  0  0  0  0
 18 37  1  0  0  0  0
M  END
> <s_m_source_file>
AV-unprocessed.smi

> <i_m_source_file_index>
774

> <i_lp_mmshare_version>
43012

> <i_f3d_flags>
0

> <s_epik_input>
W0NIM11bQ0gyXVNbQ0BASF0xW0NIMl1bQ0gyXVtDQEhdKFtDSDJdMSlbTkhdQyg9TylbTkhdYzJbY0hdW2NIXVtjSF1uW2NIXTI=

> <s_epik_cmdline>
J2VwaWtfcHl0aG9uJywgJy1waCcsICc3LjAnLCAnLXRuJywgJzgnLCAnLW1hJywgJzIwMCcsICctbWV0YWxfYmluZGluZycsICctaW1hZScsICc8aW5maWxlLm1hZT4nLCAnLW9tYWUnLCAnPG91dGZpbGUubWFlPic=

> <r_epik_Ionization_Penalty>
0.00485718

> <r_epik_Ionization_Penalty_Charging>
0

> <r_epik_Ionization_Penalty_Neutral>
0.00485718

> <r_epik_State_Penalty>
0.00349461

> <r_epik_Charging_Adjusted_Penalty>
0.00349461

> <i_epik_Tot_Q>
0

> <i_epik_Tot_abs_Q>
0

> <r_epik_Metal_State_Penalty>
-0

> <b_epik_Metal_Only>
0

> <s_lp_Force_Field>
OPLS_2005

> <r_lp_Energy>
20.2727

> <b_lp_Chiralities_Consistent>
1

> <s_lp_Variant>
AV-unprocessed.smi:774-3

> <Gold.Version>
5.8.1

> <Gold.Id.Protein>
6NUR|6NUR_protein|mol2

> <Gold.PLP.Fitness>
38.9054

> <Gold.PLP.PLP>
-30.7320

> <Gold.PLP.part.hbond>
-2.0000

> <Gold.PLP.part.metal>
0.0000

> <Gold.PLP.part.buried>
-2.8793

> <Gold.PLP.part.nonpolar>
-26.8809

> <Gold.PLP.part.repulsive>
0.3301

> <Gold.PLP.ligand.clash>
0.0000

> <Gold.PLP.ligand.torsion>
0.4026

> <Gold.PLP.Chemscore.Hbond>
2.0000

> <Gold.PLP.Chemscore.CHOScore>
0.9890

> <Gold.PLP.Chemscore.Metal>
0.0000

> <Gold.Chemscore.Hbonds>
donor molecule, donor type, donor heavy atom, donor atom, acceptor molecule, acceptor atom, score
      L1  H     8    30       P1  7948  1.00
      L1  H    11    31       P1  7948  1.00
      L1  C    17    35       P1 10747  0.89

> <Gold.PLP.Chemscore.Internal.Correction>
0.0118

> <Gold.Rescore>
     Score         DG    S(hbond)    S(metal)    S(lipo)     H(rot)  DE(clash)    DE(int)     intcor
     16.04     -17.94       1.92        0.00      80.20       1.30       0.03       1.88       ----

> <Gold.Chemscore.Fitness>
16.0360

> <Gold.Chemscore.DG>
-17.9448

> <Gold.Chemscore.ZeroCoef>
-5.4800

> <Gold.Chemscore.Hbond>
1.9220

> <Gold.Chemscore.Metal>
0.0000

> <Gold.Chemscore.Lipo>
80.2018

> <Gold.Chemscore.Internal_Hbond>
0.0000

> <Gold.Chemscore.DEClash>
0.0276

> <Gold.Chemscore.DEInternal>
1.8812

> <Gold.Chemscore.Rot>
1.3041

> <Gold.Chemscore.Internal.Correction>
   9.000000E+99

> <Gold.Chemscore.Hbonds>
donor molecule, donor type, donor heavy atom, donor atom, acceptor molecule, acceptor atom, score
      L1  H     8    30       P1  7948  1.00
      L1  H    11    31       P1  7948  0.83

> <Gold.Chemscore.Hbond.Weighted>
-6.4196

> <Gold.Chemscore.Metal.Weighted>
-0.0000

> <Gold.Chemscore.Lipo.Weighted>
-9.3836

> <Gold.Chemscore.Internal_Hbond.Weighted>
0.0000

> <Gold.Chemscore.DEClash.Weighted>
0.0276

> <Gold.Chemscore.DEInternal.Weighted>
1.8812

> <Gold.Chemscore.Rot.Weighted>
3.3384

> <Gold.Chemscore.Internal.Correction.Weighted>
   9.000000E+99

> <Gold.Protein.RotatedTorsions>
[ 6907 6896 6895 6894 ] final -153.02 input  -60.11 | X-H torsion
[ 7974 7965 7964 7962 ] final  -70.06 input  175.53 | X-H torsion
[ 8008 7997 7996 7995 ] final   96.37 input   59.86 | X-H torsion
[ 10167 10162 10161 10158 ] final   96.22 input  -65.29 | X-H torsion
[ 10718 10713 10712 10709 ] final  -49.98 input   66.30 | X-H torsion
[ 10763 10752 10751 10750 ] final   92.58 input  -60.55 | X-H torsion
[ 11005 11000 10999 10996 ] final  167.15 input  -57.11 | X-H torsion

> <Gold.Protein.ActiveResidues>
 VAL166  LYS551  ARG553  GLY616  TRP617  ASP618  TYR619  PRO620  LYS621  CYS622 
 ASP623  PHE694  ASN695  SER759  ASP760  ASP761  ALA762  ILE779  LEU786  VAL792 
 PHE793  MET794  SER795  GLU796  ALA797  LYS798  CYS799  TRP800  GLU811  SER814 

> <Gold.Protein.RotatedAtoms>
  151.2363  133.4423  159.2605 H   0  0  0  0  0  0  0  0  0  0  0  0  # atno 6907 bound_to 6896
  151.0747  134.9820  159.8336 H   0  0  0  0  0  0  0  0  0  0  0  0  # atno 6908 bound_to 6896
  152.5417  134.2307  159.8876 H   0  0  0  0  0  0  0  0  0  0  0  0  # atno 6909 bound_to 6896
  145.6958  140.9136  143.0757 H   0  0  0  0  0  0  0  0  0  0  0  0  # atno 7974 bound_to 7965
  156.0789  140.3273  155.7669 H   0  0  0  0  0  0  0  0  0  0  0  0  # atno 8008 bound_to 7997
  155.5184  140.0583  157.2928 H   0  0  0  0  0  0  0  0  0  0  0  0  # atno 8009 bound_to 7997
  154.4571  140.1948  156.0366 H   0  0  0  0  0  0  0  0  0  0  0  0  # atno 8010 bound_to 7997
  139.7914  144.6850  150.9887 H   0  0  0  0  0  0  0  0  0  0  0  0  # atno 10167 bound_to 10162
  156.1843  130.4151  149.9462 H   0  0  0  0  0  0  0  0  0  0  0  0  # atno 10718 bound_to 10713
  153.2207  135.4356  155.0486 H   0  0  0  0  0  0  0  0  0  0  0  0  # atno 10763 bound_to 10752
  154.8248  135.3355  154.6931 H   0  0  0  0  0  0  0  0  0  0  0  0  # atno 10764 bound_to 10752
  153.7363  135.7007  153.5033 H   0  0  0  0  0  0  0  0  0  0  0  0  # atno 10765 bound_to 10752
  140.2738  134.7805  157.3698 H   0  0  0  0  0  0  0  0  0  0  0  0  # atno 11005 bound_to 11000
  144.6983  139.8881  143.7451 LP  0  0  0  0  0  0  0  0  0  0  0  0  # atno 17320 bound_to 7965
  146.0842  139.3830  143.0446 LP  0  0  0  0  0  0  0  0  0  0  0  0  # atno 17321 bound_to 7965
  140.7820  143.4376  151.0599 LP  0  0  0  0  0  0  0  0  0  0  0  0  # atno 17342 bound_to 10162
  139.8053  143.8027  152.3167 LP  0  0  0  0  0  0  0  0  0  0  0  0  # atno 17343 bound_to 10162
  156.7223  130.9011  151.3619 LP  0  0  0  0  0  0  0  0  0  0  0  0  # atno 17370 bound_to 10713
  157.6888  130.9213  150.0459 LP  0  0  0  0  0  0  0  0  0  0  0  0  # atno 17371 bound_to 10713
  140.1348  134.5048  155.8077 LP  0  0  0  0  0  0  0  0  0  0  0  0  # atno 17394 bound_to 11000
  141.2173  133.6803  156.7104 LP  0  0  0  0  0  0  0  0  0  0  0  0  # atno 17395 bound_to 11000

$$$$
