AV-unprocessed.smi:1150|AV-procd|sdf|4894|dock3
  -GOLD-   22720 3463D 1   1.00000     0.00000
 Structure written by MMmdl.
 50 51  0  0  0  0  0  0  0  0  1 V2000
  151.6299  137.9118  154.4738 C   0  0  0  0  0  0  0  0  0  0  0  0
  152.0027  139.1250  155.3420 C   0  0  0  0  0  0  0  0  0  0  0  0
  150.7956  139.9818  155.7940 C   0  0  1  0  0  0  0  0  0  0  0  0
  151.2937  141.2786  156.2553 N   0  0  0  0  0  0  0  0  0  0  0  0
  151.1345  141.8001  157.4829 C   0  0  0  0  0  0  0  0  0  0  0  0
  150.4614  141.2742  158.3688 O   0  0  0  0  0  0  0  0  0  0  0  0
  151.8649  143.1142  157.7562 C   0  0  0  0  0  0  0  0  0  0  0  0
  152.1507  143.2278  159.2332 C   0  0  0  0  0  0  0  0  0  0  0  0
  151.7749  144.2908  160.1065 C   0  0  0  0  0  0  0  0  0  0  0  0
  151.0159  145.5432  159.7728 C   0  0  0  0  0  0  0  0  0  0  0  0
  152.1587  144.0789  161.3542 N   0  0  0  0  0  0  0  0  0  0  0  0
  152.7833  142.8851  161.3242 N   0  0  0  0  0  0  0  0  0  0  0  0
  153.3352  142.3428  162.5504 C   0  0  0  0  0  0  0  0  0  0  0  0
  152.7979  142.3424  160.0540 C   0  0  0  0  0  0  0  0  0  0  0  0
  153.4260  141.0175  159.7631 C   0  0  0  0  0  0  0  0  0  0  0  0
  149.7221  140.1799  154.6849 C   0  0  0  0  0  0  0  0  0  0  0  0
  148.8758  141.4597  154.9087 C   0  0  0  0  0  0  0  0  0  0  0  0
  147.8086  141.6567  153.8205 C   0  0  0  0  0  0  0  0  0  0  0  0
  146.8887  140.4343  153.7160 C   0  0  0  0  0  0  0  0  0  0  0  0
  147.7072  139.1618  153.4657 C   0  0  0  0  0  0  0  0  0  0  0  0
  148.7772  138.9600  154.5513 C   0  0  0  0  0  0  0  0  0  0  0  0
  152.5258  137.4051  154.1149 H   0  0  0  0  0  0  0  0  0  0  0  0
  151.0490  138.2155  153.6027 H   0  0  0  0  0  0  0  0  0  0  0  0
  151.0440  137.1789  155.0291 H   0  0  0  0  0  0  0  0  0  0  0  0
  152.5575  138.7803  156.2155 H   0  0  0  0  0  0  0  0  0  0  0  0
  152.6937  139.7349  154.7619 H   0  0  0  0  0  0  0  0  0  0  0  0
  150.3205  139.4575  156.6252 H   0  0  0  0  0  0  0  0  0  0  0  0
  151.8630  141.7967  155.6020 H   0  0  0  0  0  0  0  0  0  0  0  0
  152.7777  143.1450  157.1607 H   0  0  0  0  0  0  0  0  0  0  0  0
  151.2513  143.9449  157.4062 H   0  0  0  0  0  0  0  0  0  0  0  0
  149.9480  145.3390  159.6948 H   0  0  0  0  0  0  0  0  0  0  0  0
  151.3440  145.9598  158.8206 H   0  0  0  0  0  0  0  0  0  0  0  0
  151.1537  146.3131  160.5327 H   0  0  0  0  0  0  0  0  0  0  0  0
  153.0502  141.2956  162.6534 H   0  0  0  0  0  0  0  0  0  0  0  0
  152.9623  142.8923  163.4160 H   0  0  0  0  0  0  0  0  0  0  0  0
  154.4224  142.4161  162.5246 H   0  0  0  0  0  0  0  0  0  0  0  0
  153.3322  140.7544  158.7100 H   0  0  0  0  0  0  0  0  0  0  0  0
  152.9501  140.2279  160.3447 H   0  0  0  0  0  0  0  0  0  0  0  0
  154.4874  141.0297  160.0113 H   0  0  0  0  0  0  0  0  0  0  0  0
  150.2454  140.2971  153.7343 H   0  0  0  0  0  0  0  0  0  0  0  0
  148.3935  141.4123  155.8861 H   0  0  0  0  0  0  0  0  0  0  0  0
  149.5097  142.3462  154.9238 H   0  0  0  0  0  0  0  0  0  0  0  0
  147.2177  142.5472  154.0372 H   0  0  0  0  0  0  0  0  0  0  0  0
  148.2938  141.8335  152.8597 H   0  0  0  0  0  0  0  0  0  0  0  0
  146.3139  140.3270  154.6369 H   0  0  0  0  0  0  0  0  0  0  0  0
  146.1656  140.5780  152.9126 H   0  0  0  0  0  0  0  0  0  0  0  0
  147.0452  138.2959  153.4328 H   0  0  0  0  0  0  0  0  0  0  0  0
  148.1861  139.2216  152.4874 H   0  0  0  0  0  0  0  0  0  0  0  0
  149.3388  138.0613  154.3009 H   0  0  0  0  0  0  0  0  0  0  0  0
  148.2913  138.7651  155.5083 H   0  0  0  0  0  0  0  0  0  0  0  0
  1  2  1  0  0  0  0
  1 22  1  0  0  0  0
  1 23  1  0  0  0  0
  1 24  1  0  0  0  0
  2  3  1  0  0  0  0
  2 25  1  0  0  0  0
  2 26  1  0  0  0  0
  3  4  1  0  0  0  0
  3 16  1  0  0  0  0
  3 27  1  0  0  0  0
  4  5  1  0  0  0  0
  4 28  1  0  0  0  0
  5  6  2  0  0  0  0
  5  7  1  0  0  0  0
  7  8  1  0  0  0  0
  7 29  1  0  0  0  0
  7 30  1  0  0  0  0
  8 14  2  0  0  0  0
  8  9  1  0  0  0  0
  9 10  1  0  0  0  0
  9 11  2  0  0  0  0
 10 31  1  0  0  0  0
 10 32  1  0  0  0  0
 10 33  1  0  0  0  0
 11 12  1  0  0  0  0
 12 13  1  0  0  0  0
 12 14  1  0  0  0  0
 13 34  1  0  0  0  0
 13 35  1  0  0  0  0
 13 36  1  0  0  0  0
 14 15  1  0  0  0  0
 15 37  1  0  0  0  0
 15 38  1  0  0  0  0
 15 39  1  0  0  0  0
 16 21  1  0  0  0  0
 16 17  1  0  0  0  0
 16 40  1  0  0  0  0
 17 18  1  0  0  0  0
 17 41  1  0  0  0  0
 17 42  1  0  0  0  0
 18 19  1  0  0  0  0
 18 43  1  0  0  0  0
 18 44  1  0  0  0  0
 19 20  1  0  0  0  0
 19 45  1  0  0  0  0
 19 46  1  0  0  0  0
 20 21  1  0  0  0  0
 20 47  1  0  0  0  0
 20 48  1  0  0  0  0
 21 49  1  0  0  0  0
 21 50  1  0  0  0  0
M  END
> <s_m_source_file>
AV-unprocessed.smi

> <i_m_source_file_index>
1150

> <i_lp_mmshare_version>
43012

> <i_f3d_flags>
0

> <s_epik_input>
W0NIMl0xW0NIMl1bQ0gyXVtDSDJdW0NIMl1bQ0hdMVtDQEhdKFtDSDJdW0NIM10pW05IXUMoPU8pW0NIMl1jMmMoW0NIM10pbm4oW0NIM10pYzJbQ0gzXQ==

> <s_epik_cmdline>
J2VwaWtfcHl0aG9uJywgJy1waCcsICc3LjAnLCAnLXRuJywgJzgnLCAnLW1hJywgJzIwMCcsICctbWV0YWxfYmluZGluZycsICctaW1hZScsICc8aW5maWxlLm1hZT4nLCAnLW9tYWUnLCAnPG91dGZpbGUubWFlPic=

> <r_lp_tautomer_probability>
1

> <r_epik_Ionization_Penalty>
0.00328092

> <r_epik_Ionization_Penalty_Charging>
0

> <r_epik_Ionization_Penalty_Neutral>
0.00328092

> <r_epik_State_Penalty>
0.00231765

> <r_epik_Charging_Adjusted_Penalty>
0.00231765

> <i_epik_Tot_Q>
0

> <i_epik_Tot_abs_Q>
0

> <r_epik_Metal_State_Penalty>
-0

> <b_epik_Metal_Only>
0

> <s_lp_Force_Field>
OPLS_2005

> <r_lp_Energy>
7.94886

> <b_lp_Chiralities_Consistent>
1

> <s_lp_Variant>
AV-unprocessed.smi:1150-2

> <Gold.Version>
5.8.1

> <Gold.Id.Protein>
6NUR|6NUR_protein|mol2

> <Gold.PLP.Fitness>
50.6478

> <Gold.PLP.PLP>
-52.7068

> <Gold.PLP.part.hbond>
0.0000

> <Gold.PLP.part.metal>
0.0000

> <Gold.PLP.part.buried>
-5.6709

> <Gold.PLP.part.nonpolar>
-47.6450

> <Gold.PLP.part.repulsive>
0.2967

> <Gold.PLP.ligand.clash>
0.0000

> <Gold.PLP.ligand.torsion>
1.0572

> <Gold.PLP.Chemscore.Hbond>
0.0000

> <Gold.PLP.Chemscore.CHOScore>
0.0000

> <Gold.PLP.Chemscore.Metal>
0.0000

> <Gold.PLP.Chemscore.Internal.Correction>
0.0555

> <Gold.Rescore>
     Score         DG    S(hbond)    S(metal)    S(lipo)     H(rot)  DE(clash)    DE(int)     intcor
     16.76     -18.15       0.00        0.00     139.26       1.42       0.32       1.07       ----

> <Gold.Chemscore.Fitness>
16.7553

> <Gold.Chemscore.DG>
-18.1452

> <Gold.Chemscore.ZeroCoef>
-5.4800

> <Gold.Chemscore.Hbond>
0.0000

> <Gold.Chemscore.Metal>
0.0000

> <Gold.Chemscore.Lipo>
139.2633

> <Gold.Chemscore.Internal_Hbond>
0.0000

> <Gold.Chemscore.DEClash>
0.3208

> <Gold.Chemscore.DEInternal>
1.0691

> <Gold.Chemscore.Rot>
1.4174

> <Gold.Chemscore.Internal.Correction>
   9.000000E+99

> <Gold.Chemscore.Hbond.Weighted>
-0.0000

> <Gold.Chemscore.Metal.Weighted>
-0.0000

> <Gold.Chemscore.Lipo.Weighted>
-16.2938

> <Gold.Chemscore.Internal_Hbond.Weighted>
0.0000

> <Gold.Chemscore.DEClash.Weighted>
0.3208

> <Gold.Chemscore.DEInternal.Weighted>
1.0691

> <Gold.Chemscore.Rot.Weighted>
3.6286

> <Gold.Chemscore.Internal.Correction.Weighted>
   9.000000E+99

> <Gold.Protein.RotatedTorsions>
[ 6907 6896 6895 6894 ] final  -71.90 input  -60.11 | X-H torsion
[ 7974 7965 7964 7962 ] final  -88.35 input  175.53 | X-H torsion
[ 8008 7997 7996 7995 ] final   42.49 input   59.86 | X-H torsion
[ 10167 10162 10161 10158 ] final   77.35 input  -65.29 | X-H torsion
[ 10718 10713 10712 10709 ] final -140.60 input   66.30 | X-H torsion
[ 10763 10752 10751 10750 ] final  -75.33 input  -60.55 | X-H torsion
[ 11005 11000 10999 10996 ] final -178.85 input  -57.11 | X-H torsion

> <Gold.Protein.ActiveResidues>
 VAL166  LYS551  ARG553  GLY616  TRP617  ASP618  TYR619  PRO620  LYS621  CYS622 
 ASP623  PHE694  ASN695  SER759  ASP760  ASP761  ALA762  ILE779  LEU786  VAL792 
 PHE793  MET794  SER795  GLU796  ALA797  LYS798  CYS799  TRP800  GLU811  SER814 

> <Gold.Protein.RotatedAtoms>
  150.7192  134.5241  159.5667 H   0  0  0  0  0  0  0  0  0  0  0  0  # atno 6907 bound_to 6896
  152.2790  134.7847  160.0409 H   0  0  0  0  0  0  0  0  0  0  0  0  # atno 6908 bound_to 6896
  151.8500  133.3403  159.3707 H   0  0  0  0  0  0  0  0  0  0  0  0  # atno 6909 bound_to 6896
  145.4543  140.9561  143.2005 H   0  0  0  0  0  0  0  0  0  0  0  0  # atno 7974 bound_to 7965
  155.2870  140.3376  155.4254 H   0  0  0  0  0  0  0  0  0  0  0  0  # atno 8008 bound_to 7997
  156.2063  140.1752  156.7832 H   0  0  0  0  0  0  0  0  0  0  0  0  # atno 8009 bound_to 7997
  154.5626  140.0684  156.8826 H   0  0  0  0  0  0  0  0  0  0  0  0  # atno 8010 bound_to 7997
  139.9825  144.5816  150.7888 H   0  0  0  0  0  0  0  0  0  0  0  0  # atno 10167 bound_to 10162
  156.3242  130.7551  151.1655 H   0  0  0  0  0  0  0  0  0  0  0  0  # atno 10718 bound_to 10713
  154.4851  135.5835  153.6418 H   0  0  0  0  0  0  0  0  0  0  0  0  # atno 10763 bound_to 10752
  152.9853  135.6099  154.3197 H   0  0  0  0  0  0  0  0  0  0  0  0  # atno 10764 bound_to 10752
  154.3092  135.2845  155.2553 H   0  0  0  0  0  0  0  0  0  0  0  0  # atno 10765 bound_to 10752
  140.4252  134.6569  157.4684 H   0  0  0  0  0  0  0  0  0  0  0  0  # atno 11005 bound_to 11000
  144.8042  139.6083  143.7058 LP  0  0  0  0  0  0  0  0  0  0  0  0  # atno 17320 bound_to 7965
  146.2486  139.6152  142.9442 LP  0  0  0  0  0  0  0  0  0  0  0  0  # atno 17321 bound_to 7965
  140.7484  143.2922  151.3301 LP  0  0  0  0  0  0  0  0  0  0  0  0  # atno 17342 bound_to 10162
  139.6399  144.0558  152.2546 LP  0  0  0  0  0  0  0  0  0  0  0  0  # atno 17343 bound_to 10162
  157.7418  131.0499  150.5072 LP  0  0  0  0  0  0  0  0  0  0  0  0  # atno 17370 bound_to 10713
  156.5228  130.4166  149.6241 LP  0  0  0  0  0  0  0  0  0  0  0  0  # atno 17371 bound_to 10713
  140.0172  134.6601  155.9292 LP  0  0  0  0  0  0  0  0  0  0  0  0  # atno 17394 bound_to 11000
  141.1768  133.6541  156.4860 LP  0  0  0  0  0  0  0  0  0  0  0  0  # atno 17395 bound_to 11000

$$$$
