AV-unprocessed.smi:1864|AV-procd|sdf|7552|dock3
  -GOLD-   22720 9263D 1   1.00000     0.00000
 Structure written by MMmdl.
 34 35  0  0  0  0  0  0  0  0  1 V2000
  147.0142  141.3825  153.7636 C   0  0  0  0  0  0  0  0  0  0  0  0
  148.3344  140.7714  154.0864 C   0  0  0  0  0  0  0  0  0  0  0  0
  149.4411  141.5037  154.1077 N   0  0  0  0  0  0  0  0  0  0  0  0
  150.4354  140.5766  154.4524 O   0  0  0  0  0  0  0  0  0  0  0  0
  149.8022  139.3857  154.5798 C   0  0  0  0  0  0  0  0  0  0  0  0
  150.5917  138.1897  154.9951 C   0  0  0  0  0  0  0  0  0  0  0  0
  152.0029  138.5599  155.4783 C   0  0  0  0  0  0  0  0  0  0  0  0
  151.9821  139.7104  156.3743 N   0  0  0  0  0  0  0  0  0  0  0  0
  152.3540  139.6922  157.6673 C   0  0  0  0  0  0  0  0  0  0  0  0
  152.7518  138.6742  158.2344 O   0  0  0  0  0  0  0  0  0  0  0  0
  152.2597  140.9882  158.3918 C   0  0  0  0  0  0  0  0  0  0  0  0
  152.6993  141.0861  159.6076 N   0  0  0  0  0  0  0  0  0  0  0  0
  152.6425  142.2705  160.3138 N   0  0  0  0  0  0  0  0  0  0  0  0
  153.4173  142.2836  161.5531 C   0  0  0  0  0  0  0  0  0  0  0  0
  151.9123  143.3533  159.9467 C   0  0  0  0  0  0  0  0  0  0  0  0
  151.8812  144.4058  160.5841 O   0  0  0  0  0  0  0  0  0  0  0  0
  151.0671  143.2077  158.6781 C   0  0  0  0  0  0  0  0  0  0  0  0
  151.6731  142.1947  157.6862 C   0  0  0  0  0  0  0  0  0  0  0  0
  148.4880  139.4509  154.3803 N   0  0  0  0  0  0  0  0  0  0  0  0
  147.0338  141.8183  152.7646 H   0  0  0  0  0  0  0  0  0  0  0  0
  146.7759  142.1677  154.4815 H   0  0  0  0  0  0  0  0  0  0  0  0
  146.2230  140.6329  153.7973 H   0  0  0  0  0  0  0  0  0  0  0  0
  150.0479  137.6710  155.7857 H   0  0  0  0  0  0  0  0  0  0  0  0
  150.6459  137.5023  154.1500 H   0  0  0  0  0  0  0  0  0  0  0  0
  152.4739  137.7087  155.9729 H   0  0  0  0  0  0  0  0  0  0  0  0
  152.6329  138.8100  154.6240 H   0  0  0  0  0  0  0  0  0  0  0  0
  151.6678  140.5881  155.9855 H   0  0  0  0  0  0  0  0  0  0  0  0
  154.1597  143.0831  161.5341 H   0  0  0  0  0  0  0  0  0  0  0  0
  153.9496  141.3444  161.7134 H   0  0  0  0  0  0  0  0  0  0  0  0
  152.7648  142.4426  162.4130 H   0  0  0  0  0  0  0  0  0  0  0  0
  150.0745  142.8740  158.9832 H   0  0  0  0  0  0  0  0  0  0  0  0
  150.9388  144.1786  158.1982 H   0  0  0  0  0  0  0  0  0  0  0  0
  152.4507  142.6758  157.0918 H   0  0  0  0  0  0  0  0  0  0  0  0
  150.8945  141.8904  156.9855 H   0  0  0  0  0  0  0  0  0  0  0  0
  1  2  1  0  0  0  0
  1 20  1  0  0  0  0
  1 21  1  0  0  0  0
  1 22  1  0  0  0  0
  2 19  1  0  0  0  0
  2  3  2  0  0  0  0
  3  4  1  0  0  0  0
  4  5  1  0  0  0  0
  5  6  1  0  0  0  0
  5 19  2  0  0  0  0
  6  7  1  0  0  0  0
  6 23  1  0  0  0  0
  6 24  1  0  0  0  0
  7  8  1  0  0  0  0
  7 25  1  0  0  0  0
  7 26  1  0  0  0  0
  8  9  1  0  0  0  0
  8 27  1  0  0  0  0
  9 10  2  0  0  0  0
  9 11  1  0  0  0  0
 11 18  1  0  0  0  0
 11 12  2  0  0  0  0
 12 13  1  0  0  0  0
 13 14  1  0  0  0  0
 13 15  1  0  0  0  0
 14 28  1  0  0  0  0
 14 29  1  0  0  0  0
 14 30  1  0  0  0  0
 15 16  2  0  0  0  0
 15 17  1  0  0  0  0
 17 18  1  0  0  0  0
 17 31  1  0  0  0  0
 17 32  1  0  0  0  0
 18 33  1  0  0  0  0
 18 34  1  0  0  0  0
M  END
> <s_m_source_file>
AV-unprocessed.smi

> <i_m_source_file_index>
1864

> <i_lp_mmshare_version>
43012

> <i_f3d_flags>
0

> <s_epik_input>
W0NIM11jMW5vYyhuMSlbQ0gyXVtDSDJdW05IXUMoPU8pQzI9Tk4oW0NIM10pQyg9TylbQ0gyXVtDSDJdMg==

> <s_epik_cmdline>
J2VwaWtfcHl0aG9uJywgJy1waCcsICc3LjAnLCAnLXRuJywgJzgnLCAnLW1hJywgJzIwMCcsICctbWV0YWxfYmluZGluZycsICctaW1hZScsICc8aW5maWxlLm1hZT4nLCAnLW9tYWUnLCAnPG91dGZpbGUubWFlPic=

> <r_lp_tautomer_probability>
1

> <r_epik_Ionization_Penalty>
0.00011851

> <r_epik_Ionization_Penalty_Charging>
0

> <r_epik_Ionization_Penalty_Neutral>
0.00011851

> <r_epik_State_Penalty>
-0

> <r_epik_Charging_Adjusted_Penalty>
0

> <i_epik_Tot_Q>
0

> <i_epik_Tot_abs_Q>
0

> <r_epik_Metal_State_Penalty>
0.091363

> <b_epik_Metal_Only>
0

> <s_epik_Chemistry_Notes>
This compound has an imine and may undergo hydrolysis.

> <s_lp_Force_Field>
OPLS_2005

> <r_lp_Energy>
12.468

> <b_lp_Chiralities_Consistent>
1

> <s_lp_Variant>
AV-unprocessed.smi:1864-1

> <Gold.Version>
5.8.1

> <Gold.Id.Protein>
6NUR|6NUR_protein|mol2

> <Gold.PLP.Fitness>
39.3707

> <Gold.PLP.PLP>
-34.9973

> <Gold.PLP.part.hbond>
-2.7643

> <Gold.PLP.part.metal>
0.0000

> <Gold.PLP.part.buried>
-5.2220

> <Gold.PLP.part.nonpolar>
-26.4835

> <Gold.PLP.part.repulsive>
0.6959

> <Gold.PLP.ligand.clash>
0.0000

> <Gold.PLP.ligand.torsion>
0.2202

> <Gold.PLP.Chemscore.Hbond>
1.6000

> <Gold.PLP.Chemscore.CHOScore>
0.0000

> <Gold.PLP.Chemscore.Metal>
0.0000

> <Gold.Chemscore.Hbonds>
donor molecule, donor type, donor heavy atom, donor atom, acceptor molecule, acceptor atom, score
      P1  H  7989  7998       L1     4  0.93
      P1  H  8011  8017       L1     3  0.64

> <Gold.PLP.Chemscore.Internal.Correction>
0.0138

> <Gold.Rescore>
     Score         DG    S(hbond)    S(metal)    S(lipo)     H(rot)  DE(clash)    DE(int)     intcor
     10.75     -11.20       1.12        0.00      56.33       1.80       0.13       0.32       ----

> <Gold.Chemscore.Fitness>
10.7481

> <Gold.Chemscore.DG>
-11.1962

> <Gold.Chemscore.ZeroCoef>
-5.4800

> <Gold.Chemscore.Hbond>
1.1203

> <Gold.Chemscore.Metal>
0.0000

> <Gold.Chemscore.Lipo>
56.3346

> <Gold.Chemscore.Internal_Hbond>
0.0000

> <Gold.Chemscore.DEClash>
0.1298

> <Gold.Chemscore.DEInternal>
0.3184

> <Gold.Chemscore.Rot>
1.8034

> <Gold.Chemscore.Internal.Correction>
   9.000000E+99

> <Gold.Chemscore.Hbonds>
donor molecule, donor type, donor heavy atom, donor atom, acceptor molecule, acceptor atom, score
      P1  H  7989  7998       L1     4  0.43
      P1  H  8011  8017       L1     3  0.44

> <Gold.Chemscore.Hbond.Weighted>
-3.7418

> <Gold.Chemscore.Metal.Weighted>
-0.0000

> <Gold.Chemscore.Lipo.Weighted>
-6.5912

> <Gold.Chemscore.Internal_Hbond.Weighted>
0.0000

> <Gold.Chemscore.DEClash.Weighted>
0.1298

> <Gold.Chemscore.DEInternal.Weighted>
0.3184

> <Gold.Chemscore.Rot.Weighted>
4.6167

> <Gold.Chemscore.Internal.Correction.Weighted>
   9.000000E+99

> <Gold.Protein.RotatedTorsions>
[ 6907 6896 6895 6894 ] final   25.95 input  -60.11 | X-H torsion
[ 7974 7965 7964 7962 ] final  135.31 input  175.53 | X-H torsion
[ 8008 7997 7996 7995 ] final -115.14 input   59.86 | X-H torsion
[ 10167 10162 10161 10158 ] final  108.34 input  -65.29 | X-H torsion
[ 10718 10713 10712 10709 ] final   88.09 input   66.30 | X-H torsion
[ 10763 10752 10751 10750 ] final   91.62 input  -60.55 | X-H torsion
[ 11005 11000 10999 10996 ] final  -35.95 input  -57.11 | X-H torsion

> <Gold.Protein.ActiveResidues>
 VAL166  LYS551  ARG553  GLY616  TRP617  ASP618  TYR619  PRO620  LYS621  CYS622 
 ASP623  PHE694  ASN695  SER759  ASP760  ASP761  ALA762  ILE779  LEU786  VAL792 
 PHE793  MET794  SER795  GLU796  ALA797  LYS798  CYS799  TRP800  GLU811  SER814 

> <Gold.Protein.RotatedAtoms>
  151.9802  135.0032  160.0556 H   0  0  0  0  0  0  0  0  0  0  0  0  # atno 6907 bound_to 6896
  152.1703  133.4634  159.4914 H   0  0  0  0  0  0  0  0  0  0  0  0  # atno 6908 bound_to 6896
  150.6900  134.1879  159.4317 H   0  0  0  0  0  0  0  0  0  0  0  0  # atno 6909 bound_to 6896
  144.9676  139.4640  143.5448 H   0  0  0  0  0  0  0  0  0  0  0  0  # atno 7974 bound_to 7965
  155.0473  140.0392  157.2531 H   0  0  0  0  0  0  0  0  0  0  0  0  # atno 8008 bound_to 7997
  154.7166  140.2703  155.6556 H   0  0  0  0  0  0  0  0  0  0  0  0  # atno 8009 bound_to 7997
  156.2805  140.2711  156.1825 H   0  0  0  0  0  0  0  0  0  0  0  0  # atno 8010 bound_to 7997
  139.6854  144.7114  151.1442 H   0  0  0  0  0  0  0  0  0  0  0  0  # atno 10167 bound_to 10162
  157.6946  131.0281  150.3223 H   0  0  0  0  0  0  0  0  0  0  0  0  # atno 10718 bound_to 10713
  153.2102  135.4391  155.0371 H   0  0  0  0  0  0  0  0  0  0  0  0  # atno 10763 bound_to 10752
  154.8196  135.3331  154.7080 H   0  0  0  0  0  0  0  0  0  0  0  0  # atno 10764 bound_to 10752
  153.7518  135.6997  153.5000 H   0  0  0  0  0  0  0  0  0  0  0  0  # atno 10765 bound_to 10752
  140.9837  133.7042  156.1727 H   0  0  0  0  0  0  0  0  0  0  0  0  # atno 11005 bound_to 11000
  146.3372  139.8868  142.8815 LP  0  0  0  0  0  0  0  0  0  0  0  0  # atno 17320 bound_to 7965
  145.2606  141.0076  143.3828 LP  0  0  0  0  0  0  0  0  0  0  0  0  # atno 17321 bound_to 7965
  140.7666  143.5637  150.9071 LP  0  0  0  0  0  0  0  0  0  0  0  0  # atno 17342 bound_to 10162
  139.9312  143.6491  152.3076 LP  0  0  0  0  0  0  0  0  0  0  0  0  # atno 17343 bound_to 10162
  156.3708  130.3863  149.7177 LP  0  0  0  0  0  0  0  0  0  0  0  0  # atno 17370 bound_to 10713
  156.4592  130.7943  151.2964 LP  0  0  0  0  0  0  0  0  0  0  0  0  # atno 17371 bound_to 10713
  140.7148  134.4423  157.5579 LP  0  0  0  0  0  0  0  0  0  0  0  0  # atno 17394 bound_to 11000
  139.8961  134.8667  156.2102 LP  0  0  0  0  0  0  0  0  0  0  0  0  # atno 17395 bound_to 11000

$$$$
