AV-unprocessed.smi:2027|AV-procd|sdf|8219|dock5
  -GOLD-   2272010483D 1   1.00000     0.00000
 Structure written by MMmdl.
 51 53  0  0  0  0  0  0  0  0  3 V2000
  151.5478  144.4673  160.5696 C   0  0  0  0  0  0  0  0  0  0  0  0
  151.4356  143.3263  159.5730 C   0  0  0  0  0  0  0  0  0  0  0  0
  150.6481  143.5171  158.4157 C   0  0  0  0  0  0  0  0  0  0  0  0
  150.5666  142.4565  157.5217 C   0  0  0  0  0  0  0  0  0  0  0  0
  149.8844  142.3356  156.3099 N   0  3  0  0  0  0  0  0  0  0  0  0
  150.1065  141.0996  155.7848 C   0  0  0  0  0  0  0  0  0  0  0  0
  150.9162  140.4244  156.6465 N   0  0  0  0  0  0  0  0  0  0  0  0
  151.4605  139.0593  156.5461 C   0  0  0  0  0  0  0  0  0  0  0  0
  151.1266  138.3466  155.2172 C   0  0  2  0  0  0  0  0  0  0  0  0
  151.6526  139.1033  154.1438 O   0  0  0  0  0  0  0  0  0  0  0  0
  149.6139  138.1413  154.9853 C   0  0  0  0  0  0  0  0  0  0  0  0
  149.2391  136.7193  154.7642 N   0  3  2  0  0  0  0  0  0  0  0  0
  147.8226  136.4630  155.1100 C   0  0  0  0  0  0  0  0  0  0  0  0
  150.1602  135.7317  155.3871 C   0  0  0  0  0  0  0  0  0  0  0  0
  149.7647  134.3314  155.0055 C   0  0  0  0  0  0  0  0  0  0  0  0
  150.1415  133.1089  155.6328 C   0  0  0  0  0  0  0  0  0  0  0  0
  149.6248  132.0454  155.0412 N   0  0  0  0  0  0  0  0  0  0  0  0
  148.8922  132.5477  154.0266 N   0  0  0  0  0  0  0  0  0  0  0  0
  148.1722  131.6465  153.1526 C   0  0  0  0  0  0  0  0  0  0  0  0
  148.9542  133.9236  153.9831 C   0  0  0  0  0  0  0  0  0  0  0  0
  151.2336  141.2353  157.7443 C   0  0  0  0  0  0  0  0  0  0  0  0
  152.0126  141.0314  158.8817 C   0  0  0  0  0  0  0  0  0  0  0  0
  152.1081  142.0984  159.8035 C   0  0  0  0  0  0  0  0  0  0  0  0
  152.9518  141.9041  161.0521 C   0  0  0  0  0  0  0  0  0  0  0  0
  151.0170  145.3541  160.2222 H   0  0  0  0  0  0  0  0  0  0  0  0
  152.5914  144.7434  160.7218 H   0  0  0  0  0  0  0  0  0  0  0  0
  151.1216  144.1782  161.5306 H   0  0  0  0  0  0  0  0  0  0  0  0
  150.1331  144.4496  158.2339 H   0  0  0  0  0  0  0  0  0  0  0  0
  149.7098  140.7222  154.8532 H   0  0  0  0  0  0  0  0  0  0  0  0
  152.5426  139.1378  156.6619 H   0  0  0  0  0  0  0  0  0  0  0  0
  151.1152  138.4700  157.3949 H   0  0  0  0  0  0  0  0  0  0  0  0
  151.6333  137.3831  155.2293 H   0  0  0  0  0  0  0  0  0  0  0  0
  151.9413  138.5076  153.4686 H   0  0  0  0  0  0  0  0  0  0  0  0
  149.0446  138.5342  155.8290 H   0  0  0  0  0  0  0  0  0  0  0  0
  149.3092  138.7219  154.1134 H   0  0  0  0  0  0  0  0  0  0  0  0
  147.6510  136.5989  156.1787 H   0  0  0  0  0  0  0  0  0  0  0  0
  147.5393  135.4443  154.8423 H   0  0  0  0  0  0  0  0  0  0  0  0
  147.1604  137.1389  154.5677 H   0  0  0  0  0  0  0  0  0  0  0  0
  151.1919  135.9447  155.1037 H   0  0  0  0  0  0  0  0  0  0  0  0
  150.1433  135.8322  156.4733 H   0  0  0  0  0  0  0  0  0  0  0  0
  150.7773  132.9630  156.4936 H   0  0  0  0  0  0  0  0  0  0  0  0
  147.5093  132.2114  152.4970 H   0  0  0  0  0  0  0  0  0  0  0  0
  147.5759  130.9516  153.7447 H   0  0  0  0  0  0  0  0  0  0  0  0
  148.8789  131.0830  152.5430 H   0  0  0  0  0  0  0  0  0  0  0  0
  148.4265  134.4933  153.2322 H   0  0  0  0  0  0  0  0  0  0  0  0
  152.5285  140.1004  159.0618 H   0  0  0  0  0  0  0  0  0  0  0  0
  153.3547  140.8924  161.1090 H   0  0  0  0  0  0  0  0  0  0  0  0
  152.3564  142.0747  161.9494 H   0  0  0  0  0  0  0  0  0  0  0  0
  153.7921  142.5986  161.0565 H   0  0  0  0  0  0  0  0  0  0  0  0
  149.3029  136.5692  153.7671 H   0  0  0  0  0  0  0  0  0  0  0  0
  149.3122  143.0447  155.8689 H   0  0  0  0  0  0  0  0  0  0  0  0
  1  2  1  0  0  0  0
  1 25  1  0  0  0  0
  1 26  1  0  0  0  0
  1 27  1  0  0  0  0
  2 23  1  0  0  0  0
  2  3  2  0  0  0  0
  3  4  1  0  0  0  0
  3 28  1  0  0  0  0
  4 21  2  0  0  0  0
  4  5  1  0  0  0  0
  5  6  2  0  0  0  0
  5 51  1  0  0  0  0
  6  7  1  0  0  0  0
  6 29  1  0  0  0  0
  7  8  1  0  0  0  0
  7 21  1  0  0  0  0
  8  9  1  0  0  0  0
  8 30  1  0  0  0  0
  8 31  1  0  0  0  0
  9 10  1  0  0  0  0
  9 11  1  0  0  0  0
  9 32  1  0  0  0  0
 10 33  1  0  0  0  0
 11 12  1  0  0  0  0
 11 34  1  0  0  0  0
 11 35  1  0  0  0  0
 12 13  1  0  0  0  0
 12 14  1  0  0  0  0
 12 50  1  0  0  0  0
 13 36  1  0  0  0  0
 13 37  1  0  0  0  0
 13 38  1  0  0  0  0
 14 15  1  0  0  0  0
 14 39  1  0  0  0  0
 14 40  1  0  0  0  0
 15 20  2  0  0  0  0
 15 16  1  0  0  0  0
 16 17  2  0  0  0  0
 16 41  1  0  0  0  0
 17 18  1  0  0  0  0
 18 19  1  0  0  0  0
 18 20  1  0  0  0  0
 19 42  1  0  0  0  0
 19 43  1  0  0  0  0
 19 44  1  0  0  0  0
 20 45  1  0  0  0  0
 21 22  1  0  0  0  0
 22 23  2  0  0  0  0
 22 46  1  0  0  0  0
 23 24  1  0  0  0  0
 24 47  1  0  0  0  0
 24 48  1  0  0  0  0
 24 49  1  0  0  0  0
M  CHG  1   5   1
M  CHG  1  12   1
M  END
> <s_m_source_file>
AV-unprocessed.smi

> <i_m_source_file_index>
2027

> <i_lp_mmshare_version>
43012

> <i_f3d_flags>
0

> <s_epik_input>
W0NIM11jKFtjSF0xKWMoW0NIM10pW2NIXWMoYzEyKW4oW2NIXW4yKVtDSDJdW0NASF0oW09IXSlbQ0gyXU4oW0NIM10pW0NIMl1jM1tjSF1ubihbQ0gzXSlbY0hdMw==

> <s_epik_cmdline>
J2VwaWtfcHl0aG9uJywgJy1waCcsICc3LjAnLCAnLXRuJywgJzgnLCAnLW1hJywgJzIwMCcsICctbWV0YWxfYmluZGluZycsICctaW1hZScsICc8aW5maWxlLm1hZT4nLCAnLW9tYWUnLCAnPG91dGZpbGUubWFlPic=

> <r_lp_tautomer_probability>
1

> <r_epik_Ionization_Penalty>
1.77469

> <r_epik_Ionization_Penalty_Charging>
1.77463

> <r_epik_Ionization_Penalty_Neutral>
6.41153e-05

> <r_epik_State_Penalty>
1.85225

> <r_epik_Charging_Adjusted_Penalty>
3.62688

> <i_epik_Tot_Q>
2

> <i_epik_Tot_abs_Q>
2

> <r_epik_Metal_State_Penalty>
1.92669

> <b_epik_Metal_Only>
0

> <s_lp_Force_Field>
OPLS_2005

> <r_lp_Energy>
22.3184

> <b_lp_Chiralities_Consistent>
1

> <s_lp_Variant>
AV-unprocessed.smi:2027-11

> <Gold.Version>
5.8.1

> <Gold.Id.Protein>
6NUR|6NUR_protein|mol2

> <Gold.PLP.Fitness>
62.9006

> <Gold.PLP.PLP>
-48.1030

> <Gold.PLP.part.hbond>
-3.0000

> <Gold.PLP.part.metal>
0.0000

> <Gold.PLP.part.buried>
-0.1995

> <Gold.PLP.part.nonpolar>
-44.1732

> <Gold.PLP.part.repulsive>
0.1394

> <Gold.PLP.ligand.clash>
0.0048

> <Gold.PLP.ligand.torsion>
1.3644

> <Gold.PLP.Chemscore.Hbond>
4.7680

> <Gold.PLP.Chemscore.CHOScore>
1.0000

> <Gold.PLP.Chemscore.Metal>
0.0000

> <Gold.Chemscore.Hbonds>
donor molecule, donor type, donor heavy atom, donor atom, acceptor molecule, acceptor atom, score
      L1  H     5    51       P1  8028  2.00
      L1  H    12    50       P1  7948  2.00
      P1  H  7989  7998       L1    10  0.96
      L1  C    20    45       P1  7948  1.00

> <Gold.PLP.Chemscore.Internal.Correction>
0.2273

> <Gold.Rescore>
     Score         DG    S(hbond)    S(metal)    S(lipo)     H(rot)  DE(clash)    DE(int)     intcor
     17.81     -21.74       2.66        0.00     119.66       2.58       1.45       2.48       ----

> <Gold.Chemscore.Fitness>
17.8125

> <Gold.Chemscore.DG>
-21.7434

> <Gold.Chemscore.ZeroCoef>
-5.4800

> <Gold.Chemscore.Hbond>
2.6578

> <Gold.Chemscore.Metal>
0.0000

> <Gold.Chemscore.Lipo>
119.6619

> <Gold.Chemscore.Internal_Hbond>
0.0000

> <Gold.Chemscore.DEClash>
1.4523

> <Gold.Chemscore.DEInternal>
2.4786

> <Gold.Chemscore.Rot>
2.5836

> <Gold.Chemscore.Internal.Correction>
   9.000000E+99

> <Gold.Chemscore.Hbonds>
donor molecule, donor type, donor heavy atom, donor atom, acceptor molecule, acceptor atom, score
      L1  H     5    51       P1  8028  0.94
      L1  H    12    50       P1  7948  0.94
      P1  H  7989  7998       L1    10  0.65

> <Gold.Chemscore.Hbond.Weighted>
-8.8769

> <Gold.Chemscore.Metal.Weighted>
-0.0000

> <Gold.Chemscore.Lipo.Weighted>
-14.0004

> <Gold.Chemscore.Internal_Hbond.Weighted>
0.0000

> <Gold.Chemscore.DEClash.Weighted>
1.4523

> <Gold.Chemscore.DEInternal.Weighted>
2.4786

> <Gold.Chemscore.Rot.Weighted>
6.6139

> <Gold.Chemscore.Internal.Correction.Weighted>
   9.000000E+99

> <Gold.Protein.RotatedTorsions>
[ 6907 6896 6895 6894 ] final   14.17 input  -60.11 | X-H torsion
[ 7974 7965 7964 7962 ] final  -40.88 input  175.53 | X-H torsion
[ 8008 7997 7996 7995 ] final  173.15 input   59.86 | X-H torsion
[ 10167 10162 10161 10158 ] final -167.39 input  -65.29 | X-H torsion
[ 10718 10713 10712 10709 ] final   63.06 input   66.30 | X-H torsion
[ 10763 10752 10751 10750 ] final -164.02 input  -60.55 | X-H torsion
[ 11005 11000 10999 10996 ] final  -39.24 input  -57.11 | X-H torsion

> <Gold.Protein.ActiveResidues>
 VAL166  LYS551  ARG553  GLY616  TRP617  ASP618  TYR619  PRO620  LYS621  CYS622 
 ASP623  PHE694  ASN695  SER759  ASP760  ASP761  ALA762  ILE779  LEU786  VAL792 
 PHE793  MET794  SER795  GLU796  ALA797  LYS798  CYS799  TRP800  GLU811  SER814 

> <Gold.Protein.RotatedAtoms>
  151.7979  135.0717  160.0395 H   0  0  0  0  0  0  0  0  0  0  0  0  # atno 6907 bound_to 6896
  152.3110  133.5748  159.5689 H   0  0  0  0  0  0  0  0  0  0  0  0  # atno 6908 bound_to 6896
  150.7320  134.0068  159.3698 H   0  0  0  0  0  0  0  0  0  0  0  0  # atno 6909 bound_to 6896
  146.0263  140.6787  142.9154 H   0  0  0  0  0  0  0  0  0  0  0  0  # atno 7974 bound_to 7965
  156.1104  140.1467  156.9347 H   0  0  0  0  0  0  0  0  0  0  0  0  # atno 8008 bound_to 7997
  154.4763  140.0893  156.7312 H   0  0  0  0  0  0  0  0  0  0  0  0  # atno 8009 bound_to 7997
  155.4607  140.3438  155.4314 H   0  0  0  0  0  0  0  0  0  0  0  0  # atno 8010 bound_to 7997
  139.6052  144.0927  152.1785 H   0  0  0  0  0  0  0  0  0  0  0  0  # atno 10167 bound_to 10162
  157.5944  130.9084  149.9667 H   0  0  0  0  0  0  0  0  0  0  0  0  # atno 10718 bound_to 10713
  154.7068  135.2998  154.9258 H   0  0  0  0  0  0  0  0  0  0  0  0  # atno 10763 bound_to 10752
  154.0173  135.6687  153.4774 H   0  0  0  0  0  0  0  0  0  0  0  0  # atno 10764 bound_to 10752
  153.0723  135.5054  154.8243 H   0  0  0  0  0  0  0  0  0  0  0  0  # atno 10765 bound_to 10752
  141.0087  133.6919  156.2160 H   0  0  0  0  0  0  0  0  0  0  0  0  # atno 11005 bound_to 11000
  144.7011  140.3656  143.7155 LP  0  0  0  0  0  0  0  0  0  0  0  0  # atno 17320 bound_to 7965
  145.7112  139.1685  143.2537 LP  0  0  0  0  0  0  0  0  0  0  0  0  # atno 17321 bound_to 7965
  140.0533  144.5915  150.7319 LP  0  0  0  0  0  0  0  0  0  0  0  0  # atno 17342 bound_to 10162
  140.7279  143.2657  151.4054 LP  0  0  0  0  0  0  0  0  0  0  0  0  # atno 17343 bound_to 10162
  156.1004  130.3656  150.0228 LP  0  0  0  0  0  0  0  0  0  0  0  0  # atno 17370 bound_to 10713
  156.8344  130.9404  151.3635 LP  0  0  0  0  0  0  0  0  0  0  0  0  # atno 17371 bound_to 10713
  140.6770  134.4808  157.5588 LP  0  0  0  0  0  0  0  0  0  0  0  0  # atno 17394 bound_to 11000
  139.9077  134.8412  156.1642 LP  0  0  0  0  0  0  0  0  0  0  0  0  # atno 17395 bound_to 11000

$$$$
