AV-unprocessed.smi:3301|AV-procd|sdf|12652|dock7
  -GOLD-   2272018583D 1   1.00000     0.00000
 Structure written by MMmdl.
 37 38  0  0  0  0  0  0  0  0  2 V2000
  146.9691  131.9703  153.0002 C   0  0  0  0  0  0  0  0  0  0  0  0
  146.9579  133.5044  152.9695 C   0  0  2  0  0  0  0  0  0  0  0  0
  146.7323  134.0334  151.5358 C   0  0  0  0  0  0  0  0  0  0  0  0
  145.5127  133.5095  150.9109 N   0  0  0  0  0  0  0  0  0  0  0  0
  145.3438  132.2861  150.3148 C   0  0  0  0  0  0  0  0  0  0  0  0
  144.0508  132.2473  149.8609 C   0  0  0  0  0  0  0  0  0  0  0  0
  143.4828  133.4440  150.2070 N   0  3  0  0  0  0  0  0  0  0  0  0
  144.3713  134.2076  150.8514 C   0  0  0  0  0  0  0  0  0  0  0  0
  148.2195  133.9997  153.5196 N   0  0  0  0  0  0  0  0  0  0  0  0
  148.8006  133.5725  154.6520 C   0  0  0  0  0  0  0  0  0  0  0  0
  148.3326  132.6762  155.3558 O   0  0  0  0  0  0  0  0  0  0  0  0
  150.1128  134.2630  155.0423 C   0  0  0  0  0  0  0  0  0  0  0  0
  149.9728  135.1113  156.2269 N   0  0  0  0  0  0  0  0  0  0  0  0
  148.7306  135.1310  156.9816 C   0  0  0  0  0  0  0  0  0  0  0  0
  149.0095  136.0257  158.1987 C   0  0  0  0  0  0  0  0  0  0  0  0
  150.3731  136.6779  157.9442 C   0  0  0  0  0  0  0  0  0  0  0  0
  150.8951  135.9481  156.7190 C   0  0  0  0  0  0  0  0  0  0  0  0
  152.0228  136.1331  156.2628 O   0  0  0  0  0  0  0  0  0  0  0  0
  146.0288  131.5641  152.6265 H   0  0  0  0  0  0  0  0  0  0  0  0
  147.1060  131.5981  154.0161 H   0  0  0  0  0  0  0  0  0  0  0  0
  147.7736  131.5649  152.3856 H   0  0  0  0  0  0  0  0  0  0  0  0
  146.1289  133.8302  153.6005 H   0  0  0  0  0  0  0  0  0  0  0  0
  146.6740  135.1230  151.5310 H   0  0  0  0  0  0  0  0  0  0  0  0
  147.5698  133.7594  150.8927 H   0  0  0  0  0  0  0  0  0  0  0  0
  146.1381  131.5566  150.2479 H   0  0  0  0  0  0  0  0  0  0  0  0
  143.5083  131.4786  149.3304 H   0  0  0  0  0  0  0  0  0  0  0  0
  144.2040  135.1985  151.2346 H   0  0  0  0  0  0  0  0  0  0  0  0
  148.6821  134.7334  153.0022 H   0  0  0  0  0  0  0  0  0  0  0  0
  150.8652  133.4953  155.2267 H   0  0  0  0  0  0  0  0  0  0  0  0
  150.4813  134.8656  154.2102 H   0  0  0  0  0  0  0  0  0  0  0  0
  147.9351  135.5465  156.3614 H   0  0  0  0  0  0  0  0  0  0  0  0
  148.4381  134.1244  157.2831 H   0  0  0  0  0  0  0  0  0  0  0  0
  148.2250  136.7716  158.3319 H   0  0  0  0  0  0  0  0  0  0  0  0
  149.0462  135.4248  159.1083 H   0  0  0  0  0  0  0  0  0  0  0  0
  150.2730  137.7407  157.7223 H   0  0  0  0  0  0  0  0  0  0  0  0
  151.0492  136.5585  158.7914 H   0  0  0  0  0  0  0  0  0  0  0  0
  142.5290  133.7156  150.0037 H   0  0  0  0  0  0  0  0  0  0  0  0
  1  2  1  0  0  0  0
  1 19  1  0  0  0  0
  1 20  1  0  0  0  0
  1 21  1  0  0  0  0
  2  3  1  0  0  0  0
  2  9  1  0  0  0  0
  2 22  1  0  0  0  0
  3  4  1  0  0  0  0
  3 23  1  0  0  0  0
  3 24  1  0  0  0  0
  4  8  1  0  0  0  0
  4  5  1  0  0  0  0
  5  6  2  0  0  0  0
  5 25  1  0  0  0  0
  6  7  1  0  0  0  0
  6 26  1  0  0  0  0
  7  8  2  0  0  0  0
  7 37  1  0  0  0  0
  8 27  1  0  0  0  0
  9 10  1  0  0  0  0
  9 28  1  0  0  0  0
 10 11  2  0  0  0  0
 10 12  1  0  0  0  0
 12 13  1  0  0  0  0
 12 29  1  0  0  0  0
 12 30  1  0  0  0  0
 13 17  1  0  0  0  0
 13 14  1  0  0  0  0
 14 15  1  0  0  0  0
 14 31  1  0  0  0  0
 14 32  1  0  0  0  0
 15 16  1  0  0  0  0
 15 33  1  0  0  0  0
 15 34  1  0  0  0  0
 16 17  1  0  0  0  0
 16 35  1  0  0  0  0
 16 36  1  0  0  0  0
 17 18  2  0  0  0  0
M  CHG  1   7   1
M  END
> <s_m_source_file>
AV-unprocessed.smi

> <i_m_source_file_index>
3301

> <i_lp_mmshare_version>
43012

> <i_f3d_flags>
0

> <s_epik_input>
W2NIXTFuW2NIXVtjSF1uMVtDSDJdW0NAQEhdKFtDSDNdKVtOSF1DKD1PKVtDSDJdTjJbQ0gyXVtDSDJdW0NIMl1DMj1P

> <s_epik_cmdline>
J2VwaWtfcHl0aG9uJywgJy1waCcsICc3LjAnLCAnLXRuJywgJzgnLCAnLW1hJywgJzIwMCcsICctbWV0YWxfYmluZGluZycsICctaW1hZScsICc8aW5maWxlLm1hZT4nLCAnLW9tYWUnLCAnPG91dGZpbGUubWFlPic=

> <r_lp_tautomer_probability>
1

> <r_epik_Ionization_Penalty>
0.254232

> <r_epik_Ionization_Penalty_Charging>
0

> <r_epik_Ionization_Penalty_Neutral>
0.254232

> <r_epik_State_Penalty>
0.245698

> <r_epik_Charging_Adjusted_Penalty>
0.245698

> <i_epik_Tot_Q>
1

> <i_epik_Tot_abs_Q>
1

> <r_epik_Metal_State_Penalty>
0.5358

> <b_epik_Metal_Only>
0

> <s_lp_Force_Field>
OPLS_2005

> <r_lp_Energy>
13.6599

> <b_lp_Chiralities_Consistent>
1

> <s_lp_Variant>
AV-unprocessed.smi:3301-1

> <Gold.Version>
5.8.1

> <Gold.Id.Protein>
6NUR|6NUR_protein|mol2

> <Gold.PLP.Fitness>
40.9307

> <Gold.PLP.PLP>
-27.7635

> <Gold.PLP.part.hbond>
-3.0000

> <Gold.PLP.part.metal>
0.0000

> <Gold.PLP.part.buried>
-2.8672

> <Gold.PLP.part.nonpolar>
-21.8076

> <Gold.PLP.part.repulsive>
0.0535

> <Gold.PLP.ligand.clash>
0.0000

> <Gold.PLP.ligand.torsion>
0.5631

> <Gold.PLP.Chemscore.Hbond>
3.9500

> <Gold.PLP.Chemscore.CHOScore>
0.8056

> <Gold.PLP.Chemscore.Metal>
0.0000

> <Gold.Chemscore.Hbonds>
donor molecule, donor type, donor heavy atom, donor atom, acceptor molecule, acceptor atom, score
      L1  H     7    37       P1 10186  2.00
      L1  H     9    28       P1  7948  1.00
      P1  H 10752 10763       L1    18  1.00
      L1  C     5    25       P1 10747  0.04

> <Gold.PLP.Chemscore.Internal.Correction>
0.0267

> <Gold.Rescore>
     Score         DG    S(hbond)    S(metal)    S(lipo)     H(rot)  DE(clash)    DE(int)     intcor
     11.73     -13.69       2.56        0.00      48.44       2.35       0.00       1.96       ----

> <Gold.Chemscore.Fitness>
11.7314

> <Gold.Chemscore.DG>
-13.6921

> <Gold.Chemscore.ZeroCoef>
-5.4800

> <Gold.Chemscore.Hbond>
2.5608

> <Gold.Chemscore.Metal>
0.0000

> <Gold.Chemscore.Lipo>
48.4386

> <Gold.Chemscore.Internal_Hbond>
0.0000

> <Gold.Chemscore.DEClash>
0.0015

> <Gold.Chemscore.DEInternal>
1.9592

> <Gold.Chemscore.Rot>
2.3470

> <Gold.Chemscore.Internal.Correction>
   9.000000E+99

> <Gold.Chemscore.Hbonds>
donor molecule, donor type, donor heavy atom, donor atom, acceptor molecule, acceptor atom, score
      L1  H     7    37       P1 10186  1.00
      L1  H     9    28       P1  7948  0.26
      P1  H 10752 10763       L1    18  1.00

> <Gold.Chemscore.Hbond.Weighted>
-8.5531

> <Gold.Chemscore.Metal.Weighted>
-0.0000

> <Gold.Chemscore.Lipo.Weighted>
-5.6673

> <Gold.Chemscore.Internal_Hbond.Weighted>
0.0000

> <Gold.Chemscore.DEClash.Weighted>
0.0015

> <Gold.Chemscore.DEInternal.Weighted>
1.9592

> <Gold.Chemscore.Rot.Weighted>
6.0083

> <Gold.Chemscore.Internal.Correction.Weighted>
   9.000000E+99

> <Gold.Protein.RotatedTorsions>
[ 6907 6896 6895 6894 ] final   23.55 input  -60.11 | X-H torsion
[ 7974 7965 7964 7962 ] final   23.83 input  175.53 | X-H torsion
[ 8008 7997 7996 7995 ] final   77.88 input   59.86 | X-H torsion
[ 10167 10162 10161 10158 ] final  -20.78 input  -65.29 | X-H torsion
[ 10718 10713 10712 10709 ] final -129.57 input   66.30 | X-H torsion
[ 10763 10752 10751 10750 ] final   82.94 input  -60.55 | X-H torsion
[ 11005 11000 10999 10996 ] final   90.21 input  -57.11 | X-H torsion

> <Gold.Protein.ActiveResidues>
 VAL166  LYS551  ARG553  GLY616  TRP617  ASP618  TYR619  PRO620  LYS621  CYS622 
 ASP623  PHE694  ASN695  SER759  ASP760  ASP761  ALA762  ILE779  LEU786  VAL792 
 PHE793  MET794  SER795  GLU796  ALA797  LYS798  CYS799  TRP800  GLU811  SER814 

> <Gold.Protein.RotatedAtoms>
  151.9440  135.0200  160.0537 H   0  0  0  0  0  0  0  0  0  0  0  0  # atno 6907 bound_to 6896
  152.2011  133.4837  159.5067 H   0  0  0  0  0  0  0  0  0  0  0  0  # atno 6908 bound_to 6896
  150.6955  134.1506  159.4181 H   0  0  0  0  0  0  0  0  0  0  0  0  # atno 6909 bound_to 6896
  146.1966  139.7689  142.8793 H   0  0  0  0  0  0  0  0  0  0  0  0  # atno 7974 bound_to 7965
  155.8479  140.3459  155.5674 H   0  0  0  0  0  0  0  0  0  0  0  0  # atno 8008 bound_to 7997
  155.8070  140.0893  157.1945 H   0  0  0  0  0  0  0  0  0  0  0  0  # atno 8009 bound_to 7997
  154.4007  140.1455  156.3329 H   0  0  0  0  0  0  0  0  0  0  0  0  # atno 8010 bound_to 7997
  140.7278  143.4690  151.0274 H   0  0  0  0  0  0  0  0  0  0  0  0  # atno 10167 bound_to 10162
  156.2060  130.6888  151.0594 H   0  0  0  0  0  0  0  0  0  0  0  0  # atno 10718 bound_to 10713
  153.1246  135.4710  154.9252 H   0  0  0  0  0  0  0  0  0  0  0  0  # atno 10763 bound_to 10752
  154.7608  135.3131  154.8384 H   0  0  0  0  0  0  0  0  0  0  0  0  # atno 10764 bound_to 10752
  153.8940  135.6882  153.4812 H   0  0  0  0  0  0  0  0  0  0  0  0  # atno 10765 bound_to 10752
  139.8860  134.8600  156.3252 H   0  0  0  0  0  0  0  0  0  0  0  0  # atno 11005 bound_to 11000
  145.3623  141.0328  143.3278 LP  0  0  0  0  0  0  0  0  0  0  0  0  # atno 17320 bound_to 7965
  144.8593  139.5201  143.6819 LP  0  0  0  0  0  0  0  0  0  0  0  0  # atno 17321 bound_to 7965
  139.8380  143.7602  152.3180 LP  0  0  0  0  0  0  0  0  0  0  0  0  # atno 17342 bound_to 10162
  139.7741  144.7467  151.0183 LP  0  0  0  0  0  0  0  0  0  0  0  0  # atno 17343 bound_to 10162
  157.7012  131.0775  150.6813 LP  0  0  0  0  0  0  0  0  0  0  0  0  # atno 17370 bound_to 10713
  156.6872  130.4584  149.5610 LP  0  0  0  0  0  0  0  0  0  0  0  0  # atno 17371 bound_to 10713
  140.9760  133.7297  156.0602 LP  0  0  0  0  0  0  0  0  0  0  0  0  # atno 17394 bound_to 11000
  140.7811  134.3725  157.5487 LP  0  0  0  0  0  0  0  0  0  0  0  0  # atno 17395 bound_to 11000

$$$$
