AV-unprocessed.smi:2137|AV-procd|sdf|8708|dock1
  -GOLD-   2272011473D 1   1.00000     0.00000
 Structure written by MMmdl.
 50 51  0  0  0  0  0  0  0  0  2 V2000
  144.1787  133.3779  150.6620 C   0  0  0  0  0  0  0  0  0  0  0  0
  145.6495  133.0493  150.3498 C   0  0  2  0  0  0  0  0  0  0  0  0
  145.9176  131.5357  150.2580 C   0  0  0  0  0  0  0  0  0  0  0  0
  145.9177  130.8842  151.6480 C   0  0  0  0  0  0  0  0  0  0  0  0
  146.8880  131.6068  152.5957 C   0  0  0  0  0  0  0  0  0  0  0  0
  146.5675  133.0548  152.6868 N   0  3  1  0  0  0  0  0  0  0  0  0
  147.3871  133.7511  153.7106 C   0  0  0  0  0  0  0  0  0  0  0  0
  148.8381  133.2411  153.7440 C   0  0  0  0  0  0  0  0  0  0  0  0
  149.6782  133.9460  154.8173 C   0  0  0  0  0  0  0  0  0  0  0  0
  149.8093  135.3649  154.5129 N   0  0  0  0  0  0  0  0  0  0  0  0
  150.6487  136.2060  155.1339 C   0  0  0  0  0  0  0  0  0  0  0  0
  151.3873  135.8632  156.0580 O   0  0  0  0  0  0  0  0  0  0  0  0
  150.6315  137.6614  154.6487 C   0  0  0  0  0  0  0  0  0  0  0  0
  150.0137  138.5730  155.6200 N   0  0  0  0  0  0  0  0  0  0  0  0
  148.7581  138.2897  156.1254 C   0  0  0  0  0  0  0  0  0  0  0  0
  148.1220  139.0746  157.0223 C   0  0  0  0  0  0  0  0  0  0  0  0
  148.7436  140.2944  157.5230 C   0  0  0  0  0  0  0  0  0  0  0  0
  148.1907  141.0521  158.3215 O   0  0  0  0  0  0  0  0  0  0  0  0
  150.0352  140.5508  157.0049 N   0  0  0  0  0  0  0  0  0  0  0  0
  150.7161  141.7536  157.4383 C   0  0  0  0  0  0  0  0  0  0  0  0
  150.6876  139.7359  156.0521 C   0  0  0  0  0  0  0  0  0  0  0  0
  151.8004  140.0185  155.6007 O   0  0  0  0  0  0  0  0  0  0  0  0
  146.6191  133.7105  151.3511 C   0  0  0  0  0  0  0  0  0  0  0  0
  143.8830  133.0268  151.6505 H   0  0  0  0  0  0  0  0  0  0  0  0
  143.5111  132.9176  149.9329 H   0  0  0  0  0  0  0  0  0  0  0  0
  144.0037  134.4539  150.6300 H   0  0  0  0  0  0  0  0  0  0  0  0
  145.8555  133.4740  149.3663 H   0  0  0  0  0  0  0  0  0  0  0  0
  145.1823  131.0535  149.6129 H   0  0  0  0  0  0  0  0  0  0  0  0
  146.8888  131.3715  149.7891 H   0  0  0  0  0  0  0  0  0  0  0  0
  144.9115  130.9003  152.0683 H   0  0  0  0  0  0  0  0  0  0  0  0
  146.1957  129.8331  151.5635 H   0  0  0  0  0  0  0  0  0  0  0  0
  146.8235  131.1495  153.5839 H   0  0  0  0  0  0  0  0  0  0  0  0
  147.9165  131.4805  152.2537 H   0  0  0  0  0  0  0  0  0  0  0  0
  147.4141  134.8182  153.4858 H   0  0  0  0  0  0  0  0  0  0  0  0
  146.9168  133.6557  154.6906 H   0  0  0  0  0  0  0  0  0  0  0  0
  148.8596  132.1681  153.9335 H   0  0  0  0  0  0  0  0  0  0  0  0
  149.2974  133.3913  152.7658 H   0  0  0  0  0  0  0  0  0  0  0  0
  149.2132  133.8377  155.7980 H   0  0  0  0  0  0  0  0  0  0  0  0
  150.6629  133.4784  154.8743 H   0  0  0  0  0  0  0  0  0  0  0  0
  149.2307  135.7327  153.7716 H   0  0  0  0  0  0  0  0  0  0  0  0
  151.6452  137.9937  154.4171 H   0  0  0  0  0  0  0  0  0  0  0  0
  150.0873  137.6968  153.7040 H   0  0  0  0  0  0  0  0  0  0  0  0
  148.2560  137.3949  155.7871 H   0  0  0  0  0  0  0  0  0  0  0  0
  147.1389  138.7967  157.3731 H   0  0  0  0  0  0  0  0  0  0  0  0
  151.7908  141.5678  157.4718 H   0  0  0  0  0  0  0  0  0  0  0  0
  150.3914  142.0207  158.4449 H   0  0  0  0  0  0  0  0  0  0  0  0
  150.4671  142.5348  156.7188 H   0  0  0  0  0  0  0  0  0  0  0  0
  147.6390  133.6526  150.9673 H   0  0  0  0  0  0  0  0  0  0  0  0
  146.3820  134.7708  151.4326 H   0  0  0  0  0  0  0  0  0  0  0  0
  145.6102  133.1081  153.0044 H   0  0  0  0  0  0  0  0  0  0  0  0
  1  2  1  0  0  0  0
  1 24  1  0  0  0  0
  1 25  1  0  0  0  0
  1 26  1  0  0  0  0
  2 23  1  0  0  0  0
  2  3  1  0  0  0  0
  2 27  1  0  0  0  0
  3  4  1  0  0  0  0
  3 28  1  0  0  0  0
  3 29  1  0  0  0  0
  4  5  1  0  0  0  0
  4 30  1  0  0  0  0
  4 31  1  0  0  0  0
  5  6  1  0  0  0  0
  5 32  1  0  0  0  0
  5 33  1  0  0  0  0
  6  7  1  0  0  0  0
  6 23  1  0  0  0  0
  6 50  1  0  0  0  0
  7  8  1  0  0  0  0
  7 34  1  0  0  0  0
  7 35  1  0  0  0  0
  8  9  1  0  0  0  0
  8 36  1  0  0  0  0
  8 37  1  0  0  0  0
  9 10  1  0  0  0  0
  9 38  1  0  0  0  0
  9 39  1  0  0  0  0
 10 11  1  0  0  0  0
 10 40  1  0  0  0  0
 11 12  2  0  0  0  0
 11 13  1  0  0  0  0
 13 14  1  0  0  0  0
 13 41  1  0  0  0  0
 13 42  1  0  0  0  0
 14 21  1  0  0  0  0
 14 15  1  0  0  0  0
 15 16  2  0  0  0  0
 15 43  1  0  0  0  0
 16 17  1  0  0  0  0
 16 44  1  0  0  0  0
 17 18  2  0  0  0  0
 17 19  1  0  0  0  0
 19 20  1  0  0  0  0
 19 21  1  0  0  0  0
 20 45  1  0  0  0  0
 20 46  1  0  0  0  0
 20 47  1  0  0  0  0
 21 22  2  0  0  0  0
 23 48  1  0  0  0  0
 23 49  1  0  0  0  0
M  CHG  1   6   1
M  END
> <s_m_source_file>
AV-unprocessed.smi

> <i_m_source_file_index>
2137

> <i_lp_mmshare_version>
43012

> <i_f3d_flags>
0

> <s_epik_input>
W0NIM11bQ0BASF0xW0NIMl1bQ0gyXVtDSDJdTihbQ0gyXTEpW0NIMl1bQ0gyXVtDSDJdW05IXUMoPU8pW0NIMl1uMltjSF1bY0hdYyg9TyluKFtDSDNdKWMyPU8=

> <s_epik_cmdline>
J2VwaWtfcHl0aG9uJywgJy1waCcsICc3LjAnLCAnLXRuJywgJzgnLCAnLW1hJywgJzIwMCcsICctbWV0YWxfYmluZGluZycsICctaW1hZScsICc8aW5maWxlLm1hZT4nLCAnLW9tYWUnLCAnPG91dGZpbGUubWFlPic=

> <r_lp_tautomer_probability>
1

> <r_epik_Ionization_Penalty>
0.000384839

> <r_epik_Ionization_Penalty_Charging>
0.000384812

> <r_epik_Ionization_Penalty_Neutral>
2.6907e-08

> <r_epik_State_Penalty>
0.000235226

> <r_epik_Charging_Adjusted_Penalty>
0.000620038

> <i_epik_Tot_Q>
1

> <i_epik_Tot_abs_Q>
1

> <r_epik_Metal_State_Penalty>
-0

> <b_epik_Metal_Only>
0

> <s_lp_Force_Field>
OPLS_2005

> <r_lp_Energy>
28.7219

> <b_lp_Chiralities_Consistent>
1

> <s_lp_Variant>
AV-unprocessed.smi:2137-3

> <Gold.Version>
5.8.1

> <Gold.Id.Protein>
6NUR|6NUR_protein|mol2

> <Gold.PLP.Fitness>
45.6517

> <Gold.PLP.PLP>
-38.1353

> <Gold.PLP.part.hbond>
-3.7137

> <Gold.PLP.part.metal>
0.0000

> <Gold.PLP.part.buried>
-2.6861

> <Gold.PLP.part.nonpolar>
-32.3331

> <Gold.PLP.part.repulsive>
0.2374

> <Gold.PLP.ligand.clash>
0.0000

> <Gold.PLP.ligand.torsion>
0.5093

> <Gold.PLP.Chemscore.Hbond>
2.8000

> <Gold.PLP.Chemscore.CHOScore>
0.0000

> <Gold.PLP.Chemscore.Metal>
0.0000

> <Gold.Chemscore.Hbonds>
donor molecule, donor type, donor heavy atom, donor atom, acceptor molecule, acceptor atom, score
      L1  H    10    40       P1  7948  0.99
      P1  H  7989  7998       L1    22  0.37
      P1  H 10752 10763       L1    12  0.88

> <Gold.PLP.Chemscore.Internal.Correction>
0.1350

> <Gold.Rescore>
     Score         DG    S(hbond)    S(metal)    S(lipo)     H(rot)  DE(clash)    DE(int)     intcor
     15.87     -17.57       2.47        0.00      82.54       2.27       0.88       0.82       ----

> <Gold.Chemscore.Fitness>
15.8728

> <Gold.Chemscore.DG>
-17.5680

> <Gold.Chemscore.ZeroCoef>
-5.4800

> <Gold.Chemscore.Hbond>
2.4714

> <Gold.Chemscore.Metal>
0.0000

> <Gold.Chemscore.Lipo>
82.5375

> <Gold.Chemscore.Internal_Hbond>
0.0000

> <Gold.Chemscore.DEClash>
0.8773

> <Gold.Chemscore.DEInternal>
0.8179

> <Gold.Chemscore.Rot>
2.2748

> <Gold.Chemscore.Internal.Correction>
   9.000000E+99

> <Gold.Chemscore.Hbonds>
donor molecule, donor type, donor heavy atom, donor atom, acceptor molecule, acceptor atom, score
      L1  H    10    40       P1  7948  0.64
      P1  H  7989  7998       L1    22  0.29
      P1  H 10752 10763       L1    12  0.16

> <Gold.Chemscore.Hbond.Weighted>
-8.2544

> <Gold.Chemscore.Metal.Weighted>
-0.0000

> <Gold.Chemscore.Lipo.Weighted>
-9.6569

> <Gold.Chemscore.Internal_Hbond.Weighted>
0.0000

> <Gold.Chemscore.DEClash.Weighted>
0.8773

> <Gold.Chemscore.DEInternal.Weighted>
0.8179

> <Gold.Chemscore.Rot.Weighted>
5.8234

> <Gold.Chemscore.Internal.Correction.Weighted>
   9.000000E+99

> <Gold.Protein.RotatedTorsions>
[ 6907 6896 6895 6894 ] final  176.28 input  -60.11 | X-H torsion
[ 7974 7965 7964 7962 ] final   96.43 input  175.53 | X-H torsion
[ 8008 7997 7996 7995 ] final  118.88 input   59.86 | X-H torsion
[ 10167 10162 10161 10158 ] final   77.09 input  -65.29 | X-H torsion
[ 10718 10713 10712 10709 ] final   94.65 input   66.30 | X-H torsion
[ 10763 10752 10751 10750 ] final   82.27 input  -60.55 | X-H torsion
[ 11005 11000 10999 10996 ] final -129.88 input  -57.11 | X-H torsion

> <Gold.Protein.ActiveResidues>
 VAL166  LYS551  ARG553  GLY616  TRP617  ASP618  TYR619  PRO620  LYS621  CYS622 
 ASP623  PHE694  ASN695  SER759  ASP760  ASP761  ALA762  ILE779  LEU786  VAL792 
 PHE793  MET794  SER795  GLU796  ALA797  LYS798  CYS799  TRP800  GLU811  SER814 

> <Gold.Protein.RotatedAtoms>
  151.7227  133.3315  159.3319 H   0  0  0  0  0  0  0  0  0  0  0  0  # atno 6907 bound_to 6896
  150.7646  134.6434  159.6258 H   0  0  0  0  0  0  0  0  0  0  0  0  # atno 6908 bound_to 6896
  152.3642  134.6831  160.0249 H   0  0  0  0  0  0  0  0  0  0  0  0  # atno 6909 bound_to 6896
  145.4389  139.2303  143.3103 H   0  0  0  0  0  0  0  0  0  0  0  0  # atno 7974 bound_to 7965
  156.2569  140.2865  156.0905 H   0  0  0  0  0  0  0  0  0  0  0  0  # atno 8008 bound_to 7997
  155.1469  140.0396  157.2829 H   0  0  0  0  0  0  0  0  0  0  0  0  # atno 8009 bound_to 7997
  154.6489  140.2540  155.7242 H   0  0  0  0  0  0  0  0  0  0  0  0  # atno 8010 bound_to 7997
  139.9853  144.5797  150.7865 H   0  0  0  0  0  0  0  0  0  0  0  0  # atno 10167 bound_to 10162
  157.6946  131.0519  150.4218 H   0  0  0  0  0  0  0  0  0  0  0  0  # atno 10718 bound_to 10713
  153.1188  135.4734  154.9161 H   0  0  0  0  0  0  0  0  0  0  0  0  # atno 10763 bound_to 10752
  154.7555  135.3117  154.8480 H   0  0  0  0  0  0  0  0  0  0  0  0  # atno 10764 bound_to 10752
  153.9049  135.6871  153.4807 H   0  0  0  0  0  0  0  0  0  0  0  0  # atno 10765 bound_to 10752
  140.9393  134.1214  157.4165 H   0  0  0  0  0  0  0  0  0  0  0  0  # atno 11005 bound_to 11000
  146.2567  140.5135  142.8870 LP  0  0  0  0  0  0  0  0  0  0  0  0  # atno 17320 bound_to 7965
  144.8134  140.6426  143.6400 LP  0  0  0  0  0  0  0  0  0  0  0  0  # atno 17321 bound_to 7965
  140.7474  143.2906  151.3340 LP  0  0  0  0  0  0  0  0  0  0  0  0  # atno 17342 bound_to 10162
  139.6380  144.0594  152.2531 LP  0  0  0  0  0  0  0  0  0  0  0  0  # atno 17343 bound_to 10162
  156.4593  130.4028  149.6586 LP  0  0  0  0  0  0  0  0  0  0  0  0  # atno 17370 bound_to 10713
  156.3707  130.7529  151.2512 LP  0  0  0  0  0  0  0  0  0  0  0  0  # atno 17371 bound_to 10713
  139.8816  135.0031  156.6169 LP  0  0  0  0  0  0  0  0  0  0  0  0  # atno 17394 bound_to 11000
  140.7755  133.8703  155.8526 LP  0  0  0  0  0  0  0  0  0  0  0  0  # atno 17395 bound_to 11000

$$$$
