AV-unprocessed.smi:218|AV-procd|sdf|1663|dock8
  -GOLD-   2262020 63D 1   1.00000     0.00000
 Structure written by MMmdl.
 54 57  0  0  0  0  0  0  0  0  1 V2000
  151.1982  144.0659  159.0065 C   0  0  0  0  0  0  0  0  0  0  0  0
  151.1261  142.6573  158.4046 C   0  0  0  0  0  0  0  0  0  0  0  0
  152.2976  141.7850  158.8883 C   0  0  0  0  0  0  0  0  0  0  0  0
  151.1715  142.8090  156.9842 O   0  0  0  0  0  0  0  0  0  0  0  0
  150.7070  141.7994  156.1630 C   0  0  0  0  0  0  0  0  0  0  0  0
  149.5702  142.0539  155.3687 C   0  0  0  0  0  0  0  0  0  0  0  0
  149.0806  141.0299  154.5329 C   0  0  0  0  0  0  0  0  0  0  0  0
  147.8655  141.2616  153.6611 C   0  0  0  0  0  0  0  0  0  0  0  0
  147.6338  140.1777  152.7168 N   0  0  0  0  0  0  0  0  0  0  0  0
  146.7755  139.1836  153.0303 C   0  0  0  0  0  0  0  0  0  0  0  0
  146.2311  139.0971  154.2721 N   0  0  0  0  0  0  0  0  0  0  0  0
  145.3848  138.1049  154.5618 C   0  0  0  0  0  0  0  0  0  0  0  0
  144.9594  137.1159  153.7736 N   0  0  0  0  0  0  0  0  0  0  0  0
  145.5024  137.1960  152.5244 C   0  0  0  0  0  0  0  0  0  0  0  0
  146.4116  138.1959  152.0783 C   0  0  0  0  0  0  0  0  0  0  0  0
  146.7509  137.9659  150.7519 N   0  0  0  0  0  0  0  0  0  0  0  0
  146.0790  136.8917  150.4363 C   0  0  0  0  0  0  0  0  0  0  0  0
  145.3003  136.3618  151.4413 N   0  0  0  0  0  0  0  0  0  0  0  0
  144.4308  135.1414  151.3638 C   0  0  1  0  0  0  0  0  0  0  0  0
  144.3372  134.7205  150.0340 O   0  0  0  0  0  0  0  0  0  0  0  0
  144.8166  133.3836  149.8978 C   0  0  2  0  0  0  0  0  0  0  0  0
  144.0488  132.6854  148.7643 C   0  0  0  0  0  0  0  0  0  0  0  0
  142.8480  132.1232  149.2484 O   0  0  0  0  0  0  0  0  0  0  0  0
  144.6052  132.7868  151.2920 C   0  0  1  0  0  0  0  0  0  0  0  0
  145.3925  131.6394  151.5476 O   0  0  0  0  0  0  0  0  0  0  0  0
  144.9607  133.9581  152.1975 C   0  0  1  0  0  0  0  0  0  0  0  0
  146.3516  134.0339  152.4728 O   0  0  0  0  0  0  0  0  0  0  0  0
  149.7509  139.7910  154.5171 C   0  0  0  0  0  0  0  0  0  0  0  0
  150.8781  139.6303  155.3456 C   0  0  0  0  0  0  0  0  0  0  0  0
  151.3490  140.6046  156.1524 N   0  0  0  0  0  0  0  0  0  0  0  0
  143.4481  135.4815  151.6928 H   0  0  0  0  0  0  0  0  0  0  0  0
  145.8811  133.4291  149.6636 H   0  0  0  0  0  0  0  0  0  0  0  0
  143.5529  132.5327  151.4275 H   0  0  0  0  0  0  0  0  0  0  0  0
  144.4266  133.9125  153.1472 H   0  0  0  0  0  0  0  0  0  0  0  0
  151.1624  144.0308  160.0957 H   0  0  0  0  0  0  0  0  0  0  0  0
  150.3617  144.6775  158.6678 H   0  0  0  0  0  0  0  0  0  0  0  0
  152.1196  144.5729  158.7183 H   0  0  0  0  0  0  0  0  0  0  0  0
  150.1787  142.2194  158.7233 H   0  0  0  0  0  0  0  0  0  0  0  0
  152.2913  141.6924  159.9745 H   0  0  0  0  0  0  0  0  0  0  0  0
  153.2555  142.2162  158.5964 H   0  0  0  0  0  0  0  0  0  0  0  0
  152.2502  140.7775  158.4761 H   0  0  0  0  0  0  0  0  0  0  0  0
  149.0832  143.0177  155.4029 H   0  0  0  0  0  0  0  0  0  0  0  0
  146.9878  141.3848  154.2973 H   0  0  0  0  0  0  0  0  0  0  0  0
  148.0002  142.1969  153.1158 H   0  0  0  0  0  0  0  0  0  0  0  0
  148.1571  140.2160  151.8538 H   0  0  0  0  0  0  0  0  0  0  0  0
  144.9929  138.1025  155.5681 H   0  0  0  0  0  0  0  0  0  0  0  0
  146.1327  136.4522  149.4506 H   0  0  0  0  0  0  0  0  0  0  0  0
  143.8318  133.3777  147.9506 H   0  0  0  0  0  0  0  0  0  0  0  0
  144.6535  131.8792  148.3484 H   0  0  0  0  0  0  0  0  0  0  0  0
  142.2199  132.8177  149.3757 H   0  0  0  0  0  0  0  0  0  0  0  0
  144.8482  130.9988  151.9805 H   0  0  0  0  0  0  0  0  0  0  0  0
  146.5781  133.3324  153.0642 H   0  0  0  0  0  0  0  0  0  0  0  0
  149.4118  138.9816  153.8872 H   0  0  0  0  0  0  0  0  0  0  0  0
  151.4163  138.6941  155.3612 H   0  0  0  0  0  0  0  0  0  0  0  0
  1  2  1  0  0  0  0
  1 35  1  0  0  0  0
  1 36  1  0  0  0  0
  1 37  1  0  0  0  0
  2  3  1  0  0  0  0
  2  4  1  0  0  0  0
  2 38  1  0  0  0  0
  3 39  1  0  0  0  0
  3 40  1  0  0  0  0
  3 41  1  0  0  0  0
  4  5  1  0  0  0  0
  5 30  1  0  0  0  0
  5  6  2  0  0  0  0
  6  7  1  0  0  0  0
  6 42  1  0  0  0  0
  7  8  1  0  0  0  0
  7 28  2  0  0  0  0
  8  9  1  0  0  0  0
  8 43  1  0  0  0  0
  8 44  1  0  0  0  0
  9 10  1  0  0  0  0
  9 45  1  0  0  0  0
 10 15  1  0  0  0  0
 10 11  2  0  0  0  0
 11 12  1  0  0  0  0
 12 13  2  0  0  0  0
 12 46  1  0  0  0  0
 13 14  1  0  0  0  0
 14 18  1  0  0  0  0
 14 15  2  0  0  0  0
 15 16  1  0  0  0  0
 16 17  2  0  0  0  0
 17 18  1  0  0  0  0
 17 47  1  0  0  0  0
 18 19  1  0  0  0  0
 19 31  1  0  0  0  0
 19 26  1  0  0  0  0
 19 20  1  0  0  0  0
 20 21  1  0  0  0  0
 21 32  1  0  0  0  0
 21 22  1  0  0  0  0
 21 24  1  0  0  0  0
 22 23  1  0  0  0  0
 22 48  1  0  0  0  0
 22 49  1  0  0  0  0
 23 50  1  0  0  0  0
 24 33  1  0  0  0  0
 24 25  1  0  0  0  0
 24 26  1  0  0  0  0
 25 51  1  0  0  0  0
 26 34  1  0  0  0  0
 26 27  1  0  0  0  0
 27 52  1  0  0  0  0
 28 29  1  0  0  0  0
 28 53  1  0  0  0  0
 29 30  2  0  0  0  0
 29 54  1  0  0  0  0
M  END
> <s_m_source_file>
AV-unprocessed.smi

> <i_m_source_file_index>
218

> <i_lp_mmshare_version>
43012

> <i_f3d_flags>
0

> <s_epik_input>
W0NIM11bQ0hdKFtDSDNdKU9jMVtjSF1jKFtjSF1bY0hdbjEpW0NIMl1bTkhdYyhuW2NIXW4yKWMoYzIzKW5bY0hdbjNbQ0BASF00T1tDQEhdKFtDSDJdW09IXSlbQ0BASF0oW09IXSlbQ0BIXTRbT0hd

> <s_epik_cmdline>
J2VwaWtfcHl0aG9uJywgJy1waCcsICc3LjAnLCAnLXRuJywgJzgnLCAnLW1hJywgJzIwMCcsICctbWV0YWxfYmluZGluZycsICctaW1hZScsICc8aW5maWxlLm1hZT4nLCAnLW9tYWUnLCAnPG91dGZpbGUubWFlPic=

> <r_lp_tautomer_probability>
1

> <r_epik_Ionization_Penalty>
0.00457014

> <r_epik_Ionization_Penalty_Charging>
0

> <r_epik_Ionization_Penalty_Neutral>
0.00457014

> <r_epik_State_Penalty>
-0

> <r_epik_Charging_Adjusted_Penalty>
0

> <i_epik_Tot_Q>
0

> <i_epik_Tot_abs_Q>
0

> <r_epik_Metal_State_Penalty>
-0

> <b_epik_Metal_Only>
0

> <s_epik_Chemistry_Notes>
This compound contains an acetal/aminal-like group ( X-CH(R)-Y where X, Y are N, S, or O) that may be acid/base labile, releasing an aldehyde.

> <s_lp_Force_Field>
OPLS_2005

> <r_lp_Energy>
45.6959

> <b_lp_Chiralities_Consistent>
1

> <s_lp_Variant>
AV-unprocessed.smi:218-2

> <Gold.Version>
5.8.1

> <Gold.Id.Protein>
6NUR|6NUR_protein|mol2

> <Gold.PLP.Fitness>
62.4627

> <Gold.PLP.PLP>
-49.7263

> <Gold.PLP.part.hbond>
-4.9670

> <Gold.PLP.part.metal>
0.0000

> <Gold.PLP.part.buried>
-1.5792

> <Gold.PLP.part.nonpolar>
-46.0757

> <Gold.PLP.part.repulsive>
2.9271

> <Gold.PLP.ligand.clash>
0.0000

> <Gold.PLP.ligand.torsion>
0.9953

> <Gold.PLP.Chemscore.Hbond>
3.8705

> <Gold.PLP.Chemscore.CHOScore>
1.0000

> <Gold.PLP.Chemscore.Metal>
0.0000

> <Gold.Chemscore.Hbonds>
donor molecule, donor type, donor heavy atom, donor atom, acceptor molecule, acceptor atom, score
      L1  H     9    45       P1  7957  0.96
      L1  H    23    50       P1 10186  1.00
      P1  H  7954  7966       L1    16  1.00
      P1  H 10785 10796       L1    23  0.85
      L1  C    17    47       P1  7921  1.00

> <Gold.PLP.Chemscore.Internal.Correction>
0.1156

> <Gold.Rescore>
     Score         DG    S(hbond)    S(metal)    S(lipo)     H(rot)  DE(clash)    DE(int)     intcor
     10.02     -14.24       2.67        0.00     105.97       4.90       3.49       0.74       ----

> <Gold.Chemscore.Fitness>
10.0193

> <Gold.Chemscore.DG>
-14.2447

> <Gold.Chemscore.ZeroCoef>
-5.4800

> <Gold.Chemscore.Hbond>
2.6699

> <Gold.Chemscore.Metal>
0.0000

> <Gold.Chemscore.Lipo>
105.9737

> <Gold.Chemscore.Internal_Hbond>
0.0000

> <Gold.Chemscore.DEClash>
3.4899

> <Gold.Chemscore.DEInternal>
0.7355

> <Gold.Chemscore.Rot>
4.9029

> <Gold.Chemscore.Internal.Correction>
   9.000000E+99

> <Gold.Chemscore.Hbonds>
donor molecule, donor type, donor heavy atom, donor atom, acceptor molecule, acceptor atom, score
      L1  H     9    45       P1  7957  0.91
      L1  H    23    50       P1 10186  0.95
      P1  H  7954  7966       L1    16  0.49
      P1  H 10785 10796       L1    23  0.19

> <Gold.Chemscore.Hbond.Weighted>
-8.9174

> <Gold.Chemscore.Metal.Weighted>
-0.0000

> <Gold.Chemscore.Lipo.Weighted>
-12.3989

> <Gold.Chemscore.Internal_Hbond.Weighted>
0.0000

> <Gold.Chemscore.DEClash.Weighted>
3.4899

> <Gold.Chemscore.DEInternal.Weighted>
0.7355

> <Gold.Chemscore.Rot.Weighted>
12.5515

> <Gold.Chemscore.Internal.Correction.Weighted>
   9.000000E+99

> <Gold.Protein.RotatedTorsions>
[ 6907 6896 6895 6894 ] final -100.34 input  -60.11 | X-H torsion
[ 7974 7965 7964 7962 ] final  -29.21 input  175.53 | X-H torsion
[ 8008 7997 7996 7995 ] final   -1.74 input   59.86 | X-H torsion
[ 10167 10162 10161 10158 ] final -101.99 input  -65.29 | X-H torsion
[ 10718 10713 10712 10709 ] final  142.46 input   66.30 | X-H torsion
[ 10763 10752 10751 10750 ] final  122.37 input  -60.55 | X-H torsion
[ 11005 11000 10999 10996 ] final   67.22 input  -57.11 | X-H torsion

> <Gold.Protein.ActiveResidues>
 VAL166  LYS551  ARG553  GLY616  TRP617  ASP618  TYR619  PRO620  LYS621  CYS622 
 ASP623  PHE694  ASN695  SER759  ASP760  ASP761  ALA762  ILE779  LEU786  VAL792 
 PHE793  MET794  SER795  GLU796  ALA797  LYS798  CYS799  TRP800  GLU811  SER814 

> <Gold.Protein.RotatedAtoms>
  150.7112  134.0902  159.3928 H   0  0  0  0  0  0  0  0  0  0  0  0  # atno 6907 bound_to 6896
  151.8887  135.0423  160.0505 H   0  0  0  0  0  0  0  0  0  0  0  0  # atno 6908 bound_to 6896
  152.2509  133.5179  159.5361 H   0  0  0  0  0  0  0  0  0  0  0  0  # atno 6909 bound_to 6896
  146.1233  140.5383  142.8726 H   0  0  0  0  0  0  0  0  0  0  0  0  # atno 7974 bound_to 7965
  154.6434  140.2552  155.7296 H   0  0  0  0  0  0  0  0  0  0  0  0  # atno 8008 bound_to 7997
  156.2540  140.2883  156.0758 H   0  0  0  0  0  0  0  0  0  0  0  0  # atno 8009 bound_to 7997
  155.1562  140.0383  157.2822 H   0  0  0  0  0  0  0  0  0  0  0  0  # atno 8010 bound_to 7997
  140.2354  143.3576  152.0849 H   0  0  0  0  0  0  0  0  0  0  0  0  # atno 10167 bound_to 10162
  157.3803  131.0991  151.0745 H   0  0  0  0  0  0  0  0  0  0  0  0  # atno 10718 bound_to 10713
  153.6287  135.3400  155.3034 H   0  0  0  0  0  0  0  0  0  0  0  0  # atno 10763 bound_to 10752
  154.8585  135.4290  154.2129 H   0  0  0  0  0  0  0  0  0  0  0  0  # atno 10764 bound_to 10752
  153.3019  135.7025  153.7268 H   0  0  0  0  0  0  0  0  0  0  0  0  # atno 10765 bound_to 10752
  139.9784  134.6785  156.0310 H   0  0  0  0  0  0  0  0  0  0  0  0  # atno 11005 bound_to 11000
  144.7618  140.5438  143.6730 LP  0  0  0  0  0  0  0  0  0  0  0  0  # atno 17320 bound_to 7965
  145.5420  139.1475  143.3442 LP  0  0  0  0  0  0  0  0  0  0  0  0  # atno 17321 bound_to 7965
  139.5095  144.6869  151.5864 LP  0  0  0  0  0  0  0  0  0  0  0  0  # atno 17342 bound_to 10162
  140.6154  143.9359  150.6484 LP  0  0  0  0  0  0  0  0  0  0  0  0  # atno 17343 bound_to 10162
  157.1816  130.6312  149.5674 LP  0  0  0  0  0  0  0  0  0  0  0  0  # atno 17370 bound_to 10713
  155.9774  130.4751  150.6592 LP  0  0  0  0  0  0  0  0  0  0  0  0  # atno 17371 bound_to 10713
  141.1458  133.6556  156.3864 LP  0  0  0  0  0  0  0  0  0  0  0  0  # atno 17394 bound_to 11000
  140.5148  134.6361  157.5297 LP  0  0  0  0  0  0  0  0  0  0  0  0  # atno 17395 bound_to 11000

$$$$
