AV-unprocessed.smi:1884|AV-procd|sdf|7647|dock6
  -GOLD-   22720 9373D 1   1.00000     0.00000
 Structure written by MMmdl.
 40 42  0  0  0  0  0  0  0  0  1 V2000
  151.2441  138.3762  158.8892 C   0  0  0  0  0  0  0  0  0  0  0  0
  151.3543  139.8613  159.0278 C   0  0  0  0  0  0  0  0  0  0  0  0
  152.0706  140.4346  159.9950 N   0  0  0  0  0  0  0  0  0  0  0  0
  151.8968  141.7820  159.7427 C   0  0  0  0  0  0  0  0  0  0  0  0
  152.4027  142.9159  160.4175 C   0  0  0  0  0  0  0  0  0  0  0  0
  152.0825  144.2146  159.9704 C   0  0  0  0  0  0  0  0  0  0  0  0
  151.2533  144.3979  158.8449 C   0  0  0  0  0  0  0  0  0  0  0  0
  150.7388  143.2819  158.1577 C   0  0  0  0  0  0  0  0  0  0  0  0
  151.0623  141.9877  158.6073 C   0  0  0  0  0  0  0  0  0  0  0  0
  150.7309  140.7081  158.1721 N   0  0  0  0  0  0  0  0  0  0  0  0
  149.8912  140.3718  157.0307 C   0  0  0  0  0  0  0  0  0  0  0  0
  150.3550  141.0580  155.7294 C   0  0  1  0  0  0  0  0  0  0  0  0
  151.2070  140.2201  154.9737 O   0  0  0  0  0  0  0  0  0  0  0  0
  149.1966  141.5350  154.8378 C   0  0  0  0  0  0  0  0  0  0  0  0
  148.0035  141.6387  155.6056 O   0  0  0  0  0  0  0  0  0  0  0  0
  147.0026  142.4705  155.1523 C   0  0  0  0  0  0  0  0  0  0  0  0
  146.0487  142.8967  156.0990 C   0  0  0  0  0  0  0  0  0  0  0  0
  144.9908  143.7478  155.7254 C   0  0  0  0  0  0  0  0  0  0  0  0
  144.8754  144.1848  154.3912 C   0  0  0  0  0  0  0  0  0  0  0  0
  143.7850  145.0633  154.0020 C   0  0  0  0  0  0  0  0  0  0  0  0
  142.9169  145.7627  153.6919 N   0  0  0  0  0  0  0  0  0  0  0  0
  145.8225  143.7663  153.4357 C   0  0  0  0  0  0  0  0  0  0  0  0
  146.8802  142.9150  153.8115 C   0  0  0  0  0  0  0  0  0  0  0  0
  151.7699  137.8764  159.7036 H   0  0  0  0  0  0  0  0  0  0  0  0
  151.6851  138.0516  157.9466 H   0  0  0  0  0  0  0  0  0  0  0  0
  150.1992  138.0680  158.9171 H   0  0  0  0  0  0  0  0  0  0  0  0
  153.0382  142.7859  161.2810 H   0  0  0  0  0  0  0  0  0  0  0  0
  152.4749  145.0743  160.4934 H   0  0  0  0  0  0  0  0  0  0  0  0
  151.0117  145.3959  158.5097 H   0  0  0  0  0  0  0  0  0  0  0  0
  150.1008  143.4188  157.2970 H   0  0  0  0  0  0  0  0  0  0  0  0
  149.8931  139.2876  156.9132 H   0  0  0  0  0  0  0  0  0  0  0  0
  148.8609  140.6475  157.2562 H   0  0  0  0  0  0  0  0  0  0  0  0
  150.9512  141.9330  155.9893 H   0  0  0  0  0  0  0  0  0  0  0  0
  150.8496  139.3451  154.9800 H   0  0  0  0  0  0  0  0  0  0  0  0
  149.4461  142.5187  154.4365 H   0  0  0  0  0  0  0  0  0  0  0  0
  149.0641  140.8559  153.9937 H   0  0  0  0  0  0  0  0  0  0  0  0
  146.1284  142.5663  157.1244 H   0  0  0  0  0  0  0  0  0  0  0  0
  144.2713  144.0614  156.4685 H   0  0  0  0  0  0  0  0  0  0  0  0
  145.7442  144.0951  152.4093 H   0  0  0  0  0  0  0  0  0  0  0  0
  147.5853  142.6174  153.0507 H   0  0  0  0  0  0  0  0  0  0  0  0
  1  2  1  0  0  0  0
  1 24  1  0  0  0  0
  1 25  1  0  0  0  0
  1 26  1  0  0  0  0
  2 10  1  0  0  0  0
  2  3  2  0  0  0  0
  3  4  1  0  0  0  0
  4  9  2  0  0  0  0
  4  5  1  0  0  0  0
  5  6  2  0  0  0  0
  5 27  1  0  0  0  0
  6  7  1  0  0  0  0
  6 28  1  0  0  0  0
  7  8  2  0  0  0  0
  7 29  1  0  0  0  0
  8  9  1  0  0  0  0
  8 30  1  0  0  0  0
  9 10  1  0  0  0  0
 10 11  1  0  0  0  0
 11 12  1  0  0  0  0
 11 31  1  0  0  0  0
 11 32  1  0  0  0  0
 12 13  1  0  0  0  0
 12 14  1  0  0  0  0
 12 33  1  0  0  0  0
 13 34  1  0  0  0  0
 14 15  1  0  0  0  0
 14 35  1  0  0  0  0
 14 36  1  0  0  0  0
 15 16  1  0  0  0  0
 16 23  1  0  0  0  0
 16 17  2  0  0  0  0
 17 18  1  0  0  0  0
 17 37  1  0  0  0  0
 18 19  2  0  0  0  0
 18 38  1  0  0  0  0
 19 20  1  0  0  0  0
 19 22  1  0  0  0  0
 20 21  3  0  0  0  0
 22 23  2  0  0  0  0
 22 39  1  0  0  0  0
 23 40  1  0  0  0  0
M  END
> <s_m_source_file>
AV-unprocessed.smi

> <i_m_source_file_index>
1884

> <i_lp_mmshare_version>
43012

> <i_f3d_flags>
0

> <s_epik_input>
W2NIXTFbY0hdW2NIXVtjSF1jKGMxMiluKGMobjIpW0NIM10pW0NIMl1bQ0BIXShbT0hdKVtDSDJdT2MzW2NIXVtjSF1jKEMjTilbY0hdW2NIXTM=

> <s_epik_cmdline>
J2VwaWtfcHl0aG9uJywgJy1waCcsICc3LjAnLCAnLXRuJywgJzgnLCAnLW1hJywgJzIwMCcsICctbWV0YWxfYmluZGluZycsICctaW1hZScsICc8aW5maWxlLm1hZT4nLCAnLW9tYWUnLCAnPG91dGZpbGUubWFlPic=

> <r_epik_Ionization_Penalty>
0.110799

> <r_epik_Ionization_Penalty_Charging>
0

> <r_epik_Ionization_Penalty_Neutral>
0.110799

> <r_epik_State_Penalty>
0.100537

> <r_epik_Charging_Adjusted_Penalty>
0.100537

> <i_epik_Tot_Q>
0

> <i_epik_Tot_abs_Q>
0

> <r_epik_Metal_State_Penalty>
0.000109561

> <b_epik_Metal_Only>
0

> <s_lp_Force_Field>
OPLS_2005

> <r_lp_Energy>
15.8786

> <b_lp_Chiralities_Consistent>
1

> <s_lp_Variant>
AV-unprocessed.smi:1884-2

> <Gold.Version>
5.8.1

> <Gold.Id.Protein>
6NUR|6NUR_protein|mol2

> <Gold.PLP.Fitness>
49.6474

> <Gold.PLP.PLP>
-49.5358

> <Gold.PLP.part.hbond>
-2.0000

> <Gold.PLP.part.metal>
0.0000

> <Gold.PLP.part.buried>
-5.9250

> <Gold.PLP.part.nonpolar>
-41.5783

> <Gold.PLP.part.repulsive>
0.1985

> <Gold.PLP.ligand.clash>
0.0000

> <Gold.PLP.ligand.torsion>
1.4675

> <Gold.PLP.Chemscore.Hbond>
1.0000

> <Gold.PLP.Chemscore.CHOScore>
0.0000

> <Gold.PLP.Chemscore.Metal>
0.0000

> <Gold.Chemscore.Hbonds>
donor molecule, donor type, donor heavy atom, donor atom, acceptor molecule, acceptor atom, score
      P1  H  7989  7998       L1    13  1.00

> <Gold.PLP.Chemscore.Internal.Correction>
0.0466

> <Gold.Rescore>
     Score         DG    S(hbond)    S(metal)    S(lipo)     H(rot)  DE(clash)    DE(int)     intcor
     14.49     -15.86       0.89        0.00     113.81       2.31       0.03       1.34       ----

> <Gold.Chemscore.Fitness>
14.4886

> <Gold.Chemscore.DG>
-15.8579

> <Gold.Chemscore.ZeroCoef>
-5.4800

> <Gold.Chemscore.Hbond>
0.8910

> <Gold.Chemscore.Metal>
0.0000

> <Gold.Chemscore.Lipo>
113.8113

> <Gold.Chemscore.Internal_Hbond>
0.0000

> <Gold.Chemscore.DEClash>
0.0274

> <Gold.Chemscore.DEInternal>
1.3418

> <Gold.Chemscore.Rot>
2.3102

> <Gold.Chemscore.Internal.Correction>
   9.000000E+99

> <Gold.Chemscore.Hbonds>
donor molecule, donor type, donor heavy atom, donor atom, acceptor molecule, acceptor atom, score
      P1  H  7989  7998       L1    13  0.81

> <Gold.Chemscore.Hbond.Weighted>
-2.9761

> <Gold.Chemscore.Metal.Weighted>
-0.0000

> <Gold.Chemscore.Lipo.Weighted>
-13.3159

> <Gold.Chemscore.Internal_Hbond.Weighted>
0.0000

> <Gold.Chemscore.DEClash.Weighted>
0.0274

> <Gold.Chemscore.DEInternal.Weighted>
1.3418

> <Gold.Chemscore.Rot.Weighted>
5.9141

> <Gold.Chemscore.Internal.Correction.Weighted>
   9.000000E+99

> <Gold.Protein.RotatedTorsions>
[ 6907 6896 6895 6894 ] final -101.00 input  -60.11 | X-H torsion
[ 7974 7965 7964 7962 ] final -137.95 input  175.53 | X-H torsion
[ 8008 7997 7996 7995 ] final  -52.26 input   59.86 | X-H torsion
[ 10167 10162 10161 10158 ] final  -72.11 input  -65.29 | X-H torsion
[ 10718 10713 10712 10709 ] final  105.28 input   66.30 | X-H torsion
[ 10763 10752 10751 10750 ] final -138.11 input  -60.55 | X-H torsion
[ 11005 11000 10999 10996 ] final  -74.80 input  -57.11 | X-H torsion

> <Gold.Protein.ActiveResidues>
 VAL166  LYS551  ARG553  GLY616  TRP617  ASP618  TYR619  PRO620  LYS621  CYS622 
 ASP623  PHE694  ASN695  SER759  ASP760  ASP761  ALA762  ILE779  LEU786  VAL792 
 PHE793  MET794  SER795  GLU796  ALA797  LYS798  CYS799  TRP800  GLU811  SER814 

> <Gold.Protein.RotatedAtoms>
  150.7137  134.0801  159.3894 H   0  0  0  0  0  0  0  0  0  0  0  0  # atno 6907 bound_to 6896
  151.8784  135.0460  160.0495 H   0  0  0  0  0  0  0  0  0  0  0  0  # atno 6908 bound_to 6896
  152.2587  133.5242  159.5405 H   0  0  0  0  0  0  0  0  0  0  0  0  # atno 6909 bound_to 6896
  144.8799  140.6491  143.5213 H   0  0  0  0  0  0  0  0  0  0  0  0  # atno 7974 bound_to 7965
  154.4102  140.1228  156.4962 H   0  0  0  0  0  0  0  0  0  0  0  0  # atno 8008 bound_to 7997
  155.6941  140.3495  155.4886 H   0  0  0  0  0  0  0  0  0  0  0  0  # atno 8009 bound_to 7997
  155.9443  140.1093  157.1019 H   0  0  0  0  0  0  0  0  0  0  0  0  # atno 8010 bound_to 7997
  140.5219  143.2331  151.7415 H   0  0  0  0  0  0  0  0  0  0  0  0  # atno 10167 bound_to 10162
  157.6711  131.0824  150.5833 H   0  0  0  0  0  0  0  0  0  0  0  0  # atno 10718 bound_to 10713
  154.8645  135.3622  154.5332 H   0  0  0  0  0  0  0  0  0  0  0  0  # atno 10763 bound_to 10752
  153.5957  135.7014  153.5410 H   0  0  0  0  0  0  0  0  0  0  0  0  # atno 10764 bound_to 10752
  153.3334  135.4118  155.1476 H   0  0  0  0  0  0  0  0  0  0  0  0  # atno 10765 bound_to 10752
  141.1639  133.6924  156.7419 H   0  0  0  0  0  0  0  0  0  0  0  0  # atno 11005 bound_to 11000
  145.3974  139.1604  143.4196 LP  0  0  0  0  0  0  0  0  0  0  0  0  # atno 17320 bound_to 7965
  146.2987  140.4068  142.8712 LP  0  0  0  0  0  0  0  0  0  0  0  0  # atno 17321 bound_to 7965
  139.4926  144.4242  151.9944 LP  0  0  0  0  0  0  0  0  0  0  0  0  # atno 17342 bound_to 10162
  140.3339  144.3283  150.5981 LP  0  0  0  0  0  0  0  0  0  0  0  0  # atno 17343 bound_to 10162
  156.6133  130.4386  149.5850 LP  0  0  0  0  0  0  0  0  0  0  0  0  # atno 17370 bound_to 10713
  156.2413  130.6853  151.1558 LP  0  0  0  0  0  0  0  0  0  0  0  0  # atno 17371 bound_to 10713
  140.2668  134.8424  157.3810 LP  0  0  0  0  0  0  0  0  0  0  0  0  # atno 17394 bound_to 11000
  140.1559  134.4790  155.7928 LP  0  0  0  0  0  0  0  0  0  0  0  0  # atno 17395 bound_to 11000

$$$$
