AV-unprocessed.smi:193|AV-procd|sdf|1507|dock4
  -GOLD-   2262019343D 1   1.00000     0.00000
 Structure written by MMmdl.
 62 66  0  0  0  0  0  0  0  0  2 V2000
  145.9240  137.6002  154.3418 C   0  0  0  0  0  0  0  0  0  0  0  0
  147.3089  136.9341  154.3064 C   0  0  1  0  0  0  0  0  0  0  0  0
  148.2202  137.5886  155.3658 C   0  0  0  0  0  0  0  0  0  0  0  0
  149.6537  137.4382  155.1060 N   0  0  0  0  0  0  0  0  0  0  0  0
  150.5097  138.2760  155.7479 C   0  0  0  0  0  0  0  0  0  0  0  0
  151.5841  137.7516  156.3953 N   0  0  0  0  0  0  0  0  0  0  0  0
  152.4531  138.5500  157.0221 C   0  0  0  0  0  0  0  0  0  0  0  0
  152.4381  139.8796  157.1266 N   0  0  0  0  0  0  0  0  0  0  0  0
  151.3562  140.4132  156.4912 C   0  0  0  0  0  0  0  0  0  0  0  0
  150.3506  139.6919  155.7869 C   0  0  0  0  0  0  0  0  0  0  0  0
  149.3999  140.5761  155.2887 N   0  0  0  0  0  0  0  0  0  0  0  0
  149.8270  141.7510  155.6635 C   0  0  0  0  0  0  0  0  0  0  0  0
  151.0007  141.7462  156.3819 N   0  0  0  0  0  0  0  0  0  0  0  0
  151.7014  142.9056  156.9133 C   0  0  0  0  0  0  0  0  0  0  0  0
  151.3033  143.2650  158.3661 C   0  0  0  0  0  0  0  0  0  0  0  0
  150.0328  142.6886  158.6181 O   0  0  0  0  0  0  0  0  0  0  0  0
  152.3148  142.6686  159.3657 C   0  0  0  0  0  0  0  0  0  0  0  0
  152.0535  143.1402  160.8072 C   0  0  0  0  0  0  0  0  0  0  0  0
  152.0517  144.5613  160.8612 O   0  0  0  0  0  0  0  0  0  0  0  0
  151.0117  145.1399  160.0821 C   0  0  0  0  0  0  0  0  0  0  0  0
  151.2041  144.7892  158.5960 C   0  0  0  0  0  0  0  0  0  0  0  0
  150.2152  136.2401  154.4828 C   0  0  0  0  0  0  0  0  0  0  0  0
  149.5505  134.9388  154.9513 C   0  0  0  0  0  0  0  0  0  0  0  0
  148.3491  134.6274  154.1407 N   0  3  1  0  0  0  0  0  0  0  0  0
  148.0538  133.1752  154.1221 C   0  0  2  0  0  0  0  0  0  0  0  0
  149.0125  132.3658  153.2774 C   0  0  0  0  0  0  0  0  0  0  0  0
  147.6075  132.6223  152.7795 C   0  0  2  0  0  0  0  0  0  0  0  0
  147.3815  133.4823  151.5492 C   0  0  0  0  0  0  0  0  0  0  0  0
  147.1557  135.4146  154.5370 C   0  0  0  0  0  0  0  0  0  0  0  0
  145.4447  137.4679  155.3124 H   0  0  0  0  0  0  0  0  0  0  0  0
  145.2624  137.1802  153.5835 H   0  0  0  0  0  0  0  0  0  0  0  0
  145.9965  138.6712  154.1494 H   0  0  0  0  0  0  0  0  0  0  0  0
  147.7181  137.1130  153.3108 H   0  0  0  0  0  0  0  0  0  0  0  0
  148.0074  138.6585  155.3915 H   0  0  0  0  0  0  0  0  0  0  0  0
  147.9826  137.2067  156.3596 H   0  0  0  0  0  0  0  0  0  0  0  0
  153.2799  138.0522  157.5077 H   0  0  0  0  0  0  0  0  0  0  0  0
  149.2979  142.6610  155.4201 H   0  0  0  0  0  0  0  0  0  0  0  0
  152.7738  142.7155  156.8490 H   0  0  0  0  0  0  0  0  0  0  0  0
  151.5051  143.7514  156.2530 H   0  0  0  0  0  0  0  0  0  0  0  0
  149.4164  143.3840  158.7890 H   0  0  0  0  0  0  0  0  0  0  0  0
  152.3029  141.5789  159.3199 H   0  0  0  0  0  0  0  0  0  0  0  0
  153.3229  142.9745  159.0830 H   0  0  0  0  0  0  0  0  0  0  0  0
  151.1079  142.7487  161.1855 H   0  0  0  0  0  0  0  0  0  0  0  0
  152.8356  142.7662  161.4680 H   0  0  0  0  0  0  0  0  0  0  0  0
  150.0396  144.8010  160.4432 H   0  0  0  0  0  0  0  0  0  0  0  0
  151.0364  146.2216  160.2144 H   0  0  0  0  0  0  0  0  0  0  0  0
  152.1204  145.2646  158.2443 H   0  0  0  0  0  0  0  0  0  0  0  0
  150.3914  145.2207  158.0103 H   0  0  0  0  0  0  0  0  0  0  0  0
  150.1717  136.3339  153.3971 H   0  0  0  0  0  0  0  0  0  0  0  0
  151.2726  136.1607  154.7367 H   0  0  0  0  0  0  0  0  0  0  0  0
  150.2785  134.1395  154.8075 H   0  0  0  0  0  0  0  0  0  0  0  0
  149.3257  134.9505  156.0190 H   0  0  0  0  0  0  0  0  0  0  0  0
  147.6665  132.7576  155.0501 H   0  0  0  0  0  0  0  0  0  0  0  0
  149.8285  132.8882  152.7807 H   0  0  0  0  0  0  0  0  0  0  0  0
  149.2446  131.3558  153.6089 H   0  0  0  0  0  0  0  0  0  0  0  0
  146.9258  131.7757  152.8345 H   0  0  0  0  0  0  0  0  0  0  0  0
  148.1293  134.2720  151.4714 H   0  0  0  0  0  0  0  0  0  0  0  0
  146.3919  133.9380  151.5847 H   0  0  0  0  0  0  0  0  0  0  0  0
  147.4433  132.8665  150.6518 H   0  0  0  0  0  0  0  0  0  0  0  0
  146.9001  135.2057  155.5771 H   0  0  0  0  0  0  0  0  0  0  0  0
  146.3132  135.0568  153.9443 H   0  0  0  0  0  0  0  0  0  0  0  0
  148.5684  134.8779  153.1871 H   0  0  0  0  0  0  0  0  0  0  0  0
  1  2  1  0  0  0  0
  1 30  1  0  0  0  0
  1 31  1  0  0  0  0
  1 32  1  0  0  0  0
  2 29  1  0  0  0  0
  2  3  1  0  0  0  0
  2 33  1  0  0  0  0
  3  4  1  0  0  0  0
  3 34  1  0  0  0  0
  3 35  1  0  0  0  0
  4  5  1  0  0  0  0
  4 22  1  0  0  0  0
  5 10  1  0  0  0  0
  5  6  2  0  0  0  0
  6  7  1  0  0  0  0
  7  8  2  0  0  0  0
  7 36  1  0  0  0  0
  8  9  1  0  0  0  0
  9 13  1  0  0  0  0
  9 10  2  0  0  0  0
 10 11  1  0  0  0  0
 11 12  2  0  0  0  0
 12 13  1  0  0  0  0
 12 37  1  0  0  0  0
 13 14  1  0  0  0  0
 14 15  1  0  0  0  0
 14 38  1  0  0  0  0
 14 39  1  0  0  0  0
 15 21  1  0  0  0  0
 15 16  1  0  0  0  0
 15 17  1  0  0  0  0
 16 40  1  0  0  0  0
 17 18  1  0  0  0  0
 17 41  1  0  0  0  0
 17 42  1  0  0  0  0
 18 19  1  0  0  0  0
 18 43  1  0  0  0  0
 18 44  1  0  0  0  0
 19 20  1  0  0  0  0
 20 21  1  0  0  0  0
 20 45  1  0  0  0  0
 20 46  1  0  0  0  0
 21 47  1  0  0  0  0
 21 48  1  0  0  0  0
 22 23  1  0  0  0  0
 22 49  1  0  0  0  0
 22 50  1  0  0  0  0
 23 24  1  0  0  0  0
 23 51  1  0  0  0  0
 23 52  1  0  0  0  0
 24 25  1  0  0  0  0
 24 29  1  0  0  0  0
 24 62  1  0  0  0  0
 25 27  1  0  0  0  0
 25 26  1  0  0  0  0
 25 53  1  0  0  0  0
 26 27  1  0  0  0  0
 26 54  1  0  0  0  0
 26 55  1  0  0  0  0
 27 28  1  0  0  0  0
 27 56  1  0  0  0  0
 28 57  1  0  0  0  0
 28 58  1  0  0  0  0
 28 59  1  0  0  0  0
 29 60  1  0  0  0  0
 29 61  1  0  0  0  0
M  CHG  1  24   1
M  END
> <s_m_source_file>
AV-unprocessed.smi

> <i_m_source_file_index>
193

> <i_lp_mmshare_version>
43012

> <i_f3d_flags>
0

> <s_epik_input>
W0NIM11bQ0BASF0xW0NIMl1bQ0BIXTFOKFtDSDJdMilbQ0gyXVtDSDJdTihbQ0gyXVtDQEhdMltDSDNdKWMobltjSF1uMyljKGMzNCluW2NIXW40W0NIMl1DNShbT0hdKVtDSDJdW0NIMl1PW0NIMl1bQ0gyXTU=

> <s_epik_cmdline>
J2VwaWtfcHl0aG9uJywgJy1waCcsICc3LjAnLCAnLXRuJywgJzgnLCAnLW1hJywgJzIwMCcsICctbWV0YWxfYmluZGluZycsICctaW1hZScsICc8aW5maWxlLm1hZT4nLCAnLW9tYWUnLCAnPG91dGZpbGUubWFlPic=

> <r_lp_tautomer_probability>
1

> <r_epik_Ionization_Penalty>
0.0540825

> <r_epik_Ionization_Penalty_Charging>
0.0538476

> <r_epik_Ionization_Penalty_Neutral>
0.000234891

> <r_epik_State_Penalty>
0.0200719

> <r_epik_Charging_Adjusted_Penalty>
0.0739194

> <i_epik_Tot_Q>
1

> <i_epik_Tot_abs_Q>
1

> <r_epik_Metal_State_Penalty>
0.0199414

> <b_epik_Metal_Only>
0

> <s_lp_Force_Field>
OPLS_2005

> <r_lp_Energy>
56.3109

> <b_lp_Chiralities_Consistent>
1

> <s_lp_Variant>
AV-unprocessed.smi:193-12

> <Gold.Version>
5.8.1

> <Gold.Id.Protein>
6NUR|6NUR_protein|mol2

> <Gold.PLP.Fitness>
48.1296

> <Gold.PLP.PLP>
-40.6124

> <Gold.PLP.part.hbond>
-2.0000

> <Gold.PLP.part.metal>
0.0000

> <Gold.PLP.part.buried>
-2.1103

> <Gold.PLP.part.nonpolar>
-36.7900

> <Gold.PLP.part.repulsive>
0.2210

> <Gold.PLP.ligand.clash>
0.0000

> <Gold.PLP.ligand.torsion>
2.4739

> <Gold.PLP.Chemscore.Hbond>
2.7000

> <Gold.PLP.Chemscore.CHOScore>
1.0000

> <Gold.PLP.Chemscore.Metal>
0.0000

> <Gold.Chemscore.Hbonds>
donor molecule, donor type, donor heavy atom, donor atom, acceptor molecule, acceptor atom, score
      L1  H    24    62       P1  7948  2.00
      P1  H  7997  8010       L1     8  0.70
      L1  C    12    37       P1  8028  1.00

> <Gold.PLP.Chemscore.Internal.Correction>
1.3651

> <Gold.Rescore>
     Score         DG    S(hbond)    S(metal)    S(lipo)     H(rot)  DE(clash)    DE(int)     intcor
     12.58     -16.61       1.03        0.00     107.82       1.93       1.69       2.34       ----

> <Gold.Chemscore.Fitness>
12.5832

> <Gold.Chemscore.DG>
-16.6111

> <Gold.Chemscore.ZeroCoef>
-5.4800

> <Gold.Chemscore.Hbond>
1.0344

> <Gold.Chemscore.Metal>
0.0000

> <Gold.Chemscore.Lipo>
107.8175

> <Gold.Chemscore.Internal_Hbond>
0.0000

> <Gold.Chemscore.DEClash>
1.6876

> <Gold.Chemscore.DEInternal>
2.3403

> <Gold.Chemscore.Rot>
1.9290

> <Gold.Chemscore.Internal.Correction>
   9.000000E+99

> <Gold.Chemscore.Hbonds>
donor molecule, donor type, donor heavy atom, donor atom, acceptor molecule, acceptor atom, score
      L1  H    24    62       P1  7948  0.53
      P1  H  7997  8010       L1     8  0.07

> <Gold.Chemscore.Hbond.Weighted>
-3.4548

> <Gold.Chemscore.Metal.Weighted>
-0.0000

> <Gold.Chemscore.Lipo.Weighted>
-12.6146

> <Gold.Chemscore.Internal_Hbond.Weighted>
0.0000

> <Gold.Chemscore.DEClash.Weighted>
1.6876

> <Gold.Chemscore.DEInternal.Weighted>
2.3403

> <Gold.Chemscore.Rot.Weighted>
4.9383

> <Gold.Chemscore.Internal.Correction.Weighted>
   9.000000E+99

> <Gold.Protein.RotatedTorsions>
[ 6907 6896 6895 6894 ] final -116.29 input  -60.11 | X-H torsion
[ 7974 7965 7964 7962 ] final  -54.96 input  175.53 | X-H torsion
[ 8008 7997 7996 7995 ] final   58.35 input   59.86 | X-H torsion
[ 10167 10162 10161 10158 ] final  175.42 input  -65.29 | X-H torsion
[ 10718 10713 10712 10709 ] final   22.91 input   66.30 | X-H torsion
[ 10763 10752 10751 10750 ] final  -34.30 input  -60.55 | X-H torsion
[ 11005 11000 10999 10996 ] final   77.47 input  -57.11 | X-H torsion

> <Gold.Protein.ActiveResidues>
 VAL166  LYS551  ARG553  GLY616  TRP617  ASP618  TYR619  PRO620  LYS621  CYS622 
 ASP623  PHE694  ASN695  SER759  ASP760  ASP761  ALA762  ILE779  LEU786  VAL792 
 PHE793  MET794  SER795  GLU796  ALA797  LYS798  CYS799  TRP800  GLU811  SER814 

> <Gold.Protein.RotatedAtoms>
  150.8044  133.8537  159.3212 H   0  0  0  0  0  0  0  0  0  0  0  0  # atno 6907 bound_to 6896
  151.6340  135.1018  160.0137 H   0  0  0  0  0  0  0  0  0  0  0  0  # atno 6908 bound_to 6896
  152.4134  133.6959  159.6452 H   0  0  0  0  0  0  0  0  0  0  0  0  # atno 6909 bound_to 6896
  145.8797  140.8154  142.9846 H   0  0  0  0  0  0  0  0  0  0  0  0  # atno 7974 bound_to 7965
  155.5485  140.3486  155.4463 H   0  0  0  0  0  0  0  0  0  0  0  0  # atno 8008 bound_to 7997
  156.0600  140.1338  156.9978 H   0  0  0  0  0  0  0  0  0  0  0  0  # atno 8009 bound_to 7997
  154.4475  140.0987  156.6487 H   0  0  0  0  0  0  0  0  0  0  0  0  # atno 8010 bound_to 7997
  139.5176  144.3034  152.0358 H   0  0  0  0  0  0  0  0  0  0  0  0  # atno 10167 bound_to 10162
  157.1588  130.6707  149.6037 H   0  0  0  0  0  0  0  0  0  0  0  0  # atno 10718 bound_to 10713
  153.8444  135.6854  153.4799 H   0  0  0  0  0  0  0  0  0  0  0  0  # atno 10763 bound_to 10752
  153.1434  135.4648  154.9528 H   0  0  0  0  0  0  0  0  0  0  0  0  # atno 10764 bound_to 10752
  154.7831  135.3275  154.7894 H   0  0  0  0  0  0  0  0  0  0  0  0  # atno 10765 bound_to 10752
  139.9253  134.7685  156.1526 H   0  0  0  0  0  0  0  0  0  0  0  0  # atno 11005 bound_to 11000
  144.6727  140.1364  143.7440 LP  0  0  0  0  0  0  0  0  0  0  0  0  # atno 17320 bound_to 7965
  145.9038  139.2446  143.1477 LP  0  0  0  0  0  0  0  0  0  0  0  0  # atno 17321 bound_to 7965
  140.2480  144.4199  150.6233 LP  0  0  0  0  0  0  0  0  0  0  0  0  # atno 17342 bound_to 10162
  140.6244  143.2179  151.6627 LP  0  0  0  0  0  0  0  0  0  0  0  0  # atno 17343 bound_to 10162
  155.9757  130.4719  150.6480 LP  0  0  0  0  0  0  0  0  0  0  0  0  # atno 17370 bound_to 10713
  157.4152  131.0829  151.1183 LP  0  0  0  0  0  0  0  0  0  0  0  0  # atno 17371 bound_to 10713
  141.0806  133.6756  156.2328 LP  0  0  0  0  0  0  0  0  0  0  0  0  # atno 17394 bound_to 11000
  140.6354  134.5221  157.5564 LP  0  0  0  0  0  0  0  0  0  0  0  0  # atno 17395 bound_to 11000

$$$$
