AV-unprocessed.smi:221|AV-procd|sdf|1699|dock9
  -GOLD-   2262020153D 1   1.00000     0.00000
 Structure written by MMmdl.
 50 53  0  0  0  0  0  0  0  0  1 V2000
  154.6823  141.4350  160.2832 N   0  0  0  0  0  0  0  0  0  0  0  0
  153.7356  140.7710  159.6157 C   0  0  0  0  0  0  0  0  0  0  0  0
  154.0039  139.8345  158.8646 O   0  0  0  0  0  0  0  0  0  0  0  0
  152.2836  141.2383  159.8306 C   0  0  1  0  0  0  0  0  0  0  0  0
  152.2181  142.6251  160.4963 C   0  0  0  0  0  0  0  0  0  0  0  0
  152.1507  143.6174  159.3349 C   0  0  1  0  0  0  0  0  0  0  0  0
  153.3800  143.8902  158.8947 F   0  0  0  0  0  0  0  0  0  0  0  0
  151.3740  142.8523  158.2625 C   0  0  0  0  0  0  0  0  0  0  0  0
  151.5661  141.4379  158.5706 N   0  0  0  0  0  0  0  0  0  0  0  0
  151.0405  140.4469  157.7971 C   0  0  0  0  0  0  0  0  0  0  0  0
  151.1626  139.1670  158.2406 N   0  0  0  0  0  0  0  0  0  0  0  0
  150.6682  138.1466  157.5361 C   0  0  0  0  0  0  0  0  0  0  0  0
  150.0219  138.1753  156.3712 N   0  0  0  0  0  0  0  0  0  0  0  0
  149.8945  139.4520  155.9113 C   0  0  0  0  0  0  0  0  0  0  0  0
  150.3693  140.6361  156.5495 C   0  0  0  0  0  0  0  0  0  0  0  0
  150.0501  141.7390  155.7624 N   0  0  0  0  0  0  0  0  0  0  0  0
  149.4281  141.2401  154.7306 C   0  0  0  0  0  0  0  0  0  0  0  0
  149.2947  139.8725  154.7372 N   0  0  0  0  0  0  0  0  0  0  0  0
  148.6522  139.0614  153.7183 C   0  0  0  0  0  0  0  0  0  0  0  0
  147.1155  139.2583  153.6317 C   0  0  1  0  0  0  0  0  0  0  0  0
  146.4862  138.4901  152.4410 C   0  0  0  0  0  0  0  0  0  0  0  0
  147.2383  138.6494  151.2555 O   0  0  0  0  0  0  0  0  0  0  0  0
  146.4439  138.8546  154.9702 C   0  0  1  0  0  0  0  0  0  0  0  0
  144.9437  138.6237  154.8919 C   0  0  0  0  0  0  0  0  0  0  0  0
  144.6781  137.8159  156.1551 C   0  0  0  0  0  0  0  0  0  0  0  0
  145.8219  136.9873  156.3098 O   0  0  0  0  0  0  0  0  0  0  0  0
  146.9055  137.5071  155.5444 C   0  0  0  0  0  0  0  0  0  0  0  0
  151.7588  140.5229  160.4642 H   0  0  0  0  0  0  0  0  0  0  0  0
  151.6859  144.5658  159.6052 H   0  0  0  0  0  0  0  0  0  0  0  0
  155.6496  141.1648  160.1800 H   0  0  0  0  0  0  0  0  0  0  0  0
  154.4288  142.2003  160.8908 H   0  0  0  0  0  0  0  0  0  0  0  0
  151.3008  142.6971  161.0823 H   0  0  0  0  0  0  0  0  0  0  0  0
  153.0483  142.8283  161.1745 H   0  0  0  0  0  0  0  0  0  0  0  0
  150.3104  143.0860  158.3271 H   0  0  0  0  0  0  0  0  0  0  0  0
  151.7198  143.1072  157.2596 H   0  0  0  0  0  0  0  0  0  0  0  0
  150.8111  137.1672  157.9683 H   0  0  0  0  0  0  0  0  0  0  0  0
  149.0527  141.8584  153.9283 H   0  0  0  0  0  0  0  0  0  0  0  0
  149.1127  139.2850  152.7553 H   0  0  0  0  0  0  0  0  0  0  0  0
  148.8943  138.0216  153.9379 H   0  0  0  0  0  0  0  0  0  0  0  0
  146.9212  140.3221  153.4836 H   0  0  0  0  0  0  0  0  0  0  0  0
  146.3865  137.4294  152.6734 H   0  0  0  0  0  0  0  0  0  0  0  0
  145.4850  138.8545  152.2163 H   0  0  0  0  0  0  0  0  0  0  0  0
  147.8891  139.3194  151.4004 H   0  0  0  0  0  0  0  0  0  0  0  0
  146.6300  139.6301  155.7155 H   0  0  0  0  0  0  0  0  0  0  0  0
  144.3643  139.5468  154.8639 H   0  0  0  0  0  0  0  0  0  0  0  0
  144.6919  138.0329  154.0099 H   0  0  0  0  0  0  0  0  0  0  0  0
  144.6041  138.4762  157.0199 H   0  0  0  0  0  0  0  0  0  0  0  0
  143.7619  137.2284  156.0947 H   0  0  0  0  0  0  0  0  0  0  0  0
  147.1272  136.7972  154.7464 H   0  0  0  0  0  0  0  0  0  0  0  0
  147.7976  137.6057  156.1634 H   0  0  0  0  0  0  0  0  0  0  0  0
  1  2  1  0  0  0  0
  1 30  1  0  0  0  0
  1 31  1  0  0  0  0
  2  3  2  0  0  0  0
  2  4  1  0  0  0  0
  4 28  1  0  0  0  0
  4  9  1  0  0  0  0
  4  5  1  0  0  0  0
  5  6  1  0  0  0  0
  5 32  1  0  0  0  0
  5 33  1  0  0  0  0
  6 29  1  0  0  0  0
  6  7  1  0  0  0  0
  6  8  1  0  0  0  0
  8  9  1  0  0  0  0
  8 34  1  0  0  0  0
  8 35  1  0  0  0  0
  9 10  1  0  0  0  0
 10 15  1  0  0  0  0
 10 11  2  0  0  0  0
 11 12  1  0  0  0  0
 12 13  2  0  0  0  0
 12 36  1  0  0  0  0
 13 14  1  0  0  0  0
 14 18  1  0  0  0  0
 14 15  2  0  0  0  0
 15 16  1  0  0  0  0
 16 17  2  0  0  0  0
 17 18  1  0  0  0  0
 17 37  1  0  0  0  0
 18 19  1  0  0  0  0
 19 20  1  0  0  0  0
 19 38  1  0  0  0  0
 19 39  1  0  0  0  0
 20 21  1  0  0  0  0
 20 23  1  0  0  0  0
 20 40  1  0  0  0  0
 21 22  1  0  0  0  0
 21 41  1  0  0  0  0
 21 42  1  0  0  0  0
 22 43  1  0  0  0  0
 23 27  1  0  0  0  0
 23 24  1  0  0  0  0
 23 44  1  0  0  0  0
 24 25  1  0  0  0  0
 24 45  1  0  0  0  0
 24 46  1  0  0  0  0
 25 26  1  0  0  0  0
 25 47  1  0  0  0  0
 25 48  1  0  0  0  0
 26 27  1  0  0  0  0
 27 49  1  0  0  0  0
 27 50  1  0  0  0  0
M  END
> <s_m_source_file>
AV-unprocessed.smi

> <i_m_source_file_index>
221

> <i_lp_mmshare_version>
43012

> <i_f3d_flags>
0

> <s_epik_input>
W05IMl1DKD1PKVtDQEBIXTFbQ0gyXVtDQEBIXShGKVtDSDJdTjFjKG5bY0hdbjIpYyhjMjMpbltjSF1uM1tDSDJdW0NASF0oW0NIMl1bT0hdKVtDQEBIXTRbQ0gyXVtDSDJdT1tDSDJdNA==

> <s_epik_cmdline>
J2VwaWtfcHl0aG9uJywgJy1waCcsICc3LjAnLCAnLXRuJywgJzgnLCAnLW1hJywgJzIwMCcsICctbWV0YWxfYmluZGluZycsICctaW1hZScsICc8aW5maWxlLm1hZT4nLCAnLW9tYWUnLCAnPG91dGZpbGUubWFlPic=

> <r_lp_tautomer_probability>
1

> <r_epik_Ionization_Penalty>
0.000818822

> <r_epik_Ionization_Penalty_Charging>
0

> <r_epik_Ionization_Penalty_Neutral>
0.000818822

> <r_epik_State_Penalty>
0.000440551

> <r_epik_Charging_Adjusted_Penalty>
0.000440551

> <i_epik_Tot_Q>
0

> <i_epik_Tot_abs_Q>
0

> <r_epik_Metal_State_Penalty>
-0

> <b_epik_Metal_Only>
0

> <s_lp_Force_Field>
OPLS_2005

> <r_lp_Energy>
47.9731

> <b_lp_Chiralities_Consistent>
1

> <s_lp_Variant>
AV-unprocessed.smi:221-14

> <Gold.Version>
5.8.1

> <Gold.Id.Protein>
6NUR|6NUR_protein|mol2

> <Gold.PLP.Fitness>
45.0568

> <Gold.PLP.PLP>
-38.5988

> <Gold.PLP.part.hbond>
-4.3647

> <Gold.PLP.part.metal>
0.0000

> <Gold.PLP.part.buried>
-2.4364

> <Gold.PLP.part.nonpolar>
-31.2052

> <Gold.PLP.part.repulsive>
0.1510

> <Gold.PLP.ligand.clash>
0.1866

> <Gold.PLP.ligand.torsion>
0.7615

> <Gold.PLP.Chemscore.Hbond>
2.6944

> <Gold.PLP.Chemscore.CHOScore>
0.0000

> <Gold.PLP.Chemscore.Metal>
0.0000

> <Gold.Chemscore.Hbonds>
donor molecule, donor type, donor heavy atom, donor atom, acceptor molecule, acceptor atom, score
      L1  H    22    43       P1  7957  1.00
      P1  H  7954  7966       L1    22  0.65
      P1  H  7997  8008       L1     3  1.00

> <Gold.PLP.Chemscore.Internal.Correction>
0.0843

> <Gold.Rescore>
     Score         DG    S(hbond)    S(metal)    S(lipo)     H(rot)  DE(clash)    DE(int)     intcor
      8.26     -11.06       1.92        0.00      65.37       3.31       0.20       2.61       ----

> <Gold.Chemscore.Fitness>
8.2604

> <Gold.Chemscore.DG>
-11.0647

> <Gold.Chemscore.ZeroCoef>
-5.4800

> <Gold.Chemscore.Hbond>
1.9184

> <Gold.Chemscore.Metal>
0.0000

> <Gold.Chemscore.Lipo>
65.3680

> <Gold.Chemscore.Internal_Hbond>
0.0000

> <Gold.Chemscore.DEClash>
0.1970

> <Gold.Chemscore.DEInternal>
2.6073

> <Gold.Chemscore.Rot>
3.3089

> <Gold.Chemscore.Internal.Correction>
   9.000000E+99

> <Gold.Chemscore.Hbonds>
donor molecule, donor type, donor heavy atom, donor atom, acceptor molecule, acceptor atom, score
      L1  H    22    43       P1  7957  0.86
      P1  H  7954  7966       L1    22  0.05
      P1  H  7997  8008       L1     3  0.95

> <Gold.Chemscore.Hbond.Weighted>
-6.4075

> <Gold.Chemscore.Metal.Weighted>
-0.0000

> <Gold.Chemscore.Lipo.Weighted>
-7.6481

> <Gold.Chemscore.Internal_Hbond.Weighted>
0.0000

> <Gold.Chemscore.DEClash.Weighted>
0.1970

> <Gold.Chemscore.DEInternal.Weighted>
2.6073

> <Gold.Chemscore.Rot.Weighted>
8.4709

> <Gold.Chemscore.Internal.Correction.Weighted>
   9.000000E+99

> <Gold.Protein.RotatedTorsions>
[ 6907 6896 6895 6894 ] final -111.04 input  -60.11 | X-H torsion
[ 7974 7965 7964 7962 ] final   18.09 input  175.53 | X-H torsion
[ 8008 7997 7996 7995 ] final -118.17 input   59.86 | X-H torsion
[ 10167 10162 10161 10158 ] final -151.18 input  -65.29 | X-H torsion
[ 10718 10713 10712 10709 ] final   10.69 input   66.30 | X-H torsion
[ 10763 10752 10751 10750 ] final  -29.87 input  -60.55 | X-H torsion
[ 11005 11000 10999 10996 ] final   14.78 input  -57.11 | X-H torsion

> <Gold.Protein.ActiveResidues>
 VAL166  LYS551  ARG553  GLY616  TRP617  ASP618  TYR619  PRO620  LYS621  CYS622 
 ASP623  PHE694  ASN695  SER759  ASP760  ASP761  ALA762  ILE779  LEU786  VAL792 
 PHE793  MET794  SER795  GLU796  ALA797  LYS798  CYS799  TRP800  GLU811  SER814 

> <Gold.Protein.RotatedAtoms>
  150.7664  133.9294  159.3421 H   0  0  0  0  0  0  0  0  0  0  0  0  # atno 6907 bound_to 6896
  151.7191  135.0896  160.0290 H   0  0  0  0  0  0  0  0  0  0  0  0  # atno 6908 bound_to 6896
  152.3661  133.6321  159.6087 H   0  0  0  0  0  0  0  0  0  0  0  0  # atno 6909 bound_to 6896
  146.2197  139.8507  142.8623 H   0  0  0  0  0  0  0  0  0  0  0  0  # atno 7974 bound_to 7965
  155.0954  140.0395  157.2681 H   0  0  0  0  0  0  0  0  0  0  0  0  # atno 8008 bound_to 7997
  154.6799  140.2631  155.6894 H   0  0  0  0  0  0  0  0  0  0  0  0  # atno 8009 bound_to 7997
  156.2691  140.2780  156.1340 H   0  0  0  0  0  0  0  0  0  0  0  0  # atno 8010 bound_to 7997
  139.7289  143.8839  152.2528 H   0  0  0  0  0  0  0  0  0  0  0  0  # atno 10167 bound_to 10162
  156.9847  130.6019  149.5680 H   0  0  0  0  0  0  0  0  0  0  0  0  # atno 10718 bound_to 10713
  153.7717  135.6912  153.4905 H   0  0  0  0  0  0  0  0  0  0  0  0  # atno 10763 bound_to 10752
  153.1870  135.4485  155.0099 H   0  0  0  0  0  0  0  0  0  0  0  0  # atno 10764 bound_to 10752
  154.8115  135.3379  154.7226 H   0  0  0  0  0  0  0  0  0  0  0  0  # atno 10765 bound_to 10752
  140.4656  134.1083  155.7724 H   0  0  0  0  0  0  0  0  0  0  0  0  # atno 11005 bound_to 11000
  145.2804  141.0137  143.3721 LP  0  0  0  0  0  0  0  0  0  0  0  0  # atno 17320 bound_to 7965
  144.9154  139.4476  143.6566 LP  0  0  0  0  0  0  0  0  0  0  0  0  # atno 17321 bound_to 7965
  139.8756  144.7045  150.8936 LP  0  0  0  0  0  0  0  0  0  0  0  0  # atno 17342 bound_to 10162
  140.7768  143.3702  151.1663 LP  0  0  0  0  0  0  0  0  0  0  0  0  # atno 17343 bound_to 10162
  156.0231  130.5325  150.8330 LP  0  0  0  0  0  0  0  0  0  0  0  0  # atno 17370 bound_to 10713
  157.5502  131.0943  150.9707 LP  0  0  0  0  0  0  0  0  0  0  0  0  # atno 17371 bound_to 10713
  141.1601  133.8809  157.1872 LP  0  0  0  0  0  0  0  0  0  0  0  0  # atno 17394 bound_to 11000
  139.9917  135.0062  156.9991 LP  0  0  0  0  0  0  0  0  0  0  0  0  # atno 17395 bound_to 11000

$$$$
