AV-unprocessed.smi:1762|AV-procd|sdf|7112|dock3
  -GOLD-   22720 8333D 1   1.00000     0.00000
 Structure written by MMmdl.
 53 54  0  0  0  0  0  0  0  0  2 V2000
  149.4393  141.6090  154.4500 C   0  0  0  0  0  0  0  0  0  0  0  0
  149.7884  140.1706  154.8473 C   0  0  1  0  0  0  0  0  0  0  0  0
  149.0647  139.1338  153.9642 C   0  0  0  0  0  0  0  0  0  0  0  0
  149.4537  137.7447  154.3329 N   0  3  2  0  0  0  0  0  0  0  0  0
  148.8729  137.2002  155.6116 C   0  0  2  0  0  0  0  0  0  0  0  0
  147.9062  136.0305  155.3296 C   0  0  0  0  0  0  0  0  0  0  0  0
  147.1895  135.5882  156.2280 O   0  0  0  0  0  0  0  0  0  0  0  0
  147.9001  135.5422  154.0791 N   0  0  0  0  0  0  0  0  0  0  0  0
  147.0649  134.4413  153.6149 C   0  0  0  0  0  0  0  0  0  0  0  0
  145.9161  134.9381  152.7220 C   0  0  0  0  0  0  0  0  0  0  0  0
  145.5508  133.9282  151.6508 C   0  0  0  0  0  0  0  0  0  0  0  0
  144.2002  133.6198  151.3821 C   0  0  0  0  0  0  0  0  0  0  0  0
  143.9155  132.6646  150.3869 C   0  0  0  0  0  0  0  0  0  0  0  0
  144.9866  132.0571  149.7038 C   0  0  0  0  0  0  0  0  0  0  0  0
  146.3005  132.4326  150.0482 C   0  0  0  0  0  0  0  0  0  0  0  0
  146.5842  133.3464  151.0017 N   0  0  0  0  0  0  0  0  0  0  0  0
  148.1829  138.2809  156.5108 C   0  0  0  0  0  0  0  0  0  0  0  0
  148.0160  137.8378  157.9782 C   0  0  0  0  0  0  0  0  0  0  0  0
  146.8371  138.7938  155.9578 C   0  0  0  0  0  0  0  0  0  0  0  0
  150.9376  137.6374  154.2245 C   0  0  0  0  0  0  0  0  0  0  0  0
  151.6493  138.7089  155.0797 C   0  0  1  0  0  0  0  0  0  0  0  0
  153.1705  138.6685  154.8990 C   0  0  0  0  0  0  0  0  0  0  0  0
  151.1935  140.0005  154.6906 O   0  0  0  0  0  0  0  0  0  0  0  0
  148.3714  141.7986  154.5607 H   0  0  0  0  0  0  0  0  0  0  0  0
  149.7096  141.8097  153.4128 H   0  0  0  0  0  0  0  0  0  0  0  0
  149.9700  142.3262  155.0765 H   0  0  0  0  0  0  0  0  0  0  0  0
  149.5194  140.0296  155.8951 H   0  0  0  0  0  0  0  0  0  0  0  0
  147.9879  139.2862  153.9738 H   0  0  0  0  0  0  0  0  0  0  0  0
  149.3536  139.2940  152.9243 H   0  0  0  0  0  0  0  0  0  0  0  0
  149.7006  136.7977  156.1958 H   0  0  0  0  0  0  0  0  0  0  0  0
  148.5225  135.9580  153.4012 H   0  0  0  0  0  0  0  0  0  0  0  0
  147.6740  133.7065  153.0853 H   0  0  0  0  0  0  0  0  0  0  0  0
  146.6588  133.9340  154.4906 H   0  0  0  0  0  0  0  0  0  0  0  0
  145.0354  135.1516  153.3294 H   0  0  0  0  0  0  0  0  0  0  0  0
  146.1896  135.8784  152.2407 H   0  0  0  0  0  0  0  0  0  0  0  0
  143.4001  134.0999  151.9265 H   0  0  0  0  0  0  0  0  0  0  0  0
  142.8945  132.4018  150.1531 H   0  0  0  0  0  0  0  0  0  0  0  0
  144.8062  131.3203  148.9348 H   0  0  0  0  0  0  0  0  0  0  0  0
  147.1457  131.9864  149.5456 H   0  0  0  0  0  0  0  0  0  0  0  0
  148.8554  139.1351  156.5747 H   0  0  0  0  0  0  0  0  0  0  0  0
  147.2703  137.0496  158.0870 H   0  0  0  0  0  0  0  0  0  0  0  0
  147.6935  138.6727  158.6010 H   0  0  0  0  0  0  0  0  0  0  0  0
  148.9563  137.4698  158.3894 H   0  0  0  0  0  0  0  0  0  0  0  0
  146.0722  138.0172  155.9720 H   0  0  0  0  0  0  0  0  0  0  0  0
  146.9243  139.1515  154.9324 H   0  0  0  0  0  0  0  0  0  0  0  0
  146.4646  139.6245  156.5578 H   0  0  0  0  0  0  0  0  0  0  0  0
  151.3009  136.6430  154.4811 H   0  0  0  0  0  0  0  0  0  0  0  0
  151.2075  137.7788  153.1768 H   0  0  0  0  0  0  0  0  0  0  0  0
  151.4317  138.5571  156.1375 H   0  0  0  0  0  0  0  0  0  0  0  0
  153.5749  137.7019  155.2008 H   0  0  0  0  0  0  0  0  0  0  0  0
  153.6563  139.4344  155.5040 H   0  0  0  0  0  0  0  0  0  0  0  0
  153.4508  138.8388  153.8591 H   0  0  0  0  0  0  0  0  0  0  0  0
  149.0757  137.1494  153.6092 H   0  0  0  0  0  0  0  0  0  0  0  0
  1  2  1  0  0  0  0
  1 24  1  0  0  0  0
  1 25  1  0  0  0  0
  1 26  1  0  0  0  0
  2 23  1  0  0  0  0
  2  3  1  0  0  0  0
  2 27  1  0  0  0  0
  3  4  1  0  0  0  0
  3 28  1  0  0  0  0
  3 29  1  0  0  0  0
  4  5  1  0  0  0  0
  4 20  1  0  0  0  0
  4 53  1  0  0  0  0
  5  6  1  0  0  0  0
  5 17  1  0  0  0  0
  5 30  1  0  0  0  0
  6  7  2  0  0  0  0
  6  8  1  0  0  0  0
  8  9  1  0  0  0  0
  8 31  1  0  0  0  0
  9 10  1  0  0  0  0
  9 32  1  0  0  0  0
  9 33  1  0  0  0  0
 10 11  1  0  0  0  0
 10 34  1  0  0  0  0
 10 35  1  0  0  0  0
 11 16  1  0  0  0  0
 11 12  2  0  0  0  0
 12 13  1  0  0  0  0
 12 36  1  0  0  0  0
 13 14  2  0  0  0  0
 13 37  1  0  0  0  0
 14 15  1  0  0  0  0
 14 38  1  0  0  0  0
 15 16  2  0  0  0  0
 15 39  1  0  0  0  0
 17 18  1  0  0  0  0
 17 19  1  0  0  0  0
 17 40  1  0  0  0  0
 18 41  1  0  0  0  0
 18 42  1  0  0  0  0
 18 43  1  0  0  0  0
 19 44  1  0  0  0  0
 19 45  1  0  0  0  0
 19 46  1  0  0  0  0
 20 21  1  0  0  0  0
 20 47  1  0  0  0  0
 20 48  1  0  0  0  0
 21 22  1  0  0  0  0
 21 23  1  0  0  0  0
 21 49  1  0  0  0  0
 22 50  1  0  0  0  0
 22 51  1  0  0  0  0
 22 52  1  0  0  0  0
M  CHG  1   4   1
M  END
> <s_m_source_file>
AV-unprocessed.smi

> <i_m_source_file_index>
1762

> <i_lp_mmshare_version>
43012

> <i_f3d_flags>
0

> <s_epik_input>
W0NIM11bQ0BASF0xW0NIMl1OKFtDSDJdW0NASF0oTzEpW0NIM10pW0NAQEhdKFtDSF0oW0NIM10pW0NIM10pQyg9TylbTkhdW0NIMl1bQ0gyXWMyW2NIXVtjSF1bY0hdW2NIXW4y

> <s_epik_cmdline>
J2VwaWtfcHl0aG9uJywgJy1waCcsICc3LjAnLCAnLXRuJywgJzgnLCAnLW1hJywgJzIwMCcsICctbWV0YWxfYmluZGluZycsICctaW1hZScsICc8aW5maWxlLm1hZT4nLCAnLW9tYWUnLCAnPG91dGZpbGUubWFlPic=

> <r_epik_Ionization_Penalty>
2.27005

> <r_epik_Ionization_Penalty_Charging>
2.24983

> <r_epik_Ionization_Penalty_Neutral>
0.0202209

> <r_epik_State_Penalty>
2.40228

> <r_epik_Charging_Adjusted_Penalty>
4.65211

> <i_epik_Tot_Q>
1

> <i_epik_Tot_abs_Q>
1

> <r_epik_Metal_State_Penalty>
2.40762

> <b_epik_Metal_Only>
0

> <s_lp_Force_Field>
OPLS_2005

> <r_lp_Energy>
22.1735

> <b_lp_Chiralities_Consistent>
1

> <s_lp_Variant>
AV-unprocessed.smi:1762-14

> <Gold.Version>
5.8.1

> <Gold.Id.Protein>
6NUR|6NUR_protein|mol2

> <Gold.PLP.Fitness>
47.0517

> <Gold.PLP.PLP>
-37.2169

> <Gold.PLP.part.hbond>
-3.0000

> <Gold.PLP.part.metal>
0.0000

> <Gold.PLP.part.buried>
-2.9824

> <Gold.PLP.part.nonpolar>
-31.5060

> <Gold.PLP.part.repulsive>
0.2821

> <Gold.PLP.ligand.clash>
0.4691

> <Gold.PLP.ligand.torsion>
2.4681

> <Gold.PLP.Chemscore.Hbond>
4.0000

> <Gold.PLP.Chemscore.CHOScore>
1.0000

> <Gold.PLP.Chemscore.Metal>
0.0000

> <Gold.Chemscore.Hbonds>
donor molecule, donor type, donor heavy atom, donor atom, acceptor molecule, acceptor atom, score
      L1  H     4    53       P1  7948  2.00
      L1  H     8    31       P1  7948  1.00
      P1  H  7989  7998       L1    23  1.00
      L1  C    15    39       P1 10747  1.00

> <Gold.PLP.Chemscore.Internal.Correction>
0.2400

> <Gold.Rescore>
     Score         DG    S(hbond)    S(metal)    S(lipo)     H(rot)  DE(clash)    DE(int)     intcor
     17.18     -22.28       2.88        0.00      97.71       1.66       0.11       4.99       ----

> <Gold.Chemscore.Fitness>
17.1826

> <Gold.Chemscore.DG>
-22.2822

> <Gold.Chemscore.ZeroCoef>
-5.4800

> <Gold.Chemscore.Hbond>
2.8827

> <Gold.Chemscore.Metal>
0.0000

> <Gold.Chemscore.Lipo>
97.7129

> <Gold.Chemscore.Internal_Hbond>
0.0000

> <Gold.Chemscore.DEClash>
0.1133

> <Gold.Chemscore.DEInternal>
4.9863

> <Gold.Chemscore.Rot>
1.6635

> <Gold.Chemscore.Internal.Correction>
   9.000000E+99

> <Gold.Chemscore.Hbonds>
donor molecule, donor type, donor heavy atom, donor atom, acceptor molecule, acceptor atom, score
      L1  H     4    53       P1  7948  0.97
      L1  H     8    31       P1  7948  0.94
      P1  H  7989  7998       L1    23  0.61

> <Gold.Chemscore.Hbond.Weighted>
-9.6284

> <Gold.Chemscore.Metal.Weighted>
-0.0000

> <Gold.Chemscore.Lipo.Weighted>
-11.4324

> <Gold.Chemscore.Internal_Hbond.Weighted>
0.0000

> <Gold.Chemscore.DEClash.Weighted>
0.1133

> <Gold.Chemscore.DEInternal.Weighted>
4.9863

> <Gold.Chemscore.Rot.Weighted>
4.2586

> <Gold.Chemscore.Internal.Correction.Weighted>
   9.000000E+99

> <Gold.Protein.RotatedTorsions>
[ 6907 6896 6895 6894 ] final    5.12 input  -60.11 | X-H torsion
[ 7974 7965 7964 7962 ] final   96.86 input  175.53 | X-H torsion
[ 8008 7997 7996 7995 ] final   34.67 input   59.86 | X-H torsion
[ 10167 10162 10161 10158 ] final -148.50 input  -65.29 | X-H torsion
[ 10718 10713 10712 10709 ] final   71.62 input   66.30 | X-H torsion
[ 10763 10752 10751 10750 ] final -132.96 input  -60.55 | X-H torsion
[ 11005 11000 10999 10996 ] final  147.44 input  -57.11 | X-H torsion

> <Gold.Protein.ActiveResidues>
 VAL166  LYS551  ARG553  GLY616  TRP617  ASP618  TYR619  PRO620  LYS621  CYS622 
 ASP623  PHE694  ASN695  SER759  ASP760  ASP761  ALA762  ILE779  LEU786  VAL792 
 PHE793  MET794  SER795  GLU796  ALA797  LYS798  CYS799  TRP800  GLU811  SER814 

> <Gold.Protein.RotatedAtoms>
  151.6523  135.1000  160.0162 H   0  0  0  0  0  0  0  0  0  0  0  0  # atno 6907 bound_to 6896
  152.3994  133.6790  159.6312 H   0  0  0  0  0  0  0  0  0  0  0  0  # atno 6908 bound_to 6896
  150.7896  133.8735  159.3306 H   0  0  0  0  0  0  0  0  0  0  0  0  # atno 6909 bound_to 6896
  145.4332  139.2308  143.3132 H   0  0  0  0  0  0  0  0  0  0  0  0  # atno 7974 bound_to 7965
  155.1586  140.3281  155.4416 H   0  0  0  0  0  0  0  0  0  0  0  0  # atno 8008 bound_to 7997
  156.2550  140.1964  156.6645 H   0  0  0  0  0  0  0  0  0  0  0  0  # atno 8009 bound_to 7997
  154.6421  140.0569  156.9844 H   0  0  0  0  0  0  0  0  0  0  0  0  # atno 8010 bound_to 7997
  139.7526  143.8495  152.2590 H   0  0  0  0  0  0  0  0  0  0  0  0  # atno 10167 bound_to 10162
  157.6461  130.9537  150.0814 H   0  0  0  0  0  0  0  0  0  0  0  0  # atno 10718 bound_to 10713
  154.8738  135.3781  154.4495 H   0  0  0  0  0  0  0  0  0  0  0  0  # atno 10763 bound_to 10752
  153.5172  135.7029  153.5755 H   0  0  0  0  0  0  0  0  0  0  0  0  # atno 10764 bound_to 10752
  153.4018  135.3946  155.1958 H   0  0  0  0  0  0  0  0  0  0  0  0  # atno 10765 bound_to 10752
  140.0876  134.9060  157.1599 H   0  0  0  0  0  0  0  0  0  0  0  0  # atno 11005 bound_to 11000
  146.2596  140.5072  142.8859 LP  0  0  0  0  0  0  0  0  0  0  0  0  # atno 17320 bound_to 7965
  144.8169  140.6483  143.6378 LP  0  0  0  0  0  0  0  0  0  0  0  0  # atno 17321 bound_to 7965
  139.8478  144.7179  150.9251 LP  0  0  0  0  0  0  0  0  0  0  0  0  # atno 17342 bound_to 10162
  140.7799  143.3926  151.1284 LP  0  0  0  0  0  0  0  0  0  0  0  0  # atno 17343 bound_to 10162
  156.1790  130.3649  149.9062 LP  0  0  0  0  0  0  0  0  0  0  0  0  # atno 17370 bound_to 10713
  156.7019  130.8936  151.3600 LP  0  0  0  0  0  0  0  0  0  0  0  0  # atno 17371 bound_to 10713
  140.3399  134.2716  155.7214 LP  0  0  0  0  0  0  0  0  0  0  0  0  # atno 17394 bound_to 11000
  141.2067  133.7825  157.0159 LP  0  0  0  0  0  0  0  0  0  0  0  0  # atno 17395 bound_to 11000

$$$$
