AV-unprocessed.smi:1423|AV-procd|sdf|5794|dock6
  -GOLD-   22720 5443D 1   1.00000     0.00000
 Structure written by MMmdl.
 43 44  0  0  0  0  0  0  0  0  1 V2000
  153.4052  143.4713  163.4215 C   0  0  0  0  0  0  0  0  0  0  0  0
  153.7501  142.5030  162.4366 O   0  0  0  0  0  0  0  0  0  0  0  0
  153.0102  142.4606  161.2727 C   0  0  0  0  0  0  0  0  0  0  0  0
  153.2243  141.3964  160.3747 C   0  0  0  0  0  0  0  0  0  0  0  0
  152.4729  141.3450  159.1846 C   0  0  0  0  0  0  0  0  0  0  0  0
  151.5230  142.3642  158.9298 C   0  0  0  0  0  0  0  0  0  0  0  0
  150.6921  142.4410  157.7772 N   0  0  0  0  0  0  0  0  0  0  0  0
  150.5508  141.5725  156.7608 C   0  0  0  0  0  0  0  0  0  0  0  0
  151.1809  140.5257  156.6167 O   0  0  0  0  0  0  0  0  0  0  0  0
  149.6156  141.9940  155.8976 N   0  0  0  0  0  0  0  0  0  0  0  0
  149.1965  141.2813  154.6947 C   0  0  0  0  0  0  0  0  0  0  0  0
  147.8301  141.7841  154.2029 C   0  0  0  0  0  0  0  0  0  0  0  0
  147.3310  140.9465  153.0126 C   0  0  0  0  0  0  0  0  0  0  0  0
  147.2336  139.5285  153.3757 N   0  0  0  0  0  0  0  0  0  0  0  0
  146.6401  138.7791  152.2444 C   0  0  0  0  0  0  0  0  0  0  0  0
  145.7181  137.6236  152.6546 C   0  0  0  0  0  0  0  0  0  0  0  0
  144.5448  137.5270  152.0248 N   0  0  0  0  0  0  0  0  0  0  0  0
  146.0631  136.8279  153.5256 O   0  0  0  0  0  0  0  0  0  0  0  0
  148.5530  139.0100  153.7665 C   0  0  0  0  0  0  0  0  0  0  0  0
  149.0966  139.7777  154.9847 C   0  0  0  0  0  0  0  0  0  0  0  0
  151.3888  143.3860  159.8928 C   0  0  0  0  0  0  0  0  0  0  0  0
  152.1061  143.4419  161.0342 N   0  0  0  0  0  0  0  0  0  0  0  0
  154.0780  143.3754  164.2734 H   0  0  0  0  0  0  0  0  0  0  0  0
  152.3875  143.3256  163.7866 H   0  0  0  0  0  0  0  0  0  0  0  0
  153.5046  144.4862  163.0338 H   0  0  0  0  0  0  0  0  0  0  0  0
  153.9542  140.6313  160.5945 H   0  0  0  0  0  0  0  0  0  0  0  0
  152.6484  140.5274  158.5047 H   0  0  0  0  0  0  0  0  0  0  0  0
  150.0997  143.2575  157.7361 H   0  0  0  0  0  0  0  0  0  0  0  0
  149.1496  142.8682  156.0912 H   0  0  0  0  0  0  0  0  0  0  0  0
  149.9381  141.4305  153.9073 H   0  0  0  0  0  0  0  0  0  0  0  0
  147.0998  141.7364  155.0123 H   0  0  0  0  0  0  0  0  0  0  0  0
  147.8983  142.8324  153.9097 H   0  0  0  0  0  0  0  0  0  0  0  0
  146.3513  141.3177  152.7090 H   0  0  0  0  0  0  0  0  0  0  0  0
  147.9972  141.0747  152.1574 H   0  0  0  0  0  0  0  0  0  0  0  0
  146.0425  139.4588  151.6352 H   0  0  0  0  0  0  0  0  0  0  0  0
  147.4352  138.4031  151.5972 H   0  0  0  0  0  0  0  0  0  0  0  0
  143.9052  136.7822  152.2598 H   0  0  0  0  0  0  0  0  0  0  0  0
  144.3021  138.2009  151.3129 H   0  0  0  0  0  0  0  0  0  0  0  0
  148.4939  137.9551  154.0339 H   0  0  0  0  0  0  0  0  0  0  0  0
  149.2496  139.0851  152.9295 H   0  0  0  0  0  0  0  0  0  0  0  0
  150.0765  139.3853  155.2593 H   0  0  0  0  0  0  0  0  0  0  0  0
  148.4430  139.6039  155.8413 H   0  0  0  0  0  0  0  0  0  0  0  0
  150.6792  144.1872  159.7452 H   0  0  0  0  0  0  0  0  0  0  0  0
  1  2  1  0  0  0  0
  1 23  1  0  0  0  0
  1 24  1  0  0  0  0
  1 25  1  0  0  0  0
  2  3  1  0  0  0  0
  3 22  1  0  0  0  0
  3  4  2  0  0  0  0
  4  5  1  0  0  0  0
  4 26  1  0  0  0  0
  5  6  2  0  0  0  0
  5 27  1  0  0  0  0
  6  7  1  0  0  0  0
  6 21  1  0  0  0  0
  7  8  1  0  0  0  0
  7 28  1  0  0  0  0
  8  9  2  0  0  0  0
  8 10  1  0  0  0  0
 10 11  1  0  0  0  0
 10 29  1  0  0  0  0
 11 20  1  0  0  0  0
 11 12  1  0  0  0  0
 11 30  1  0  0  0  0
 12 13  1  0  0  0  0
 12 31  1  0  0  0  0
 12 32  1  0  0  0  0
 13 14  1  0  0  0  0
 13 33  1  0  0  0  0
 13 34  1  0  0  0  0
 14 15  1  0  0  0  0
 14 19  1  0  0  0  0
 15 16  1  0  0  0  0
 15 35  1  0  0  0  0
 15 36  1  0  0  0  0
 16 17  1  0  0  0  0
 16 18  2  0  0  0  0
 17 37  1  0  0  0  0
 17 38  1  0  0  0  0
 19 20  1  0  0  0  0
 19 39  1  0  0  0  0
 19 40  1  0  0  0  0
 20 41  1  0  0  0  0
 20 42  1  0  0  0  0
 21 22  2  0  0  0  0
 21 43  1  0  0  0  0
M  END
> <s_m_source_file>
AV-unprocessed.smi

> <i_m_source_file_index>
1423

> <i_lp_mmshare_version>
43012

> <i_f3d_flags>
0

> <s_epik_input>
W0NIM11PYzFbY0hdW2NIXWMoW2NIXW4xKVtOSF1DKD1PKVtOSF1bQ0hdMltDSDJdW0NIMl1OKFtDSDJdW0NIMl0yKVtDSDJdQyg9TylbTkgyXQ==

> <s_epik_cmdline>
J2VwaWtfcHl0aG9uJywgJy1waCcsICc3LjAnLCAnLXRuJywgJzgnLCAnLW1hJywgJzIwMCcsICctbWV0YWxfYmluZGluZycsICctaW1hZScsICc8aW5maWxlLm1hZT4nLCAnLW9tYWUnLCAnPG91dGZpbGUubWFlPic=

> <r_lp_tautomer_probability>
1

> <r_epik_Ionization_Penalty>
0.16483

> <r_epik_Ionization_Penalty_Charging>
0

> <r_epik_Ionization_Penalty_Neutral>
0.16483

> <r_epik_State_Penalty>
0.154069

> <r_epik_Charging_Adjusted_Penalty>
0.154069

> <i_epik_Tot_Q>
0

> <i_epik_Tot_abs_Q>
0

> <r_epik_Metal_State_Penalty>
0.171364

> <b_epik_Metal_Only>
0

> <s_lp_Force_Field>
OPLS_2005

> <r_lp_Energy>
14.563

> <b_lp_Chiralities_Consistent>
1

> <s_lp_Variant>
AV-unprocessed.smi:1423-1

> <Gold.Version>
5.8.1

> <Gold.Id.Protein>
6NUR|6NUR_protein|mol2

> <Gold.PLP.Fitness>
44.4096

> <Gold.PLP.PLP>
-40.3054

> <Gold.PLP.part.hbond>
-3.5699

> <Gold.PLP.part.metal>
0.0000

> <Gold.PLP.part.buried>
-4.0746

> <Gold.PLP.part.nonpolar>
-33.2831

> <Gold.PLP.part.repulsive>
0.6648

> <Gold.PLP.ligand.clash>
0.0000

> <Gold.PLP.ligand.torsion>
0.9519

> <Gold.PLP.Chemscore.Hbond>
2.0000

> <Gold.PLP.Chemscore.CHOScore>
0.0000

> <Gold.PLP.Chemscore.Metal>
0.0000

> <Gold.Chemscore.Hbonds>
donor molecule, donor type, donor heavy atom, donor atom, acceptor molecule, acceptor atom, score
      L1  H    10    29       P1  8028  0.98
      L1  H    17    38       P1 10171  1.00

> <Gold.PLP.Chemscore.Internal.Correction>
0.0079

> <Gold.Rescore>
     Score         DG    S(hbond)    S(metal)    S(lipo)     H(rot)  DE(clash)    DE(int)     intcor
     13.32     -17.02       2.01        0.00      91.33       2.29       0.35       3.35       ----

> <Gold.Chemscore.Fitness>
13.3189

> <Gold.Chemscore.DG>
-17.0200

> <Gold.Chemscore.ZeroCoef>
-5.4800

> <Gold.Chemscore.Hbond>
2.0148

> <Gold.Chemscore.Metal>
0.0000

> <Gold.Chemscore.Lipo>
91.3289

> <Gold.Chemscore.Internal_Hbond>
0.0000

> <Gold.Chemscore.DEClash>
0.3503

> <Gold.Chemscore.DEInternal>
3.3508

> <Gold.Chemscore.Rot>
2.2949

> <Gold.Chemscore.Internal.Correction>
   9.000000E+99

> <Gold.Chemscore.Hbonds>
donor molecule, donor type, donor heavy atom, donor atom, acceptor molecule, acceptor atom, score
      L1  H    10    29       P1  8028  0.93
      L1  H    17    38       P1 10171  0.96

> <Gold.Chemscore.Hbond.Weighted>
-6.7296

> <Gold.Chemscore.Metal.Weighted>
-0.0000

> <Gold.Chemscore.Lipo.Weighted>
-10.6855

> <Gold.Chemscore.Internal_Hbond.Weighted>
0.0000

> <Gold.Chemscore.DEClash.Weighted>
0.3503

> <Gold.Chemscore.DEInternal.Weighted>
3.3508

> <Gold.Chemscore.Rot.Weighted>
5.8750

> <Gold.Chemscore.Internal.Correction.Weighted>
   9.000000E+99

> <Gold.Protein.RotatedTorsions>
[ 6907 6896 6895 6894 ] final -139.66 input  -60.11 | X-H torsion
[ 7974 7965 7964 7962 ] final   99.73 input  175.53 | X-H torsion
[ 8008 7997 7996 7995 ] final  -67.96 input   59.86 | X-H torsion
[ 10167 10162 10161 10158 ] final  137.63 input  -65.29 | X-H torsion
[ 10718 10713 10712 10709 ] final  -87.91 input   66.30 | X-H torsion
[ 10763 10752 10751 10750 ] final  -45.81 input  -60.55 | X-H torsion
[ 11005 11000 10999 10996 ] final -174.60 input  -57.11 | X-H torsion

> <Gold.Protein.ActiveResidues>
 VAL166  LYS551  ARG553  GLY616  TRP617  ASP618  TYR619  PRO620  LYS621  CYS622 
 ASP623  PHE694  ASN695  SER759  ASP760  ASP761  ALA762  ILE779  LEU786  VAL792 
 PHE793  MET794  SER795  GLU796  ALA797  LYS798  CYS799  TRP800  GLU811  SER814 

> <Gold.Protein.RotatedAtoms>
  151.0507  133.5627  159.2642 H   0  0  0  0  0  0  0  0  0  0  0  0  # atno 6907 bound_to 6896
  151.2639  135.0662  159.9118 H   0  0  0  0  0  0  0  0  0  0  0  0  # atno 6908 bound_to 6896
  152.5381  134.0248  159.8052 H   0  0  0  0  0  0  0  0  0  0  0  0  # atno 6909 bound_to 6896
  145.3949  139.2357  143.3331 H   0  0  0  0  0  0  0  0  0  0  0  0  # atno 7974 bound_to 7965
  154.4835  140.0882  156.7433 H   0  0  0  0  0  0  0  0  0  0  0  0  # atno 8008 bound_to 7997
  155.4408  140.3453  155.4271 H   0  0  0  0  0  0  0  0  0  0  0  0  # atno 8009 bound_to 7997
  156.1227  140.1479  156.9169 H   0  0  0  0  0  0  0  0  0  0  0  0  # atno 8010 bound_to 7997
  139.5138  144.6399  151.5597 H   0  0  0  0  0  0  0  0  0  0  0  0  # atno 10167 bound_to 10162
  155.9984  130.4817  150.4939 H   0  0  0  0  0  0  0  0  0  0  0  0  # atno 10718 bound_to 10713
  154.0347  135.6652  153.4784 H   0  0  0  0  0  0  0  0  0  0  0  0  # atno 10763 bound_to 10752
  153.0526  135.5075  154.7899 H   0  0  0  0  0  0  0  0  0  0  0  0  # atno 10764 bound_to 10752
  154.6856  135.3052  154.9517 H   0  0  0  0  0  0  0  0  0  0  0  0  # atno 10765 bound_to 10752
  140.4727  134.6150  157.4888 H   0  0  0  0  0  0  0  0  0  0  0  0  # atno 11005 bound_to 11000
  146.2780  140.4638  142.8788 LP  0  0  0  0  0  0  0  0  0  0  0  0  # atno 17320 bound_to 7965
  144.8414  140.6863  143.6227 LP  0  0  0  0  0  0  0  0  0  0  0  0  # atno 17321 bound_to 7965
  140.6162  143.9344  150.6490 LP  0  0  0  0  0  0  0  0  0  0  0  0  # atno 17342 bound_to 10162
  140.2603  143.3529  152.1329 LP  0  0  0  0  0  0  0  0  0  0  0  0  # atno 17343 bound_to 10162
  157.2931  131.0630  151.2120 LP  0  0  0  0  0  0  0  0  0  0  0  0  # atno 17370 bound_to 10713
  157.3126  130.6897  149.6224 LP  0  0  0  0  0  0  0  0  0  0  0  0  # atno 17371 bound_to 10713
  139.9875  134.7038  155.9748 LP  0  0  0  0  0  0  0  0  0  0  0  0  # atno 17394 bound_to 11000
  141.1569  133.6542  156.4191 LP  0  0  0  0  0  0  0  0  0  0  0  0  # atno 17395 bound_to 11000

$$$$
