AV-unprocessed.smi:3017|AV-procd|sdf|11475|dock9
  -GOLD-   2272016413D 1   1.00000     0.00000
 Structure written by MMmdl.
 37 38  0  0  0  0  0  0  0  0  1 V2000
  144.0200  141.9964  156.8937 C   0  0  0  0  0  0  0  0  0  0  0  0
  145.2492  142.1158  155.9817 C   0  0  2  0  0  0  0  0  0  0  0  0
  144.9841  143.0665  154.7987 C   0  0  0  0  0  0  0  0  0  0  0  0
  146.2111  143.1811  153.8802 C   0  0  0  0  0  0  0  0  0  0  0  0
  146.6644  141.8003  153.3799 C   0  0  0  0  0  0  0  0  0  0  0  0
  146.9396  140.8329  154.5500 C   0  0  1  0  0  0  0  0  0  0  0  0
  148.0352  141.2763  155.3413 O   0  0  0  0  0  0  0  0  0  0  0  0
  149.2383  141.5082  154.6209 C   0  0  0  0  0  0  0  0  0  0  0  0
  150.3999  141.6100  155.6091 C   0  0  0  0  0  0  0  0  0  0  0  0
  151.2972  140.7682  155.5729 O   0  0  0  0  0  0  0  0  0  0  0  0
  150.3444  142.6321  156.4838 N   0  0  0  0  0  0  0  0  0  0  0  0
  151.2863  142.9828  157.4858 C   0  0  0  0  0  0  0  0  0  0  0  0
  151.9131  141.8996  158.1456 C   0  0  0  0  0  0  0  0  0  0  0  0
  152.8275  142.0729  159.1258 N   0  0  0  0  0  0  0  0  0  0  0  0
  153.1238  143.3479  159.4562 C   0  0  0  0  0  0  0  0  0  0  0  0
  152.5104  144.4392  158.8094 C   0  0  0  0  0  0  0  0  0  0  0  0
  151.5973  144.2589  157.8302 N   0  0  0  0  0  0  0  0  0  0  0  0
  145.7104  140.7343  155.4726 C   0  0  0  0  0  0  0  0  0  0  0  0
  143.1679  141.5755  156.3589 H   0  0  0  0  0  0  0  0  0  0  0  0
  143.7224  142.9714  157.2808 H   0  0  0  0  0  0  0  0  0  0  0  0
  144.2279  141.3531  157.7492 H   0  0  0  0  0  0  0  0  0  0  0  0
  146.0561  142.5421  156.5798 H   0  0  0  0  0  0  0  0  0  0  0  0
  144.1314  142.7077  154.2209 H   0  0  0  0  0  0  0  0  0  0  0  0
  144.7119  144.0557  155.1685 H   0  0  0  0  0  0  0  0  0  0  0  0
  145.9794  143.8252  153.0317 H   0  0  0  0  0  0  0  0  0  0  0  0
  147.0286  143.6626  154.4182 H   0  0  0  0  0  0  0  0  0  0  0  0
  145.8837  141.3783  152.7458 H   0  0  0  0  0  0  0  0  0  0  0  0
  147.5412  141.9040  152.7418 H   0  0  0  0  0  0  0  0  0  0  0  0
  147.1539  139.8359  154.1610 H   0  0  0  0  0  0  0  0  0  0  0  0
  149.4322  140.6879  153.9285 H   0  0  0  0  0  0  0  0  0  0  0  0
  149.1777  142.4291  154.0409 H   0  0  0  0  0  0  0  0  0  0  0  0
  149.5412  143.2392  156.4067 H   0  0  0  0  0  0  0  0  0  0  0  0
  151.6785  140.8774  157.8857 H   0  0  0  0  0  0  0  0  0  0  0  0
  153.8525  143.4985  160.2388 H   0  0  0  0  0  0  0  0  0  0  0  0
  152.7515  145.4570  159.0779 H   0  0  0  0  0  0  0  0  0  0  0  0
  145.9379  140.0813  156.3161 H   0  0  0  0  0  0  0  0  0  0  0  0
  144.8934  140.2570  154.9297 H   0  0  0  0  0  0  0  0  0  0  0  0
  1  2  1  0  0  0  0
  1 19  1  0  0  0  0
  1 20  1  0  0  0  0
  1 21  1  0  0  0  0
  2 18  1  0  0  0  0
  2  3  1  0  0  0  0
  2 22  1  0  0  0  0
  3  4  1  0  0  0  0
  3 23  1  0  0  0  0
  3 24  1  0  0  0  0
  4  5  1  0  0  0  0
  4 25  1  0  0  0  0
  4 26  1  0  0  0  0
  5  6  1  0  0  0  0
  5 27  1  0  0  0  0
  5 28  1  0  0  0  0
  6  7  1  0  0  0  0
  6 18  1  0  0  0  0
  6 29  1  0  0  0  0
  7  8  1  0  0  0  0
  8  9  1  0  0  0  0
  8 30  1  0  0  0  0
  8 31  1  0  0  0  0
  9 10  2  0  0  0  0
  9 11  1  0  0  0  0
 11 12  1  0  0  0  0
 11 32  1  0  0  0  0
 12 17  1  0  0  0  0
 12 13  2  0  0  0  0
 13 14  1  0  0  0  0
 13 33  1  0  0  0  0
 14 15  2  0  0  0  0
 15 16  1  0  0  0  0
 15 34  1  0  0  0  0
 16 17  2  0  0  0  0
 16 35  1  0  0  0  0
 18 36  1  0  0  0  0
 18 37  1  0  0  0  0
M  END
> <s_m_source_file>
AV-unprocessed.smi

> <i_m_source_file_index>
3017

> <i_lp_mmshare_version>
43012

> <i_f3d_flags>
0

> <s_epik_input>
W0NIM11bQ0BASF0xW0NIMl1bQ0gyXVtDSDJdW0NASF0oW0NIMl0xKU9bQ0gyXUMoPU8pW05IXWMyW2NIXW5bY0hdW2NIXW4y

> <s_epik_cmdline>
J2VwaWtfcHl0aG9uJywgJy1waCcsICc3LjAnLCAnLXRuJywgJzgnLCAnLW1hJywgJzIwMCcsICctbWV0YWxfYmluZGluZycsICctaW1hZScsICc8aW5maWxlLm1hZT4nLCAnLW9tYWUnLCAnPG91dGZpbGUubWFlPic=

> <r_lp_tautomer_probability>
1

> <r_epik_Ionization_Penalty>
2.89243e-06

> <r_epik_Ionization_Penalty_Charging>
0

> <r_epik_Ionization_Penalty_Neutral>
2.89243e-06

> <r_epik_State_Penalty>
-0

> <r_epik_Charging_Adjusted_Penalty>
0

> <i_epik_Tot_Q>
0

> <i_epik_Tot_abs_Q>
0

> <r_epik_Metal_State_Penalty>
-0

> <b_epik_Metal_Only>
0

> <s_lp_Force_Field>
OPLS_2005

> <r_lp_Energy>
20.5488

> <b_lp_Chiralities_Consistent>
1

> <s_lp_Variant>
AV-unprocessed.smi:3017-1

> <Gold.Version>
5.8.1

> <Gold.Id.Protein>
6NUR|6NUR_protein|mol2

> <Gold.PLP.Fitness>
38.2125

> <Gold.PLP.PLP>
-34.7127

> <Gold.PLP.part.hbond>
-2.0000

> <Gold.PLP.part.metal>
0.0000

> <Gold.PLP.part.buried>
-5.7603

> <Gold.PLP.part.nonpolar>
-25.5328

> <Gold.PLP.part.repulsive>
0.3200

> <Gold.PLP.ligand.clash>
0.0000

> <Gold.PLP.ligand.torsion>
0.3504

> <Gold.PLP.Chemscore.Hbond>
1.3972

> <Gold.PLP.Chemscore.CHOScore>
0.0000

> <Gold.PLP.Chemscore.Metal>
0.0000

> <Gold.Chemscore.Hbonds>
donor molecule, donor type, donor heavy atom, donor atom, acceptor molecule, acceptor atom, score
      L1  H    11    32       P1  8028  0.91
      P1  H  7989  7998       L1    10  0.50

> <Gold.PLP.Chemscore.Internal.Correction>
0.0089

> <Gold.Rescore>
     Score         DG    S(hbond)    S(metal)    S(lipo)     H(rot)  DE(clash)    DE(int)     intcor
     11.97     -13.64       0.98        0.00      74.80       1.51       0.03       1.64       ----

> <Gold.Chemscore.Fitness>
11.9659

> <Gold.Chemscore.DG>
-13.6373

> <Gold.Chemscore.ZeroCoef>
-5.4800

> <Gold.Chemscore.Hbond>
0.9809

> <Gold.Chemscore.Metal>
0.0000

> <Gold.Chemscore.Lipo>
74.8014

> <Gold.Chemscore.Internal_Hbond>
0.0000

> <Gold.Chemscore.DEClash>
0.0317

> <Gold.Chemscore.DEInternal>
1.6397

> <Gold.Chemscore.Rot>
1.5119

> <Gold.Chemscore.Internal.Correction>
   9.000000E+99

> <Gold.Chemscore.Hbonds>
donor molecule, donor type, donor heavy atom, donor atom, acceptor molecule, acceptor atom, score
      L1  H    11    32       P1  8028  0.90
      P1  H  7989  7998       L1    10  0.07

> <Gold.Chemscore.Hbond.Weighted>
-3.2761

> <Gold.Chemscore.Metal.Weighted>
-0.0000

> <Gold.Chemscore.Lipo.Weighted>
-8.7518

> <Gold.Chemscore.Internal_Hbond.Weighted>
0.0000

> <Gold.Chemscore.DEClash.Weighted>
0.0317

> <Gold.Chemscore.DEInternal.Weighted>
1.6397

> <Gold.Chemscore.Rot.Weighted>
3.8706

> <Gold.Chemscore.Internal.Correction.Weighted>
   9.000000E+99

> <Gold.Protein.RotatedTorsions>
[ 6907 6896 6895 6894 ] final   13.69 input  -60.11 | X-H torsion
[ 7974 7965 7964 7962 ] final    4.11 input  175.53 | X-H torsion
[ 8008 7997 7996 7995 ] final -118.46 input   59.86 | X-H torsion
[ 10167 10162 10161 10158 ] final   -1.89 input  -65.29 | X-H torsion
[ 10718 10713 10712 10709 ] final   -5.06 input   66.30 | X-H torsion
[ 10763 10752 10751 10750 ] final  -54.00 input  -60.55 | X-H torsion
[ 11005 11000 10999 10996 ] final -151.65 input  -57.11 | X-H torsion

> <Gold.Protein.ActiveResidues>
 VAL166  LYS551  ARG553  GLY616  TRP617  ASP618  TYR619  PRO620  LYS621  CYS622 
 ASP623  PHE694  ASN695  SER759  ASP760  ASP761  ALA762  ILE779  LEU786  VAL792 
 PHE793  MET794  SER795  GLU796  ALA797  LYS798  CYS799  TRP800  GLU811  SER814 

> <Gold.Protein.RotatedAtoms>
  151.7903  135.0737  160.0386 H   0  0  0  0  0  0  0  0  0  0  0  0  # atno 6907 bound_to 6896
  152.3161  133.5799  159.5721 H   0  0  0  0  0  0  0  0  0  0  0  0  # atno 6908 bound_to 6896
  150.7345  133.9996  159.3676 H   0  0  0  0  0  0  0  0  0  0  0  0  # atno 6909 bound_to 6896
  146.2444  140.0584  142.8370 H   0  0  0  0  0  0  0  0  0  0  0  0  # atno 7974 bound_to 7965
  155.1000  140.0396  157.2694 H   0  0  0  0  0  0  0  0  0  0  0  0  # atno 8008 bound_to 7997
  154.6765  140.2624  155.6927 H   0  0  0  0  0  0  0  0  0  0  0  0  # atno 8009 bound_to 7997
  156.2678  140.2787  156.1294 H   0  0  0  0  0  0  0  0  0  0  0  0  # atno 8010 bound_to 7997
  140.6829  143.6722  150.8176 H   0  0  0  0  0  0  0  0  0  0  0  0  # atno 10167 bound_to 10162
  156.7522  130.5243  149.5802 H   0  0  0  0  0  0  0  0  0  0  0  0  # atno 10718 bound_to 10713
  154.1678  135.6464  153.5001 H   0  0  0  0  0  0  0  0  0  0  0  0  # atno 10763 bound_to 10752
  153.0093  135.5376  154.6644 H   0  0  0  0  0  0  0  0  0  0  0  0  # atno 10764 bound_to 10752
  154.5975  135.2940  155.0542 H   0  0  0  0  0  0  0  0  0  0  0  0  # atno 10765 bound_to 10752
  140.7273  134.3660  157.5173 H   0  0  0  0  0  0  0  0  0  0  0  0  # atno 11005 bound_to 11000
  145.0922  140.9291  143.4762 LP  0  0  0  0  0  0  0  0  0  0  0  0  # atno 17320 bound_to 7965
  145.0759  139.2996  143.5808 LP  0  0  0  0  0  0  0  0  0  0  0  0  # atno 17321 bound_to 7965
  140.0424  143.5332  152.2711 LP  0  0  0  0  0  0  0  0  0  0  0  0  # atno 17342 bound_to 10162
  139.6164  144.7620  151.2836 LP  0  0  0  0  0  0  0  0  0  0  0  0  # atno 17343 bound_to 10162
  156.1394  130.6234  151.0446 LP  0  0  0  0  0  0  0  0  0  0  0  0  # atno 17370 bound_to 10713
  157.6772  131.0847  150.7464 LP  0  0  0  0  0  0  0  0  0  0  0  0  # atno 17371 bound_to 10713
  139.8834  134.8995  156.2768 LP  0  0  0  0  0  0  0  0  0  0  0  0  # atno 17394 bound_to 11000
  140.9952  133.7185  156.0874 LP  0  0  0  0  0  0  0  0  0  0  0  0  # atno 17395 bound_to 11000

$$$$
