AV-unprocessed.smi:39|AV-procd|sdf|351|dock4
  -GOLD-   2262016193D 1   1.00000     0.00000
 Structure written by MMmdl.
 32 33  0  0  0  0  0  0  0  0  3 V2000
  150.3023  144.0061  158.6233 C   0  0  0  0  0  0  0  0  0  0  0  0
  151.1171  142.7314  158.4794 C   0  0  0  0  0  0  0  0  0  0  0  0
  151.1059  141.9851  157.3455 C   0  0  0  0  0  0  0  0  0  0  0  0
  151.8384  140.8164  157.1842 N   0  0  0  0  0  0  0  0  0  0  0  0
  151.7820  140.0184  155.9000 C   0  0  1  0  0  0  0  0  0  0  0  0
  151.3948  138.5653  156.1895 C   0  0  0  0  0  0  0  0  0  0  0  0
  149.9208  138.5531  155.8272 C   0  0  2  0  0  0  0  0  0  0  0  0
  149.4394  137.2231  155.4477 N   0  0  0  0  0  0  0  0  0  0  0  0
  150.2671  136.3035  155.4953 N   0  3  0  0  0  0  0  0  0  0  0  0
  151.1132  135.5458  155.5669 N   0  5  0  0  0  0  0  0  0  0  0  0
  149.8899  139.5434  154.6602 C   0  0  1  0  0  0  0  0  0  0  0  0
  148.5013  140.1507  154.4062 C   0  0  0  0  0  0  0  0  0  0  0  0
  148.5654  141.0815  153.3471 O   0  0  0  0  0  0  0  0  0  0  0  0
  150.7984  140.5624  155.0700 O   0  0  0  0  0  0  0  0  0  0  0  0
  152.6258  140.3426  158.2543 C   0  0  0  0  0  0  0  0  0  0  0  0
  153.2738  139.2982  158.1985 O   0  0  0  0  0  0  0  0  0  0  0  0
  152.6429  141.1119  159.4163 N   0  0  0  0  0  0  0  0  0  0  0  0
  151.9373  142.3009  159.6151 C   0  0  0  0  0  0  0  0  0  0  0  0
  152.0366  142.8942  160.6880 O   0  0  0  0  0  0  0  0  0  0  0  0
  152.7529  140.1237  155.4131 H   0  0  0  0  0  0  0  0  0  0  0  0
  149.3395  138.9594  156.6575 H   0  0  0  0  0  0  0  0  0  0  0  0
  150.2793  139.0599  153.7616 H   0  0  0  0  0  0  0  0  0  0  0  0
  153.2111  140.7794  160.1817 H   0  0  0  0  0  0  0  0  0  0  0  0
  149.7251  144.2214  157.7237 H   0  0  0  0  0  0  0  0  0  0  0  0
  150.9575  144.8574  158.8117 H   0  0  0  0  0  0  0  0  0  0  0  0
  149.6033  143.9200  159.4559 H   0  0  0  0  0  0  0  0  0  0  0  0
  150.4859  142.3241  156.5290 H   0  0  0  0  0  0  0  0  0  0  0  0
  151.9675  137.9172  155.5244 H   0  0  0  0  0  0  0  0  0  0  0  0
  151.5989  138.2789  157.2220 H   0  0  0  0  0  0  0  0  0  0  0  0
  147.7984  139.3708  154.1115 H   0  0  0  0  0  0  0  0  0  0  0  0
  148.1029  140.6225  155.3047 H   0  0  0  0  0  0  0  0  0  0  0  0
  148.9585  140.6591  152.5986 H   0  0  0  0  0  0  0  0  0  0  0  0
  1  2  1  0  0  0  0
  1 24  1  0  0  0  0
  1 25  1  0  0  0  0
  1 26  1  0  0  0  0
  2 18  1  0  0  0  0
  2  3  2  0  0  0  0
  3  4  1  0  0  0  0
  3 27  1  0  0  0  0
  4  5  1  0  0  0  0
  4 15  1  0  0  0  0
  5 20  1  0  0  0  0
  5 14  1  0  0  0  0
  5  6  1  0  0  0  0
  6  7  1  0  0  0  0
  6 28  1  0  0  0  0
  6 29  1  0  0  0  0
  7 21  1  0  0  0  0
  7  8  1  0  0  0  0
  7 11  1  0  0  0  0
  8  9  2  0  0  0  0
  9 10  2  0  0  0  0
 11 22  1  0  0  0  0
 11 12  1  0  0  0  0
 11 14  1  0  0  0  0
 12 13  1  0  0  0  0
 12 30  1  0  0  0  0
 12 31  1  0  0  0  0
 13 32  1  0  0  0  0
 15 16  2  0  0  0  0
 15 17  1  0  0  0  0
 17 23  1  0  0  0  0
 17 18  1  0  0  0  0
 18 19  2  0  0  0  0
M  CHG  1   9   1
M  CHG  1  10  -1
M  END
> <s_m_source_file>
AV-unprocessed.smi

> <i_m_source_file_index>
39

> <i_lp_mmshare_version>
43012

> <i_f3d_flags>
0

> <s_epik_input>
Tz1jMVtuSF1jKD1PKW4oW2NIXWMxW0NIM10pW0NASF0yW0NIMl1bQ0BIXShOPVtOK109W04tXSlbQ0BIXShPMilbQ0gyXVtPSF0=

> <s_epik_cmdline>
J2VwaWtfcHl0aG9uJywgJy1waCcsICc3LjAnLCAnLXRuJywgJzgnLCAnLW1hJywgJzIwMCcsICctbWV0YWxfYmluZGluZycsICctaW1hZScsICc8aW5maWxlLm1hZT4nLCAnLW9tYWUnLCAnPG91dGZpbGUubWFlPic=

> <r_lp_tautomer_probability>
0.999537

> <r_epik_Ionization_Penalty>
0.00127512

> <r_epik_Ionization_Penalty_Charging>
0.00127507

> <r_epik_Ionization_Penalty_Neutral>
5.43433e-08

> <r_epik_State_Penalty>
0.000844892

> <r_epik_Charging_Adjusted_Penalty>
0.00211996

> <i_epik_Tot_Q>
0

> <i_epik_Tot_abs_Q>
2

> <r_epik_Metal_State_Penalty>
0.680636

> <b_epik_Metal_Only>
0

> <s_epik_Chemistry_Notes>
This compound contains an acetal/aminal-like group ( X-CH(R)-Y where X, Y are N, S, or O) that may be acid/base labile, releasing an aldehyde.

> <s_lp_Force_Field>
OPLS_2005

> <r_lp_Energy>
24.0553

> <b_lp_Chiralities_Consistent>
1

> <s_lp_Variant>
AV-unprocessed.smi:39-1

> <Gold.Version>
5.8.1

> <Gold.Id.Protein>
6NUR|6NUR_protein|mol2

> <Gold.PLP.Fitness>
38.2548

> <Gold.PLP.PLP>
-26.5686

> <Gold.PLP.part.hbond>
-5.0272

> <Gold.PLP.part.metal>
0.0000

> <Gold.PLP.part.buried>
-4.5374

> <Gold.PLP.part.nonpolar>
-17.7904

> <Gold.PLP.part.repulsive>
0.5428

> <Gold.PLP.ligand.clash>
0.0000

> <Gold.PLP.ligand.torsion>
0.1129

> <Gold.PLP.Chemscore.Hbond>
3.9600

> <Gold.PLP.Chemscore.CHOScore>
0.0000

> <Gold.PLP.Chemscore.Metal>
0.0000

> <Gold.Chemscore.Hbonds>
donor molecule, donor type, donor heavy atom, donor atom, acceptor molecule, acceptor atom, score
      L1  H    13    32       P1  7957  1.00
      P1  H  7989  7998       L1    14  0.98
      P1  H  7997  8010       L1    16  0.90
      P1  H 10752 10763       L1    10  0.98

> <Gold.PLP.Chemscore.Internal.Correction>
0.0321

> <Gold.Rescore>
     Score         DG    S(hbond)    S(metal)    S(lipo)     H(rot)  DE(clash)    DE(int)     intcor
     11.81     -13.18       2.91        0.00      42.95       2.75       0.04       1.34       ----

> <Gold.Chemscore.Fitness>
11.8065

> <Gold.Chemscore.DG>
-13.1787

> <Gold.Chemscore.ZeroCoef>
-5.4800

> <Gold.Chemscore.Hbond>
2.9101

> <Gold.Chemscore.Metal>
0.0000

> <Gold.Chemscore.Lipo>
42.9507

> <Gold.Chemscore.Internal_Hbond>
0.0000

> <Gold.Chemscore.DEClash>
0.0360

> <Gold.Chemscore.DEInternal>
1.3362

> <Gold.Chemscore.Rot>
2.7524

> <Gold.Chemscore.Internal.Correction>
   9.000000E+99

> <Gold.Chemscore.Hbonds>
donor molecule, donor type, donor heavy atom, donor atom, acceptor molecule, acceptor atom, score
      L1  H    13    32       P1  7957  1.00
      P1  H  7989  7998       L1    14  0.12
      P1  H  7997  8010       L1    16  0.17
      P1  H 10752 10763       L1    10  0.91

> <Gold.Chemscore.Hbond.Weighted>
-9.7196

> <Gold.Chemscore.Metal.Weighted>
-0.0000

> <Gold.Chemscore.Lipo.Weighted>
-5.0252

> <Gold.Chemscore.Internal_Hbond.Weighted>
0.0000

> <Gold.Chemscore.DEClash.Weighted>
0.0360

> <Gold.Chemscore.DEInternal.Weighted>
1.3362

> <Gold.Chemscore.Rot.Weighted>
7.0461

> <Gold.Chemscore.Internal.Correction.Weighted>
   9.000000E+99

> <Gold.Protein.RotatedTorsions>
[ 6907 6896 6895 6894 ] final   82.64 input  -60.11 | X-H torsion
[ 7974 7965 7964 7962 ] final -158.85 input  175.53 | X-H torsion
[ 8008 7997 7996 7995 ] final   13.99 input   59.86 | X-H torsion
[ 10167 10162 10161 10158 ] final    5.93 input  -65.29 | X-H torsion
[ 10718 10713 10712 10709 ] final  -66.21 input   66.30 | X-H torsion
[ 10763 10752 10751 10750 ] final   63.05 input  -60.55 | X-H torsion
[ 11005 11000 10999 10996 ] final   49.08 input  -57.11 | X-H torsion

> <Gold.Protein.ActiveResidues>
 VAL166  LYS551  ARG553  GLY616  TRP617  ASP618  TYR619  PRO620  LYS621  CYS622 
 ASP623  PHE694  ASN695  SER759  ASP760  ASP761  ALA762  ILE779  LEU786  VAL792 
 PHE793  MET794  SER795  GLU796  ALA797  LYS798  CYS799  TRP800  GLU811  SER814 

> <Gold.Protein.RotatedAtoms>
  152.5305  134.3018  159.9080 H   0  0  0  0  0  0  0  0  0  0  0  0  # atno 6907 bound_to 6896
  151.2968  133.4134  159.2644 H   0  0  0  0  0  0  0  0  0  0  0  0  # atno 6908 bound_to 6896
  151.0153  134.9444  159.8087 H   0  0  0  0  0  0  0  0  0  0  0  0  # atno 6909 bound_to 6896
  144.7489  140.3768  143.6064 H   0  0  0  0  0  0  0  0  0  0  0  0  # atno 7974 bound_to 7965
  154.8422  140.2916  155.5652 H   0  0  0  0  0  0  0  0  0  0  0  0  # atno 8008 bound_to 7997
  156.3012  140.2512  156.3298 H   0  0  0  0  0  0  0  0  0  0  0  0  # atno 8009 bound_to 7997
  154.9112  140.0388  157.1937 H   0  0  0  0  0  0  0  0  0  0  0  0  # atno 8010 bound_to 7997
  140.6455  143.7672  150.7493 H   0  0  0  0  0  0  0  0  0  0  0  0  # atno 10167 bound_to 10162
  156.0625  130.4258  150.1675 H   0  0  0  0  0  0  0  0  0  0  0  0  # atno 10718 bound_to 10713
  153.0004  135.5443  154.6290 H   0  0  0  0  0  0  0  0  0  0  0  0  # atno 10763 bound_to 10752
  154.5572  135.2831  155.0955 H   0  0  0  0  0  0  0  0  0  0  0  0  # atno 10764 bound_to 10752
  154.2172  135.6457  153.5186 H   0  0  0  0  0  0  0  0  0  0  0  0  # atno 10765 bound_to 10752
  140.1135  134.4924  155.8658 H   0  0  0  0  0  0  0  0  0  0  0  0  # atno 11005 bound_to 11000
  145.7019  139.1663  143.2588 LP  0  0  0  0  0  0  0  0  0  0  0  0  # atno 17320 bound_to 7965
  146.1409  140.7058  142.9367 LP  0  0  0  0  0  0  0  0  0  0  0  0  # atno 17321 bound_to 7965
  140.1312  143.4524  152.2253 LP  0  0  0  0  0  0  0  0  0  0  0  0  # atno 17342 bound_to 10162
  139.5666  144.7438  151.4006 LP  0  0  0  0  0  0  0  0  0  0  0  0  # atno 17343 bound_to 10162
  156.9741  130.9844  151.3452 LP  0  0  0  0  0  0  0  0  0  0  0  0  # atno 17370 bound_to 10713
  157.5644  130.8268  149.8308 LP  0  0  0  0  0  0  0  0  0  0  0  0  # atno 17371 bound_to 10713
  141.2136  133.6735  156.6750 LP  0  0  0  0  0  0  0  0  0  0  0  0  # atno 17394 bound_to 11000
  140.3060  134.8125  157.4137 LP  0  0  0  0  0  0  0  0  0  0  0  0  # atno 17395 bound_to 11000

$$$$
