AV-unprocessed.smi:1047|AV-procd|sdf|4598|dock4
  -GOLD-   22720 3 83D 1   1.00000     0.00000
 Structure written by MMmdl.
 57 59  0  0  0  0  0  0  0  0  3 V2000
  146.4547  130.3170  151.9169 C   0  0  0  0  0  0  0  0  0  0  0  0
  147.4833  131.0038  152.8266 C   0  0  0  0  0  0  0  0  0  0  0  0
  148.0769  132.2166  152.2031 N   0  3  1  0  0  0  0  0  0  0  0  0
  147.0652  133.1688  151.6835 C   0  0  0  0  0  0  0  0  0  0  0  0
  146.4414  133.9942  152.8232 C   0  0  0  0  0  0  0  0  0  0  0  0
  147.4708  134.6671  153.5381 O   0  0  0  0  0  0  0  0  0  0  0  0
  148.3895  133.7685  154.1510 C   0  0  2  0  0  0  0  0  0  0  0  0
  149.3925  134.6089  154.9570 C   0  0  0  0  0  0  0  0  0  0  0  0
  149.6024  135.9195  154.3479 N   0  0  0  0  0  0  0  0  0  0  0  0
  150.5900  136.7339  155.0508 C   0  0  0  0  0  0  0  0  0  0  0  0
  150.3515  138.2340  154.8087 C   0  0  2  0  0  0  0  0  0  0  0  0
  150.3111  138.4540  153.4124 O   0  0  0  0  0  0  0  0  0  0  0  0
  151.4693  139.0958  155.4295 C   0  0  0  0  0  0  0  0  0  0  0  0
  151.0066  140.4300  155.8400 N   0  0  0  0  0  0  0  0  0  0  0  0
  150.1737  141.2947  155.1996 C   0  0  0  0  0  0  0  0  0  0  0  0
  150.0469  142.4006  155.9836 N   0  3  0  0  0  0  0  0  0  0  0  0
  150.8108  142.2412  157.1416 C   0  0  0  0  0  0  0  0  0  0  0  0
  151.0025  143.0863  158.2284 C   0  0  0  0  0  0  0  0  0  0  0  0
  151.8544  142.6290  159.2589 C   0  0  0  0  0  0  0  0  0  0  0  0
  152.0876  143.5293  160.4603 C   0  0  0  0  0  0  0  0  0  0  0  0
  152.4822  141.3591  159.1770 C   0  0  0  0  0  0  0  0  0  0  0  0
  153.4008  140.8795  160.2879 C   0  0  0  0  0  0  0  0  0  0  0  0
  152.2725  140.5137  158.0642 C   0  0  0  0  0  0  0  0  0  0  0  0
  151.4299  140.9788  157.0569 C   0  0  0  0  0  0  0  0  0  0  0  0
  149.0718  132.9295  153.0454 C   0  0  0  0  0  0  0  0  0  0  0  0
  145.9676  129.4962  152.4441 H   0  0  0  0  0  0  0  0  0  0  0  0
  146.9131  129.8962  151.0226 H   0  0  0  0  0  0  0  0  0  0  0  0
  145.6765  131.0137  151.6034 H   0  0  0  0  0  0  0  0  0  0  0  0
  146.9686  131.2948  153.7431 H   0  0  0  0  0  0  0  0  0  0  0  0
  148.2574  130.2970  153.1242 H   0  0  0  0  0  0  0  0  0  0  0  0
  147.5572  133.8420  150.9802 H   0  0  0  0  0  0  0  0  0  0  0  0
  146.2954  132.6444  151.1164 H   0  0  0  0  0  0  0  0  0  0  0  0
  145.7554  134.7363  152.4148 H   0  0  0  0  0  0  0  0  0  0  0  0
  145.8598  133.3650  153.4984 H   0  0  0  0  0  0  0  0  0  0  0  0
  147.8402  133.1265  154.8415 H   0  0  0  0  0  0  0  0  0  0  0  0
  149.0484  134.7152  155.9865 H   0  0  0  0  0  0  0  0  0  0  0  0
  150.3445  134.0785  155.0023 H   0  0  0  0  0  0  0  0  0  0  0  0
  148.7212  136.4208  154.2992 H   0  0  0  0  0  0  0  0  0  0  0  0
  150.5143  136.5313  156.1200 H   0  0  0  0  0  0  0  0  0  0  0  0
  151.6034  136.4564  154.7565 H   0  0  0  0  0  0  0  0  0  0  0  0
  149.3949  138.5343  155.2391 H   0  0  0  0  0  0  0  0  0  0  0  0
  149.9716  137.6755  152.9976 H   0  0  0  0  0  0  0  0  0  0  0  0
  151.8583  138.6068  156.3235 H   0  0  0  0  0  0  0  0  0  0  0  0
  152.3147  139.2012  154.7492 H   0  0  0  0  0  0  0  0  0  0  0  0
  149.6980  141.1323  154.2431 H   0  0  0  0  0  0  0  0  0  0  0  0
  150.5225  144.0526  158.2827 H   0  0  0  0  0  0  0  0  0  0  0  0
  153.1446  143.7811  160.5498 H   0  0  0  0  0  0  0  0  0  0  0  0
  151.7699  143.0344  161.3783 H   0  0  0  0  0  0  0  0  0  0  0  0
  151.5289  144.4620  160.3750 H   0  0  0  0  0  0  0  0  0  0  0  0
  153.8026  139.8885  160.0737 H   0  0  0  0  0  0  0  0  0  0  0  0
  152.8616  140.8226  161.2339 H   0  0  0  0  0  0  0  0  0  0  0  0
  154.2432  141.5609  160.4089 H   0  0  0  0  0  0  0  0  0  0  0  0
  152.7564  139.5503  157.9995 H   0  0  0  0  0  0  0  0  0  0  0  0
  149.7905  132.2319  153.4731 H   0  0  0  0  0  0  0  0  0  0  0  0
  149.6473  133.5907  152.3962 H   0  0  0  0  0  0  0  0  0  0  0  0
  148.5756  131.8768  151.3929 H   0  0  0  0  0  0  0  0  0  0  0  0
  149.4800  143.2037  155.7434 H   0  0  0  0  0  0  0  0  0  0  0  0
  1  2  1  0  0  0  0
  1 26  1  0  0  0  0
  1 27  1  0  0  0  0
  1 28  1  0  0  0  0
  2  3  1  0  0  0  0
  2 29  1  0  0  0  0
  2 30  1  0  0  0  0
  3 25  1  0  0  0  0
  3  4  1  0  0  0  0
  3 56  1  0  0  0  0
  4  5  1  0  0  0  0
  4 31  1  0  0  0  0
  4 32  1  0  0  0  0
  5  6  1  0  0  0  0
  5 33  1  0  0  0  0
  5 34  1  0  0  0  0
  6  7  1  0  0  0  0
  7  8  1  0  0  0  0
  7 25  1  0  0  0  0
  7 35  1  0  0  0  0
  8  9  1  0  0  0  0
  8 36  1  0  0  0  0
  8 37  1  0  0  0  0
  9 10  1  0  0  0  0
  9 38  1  0  0  0  0
 10 11  1  0  0  0  0
 10 39  1  0  0  0  0
 10 40  1  0  0  0  0
 11 12  1  0  0  0  0
 11 13  1  0  0  0  0
 11 41  1  0  0  0  0
 12 42  1  0  0  0  0
 13 14  1  0  0  0  0
 13 43  1  0  0  0  0
 13 44  1  0  0  0  0
 14 24  1  0  0  0  0
 14 15  1  0  0  0  0
 15 16  2  0  0  0  0
 15 45  1  0  0  0  0
 16 17  1  0  0  0  0
 16 57  1  0  0  0  0
 17 24  2  0  0  0  0
 17 18  1  0  0  0  0
 18 19  2  0  0  0  0
 18 46  1  0  0  0  0
 19 20  1  0  0  0  0
 19 21  1  0  0  0  0
 20 47  1  0  0  0  0
 20 48  1  0  0  0  0
 20 49  1  0  0  0  0
 21 22  1  0  0  0  0
 21 23  2  0  0  0  0
 22 50  1  0  0  0  0
 22 51  1  0  0  0  0
 22 52  1  0  0  0  0
 23 24  1  0  0  0  0
 23 53  1  0  0  0  0
 25 54  1  0  0  0  0
 25 55  1  0  0  0  0
M  CHG  1   3   1
M  CHG  1  16   1
M  END
> <s_m_source_file>
AV-unprocessed.smi

> <i_m_source_file_index>
1047

> <i_lp_mmshare_version>
43012

> <i_f3d_flags>
0

> <s_epik_input>
W0NIM11bQ0gyXU4xW0NIMl1bQ0gyXU9bQ0BIXShbQ0gyXTEpW0NIMl1bTkhdW0NIMl1bQ0BIXShbT0hdKVtDSDJdbihbY0hdbjIpYyhjMjMpW2NIXWMoW0NIM10pYyhbY0hdMylbQ0gzXQ==

> <s_epik_cmdline>
J2VwaWtfcHl0aG9uJywgJy1waCcsICc3LjAnLCAnLXRuJywgJzgnLCAnLW1hJywgJzIwMCcsICctbWV0YWxfYmluZGluZycsICctaW1hZScsICc8aW5maWxlLm1hZT4nLCAnLW9tYWUnLCAnPG91dGZpbGUubWFlPic=

> <r_epik_Ionization_Penalty>
2.03028

> <r_epik_Ionization_Penalty_Charging>
1.21256

> <r_epik_Ionization_Penalty_Neutral>
0.817715

> <r_epik_State_Penalty>
2.54959

> <r_epik_Charging_Adjusted_Penalty>
3.76215

> <i_epik_Tot_Q>
2

> <i_epik_Tot_abs_Q>
2

> <r_epik_Metal_State_Penalty>
6.52811

> <b_epik_Metal_Only>
0

> <s_lp_Force_Field>
OPLS_2005

> <r_lp_Energy>
38.5552

> <b_lp_Chiralities_Consistent>
1

> <s_lp_Variant>
AV-unprocessed.smi:1047-39

> <Gold.Version>
5.8.1

> <Gold.Id.Protein>
6NUR|6NUR_protein|mol2

> <Gold.PLP.Fitness>
61.4894

> <Gold.PLP.PLP>
-51.7177

> <Gold.PLP.part.hbond>
-5.0621

> <Gold.PLP.part.metal>
0.0000

> <Gold.PLP.part.buried>
-5.1532

> <Gold.PLP.part.nonpolar>
-40.7805

> <Gold.PLP.part.repulsive>
0.8577

> <Gold.PLP.ligand.clash>
0.0000

> <Gold.PLP.ligand.torsion>
1.1494

> <Gold.PLP.Chemscore.Hbond>
4.0000

> <Gold.PLP.Chemscore.CHOScore>
0.0000

> <Gold.PLP.Chemscore.Metal>
0.0000

> <Gold.Chemscore.Hbonds>
donor molecule, donor type, donor heavy atom, donor atom, acceptor molecule, acceptor atom, score
      L1  H     3    56       P1 10747  1.00
      L1  H    12    42       P1  7948  0.94
      L1  H    16    57       P1  8028  2.00

> <Gold.PLP.Chemscore.Internal.Correction>
0.0704

> <Gold.Rescore>
     Score         DG    S(hbond)    S(metal)    S(lipo)     H(rot)  DE(clash)    DE(int)     intcor
     21.98     -23.14       2.87        0.00     128.12       2.71       0.15       1.01       ----

> <Gold.Chemscore.Fitness>
21.9778

> <Gold.Chemscore.DG>
-23.1371

> <Gold.Chemscore.ZeroCoef>
-5.4800

> <Gold.Chemscore.Hbond>
2.8748

> <Gold.Chemscore.Metal>
0.0000

> <Gold.Chemscore.Lipo>
128.1184

> <Gold.Chemscore.Internal_Hbond>
0.0000

> <Gold.Chemscore.DEClash>
0.1471

> <Gold.Chemscore.DEInternal>
1.0121

> <Gold.Chemscore.Rot>
2.7088

> <Gold.Chemscore.Internal.Correction>
   9.000000E+99

> <Gold.Chemscore.Hbonds>
donor molecule, donor type, donor heavy atom, donor atom, acceptor molecule, acceptor atom, score
      L1  H     3    56       P1 10747  0.94
      L1  H    12    42       P1  7948  0.27
      L1  H    16    57       P1  8028  0.99

> <Gold.Chemscore.Hbond.Weighted>
-9.6019

> <Gold.Chemscore.Metal.Weighted>
-0.0000

> <Gold.Chemscore.Lipo.Weighted>
-14.9898

> <Gold.Chemscore.Internal_Hbond.Weighted>
0.0000

> <Gold.Chemscore.DEClash.Weighted>
0.1471

> <Gold.Chemscore.DEInternal.Weighted>
1.0121

> <Gold.Chemscore.Rot.Weighted>
6.9346

> <Gold.Chemscore.Internal.Correction.Weighted>
   9.000000E+99

> <Gold.Protein.RotatedTorsions>
[ 6907 6896 6895 6894 ] final -138.01 input  -60.11 | X-H torsion
[ 7974 7965 7964 7962 ] final    8.45 input  175.53 | X-H torsion
[ 8008 7997 7996 7995 ] final   19.13 input   59.86 | X-H torsion
[ 10167 10162 10161 10158 ] final    4.24 input  -65.29 | X-H torsion
[ 10718 10713 10712 10709 ] final  -72.59 input   66.30 | X-H torsion
[ 10763 10752 10751 10750 ] final  138.70 input  -60.55 | X-H torsion
[ 11005 11000 10999 10996 ] final  -88.70 input  -57.11 | X-H torsion

> <Gold.Protein.ActiveResidues>
 VAL166  LYS551  ARG553  GLY616  TRP617  ASP618  TYR619  PRO620  LYS621  CYS622 
 ASP623  PHE694  ASN695  SER759  ASP760  ASP761  ALA762  ILE779  LEU786  VAL792 
 PHE793  MET794  SER795  GLU796  ALA797  LYS798  CYS799  TRP800  GLU811  SER814 

> <Gold.Protein.RotatedAtoms>
  151.0296  133.5802  159.2661 H   0  0  0  0  0  0  0  0  0  0  0  0  # atno 6907 bound_to 6896
  151.2888  135.0735  159.9206 H   0  0  0  0  0  0  0  0  0  0  0  0  # atno 6908 bound_to 6896
  152.5342  133.9998  159.7943 H   0  0  0  0  0  0  0  0  0  0  0  0  # atno 6909 bound_to 6896
  146.2416  139.9932  142.8423 H   0  0  0  0  0  0  0  0  0  0  0  0  # atno 7974 bound_to 7965
  154.9162  140.3021  155.5240 H   0  0  0  0  0  0  0  0  0  0  0  0  # atno 8008 bound_to 7997
  156.3012  140.2380  156.4142 H   0  0  0  0  0  0  0  0  0  0  0  0  # atno 8009 bound_to 7997
  154.8376  140.0415  157.1508 H   0  0  0  0  0  0  0  0  0  0  0  0  # atno 8010 bound_to 7997
  140.6545  143.7462  150.7630 H   0  0  0  0  0  0  0  0  0  0  0  0  # atno 10167 bound_to 10162
  156.0314  130.4375  150.2615 H   0  0  0  0  0  0  0  0  0  0  0  0  # atno 10718 bound_to 10713
  153.8939  135.3030  155.3448 H   0  0  0  0  0  0  0  0  0  0  0  0  # atno 10763 bound_to 10752
  154.7703  135.4889  153.9639 H   0  0  0  0  0  0  0  0  0  0  0  0  # atno 10764 bound_to 10752
  153.1282  135.6798  153.9320 H   0  0  0  0  0  0  0  0  0  0  0  0  # atno 10765 bound_to 10752
  141.1597  133.7586  156.9489 H   0  0  0  0  0  0  0  0  0  0  0  0  # atno 11005 bound_to 11000
  145.1484  140.9609  143.4447 LP  0  0  0  0  0  0  0  0  0  0  0  0  # atno 17320 bound_to 7965
  145.0229  139.3408  143.6063 LP  0  0  0  0  0  0  0  0  0  0  0  0  # atno 17321 bound_to 7965
  140.1120  143.4691  152.2365 LP  0  0  0  0  0  0  0  0  0  0  0  0  # atno 17342 bound_to 10162
  139.5765  144.7490  151.3752 LP  0  0  0  0  0  0  0  0  0  0  0  0  # atno 17343 bound_to 10162
  157.0717  131.0118  151.3188 LP  0  0  0  0  0  0  0  0  0  0  0  0  # atno 17370 bound_to 10713
  157.4994  130.7871  149.7589 LP  0  0  0  0  0  0  0  0  0  0  0  0  # atno 17371 bound_to 10713
  140.1271  134.9380  157.2285 LP  0  0  0  0  0  0  0  0  0  0  0  0  # atno 17394 bound_to 11000
  140.3000  134.3143  155.7292 LP  0  0  0  0  0  0  0  0  0  0  0  0  # atno 17395 bound_to 11000

$$$$
