AV-unprocessed.smi:2027|AV-procd|sdf|8213|dock3
  -GOLD-   2272010473D 1   1.00000     0.00000
 Structure written by MMmdl.
 50 52  0  0  0  0  0  0  0  0  2 V2000
  152.4674  143.0541  160.5844 C   0  0  0  0  0  0  0  0  0  0  0  0
  151.8269  142.3924  159.3768 C   0  0  0  0  0  0  0  0  0  0  0  0
  151.6094  140.9964  159.3935 C   0  0  0  0  0  0  0  0  0  0  0  0
  151.0151  140.3427  158.2922 C   0  0  0  0  0  0  0  0  0  0  0  0
  150.7148  139.0057  158.0955 N   0  0  0  0  0  0  0  0  0  0  0  0
  150.1763  139.0275  156.8802 C   0  0  0  0  0  0  0  0  0  0  0  0
  150.0961  140.2215  156.2622 N   0  0  0  0  0  0  0  0  0  0  0  0
  149.5542  140.4853  154.9410 C   0  0  0  0  0  0  0  0  0  0  0  0
  148.8341  139.2610  154.3447 C   0  0  2  0  0  0  0  0  0  0  0  0
  149.7569  138.4895  153.5997 O   0  0  0  0  0  0  0  0  0  0  0  0
  147.6787  139.6766  153.4123 C   0  0  0  0  0  0  0  0  0  0  0  0
  147.0912  138.5176  152.6927 N   0  3  2  0  0  0  0  0  0  0  0  0
  146.6785  138.8708  151.3137 C   0  0  0  0  0  0  0  0  0  0  0  0
  146.0111  137.8428  153.4585 C   0  0  0  0  0  0  0  0  0  0  0  0
  145.2564  136.8668  152.5974 C   0  0  0  0  0  0  0  0  0  0  0  0
  143.8537  136.8130  152.3549 C   0  0  0  0  0  0  0  0  0  0  0  0
  143.5099  135.8273  151.5427 N   0  0  0  0  0  0  0  0  0  0  0  0
  144.6738  135.2148  151.2447 N   0  0  0  0  0  0  0  0  0  0  0  0
  144.6707  134.0658  150.3647 C   0  0  0  0  0  0  0  0  0  0  0  0
  145.7443  135.8187  151.8682 C   0  0  0  0  0  0  0  0  0  0  0  0
  150.6403  141.1301  157.1642 C   0  0  0  0  0  0  0  0  0  0  0  0
  150.8524  142.5199  157.1353 C   0  0  0  0  0  0  0  0  0  0  0  0
  151.4478  143.1570  158.2442 C   0  0  0  0  0  0  0  0  0  0  0  0
  151.6723  144.6583  158.2036 C   0  0  0  0  0  0  0  0  0  0  0  0
  152.7238  142.3217  161.3503 H   0  0  0  0  0  0  0  0  0  0  0  0
  151.7842  143.7780  161.0292 H   0  0  0  0  0  0  0  0  0  0  0  0
  153.3832  143.5716  160.2979 H   0  0  0  0  0  0  0  0  0  0  0  0
  151.8982  140.4134  160.2558 H   0  0  0  0  0  0  0  0  0  0  0  0
  149.8224  138.1221  156.4089 H   0  0  0  0  0  0  0  0  0  0  0  0
  148.8632  141.3258  155.0197 H   0  0  0  0  0  0  0  0  0  0  0  0
  150.3652  140.8109  154.2881 H   0  0  0  0  0  0  0  0  0  0  0  0
  148.4625  138.6448  155.1632 H   0  0  0  0  0  0  0  0  0  0  0  0
  149.2744  137.9290  153.0099 H   0  0  0  0  0  0  0  0  0  0  0  0
  146.8932  140.1861  153.9727 H   0  0  0  0  0  0  0  0  0  0  0  0
  148.0607  140.4074  152.6972 H   0  0  0  0  0  0  0  0  0  0  0  0
  145.8746  139.6081  151.3225 H   0  0  0  0  0  0  0  0  0  0  0  0
  146.3326  137.9945  150.7656 H   0  0  0  0  0  0  0  0  0  0  0  0
  147.5172  139.2876  150.7549 H   0  0  0  0  0  0  0  0  0  0  0  0
  146.4344  137.3165  154.3133 H   0  0  0  0  0  0  0  0  0  0  0  0
  145.3464  138.5967  153.8825 H   0  0  0  0  0  0  0  0  0  0  0  0
  143.0804  137.4609  152.7405 H   0  0  0  0  0  0  0  0  0  0  0  0
  145.6925  133.7361  150.1761 H   0  0  0  0  0  0  0  0  0  0  0  0
  144.2025  134.3275  149.4154 H   0  0  0  0  0  0  0  0  0  0  0  0
  144.1148  133.2494  150.8263 H   0  0  0  0  0  0  0  0  0  0  0  0
  146.7545  135.4575  151.7422 H   0  0  0  0  0  0  0  0  0  0  0  0
  150.5602  143.0910  156.2666 H   0  0  0  0  0  0  0  0  0  0  0  0
  151.2991  145.0921  157.2754 H   0  0  0  0  0  0  0  0  0  0  0  0
  152.7357  144.8871  158.2759 H   0  0  0  0  0  0  0  0  0  0  0  0
  151.1557  145.1452  159.0309 H   0  0  0  0  0  0  0  0  0  0  0  0
  147.8434  137.8497  152.5974 H   0  0  0  0  0  0  0  0  0  0  0  0
  1  2  1  0  0  0  0
  1 25  1  0  0  0  0
  1 26  1  0  0  0  0
  1 27  1  0  0  0  0
  2 23  1  0  0  0  0
  2  3  2  0  0  0  0
  3  4  1  0  0  0  0
  3 28  1  0  0  0  0
  4 21  2  0  0  0  0
  4  5  1  0  0  0  0
  5  6  2  0  0  0  0
  6  7  1  0  0  0  0
  6 29  1  0  0  0  0
  7  8  1  0  0  0  0
  7 21  1  0  0  0  0
  8  9  1  0  0  0  0
  8 30  1  0  0  0  0
  8 31  1  0  0  0  0
  9 10  1  0  0  0  0
  9 11  1  0  0  0  0
  9 32  1  0  0  0  0
 10 33  1  0  0  0  0
 11 12  1  0  0  0  0
 11 34  1  0  0  0  0
 11 35  1  0  0  0  0
 12 13  1  0  0  0  0
 12 14  1  0  0  0  0
 12 50  1  0  0  0  0
 13 36  1  0  0  0  0
 13 37  1  0  0  0  0
 13 38  1  0  0  0  0
 14 15  1  0  0  0  0
 14 39  1  0  0  0  0
 14 40  1  0  0  0  0
 15 20  2  0  0  0  0
 15 16  1  0  0  0  0
 16 17  2  0  0  0  0
 16 41  1  0  0  0  0
 17 18  1  0  0  0  0
 18 19  1  0  0  0  0
 18 20  1  0  0  0  0
 19 42  1  0  0  0  0
 19 43  1  0  0  0  0
 19 44  1  0  0  0  0
 20 45  1  0  0  0  0
 21 22  1  0  0  0  0
 22 23  2  0  0  0  0
 22 46  1  0  0  0  0
 23 24  1  0  0  0  0
 24 47  1  0  0  0  0
 24 48  1  0  0  0  0
 24 49  1  0  0  0  0
M  CHG  1  12   1
M  END
> <s_m_source_file>
AV-unprocessed.smi

> <i_m_source_file_index>
2027

> <i_lp_mmshare_version>
43012

> <i_f3d_flags>
0

> <s_epik_input>
W0NIM11jKFtjSF0xKWMoW0NIM10pW2NIXWMoYzEyKW4oW2NIXW4yKVtDSDJdW0NASF0oW09IXSlbQ0gyXU4oW0NIM10pW0NIMl1jM1tjSF1ubihbQ0gzXSlbY0hdMw==

> <s_epik_cmdline>
J2VwaWtfcHl0aG9uJywgJy1waCcsICc3LjAnLCAnLXRuJywgJzgnLCAnLW1hJywgJzIwMCcsICctbWV0YWxfYmluZGluZycsICctaW1hZScsICc8aW5maWxlLm1hZT4nLCAnLW9tYWUnLCAnPG91dGZpbGUubWFlPic=

> <r_lp_tautomer_probability>
1

> <r_epik_Ionization_Penalty>
0.646578

> <r_epik_Ionization_Penalty_Charging>
0.559419

> <r_epik_Ionization_Penalty_Neutral>
0.087159

> <r_epik_State_Penalty>
0.661677

> <r_epik_Charging_Adjusted_Penalty>
1.2211

> <i_epik_Tot_Q>
1

> <i_epik_Tot_abs_Q>
1

> <r_epik_Metal_State_Penalty>
0.649174

> <b_epik_Metal_Only>
0

> <s_lp_Force_Field>
OPLS_2005

> <r_lp_Energy>
10.3354

> <b_lp_Chiralities_Consistent>
1

> <s_lp_Variant>
AV-unprocessed.smi:2027-5

> <Gold.Version>
5.8.1

> <Gold.Id.Protein>
6NUR|6NUR_protein|mol2

> <Gold.PLP.Fitness>
56.8823

> <Gold.PLP.PLP>
-46.8302

> <Gold.PLP.part.hbond>
-3.2716

> <Gold.PLP.part.metal>
0.0000

> <Gold.PLP.part.buried>
-1.2462

> <Gold.PLP.part.nonpolar>
-42.7274

> <Gold.PLP.part.repulsive>
0.2387

> <Gold.PLP.ligand.clash>
0.0000

> <Gold.PLP.ligand.torsion>
1.0661

> <Gold.PLP.Chemscore.Hbond>
3.0000

> <Gold.PLP.Chemscore.CHOScore>
1.0000

> <Gold.PLP.Chemscore.Metal>
0.0000

> <Gold.Chemscore.Hbonds>
donor molecule, donor type, donor heavy atom, donor atom, acceptor molecule, acceptor atom, score
      L1  H    10    33       P1  7948  0.98
      L1  H    12    50       P1  7948  1.76
      L1  C    20    45       P1  7948  1.00

> <Gold.PLP.Chemscore.Internal.Correction>
0.1843

> <Gold.Rescore>
     Score         DG    S(hbond)    S(metal)    S(lipo)     H(rot)  DE(clash)    DE(int)     intcor
     18.07     -19.37       1.89        0.00     119.61       2.50       0.17       1.12       ----

> <Gold.Chemscore.Fitness>
18.0730

> <Gold.Chemscore.DG>
-19.3669

> <Gold.Chemscore.ZeroCoef>
-5.4800

> <Gold.Chemscore.Hbond>
1.8876

> <Gold.Chemscore.Metal>
0.0000

> <Gold.Chemscore.Lipo>
119.6107

> <Gold.Chemscore.Internal_Hbond>
0.0000

> <Gold.Chemscore.DEClash>
0.1722

> <Gold.Chemscore.DEInternal>
1.1217

> <Gold.Chemscore.Rot>
2.5047

> <Gold.Chemscore.Internal.Correction>
   9.000000E+99

> <Gold.Chemscore.Hbonds>
donor molecule, donor type, donor heavy atom, donor atom, acceptor molecule, acceptor atom, score
      L1  H    10    33       P1  7948  0.87
      L1  H    12    50       P1  7948  0.85

> <Gold.Chemscore.Hbond.Weighted>
-6.3045

> <Gold.Chemscore.Metal.Weighted>
-0.0000

> <Gold.Chemscore.Lipo.Weighted>
-13.9945

> <Gold.Chemscore.Internal_Hbond.Weighted>
0.0000

> <Gold.Chemscore.DEClash.Weighted>
0.1722

> <Gold.Chemscore.DEInternal.Weighted>
1.1217

> <Gold.Chemscore.Rot.Weighted>
6.4120

> <Gold.Chemscore.Internal.Correction.Weighted>
   9.000000E+99

> <Gold.Protein.RotatedTorsions>
[ 6907 6896 6895 6894 ] final  146.16 input  -60.11 | X-H torsion
[ 7974 7965 7964 7962 ] final  131.07 input  175.53 | X-H torsion
[ 8008 7997 7996 7995 ] final  -79.97 input   59.86 | X-H torsion
[ 10167 10162 10161 10158 ] final   99.86 input  -65.29 | X-H torsion
[ 10718 10713 10712 10709 ] final   60.04 input   66.30 | X-H torsion
[ 10763 10752 10751 10750 ] final  -89.78 input  -60.55 | X-H torsion
[ 11005 11000 10999 10996 ] final -113.35 input  -57.11 | X-H torsion

> <Gold.Protein.ActiveResidues>
 VAL166  LYS551  ARG553  GLY616  TRP617  ASP618  TYR619  PRO620  LYS621  CYS622 
 ASP623  PHE694  ASN695  SER759  ASP760  ASP761  ALA762  ILE779  LEU786  VAL792 
 PHE793  MET794  SER795  GLU796  ALA797  LYS798  CYS799  TRP800  GLU811  SER814 

> <Gold.Protein.RotatedAtoms>
  152.1715  133.4646  159.4911 H   0  0  0  0  0  0  0  0  0  0  0  0  # atno 6907 bound_to 6896
  150.6920  134.1947  159.4308 H   0  0  0  0  0  0  0  0  0  0  0  0  # atno 6908 bound_to 6896
  151.9854  135.0006  160.0610 H   0  0  0  0  0  0  0  0  0  0  0  0  # atno 6909 bound_to 6896
  145.0112  139.4218  143.5244 H   0  0  0  0  0  0  0  0  0  0  0  0  # atno 7974 bound_to 7965
  154.5837  140.0670  156.9141 H   0  0  0  0  0  0  0  0  0  0  0  0  # atno 8008 bound_to 7997
  155.2417  140.3345  155.4273 H   0  0  0  0  0  0  0  0  0  0  0  0  # atno 8009 bound_to 7997
  156.2207  140.1798  156.7467 H   0  0  0  0  0  0  0  0  0  0  0  0  # atno 8010 bound_to 7997
  139.7579  144.6963  151.0335 H   0  0  0  0  0  0  0  0  0  0  0  0  # atno 10167 bound_to 10162
  157.5722  130.8916  149.9286 H   0  0  0  0  0  0  0  0  0  0  0  0  # atno 10718 bound_to 10713
  154.6588  135.5328  153.7992 H   0  0  0  0  0  0  0  0  0  0  0  0  # atno 10763 bound_to 10752
  153.0429  135.6500  154.0903 H   0  0  0  0  0  0  0  0  0  0  0  0  # atno 10764 bound_to 10752
  154.0814  135.2947  155.3269 H   0  0  0  0  0  0  0  0  0  0  0  0  # atno 10765 bound_to 10752
  141.0619  133.9521  157.2650 H   0  0  0  0  0  0  0  0  0  0  0  0  # atno 11005 bound_to 11000
  146.3470  139.9558  142.8723 LP  0  0  0  0  0  0  0  0  0  0  0  0  # atno 17320 bound_to 7965
  145.2020  140.9858  143.4150 LP  0  0  0  0  0  0  0  0  0  0  0  0  # atno 17321 bound_to 7965
  140.7804  143.4731  151.0119 LP  0  0  0  0  0  0  0  0  0  0  0  0  # atno 17342 bound_to 10162
  139.8418  143.7554  152.3180 LP  0  0  0  0  0  0  0  0  0  0  0  0  # atno 17343 bound_to 10162
  156.0767  130.3678  150.0663 LP  0  0  0  0  0  0  0  0  0  0  0  0  # atno 17370 bound_to 10713
  156.8814  130.9558  151.3599 LP  0  0  0  0  0  0  0  0  0  0  0  0  # atno 17371 bound_to 10713
  139.9441  135.0187  156.8798 LP  0  0  0  0  0  0  0  0  0  0  0  0  # atno 17394 bound_to 11000
  140.5851  134.0315  155.7478 LP  0  0  0  0  0  0  0  0  0  0  0  0  # atno 17395 bound_to 11000

$$$$
