AV-unprocessed.smi:2184|AV-procd|sdf|8873|dock2
  -GOLD-   2272012 73D 1   1.00000     0.00000
 Structure written by MMmdl.
 47 48  0  0  0  0  0  0  0  0  1 V2000
  149.9850  132.2886  155.9127 C   0  0  0  0  0  0  0  0  0  0  0  0
  150.4350  133.9100  155.2356 S   0  0  0  0  0  0  0  0  0  0  0  0
  149.3896  135.0070  156.2401 C   0  0  2  0  0  0  0  0  0  0  0  0
  147.9236  134.5498  156.1753 C   0  0  0  0  0  0  0  0  0  0  0  0
  149.5324  136.4753  155.8199 C   0  0  0  0  0  0  0  0  0  0  0  0
  148.8627  137.3497  156.3702 O   0  0  0  0  0  0  0  0  0  0  0  0
  150.4034  136.7324  154.8334 N   0  0  0  0  0  0  0  0  0  0  0  0
  150.6623  138.0586  154.2857 C   0  0  0  0  0  0  0  0  0  0  0  0
  150.8852  139.1443  155.3295 C   0  0  0  0  0  0  0  0  0  0  0  0
  149.9932  140.2217  155.5233 C   0  0  0  0  0  0  0  0  0  0  0  0
  150.2838  141.1810  156.5122 C   0  0  0  0  0  0  0  0  0  0  0  0
  151.4591  141.0421  157.2877 C   0  0  0  0  0  0  0  0  0  0  0  0
  151.7678  141.9911  158.2864 N   0  0  0  0  0  0  0  0  0  0  0  0
  151.8858  143.3927  157.8889 C   0  0  0  0  0  0  0  0  0  0  0  0
  151.9181  144.3187  159.1207 C   0  0  1  0  0  0  0  0  0  0  0  0
  150.5420  144.5046  159.7846 C   0  0  0  0  0  0  0  0  0  0  0  0
  152.9088  143.8717  160.0487 O   0  0  0  0  0  0  0  0  0  0  0  0
  152.7578  142.5195  160.4784 C   0  0  2  0  0  0  0  0  0  0  0  0
  153.8929  142.2045  161.4583 C   0  0  0  0  0  0  0  0  0  0  0  0
  152.7789  141.5838  159.2567 C   0  0  0  0  0  0  0  0  0  0  0  0
  152.3169  140.0105  157.0931 N   0  0  0  0  0  0  0  0  0  0  0  0
  152.0336  139.0936  156.1445 C   0  0  0  0  0  0  0  0  0  0  0  0
  150.5121  131.5009  155.3746 H   0  0  0  0  0  0  0  0  0  0  0  0
  148.9133  132.1170  155.8128 H   0  0  0  0  0  0  0  0  0  0  0  0
  150.2534  132.2210  156.9667 H   0  0  0  0  0  0  0  0  0  0  0  0
  149.7183  134.9064  157.2756 H   0  0  0  0  0  0  0  0  0  0  0  0
  147.2773  135.2019  156.7645 H   0  0  0  0  0  0  0  0  0  0  0  0
  147.8149  133.5395  156.5706 H   0  0  0  0  0  0  0  0  0  0  0  0
  147.5489  134.5437  155.1509 H   0  0  0  0  0  0  0  0  0  0  0  0
  150.9133  135.9598  154.4309 H   0  0  0  0  0  0  0  0  0  0  0  0
  151.5432  138.0104  153.6438 H   0  0  0  0  0  0  0  0  0  0  0  0
  149.8235  138.3559  153.6544 H   0  0  0  0  0  0  0  0  0  0  0  0
  149.0978  140.3288  154.9298 H   0  0  0  0  0  0  0  0  0  0  0  0
  149.6131  142.0153  156.6531 H   0  0  0  0  0  0  0  0  0  0  0  0
  152.8051  143.5165  157.3145 H   0  0  0  0  0  0  0  0  0  0  0  0
  151.0588  143.6788  157.2377 H   0  0  0  0  0  0  0  0  0  0  0  0
  152.2404  145.3046  158.7849 H   0  0  0  0  0  0  0  0  0  0  0  0
  149.8425  144.9773  159.0948 H   0  0  0  0  0  0  0  0  0  0  0  0
  150.6184  145.1428  160.6651 H   0  0  0  0  0  0  0  0  0  0  0  0
  150.0998  143.5577  160.0932 H   0  0  0  0  0  0  0  0  0  0  0  0
  151.8131  142.4053  161.0107 H   0  0  0  0  0  0  0  0  0  0  0  0
  153.8192  141.1818  161.8290 H   0  0  0  0  0  0  0  0  0  0  0  0
  153.8607  142.8728  162.3189 H   0  0  0  0  0  0  0  0  0  0  0  0
  154.8676  142.3194  160.9835 H   0  0  0  0  0  0  0  0  0  0  0  0
  152.6289  140.5585  159.5917 H   0  0  0  0  0  0  0  0  0  0  0  0
  153.7570  141.6181  158.7746 H   0  0  0  0  0  0  0  0  0  0  0  0
  152.7494  138.2927  156.0322 H   0  0  0  0  0  0  0  0  0  0  0  0
  1  2  1  0  0  0  0
  1 23  1  0  0  0  0
  1 24  1  0  0  0  0
  1 25  1  0  0  0  0
  2  3  1  0  0  0  0
  3  4  1  0  0  0  0
  3  5  1  0  0  0  0
  3 26  1  0  0  0  0
  4 27  1  0  0  0  0
  4 28  1  0  0  0  0
  4 29  1  0  0  0  0
  5  6  2  0  0  0  0
  5  7  1  0  0  0  0
  7  8  1  0  0  0  0
  7 30  1  0  0  0  0
  8  9  1  0  0  0  0
  8 31  1  0  0  0  0
  8 32  1  0  0  0  0
  9 22  1  0  0  0  0
  9 10  2  0  0  0  0
 10 11  1  0  0  0  0
 10 33  1  0  0  0  0
 11 12  2  0  0  0  0
 11 34  1  0  0  0  0
 12 13  1  0  0  0  0
 12 21  1  0  0  0  0
 13 20  1  0  0  0  0
 13 14  1  0  0  0  0
 14 15  1  0  0  0  0
 14 35  1  0  0  0  0
 14 36  1  0  0  0  0
 15 16  1  0  0  0  0
 15 17  1  0  0  0  0
 15 37  1  0  0  0  0
 16 38  1  0  0  0  0
 16 39  1  0  0  0  0
 16 40  1  0  0  0  0
 17 18  1  0  0  0  0
 18 19  1  0  0  0  0
 18 20  1  0  0  0  0
 18 41  1  0  0  0  0
 19 42  1  0  0  0  0
 19 43  1  0  0  0  0
 19 44  1  0  0  0  0
 20 45  1  0  0  0  0
 20 46  1  0  0  0  0
 21 22  2  0  0  0  0
 22 47  1  0  0  0  0
M  END
> <s_m_source_file>
AV-unprocessed.smi

> <i_m_source_file_index>
2184

> <i_lp_mmshare_version>
43012

> <i_f3d_flags>
0

> <s_epik_input>
W0NIM11TW0NASF0oW0NIM10pQyg9TylbTkhdW0NIMl1jMVtjSF1bY0hdYyhuW2NIXTEpTjJbQ0gyXVtDQEBIXShbQ0gzXSlPW0NAQEhdKFtDSDNdKVtDSDJdMg==

> <s_epik_cmdline>
J2VwaWtfcHl0aG9uJywgJy1waCcsICc3LjAnLCAnLXRuJywgJzgnLCAnLW1hJywgJzIwMCcsICctbWV0YWxfYmluZGluZycsICctaW1hZScsICc8aW5maWxlLm1hZT4nLCAnLW9tYWUnLCAnPG91dGZpbGUubWFlPic=

> <r_lp_tautomer_probability>
1

> <r_epik_Ionization_Penalty>
0.00551702

> <r_epik_Ionization_Penalty_Charging>
0

> <r_epik_Ionization_Penalty_Neutral>
0.00551702

> <r_epik_State_Penalty>
0.00403758

> <r_epik_Charging_Adjusted_Penalty>
0.00403758

> <i_epik_Tot_Q>
0

> <i_epik_Tot_abs_Q>
0

> <r_epik_Metal_State_Penalty>
-0

> <b_epik_Metal_Only>
0

> <s_lp_Force_Field>
OPLS_2005

> <r_lp_Energy>
19.1656

> <b_lp_Chiralities_Consistent>
1

> <s_lp_Variant>
AV-unprocessed.smi:2184-5

> <Gold.Version>
5.8.1

> <Gold.Id.Protein>
6NUR|6NUR_protein|mol2

> <Gold.PLP.Fitness>
44.3329

> <Gold.PLP.PLP>
-42.6962

> <Gold.PLP.part.hbond>
-2.4697

> <Gold.PLP.part.metal>
0.0000

> <Gold.PLP.part.buried>
-4.5499

> <Gold.PLP.part.nonpolar>
-35.8272

> <Gold.PLP.part.repulsive>
0.1165

> <Gold.PLP.ligand.clash>
0.0000

> <Gold.PLP.ligand.torsion>
0.3819

> <Gold.PLP.Chemscore.Hbond>
0.6768

> <Gold.PLP.Chemscore.CHOScore>
0.0000

> <Gold.PLP.Chemscore.Metal>
0.0000

> <Gold.Chemscore.Hbonds>
donor molecule, donor type, donor heavy atom, donor atom, acceptor molecule, acceptor atom, score
      P1  H  7997  8008       L1    21  0.61

> <Gold.PLP.Chemscore.Internal.Correction>
0.3701

> <Gold.Rescore>
     Score         DG    S(hbond)    S(metal)    S(lipo)     H(rot)  DE(clash)    DE(int)     intcor
     14.98     -16.38       0.43        0.00     115.82       1.59       0.23       1.18       ----

> <Gold.Chemscore.Fitness>
14.9756

> <Gold.Chemscore.DG>
-16.3813

> <Gold.Chemscore.ZeroCoef>
-5.4800

> <Gold.Chemscore.Hbond>
0.4289

> <Gold.Chemscore.Metal>
0.0000

> <Gold.Chemscore.Lipo>
115.8216

> <Gold.Chemscore.Internal_Hbond>
0.0000

> <Gold.Chemscore.DEClash>
0.2260

> <Gold.Chemscore.DEInternal>
1.1797

> <Gold.Chemscore.Rot>
1.5947

> <Gold.Chemscore.Internal.Correction>
   9.000000E+99

> <Gold.Chemscore.Hbonds>
donor molecule, donor type, donor heavy atom, donor atom, acceptor molecule, acceptor atom, score
      P1  H  7997  8008       L1    21  0.07

> <Gold.Chemscore.Hbond.Weighted>
-1.4326

> <Gold.Chemscore.Metal.Weighted>
-0.0000

> <Gold.Chemscore.Lipo.Weighted>
-13.5511

> <Gold.Chemscore.Internal_Hbond.Weighted>
0.0000

> <Gold.Chemscore.DEClash.Weighted>
0.2260

> <Gold.Chemscore.DEInternal.Weighted>
1.1797

> <Gold.Chemscore.Rot.Weighted>
4.0824

> <Gold.Chemscore.Internal.Correction.Weighted>
   9.000000E+99

> <Gold.Protein.RotatedTorsions>
[ 6907 6896 6895 6894 ] final   15.74 input  -60.11 | X-H torsion
[ 7974 7965 7964 7962 ] final   71.76 input  175.53 | X-H torsion
[ 8008 7997 7996 7995 ] final  -60.79 input   59.86 | X-H torsion
[ 10167 10162 10161 10158 ] final  -57.85 input  -65.29 | X-H torsion
[ 10718 10713 10712 10709 ] final  134.66 input   66.30 | X-H torsion
[ 10763 10752 10751 10750 ] final  100.25 input  -60.55 | X-H torsion
[ 11005 11000 10999 10996 ] final -165.07 input  -57.11 | X-H torsion

> <Gold.Protein.ActiveResidues>
 VAL166  LYS551  ARG553  GLY616  TRP617  ASP618  TYR619  PRO620  LYS621  CYS622 
 ASP623  PHE694  ASN695  SER759  ASP760  ASP761  ALA762  ILE779  LEU786  VAL792 
 PHE793  MET794  SER795  GLU796  ALA797  LYS798  CYS799  TRP800  GLU811  SER814 

> <Gold.Protein.RotatedAtoms>
  151.8228  135.0646  160.0426 H   0  0  0  0  0  0  0  0  0  0  0  0  # atno 6907 bound_to 6896
  152.2938  133.5583  159.5583 H   0  0  0  0  0  0  0  0  0  0  0  0  # atno 6908 bound_to 6896
  150.7242  134.0306  159.3774 H   0  0  0  0  0  0  0  0  0  0  0  0  # atno 6909 bound_to 6896
  145.7618  139.2804  143.1372 H   0  0  0  0  0  0  0  0  0  0  0  0  # atno 7974 bound_to 7965
  154.4416  140.1032  156.6329 H   0  0  0  0  0  0  0  0  0  0  0  0  # atno 8008 bound_to 7997
  155.5585  140.3487  155.4467 H   0  0  0  0  0  0  0  0  0  0  0  0  # atno 8009 bound_to 7997
  156.0477  140.1297  157.0074 H   0  0  0  0  0  0  0  0  0  0  0  0  # atno 8010 bound_to 7997
  140.6233  143.2428  151.5427 H   0  0  0  0  0  0  0  0  0  0  0  0  # atno 10167 bound_to 10162
  157.4650  131.1076  150.9873 H   0  0  0  0  0  0  0  0  0  0  0  0  # atno 10718 bound_to 10713
  153.3116  135.4085  155.1341 H   0  0  0  0  0  0  0  0  0  0  0  0  # atno 10763 bound_to 10752
  154.8577  135.3566  154.5716 H   0  0  0  0  0  0  0  0  0  0  0  0  # atno 10764 bound_to 10752
  153.6145  135.7066  153.5393 H   0  0  0  0  0  0  0  0  0  0  0  0  # atno 10765 bound_to 10752
  140.5799  134.5152  157.5176 H   0  0  0  0  0  0  0  0  0  0  0  0  # atno 11005 bound_to 11000
  146.0257  140.8306  142.9901 LP  0  0  0  0  0  0  0  0  0  0  0  0  # atno 17320 bound_to 7965
  144.6829  140.2694  143.7308 LP  0  0  0  0  0  0  0  0  0  0  0  0  # atno 17321 bound_to 7965
  139.5457  144.2526  152.1438 LP  0  0  0  0  0  0  0  0  0  0  0  0  # atno 17342 bound_to 10162
  140.1752  144.4898  150.6558 LP  0  0  0  0  0  0  0  0  0  0  0  0  # atno 17343 bound_to 10162
  157.0658  130.5844  149.5393 LP  0  0  0  0  0  0  0  0  0  0  0  0  # atno 17370 bound_to 10713
  156.0046  130.5131  150.7785 LP  0  0  0  0  0  0  0  0  0  0  0  0  # atno 17371 bound_to 10713
  139.9322  134.7942  156.0899 LP  0  0  0  0  0  0  0  0  0  0  0  0  # atno 17394 bound_to 11000
  141.1003  133.6680  156.2739 LP  0  0  0  0  0  0  0  0  0  0  0  0  # atno 17395 bound_to 11000

$$$$
