AV-unprocessed.smi:513|AV-procd|sdf|2775|dock1
  -GOLD-   2262023243D 1   1.00000     0.00000
 Structure written by MMmdl.
 41 43  0  0  0  0  0  0  0  0  2 V2000
  150.4900  134.8589  156.4793 C   0  0  0  0  0  0  0  0  0  0  0  0
  151.5518  135.6548  155.9856 O   0  0  0  0  0  0  0  0  0  0  0  0
  152.0219  136.5925  156.9397 C   0  0  0  0  0  0  0  0  0  0  0  0
  150.9544  137.6647  157.2046 C   0  0  0  0  0  0  0  0  0  0  0  0
  151.5358  138.9220  157.6681 N   0  0  0  0  0  0  0  0  0  0  0  0
  151.4306  140.1386  157.0778 C   0  0  0  0  0  0  0  0  0  0  0  0
  150.7012  140.3004  155.9056 N   0  0  0  0  0  0  0  0  0  0  0  0
  150.0718  141.5493  155.4924 C   0  0  0  0  0  0  0  0  0  0  0  0
  148.6728  141.2986  154.8970 C   0  0  0  0  0  0  0  0  0  0  0  0
  148.7821  140.4262  153.7329 N   0  0  0  0  0  0  0  0  0  0  0  0
  149.3682  139.1604  154.1591 C   0  0  0  0  0  0  0  0  0  0  0  0
  150.7684  139.4072  154.7548 C   0  0  0  0  0  0  0  0  0  0  0  0
  152.0633  141.1304  157.7050 N   0  0  0  0  0  0  0  0  0  0  0  0
  152.6250  140.4832  158.7964 C   0  0  0  0  0  0  0  0  0  0  0  0
  152.3255  139.1561  158.7979 C   0  0  0  0  0  0  0  0  0  0  0  0
  152.7921  138.2103  159.8350 C   0  0  0  0  0  0  0  0  0  0  0  0
  152.4936  137.0188  159.7906 O   0  0  0  0  0  0  0  0  0  0  0  0
  153.5583  138.8285  160.7889 N   0  5  0  0  0  0  0  0  0  0  0  0
  153.8847  140.1677  160.8268 C   0  0  0  0  0  0  0  0  0  0  0  0
  154.5832  140.6344  161.7269 O   0  0  0  0  0  0  0  0  0  0  0  0
  153.4264  141.0082  159.8442 N   0  0  0  0  0  0  0  0  0  0  0  0
  153.7234  142.4437  159.8153 C   0  0  0  0  0  0  0  0  0  0  0  0
  150.1729  134.1546  155.7103 H   0  0  0  0  0  0  0  0  0  0  0  0
  149.6304  135.4738  156.7488 H   0  0  0  0  0  0  0  0  0  0  0  0
  150.7999  134.2854  157.3537 H   0  0  0  0  0  0  0  0  0  0  0  0
  152.2684  136.0772  157.8683 H   0  0  0  0  0  0  0  0  0  0  0  0
  152.9362  137.0651  156.5783 H   0  0  0  0  0  0  0  0  0  0  0  0
  150.3854  137.8506  156.2938 H   0  0  0  0  0  0  0  0  0  0  0  0
  150.2244  137.3103  157.9298 H   0  0  0  0  0  0  0  0  0  0  0  0
  149.9908  142.2108  156.3556 H   0  0  0  0  0  0  0  0  0  0  0  0
  150.7118  142.0557  154.7685 H   0  0  0  0  0  0  0  0  0  0  0  0
  148.0095  140.8506  155.6382 H   0  0  0  0  0  0  0  0  0  0  0  0
  148.2213  142.2425  154.5910 H   0  0  0  0  0  0  0  0  0  0  0  0
  147.8639  140.2615  153.3458 H   0  0  0  0  0  0  0  0  0  0  0  0
  148.7153  138.6760  154.8862 H   0  0  0  0  0  0  0  0  0  0  0  0
  149.4388  138.4957  153.2981 H   0  0  0  0  0  0  0  0  0  0  0  0
  151.4351  139.8334  154.0039 H   0  0  0  0  0  0  0  0  0  0  0  0
  151.2100  138.4590  155.0632 H   0  0  0  0  0  0  0  0  0  0  0  0
  154.3295  142.7962  160.6503 H   0  0  0  0  0  0  0  0  0  0  0  0
  152.7943  143.0141  159.8268 H   0  0  0  0  0  0  0  0  0  0  0  0
  154.2576  142.6927  158.8979 H   0  0  0  0  0  0  0  0  0  0  0  0
  1  2  1  0  0  0  0
  1 23  1  0  0  0  0
  1 24  1  0  0  0  0
  1 25  1  0  0  0  0
  2  3  1  0  0  0  0
  3  4  1  0  0  0  0
  3 26  1  0  0  0  0
  3 27  1  0  0  0  0
  4  5  1  0  0  0  0
  4 28  1  0  0  0  0
  4 29  1  0  0  0  0
  5 15  1  0  0  0  0
  5  6  1  0  0  0  0
  6  7  1  0  0  0  0
  6 13  2  0  0  0  0
  7 12  1  0  0  0  0
  7  8  1  0  0  0  0
  8  9  1  0  0  0  0
  8 30  1  0  0  0  0
  8 31  1  0  0  0  0
  9 10  1  0  0  0  0
  9 32  1  0  0  0  0
  9 33  1  0  0  0  0
 10 11  1  0  0  0  0
 10 34  1  0  0  0  0
 11 12  1  0  0  0  0
 11 35  1  0  0  0  0
 11 36  1  0  0  0  0
 12 37  1  0  0  0  0
 12 38  1  0  0  0  0
 13 14  1  0  0  0  0
 14 21  1  0  0  0  0
 14 15  2  0  0  0  0
 15 16  1  0  0  0  0
 16 17  2  0  0  0  0
 16 18  1  0  0  0  0
 18 19  1  0  0  0  0
 19 20  2  0  0  0  0
 19 21  1  0  0  0  0
 21 22  1  0  0  0  0
 22 39  1  0  0  0  0
 22 40  1  0  0  0  0
 22 41  1  0  0  0  0
M  CHG  1  18  -1
M  END
> <s_m_source_file>
AV-unprocessed.smi

> <i_m_source_file_index>
513

> <i_lp_mmshare_version>
43012

> <i_f3d_flags>
0

> <s_epik_input>
W0NIM11uMWMoPU8pW25IXWMoPU8pYyhjMTIpbihbQ0gyXVtDSDJdT1tDSDNdKWMobjIpTjNbQ0gyXVtDSDJdW05IXVtDSDJdW0NIMl0z

> <s_epik_cmdline>
J2VwaWtfcHl0aG9uJywgJy1waCcsICc3LjAnLCAnLXRuJywgJzgnLCAnLW1hJywgJzIwMCcsICctbWV0YWxfYmluZGluZycsICctaW1hZScsICc8aW5maWxlLm1hZT4nLCAnLW9tYWUnLCAnPG91dGZpbGUubWFlPic=

> <r_epik_Ionization_Penalty>
8.82084

> <r_epik_Ionization_Penalty_Charging>
0.08198

> <r_epik_Ionization_Penalty_Neutral>
8.73886

> <r_epik_State_Penalty>
8.90453

> <r_epik_Charging_Adjusted_Penalty>
8.98651

> <i_epik_Tot_Q>
-1

> <i_epik_Tot_abs_Q>
1

> <r_epik_Metal_State_Penalty>
4.85612

> <b_epik_Metal_Only>
1

> <s_lp_Force_Field>
OPLS_2005

> <r_lp_Energy>
54.8501

> <b_lp_Chiralities_Consistent>
1

> <s_lp_Variant>
AV-unprocessed.smi:513-4

> <Gold.Version>
5.8.1

> <Gold.Id.Protein>
6NUR|6NUR_protein|mol2

> <Gold.PLP.Fitness>
41.1674

> <Gold.PLP.PLP>
-35.4726

> <Gold.PLP.part.hbond>
-3.2446

> <Gold.PLP.part.metal>
0.0000

> <Gold.PLP.part.buried>
-3.4840

> <Gold.PLP.part.nonpolar>
-28.2736

> <Gold.PLP.part.repulsive>
0.0299

> <Gold.PLP.ligand.clash>
0.0000

> <Gold.PLP.ligand.torsion>
0.6784

> <Gold.PLP.Chemscore.Hbond>
2.0000

> <Gold.PLP.Chemscore.CHOScore>
0.0000

> <Gold.PLP.Chemscore.Metal>
0.0000

> <Gold.Chemscore.Hbonds>
donor molecule, donor type, donor heavy atom, donor atom, acceptor molecule, acceptor atom, score
      P1  H  6896  6907       L1    17  1.00
      P1  H 10752 10765       L1     2  1.00

> <Gold.PLP.Chemscore.Internal.Correction>
1.0515

> <Gold.Rescore>
     Score         DG    S(hbond)    S(metal)    S(lipo)     H(rot)  DE(clash)    DE(int)     intcor
     11.60     -14.52       1.94        0.00      55.44       1.53       0.05       2.87       ----

> <Gold.Chemscore.Fitness>
11.6000

> <Gold.Chemscore.DG>
-14.5192

> <Gold.Chemscore.ZeroCoef>
-5.4800

> <Gold.Chemscore.Hbond>
1.9408

> <Gold.Chemscore.Metal>
0.0000

> <Gold.Chemscore.Lipo>
55.4356

> <Gold.Chemscore.Internal_Hbond>
0.0000

> <Gold.Chemscore.DEClash>
0.0519

> <Gold.Chemscore.DEInternal>
2.8673

> <Gold.Chemscore.Rot>
1.5348

> <Gold.Chemscore.Internal.Correction>
   9.000000E+99

> <Gold.Chemscore.Hbonds>
donor molecule, donor type, donor heavy atom, donor atom, acceptor molecule, acceptor atom, score
      P1  H  6896  6907       L1    17  0.93
      P1  H 10752 10765       L1     2  0.39

> <Gold.Chemscore.Hbond.Weighted>
-6.4822

> <Gold.Chemscore.Metal.Weighted>
-0.0000

> <Gold.Chemscore.Lipo.Weighted>
-6.4860

> <Gold.Chemscore.Internal_Hbond.Weighted>
0.0000

> <Gold.Chemscore.DEClash.Weighted>
0.0519

> <Gold.Chemscore.DEInternal.Weighted>
2.8673

> <Gold.Chemscore.Rot.Weighted>
3.9290

> <Gold.Chemscore.Internal.Correction.Weighted>
   9.000000E+99

> <Gold.Protein.RotatedTorsions>
[ 6907 6896 6895 6894 ] final   25.12 input  -60.11 | X-H torsion
[ 7974 7965 7964 7962 ] final  153.26 input  175.53 | X-H torsion
[ 8008 7997 7996 7995 ] final   43.34 input   59.86 | X-H torsion
[ 10167 10162 10161 10158 ] final  -31.74 input  -65.29 | X-H torsion
[ 10718 10713 10712 10709 ] final  153.03 input   66.30 | X-H torsion
[ 10763 10752 10751 10750 ] final -170.16 input  -60.55 | X-H torsion
[ 11005 11000 10999 10996 ] final   43.64 input  -57.11 | X-H torsion

> <Gold.Protein.ActiveResidues>
 VAL166  LYS551  ARG553  GLY616  TRP617  ASP618  TYR619  PRO620  LYS621  CYS622 
 ASP623  PHE694  ASN695  SER759  ASP760  ASP761  ALA762  ILE779  LEU786  VAL792 
 PHE793  MET794  SER795  GLU796  ALA797  LYS798  CYS799  TRP800  GLU811  SER814 

> <Gold.Protein.RotatedAtoms>
  151.9677  135.0092  160.0550 H   0  0  0  0  0  0  0  0  0  0  0  0  # atno 6907 bound_to 6896
  152.1811  133.4703  159.4967 H   0  0  0  0  0  0  0  0  0  0  0  0  # atno 6908 bound_to 6896
  150.6917  134.1749  159.4269 H   0  0  0  0  0  0  0  0  0  0  0  0  # atno 6909 bound_to 6896
  144.8166  139.6777  143.6118 H   0  0  0  0  0  0  0  0  0  0  0  0  # atno 7974 bound_to 7965
  155.3011  140.3385  155.4247 H   0  0  0  0  0  0  0  0  0  0  0  0  # atno 8008 bound_to 7997
  156.2001  140.1729  156.7957 H   0  0  0  0  0  0  0  0  0  0  0  0  # atno 8009 bound_to 7997
  154.5548  140.0698  156.8709 H   0  0  0  0  0  0  0  0  0  0  0  0  # atno 8010 bound_to 7997
  140.7232  143.3748  151.1711 H   0  0  0  0  0  0  0  0  0  0  0  0  # atno 10167 bound_to 10162
  157.2501  131.0777  151.1735 H   0  0  0  0  0  0  0  0  0  0  0  0  # atno 10718 bound_to 10713
  154.6445  135.2903  155.0063 H   0  0  0  0  0  0  0  0  0  0  0  0  # atno 10763 bound_to 10752
  154.1178  135.6553  153.4901 H   0  0  0  0  0  0  0  0  0  0  0  0  # atno 10764 bound_to 10752
  153.0343  135.5280  154.7326 H   0  0  0  0  0  0  0  0  0  0  0  0  # atno 10765 bound_to 10752
  140.1626  134.4322  155.8308 H   0  0  0  0  0  0  0  0  0  0  0  0  # atno 11005 bound_to 11000
  146.2470  139.6118  142.9453 LP  0  0  0  0  0  0  0  0  0  0  0  0  # atno 17320 bound_to 7965
  145.5200  141.0432  143.2441 LP  0  0  0  0  0  0  0  0  0  0  0  0  # atno 17321 bound_to 7965
  139.7326  143.9049  152.3024 LP  0  0  0  0  0  0  0  0  0  0  0  0  # atno 17342 bound_to 10162
  139.8843  144.7000  150.8842 LP  0  0  0  0  0  0  0  0  0  0  0  0  # atno 17343 bound_to 10162
  157.3287  130.6974  149.6311 LP  0  0  0  0  0  0  0  0  0  0  0  0  # atno 17370 bound_to 10713
  155.9666  130.4314  150.4918 LP  0  0  0  0  0  0  0  0  0  0  0  0  # atno 17371 bound_to 10713
  141.2211  133.6920  156.7621 LP  0  0  0  0  0  0  0  0  0  0  0  0  # atno 17394 bound_to 11000
  140.2472  134.8568  157.3632 LP  0  0  0  0  0  0  0  0  0  0  0  0  # atno 17395 bound_to 11000

$$$$
