AV-unprocessed.smi:787|AV-procd|sdf|3728|dock10
  -GOLD-   22720 1163D 1   1.00000     0.00000
 Structure written by MMmdl.
 47 49  0  0  0  0  0  0  0  0  2 V2000
  147.5173  141.5788  155.4282 C   0  0  0  0  0  0  0  0  0  0  0  0
  148.8222  142.2210  155.4236 N   0  0  0  0  0  0  0  0  0  0  0  0
  149.9671  141.5073  155.8053 C   0  0  0  0  0  0  0  0  0  0  0  0
  150.7686  141.9969  156.7792 N   0  0  0  0  0  0  0  0  0  0  0  0
  151.8559  141.2898  157.1123 C   0  0  0  0  0  0  0  0  0  0  0  0
  152.2895  140.1226  156.6129 N   0  0  0  0  0  0  0  0  0  0  0  0
  151.5004  139.6258  155.6512 C   0  0  0  0  0  0  0  0  0  0  0  0
  151.7062  138.4405  154.9680 N   0  0  0  0  0  0  0  0  0  0  0  0
  150.6579  138.4144  154.1503 C   0  0  0  0  0  0  0  0  0  0  0  0
  149.7826  139.4371  154.2241 N   0  0  0  0  0  0  0  0  0  0  0  0
  148.5631  139.5825  153.4404 C   0  0  0  0  0  0  0  0  0  0  0  0
  147.6128  138.3677  153.5485 C   0  0  1  0  0  0  0  0  0  0  0  0
  147.0186  138.3773  154.8334 O   0  0  0  0  0  0  0  0  0  0  0  0
  146.4952  138.3686  152.4843 C   0  0  0  0  0  0  0  0  0  0  0  0
  146.3215  137.0358  151.8500 N   0  3  2  0  0  0  0  0  0  0  0  0
  145.9119  137.1322  150.4304 C   0  0  0  0  0  0  0  0  0  0  0  0
  145.4444  136.1225  152.6244 C   0  0  0  0  0  0  0  0  0  0  0  0
  145.3111  134.7675  151.9496 C   0  0  0  0  0  0  0  0  0  0  0  0
  146.4681  134.0479  151.5821 C   0  0  0  0  0  0  0  0  0  0  0  0
  146.3518  132.7842  150.9713 C   0  0  0  0  0  0  0  0  0  0  0  0
  145.0787  132.2353  150.7243 C   0  0  0  0  0  0  0  0  0  0  0  0
  143.9214  132.9515  151.0856 C   0  0  0  0  0  0  0  0  0  0  0  0
  144.0367  134.2165  151.6939 C   0  0  0  0  0  0  0  0  0  0  0  0
  150.3111  140.2785  155.2043 C   0  0  0  0  0  0  0  0  0  0  0  0
  146.7515  142.2902  155.1197 H   0  0  0  0  0  0  0  0  0  0  0  0
  147.2666  141.2195  156.4267 H   0  0  0  0  0  0  0  0  0  0  0  0
  147.4976  140.7358  154.7366 H   0  0  0  0  0  0  0  0  0  0  0  0
  148.8724  143.2220  155.3032 H   0  0  0  0  0  0  0  0  0  0  0  0
  152.4691  141.7195  157.8904 H   0  0  0  0  0  0  0  0  0  0  0  0
  150.5097  137.5940  153.4631 H   0  0  0  0  0  0  0  0  0  0  0  0
  148.0483  140.4896  153.7528 H   0  0  0  0  0  0  0  0  0  0  0  0
  148.8429  139.7466  152.3987 H   0  0  0  0  0  0  0  0  0  0  0  0
  148.2087  137.4588  153.4645 H   0  0  0  0  0  0  0  0  0  0  0  0
  147.3802  139.0898  155.3373 H   0  0  0  0  0  0  0  0  0  0  0  0
  145.5669  138.6962  152.9501 H   0  0  0  0  0  0  0  0  0  0  0  0
  146.7082  139.1049  151.7091 H   0  0  0  0  0  0  0  0  0  0  0  0
  144.9089  137.5522  150.3410 H   0  0  0  0  0  0  0  0  0  0  0  0
  145.9119  136.1478  149.9615 H   0  0  0  0  0  0  0  0  0  0  0  0
  146.5977  137.7645  149.8663 H   0  0  0  0  0  0  0  0  0  0  0  0
  145.8209  136.0127  153.6431 H   0  0  0  0  0  0  0  0  0  0  0  0
  144.4440  136.5500  152.7065 H   0  0  0  0  0  0  0  0  0  0  0  0
  147.4482  134.4609  151.7707 H   0  0  0  0  0  0  0  0  0  0  0  0
  147.2392  132.2350  150.6925 H   0  0  0  0  0  0  0  0  0  0  0  0
  144.9898  131.2660  150.2562 H   0  0  0  0  0  0  0  0  0  0  0  0
  142.9449  132.5305  150.8960 H   0  0  0  0  0  0  0  0  0  0  0  0
  143.1431  134.7570  151.9700 H   0  0  0  0  0  0  0  0  0  0  0  0
  147.2313  136.5979  151.8549 H   0  0  0  0  0  0  0  0  0  0  0  0
  1  2  1  0  0  0  0
  1 25  1  0  0  0  0
  1 26  1  0  0  0  0
  1 27  1  0  0  0  0
  2  3  1  0  0  0  0
  2 28  1  0  0  0  0
  3 24  1  0  0  0  0
  3  4  2  0  0  0  0
  4  5  1  0  0  0  0
  5  6  2  0  0  0  0
  5 29  1  0  0  0  0
  6  7  1  0  0  0  0
  7 24  2  0  0  0  0
  7  8  1  0  0  0  0
  8  9  2  0  0  0  0
  9 10  1  0  0  0  0
  9 30  1  0  0  0  0
 10 11  1  0  0  0  0
 10 24  1  0  0  0  0
 11 12  1  0  0  0  0
 11 31  1  0  0  0  0
 11 32  1  0  0  0  0
 12 13  1  0  0  0  0
 12 14  1  0  0  0  0
 12 33  1  0  0  0  0
 13 34  1  0  0  0  0
 14 15  1  0  0  0  0
 14 35  1  0  0  0  0
 14 36  1  0  0  0  0
 15 16  1  0  0  0  0
 15 17  1  0  0  0  0
 15 47  1  0  0  0  0
 16 37  1  0  0  0  0
 16 38  1  0  0  0  0
 16 39  1  0  0  0  0
 17 18  1  0  0  0  0
 17 40  1  0  0  0  0
 17 41  1  0  0  0  0
 18 23  1  0  0  0  0
 18 19  2  0  0  0  0
 19 20  1  0  0  0  0
 19 42  1  0  0  0  0
 20 21  2  0  0  0  0
 20 43  1  0  0  0  0
 21 22  1  0  0  0  0
 21 44  1  0  0  0  0
 22 23  2  0  0  0  0
 22 45  1  0  0  0  0
 23 46  1  0  0  0  0
M  CHG  1  15   1
M  END
> <s_m_source_file>
AV-unprocessed.smi

> <i_m_source_file_index>
787

> <i_lp_mmshare_version>
43012

> <i_f3d_flags>
0

> <s_epik_input>
bjFbY0hdbmMoW05IXVtDSDNdKWMoYzEyKW4oW2NIXW4yKVtDSDJdW0NASF0oW09IXSlbQ0gyXU4oW0NIM10pW0NIMl1jM1tjSF1bY0hdW2NIXVtjSF1bY0hdMw==

> <s_epik_cmdline>
J2VwaWtfcHl0aG9uJywgJy1waCcsICc3LjAnLCAnLXRuJywgJzgnLCAnLW1hJywgJzIwMCcsICctbWV0YWxfYmluZGluZycsICctaW1hZScsICc8aW5maWxlLm1hZT4nLCAnLW9tYWUnLCAnPG91dGZpbGUubWFlPic=

> <r_lp_tautomer_probability>
0.999987

> <r_epik_Ionization_Penalty>
0.0526284

> <r_epik_Ionization_Penalty_Charging>
0.0475377

> <r_epik_Ionization_Penalty_Neutral>
0.00509065

> <r_epik_State_Penalty>
0.0404888

> <r_epik_Charging_Adjusted_Penalty>
0.0880265

> <i_epik_Tot_Q>
1

> <i_epik_Tot_abs_Q>
1

> <r_epik_Metal_State_Penalty>
0.040507

> <b_epik_Metal_Only>
0

> <s_lp_Force_Field>
OPLS_2005

> <r_lp_Energy>
14.9507

> <b_lp_Chiralities_Consistent>
1

> <s_lp_Variant>
AV-unprocessed.smi:787-4

> <Gold.Version>
5.8.1

> <Gold.Id.Protein>
6NUR|6NUR_protein|mol2

> <Gold.PLP.Fitness>
50.8688

> <Gold.PLP.PLP>
-38.5151

> <Gold.PLP.part.hbond>
-3.0000

> <Gold.PLP.part.metal>
0.0000

> <Gold.PLP.part.buried>
3.7925

> <Gold.PLP.part.nonpolar>
-39.0971

> <Gold.PLP.part.repulsive>
0.3215

> <Gold.PLP.ligand.clash>
0.0000

> <Gold.PLP.ligand.torsion>
1.6654

> <Gold.PLP.Chemscore.Hbond>
4.0000

> <Gold.PLP.Chemscore.CHOScore>
1.1684

> <Gold.PLP.Chemscore.Metal>
0.0000

> <Gold.Chemscore.Hbonds>
donor molecule, donor type, donor heavy atom, donor atom, acceptor molecule, acceptor atom, score
      L1  H     2    28       P1  8028  0.99
      L1  H    15    47       P1  7948  2.00
      P1  H  7997  8010       L1     6  0.93
      L1  C     9    30       P1  7948  0.65
      L1  C     9    30       P1  7949  0.43

> <Gold.PLP.Chemscore.Internal.Correction>
0.1794

> <Gold.Rescore>
     Score         DG    S(hbond)    S(metal)    S(lipo)     H(rot)  DE(clash)    DE(int)     intcor
     11.67     -15.60       2.81        0.00      76.08       3.19       2.23       1.70       ----

> <Gold.Chemscore.Fitness>
11.6686

> <Gold.Chemscore.DG>
-15.5997

> <Gold.Chemscore.ZeroCoef>
-5.4800

> <Gold.Chemscore.Hbond>
2.8118

> <Gold.Chemscore.Metal>
0.0000

> <Gold.Chemscore.Lipo>
76.0841

> <Gold.Chemscore.Internal_Hbond>
0.0000

> <Gold.Chemscore.DEClash>
2.2318

> <Gold.Chemscore.DEInternal>
1.6993

> <Gold.Chemscore.Rot>
3.1928

> <Gold.Chemscore.Internal.Correction>
   9.000000E+99

> <Gold.Chemscore.Hbonds>
donor molecule, donor type, donor heavy atom, donor atom, acceptor molecule, acceptor atom, score
      L1  H     2    28       P1  8028  0.92
      L1  H    15    47       P1  7948  1.00
      P1  H  7997  8010       L1     6  0.64

> <Gold.Chemscore.Hbond.Weighted>
-9.3915

> <Gold.Chemscore.Metal.Weighted>
-0.0000

> <Gold.Chemscore.Lipo.Weighted>
-8.9018

> <Gold.Chemscore.Internal_Hbond.Weighted>
0.0000

> <Gold.Chemscore.DEClash.Weighted>
2.2318

> <Gold.Chemscore.DEInternal.Weighted>
1.6993

> <Gold.Chemscore.Rot.Weighted>
8.1736

> <Gold.Chemscore.Internal.Correction.Weighted>
   9.000000E+99

> <Gold.Protein.RotatedTorsions>
[ 6907 6896 6895 6894 ] final -126.68 input  -60.11 | X-H torsion
[ 7974 7965 7964 7962 ] final   37.58 input  175.53 | X-H torsion
[ 8008 7997 7996 7995 ] final   65.17 input   59.86 | X-H torsion
[ 10167 10162 10161 10158 ] final  -39.60 input  -65.29 | X-H torsion
[ 10718 10713 10712 10709 ] final   -3.15 input   66.30 | X-H torsion
[ 10763 10752 10751 10750 ] final   15.83 input  -60.55 | X-H torsion
[ 11005 11000 10999 10996 ] final  -66.43 input  -57.11 | X-H torsion

> <Gold.Protein.ActiveResidues>
 VAL166  LYS551  ARG553  GLY616  TRP617  ASP618  TYR619  PRO620  LYS621  CYS622 
 ASP623  PHE694  ASN695  SER759  ASP760  ASP761  ALA762  ILE779  LEU786  VAL792 
 PHE793  MET794  SER795  GLU796  ALA797  LYS798  CYS799  TRP800  GLU811  SER814 

> <Gold.Protein.RotatedAtoms>
  150.8994  133.7138  159.2882 H   0  0  0  0  0  0  0  0  0  0  0  0  # atno 6907 bound_to 6896
  151.4661  135.1041  159.9748 H   0  0  0  0  0  0  0  0  0  0  0  0  # atno 6908 bound_to 6896
  152.4868  133.8346  159.7176 H   0  0  0  0  0  0  0  0  0  0  0  0  # atno 6909 bound_to 6896
  146.1127  139.5877  142.9342 H   0  0  0  0  0  0  0  0  0  0  0  0  # atno 7974 bound_to 7965
  155.6575  140.3497  155.4770 H   0  0  0  0  0  0  0  0  0  0  0  0  # atno 8008 bound_to 7997
  155.9796  140.1172  157.0761 H   0  0  0  0  0  0  0  0  0  0  0  0  # atno 8009 bound_to 7997
  154.4188  140.1141  156.5404 H   0  0  0  0  0  0  0  0  0  0  0  0  # atno 8010 bound_to 7997
  140.7059  143.3204  151.2806 H   0  0  0  0  0  0  0  0  0  0  0  0  # atno 10167 bound_to 10162
  156.7803  130.5328  149.5752 H   0  0  0  0  0  0  0  0  0  0  0  0  # atno 10718 bound_to 10713
  153.1488  135.6774  153.8914 H   0  0  0  0  0  0  0  0  0  0  0  0  # atno 10763 bound_to 10752
  153.8347  135.3113  155.3423 H   0  0  0  0  0  0  0  0  0  0  0  0  # atno 10764 bound_to 10752
  154.7846  135.4869  154.0003 H   0  0  0  0  0  0  0  0  0  0  0  0  # atno 10765 bound_to 10752
  141.1482  133.6699  156.6139 H   0  0  0  0  0  0  0  0  0  0  0  0  # atno 11005 bound_to 11000
  145.5631  141.0402  143.2215 LP  0  0  0  0  0  0  0  0  0  0  0  0  # atno 17320 bound_to 7965
  144.7525  139.7156  143.7267 LP  0  0  0  0  0  0  0  0  0  0  0  0  # atno 17321 bound_to 7965
  139.6656  144.0111  152.2721 LP  0  0  0  0  0  0  0  0  0  0  0  0  # atno 17342 bound_to 10162
  139.9693  144.6505  150.8005 LP  0  0  0  0  0  0  0  0  0  0  0  0  # atno 17343 bound_to 10162
  156.1222  130.6118  151.0210 LP  0  0  0  0  0  0  0  0  0  0  0  0  # atno 17370 bound_to 10713
  157.6649  131.0873  150.7751 LP  0  0  0  0  0  0  0  0  0  0  0  0  # atno 17371 bound_to 10713
  140.3593  134.7701  157.4522 LP  0  0  0  0  0  0  0  0  0  0  0  0  # atno 17394 bound_to 11000
  140.0798  134.5747  155.8553 LP  0  0  0  0  0  0  0  0  0  0  0  0  # atno 17395 bound_to 11000

$$$$
