AV-unprocessed.smi:1990|AV-procd|sdf|8062|dock8
  -GOLD-   2272010263D 1   1.00000     0.00000
 Structure written by MMmdl.
 46 47  0  0  0  0  0  0  0  0  1 V2000
  151.0344  144.7767  158.7620 C   0  0  0  0  0  0  0  0  0  0  0  0
  152.0716  143.6755  159.0030 C   0  0  2  0  0  0  0  0  0  0  0  0
  151.6075  142.3115  158.4566 C   0  0  0  0  0  0  0  0  0  0  0  0
  152.5798  141.2805  158.7956 N   0  0  0  0  0  0  0  0  0  0  0  0
  152.2922  140.0308  158.2289 C   0  0  0  0  0  0  0  0  0  0  0  0
  151.1531  139.3265  158.6694 C   0  0  0  0  0  0  0  0  0  0  0  0
  150.8651  138.0726  158.0973 C   0  0  0  0  0  0  0  0  0  0  0  0
  151.7241  137.5653  157.0933 C   0  0  0  0  0  0  0  0  0  0  0  0
  151.5542  136.3075  156.4551 N   0  0  0  0  0  0  0  0  0  0  0  0
  150.5641  135.4100  156.6185 C   0  0  0  0  0  0  0  0  0  0  0  0
  149.5832  135.5813  157.3421 O   0  0  0  0  0  0  0  0  0  0  0  0
  150.6961  134.1167  155.8021 C   0  0  2  0  0  0  0  0  0  0  0  0
  149.5612  133.9678  154.7754 C   0  0  0  0  0  0  0  0  0  0  0  0
  150.7184  132.6508  156.9373 S   0  0  0  0  0  0  0  0  0  0  0  0
  149.3669  131.5890  156.2733 C   0  0  0  0  0  0  0  0  0  0  0  0
  151.9894  131.9303  156.7651 O   0  0  0  0  0  0  0  0  0  0  0  0
  150.3257  133.1076  158.2791 O   0  0  0  0  0  0  0  0  0  0  0  0
  152.8459  138.3418  156.7364 C   0  0  0  0  0  0  0  0  0  0  0  0
  153.1274  139.5447  157.2801 N   0  0  0  0  0  0  0  0  0  0  0  0
  152.8512  141.2224  160.2263 C   0  0  0  0  0  0  0  0  0  0  0  0
  153.2912  142.6077  160.7378 C   0  0  2  0  0  0  0  0  0  0  0  0
  153.4905  142.6245  162.2569 C   0  0  0  0  0  0  0  0  0  0  0  0
  152.2876  143.5658  160.4083 O   0  0  0  0  0  0  0  0  0  0  0  0
  150.8377  144.9049  157.6974 H   0  0  0  0  0  0  0  0  0  0  0  0
  151.3845  145.7325  159.1529 H   0  0  0  0  0  0  0  0  0  0  0  0
  150.0889  144.5423  159.2522 H   0  0  0  0  0  0  0  0  0  0  0  0
  153.0063  143.9660  158.5199 H   0  0  0  0  0  0  0  0  0  0  0  0
  150.6345  142.0519  158.8766 H   0  0  0  0  0  0  0  0  0  0  0  0
  151.4886  142.3613  157.3734 H   0  0  0  0  0  0  0  0  0  0  0  0
  150.5116  139.7358  159.4362 H   0  0  0  0  0  0  0  0  0  0  0  0
  150.0055  137.5239  158.4491 H   0  0  0  0  0  0  0  0  0  0  0  0
  152.2456  136.0827  155.7543 H   0  0  0  0  0  0  0  0  0  0  0  0
  151.6467  134.1224  155.2675 H   0  0  0  0  0  0  0  0  0  0  0  0
  149.4955  134.8415  154.1259 H   0  0  0  0  0  0  0  0  0  0  0  0
  148.5940  133.8370  155.2621 H   0  0  0  0  0  0  0  0  0  0  0  0
  149.7277  133.0989  154.1385 H   0  0  0  0  0  0  0  0  0  0  0  0
  149.2339  130.7271  156.9268 H   0  0  0  0  0  0  0  0  0  0  0  0
  149.6244  131.2393  155.2738 H   0  0  0  0  0  0  0  0  0  0  0  0
  148.4387  132.1583  156.2352 H   0  0  0  0  0  0  0  0  0  0  0  0
  153.5393  137.9897  155.9865 H   0  0  0  0  0  0  0  0  0  0  0  0
  151.9557  140.8962  160.7576 H   0  0  0  0  0  0  0  0  0  0  0  0
  153.6301  140.4844  160.4222 H   0  0  0  0  0  0  0  0  0  0  0  0
  154.2296  142.8955  160.2605 H   0  0  0  0  0  0  0  0  0  0  0  0
  154.2560  141.9098  162.5603 H   0  0  0  0  0  0  0  0  0  0  0  0
  152.5675  142.3691  162.7783 H   0  0  0  0  0  0  0  0  0  0  0  0
  153.8036  143.6117  162.5974 H   0  0  0  0  0  0  0  0  0  0  0  0
  1  2  1  0  0  0  0
  1 24  1  0  0  0  0
  1 25  1  0  0  0  0
  1 26  1  0  0  0  0
  2 23  1  0  0  0  0
  2  3  1  0  0  0  0
  2 27  1  0  0  0  0
  3  4  1  0  0  0  0
  3 28  1  0  0  0  0
  3 29  1  0  0  0  0
  4  5  1  0  0  0  0
  4 20  1  0  0  0  0
  5 19  1  0  0  0  0
  5  6  2  0  0  0  0
  6  7  1  0  0  0  0
  6 30  1  0  0  0  0
  7  8  2  0  0  0  0
  7 31  1  0  0  0  0
  8  9  1  0  0  0  0
  8 18  1  0  0  0  0
  9 10  1  0  0  0  0
  9 32  1  0  0  0  0
 10 11  2  0  0  0  0
 10 12  1  0  0  0  0
 12 13  1  0  0  0  0
 12 14  1  0  0  0  0
 12 33  1  0  0  0  0
 13 34  1  0  0  0  0
 13 35  1  0  0  0  0
 13 36  1  0  0  0  0
 14 15  1  0  0  0  0
 14 16  2  0  0  0  0
 14 17  2  0  0  0  0
 15 37  1  0  0  0  0
 15 38  1  0  0  0  0
 15 39  1  0  0  0  0
 18 19  2  0  0  0  0
 18 40  1  0  0  0  0
 20 21  1  0  0  0  0
 20 41  1  0  0  0  0
 20 42  1  0  0  0  0
 21 22  1  0  0  0  0
 21 23  1  0  0  0  0
 21 43  1  0  0  0  0
 22 44  1  0  0  0  0
 22 45  1  0  0  0  0
 22 46  1  0  0  0  0
M  END
> <s_m_source_file>
AV-unprocessed.smi

> <i_m_source_file_index>
1990

> <i_lp_mmshare_version>
43012

> <i_f3d_flags>
0

> <s_epik_input>
W0NIM11bQ0BASF0xW0NIMl1OKFtDSDJdW0NASF0oTzEpW0NIM10pYzJbY0hdW2NIXWMoW2NIXW4yKVtOSF1DKD1PKVtDQEhdKFtDSDNdKVMoPU8pKD1PKVtDSDNd

> <s_epik_cmdline>
J2VwaWtfcHl0aG9uJywgJy1waCcsICc3LjAnLCAnLXRuJywgJzgnLCAnLW1hJywgJzIwMCcsICctbWV0YWxfYmluZGluZycsICctaW1hZScsICc8aW5maWxlLm1hZT4nLCAnLW9tYWUnLCAnPG91dGZpbGUubWFlPic=

> <r_lp_tautomer_probability>
1

> <r_epik_Ionization_Penalty>
0.000334888

> <r_epik_Ionization_Penalty_Charging>
0

> <r_epik_Ionization_Penalty_Neutral>
0.000334888

> <r_epik_State_Penalty>
0.000200905

> <r_epik_Charging_Adjusted_Penalty>
0.000200905

> <i_epik_Tot_Q>
0

> <i_epik_Tot_abs_Q>
0

> <r_epik_Metal_State_Penalty>
-0

> <b_epik_Metal_Only>
0

> <s_lp_Force_Field>
OPLS_2005

> <r_lp_Energy>
20.1561

> <b_lp_Chiralities_Consistent>
1

> <s_lp_Variant>
AV-unprocessed.smi:1990-2

> <Gold.Version>
5.8.1

> <Gold.Id.Protein>
6NUR|6NUR_protein|mol2

> <Gold.PLP.Fitness>
43.0304

> <Gold.PLP.PLP>
-37.1791

> <Gold.PLP.part.hbond>
-1.8944

> <Gold.PLP.part.metal>
0.0000

> <Gold.PLP.part.buried>
-5.4370

> <Gold.PLP.part.nonpolar>
-30.1137

> <Gold.PLP.part.repulsive>
0.1725

> <Gold.PLP.ligand.clash>
0.0000

> <Gold.PLP.ligand.torsion>
0.1891

> <Gold.PLP.Chemscore.Hbond>
1.9920

> <Gold.PLP.Chemscore.CHOScore>
0.0000

> <Gold.PLP.Chemscore.Metal>
0.0000

> <Gold.Chemscore.Hbonds>
donor molecule, donor type, donor heavy atom, donor atom, acceptor molecule, acceptor atom, score
      P1  H  6896  6908       L1    17  0.26
      P1  H  7997  8008       L1    19  0.96

> <Gold.PLP.Chemscore.Internal.Correction>
0.2536

> <Gold.Rescore>
     Score         DG    S(hbond)    S(metal)    S(lipo)     H(rot)  DE(clash)    DE(int)     intcor
     16.53     -19.34       1.90        0.00      97.34       1.52       0.00       2.80       ----

> <Gold.Chemscore.Fitness>
16.5311

> <Gold.Chemscore.DG>
-19.3355

> <Gold.Chemscore.ZeroCoef>
-5.4800

> <Gold.Chemscore.Hbond>
1.9019

> <Gold.Chemscore.Metal>
0.0000

> <Gold.Chemscore.Lipo>
97.3374

> <Gold.Chemscore.Internal_Hbond>
0.0000

> <Gold.Chemscore.DEClash>
0.0000

> <Gold.Chemscore.DEInternal>
2.8044

> <Gold.Chemscore.Rot>
1.5177

> <Gold.Chemscore.Internal.Correction>
   9.000000E+99

> <Gold.Chemscore.Hbonds>
donor molecule, donor type, donor heavy atom, donor atom, acceptor molecule, acceptor atom, score
      P1  H  6896  6908       L1    17  0.27
      P1  H  7997  8008       L1    19  0.79

> <Gold.Chemscore.Hbond.Weighted>
-6.3522

> <Gold.Chemscore.Metal.Weighted>
-0.0000

> <Gold.Chemscore.Lipo.Weighted>
-11.3885

> <Gold.Chemscore.Internal_Hbond.Weighted>
0.0000

> <Gold.Chemscore.DEClash.Weighted>
0.0000

> <Gold.Chemscore.DEInternal.Weighted>
2.8044

> <Gold.Chemscore.Rot.Weighted>
3.8853

> <Gold.Chemscore.Internal.Correction.Weighted>
   9.000000E+99

> <Gold.Protein.RotatedTorsions>
[ 6907 6896 6895 6894 ] final  100.07 input  -60.11 | X-H torsion
[ 7974 7965 7964 7962 ] final  -94.88 input  175.53 | X-H torsion
[ 8008 7997 7996 7995 ] final  -88.63 input   59.86 | X-H torsion
[ 10167 10162 10161 10158 ] final -161.12 input  -65.29 | X-H torsion
[ 10718 10713 10712 10709 ] final   -2.71 input   66.30 | X-H torsion
[ 10763 10752 10751 10750 ] final  -96.10 input  -60.55 | X-H torsion
[ 11005 11000 10999 10996 ] final -134.61 input  -57.11 | X-H torsion

> <Gold.Protein.ActiveResidues>
 VAL166  LYS551  ARG553  GLY616  TRP617  ASP618  TYR619  PRO620  LYS621  CYS622 
 ASP623  PHE694  ASN695  SER759  ASP760  ASP761  ALA762  ILE779  LEU786  VAL792 
 PHE793  MET794  SER795  GLU796  ALA797  LYS798  CYS799  TRP800  GLU811  SER814 

> <Gold.Protein.RotatedAtoms>
  152.5379  134.0333  159.8034 H   0  0  0  0  0  0  0  0  0  0  0  0  # atno 6907 bound_to 6896
  151.0500  133.5624  159.2650 H   0  0  0  0  0  0  0  0  0  0  0  0  # atno 6908 bound_to 6896
  151.2562  135.0646  159.9134 H   0  0  0  0  0  0  0  0  0  0  0  0  # atno 6909 bound_to 6896
  145.3675  140.9500  143.2466 H   0  0  0  0  0  0  0  0  0  0  0  0  # atno 7974 bound_to 7965
  154.6770  140.0551  157.0226 H   0  0  0  0  0  0  0  0  0  0  0  0  # atno 8008 bound_to 7997
  155.1006  140.3228  155.4529 H   0  0  0  0  0  0  0  0  0  0  0  0  # atno 8009 bound_to 7997
  156.2680  140.2032  156.6132 H   0  0  0  0  0  0  0  0  0  0  0  0  # atno 8010 bound_to 7997
  139.6488  144.0122  152.2147 H   0  0  0  0  0  0  0  0  0  0  0  0  # atno 10167 bound_to 10162
  156.7867  130.5348  149.5742 H   0  0  0  0  0  0  0  0  0  0  0  0  # atno 10718 bound_to 10713
  154.7208  135.5096  153.8809 H   0  0  0  0  0  0  0  0  0  0  0  0  # atno 10763 bound_to 10752
  153.0861  135.6646  153.9955 H   0  0  0  0  0  0  0  0  0  0  0  0  # atno 10764 bound_to 10752
  153.9778  135.3032  155.3402 H   0  0  0  0  0  0  0  0  0  0  0  0  # atno 10765 bound_to 10752
  140.8974  134.1734  157.4485 H   0  0  0  0  0  0  0  0  0  0  0  0  # atno 11005 bound_to 11000
  144.8601  139.5190  143.6816 LP  0  0  0  0  0  0  0  0  0  0  0  0  # atno 17320 bound_to 7965
  146.2900  139.7113  142.9168 LP  0  0  0  0  0  0  0  0  0  0  0  0  # atno 17321 bound_to 7965
  139.9830  144.6415  150.7883 LP  0  0  0  0  0  0  0  0  0  0  0  0  # atno 17342 bound_to 10162
  140.7528  143.2996  151.3114 LP  0  0  0  0  0  0  0  0  0  0  0  0  # atno 17343 bound_to 10162
  156.1184  130.6092  151.0156 LP  0  0  0  0  0  0  0  0  0  0  0  0  # atno 17370 bound_to 10713
  157.6620  131.0879  150.7816 LP  0  0  0  0  0  0  0  0  0  0  0  0  # atno 17371 bound_to 10713
  139.8737  134.9884  156.5410 LP  0  0  0  0  0  0  0  0  0  0  0  0  # atno 17394 bound_to 11000
  140.8272  133.8307  155.8950 LP  0  0  0  0  0  0  0  0  0  0  0  0  # atno 17395 bound_to 11000

$$$$
