AV-unprocessed.smi:2015|AV-procd|sdf|8163|dock3
  -GOLD-   2272010413D 1   1.00000     0.00000
 Structure written by MMmdl.
 47 48  0  0  0  0  0  0  0  0  1 V2000
  144.2138  135.1527  150.6107 C   0  0  0  0  0  0  0  0  0  0  0  0
  144.6625  135.9430  151.6975 O   0  0  0  0  0  0  0  0  0  0  0  0
  145.5629  136.9622  151.2948 C   0  0  0  0  0  0  0  0  0  0  0  0
  146.0895  137.6967  152.5341 C   0  0  0  0  0  0  0  0  0  0  0  0
  146.9862  138.8984  152.1798 C   0  0  0  0  0  0  0  0  0  0  0  0
  147.5193  139.6417  153.4095 C   0  0  0  0  0  0  0  0  0  0  0  0
  146.7519  140.2907  154.1201 O   0  0  0  0  0  0  0  0  0  0  0  0
  148.8443  139.5315  153.6179 N   0  0  0  0  0  0  0  0  0  0  0  0
  149.6333  140.1046  154.6518 C   0  0  0  0  0  0  0  0  0  0  0  0
  150.8278  139.5391  155.1543 C   0  0  0  0  0  0  0  0  0  0  0  0
  151.5242  140.2130  156.1759 C   0  0  0  0  0  0  0  0  0  0  0  0
  151.0175  141.4385  156.6688 C   0  0  0  0  0  0  0  0  0  0  0  0
  151.6944  142.1211  157.7025 N   0  0  0  0  0  0  0  0  0  0  0  0
  151.9455  141.3365  158.9082 C   0  0  0  0  0  0  0  0  0  0  0  0
  152.9379  142.0682  159.8316 C   0  0  2  0  0  0  0  0  0  0  0  0
  153.1312  141.3351  161.1632 C   0  0  0  0  0  0  0  0  0  0  0  0
  152.4446  143.3759  160.1093 O   0  0  0  0  0  0  0  0  0  0  0  0
  152.3106  144.1683  158.9326 C   0  0  2  0  0  0  0  0  0  0  0  0
  151.8670  145.5748  159.3479 C   0  0  0  0  0  0  0  0  0  0  0  0
  151.2970  143.4987  157.9862 C   0  0  0  0  0  0  0  0  0  0  0  0
  149.8853  141.9895  156.1668 N   0  0  0  0  0  0  0  0  0  0  0  0
  149.2207  141.3401  155.1887 C   0  0  0  0  0  0  0  0  0  0  0  0
  143.5280  134.3872  150.9735 H   0  0  0  0  0  0  0  0  0  0  0  0
  145.0470  134.6514  150.1168 H   0  0  0  0  0  0  0  0  0  0  0  0
  143.6832  135.7588  149.8754 H   0  0  0  0  0  0  0  0  0  0  0  0
  146.3981  136.5186  150.7506 H   0  0  0  0  0  0  0  0  0  0  0  0
  145.0696  137.6642  150.6205 H   0  0  0  0  0  0  0  0  0  0  0  0
  145.2465  138.0228  153.1451 H   0  0  0  0  0  0  0  0  0  0  0  0
  146.6546  136.9890  153.1422 H   0  0  0  0  0  0  0  0  0  0  0  0
  147.8365  138.5654  151.5839 H   0  0  0  0  0  0  0  0  0  0  0  0
  146.4263  139.6000  151.5595 H   0  0  0  0  0  0  0  0  0  0  0  0
  149.3599  139.0279  152.9105 H   0  0  0  0  0  0  0  0  0  0  0  0
  151.2322  138.6155  154.7708 H   0  0  0  0  0  0  0  0  0  0  0  0
  152.4428  139.7919  156.5563 H   0  0  0  0  0  0  0  0  0  0  0  0
  150.9977  141.1788  159.4249 H   0  0  0  0  0  0  0  0  0  0  0  0
  152.3430  140.3508  158.6696 H   0  0  0  0  0  0  0  0  0  0  0  0
  153.9076  142.1489  159.3371 H   0  0  0  0  0  0  0  0  0  0  0  0
  153.5164  140.3276  161.0040 H   0  0  0  0  0  0  0  0  0  0  0  0
  152.1904  141.2520  161.7079 H   0  0  0  0  0  0  0  0  0  0  0  0
  153.8395  141.8648  161.8006 H   0  0  0  0  0  0  0  0  0  0  0  0
  153.2811  144.2424  158.4384 H   0  0  0  0  0  0  0  0  0  0  0  0
  151.7644  146.2260  158.4795 H   0  0  0  0  0  0  0  0  0  0  0  0
  152.5939  146.0300  160.0207 H   0  0  0  0  0  0  0  0  0  0  0  0
  150.9063  145.5494  159.8630 H   0  0  0  0  0  0  0  0  0  0  0  0
  151.2354  144.0694  157.0586 H   0  0  0  0  0  0  0  0  0  0  0  0
  150.3035  143.5004  158.4374 H   0  0  0  0  0  0  0  0  0  0  0  0
  148.3244  141.8232  154.8281 H   0  0  0  0  0  0  0  0  0  0  0  0
  1  2  1  0  0  0  0
  1 23  1  0  0  0  0
  1 24  1  0  0  0  0
  1 25  1  0  0  0  0
  2  3  1  0  0  0  0
  3  4  1  0  0  0  0
  3 26  1  0  0  0  0
  3 27  1  0  0  0  0
  4  5  1  0  0  0  0
  4 28  1  0  0  0  0
  4 29  1  0  0  0  0
  5  6  1  0  0  0  0
  5 30  1  0  0  0  0
  5 31  1  0  0  0  0
  6  7  2  0  0  0  0
  6  8  1  0  0  0  0
  8  9  1  0  0  0  0
  8 32  1  0  0  0  0
  9 22  1  0  0  0  0
  9 10  2  0  0  0  0
 10 11  1  0  0  0  0
 10 33  1  0  0  0  0
 11 12  2  0  0  0  0
 11 34  1  0  0  0  0
 12 13  1  0  0  0  0
 12 21  1  0  0  0  0
 13 20  1  0  0  0  0
 13 14  1  0  0  0  0
 14 15  1  0  0  0  0
 14 35  1  0  0  0  0
 14 36  1  0  0  0  0
 15 16  1  0  0  0  0
 15 17  1  0  0  0  0
 15 37  1  0  0  0  0
 16 38  1  0  0  0  0
 16 39  1  0  0  0  0
 16 40  1  0  0  0  0
 17 18  1  0  0  0  0
 18 19  1  0  0  0  0
 18 20  1  0  0  0  0
 18 41  1  0  0  0  0
 19 42  1  0  0  0  0
 19 43  1  0  0  0  0
 19 44  1  0  0  0  0
 20 45  1  0  0  0  0
 20 46  1  0  0  0  0
 21 22  2  0  0  0  0
 22 47  1  0  0  0  0
M  END
> <s_m_source_file>
AV-unprocessed.smi

> <i_m_source_file_index>
2015

> <i_lp_mmshare_version>
43012

> <i_f3d_flags>
0

> <s_epik_input>
W0NIM11PW0NIMl1bQ0gyXVtDSDJdQyg9TylbTkhdYzFbY0hdW2NIXWMobltjSF0xKU4yW0NIMl1bQ0BASF0oW0NIM10pT1tDQEBIXShbQ0gzXSlbQ0gyXTI=

> <s_epik_cmdline>
J2VwaWtfcHl0aG9uJywgJy1waCcsICc3LjAnLCAnLXRuJywgJzgnLCAnLW1hJywgJzIwMCcsICctbWV0YWxfYmluZGluZycsICctaW1hZScsICc8aW5maWxlLm1hZT4nLCAnLW9tYWUnLCAnPG91dGZpbGUubWFlPic=

> <r_lp_tautomer_probability>
1

> <r_epik_Ionization_Penalty>
0.000816358

> <r_epik_Ionization_Penalty_Charging>
0

> <r_epik_Ionization_Penalty_Neutral>
0.000816358

> <r_epik_State_Penalty>
0.000521115

> <r_epik_Charging_Adjusted_Penalty>
0.000521115

> <i_epik_Tot_Q>
0

> <i_epik_Tot_abs_Q>
0

> <r_epik_Metal_State_Penalty>
-0

> <b_epik_Metal_Only>
0

> <s_lp_Force_Field>
OPLS_2005

> <r_lp_Energy>
22.1268

> <b_lp_Chiralities_Consistent>
1

> <s_lp_Variant>
AV-unprocessed.smi:2015-1

> <Gold.Version>
5.8.1

> <Gold.Id.Protein>
6NUR|6NUR_protein|mol2

> <Gold.PLP.Fitness>
47.4626

> <Gold.PLP.PLP>
-45.6885

> <Gold.PLP.part.hbond>
-1.0000

> <Gold.PLP.part.metal>
0.0000

> <Gold.PLP.part.buried>
-0.1620

> <Gold.PLP.part.nonpolar>
-45.2381

> <Gold.PLP.part.repulsive>
1.6131

> <Gold.PLP.ligand.clash>
0.0000

> <Gold.PLP.ligand.torsion>
0.4311

> <Gold.PLP.Chemscore.Hbond>
0.7680

> <Gold.PLP.Chemscore.CHOScore>
0.0000

> <Gold.PLP.Chemscore.Metal>
0.0000

> <Gold.Chemscore.Hbonds>
donor molecule, donor type, donor heavy atom, donor atom, acceptor molecule, acceptor atom, score
      L1  H     8    32       P1  7957  0.30

> <Gold.PLP.Chemscore.Internal.Correction>
0.3324

> <Gold.Rescore>
     Score         DG    S(hbond)    S(metal)    S(lipo)     H(rot)  DE(clash)    DE(int)     intcor
     14.84     -17.69       0.87        0.00     116.49       1.68       1.01       1.84       ----

> <Gold.Chemscore.Fitness>
14.8443

> <Gold.Chemscore.DG>
-17.6918

> <Gold.Chemscore.ZeroCoef>
-5.4800

> <Gold.Chemscore.Hbond>
0.8655

> <Gold.Chemscore.Metal>
0.0000

> <Gold.Chemscore.Lipo>
116.4864

> <Gold.Chemscore.Internal_Hbond>
0.0000

> <Gold.Chemscore.DEClash>
1.0066

> <Gold.Chemscore.DEInternal>
1.8409

> <Gold.Chemscore.Rot>
1.6827

> <Gold.Chemscore.Internal.Correction>
   9.000000E+99

> <Gold.Chemscore.Hbonds>
donor molecule, donor type, donor heavy atom, donor atom, acceptor molecule, acceptor atom, score
      L1  H     8    32       P1  7957  0.28

> <Gold.Chemscore.Hbond.Weighted>
-2.8907

> <Gold.Chemscore.Metal.Weighted>
-0.0000

> <Gold.Chemscore.Lipo.Weighted>
-13.6289

> <Gold.Chemscore.Internal_Hbond.Weighted>
0.0000

> <Gold.Chemscore.DEClash.Weighted>
1.0066

> <Gold.Chemscore.DEInternal.Weighted>
1.8409

> <Gold.Chemscore.Rot.Weighted>
4.3078

> <Gold.Chemscore.Internal.Correction.Weighted>
   9.000000E+99

> <Gold.Protein.RotatedTorsions>
[ 6907 6896 6895 6894 ] final  142.63 input  -60.11 | X-H torsion
[ 7974 7965 7964 7962 ] final  172.04 input  175.53 | X-H torsion
[ 8008 7997 7996 7995 ] final -141.98 input   59.86 | X-H torsion
[ 10167 10162 10161 10158 ] final  -91.27 input  -65.29 | X-H torsion
[ 10718 10713 10712 10709 ] final  -81.47 input   66.30 | X-H torsion
[ 10763 10752 10751 10750 ] final   64.95 input  -60.55 | X-H torsion
[ 11005 11000 10999 10996 ] final  124.61 input  -57.11 | X-H torsion

> <Gold.Protein.ActiveResidues>
 VAL166  LYS551  ARG553  GLY616  TRP617  ASP618  TYR619  PRO620  LYS621  CYS622 
 ASP623  PHE694  ASN695  SER759  ASP760  ASP761  ALA762  ILE779  LEU786  VAL792 
 PHE793  MET794  SER795  GLU796  ALA797  LYS798  CYS799  TRP800  GLU811  SER814 

> <Gold.Protein.RotatedAtoms>
  152.2163  133.4949  159.5137 H   0  0  0  0  0  0  0  0  0  0  0  0  # atno 6907 bound_to 6896
  150.7002  134.1401  159.4110 H   0  0  0  0  0  0  0  0  0  0  0  0  # atno 6908 bound_to 6896
  151.9321  135.0252  160.0580 H   0  0  0  0  0  0  0  0  0  0  0  0  # atno 6909 bound_to 6896
  144.7278  139.9439  143.6429 H   0  0  0  0  0  0  0  0  0  0  0  0  # atno 7974 bound_to 7965
  155.4866  140.0564  157.2959 H   0  0  0  0  0  0  0  0  0  0  0  0  # atno 8008 bound_to 7997
  154.4639  140.2009  156.0121 H   0  0  0  0  0  0  0  0  0  0  0  0  # atno 8009 bound_to 7997
  156.0940  140.3229  155.7857 H   0  0  0  0  0  0  0  0  0  0  0  0  # atno 8010 bound_to 7997
  140.3466  143.2913  151.9774 H   0  0  0  0  0  0  0  0  0  0  0  0  # atno 10167 bound_to 10162
  156.0050  130.4605  150.3958 H   0  0  0  0  0  0  0  0  0  0  0  0  # atno 10718 bound_to 10713
  153.0076  135.5374  154.6591 H   0  0  0  0  0  0  0  0  0  0  0  0  # atno 10763 bound_to 10752
  154.5804  135.2849  155.0741 H   0  0  0  0  0  0  0  0  0  0  0  0  # atno 10764 bound_to 10752
  154.1872  135.6506  153.5102 H   0  0  0  0  0  0  0  0  0  0  0  0  # atno 10765 bound_to 10752
  139.9367  134.9639  156.8435 H   0  0  0  0  0  0  0  0  0  0  0  0  # atno 11005 bound_to 11000
  146.0763  139.3751  143.0492 LP  0  0  0  0  0  0  0  0  0  0  0  0  # atno 17320 bound_to 7965
  145.7901  140.9818  143.1054 LP  0  0  0  0  0  0  0  0  0  0  0  0  # atno 17321 bound_to 7965
  139.4832  144.6112  151.7431 LP  0  0  0  0  0  0  0  0  0  0  0  0  # atno 17342 bound_to 10162
  140.5259  144.0807  150.6037 LP  0  0  0  0  0  0  0  0  0  0  0  0  # atno 17343 bound_to 10162
  157.2030  131.0442  151.2640 LP  0  0  0  0  0  0  0  0  0  0  0  0  # atno 17370 bound_to 10713
  157.3958  130.7307  149.6731 LP  0  0  0  0  0  0  0  0  0  0  0  0  # atno 17371 bound_to 10713
  140.6058  134.0129  155.7556 LP  0  0  0  0  0  0  0  0  0  0  0  0  # atno 17394 bound_to 11000
  141.0983  133.9808  157.3122 LP  0  0  0  0  0  0  0  0  0  0  0  0  # atno 17395 bound_to 11000

$$$$
