AV-unprocessed.smi:1417|AV-procd|sdf|5770|dock8
  -GOLD-   22720 5413D 1   1.00000     0.00000
 Structure written by MMmdl.
 39 40  0  0  0  0  0  0  0  0  3 V2000
  153.1864  141.2244  160.5346 C   0  0  0  0  0  0  0  0  0  0  0  0
  152.3179  141.2864  159.3249 C   0  0  0  0  0  0  0  0  0  0  0  0
  151.5092  142.2607  158.8123 C   0  0  0  0  0  0  0  0  0  0  0  0
  150.9717  141.6551  157.6439 C   0  0  0  0  0  0  0  0  0  0  0  0
  150.1184  142.2269  156.7804 N   0  5  0  0  0  0  0  0  0  0  0  0
  149.6231  141.5163  155.7416 C   0  0  0  0  0  0  0  0  0  0  0  0
  150.0488  140.4382  155.3211 O   0  0  0  0  0  0  0  0  0  0  0  0
  148.5686  142.0963  155.1510 N   0  0  0  0  0  0  0  0  0  0  0  0
  147.8250  141.5782  154.0032 C   0  0  2  0  0  0  0  0  0  0  0  0
  146.7372  142.5656  153.5359 C   0  0  0  0  0  0  0  0  0  0  0  0
  145.5874  142.6748  154.5526 C   0  0  0  0  0  0  0  0  0  0  0  0
  144.9960  141.3398  154.8357 N   0  3  2  0  0  0  0  0  0  0  0  0
  143.7918  141.4075  155.7032 C   0  0  0  0  0  0  0  0  0  0  0  0
  143.0306  140.0795  155.7763 C   0  0  0  0  0  0  0  0  0  0  0  0
  142.5386  139.6038  154.6299 N   0  0  0  0  0  0  0  0  0  0  0  0
  142.8712  139.4991  156.8487 O   0  0  0  0  0  0  0  0  0  0  0  0
  146.0141  140.3886  155.3502 C   0  0  0  0  0  0  0  0  0  0  0  0
  147.1787  140.2275  154.3556 C   0  0  0  0  0  0  0  0  0  0  0  0
  151.4273  140.4280  157.4545 N   0  0  0  0  0  0  0  0  0  0  0  0
  152.2871  140.1818  158.5315 O   0  0  0  0  0  0  0  0  0  0  0  0
  154.0921  141.8129  160.3889 H   0  0  0  0  0  0  0  0  0  0  0  0
  153.4816  140.1982  160.7545 H   0  0  0  0  0  0  0  0  0  0  0  0
  152.6628  141.6179  161.4058 H   0  0  0  0  0  0  0  0  0  0  0  0
  151.3276  143.2480  159.2104 H   0  0  0  0  0  0  0  0  0  0  0  0
  148.2548  142.9731  155.5400 H   0  0  0  0  0  0  0  0  0  0  0  0
  148.5312  141.4147  153.1873 H   0  0  0  0  0  0  0  0  0  0  0  0
  147.1660  143.5509  153.3497 H   0  0  0  0  0  0  0  0  0  0  0  0
  146.3354  142.2280  152.5797 H   0  0  0  0  0  0  0  0  0  0  0  0
  145.9455  143.1226  155.4812 H   0  0  0  0  0  0  0  0  0  0  0  0
  144.8250  143.3458  154.1560 H   0  0  0  0  0  0  0  0  0  0  0  0
  144.0875  141.6513  156.7246 H   0  0  0  0  0  0  0  0  0  0  0  0
  143.1333  142.2109  155.3684 H   0  0  0  0  0  0  0  0  0  0  0  0
  142.0312  138.7307  154.6188 H   0  0  0  0  0  0  0  0  0  0  0  0
  142.6788  140.1190  153.7723 H   0  0  0  0  0  0  0  0  0  0  0  0
  146.3822  140.7352  156.3172 H   0  0  0  0  0  0  0  0  0  0  0  0
  145.5551  139.4137  155.5183 H   0  0  0  0  0  0  0  0  0  0  0  0
  146.8059  139.7599  153.4431 H   0  0  0  0  0  0  0  0  0  0  0  0
  147.9268  139.5451  154.7611 H   0  0  0  0  0  0  0  0  0  0  0  0
  144.6816  140.9653  153.9516 H   0  0  0  0  0  0  0  0  0  0  0  0
  1  2  1  0  0  0  0
  1 21  1  0  0  0  0
  1 22  1  0  0  0  0
  1 23  1  0  0  0  0
  2 20  1  0  0  0  0
  2  3  2  0  0  0  0
  3  4  1  0  0  0  0
  3 24  1  0  0  0  0
  4  5  1  0  0  0  0
  4 19  2  0  0  0  0
  5  6  1  0  0  0  0
  6  7  2  0  0  0  0
  6  8  1  0  0  0  0
  8  9  1  0  0  0  0
  8 25  1  0  0  0  0
  9 18  1  0  0  0  0
  9 10  1  0  0  0  0
  9 26  1  0  0  0  0
 10 11  1  0  0  0  0
 10 27  1  0  0  0  0
 10 28  1  0  0  0  0
 11 12  1  0  0  0  0
 11 29  1  0  0  0  0
 11 30  1  0  0  0  0
 12 13  1  0  0  0  0
 12 17  1  0  0  0  0
 12 39  1  0  0  0  0
 13 14  1  0  0  0  0
 13 31  1  0  0  0  0
 13 32  1  0  0  0  0
 14 15  1  0  0  0  0
 14 16  2  0  0  0  0
 15 33  1  0  0  0  0
 15 34  1  0  0  0  0
 17 18  1  0  0  0  0
 17 35  1  0  0  0  0
 17 36  1  0  0  0  0
 18 37  1  0  0  0  0
 18 38  1  0  0  0  0
 19 20  1  0  0  0  0
M  CHG  1   5  -1
M  CHG  1  12   1
M  END
> <s_m_source_file>
AV-unprocessed.smi

> <i_m_source_file_index>
1417

> <i_lp_mmshare_version>
43012

> <i_f3d_flags>
0

> <s_epik_input>
W0NIM11jMVtjSF1jKG5vMSlbTkhdQyg9TylbTkhdW0NIXTJbQ0gyXVtDSDJdTihbQ0gyXVtDSDJdMilbQ0gyXUMoPU8pW05IMl0=

> <s_epik_cmdline>
J2VwaWtfcHl0aG9uJywgJy1waCcsICc3LjAnLCAnLXRuJywgJzgnLCAnLW1hJywgJzIwMCcsICctbWV0YWxfYmluZGluZycsICctaW1hZScsICc8aW5maWxlLm1hZT4nLCAnLW9tYWUnLCAnPG91dGZpbGUubWFlPic=

> <r_epik_Ionization_Penalty>
7.07562

> <r_epik_Ionization_Penalty_Charging>
7.07548

> <r_epik_Ionization_Penalty_Neutral>
0.00013758

> <r_epik_State_Penalty>
7.16607

> <r_epik_Charging_Adjusted_Penalty>
14.2416

> <i_epik_Tot_Q>
0

> <i_epik_Tot_abs_Q>
2

> <r_epik_Metal_State_Penalty>
3.11438

> <b_epik_Metal_Only>
1

> <s_lp_Force_Field>
OPLS_2005

> <r_lp_Energy>
2.10932

> <b_lp_Chiralities_Consistent>
1

> <s_lp_Variant>
AV-unprocessed.smi:1417-6

> <Gold.Version>
5.8.1

> <Gold.Id.Protein>
6NUR|6NUR_protein|mol2

> <Gold.PLP.Fitness>
46.3795

> <Gold.PLP.PLP>
-29.2733

> <Gold.PLP.part.hbond>
-5.0000

> <Gold.PLP.part.metal>
0.0000

> <Gold.PLP.part.buried>
-6.4330

> <Gold.PLP.part.nonpolar>
-18.3941

> <Gold.PLP.part.repulsive>
0.3920

> <Gold.PLP.ligand.clash>
0.0000

> <Gold.PLP.ligand.torsion>
0.0974

> <Gold.PLP.Chemscore.Hbond>
5.7520

> <Gold.PLP.Chemscore.CHOScore>
0.0000

> <Gold.PLP.Chemscore.Metal>
0.0000

> <Gold.Chemscore.Hbonds>
donor molecule, donor type, donor heavy atom, donor atom, acceptor molecule, acceptor atom, score
      L1  H     8    25       P1  8028  0.77
      L1  H    12    39       P1 10175  2.00
      L1  H    15    34       P1 10175  1.00

> <Gold.PLP.Chemscore.Internal.Correction>
0.0449

> <Gold.Rescore>
     Score         DG    S(hbond)    S(metal)    S(lipo)     H(rot)  DE(clash)    DE(int)     intcor
     15.12     -18.72       3.54        0.00      56.42       2.02       0.93       2.67       ----

> <Gold.Chemscore.Fitness>
15.1168

> <Gold.Chemscore.DG>
-18.7161

> <Gold.Chemscore.ZeroCoef>
-5.4800

> <Gold.Chemscore.Hbond>
3.5366

> <Gold.Chemscore.Metal>
0.0000

> <Gold.Chemscore.Lipo>
56.4172

> <Gold.Chemscore.Internal_Hbond>
0.0000

> <Gold.Chemscore.DEClash>
0.9334

> <Gold.Chemscore.DEInternal>
2.6659

> <Gold.Chemscore.Rot>
2.0222

> <Gold.Chemscore.Internal.Correction>
   9.000000E+99

> <Gold.Chemscore.Hbonds>
donor molecule, donor type, donor heavy atom, donor atom, acceptor molecule, acceptor atom, score
      L1  H     8    25       P1  8028  0.73
      L1  H    12    39       P1 10175  0.88
      L1  H    15    34       P1 10175  0.91
      P1  H  7989  7998       L1     7  0.03

> <Gold.Chemscore.Hbond.Weighted>
-11.8122

> <Gold.Chemscore.Metal.Weighted>
-0.0000

> <Gold.Chemscore.Lipo.Weighted>
-6.6008

> <Gold.Chemscore.Internal_Hbond.Weighted>
0.0000

> <Gold.Chemscore.DEClash.Weighted>
0.9334

> <Gold.Chemscore.DEInternal.Weighted>
2.6659

> <Gold.Chemscore.Rot.Weighted>
5.1769

> <Gold.Chemscore.Internal.Correction.Weighted>
   9.000000E+99

> <Gold.Protein.RotatedTorsions>
[ 6907 6896 6895 6894 ] final  114.05 input  -60.11 | X-H torsion
[ 7974 7965 7964 7962 ] final -124.98 input  175.53 | X-H torsion
[ 8008 7997 7996 7995 ] final   32.95 input   59.86 | X-H torsion
[ 10167 10162 10161 10158 ] final  117.60 input  -65.29 | X-H torsion
[ 10718 10713 10712 10709 ] final  -21.06 input   66.30 | X-H torsion
[ 10763 10752 10751 10750 ] final  -65.18 input  -60.55 | X-H torsion
[ 11005 11000 10999 10996 ] final  112.52 input  -57.11 | X-H torsion

> <Gold.Protein.ActiveResidues>
 VAL166  LYS551  ARG553  GLY616  TRP617  ASP618  TYR619  PRO620  LYS621  CYS622 
 ASP623  PHE694  ASN695  SER759  ASP760  ASP761  ALA762  ILE779  LEU786  VAL792 
 PHE793  MET794  SER795  GLU796  ALA797  LYS798  CYS799  TRP800  GLU811  SER814 

> <Gold.Protein.RotatedAtoms>
  152.4825  133.8290  159.7092 H   0  0  0  0  0  0  0  0  0  0  0  0  # atno 6907 bound_to 6896
  150.8886  133.7265  159.2918 H   0  0  0  0  0  0  0  0  0  0  0  0  # atno 6908 bound_to 6896
  151.4745  135.1052  159.9813 H   0  0  0  0  0  0  0  0  0  0  0  0  # atno 6909 bound_to 6896
  145.0023  140.7832  143.4488 H   0  0  0  0  0  0  0  0  0  0  0  0  # atno 7974 bound_to 7965
  155.1307  140.3257  155.4475 H   0  0  0  0  0  0  0  0  0  0  0  0  # atno 8008 bound_to 7997
  156.2635  140.2011  156.6375 H   0  0  0  0  0  0  0  0  0  0  0  0  # atno 8009 bound_to 7997
  154.6615  140.0547  157.0054 H   0  0  0  0  0  0  0  0  0  0  0  0  # atno 8010 bound_to 7997
  139.6168  144.7093  151.2722 H   0  0  0  0  0  0  0  0  0  0  0  0  # atno 10167 bound_to 10162
  156.5234  130.4638  149.6585 H   0  0  0  0  0  0  0  0  0  0  0  0  # atno 10718 bound_to 10713
  154.3412  135.6156  153.5597 H   0  0  0  0  0  0  0  0  0  0  0  0  # atno 10763 bound_to 10752
  152.9804  135.5770  154.4850 H   0  0  0  0  0  0  0  0  0  0  0  0  # atno 10764 bound_to 10752
  154.4554  135.2854  155.1728 H   0  0  0  0  0  0  0  0  0  0  0  0  # atno 10765 bound_to 10752
  139.8929  134.9531  156.6599 H   0  0  0  0  0  0  0  0  0  0  0  0  # atno 11005 bound_to 11000
  145.2136  139.2193  143.5130 LP  0  0  0  0  0  0  0  0  0  0  0  0  # atno 17320 bound_to 7965
  146.3454  140.1979  142.8589 LP  0  0  0  0  0  0  0  0  0  0  0  0  # atno 17321 bound_to 7965
  140.7356  143.6732  150.8063 LP  0  0  0  0  0  0  0  0  0  0  0  0  # atno 17342 bound_to 10162
  140.0336  143.5418  152.2749 LP  0  0  0  0  0  0  0  0  0  0  0  0  # atno 17343 bound_to 10162
  156.3128  130.7238  151.2134 LP  0  0  0  0  0  0  0  0  0  0  0  0  # atno 17370 bound_to 10713
  157.7433  131.0476  150.4955 LP  0  0  0  0  0  0  0  0  0  0  0  0  # atno 17371 bound_to 10713
  140.7455  133.8941  155.8309 LP  0  0  0  0  0  0  0  0  0  0  0  0  # atno 17394 bound_to 11000
  141.0043  134.1108  157.4286 LP  0  0  0  0  0  0  0  0  0  0  0  0  # atno 17395 bound_to 11000

$$$$
