AV-unprocessed.smi:377|AV-procd|sdf|2456|dock10
  -GOLD-   2262022393D 1   1.00000     0.00000
 Structure written by MMmdl.
 33 34  0  0  0  0  0  0  0  0  1 V2000
  145.6934  143.2474  154.1644 C   0  0  0  0  0  0  0  0  0  0  0  0
  146.5574  141.9875  154.3067 C   0  0  0  0  0  0  0  0  0  0  0  0
  147.9286  142.3172  154.6768 N   0  0  0  0  0  0  0  0  0  0  0  0
  148.9282  141.4320  154.8051 C   0  0  0  0  0  0  0  0  0  0  0  0
  148.7841  140.2219  154.6219 O   0  0  0  0  0  0  0  0  0  0  0  0
  150.2928  142.0192  155.1983 C   0  0  0  0  0  0  0  0  0  0  0  0
  151.0271  141.2014  156.1888 N   0  0  0  0  0  0  0  0  0  0  0  0
  151.4093  139.8827  155.8324 C   0  0  0  0  0  0  0  0  0  0  0  0
  151.1627  139.4308  154.7128 O   0  0  0  0  0  0  0  0  0  0  0  0
  152.0858  139.1194  156.8785 C   0  0  0  0  0  0  0  0  0  0  0  0
  152.4574  137.7787  156.5692 C   0  0  0  0  0  0  0  0  0  0  0  0
  152.7369  136.6819  156.3269 N   0  0  0  0  0  0  0  0  0  0  0  0
  152.3385  139.6670  158.0851 C   0  0  0  0  0  0  0  0  0  0  0  0
  151.9940  140.9640  158.3976 N   0  0  0  0  0  0  0  0  0  0  0  0
  152.1273  141.4755  159.7324 C   0  0  0  0  0  0  0  0  0  0  0  0
  152.8101  142.8080  159.9715 C   0  0  0  0  0  0  0  0  0  0  0  0
  153.4999  141.5258  160.3681 C   0  0  0  0  0  0  0  0  0  0  0  0
  151.2787  141.7513  157.4692 C   0  0  0  0  0  0  0  0  0  0  0  0
  150.8753  142.8788  157.7662 O   0  0  0  0  0  0  0  0  0  0  0  0
  144.6629  142.9845  153.9251 H   0  0  0  0  0  0  0  0  0  0  0  0
  146.0628  143.8955  153.3689 H   0  0  0  0  0  0  0  0  0  0  0  0
  145.6830  143.8244  155.0896 H   0  0  0  0  0  0  0  0  0  0  0  0
  146.1424  141.3435  155.0823 H   0  0  0  0  0  0  0  0  0  0  0  0
  146.5423  141.4084  153.3821 H   0  0  0  0  0  0  0  0  0  0  0  0
  148.1330  143.2914  154.8467 H   0  0  0  0  0  0  0  0  0  0  0  0
  150.8836  142.1562  154.2913 H   0  0  0  0  0  0  0  0  0  0  0  0
  150.1392  143.0344  155.5681 H   0  0  0  0  0  0  0  0  0  0  0  0
  152.8350  139.0693  158.8363 H   0  0  0  0  0  0  0  0  0  0  0  0
  151.3029  141.2402  160.4035 H   0  0  0  0  0  0  0  0  0  0  0  0
  153.2120  143.3425  159.1129 H   0  0  0  0  0  0  0  0  0  0  0  0
  152.4166  143.4359  160.7681 H   0  0  0  0  0  0  0  0  0  0  0  0
  153.5695  141.3009  161.4304 H   0  0  0  0  0  0  0  0  0  0  0  0
  154.3545  141.2152  159.7699 H   0  0  0  0  0  0  0  0  0  0  0  0
  1  2  1  0  0  0  0
  1 20  1  0  0  0  0
  1 21  1  0  0  0  0
  1 22  1  0  0  0  0
  2  3  1  0  0  0  0
  2 23  1  0  0  0  0
  2 24  1  0  0  0  0
  3  4  1  0  0  0  0
  3 25  1  0  0  0  0
  4  5  2  0  0  0  0
  4  6  1  0  0  0  0
  6  7  1  0  0  0  0
  6 26  1  0  0  0  0
  6 27  1  0  0  0  0
  7 18  1  0  0  0  0
  7  8  1  0  0  0  0
  8  9  2  0  0  0  0
  8 10  1  0  0  0  0
 10 11  1  0  0  0  0
 10 13  2  0  0  0  0
 11 12  3  0  0  0  0
 13 14  1  0  0  0  0
 13 28  1  0  0  0  0
 14 15  1  0  0  0  0
 14 18  1  0  0  0  0
 15 17  1  0  0  0  0
 15 16  1  0  0  0  0
 15 29  1  0  0  0  0
 16 17  1  0  0  0  0
 16 30  1  0  0  0  0
 16 31  1  0  0  0  0
 17 32  1  0  0  0  0
 17 33  1  0  0  0  0
 18 19  2  0  0  0  0
M  END
> <s_m_source_file>
AV-unprocessed.smi

> <i_m_source_file_index>
377

> <i_lp_mmshare_version>
43012

> <i_f3d_flags>
0

> <s_epik_input>
W0NIM11bQ0gyXVtOSF1DKD1PKVtDSDJdbjFjKD1PKWMoQyNOKVtjSF1uKGMxPU8pW0NIXTJbQ0gyXVtDSDJdMg==

> <s_epik_cmdline>
J2VwaWtfcHl0aG9uJywgJy1waCcsICc3LjAnLCAnLXRuJywgJzgnLCAnLW1hJywgJzIwMCcsICctbWV0YWxfYmluZGluZycsICctaW1hZScsICc8aW5maWxlLm1hZT4nLCAnLW9tYWUnLCAnPG91dGZpbGUubWFlPic=

> <r_lp_tautomer_probability>
1

> <r_epik_Ionization_Penalty>
1.81858e-08

> <r_epik_Ionization_Penalty_Charging>
8.22213e-11

> <r_epik_Ionization_Penalty_Neutral>
1.81036e-08

> <r_epik_State_Penalty>
-0

> <r_epik_Charging_Adjusted_Penalty>
8.22213e-11

> <i_epik_Tot_Q>
0

> <i_epik_Tot_abs_Q>
0

> <r_epik_Metal_State_Penalty>
-0

> <b_epik_Metal_Only>
0

> <s_lp_Force_Field>
OPLS_2005

> <r_lp_Energy>
28.0616

> <b_lp_Chiralities_Consistent>
1

> <s_lp_Variant>
AV-unprocessed.smi:377-1

> <Gold.Version>
5.8.1

> <Gold.Id.Protein>
6NUR|6NUR_protein|mol2

> <Gold.PLP.Fitness>
44.3260

> <Gold.PLP.PLP>
-35.9210

> <Gold.PLP.part.hbond>
-3.0000

> <Gold.PLP.part.metal>
0.0000

> <Gold.PLP.part.buried>
-3.8482

> <Gold.PLP.part.nonpolar>
-30.0902

> <Gold.PLP.part.repulsive>
0.4949

> <Gold.PLP.ligand.clash>
0.0000

> <Gold.PLP.ligand.torsion>
0.3909

> <Gold.PLP.Chemscore.Hbond>
2.9920

> <Gold.PLP.Chemscore.CHOScore>
0.0000

> <Gold.PLP.Chemscore.Metal>
0.0000

> <Gold.Chemscore.Hbonds>
donor molecule, donor type, donor heavy atom, donor atom, acceptor molecule, acceptor atom, score
      L1  H     3    25       P1  8028  1.00
      P1  H  7989  7998       L1     9  1.00
      P1  H 10752 10763       L1    12  0.96

> <Gold.PLP.Chemscore.Internal.Correction>
0.2107

> <Gold.Rescore>
     Score         DG    S(hbond)    S(metal)    S(lipo)     H(rot)  DE(clash)    DE(int)     intcor
     10.78     -15.94       2.53        0.00      58.60       1.89       1.49       3.67       ----

> <Gold.Chemscore.Fitness>
10.7789

> <Gold.Chemscore.DG>
-15.9381

> <Gold.Chemscore.ZeroCoef>
-5.4800

> <Gold.Chemscore.Hbond>
2.5275

> <Gold.Chemscore.Metal>
0.0000

> <Gold.Chemscore.Lipo>
58.6047

> <Gold.Chemscore.Internal_Hbond>
0.0000

> <Gold.Chemscore.DEClash>
1.4928

> <Gold.Chemscore.DEInternal>
3.6664

> <Gold.Chemscore.Rot>
1.8908

> <Gold.Chemscore.Internal.Correction>
   9.000000E+99

> <Gold.Chemscore.Hbonds>
donor molecule, donor type, donor heavy atom, donor atom, acceptor molecule, acceptor atom, score
      L1  H     3    25       P1  8028  0.94
      P1  H  7989  7998       L1     9  0.50
      P1  H 10752 10763       L1    12  0.92

> <Gold.Chemscore.Hbond.Weighted>
-8.4419

> <Gold.Chemscore.Metal.Weighted>
-0.0000

> <Gold.Chemscore.Lipo.Weighted>
-6.8567

> <Gold.Chemscore.Internal_Hbond.Weighted>
0.0000

> <Gold.Chemscore.DEClash.Weighted>
1.4928

> <Gold.Chemscore.DEInternal.Weighted>
3.6664

> <Gold.Chemscore.Rot.Weighted>
4.8406

> <Gold.Chemscore.Internal.Correction.Weighted>
   9.000000E+99

> <Gold.Protein.RotatedTorsions>
[ 6907 6896 6895 6894 ] final  135.58 input  -60.11 | X-H torsion
[ 7974 7965 7964 7962 ] final   14.93 input  175.53 | X-H torsion
[ 8008 7997 7996 7995 ] final   78.54 input   59.86 | X-H torsion
[ 10167 10162 10161 10158 ] final -135.04 input  -65.29 | X-H torsion
[ 10718 10713 10712 10709 ] final  -17.75 input   66.30 | X-H torsion
[ 10763 10752 10751 10750 ] final   96.58 input  -60.55 | X-H torsion
[ 11005 11000 10999 10996 ] final   84.16 input  -57.11 | X-H torsion

> <Gold.Protein.ActiveResidues>
 VAL166  LYS551  ARG553  GLY616  TRP617  ASP618  TYR619  PRO620  LYS621  CYS622 
 ASP623  PHE694  ASN695  SER759  ASP760  ASP761  ALA762  ILE779  LEU786  VAL792 
 PHE793  MET794  SER795  GLU796  ALA797  LYS798  CYS799  TRP800  GLU811  SER814 

> <Gold.Protein.RotatedAtoms>
  152.2988  133.5634  159.5604 H   0  0  0  0  0  0  0  0  0  0  0  0  # atno 6907 bound_to 6896
  150.7268  134.0321  159.3746 H   0  0  0  0  0  0  0  0  0  0  0  0  # atno 6908 bound_to 6896
  151.8222  135.0648  160.0477 H   0  0  0  0  0  0  0  0  0  0  0  0  # atno 6909 bound_to 6896
  146.2292  139.8968  142.8545 H   0  0  0  0  0  0  0  0  0  0  0  0  # atno 7974 bound_to 7965
  155.8571  140.3455  155.5732 H   0  0  0  0  0  0  0  0  0  0  0  0  # atno 8008 bound_to 7997
  155.7974  140.0880  157.1995 H   0  0  0  0  0  0  0  0  0  0  0  0  # atno 8009 bound_to 7997
  154.4010  140.1472  156.3221 H   0  0  0  0  0  0  0  0  0  0  0  0  # atno 8010 bound_to 7997
  139.8820  143.6828  152.2626 H   0  0  0  0  0  0  0  0  0  0  0  0  # atno 10167 bound_to 10162
  156.5692  130.4745  149.6371 H   0  0  0  0  0  0  0  0  0  0  0  0  # atno 10718 bound_to 10713
  153.2667  135.4213  155.0947 H   0  0  0  0  0  0  0  0  0  0  0  0  # atno 10763 bound_to 10752
  154.8440  135.3462  154.6302 H   0  0  0  0  0  0  0  0  0  0  0  0  # atno 10764 bound_to 10752
  153.6722  135.7043  153.5201 H   0  0  0  0  0  0  0  0  0  0  0  0  # atno 10765 bound_to 10752
  139.9009  134.8196  156.2407 H   0  0  0  0  0  0  0  0  0  0  0  0  # atno 11005 bound_to 11000
  145.2362  140.9992  143.3962 LP  0  0  0  0  0  0  0  0  0  0  0  0  # atno 17320 bound_to 7965
  144.9489  139.4105  143.6412 LP  0  0  0  0  0  0  0  0  0  0  0  0  # atno 17321 bound_to 7965
  139.7188  144.7607  151.0990 LP  0  0  0  0  0  0  0  0  0  0  0  0  # atno 17342 bound_to 10162
  140.7743  143.5235  150.9508 LP  0  0  0  0  0  0  0  0  0  0  0  0  # atno 17343 bound_to 10162
  156.2730  130.7028  151.1830 LP  0  0  0  0  0  0  0  0  0  0  0  0  # atno 17370 bound_to 10713
  157.7352  131.0574  150.5483 LP  0  0  0  0  0  0  0  0  0  0  0  0  # atno 17371 bound_to 10713
  141.0286  133.7001  156.1391 LP  0  0  0  0  0  0  0  0  0  0  0  0  # atno 17394 bound_to 11000
  140.7129  134.4442  157.5580 LP  0  0  0  0  0  0  0  0  0  0  0  0  # atno 17395 bound_to 11000

$$$$
