AV-unprocessed.smi:2424|AV-procd|sdf|9564|dock3
  -GOLD-   2272013193D 1   1.00000     0.00000
 Structure written by MMmdl.
 50 51  0  0  0  0  0  0  0  0  1 V2000
  145.3465  138.8970  156.9981 C   0  0  0  0  0  0  0  0  0  0  0  0
  146.6224  138.0756  156.7454 C   0  0  0  0  0  0  0  0  0  0  0  0
  147.4806  138.4715  155.5191 C   0  0  0  0  0  0  0  0  0  0  0  0
  148.7136  137.5228  155.5041 C   0  0  0  0  0  0  0  0  0  0  0  0
  149.9062  137.9638  154.6344 C   0  0  0  0  0  0  0  0  0  0  0  0
  146.7365  138.6305  154.1575 C   0  0  2  0  0  0  0  0  0  0  0  0
  146.9067  137.5203  153.2259 N   0  0  0  0  0  0  0  0  0  0  0  0
  145.9082  136.7489  152.7756 C   0  0  0  0  0  0  0  0  0  0  0  0
  144.7339  136.9124  153.1035 O   0  0  0  0  0  0  0  0  0  0  0  0
  146.3758  135.7965  151.9483 N   0  0  0  0  0  0  0  0  0  0  0  0
  145.6769  134.7868  151.2722 C   0  0  0  0  0  0  0  0  0  0  0  0
  144.5986  135.1467  150.5545 C   0  0  0  0  0  0  0  0  0  0  0  0
  143.8433  134.2101  149.8452 N   0  0  0  0  0  0  0  0  0  0  0  0
  144.1131  132.8855  149.8105 C   0  0  0  0  0  0  0  0  0  0  0  0
  143.4025  132.1219  149.1591 O   0  0  0  0  0  0  0  0  0  0  0  0
  145.2852  132.4579  150.5915 C   0  0  0  0  0  0  0  0  0  0  0  0
  145.6360  130.9805  150.6001 C   0  0  0  0  0  0  0  0  0  0  0  0
  146.0158  133.3671  151.2783 C   0  0  0  0  0  0  0  0  0  0  0  0
  147.6334  139.8242  153.8157 C   0  0  1  0  0  0  0  0  0  0  0  0
  147.0537  140.9544  152.9745 C   0  0  0  0  0  0  0  0  0  0  0  0
  147.7695  139.9896  155.3381 C   0  0  2  0  0  0  0  0  0  0  0  0
  149.0627  140.3788  155.7743 O   0  0  0  0  0  0  0  0  0  0  0  0
  149.5974  141.4750  155.0538 C   0  0  0  0  0  0  0  0  0  0  0  0
  143.0491  134.5576  149.3276 H   0  0  0  0  0  0  0  0  0  0  0  0
  144.8818  138.5918  157.9358 H   0  0  0  0  0  0  0  0  0  0  0  0
  144.6049  138.7419  156.2150 H   0  0  0  0  0  0  0  0  0  0  0  0
  145.5499  139.9645  157.0723 H   0  0  0  0  0  0  0  0  0  0  0  0
  147.2302  138.1475  157.6476 H   0  0  0  0  0  0  0  0  0  0  0  0
  146.3259  137.0283  156.6714 H   0  0  0  0  0  0  0  0  0  0  0  0
  149.0842  137.3824  156.5199 H   0  0  0  0  0  0  0  0  0  0  0  0
  148.4186  136.5272  155.1727 H   0  0  0  0  0  0  0  0  0  0  0  0
  150.6719  137.1880  154.6242 H   0  0  0  0  0  0  0  0  0  0  0  0
  150.3783  138.8673  155.0196 H   0  0  0  0  0  0  0  0  0  0  0  0
  149.6220  138.1497  153.6001 H   0  0  0  0  0  0  0  0  0  0  0  0
  145.7003  138.9597  154.2467 H   0  0  0  0  0  0  0  0  0  0  0  0
  147.8462  137.3239  152.9130 H   0  0  0  0  0  0  0  0  0  0  0  0
  147.3729  135.7955  151.7911 H   0  0  0  0  0  0  0  0  0  0  0  0
  144.2365  136.1605  150.4640 H   0  0  0  0  0  0  0  0  0  0  0  0
  146.5196  130.7836  151.2075 H   0  0  0  0  0  0  0  0  0  0  0  0
  145.8394  130.6317  149.5871 H   0  0  0  0  0  0  0  0  0  0  0  0
  144.8107  130.3949  151.0062 H   0  0  0  0  0  0  0  0  0  0  0  0
  146.8605  133.0011  151.8380 H   0  0  0  0  0  0  0  0  0  0  0  0
  148.5804  139.4802  153.3961 H   0  0  0  0  0  0  0  0  0  0  0  0
  146.1564  141.3719  153.4320 H   0  0  0  0  0  0  0  0  0  0  0  0
  146.7814  140.6015  151.9799 H   0  0  0  0  0  0  0  0  0  0  0  0
  147.7683  141.7669  152.8479 H   0  0  0  0  0  0  0  0  0  0  0  0
  146.9834  140.6185  155.7600 H   0  0  0  0  0  0  0  0  0  0  0  0
  150.5583  141.7572  155.4836 H   0  0  0  0  0  0  0  0  0  0  0  0
  148.9391  142.3431  155.1047 H   0  0  0  0  0  0  0  0  0  0  0  0
  149.7646  141.2202  154.0080 H   0  0  0  0  0  0  0  0  0  0  0  0
  1  2  1  0  0  0  0
  1 25  1  0  0  0  0
  1 26  1  0  0  0  0
  1 27  1  0  0  0  0
  2  3  1  0  0  0  0
  2 28  1  0  0  0  0
  2 29  1  0  0  0  0
  3 21  1  0  0  0  0
  3  4  1  0  0  0  0
  3  6  1  0  0  0  0
  4  5  1  0  0  0  0
  4 30  1  0  0  0  0
  4 31  1  0  0  0  0
  5 32  1  0  0  0  0
  5 33  1  0  0  0  0
  5 34  1  0  0  0  0
  6  7  1  0  0  0  0
  6 19  1  0  0  0  0
  6 35  1  0  0  0  0
  7  8  1  0  0  0  0
  7 36  1  0  0  0  0
  8  9  2  0  0  0  0
  8 10  1  0  0  0  0
 10 11  1  0  0  0  0
 10 37  1  0  0  0  0
 11 18  1  0  0  0  0
 11 12  2  0  0  0  0
 12 13  1  0  0  0  0
 12 38  1  0  0  0  0
 13 24  1  0  0  0  0
 13 14  1  0  0  0  0
 14 15  2  0  0  0  0
 14 16  1  0  0  0  0
 16 17  1  0  0  0  0
 16 18  2  0  0  0  0
 17 39  1  0  0  0  0
 17 40  1  0  0  0  0
 17 41  1  0  0  0  0
 18 42  1  0  0  0  0
 19 20  1  0  0  0  0
 19 21  1  0  0  0  0
 19 43  1  0  0  0  0
 20 44  1  0  0  0  0
 20 45  1  0  0  0  0
 20 46  1  0  0  0  0
 21 22  1  0  0  0  0
 21 47  1  0  0  0  0
 22 23  1  0  0  0  0
 23 48  1  0  0  0  0
 23 49  1  0  0  0  0
 23 50  1  0  0  0  0
M  END
> <s_m_source_file>
AV-unprocessed.smi

> <i_m_source_file_index>
2424

> <i_lp_mmshare_version>
43012

> <i_f3d_flags>
0

> <s_epik_input>
W0NIM11PW0NAQEhdMVtDQEhdKFtDSDNdKVtDQEBIXShDMShbQ0gyXVtDSDNdKVtDSDJdW0NIM10pW05IXUMoPU8pW05IXWMyW2NIXVtuSF1jKD1PKWMoW0NIM10pW2NIXTI=

> <s_epik_cmdline>
J2VwaWtfcHl0aG9uJywgJy1waCcsICc3LjAnLCAnLXRuJywgJzgnLCAnLW1hJywgJzIwMCcsICctbWV0YWxfYmluZGluZycsICctaW1hZScsICc8aW5maWxlLm1hZT4nLCAnLW9tYWUnLCAnPG91dGZpbGUubWFlPic=

> <r_lp_tautomer_probability>
1

> <r_epik_Ionization_Penalty>
4.7326e-05

> <r_epik_Ionization_Penalty_Charging>
2.70169e-05

> <r_epik_Ionization_Penalty_Neutral>
2.0309e-05

> <r_epik_State_Penalty>
-0

> <r_epik_Charging_Adjusted_Penalty>
2.70169e-05

> <i_epik_Tot_Q>
0

> <i_epik_Tot_abs_Q>
0

> <r_epik_Metal_State_Penalty>
0.0198736

> <b_epik_Metal_Only>
0

> <s_lp_Force_Field>
OPLS_2005

> <r_lp_Energy>
36.5029

> <b_lp_Chiralities_Consistent>
1

> <s_lp_Variant>
AV-unprocessed.smi:2424-6

> <Gold.Version>
5.8.1

> <Gold.Id.Protein>
6NUR|6NUR_protein|mol2

> <Gold.PLP.Fitness>
42.7920

> <Gold.PLP.PLP>
-30.4648

> <Gold.PLP.part.hbond>
-4.2270

> <Gold.PLP.part.metal>
0.0000

> <Gold.PLP.part.buried>
-7.1112

> <Gold.PLP.part.nonpolar>
-21.4299

> <Gold.PLP.part.repulsive>
0.5948

> <Gold.PLP.ligand.clash>
0.0000

> <Gold.PLP.ligand.torsion>
1.1497

> <Gold.PLP.Chemscore.Hbond>
3.6800

> <Gold.PLP.Chemscore.CHOScore>
1.0000

> <Gold.PLP.Chemscore.Metal>
0.0000

> <Gold.Chemscore.Hbonds>
donor molecule, donor type, donor heavy atom, donor atom, acceptor molecule, acceptor atom, score
      L1  H     7    36       P1  7948  0.94
      L1  H    10    37       P1  7948  1.00
      L1  H    13    24       P1 10186  0.67
      P1  H 10785 10796       L1    15  0.98
      L1  C    12    38       P1 10171  1.00

> <Gold.PLP.Chemscore.Internal.Correction>
0.5865

> <Gold.Rescore>
     Score         DG    S(hbond)    S(metal)    S(lipo)     H(rot)  DE(clash)    DE(int)     intcor
     19.36     -22.92       3.80        0.00      74.50       1.55       0.33       3.23       ----

> <Gold.Chemscore.Fitness>
19.3580

> <Gold.Chemscore.DG>
-22.9242

> <Gold.Chemscore.ZeroCoef>
-5.4800

> <Gold.Chemscore.Hbond>
3.8013

> <Gold.Chemscore.Metal>
0.0000

> <Gold.Chemscore.Lipo>
74.5002

> <Gold.Chemscore.Internal_Hbond>
0.0000

> <Gold.Chemscore.DEClash>
0.3319

> <Gold.Chemscore.DEInternal>
3.2343

> <Gold.Chemscore.Rot>
1.5502

> <Gold.Chemscore.Internal.Correction>
   9.000000E+99

> <Gold.Chemscore.Hbonds>
donor molecule, donor type, donor heavy atom, donor atom, acceptor molecule, acceptor atom, score
      L1  H     7    36       P1  7948  0.91
      L1  H    10    37       P1  7948  0.99
      L1  H    13    24       P1 10186  0.65
      P1  H 10785 10796       L1    15  0.86

> <Gold.Chemscore.Hbond.Weighted>
-12.6962

> <Gold.Chemscore.Metal.Weighted>
-0.0000

> <Gold.Chemscore.Lipo.Weighted>
-8.7165

> <Gold.Chemscore.Internal_Hbond.Weighted>
0.0000

> <Gold.Chemscore.DEClash.Weighted>
0.3319

> <Gold.Chemscore.DEInternal.Weighted>
3.2343

> <Gold.Chemscore.Rot.Weighted>
3.9685

> <Gold.Chemscore.Internal.Correction.Weighted>
   9.000000E+99

> <Gold.Protein.RotatedTorsions>
[ 6907 6896 6895 6894 ] final  167.16 input  -60.11 | X-H torsion
[ 7974 7965 7964 7962 ] final  132.62 input  175.53 | X-H torsion
[ 8008 7997 7996 7995 ] final  -56.24 input   59.86 | X-H torsion
[ 10167 10162 10161 10158 ] final   43.25 input  -65.29 | X-H torsion
[ 10718 10713 10712 10709 ] final   92.02 input   66.30 | X-H torsion
[ 10763 10752 10751 10750 ] final  -69.99 input  -60.55 | X-H torsion
[ 11005 11000 10999 10996 ] final -124.25 input  -57.11 | X-H torsion

> <Gold.Protein.ActiveResidues>
 VAL166  LYS551  ARG553  GLY616  TRP617  ASP618  TYR619  PRO620  LYS621  CYS622 
 ASP623  PHE694  ASN695  SER759  ASP760  ASP761  ALA762  ILE779  LEU786  VAL792 
 PHE793  MET794  SER795  GLU796  ALA797  LYS798  CYS799  TRP800  GLU811  SER814 

> <Gold.Protein.RotatedAtoms>
  151.8676  133.3469  159.3724 H   0  0  0  0  0  0  0  0  0  0  0  0  # atno 6907 bound_to 6896
  150.7161  134.5144  159.5632 H   0  0  0  0  0  0  0  0  0  0  0  0  # atno 6908 bound_to 6896
  152.2670  134.7973  160.0472 H   0  0  0  0  0  0  0  0  0  0  0  0  # atno 6909 bound_to 6896
  144.9950  139.4368  143.5320 H   0  0  0  0  0  0  0  0  0  0  0  0  # atno 7974 bound_to 7965
  154.4223  140.1134  156.5606 H   0  0  0  0  0  0  0  0  0  0  0  0  # atno 8008 bound_to 7997
  155.6315  140.3495  155.4665 H   0  0  0  0  0  0  0  0  0  0  0  0  # atno 8009 bound_to 7997
  155.9944  140.1186  157.0597 H   0  0  0  0  0  0  0  0  0  0  0  0  # atno 8010 bound_to 7997
  140.3462  144.2407  150.6150 H   0  0  0  0  0  0  0  0  0  0  0  0  # atno 10167 bound_to 10162
  157.6959  131.0428  150.3818 H   0  0  0  0  0  0  0  0  0  0  0  0  # atno 10718 bound_to 10713
  154.4113  135.6008  153.5954 H   0  0  0  0  0  0  0  0  0  0  0  0  # atno 10763 bound_to 10752
  152.9790  135.5930  154.4067 H   0  0  0  0  0  0  0  0  0  0  0  0  # atno 10764 bound_to 10752
  154.3879  135.2841  155.2150 H   0  0  0  0  0  0  0  0  0  0  0  0  # atno 10765 bound_to 10752
  140.9856  134.0612  157.3715 H   0  0  0  0  0  0  0  0  0  0  0  0  # atno 11005 bound_to 11000
  146.3440  139.9304  142.8754 LP  0  0  0  0  0  0  0  0  0  0  0  0  # atno 17320 bound_to 7965
  145.2232  140.9944  143.4033 LP  0  0  0  0  0  0  0  0  0  0  0  0  # atno 17321 bound_to 7965
  140.5262  143.2254  151.8311 LP  0  0  0  0  0  0  0  0  0  0  0  0  # atno 17342 bound_to 10162
  139.4833  144.4777  151.9346 LP  0  0  0  0  0  0  0  0  0  0  0  0  # atno 17343 bound_to 10162
  156.4231  130.3957  149.6811 LP  0  0  0  0  0  0  0  0  0  0  0  0  # atno 17370 bound_to 10713
  156.4055  130.7696  151.2706 LP  0  0  0  0  0  0  0  0  0  0  0  0  # atno 17371 bound_to 10713
  139.8969  135.0148  156.7074 LP  0  0  0  0  0  0  0  0  0  0  0  0  # atno 17394 bound_to 11000
  140.7120  133.9215  155.8090 LP  0  0  0  0  0  0  0  0  0  0  0  0  # atno 17395 bound_to 11000

$$$$
