AV-unprocessed.smi:707|AV-procd|sdf|3456|dock3
  -GOLD-   22720 0443D 1   1.00000     0.00000
 Structure written by MMmdl.
 44 45  0  0  0  0  0  0  0  0  1 V2000
  150.7540  141.9136  157.7698 C   0  0  0  0  0  0  0  0  0  0  0  0
  150.7375  140.9171  156.6563 C   0  0  0  0  0  0  0  0  0  0  0  0
  151.6163  140.9138  155.6468 N   0  0  0  0  0  0  0  0  0  0  0  0
  151.2564  139.8482  154.8453 N   0  0  0  0  0  0  0  0  0  0  0  0
  150.1965  139.3150  155.4520 C   0  0  0  0  0  0  0  0  0  0  0  0
  149.8211  139.9307  156.5835 N   0  0  0  0  0  0  0  0  0  0  0  0
  148.7176  139.6033  157.4665 C   0  0  0  0  0  0  0  0  0  0  0  0
  148.2238  138.1645  157.2408 C   0  0  0  0  0  0  0  0  0  0  0  0
  147.7998  137.5396  158.4878 N   0  0  0  0  0  0  0  0  0  0  0  0
  148.4499  136.5451  159.1114 C   0  0  0  0  0  0  0  0  0  0  0  0
  149.4948  136.0483  158.6917 O   0  0  0  0  0  0  0  0  0  0  0  0
  147.8300  136.0406  160.4115 C   0  0  0  0  0  0  0  0  0  0  0  0
  147.6351  137.1505  161.2761 O   0  0  0  0  0  0  0  0  0  0  0  0
  147.4447  136.8173  162.6472 C   0  0  1  0  0  0  0  0  0  0  0  0
  146.7545  138.0147  163.3242 C   0  0  0  0  0  0  0  0  0  0  0  0
  145.3159  138.2067  162.8149 C   0  0  0  0  0  0  0  0  0  0  0  0
  144.4858  136.9238  162.9818 C   0  0  0  0  0  0  0  0  0  0  0  0
  145.1586  135.7203  162.2942 C   0  0  2  0  0  0  0  0  0  0  0  0
  144.3313  134.4388  162.4685 C   0  0  0  0  0  0  0  0  0  0  0  0
  146.5965  135.5378  162.8194 C   0  0  0  0  0  0  0  0  0  0  0  0
  151.5405  142.6518  157.6101 H   0  0  0  0  0  0  0  0  0  0  0  0
  150.9392  141.4122  158.7197 H   0  0  0  0  0  0  0  0  0  0  0  0
  149.7976  142.4338  157.8250 H   0  0  0  0  0  0  0  0  0  0  0  0
  149.6783  138.4520  155.0594 H   0  0  0  0  0  0  0  0  0  0  0  0
  149.0541  139.7381  158.4952 H   0  0  0  0  0  0  0  0  0  0  0  0
  147.9097  140.3175  157.3055 H   0  0  0  0  0  0  0  0  0  0  0  0
  147.3739  138.1643  156.5574 H   0  0  0  0  0  0  0  0  0  0  0  0
  149.0009  137.5613  156.7682 H   0  0  0  0  0  0  0  0  0  0  0  0
  146.9461  137.8813  158.9051 H   0  0  0  0  0  0  0  0  0  0  0  0
  146.8874  135.5408  160.1892 H   0  0  0  0  0  0  0  0  0  0  0  0
  148.4975  135.3083  160.8678 H   0  0  0  0  0  0  0  0  0  0  0  0
  148.4193  136.6763  163.1175 H   0  0  0  0  0  0  0  0  0  0  0  0
  146.7348  137.8569  164.4033 H   0  0  0  0  0  0  0  0  0  0  0  0
  147.3335  138.9235  163.1580 H   0  0  0  0  0  0  0  0  0  0  0  0
  144.8401  139.0286  163.3500 H   0  0  0  0  0  0  0  0  0  0  0  0
  145.3344  138.4953  161.7632 H   0  0  0  0  0  0  0  0  0  0  0  0
  144.3523  136.7141  164.0440 H   0  0  0  0  0  0  0  0  0  0  0  0
  143.4877  137.0791  162.5706 H   0  0  0  0  0  0  0  0  0  0  0  0
  145.2136  135.9299  161.2249 H   0  0  0  0  0  0  0  0  0  0  0  0
  144.2359  134.1679  163.5203 H   0  0  0  0  0  0  0  0  0  0  0  0
  144.7950  133.5997  161.9489 H   0  0  0  0  0  0  0  0  0  0  0  0
  143.3266  134.5618  162.0633 H   0  0  0  0  0  0  0  0  0  0  0  0
  147.0716  134.6883  162.3301 H   0  0  0  0  0  0  0  0  0  0  0  0
  146.5594  135.2810  163.8790 H   0  0  0  0  0  0  0  0  0  0  0  0
  1  2  1  0  0  0  0
  1 21  1  0  0  0  0
  1 22  1  0  0  0  0
  1 23  1  0  0  0  0
  2  6  1  0  0  0  0
  2  3  2  0  0  0  0
  3  4  1  0  0  0  0
  4  5  2  0  0  0  0
  5  6  1  0  0  0  0
  5 24  1  0  0  0  0
  6  7  1  0  0  0  0
  7  8  1  0  0  0  0
  7 25  1  0  0  0  0
  7 26  1  0  0  0  0
  8  9  1  0  0  0  0
  8 27  1  0  0  0  0
  8 28  1  0  0  0  0
  9 10  1  0  0  0  0
  9 29  1  0  0  0  0
 10 11  2  0  0  0  0
 10 12  1  0  0  0  0
 12 13  1  0  0  0  0
 12 30  1  0  0  0  0
 12 31  1  0  0  0  0
 13 14  1  0  0  0  0
 14 20  1  0  0  0  0
 14 15  1  0  0  0  0
 14 32  1  0  0  0  0
 15 16  1  0  0  0  0
 15 33  1  0  0  0  0
 15 34  1  0  0  0  0
 16 17  1  0  0  0  0
 16 35  1  0  0  0  0
 16 36  1  0  0  0  0
 17 18  1  0  0  0  0
 17 37  1  0  0  0  0
 17 38  1  0  0  0  0
 18 19  1  0  0  0  0
 18 20  1  0  0  0  0
 18 39  1  0  0  0  0
 19 40  1  0  0  0  0
 19 41  1  0  0  0  0
 19 42  1  0  0  0  0
 20 43  1  0  0  0  0
 20 44  1  0  0  0  0
M  END
> <s_m_source_file>
AV-unprocessed.smi

> <i_m_source_file_index>
707

> <i_lp_mmshare_version>
43012

> <i_f3d_flags>
0

> <s_epik_input>
W0NIM11jMW5uW2NIXW4xW0NIMl1bQ0gyXVtOSF1DKD1PKVtDSDJdT1tDQEBIXTJbQ0gyXVtDSDJdW0NIMl1bQ0BASF0oW0NIM10pW0NIMl0y

> <s_epik_cmdline>
J2VwaWtfcHl0aG9uJywgJy1waCcsICc3LjAnLCAnLXRuJywgJzgnLCAnLW1hJywgJzIwMCcsICctbWV0YWxfYmluZGluZycsICctaW1hZScsICc8aW5maWxlLm1hZT4nLCAnLW9tYWUnLCAnPG91dGZpbGUubWFlPic=

> <r_lp_tautomer_probability>
1

> <r_epik_Ionization_Penalty>
0.000271783

> <r_epik_Ionization_Penalty_Charging>
0

> <r_epik_Ionization_Penalty_Neutral>
0.000271783

> <r_epik_State_Penalty>
-0

> <r_epik_Charging_Adjusted_Penalty>
0

> <i_epik_Tot_Q>
0

> <i_epik_Tot_abs_Q>
0

> <r_epik_Metal_State_Penalty>
-0

> <b_epik_Metal_Only>
0

> <s_lp_Force_Field>
OPLS_2005

> <r_lp_Energy>
13.3948

> <b_lp_Chiralities_Consistent>
1

> <s_lp_Variant>
AV-unprocessed.smi:707-4

> <Gold.Version>
5.8.1

> <Gold.Id.Protein>
6NUR|6NUR_protein|mol2

> <Gold.PLP.Fitness>
41.3082

> <Gold.PLP.PLP>
-32.9384

> <Gold.PLP.part.hbond>
-4.7934

> <Gold.PLP.part.metal>
0.0000

> <Gold.PLP.part.buried>
-2.7515

> <Gold.PLP.part.nonpolar>
-25.2835

> <Gold.PLP.part.repulsive>
0.1982

> <Gold.PLP.ligand.clash>
0.0000

> <Gold.PLP.ligand.torsion>
0.8586

> <Gold.PLP.Chemscore.Hbond>
3.3300

> <Gold.PLP.Chemscore.CHOScore>
0.0000

> <Gold.PLP.Chemscore.Metal>
0.0000

> <Gold.Chemscore.Hbonds>
donor molecule, donor type, donor heavy atom, donor atom, acceptor molecule, acceptor atom, score
      P1  H  6896  6908       L1    11  0.94
      P1  H  6931  6943       L1    13  0.24
      P1  H  6934  6947       L1    13  0.86
      P1  H  7989  7998       L1     4  0.35

> <Gold.PLP.Chemscore.Internal.Correction>
0.0970

> <Gold.Rescore>
     Score         DG    S(hbond)    S(metal)    S(lipo)     H(rot)  DE(clash)    DE(int)     intcor
     12.16     -14.26       2.39        0.00      59.74       2.42       1.17       0.92       ----

> <Gold.Chemscore.Fitness>
12.1624

> <Gold.Chemscore.DG>
-14.2566

> <Gold.Chemscore.ZeroCoef>
-5.4800

> <Gold.Chemscore.Hbond>
2.3893

> <Gold.Chemscore.Metal>
0.0000

> <Gold.Chemscore.Lipo>
59.7365

> <Gold.Chemscore.Internal_Hbond>
0.0000

> <Gold.Chemscore.DEClash>
1.1723

> <Gold.Chemscore.DEInternal>
0.9219

> <Gold.Chemscore.Rot>
2.4191

> <Gold.Chemscore.Internal.Correction>
   9.000000E+99

> <Gold.Chemscore.Hbonds>
donor molecule, donor type, donor heavy atom, donor atom, acceptor molecule, acceptor atom, score
      P1  H  6896  6908       L1    11  0.90
      P1  H  6934  6947       L1    13  0.66
      P1  H  7989  7998       L1     4  0.01

> <Gold.Chemscore.Hbond.Weighted>
-7.9804

> <Gold.Chemscore.Metal.Weighted>
-0.0000

> <Gold.Chemscore.Lipo.Weighted>
-6.9892

> <Gold.Chemscore.Internal_Hbond.Weighted>
0.0000

> <Gold.Chemscore.DEClash.Weighted>
1.1723

> <Gold.Chemscore.DEInternal.Weighted>
0.9219

> <Gold.Chemscore.Rot.Weighted>
6.1929

> <Gold.Chemscore.Internal.Correction.Weighted>
   9.000000E+99

> <Gold.Protein.RotatedTorsions>
[ 6907 6896 6895 6894 ] final -168.98 input  -60.11 | X-H torsion
[ 7974 7965 7964 7962 ] final  -11.44 input  175.53 | X-H torsion
[ 8008 7997 7996 7995 ] final  -63.60 input   59.86 | X-H torsion
[ 10167 10162 10161 10158 ] final -126.64 input  -65.29 | X-H torsion
[ 10718 10713 10712 10709 ] final -173.80 input   66.30 | X-H torsion
[ 10763 10752 10751 10750 ] final    6.68 input  -60.55 | X-H torsion
[ 11005 11000 10999 10996 ] final  -51.22 input  -57.11 | X-H torsion

> <Gold.Protein.ActiveResidues>
 VAL166  LYS551  ARG553  GLY616  TRP617  ASP618  TYR619  PRO620  LYS621  CYS622 
 ASP623  PHE694  ASN695  SER759  ASP760  ASP761  ALA762  ILE779  LEU786  VAL792 
 PHE793  MET794  SER795  GLU796  ALA797  LYS798  CYS799  TRP800  GLU811  SER814 

> <Gold.Protein.RotatedAtoms>
  151.4843  133.3539  159.2842 H   0  0  0  0  0  0  0  0  0  0  0  0  # atno 6907 bound_to 6896
  150.8876  134.8278  159.7281 H   0  0  0  0  0  0  0  0  0  0  0  0  # atno 6908 bound_to 6896
  152.4803  134.4749  159.9699 H   0  0  0  0  0  0  0  0  0  0  0  0  # atno 6909 bound_to 6896
  146.2187  140.2911  142.8368 H   0  0  0  0  0  0  0  0  0  0  0  0  # atno 7974 bound_to 7965
  154.4563  140.0971  156.6767 H   0  0  0  0  0  0  0  0  0  0  0  0  # atno 8008 bound_to 7997
  155.5127  140.3477  155.4373 H   0  0  0  0  0  0  0  0  0  0  0  0  # atno 8009 bound_to 7997
  156.0784  140.1367  156.9731 H   0  0  0  0  0  0  0  0  0  0  0  0  # atno 8010 bound_to 7997
  139.9693  143.5863  152.2418 H   0  0  0  0  0  0  0  0  0  0  0  0  # atno 10167 bound_to 10162
  156.7756  130.9465  151.3120 H   0  0  0  0  0  0  0  0  0  0  0  0  # atno 10718 bound_to 10713
  153.2450  135.6907  153.7742 H   0  0  0  0  0  0  0  0  0  0  0  0  # atno 10763 bound_to 10752
  153.6857  135.3321  155.3190 H   0  0  0  0  0  0  0  0  0  0  0  0  # atno 10764 bound_to 10752
  154.8371  135.4533  154.1385 H   0  0  0  0  0  0  0  0  0  0  0  0  # atno 10765 bound_to 10752
  141.0859  133.6642  156.3846 H   0  0  0  0  0  0  0  0  0  0  0  0  # atno 11005 bound_to 11000
  144.9126  140.7775  143.5798 LP  0  0  0  0  0  0  0  0  0  0  0  0  # atno 17320 bound_to 7965
  145.2843  139.1907  143.4774 LP  0  0  0  0  0  0  0  0  0  0  0  0  # atno 17321 bound_to 7965
  139.6493  144.7660  151.2179 LP  0  0  0  0  0  0  0  0  0  0  0  0  # atno 17342 bound_to 10162
  140.7527  143.6186  150.8535 LP  0  0  0  0  0  0  0  0  0  0  0  0  # atno 17343 bound_to 10162
  157.6670  130.9017  149.9955 LP  0  0  0  0  0  0  0  0  0  0  0  0  # atno 17370 bound_to 10713
  156.1250  130.3645  149.9825 LP  0  0  0  0  0  0  0  0  0  0  0  0  # atno 17371 bound_to 10713
  140.5363  134.6163  157.5366 LP  0  0  0  0  0  0  0  0  0  0  0  0  # atno 17394 bound_to 11000
  139.9678  134.7344  156.0103 LP  0  0  0  0  0  0  0  0  0  0  0  0  # atno 17395 bound_to 11000

$$$$
