AV-unprocessed.smi:533|AV-procd|sdf|2855|dock6
  -GOLD-   2262023343D 1   1.00000     0.00000
 Structure written by MMmdl.
 35 36  0  0  0  0  0  0  0  0  2 V2000
  151.8494  145.3112  159.4420 C   0  0  0  0  0  0  0  0  0  0  0  0
  150.4446  144.7926  159.1220 C   0  0  0  0  0  0  0  0  0  0  0  0
  150.4608  143.8550  158.0162 N   0  0  0  0  0  0  0  0  0  0  0  0
  151.0505  142.6054  157.8707 C   0  0  0  0  0  0  0  0  0  0  0  0
  151.7743  141.9990  158.8127 N   0  0  0  0  0  0  0  0  0  0  0  0
  152.1392  140.8122  158.1923 C   0  0  0  0  0  0  0  0  0  0  0  0
  151.6414  140.7372  156.9284 C   0  0  0  0  0  0  0  0  0  0  0  0
  151.8768  139.5943  156.0193 C   0  0  0  0  0  0  0  0  0  0  0  0
  151.4136  139.5799  154.8808 O   0  0  0  0  0  0  0  0  0  0  0  0
  152.6429  138.6197  156.6047 N   0  5  0  0  0  0  0  0  0  0  0  0
  153.1629  138.6520  157.8813 C   0  0  0  0  0  0  0  0  0  0  0  0
  153.8428  137.7253  158.3225 O   0  0  0  0  0  0  0  0  0  0  0  0
  152.9235  139.7365  158.6868 N   0  0  0  0  0  0  0  0  0  0  0  0
  153.4405  139.8472  160.0544 C   0  0  0  0  0  0  0  0  0  0  0  0
  150.9162  141.9131  156.7125 N   0  0  0  0  0  0  0  0  0  0  0  0
  150.1813  142.3300  155.5205 C   0  0  0  0  0  0  0  0  0  0  0  0
  149.0987  141.3164  155.1212 C   0  0  0  0  0  0  0  0  0  0  0  0
  148.6735  141.5573  153.7901 O   0  0  0  0  0  0  0  0  0  0  0  0
  147.4376  140.9352  153.4897 C   0  0  0  0  0  0  0  0  0  0  0  0
  151.8206  146.0155  160.2736 H   0  0  0  0  0  0  0  0  0  0  0  0
  152.2839  145.8270  158.5853 H   0  0  0  0  0  0  0  0  0  0  0  0
  152.5179  144.4957  159.7201 H   0  0  0  0  0  0  0  0  0  0  0  0
  150.0177  144.2991  159.9956 H   0  0  0  0  0  0  0  0  0  0  0  0
  149.7861  145.6242  158.8694 H   0  0  0  0  0  0  0  0  0  0  0  0
  149.9551  144.1757  157.2035 H   0  0  0  0  0  0  0  0  0  0  0  0
  154.0205  138.9867  160.3885 H   0  0  0  0  0  0  0  0  0  0  0  0
  152.6137  139.9713  160.7545 H   0  0  0  0  0  0  0  0  0  0  0  0
  154.0835  140.7237  160.1371 H   0  0  0  0  0  0  0  0  0  0  0  0
  149.7454  143.3141  155.6829 H   0  0  0  0  0  0  0  0  0  0  0  0
  150.8852  142.4622  154.6985 H   0  0  0  0  0  0  0  0  0  0  0  0
  149.4934  140.3033  155.2093 H   0  0  0  0  0  0  0  0  0  0  0  0
  148.2486  141.3938  155.8009 H   0  0  0  0  0  0  0  0  0  0  0  0
  147.1626  141.1497  152.4571 H   0  0  0  0  0  0  0  0  0  0  0  0
  146.6413  141.3085  154.1348 H   0  0  0  0  0  0  0  0  0  0  0  0
  147.5032  139.8524  153.6029 H   0  0  0  0  0  0  0  0  0  0  0  0
  1  2  1  0  0  0  0
  1 20  1  0  0  0  0
  1 21  1  0  0  0  0
  1 22  1  0  0  0  0
  2  3  1  0  0  0  0
  2 23  1  0  0  0  0
  2 24  1  0  0  0  0
  3  4  1  0  0  0  0
  3 25  1  0  0  0  0
  4 15  1  0  0  0  0
  4  5  2  0  0  0  0
  5  6  1  0  0  0  0
  6 13  1  0  0  0  0
  6  7  2  0  0  0  0
  7  8  1  0  0  0  0
  7 15  1  0  0  0  0
  8  9  2  0  0  0  0
  8 10  1  0  0  0  0
 10 11  1  0  0  0  0
 11 12  2  0  0  0  0
 11 13  1  0  0  0  0
 13 14  1  0  0  0  0
 14 26  1  0  0  0  0
 14 27  1  0  0  0  0
 14 28  1  0  0  0  0
 15 16  1  0  0  0  0
 16 17  1  0  0  0  0
 16 29  1  0  0  0  0
 16 30  1  0  0  0  0
 17 18  1  0  0  0  0
 17 31  1  0  0  0  0
 17 32  1  0  0  0  0
 18 19  1  0  0  0  0
 19 33  1  0  0  0  0
 19 34  1  0  0  0  0
 19 35  1  0  0  0  0
M  CHG  1  10  -1
M  END
> <s_m_source_file>
AV-unprocessed.smi

> <i_m_source_file_index>
533

> <i_lp_mmshare_version>
43012

> <i_f3d_flags>
0

> <s_epik_input>
W0NIM11bQ0gyXVtOSF1jKG4xKW4oW0NIMl1bQ0gyXU9bQ0gzXSljKGMxMiljKD1PKVtuSF1jKD1PKW4yW0NIM10=

> <s_epik_cmdline>
J2VwaWtfcHl0aG9uJywgJy1waCcsICc3LjAnLCAnLXRuJywgJzgnLCAnLW1hJywgJzIwMCcsICctbWV0YWxfYmluZGluZycsICctaW1hZScsICc8aW5maWxlLm1hZT4nLCAnLW9tYWUnLCAnPG91dGZpbGUubWFlPic=

> <r_lp_tautomer_probability>
1

> <r_epik_Ionization_Penalty>
5.85583

> <r_epik_Ionization_Penalty_Charging>
1.37787e-08

> <r_epik_Ionization_Penalty_Neutral>
5.85583

> <r_epik_State_Penalty>
5.8557

> <r_epik_Charging_Adjusted_Penalty>
5.8557

> <i_epik_Tot_Q>
-1

> <i_epik_Tot_abs_Q>
1

> <r_epik_Metal_State_Penalty>
1.82051

> <b_epik_Metal_Only>
1

> <s_lp_Force_Field>
OPLS_2005

> <r_lp_Energy>
24.2596

> <b_lp_Chiralities_Consistent>
1

> <s_lp_Variant>
AV-unprocessed.smi:533-2

> <Gold.Version>
5.8.1

> <Gold.Id.Protein>
6NUR|6NUR_protein|mol2

> <Gold.PLP.Fitness>
39.9211

> <Gold.PLP.PLP>
-32.3408

> <Gold.PLP.part.hbond>
-3.0714

> <Gold.PLP.part.metal>
0.0000

> <Gold.PLP.part.buried>
-2.6682

> <Gold.PLP.part.nonpolar>
-26.6439

> <Gold.PLP.part.repulsive>
0.2672

> <Gold.PLP.ligand.clash>
0.0000

> <Gold.PLP.ligand.torsion>
0.1467

> <Gold.PLP.Chemscore.Hbond>
2.6240

> <Gold.PLP.Chemscore.CHOScore>
0.0000

> <Gold.PLP.Chemscore.Metal>
0.0000

> <Gold.Chemscore.Hbonds>
donor molecule, donor type, donor heavy atom, donor atom, acceptor molecule, acceptor atom, score
      L1  H     3    25       P1  8028  1.00
      P1  H  7989  7998       L1     9  1.00
      P1  H  8011  8017       L1    18  0.67

> <Gold.PLP.Chemscore.Internal.Correction>
0.0016

> <Gold.Rescore>
     Score         DG    S(hbond)    S(metal)    S(lipo)     H(rot)  DE(clash)    DE(int)     intcor
     13.51     -15.67       2.46        0.00      57.05       1.83       1.85       0.31       ----

> <Gold.Chemscore.Fitness>
13.5059

> <Gold.Chemscore.DG>
-15.6662

> <Gold.Chemscore.ZeroCoef>
-5.4800

> <Gold.Chemscore.Hbond>
2.4571

> <Gold.Chemscore.Metal>
0.0000

> <Gold.Chemscore.Lipo>
57.0512

> <Gold.Chemscore.Internal_Hbond>
0.0000

> <Gold.Chemscore.DEClash>
1.8461

> <Gold.Chemscore.DEInternal>
0.3142

> <Gold.Chemscore.Rot>
1.8342

> <Gold.Chemscore.Internal.Correction>
   9.000000E+99

> <Gold.Chemscore.Hbonds>
donor molecule, donor type, donor heavy atom, donor atom, acceptor molecule, acceptor atom, score
      L1  H     3    25       P1  8028  0.70
      P1  H  7989  7998       L1     9  1.00
      P1  H  8011  8017       L1    18  0.62

> <Gold.Chemscore.Hbond.Weighted>
-8.2068

> <Gold.Chemscore.Metal.Weighted>
-0.0000

> <Gold.Chemscore.Lipo.Weighted>
-6.6750

> <Gold.Chemscore.Internal_Hbond.Weighted>
0.0000

> <Gold.Chemscore.DEClash.Weighted>
1.8461

> <Gold.Chemscore.DEInternal.Weighted>
0.3142

> <Gold.Chemscore.Rot.Weighted>
4.6957

> <Gold.Chemscore.Internal.Correction.Weighted>
   9.000000E+99

> <Gold.Protein.RotatedTorsions>
[ 6907 6896 6895 6894 ] final   11.47 input  -60.11 | X-H torsion
[ 7974 7965 7964 7962 ] final  135.10 input  175.53 | X-H torsion
[ 8008 7997 7996 7995 ] final -125.02 input   59.86 | X-H torsion
[ 10167 10162 10161 10158 ] final -173.15 input  -65.29 | X-H torsion
[ 10718 10713 10712 10709 ] final  117.60 input   66.30 | X-H torsion
[ 10763 10752 10751 10750 ] final   17.92 input  -60.55 | X-H torsion
[ 11005 11000 10999 10996 ] final   46.37 input  -57.11 | X-H torsion

> <Gold.Protein.ActiveResidues>
 VAL166  LYS551  ARG553  GLY616  TRP617  ASP618  TYR619  PRO620  LYS621  CYS622 
 ASP623  PHE694  ASN695  SER759  ASP760  ASP761  ALA762  ILE779  LEU786  VAL792 
 PHE793  MET794  SER795  GLU796  ALA797  LYS798  CYS799  TRP800  GLU811  SER814 

> <Gold.Protein.RotatedAtoms>
  151.7549  135.0824  160.0336 H   0  0  0  0  0  0  0  0  0  0  0  0  # atno 6907 bound_to 6896
  152.3392  133.6042  159.5872 H   0  0  0  0  0  0  0  0  0  0  0  0  # atno 6908 bound_to 6896
  150.7469  133.9665  159.3574 H   0  0  0  0  0  0  0  0  0  0  0  0  # atno 6909 bound_to 6896
  144.9698  139.4618  143.5439 H   0  0  0  0  0  0  0  0  0  0  0  0  # atno 7974 bound_to 7965
  155.2064  140.0417  157.2926 H   0  0  0  0  0  0  0  0  0  0  0  0  # atno 8008 bound_to 7997
  154.6040  140.2459  155.7726 H   0  0  0  0  0  0  0  0  0  0  0  0  # atno 8009 bound_to 7997
  156.2339  140.2928  156.0269 H   0  0  0  0  0  0  0  0  0  0  0  0  # atno 8010 bound_to 7997
  139.5704  144.1655  152.1375 H   0  0  0  0  0  0  0  0  0  0  0  0  # atno 10167 bound_to 10162
  157.6086  131.1039  150.7638 H   0  0  0  0  0  0  0  0  0  0  0  0  # atno 10718 bound_to 10713
  153.1295  135.6737  153.9202 H   0  0  0  0  0  0  0  0  0  0  0  0  # atno 10763 bound_to 10752
  153.8692  135.3072  155.3442 H   0  0  0  0  0  0  0  0  0  0  0  0  # atno 10764 bound_to 10752
  154.7695  135.4947  153.9701 H   0  0  0  0  0  0  0  0  0  0  0  0  # atno 10765 bound_to 10752
  140.1375  134.4626  155.8475 H   0  0  0  0  0  0  0  0  0  0  0  0  # atno 11005 bound_to 11000
  146.3378  139.8902  142.8810 LP  0  0  0  0  0  0  0  0  0  0  0  0  # atno 17320 bound_to 7965
  145.2576  141.0066  143.3845 LP  0  0  0  0  0  0  0  0  0  0  0  0  # atno 17321 bound_to 7965
  140.1187  144.5393  150.6877 LP  0  0  0  0  0  0  0  0  0  0  0  0  # atno 17342 bound_to 10162
  140.6988  143.2421  151.4923 LP  0  0  0  0  0  0  0  0  0  0  0  0  # atno 17343 bound_to 10162
  156.8020  130.4924  149.5368 LP  0  0  0  0  0  0  0  0  0  0  0  0  # atno 17370 bound_to 10713
  156.1180  130.6089  151.0150 LP  0  0  0  0  0  0  0  0  0  0  0  0  # atno 17371 bound_to 10713
  141.2180  133.6820  156.7184 LP  0  0  0  0  0  0  0  0  0  0  0  0  # atno 17394 bound_to 11000
  140.2764  134.8351  157.3894 LP  0  0  0  0  0  0  0  0  0  0  0  0  # atno 17395 bound_to 11000

$$$$
