AV-unprocessed.smi:3250|AV-procd|sdf|12425|dock5
  -GOLD-   2272018313D 1   1.00000     0.00000
 Structure written by MMmdl.
 39 40  0  0  0  0  0  0  0  0  2 V2000
  147.3019  136.9425  156.2656 C   0  0  0  0  0  0  0  0  0  0  0  0
  147.9044  136.4929  154.9266 C   0  0  0  0  0  0  0  0  0  0  0  0
  148.9040  137.4540  154.3974 N   0  3  1  0  0  0  0  0  0  0  0  0
  148.3132  138.7866  154.1278 C   0  0  0  0  0  0  0  0  0  0  0  0
  149.3693  139.7385  153.5431 C   0  0  0  0  0  0  0  0  0  0  0  0
  150.4765  139.8232  154.4316 O   0  0  0  0  0  0  0  0  0  0  0  0
  151.1183  138.5661  154.6113 C   0  0  1  0  0  0  0  0  0  0  0  0
  152.3645  138.7972  155.4852 C   0  0  0  0  0  0  0  0  0  0  0  0
  152.0351  139.0479  156.8830 N   0  0  0  0  0  0  0  0  0  0  0  0
  151.9304  140.3034  157.4547 C   0  0  0  0  0  0  0  0  0  0  0  0
  151.2385  141.2002  156.7493 N   0  0  0  0  0  0  0  0  0  0  0  0
  151.1107  142.4345  157.2839 C   0  0  0  0  0  0  0  0  0  0  0  0
  151.6768  142.7661  158.5311 C   0  0  0  0  0  0  0  0  0  0  0  0
  152.3871  141.7434  159.1911 C   0  0  0  0  0  0  0  0  0  0  0  0
  152.9659  141.9975  160.4170 O   0  0  0  0  0  0  0  0  0  0  0  0
  153.7172  140.9565  161.0322 C   0  0  0  0  0  0  0  0  0  0  0  0
  152.5091  140.5087  158.6431 N   0  0  0  0  0  0  0  0  0  0  0  0
  150.1120  137.5858  155.2489 C   0  0  0  0  0  0  0  0  0  0  0  0
  146.6575  136.1640  156.6746 H   0  0  0  0  0  0  0  0  0  0  0  0
  146.6936  137.8404  156.1605 H   0  0  0  0  0  0  0  0  0  0  0  0
  148.0810  137.1454  157.0009 H   0  0  0  0  0  0  0  0  0  0  0  0
  148.3913  135.5300  155.0862 H   0  0  0  0  0  0  0  0  0  0  0  0
  147.1189  136.3240  154.1887 H   0  0  0  0  0  0  0  0  0  0  0  0
  147.4824  138.6893  153.4279 H   0  0  0  0  0  0  0  0  0  0  0  0
  147.9091  139.2010  155.0527 H   0  0  0  0  0  0  0  0  0  0  0  0
  149.6995  139.4002  152.5595 H   0  0  0  0  0  0  0  0  0  0  0  0
  148.9455  140.7341  153.4106 H   0  0  0  0  0  0  0  0  0  0  0  0
  151.4258  138.1921  153.6333 H   0  0  0  0  0  0  0  0  0  0  0  0
  153.0252  137.9310  155.4292 H   0  0  0  0  0  0  0  0  0  0  0  0
  152.9370  139.6435  155.1051 H   0  0  0  0  0  0  0  0  0  0  0  0
  151.9357  138.2537  157.4985 H   0  0  0  0  0  0  0  0  0  0  0  0
  150.5511  143.1615  156.7141 H   0  0  0  0  0  0  0  0  0  0  0  0
  151.5720  143.7528  158.9576 H   0  0  0  0  0  0  0  0  0  0  0  0
  154.1075  141.3083  161.9872 H   0  0  0  0  0  0  0  0  0  0  0  0
  154.5678  140.6598  160.4165 H   0  0  0  0  0  0  0  0  0  0  0  0
  153.0971  140.0810  161.2300 H   0  0  0  0  0  0  0  0  0  0  0  0
  149.8247  137.9329  156.2428 H   0  0  0  0  0  0  0  0  0  0  0  0
  150.5863  136.6130  155.3746 H   0  0  0  0  0  0  0  0  0  0  0  0
  149.2098  137.0935  153.5046 H   0  0  0  0  0  0  0  0  0  0  0  0
  1  2  1  0  0  0  0
  1 19  1  0  0  0  0
  1 20  1  0  0  0  0
  1 21  1  0  0  0  0
  2  3  1  0  0  0  0
  2 22  1  0  0  0  0
  2 23  1  0  0  0  0
  3 18  1  0  0  0  0
  3  4  1  0  0  0  0
  3 39  1  0  0  0  0
  4  5  1  0  0  0  0
  4 24  1  0  0  0  0
  4 25  1  0  0  0  0
  5  6  1  0  0  0  0
  5 26  1  0  0  0  0
  5 27  1  0  0  0  0
  6  7  1  0  0  0  0
  7  8  1  0  0  0  0
  7 18  1  0  0  0  0
  7 28  1  0  0  0  0
  8  9  1  0  0  0  0
  8 29  1  0  0  0  0
  8 30  1  0  0  0  0
  9 10  1  0  0  0  0
  9 31  1  0  0  0  0
 10 17  1  0  0  0  0
 10 11  2  0  0  0  0
 11 12  1  0  0  0  0
 12 13  2  0  0  0  0
 12 32  1  0  0  0  0
 13 14  1  0  0  0  0
 13 33  1  0  0  0  0
 14 15  1  0  0  0  0
 14 17  2  0  0  0  0
 15 16  1  0  0  0  0
 16 34  1  0  0  0  0
 16 35  1  0  0  0  0
 16 36  1  0  0  0  0
 18 37  1  0  0  0  0
 18 38  1  0  0  0  0
M  CHG  1   3   1
M  END
> <s_m_source_file>
AV-unprocessed.smi

> <i_m_source_file_index>
3250

> <i_lp_mmshare_version>
43012

> <i_f3d_flags>
0

> <s_epik_input>
W0NIM11bQ0gyXU4xW0NIMl1bQ0gyXU9bQ0BIXShbQ0gyXTEpW0NIMl1bTkhdYzJuW2NIXVtjSF1jKG4yKU9bQ0gzXQ==

> <s_epik_cmdline>
J2VwaWtfcHl0aG9uJywgJy1waCcsICc3LjAnLCAnLXRuJywgJzgnLCAnLW1hJywgJzIwMCcsICctbWV0YWxfYmluZGluZycsICctaW1hZScsICc8aW5maWxlLm1hZT4nLCAnLW9tYWUnLCAnPG91dGZpbGUubWFlPic=

> <r_lp_tautomer_probability>
1

> <r_epik_Ionization_Penalty>
0.19684

> <r_epik_Ionization_Penalty_Charging>
0.178504

> <r_epik_Ionization_Penalty_Neutral>
0.0183356

> <r_epik_State_Penalty>
0.162939

> <r_epik_Charging_Adjusted_Penalty>
0.341443

> <i_epik_Tot_Q>
1

> <i_epik_Tot_abs_Q>
1

> <r_epik_Metal_State_Penalty>
0.1608

> <b_epik_Metal_Only>
0

> <s_lp_Force_Field>
OPLS_2005

> <r_lp_Energy>
7.38775

> <b_lp_Chiralities_Consistent>
1

> <s_lp_Variant>
AV-unprocessed.smi:3250-1

> <Gold.Version>
5.8.1

> <Gold.Id.Protein>
6NUR|6NUR_protein|mol2

> <Gold.PLP.Fitness>
36.9187

> <Gold.PLP.PLP>
-26.1682

> <Gold.PLP.part.hbond>
-2.0000

> <Gold.PLP.part.metal>
0.0000

> <Gold.PLP.part.buried>
-0.5055

> <Gold.PLP.part.nonpolar>
-23.7434

> <Gold.PLP.part.repulsive>
0.2786

> <Gold.PLP.ligand.clash>
0.0000

> <Gold.PLP.ligand.torsion>
0.6449

> <Gold.PLP.Chemscore.Hbond>
3.0000

> <Gold.PLP.Chemscore.CHOScore>
1.0000

> <Gold.PLP.Chemscore.Metal>
0.0000

> <Gold.Chemscore.Hbonds>
donor molecule, donor type, donor heavy atom, donor atom, acceptor molecule, acceptor atom, score
      L1  H     3    39       P1  7948  2.00
      P1  H  7989  7998       L1     6  1.00
      L1  C    12    32       P1  8028  1.00

> <Gold.PLP.Chemscore.Internal.Correction>
0.0403

> <Gold.Rescore>
     Score         DG    S(hbond)    S(metal)    S(lipo)     H(rot)  DE(clash)    DE(int)     intcor
     10.39     -14.19       1.70        0.00      63.34       1.71       1.89       1.90       ----

> <Gold.Chemscore.Fitness>
10.3940

> <Gold.Chemscore.DG>
-14.1920

> <Gold.Chemscore.ZeroCoef>
-5.4800

> <Gold.Chemscore.Hbond>
1.7024

> <Gold.Chemscore.Metal>
0.0000

> <Gold.Chemscore.Lipo>
63.3385

> <Gold.Chemscore.Internal_Hbond>
0.0000

> <Gold.Chemscore.DEClash>
1.8944

> <Gold.Chemscore.DEInternal>
1.9036

> <Gold.Chemscore.Rot>
1.7127

> <Gold.Chemscore.Internal.Correction>
   9.000000E+99

> <Gold.Chemscore.Hbonds>
donor molecule, donor type, donor heavy atom, donor atom, acceptor molecule, acceptor atom, score
      L1  H     3    39       P1  7948  0.97
      P1  H  7989  7998       L1     6  0.18

> <Gold.Chemscore.Hbond.Weighted>
-5.6860

> <Gold.Chemscore.Metal.Weighted>
-0.0000

> <Gold.Chemscore.Lipo.Weighted>
-7.4106

> <Gold.Chemscore.Internal_Hbond.Weighted>
0.0000

> <Gold.Chemscore.DEClash.Weighted>
1.8944

> <Gold.Chemscore.DEInternal.Weighted>
1.9036

> <Gold.Chemscore.Rot.Weighted>
4.3846

> <Gold.Chemscore.Internal.Correction.Weighted>
   9.000000E+99

> <Gold.Protein.RotatedTorsions>
[ 6907 6896 6895 6894 ] final -173.81 input  -60.11 | X-H torsion
[ 7974 7965 7964 7962 ] final -173.46 input  175.53 | X-H torsion
[ 8008 7997 7996 7995 ] final   35.57 input   59.86 | X-H torsion
[ 10167 10162 10161 10158 ] final  -42.29 input  -65.29 | X-H torsion
[ 10718 10713 10712 10709 ] final -106.44 input   66.30 | X-H torsion
[ 10763 10752 10751 10750 ] final  -73.52 input  -60.55 | X-H torsion
[ 11005 11000 10999 10996 ] final   26.87 input  -57.11 | X-H torsion

> <Gold.Protein.ActiveResidues>
 VAL166  LYS551  ARG553  GLY616  TRP617  ASP618  TYR619  PRO620  LYS621  CYS622 
 ASP623  PHE694  ASN695  SER759  ASP760  ASP761  ALA762  ILE779  LEU786  VAL792 
 PHE793  MET794  SER795  GLU796  ALA797  LYS798  CYS799  TRP800  GLU811  SER814 

> <Gold.Protein.RotatedAtoms>
  151.5621  133.3401  159.2972 H   0  0  0  0  0  0  0  0  0  0  0  0  # atno 6907 bound_to 6896
  150.8416  134.7713  159.6948 H   0  0  0  0  0  0  0  0  0  0  0  0  # atno 6908 bound_to 6896
  152.4483  134.5456  159.9903 H   0  0  0  0  0  0  0  0  0  0  0  0  # atno 6909 bound_to 6896
  144.7138  140.1619  143.6375 H   0  0  0  0  0  0  0  0  0  0  0  0  # atno 7974 bound_to 7965
  155.1733  140.3293  155.4388 H   0  0  0  0  0  0  0  0  0  0  0  0  # atno 8008 bound_to 7997
  156.2502  140.1940  156.6785 H   0  0  0  0  0  0  0  0  0  0  0  0  # atno 8009 bound_to 7997
  154.6322  140.0581  156.9732 H   0  0  0  0  0  0  0  0  0  0  0  0  # atno 8010 bound_to 7997
  140.6974  143.3046  151.3189 H   0  0  0  0  0  0  0  0  0  0  0  0  # atno 10167 bound_to 10162
  156.0390  130.5613  150.7681 H   0  0  0  0  0  0  0  0  0  0  0  0  # atno 10718 bound_to 10713
  154.4606  135.5894  153.6253 H   0  0  0  0  0  0  0  0  0  0  0  0  # atno 10763 bound_to 10752
  152.9823  135.6043  154.3491 H   0  0  0  0  0  0  0  0  0  0  0  0  # atno 10764 bound_to 10752
  154.3363  135.2842  155.2425 H   0  0  0  0  0  0  0  0  0  0  0  0  # atno 10765 bound_to 10752
  140.3323  134.2424  155.7700 H   0  0  0  0  0  0  0  0  0  0  0  0  # atno 11005 bound_to 11000
  145.9023  139.2437  143.1486 LP  0  0  0  0  0  0  0  0  0  0  0  0  # atno 17320 bound_to 7965
  145.9799  140.8691  143.0120 LP  0  0  0  0  0  0  0  0  0  0  0  0  # atno 17321 bound_to 7965
  139.6446  144.0474  152.2581 LP  0  0  0  0  0  0  0  0  0  0  0  0  # atno 17342 bound_to 10162
  139.9991  144.6306  150.7746 LP  0  0  0  0  0  0  0  0  0  0  0  0  # atno 17343 bound_to 10162
  157.5182  131.0930  151.0112 LP  0  0  0  0  0  0  0  0  0  0  0  0  # atno 17370 bound_to 10713
  157.0449  130.5764  149.5361 LP  0  0  0  0  0  0  0  0  0  0  0  0  # atno 17371 bound_to 10713
  141.2060  133.7845  157.0201 LP  0  0  0  0  0  0  0  0  0  0  0  0  # atno 17394 bound_to 11000
  140.0850  134.9626  157.1685 LP  0  0  0  0  0  0  0  0  0  0  0  0  # atno 17395 bound_to 11000

$$$$
