AV-unprocessed.smi:3331|AV-procd|sdf|12824|dock10
  -GOLD-   2272019203D 1   1.00000     0.00000
 Structure written by MMmdl.
 46 47  0  0  0  0  0  0  0  0  1 V2000
  154.5378  141.2432  161.5852 C   0  0  0  0  0  0  0  0  0  0  0  0
  153.3334  141.6852  160.7428 C   0  0  1  0  0  0  0  0  0  0  0  0
  152.8876  143.1222  161.0980 C   0  0  0  0  0  0  0  0  0  0  0  0
  151.7600  143.6366  160.1740 C   0  0  1  0  0  0  0  0  0  0  0  0
  151.4210  145.1060  160.4588 C   0  0  0  0  0  0  0  0  0  0  0  0
  152.1393  143.4167  158.6940 C   0  0  0  0  0  0  0  0  0  0  0  0
  152.4239  141.9901  158.4960 N   0  0  0  0  0  0  0  0  0  0  0  0
  151.5718  141.1651  157.8369 C   0  0  0  0  0  0  0  0  0  0  0  0
  151.7448  139.9446  157.8050 O   0  0  0  0  0  0  0  0  0  0  0  0
  150.3514  141.7465  157.0830 C   0  0  2  0  0  0  0  0  0  0  0  0
  149.3754  142.3876  158.0821 C   0  0  0  0  0  0  0  0  0  0  0  0
  149.6400  140.7322  156.2863 N   0  0  0  0  0  0  0  0  0  0  0  0
  149.9451  140.7984  154.8595 C   0  0  0  0  0  0  0  0  0  0  0  0
  148.6950  141.2284  154.0762 C   0  0  0  0  0  0  0  0  0  0  0  0
  147.7700  140.1242  153.8928 N   0  0  0  0  0  0  0  0  0  0  0  0
  147.9362  138.9807  153.1403 C   0  0  0  0  0  0  0  0  0  0  0  0
  146.7889  138.2493  153.2547 C   0  0  0  0  0  0  0  0  0  0  0  0
  145.9691  139.0387  154.1089 C   0  0  0  0  0  0  0  0  0  0  0  0
  146.5595  140.1593  154.4909 N   0  0  0  0  0  0  0  0  0  0  0  0
  153.6284  141.5883  159.2326 C   0  0  0  0  0  0  0  0  0  0  0  0
  155.4062  141.8756  161.3983 H   0  0  0  0  0  0  0  0  0  0  0  0
  154.8189  140.2147  161.3569 H   0  0  0  0  0  0  0  0  0  0  0  0
  154.3111  141.2942  162.6503 H   0  0  0  0  0  0  0  0  0  0  0  0
  152.5074  141.0089  160.9693 H   0  0  0  0  0  0  0  0  0  0  0  0
  152.5644  143.1651  162.1387 H   0  0  0  0  0  0  0  0  0  0  0  0
  153.7457  143.7910  161.0169 H   0  0  0  0  0  0  0  0  0  0  0  0
  150.8641  143.0483  160.3800 H   0  0  0  0  0  0  0  0  0  0  0  0
  152.2749  145.7553  160.2636 H   0  0  0  0  0  0  0  0  0  0  0  0
  151.1255  145.2461  161.4989 H   0  0  0  0  0  0  0  0  0  0  0  0
  150.5950  145.4452  159.8332 H   0  0  0  0  0  0  0  0  0  0  0  0
  151.3420  143.7819  158.0452 H   0  0  0  0  0  0  0  0  0  0  0  0
  153.0204  144.0056  158.4349 H   0  0  0  0  0  0  0  0  0  0  0  0
  150.6742  142.5129  156.3797 H   0  0  0  0  0  0  0  0  0  0  0  0
  149.8598  143.1649  158.6740 H   0  0  0  0  0  0  0  0  0  0  0  0
  148.9713  141.6481  158.7750 H   0  0  0  0  0  0  0  0  0  0  0  0
  148.5344  142.8503  157.5650 H   0  0  0  0  0  0  0  0  0  0  0  0
  148.6404  140.7771  156.4215 H   0  0  0  0  0  0  0  0  0  0  0  0
  150.7497  141.5186  154.7087 H   0  0  0  0  0  0  0  0  0  0  0  0
  150.3014  139.8440  154.4703 H   0  0  0  0  0  0  0  0  0  0  0  0
  148.1784  142.0462  154.5804 H   0  0  0  0  0  0  0  0  0  0  0  0
  148.9831  141.6008  153.0922 H   0  0  0  0  0  0  0  0  0  0  0  0
  148.8438  138.7889  152.5876 H   0  0  0  0  0  0  0  0  0  0  0  0
  146.5673  137.2976  152.7953 H   0  0  0  0  0  0  0  0  0  0  0  0
  144.9691  138.8322  154.4605 H   0  0  0  0  0  0  0  0  0  0  0  0
  154.4462  142.2619  158.9716 H   0  0  0  0  0  0  0  0  0  0  0  0
  153.9940  140.5987  158.9662 H   0  0  0  0  0  0  0  0  0  0  0  0
  1  2  1  0  0  0  0
  1 21  1  0  0  0  0
  1 22  1  0  0  0  0
  1 23  1  0  0  0  0
  2 20  1  0  0  0  0
  2  3  1  0  0  0  0
  2 24  1  0  0  0  0
  3  4  1  0  0  0  0
  3 25  1  0  0  0  0
  3 26  1  0  0  0  0
  4  5  1  0  0  0  0
  4  6  1  0  0  0  0
  4 27  1  0  0  0  0
  5 28  1  0  0  0  0
  5 29  1  0  0  0  0
  5 30  1  0  0  0  0
  6  7  1  0  0  0  0
  6 31  1  0  0  0  0
  6 32  1  0  0  0  0
  7  8  1  0  0  0  0
  7 20  1  0  0  0  0
  8  9  2  0  0  0  0
  8 10  1  0  0  0  0
 10 11  1  0  0  0  0
 10 12  1  0  0  0  0
 10 33  1  0  0  0  0
 11 34  1  0  0  0  0
 11 35  1  0  0  0  0
 11 36  1  0  0  0  0
 12 13  1  0  0  0  0
 12 37  1  0  0  0  0
 13 14  1  0  0  0  0
 13 38  1  0  0  0  0
 13 39  1  0  0  0  0
 14 15  1  0  0  0  0
 14 40  1  0  0  0  0
 14 41  1  0  0  0  0
 15 19  1  0  0  0  0
 15 16  1  0  0  0  0
 16 17  2  0  0  0  0
 16 42  1  0  0  0  0
 17 18  1  0  0  0  0
 17 43  1  0  0  0  0
 18 19  2  0  0  0  0
 18 44  1  0  0  0  0
 20 45  1  0  0  0  0
 20 46  1  0  0  0  0
M  END
> <s_m_source_file>
AV-unprocessed.smi

> <i_m_source_file_index>
3331

> <i_lp_mmshare_version>
43012

> <i_f3d_flags>
0

> <s_epik_input>
W0NIM11bQ0BASF0xW0NIMl1bQ0BASF0oW0NIM10pW0NIMl1OKFtDSDJdMSlDKD1PKVtDQEhdKFtDSDNdKVtOSF1bQ0gyXVtDSDJdbjJbY0hdW2NIXVtjSF1uMg==

> <s_epik_cmdline>
J2VwaWtfcHl0aG9uJywgJy1waCcsICc3LjAnLCAnLXRuJywgJzgnLCAnLW1hJywgJzIwMCcsICctbWV0YWxfYmluZGluZycsICctaW1hZScsICc8aW5maWxlLm1hZT4nLCAnLW9tYWUnLCAnPG91dGZpbGUubWFlPic=

> <r_lp_tautomer_probability>
1

> <r_epik_Ionization_Penalty>
0.767994

> <r_epik_Ionization_Penalty_Charging>
0

> <r_epik_Ionization_Penalty_Neutral>
0.767994

> <r_epik_State_Penalty>
0.795453

> <r_epik_Charging_Adjusted_Penalty>
0.795453

> <i_epik_Tot_Q>
0

> <i_epik_Tot_abs_Q>
0

> <r_epik_Metal_State_Penalty>
0.794784

> <b_epik_Metal_Only>
0

> <s_lp_Force_Field>
OPLS_2005

> <r_lp_Energy>
28.4276

> <b_lp_Chiralities_Consistent>
1

> <s_lp_Variant>
AV-unprocessed.smi:3331-8

> <Gold.Version>
5.8.1

> <Gold.Id.Protein>
6NUR|6NUR_protein|mol2

> <Gold.PLP.Fitness>
43.1807

> <Gold.PLP.PLP>
-39.3166

> <Gold.PLP.part.hbond>
0.0000

> <Gold.PLP.part.metal>
0.0000

> <Gold.PLP.part.buried>
0.7417

> <Gold.PLP.part.nonpolar>
-38.4710

> <Gold.PLP.part.repulsive>
0.1010

> <Gold.PLP.ligand.clash>
0.0000

> <Gold.PLP.ligand.torsion>
1.1961

> <Gold.PLP.Chemscore.Hbond>
0.0000

> <Gold.PLP.Chemscore.CHOScore>
2.0627

> <Gold.PLP.Chemscore.Metal>
0.0000

> <Gold.Chemscore.Hbonds>
donor molecule, donor type, donor heavy atom, donor atom, acceptor molecule, acceptor atom, score
      L1  C    16    42       P1  7948  0.48
      L1  C    16    42       P1  7957  0.90
      L1  C    18    44       P1 10175  0.04

> <Gold.PLP.Chemscore.Internal.Correction>
0.0684

> <Gold.Rescore>
     Score         DG    S(hbond)    S(metal)    S(lipo)     H(rot)  DE(clash)    DE(int)     intcor
     12.22     -14.69       0.00        0.00     115.18       1.66       0.13       2.34       ----

> <Gold.Chemscore.Fitness>
12.2228

> <Gold.Chemscore.DG>
-14.6936

> <Gold.Chemscore.ZeroCoef>
-5.4800

> <Gold.Chemscore.Hbond>
0.0000

> <Gold.Chemscore.Metal>
0.0000

> <Gold.Chemscore.Lipo>
115.1768

> <Gold.Chemscore.Internal_Hbond>
0.0000

> <Gold.Chemscore.DEClash>
0.1322

> <Gold.Chemscore.DEInternal>
2.3386

> <Gold.Chemscore.Rot>
1.6649

> <Gold.Chemscore.Internal.Correction>
   9.000000E+99

> <Gold.Chemscore.Hbond.Weighted>
-0.0000

> <Gold.Chemscore.Metal.Weighted>
-0.0000

> <Gold.Chemscore.Lipo.Weighted>
-13.4757

> <Gold.Chemscore.Internal_Hbond.Weighted>
0.0000

> <Gold.Chemscore.DEClash.Weighted>
0.1322

> <Gold.Chemscore.DEInternal.Weighted>
2.3386

> <Gold.Chemscore.Rot.Weighted>
4.2621

> <Gold.Chemscore.Internal.Correction.Weighted>
   9.000000E+99

> <Gold.Protein.RotatedTorsions>
[ 6907 6896 6895 6894 ] final  -56.54 input  -60.11 | X-H torsion
[ 7974 7965 7964 7962 ] final  177.51 input  175.53 | X-H torsion
[ 8008 7997 7996 7995 ] final   26.05 input   59.86 | X-H torsion
[ 10167 10162 10161 10158 ] final   -3.40 input  -65.29 | X-H torsion
[ 10718 10713 10712 10709 ] final -110.50 input   66.30 | X-H torsion
[ 10763 10752 10751 10750 ] final    8.08 input  -60.55 | X-H torsion
[ 11005 11000 10999 10996 ] final -116.70 input  -57.11 | X-H torsion

> <Gold.Protein.ActiveResidues>
 VAL166  LYS551  ARG553  GLY616  TRP617  ASP618  TYR619  PRO620  LYS621  CYS622 
 ASP623  PHE694  ASN695  SER759  ASP760  ASP761  ALA762  ILE779  LEU786  VAL792 
 PHE793  MET794  SER795  GLU796  ALA797  LYS798  CYS799  TRP800  GLU811  SER814 

> <Gold.Protein.RotatedAtoms>
  150.8159  134.7340  159.6729 H   0  0  0  0  0  0  0  0  0  0  0  0  # atno 6907 bound_to 6896
  152.4277  134.5833  159.9963 H   0  0  0  0  0  0  0  0  0  0  0  0  # atno 6908 bound_to 6896
  151.6030  133.3317  159.3087 H   0  0  0  0  0  0  0  0  0  0  0  0  # atno 6909 bound_to 6896
  144.7168  140.0258  143.6439 H   0  0  0  0  0  0  0  0  0  0  0  0  # atno 7974 bound_to 7965
  155.0212  140.3148  155.4792 H   0  0  0  0  0  0  0  0  0  0  0  0  # atno 8008 bound_to 7997
  156.2891  140.2197  156.5272 H   0  0  0  0  0  0  0  0  0  0  0  0  # atno 8009 bound_to 7997
  154.7450  140.0470  157.0832 H   0  0  0  0  0  0  0  0  0  0  0  0  # atno 8010 bound_to 7997
  140.6889  143.6544  150.8322 H   0  0  0  0  0  0  0  0  0  0  0  0  # atno 10167 bound_to 10162
  156.0594  130.5818  150.8245 H   0  0  0  0  0  0  0  0  0  0  0  0  # atno 10718 bound_to 10713
  153.2291  135.6890  153.7911 H   0  0  0  0  0  0  0  0  0  0  0  0  # atno 10763 bound_to 10752
  153.7082  135.3286  155.3241 H   0  0  0  0  0  0  0  0  0  0  0  0  # atno 10764 bound_to 10752
  154.8305  135.4584  154.1169 H   0  0  0  0  0  0  0  0  0  0  0  0  # atno 10765 bound_to 10752
  141.0404  133.9844  157.3003 H   0  0  0  0  0  0  0  0  0  0  0  0  # atno 11005 bound_to 11000
  146.0143  139.3196  143.0851 LP  0  0  0  0  0  0  0  0  0  0  0  0  # atno 17320 bound_to 7965
  145.8644  140.9456  143.0683 LP  0  0  0  0  0  0  0  0  0  0  0  0  # atno 17321 bound_to 7965
  140.0254  143.5498  152.2783 LP  0  0  0  0  0  0  0  0  0  0  0  0  # atno 17342 bound_to 10162
  139.6272  144.7639  151.2613 LP  0  0  0  0  0  0  0  0  0  0  0  0  # atno 17343 bound_to 10162
  157.5591  131.0945  150.9585 LP  0  0  0  0  0  0  0  0  0  0  0  0  # atno 17370 bound_to 10713
  156.9827  130.5533  149.5297 LP  0  0  0  0  0  0  0  0  0  0  0  0  # atno 17371 bound_to 10713
  139.9271  135.0201  156.8274 LP  0  0  0  0  0  0  0  0  0  0  0  0  # atno 17394 bound_to 11000
  140.6245  133.9963  155.7633 LP  0  0  0  0  0  0  0  0  0  0  0  0  # atno 17395 bound_to 11000

$$$$
