AV-unprocessed.smi:3252|AV-procd|sdf|12442|dock2
  -GOLD-   2272018333D 1   1.00000     0.00000
 Structure written by MMmdl.
 37 38  0  0  0  0  0  0  0  0  2 V2000
  143.9875  131.9951  150.1414 C   0  0  0  0  0  0  0  0  0  0  0  0
  145.4273  131.6983  149.6984 C   0  0  0  0  0  0  0  0  0  0  0  0
  146.3432  131.4754  150.8447 N   0  3  2  0  0  0  0  0  0  0  0  0
  146.0038  130.2487  151.6039 C   0  0  0  0  0  0  0  0  0  0  0  0
  147.0003  130.0328  152.7540 C   0  0  0  0  0  0  0  0  0  0  0  0
  147.0108  131.1804  153.5924 O   0  0  0  0  0  0  0  0  0  0  0  0
  147.4386  132.3501  152.9016 C   0  0  2  0  0  0  0  0  0  0  0  0
  147.4984  133.5058  153.9099 C   0  0  0  0  0  0  0  0  0  0  0  0
  147.2686  134.7923  153.2670 N   0  0  0  0  0  0  0  0  0  0  0  0
  145.9892  135.3635  153.2475 C   0  0  0  0  0  0  0  0  0  0  0  0
  144.9330  134.6774  153.8833 C   0  0  0  0  0  0  0  0  0  0  0  0
  143.6456  135.2496  153.8707 C   0  0  0  0  0  0  0  0  0  0  0  0
  143.4603  136.4873  153.2237 C   0  0  0  0  0  0  0  0  0  0  0  0
  142.1530  137.1199  153.1860 C   0  0  0  0  0  0  0  0  0  0  0  0
  141.1120  137.6240  153.1561 N   0  0  0  0  0  0  0  0  0  0  0  0
  144.5762  137.0970  152.6151 C   0  0  0  0  0  0  0  0  0  0  0  0
  145.8128  136.5533  152.6244 N   0  0  0  0  0  0  0  0  0  0  0  0
  146.4427  132.6388  151.7609 C   0  0  0  0  0  0  0  0  0  0  0  0
  143.3673  132.2461  149.2808 H   0  0  0  0  0  0  0  0  0  0  0  0
  143.9525  132.8403  150.8295 H   0  0  0  0  0  0  0  0  0  0  0  0
  143.5249  131.1395  150.6327 H   0  0  0  0  0  0  0  0  0  0  0  0
  145.4540  130.8404  149.0250 H   0  0  0  0  0  0  0  0  0  0  0  0
  145.7821  132.5546  149.1229 H   0  0  0  0  0  0  0  0  0  0  0  0
  144.9902  130.3320  151.9992 H   0  0  0  0  0  0  0  0  0  0  0  0
  146.0197  129.3835  150.9399 H   0  0  0  0  0  0  0  0  0  0  0  0
  146.7084  129.1657  153.3466 H   0  0  0  0  0  0  0  0  0  0  0  0
  148.0028  129.8346  152.3720 H   0  0  0  0  0  0  0  0  0  0  0  0
  148.4337  132.1887  152.4817 H   0  0  0  0  0  0  0  0  0  0  0  0
  146.7342  133.3620  154.6748 H   0  0  0  0  0  0  0  0  0  0  0  0
  148.4644  133.5140  154.4168 H   0  0  0  0  0  0  0  0  0  0  0  0
  148.0615  135.3287  152.9458 H   0  0  0  0  0  0  0  0  0  0  0  0
  145.1013  133.7294  154.3736 H   0  0  0  0  0  0  0  0  0  0  0  0
  142.8204  134.7436  154.3509 H   0  0  0  0  0  0  0  0  0  0  0  0
  144.4808  138.0458  152.1072 H   0  0  0  0  0  0  0  0  0  0  0  0
  146.7725  133.5210  151.2131 H   0  0  0  0  0  0  0  0  0  0  0  0
  145.4567  132.8667  152.1698 H   0  0  0  0  0  0  0  0  0  0  0  0
  147.2632  131.3243  150.4559 H   0  0  0  0  0  0  0  0  0  0  0  0
  1  2  1  0  0  0  0
  1 19  1  0  0  0  0
  1 20  1  0  0  0  0
  1 21  1  0  0  0  0
  2  3  1  0  0  0  0
  2 22  1  0  0  0  0
  2 23  1  0  0  0  0
  3 18  1  0  0  0  0
  3  4  1  0  0  0  0
  3 37  1  0  0  0  0
  4  5  1  0  0  0  0
  4 24  1  0  0  0  0
  4 25  1  0  0  0  0
  5  6  1  0  0  0  0
  5 26  1  0  0  0  0
  5 27  1  0  0  0  0
  6  7  1  0  0  0  0
  7  8  1  0  0  0  0
  7 18  1  0  0  0  0
  7 28  1  0  0  0  0
  8  9  1  0  0  0  0
  8 29  1  0  0  0  0
  8 30  1  0  0  0  0
  9 10  1  0  0  0  0
  9 31  1  0  0  0  0
 10 17  1  0  0  0  0
 10 11  2  0  0  0  0
 11 12  1  0  0  0  0
 11 32  1  0  0  0  0
 12 13  2  0  0  0  0
 12 33  1  0  0  0  0
 13 14  1  0  0  0  0
 13 16  1  0  0  0  0
 14 15  3  0  0  0  0
 16 17  2  0  0  0  0
 16 34  1  0  0  0  0
 18 35  1  0  0  0  0
 18 36  1  0  0  0  0
M  CHG  1   3   1
M  END
> <s_m_source_file>
AV-unprocessed.smi

> <i_m_source_file_index>
3252

> <i_lp_mmshare_version>
43012

> <i_f3d_flags>
0

> <s_epik_input>
W0NIM11bQ0gyXU4xW0NIMl1bQ0gyXU9bQ0BIXShbQ0gyXTEpW0NIMl1bTkhdYzJbY0hdW2NIXWMoQyNOKVtjSF1uMg==

> <s_epik_cmdline>
J2VwaWtfcHl0aG9uJywgJy1waCcsICc3LjAnLCAnLXRuJywgJzgnLCAnLW1hJywgJzIwMCcsICctbWV0YWxfYmluZGluZycsICctaW1hZScsICc8aW5maWxlLm1hZT4nLCAnLW9tYWUnLCAnPG91dGZpbGUubWFlPic=

> <r_epik_Ionization_Penalty>
0.178512

> <r_epik_Ionization_Penalty_Charging>
0.178504

> <r_epik_Ionization_Penalty_Neutral>
8.15545e-06

> <r_epik_State_Penalty>
0.167974

> <r_epik_Charging_Adjusted_Penalty>
0.346478

> <i_epik_Tot_Q>
1

> <i_epik_Tot_abs_Q>
1

> <r_epik_Metal_State_Penalty>
0.167974

> <b_epik_Metal_Only>
0

> <s_lp_Force_Field>
OPLS_2005

> <r_lp_Energy>
17.709

> <b_lp_Chiralities_Consistent>
1

> <s_lp_Variant>
AV-unprocessed.smi:3252-4

> <Gold.Version>
5.8.1

> <Gold.Id.Protein>
6NUR|6NUR_protein|mol2

> <Gold.PLP.Fitness>
38.3163

> <Gold.PLP.PLP>
-27.4473

> <Gold.PLP.part.hbond>
-2.0000

> <Gold.PLP.part.metal>
0.0000

> <Gold.PLP.part.buried>
-4.4965

> <Gold.PLP.part.nonpolar>
-22.3200

> <Gold.PLP.part.repulsive>
0.5777

> <Gold.PLP.ligand.clash>
0.0000

> <Gold.PLP.ligand.torsion>
0.5203

> <Gold.PLP.Chemscore.Hbond>
2.0000

> <Gold.PLP.Chemscore.CHOScore>
1.9662

> <Gold.PLP.Chemscore.Metal>
0.0000

> <Gold.Chemscore.Hbonds>
donor molecule, donor type, donor heavy atom, donor atom, acceptor molecule, acceptor atom, score
      L1  H     3    37       P1 10747  1.00
      L1  H     9    31       P1  7948  1.00
      L1  C    16    34       P1 10171  1.00
      L1  C    16    34       P1 10175  0.95

> <Gold.PLP.Chemscore.Internal.Correction>
0.0112

> <Gold.Rescore>
     Score         DG    S(hbond)    S(metal)    S(lipo)     H(rot)  DE(clash)    DE(int)     intcor
     15.82     -16.43       1.99        0.00      69.03       1.47       0.05       0.57       ----

> <Gold.Chemscore.Fitness>
15.8199

> <Gold.Chemscore.DG>
-16.4330

> <Gold.Chemscore.ZeroCoef>
-5.4800

> <Gold.Chemscore.Hbond>
1.9866

> <Gold.Chemscore.Metal>
0.0000

> <Gold.Chemscore.Lipo>
69.0266

> <Gold.Chemscore.Internal_Hbond>
0.0000

> <Gold.Chemscore.DEClash>
0.0456

> <Gold.Chemscore.DEInternal>
0.5674

> <Gold.Chemscore.Rot>
1.4681

> <Gold.Chemscore.Internal.Correction>
   9.000000E+99

> <Gold.Chemscore.Hbonds>
donor molecule, donor type, donor heavy atom, donor atom, acceptor molecule, acceptor atom, score
      L1  H     3    37       P1 10747  1.00
      L1  H     9    31       P1  7948  0.98

> <Gold.Chemscore.Hbond.Weighted>
-6.6353

> <Gold.Chemscore.Metal.Weighted>
-0.0000

> <Gold.Chemscore.Lipo.Weighted>
-8.0761

> <Gold.Chemscore.Internal_Hbond.Weighted>
0.0000

> <Gold.Chemscore.DEClash.Weighted>
0.0456

> <Gold.Chemscore.DEInternal.Weighted>
0.5674

> <Gold.Chemscore.Rot.Weighted>
3.7584

> <Gold.Chemscore.Internal.Correction.Weighted>
   9.000000E+99

> <Gold.Protein.RotatedTorsions>
[ 6907 6896 6895 6894 ] final -130.19 input  -60.11 | X-H torsion
[ 7974 7965 7964 7962 ] final -174.48 input  175.53 | X-H torsion
[ 8008 7997 7996 7995 ] final    6.38 input   59.86 | X-H torsion
[ 10167 10162 10161 10158 ] final  123.72 input  -65.29 | X-H torsion
[ 10718 10713 10712 10709 ] final -117.75 input   66.30 | X-H torsion
[ 10763 10752 10751 10750 ] final  -54.73 input  -60.55 | X-H torsion
[ 11005 11000 10999 10996 ] final  154.94 input  -57.11 | X-H torsion

> <Gold.Protein.ActiveResidues>
 VAL166  LYS551  ARG553  GLY616  TRP617  ASP618  TYR619  PRO620  LYS621  CYS622 
 ASP623  PHE694  ASN695  SER759  ASP760  ASP761  ALA762  ILE779  LEU786  VAL792 
 PHE793  MET794  SER795  GLU796  ALA797  LYS798  CYS799  TRP800  GLU811  SER814 

> <Gold.Protein.RotatedAtoms>
  150.9370  133.6700  159.2798 H   0  0  0  0  0  0  0  0  0  0  0  0  # atno 6907 bound_to 6896
  151.4103  135.0983  159.9592 H   0  0  0  0  0  0  0  0  0  0  0  0  # atno 6908 bound_to 6896
  152.5052  133.8844  159.7417 H   0  0  0  0  0  0  0  0  0  0  0  0  # atno 6909 bound_to 6896
  144.7132  140.1466  143.6387 H   0  0  0  0  0  0  0  0  0  0  0  0  # atno 7974 bound_to 7965
  154.7403  140.2747  155.6379 H   0  0  0  0  0  0  0  0  0  0  0  0  # atno 8008 bound_to 7997
  156.2872  140.2698  156.2054 H   0  0  0  0  0  0  0  0  0  0  0  0  # atno 8009 bound_to 7997
  155.0267  140.0371  157.2448 H   0  0  0  0  0  0  0  0  0  0  0  0  # atno 8010 bound_to 7997
  139.5783  144.6974  151.3595 H   0  0  0  0  0  0  0  0  0  0  0  0  # atno 10167 bound_to 10162
  156.1056  130.6208  150.9204 H   0  0  0  0  0  0  0  0  0  0  0  0  # atno 10718 bound_to 10713
  154.1795  135.6445  153.5030 H   0  0  0  0  0  0  0  0  0  0  0  0  # atno 10763 bound_to 10752
  153.0063  135.5402  154.6529 H   0  0  0  0  0  0  0  0  0  0  0  0  # atno 10764 bound_to 10752
  154.5889  135.2932  155.0628 H   0  0  0  0  0  0  0  0  0  0  0  0  # atno 10765 bound_to 10752
  140.1535  134.8658  157.2485 H   0  0  0  0  0  0  0  0  0  0  0  0  # atno 11005 bound_to 11000
  145.9154  139.2513  143.1413 LP  0  0  0  0  0  0  0  0  0  0  0  0  # atno 17320 bound_to 7965
  145.9674  140.8787  143.0180 LP  0  0  0  0  0  0  0  0  0  0  0  0  # atno 17321 bound_to 7965
  140.7064  143.7504  150.7489 LP  0  0  0  0  0  0  0  0  0  0  0  0  # atno 17342 bound_to 10162
  140.1029  143.4771  152.2415 LP  0  0  0  0  0  0  0  0  0  0  0  0  # atno 17343 bound_to 10162
  157.6232  131.0928  150.8582 LP  0  0  0  0  0  0  0  0  0  0  0  0  # atno 17370 bound_to 10713
  156.8702  130.5143  149.5297 LP  0  0  0  0  0  0  0  0  0  0  0  0  # atno 17371 bound_to 10713
  140.2576  134.3609  155.7418 LP  0  0  0  0  0  0  0  0  0  0  0  0  # atno 17394 bound_to 11000
  141.2202  133.7351  156.9030 LP  0  0  0  0  0  0  0  0  0  0  0  0  # atno 17395 bound_to 11000

$$$$
