AV-unprocessed.smi:35|AV-procd|sdf|254|dock1
  -GOLD-   2262016 13D 1   1.00000     0.00000
 Structure written by MMmdl.
 29 30  0  0  0  0  0  0  0  0  1 V2000
  151.8155  137.0420  159.5959 O   0  0  0  0  0  0  0  0  0  0  0  0
  151.4034  137.5387  158.5498 C   0  0  0  0  0  0  0  0  0  0  0  0
  152.3016  138.0562  157.6124 N   0  0  0  0  0  0  0  0  0  0  0  0
  151.9529  138.6427  156.3943 C   0  0  0  0  0  0  0  0  0  0  0  0
  152.8279  139.0774  155.6465 O   0  0  0  0  0  0  0  0  0  0  0  0
  150.5774  138.7176  156.0806 N   0  0  0  0  0  0  0  0  0  0  0  0
  150.1745  139.3493  154.7603 C   0  0  1  0  0  0  0  0  0  0  0  0
  149.1875  138.5722  154.1465 O   0  0  0  0  0  0  0  0  0  0  0  0
  147.9291  139.2366  154.2099 C   0  0  2  0  0  0  0  0  0  0  0  0
  146.9729  138.7208  153.1212 C   0  0  0  0  0  0  0  0  0  0  0  0
  147.6583  138.6088  151.8926 O   0  0  0  0  0  0  0  0  0  0  0  0
  148.3179  140.7161  154.1055 C   0  0  2  0  0  0  0  0  0  0  0  0
  148.5605  141.0884  152.7605 O   0  0  0  0  0  0  0  0  0  0  0  0
  149.6055  140.7818  154.9161 C   0  0  1  0  0  0  0  0  0  0  0  0
  149.3044  141.1381  156.2550 O   0  0  0  0  0  0  0  0  0  0  0  0
  149.6469  138.2166  156.9836 C   0  0  0  0  0  0  0  0  0  0  0  0
  150.0017  137.6522  158.1621 C   0  0  0  0  0  0  0  0  0  0  0  0
  148.5256  136.9995  159.3109 Br  0  0  0  0  0  0  0  0  0  0  0  0
  153.2846  138.0035  157.8367 H   0  0  0  0  0  0  0  0  0  0  0  0
  151.0618  139.3043  154.1259 H   0  0  0  0  0  0  0  0  0  0  0  0
  147.4891  139.0774  155.1960 H   0  0  0  0  0  0  0  0  0  0  0  0
  146.6078  137.7272  153.3826 H   0  0  0  0  0  0  0  0  0  0  0  0
  146.1040  139.3704  153.0104 H   0  0  0  0  0  0  0  0  0  0  0  0
  148.4828  139.0651  151.9671 H   0  0  0  0  0  0  0  0  0  0  0  0
  147.5386  141.3703  154.4994 H   0  0  0  0  0  0  0  0  0  0  0  0
  148.7565  140.3093  152.2626 H   0  0  0  0  0  0  0  0  0  0  0  0
  150.3154  141.5080  154.5176 H   0  0  0  0  0  0  0  0  0  0  0  0
  149.0810  140.3510  156.7284 H   0  0  0  0  0  0  0  0  0  0  0  0
  148.5930  138.2678  156.7590 H   0  0  0  0  0  0  0  0  0  0  0  0
  1  2  2  0  0  0  0
  2 17  1  0  0  0  0
  2  3  1  0  0  0  0
  3 19  1  0  0  0  0
  3  4  1  0  0  0  0
  4  5  2  0  0  0  0
  4  6  1  0  0  0  0
  6  7  1  0  0  0  0
  6 16  1  0  0  0  0
  7 14  1  0  0  0  0
  7  8  1  0  0  0  0
  7 20  1  0  0  0  0
  8  9  1  0  0  0  0
  9 10  1  0  0  0  0
  9 12  1  0  0  0  0
  9 21  1  0  0  0  0
 10 11  1  0  0  0  0
 10 22  1  0  0  0  0
 10 23  1  0  0  0  0
 11 24  1  0  0  0  0
 12 13  1  0  0  0  0
 12 14  1  0  0  0  0
 12 25  1  0  0  0  0
 13 26  1  0  0  0  0
 14 15  1  0  0  0  0
 14 27  1  0  0  0  0
 15 28  1  0  0  0  0
 16 17  2  0  0  0  0
 16 29  1  0  0  0  0
 17 18  1  0  0  0  0
M  END
> <s_m_source_file>
AV-unprocessed.smi

> <i_m_source_file_index>
35

> <i_lp_mmshare_version>
43012

> <i_f3d_flags>
0

> <s_epik_input>
Tz1jMVtuSF1jKD1PKW4oW2NIXWMxQnIpW0NAQEhdMk9bQ0BASF0oW0NIMl1bT0hdKVtDQEBIXShbT0hdKVtDQEhdMltPSF0=

> <s_epik_cmdline>
J2VwaWtfcHl0aG9uJywgJy1waCcsICc3LjAnLCAnLXRuJywgJzgnLCAnLW1hJywgJzIwMCcsICctbWV0YWxfYmluZGluZycsICctaW1hZScsICc8aW5maWxlLm1hZT4nLCAnLW9tYWUnLCAnPG91dGZpbGUubWFlPic=

> <r_lp_tautomer_probability>
0.999537

> <r_epik_Ionization_Penalty>
0.10812

> <r_epik_Ionization_Penalty_Charging>
0.108119

> <r_epik_Ionization_Penalty_Neutral>
4.93006e-07

> <r_epik_State_Penalty>
0.0979238

> <r_epik_Charging_Adjusted_Penalty>
0.206043

> <i_epik_Tot_Q>
0

> <i_epik_Tot_abs_Q>
0

> <r_epik_Metal_State_Penalty>
3.07911

> <b_epik_Metal_Only>
0

> <s_epik_Chemistry_Notes>
This compound contains an acetal/aminal-like group ( X-CH(R)-Y where X, Y are N, S, or O) that may be acid/base labile, releasing an aldehyde.

> <s_lp_Force_Field>
OPLS_2005

> <r_lp_Energy>
33.5115

> <b_lp_Chiralities_Consistent>
1

> <s_lp_Variant>
AV-unprocessed.smi:35-8

> <Gold.Version>
5.8.1

> <Gold.Id.Protein>
6NUR|6NUR_protein|mol2

> <Gold.PLP.Fitness>
38.0294

> <Gold.PLP.PLP>
-23.8019

> <Gold.PLP.part.hbond>
-5.7694

> <Gold.PLP.part.metal>
0.0000

> <Gold.PLP.part.buried>
-2.5559

> <Gold.PLP.part.nonpolar>
-15.9040

> <Gold.PLP.part.repulsive>
0.3340

> <Gold.PLP.ligand.clash>
0.0000

> <Gold.PLP.ligand.torsion>
0.5109

> <Gold.PLP.Chemscore.Hbond>
5.0621

> <Gold.PLP.Chemscore.CHOScore>
0.0000

> <Gold.PLP.Chemscore.Metal>
0.0000

> <Gold.Chemscore.Hbonds>
donor molecule, donor type, donor heavy atom, donor atom, acceptor molecule, acceptor atom, score
      L1  H    11    24       P1  7957  0.86
      L1  H    13    26       P1  7957  0.47
      P1  H  6896  6909       L1     1  1.00
      P1  H  7954  7966       L1    11  0.33
      P1  H  7997  8008       L1     5  1.00
      P1  H  8011  8017       L1    13  1.00

> <Gold.PLP.Chemscore.Internal.Correction>
0.0631

> <Gold.Rescore>
     Score         DG    S(hbond)    S(metal)    S(lipo)     H(rot)  DE(clash)    DE(int)     intcor
     12.40     -13.64       4.07        0.00      33.81       3.67       0.52       0.73       ----

> <Gold.Chemscore.Fitness>
12.4005

> <Gold.Chemscore.DG>
-13.6425

> <Gold.Chemscore.ZeroCoef>
-5.4800

> <Gold.Chemscore.Hbond>
4.0726

> <Gold.Chemscore.Metal>
0.0000

> <Gold.Chemscore.Lipo>
33.8069

> <Gold.Chemscore.Internal_Hbond>
0.0000

> <Gold.Chemscore.DEClash>
0.5163

> <Gold.Chemscore.DEInternal>
0.7257

> <Gold.Chemscore.Rot>
3.6701

> <Gold.Chemscore.Internal.Correction>
   9.000000E+99

> <Gold.Chemscore.Hbonds>
donor molecule, donor type, donor heavy atom, donor atom, acceptor molecule, acceptor atom, score
      L1  H    11    24       P1  7957  0.84
      L1  H    13    26       P1  7957  0.47
      P1  H  6896  6909       L1     1  0.99
      P1  H  7954  7966       L1    11  0.02
      P1  H  7997  8008       L1     5  0.99
      P1  H  8011  8017       L1    13  0.66

> <Gold.Chemscore.Hbond.Weighted>
-13.6025

> <Gold.Chemscore.Metal.Weighted>
-0.0000

> <Gold.Chemscore.Lipo.Weighted>
-3.9554

> <Gold.Chemscore.Internal_Hbond.Weighted>
0.0000

> <Gold.Chemscore.DEClash.Weighted>
0.5163

> <Gold.Chemscore.DEInternal.Weighted>
0.7257

> <Gold.Chemscore.Rot.Weighted>
9.3955

> <Gold.Chemscore.Internal.Correction.Weighted>
   9.000000E+99

> <Gold.Protein.RotatedTorsions>
[ 6907 6896 6895 6894 ] final  130.73 input  -60.11 | X-H torsion
[ 7974 7965 7964 7962 ] final -125.52 input  175.53 | X-H torsion
[ 8008 7997 7996 7995 ] final  -32.99 input   59.86 | X-H torsion
[ 10167 10162 10161 10158 ] final -151.16 input  -65.29 | X-H torsion
[ 10718 10713 10712 10709 ] final  -91.70 input   66.30 | X-H torsion
[ 10763 10752 10751 10750 ] final  -50.95 input  -60.55 | X-H torsion
[ 11005 11000 10999 10996 ] final  -51.09 input  -57.11 | X-H torsion

> <Gold.Protein.ActiveResidues>
 VAL166  LYS551  ARG553  GLY616  TRP617  ASP618  TYR619  PRO620  LYS621  CYS622 
 ASP623  PHE694  ASN695  SER759  ASP760  ASP761  ALA762  ILE779  LEU786  VAL792 
 PHE793  MET794  SER795  GLU796  ALA797  LYS798  CYS799  TRP800  GLU811  SER814 

> <Gold.Protein.RotatedAtoms>
  152.3497  133.6164  159.5935 H   0  0  0  0  0  0  0  0  0  0  0  0  # atno 6907 bound_to 6896
  150.7530  133.9594  159.3519 H   0  0  0  0  0  0  0  0  0  0  0  0  # atno 6908 bound_to 6896
  151.7448  135.0847  160.0372 H   0  0  0  0  0  0  0  0  0  0  0  0  # atno 6909 bound_to 6896
  144.9968  140.7783  143.4521 H   0  0  0  0  0  0  0  0  0  0  0  0  # atno 7974 bound_to 7965
  154.4163  140.1723  156.1815 H   0  0  0  0  0  0  0  0  0  0  0  0  # atno 8008 bound_to 7997
  155.9678  140.3388  155.6524 H   0  0  0  0  0  0  0  0  0  0  0  0  # atno 8009 bound_to 7997
  155.6665  140.0707  157.2526 H   0  0  0  0  0  0  0  0  0  0  0  0  # atno 8010 bound_to 7997
  139.7292  143.8836  152.2529 H   0  0  0  0  0  0  0  0  0  0  0  0  # atno 10167 bound_to 10162
  155.9996  130.4958  150.5514 H   0  0  0  0  0  0  0  0  0  0  0  0  # atno 10718 bound_to 10713
  154.1186  135.6538  153.4898 H   0  0  0  0  0  0  0  0  0  0  0  0  # atno 10763 bound_to 10752
  153.0233  135.5265  154.7119 H   0  0  0  0  0  0  0  0  0  0  0  0  # atno 10764 bound_to 10752
  154.6320  135.2977  155.0175 H   0  0  0  0  0  0  0  0  0  0  0  0  # atno 10765 bound_to 10752
  141.0852  133.6644  156.3827 H   0  0  0  0  0  0  0  0  0  0  0  0  # atno 11005 bound_to 11000
  145.2209  139.2159  143.5093 LP  0  0  0  0  0  0  0  0  0  0  0  0  # atno 17320 bound_to 7965
  146.3443  140.2066  142.8589 LP  0  0  0  0  0  0  0  0  0  0  0  0  # atno 17321 bound_to 7965
  139.8754  144.7046  150.8939 LP  0  0  0  0  0  0  0  0  0  0  0  0  # atno 17342 bound_to 10162
  140.7768  143.3704  151.1659 LP  0  0  0  0  0  0  0  0  0  0  0  0  # atno 17343 bound_to 10162
  157.3436  131.0721  151.1768 LP  0  0  0  0  0  0  0  0  0  0  0  0  # atno 17370 bound_to 10713
  157.2609  130.6658  149.5974 LP  0  0  0  0  0  0  0  0  0  0  0  0  # atno 17371 bound_to 10713
  140.5379  134.6149  157.5370 LP  0  0  0  0  0  0  0  0  0  0  0  0  # atno 17394 bound_to 11000
  139.9669  134.7357  156.0119 LP  0  0  0  0  0  0  0  0  0  0  0  0  # atno 17395 bound_to 11000

$$$$
