AV-unprocessed.smi:230|AV-procd|sdf|1763|dock10
  -GOLD-   2262020293D 1   1.00000     0.00000
 Structure written by MMmdl.
 56 59  0  0  0  0  0  0  0  0  1 V2000
  149.3374  141.0065  155.2330 C   0  0  0  0  0  0  0  0  0  0  0  0
  150.6232  140.7759  156.0388 C   0  0  0  0  0  0  0  0  0  0  0  0
  150.7008  141.5884  157.3582 C   0  0  2  0  0  0  0  0  0  0  0  0
  150.8748  143.0959  157.0646 C   0  0  0  0  0  0  0  0  0  0  0  0
  151.0426  143.8449  158.2656 O   0  0  0  0  0  0  0  0  0  0  0  0
  152.1405  143.4414  159.0857 C   0  0  0  0  0  0  0  0  0  0  0  0
  153.4942  143.7313  158.4023 C   0  0  0  0  0  0  0  0  0  0  0  0
  152.0291  144.2828  160.3666 C   0  0  0  0  0  0  0  0  0  0  0  0
  151.9698  141.9477  159.4248 C   0  0  0  0  0  0  0  0  0  0  0  0
  151.8019  141.1417  158.2204 N   0  0  0  0  0  0  0  0  0  0  0  0
  151.8474  139.8266  158.5349 C   0  0  0  0  0  0  0  0  0  0  0  0
  150.7070  139.0864  158.5590 N   0  0  0  0  0  0  0  0  0  0  0  0
  150.7606  137.7904  158.8814 C   0  0  0  0  0  0  0  0  0  0  0  0
  151.8251  137.0543  159.2096 N   0  0  0  0  0  0  0  0  0  0  0  0
  152.9679  137.7995  159.1922 C   0  0  0  0  0  0  0  0  0  0  0  0
  153.0655  139.1821  158.8734 C   0  0  0  0  0  0  0  0  0  0  0  0
  154.3858  139.6028  158.9643 N   0  0  0  0  0  0  0  0  0  0  0  0
  155.0356  138.5251  159.3118 C   0  0  0  0  0  0  0  0  0  0  0  0
  154.2632  137.3949  159.4635 N   0  0  0  0  0  0  0  0  0  0  0  0
  154.7253  136.0670  159.8373 C   0  0  0  0  0  0  0  0  0  0  0  0
  155.2555  135.9733  161.2897 C   0  0  0  0  0  0  0  0  0  0  0  0
  156.5826  136.4717  161.2955 O   0  0  0  0  0  0  0  0  0  0  0  0
  154.4031  136.8478  162.2313 C   0  0  0  0  0  0  0  0  0  0  0  0
  154.7868  136.6547  163.7097 C   0  0  0  0  0  0  0  0  0  0  0  0
  154.6980  135.2790  164.0599 O   0  0  0  0  0  0  0  0  0  0  0  0
  155.6054  134.4655  163.3266 C   0  0  0  0  0  0  0  0  0  0  0  0
  155.2756  134.5245  161.8244 C   0  0  0  0  0  0  0  0  0  0  0  0
  149.2985  140.3374  154.3734 H   0  0  0  0  0  0  0  0  0  0  0  0
  149.2748  142.0254  154.8516 H   0  0  0  0  0  0  0  0  0  0  0  0
  148.4526  140.8159  155.8411 H   0  0  0  0  0  0  0  0  0  0  0  0
  150.6795  139.7076  156.2466 H   0  0  0  0  0  0  0  0  0  0  0  0
  151.4878  141.0039  155.4143 H   0  0  0  0  0  0  0  0  0  0  0  0
  149.7685  141.4552  157.9095 H   0  0  0  0  0  0  0  0  0  0  0  0
  151.7110  143.2708  156.3877 H   0  0  0  0  0  0  0  0  0  0  0  0
  149.9912  143.4890  156.5630 H   0  0  0  0  0  0  0  0  0  0  0  0
  154.3236  143.5251  159.0794 H   0  0  0  0  0  0  0  0  0  0  0  0
  153.5664  144.7772  158.1023 H   0  0  0  0  0  0  0  0  0  0  0  0
  153.6538  143.1205  157.5141 H   0  0  0  0  0  0  0  0  0  0  0  0
  152.8146  144.0283  161.0789 H   0  0  0  0  0  0  0  0  0  0  0  0
  151.0702  144.1244  160.8618 H   0  0  0  0  0  0  0  0  0  0  0  0
  152.1125  145.3478  160.1473 H   0  0  0  0  0  0  0  0  0  0  0  0
  152.8306  141.5977  159.9975 H   0  0  0  0  0  0  0  0  0  0  0  0
  151.0925  141.8110  160.0596 H   0  0  0  0  0  0  0  0  0  0  0  0
  149.8150  137.2684  158.8756 H   0  0  0  0  0  0  0  0  0  0  0  0
  156.1055  138.5221  159.4623 H   0  0  0  0  0  0  0  0  0  0  0  0
  153.9036  135.3652  159.6870 H   0  0  0  0  0  0  0  0  0  0  0  0
  155.5060  135.7717  159.1353 H   0  0  0  0  0  0  0  0  0  0  0  0
  157.1581  135.7893  161.6054 H   0  0  0  0  0  0  0  0  0  0  0  0
  154.4863  137.9003  161.9571 H   0  0  0  0  0  0  0  0  0  0  0  0
  153.3511  136.5845  162.1129 H   0  0  0  0  0  0  0  0  0  0  0  0
  155.7923  137.0284  163.9084 H   0  0  0  0  0  0  0  0  0  0  0  0
  154.1090  137.2229  164.3471 H   0  0  0  0  0  0  0  0  0  0  0  0
  156.6319  134.7826  163.5168 H   0  0  0  0  0  0  0  0  0  0  0  0
  155.5230  133.4393  163.6848 H   0  0  0  0  0  0  0  0  0  0  0  0
  154.2963  134.0706  161.6672 H   0  0  0  0  0  0  0  0  0  0  0  0
  155.9887  133.9135  161.2699 H   0  0  0  0  0  0  0  0  0  0  0  0
  1  2  1  0  0  0  0
  1 28  1  0  0  0  0
  1 29  1  0  0  0  0
  1 30  1  0  0  0  0
  2  3  1  0  0  0  0
  2 31  1  0  0  0  0
  2 32  1  0  0  0  0
  3 10  1  0  0  0  0
  3  4  1  0  0  0  0
  3 33  1  0  0  0  0
  4  5  1  0  0  0  0
  4 34  1  0  0  0  0
  4 35  1  0  0  0  0
  5  6  1  0  0  0  0
  6  7  1  0  0  0  0
  6  8  1  0  0  0  0
  6  9  1  0  0  0  0
  7 36  1  0  0  0  0
  7 37  1  0  0  0  0
  7 38  1  0  0  0  0
  8 39  1  0  0  0  0
  8 40  1  0  0  0  0
  8 41  1  0  0  0  0
  9 10  1  0  0  0  0
  9 42  1  0  0  0  0
  9 43  1  0  0  0  0
 10 11  1  0  0  0  0
 11 16  1  0  0  0  0
 11 12  2  0  0  0  0
 12 13  1  0  0  0  0
 13 14  2  0  0  0  0
 13 44  1  0  0  0  0
 14 15  1  0  0  0  0
 15 19  1  0  0  0  0
 15 16  2  0  0  0  0
 16 17  1  0  0  0  0
 17 18  2  0  0  0  0
 18 19  1  0  0  0  0
 18 45  1  0  0  0  0
 19 20  1  0  0  0  0
 20 21  1  0  0  0  0
 20 46  1  0  0  0  0
 20 47  1  0  0  0  0
 21 27  1  0  0  0  0
 21 22  1  0  0  0  0
 21 23  1  0  0  0  0
 22 48  1  0  0  0  0
 23 24  1  0  0  0  0
 23 49  1  0  0  0  0
 23 50  1  0  0  0  0
 24 25  1  0  0  0  0
 24 51  1  0  0  0  0
 24 52  1  0  0  0  0
 25 26  1  0  0  0  0
 26 27  1  0  0  0  0
 26 53  1  0  0  0  0
 26 54  1  0  0  0  0
 27 55  1  0  0  0  0
 27 56  1  0  0  0  0
M  END
> <s_m_source_file>
AV-unprocessed.smi

> <i_m_source_file_index>
230

> <i_lp_mmshare_version>
43012

> <i_f3d_flags>
0

> <s_epik_input>
W0NIM11DMShbQ0gzXSlPW0NIMl1bQ0BASF0oW0NIMl1bQ0gzXSlOKFtDSDJdMSljKG5bY0hdbjIpYyhjMjMpbltjSF1uM1tDSDJdQzQoW09IXSlbQ0gyXVtDSDJdT1tDSDJdW0NIMl00

> <s_epik_cmdline>
J2VwaWtfcHl0aG9uJywgJy1waCcsICc3LjAnLCAnLXRuJywgJzgnLCAnLW1hJywgJzIwMCcsICctbWV0YWxfYmluZGluZycsICctaW1hZScsICc8aW5maWxlLm1hZT4nLCAnLW9tYWUnLCAnPG91dGZpbGUubWFlPic=

> <r_lp_tautomer_probability>
1

> <r_epik_Ionization_Penalty>
0.000120535

> <r_epik_Ionization_Penalty_Charging>
0

> <r_epik_Ionization_Penalty_Neutral>
0.000120535

> <r_epik_State_Penalty>
-0

> <r_epik_Charging_Adjusted_Penalty>
0

> <i_epik_Tot_Q>
0

> <i_epik_Tot_abs_Q>
0

> <r_epik_Metal_State_Penalty>
-0

> <b_epik_Metal_Only>
0

> <s_lp_Force_Field>
OPLS_2005

> <r_lp_Energy>
33.8878

> <b_lp_Chiralities_Consistent>
1

> <s_lp_Variant>
AV-unprocessed.smi:230-1

> <Gold.Version>
5.8.1

> <Gold.Id.Protein>
6NUR|6NUR_protein|mol2

> <Gold.PLP.Fitness>
46.8448

> <Gold.PLP.PLP>
-43.4631

> <Gold.PLP.part.hbond>
-1.7292

> <Gold.PLP.part.metal>
0.0000

> <Gold.PLP.part.buried>
-4.2229

> <Gold.PLP.part.nonpolar>
-36.6057

> <Gold.PLP.part.repulsive>
0.2370

> <Gold.PLP.ligand.clash>
0.0000

> <Gold.PLP.ligand.torsion>
0.9485

> <Gold.PLP.Chemscore.Hbond>
1.7063

> <Gold.PLP.Chemscore.CHOScore>
0.0000

> <Gold.PLP.Chemscore.Metal>
0.0000

> <Gold.Chemscore.Hbonds>
donor molecule, donor type, donor heavy atom, donor atom, acceptor molecule, acceptor atom, score
      P1  H  6896  6907       L1    14  0.96
      P1  H  7997  8009       L1    17  1.00

> <Gold.PLP.Chemscore.Internal.Correction>
0.1601

> <Gold.Rescore>
     Score         DG    S(hbond)    S(metal)    S(lipo)     H(rot)  DE(clash)    DE(int)     intcor
     14.85     -17.14       1.02        0.00     118.83       2.21       0.25       2.04       ----

> <Gold.Chemscore.Fitness>
14.8464

> <Gold.Chemscore.DG>
-17.1390

> <Gold.Chemscore.ZeroCoef>
-5.4800

> <Gold.Chemscore.Hbond>
1.0227

> <Gold.Chemscore.Metal>
0.0000

> <Gold.Chemscore.Lipo>
118.8251

> <Gold.Chemscore.Internal_Hbond>
0.0000

> <Gold.Chemscore.DEClash>
0.2531

> <Gold.Chemscore.DEInternal>
2.0395

> <Gold.Chemscore.Rot>
2.2107

> <Gold.Chemscore.Internal.Correction>
   9.000000E+99

> <Gold.Chemscore.Hbonds>
donor molecule, donor type, donor heavy atom, donor atom, acceptor molecule, acceptor atom, score
      P1  H  6896  6907       L1    14  0.85
      P1  H  7997  8009       L1    17  0.35

> <Gold.Chemscore.Hbond.Weighted>
-3.4160

> <Gold.Chemscore.Metal.Weighted>
-0.0000

> <Gold.Chemscore.Lipo.Weighted>
-13.9025

> <Gold.Chemscore.Internal_Hbond.Weighted>
0.0000

> <Gold.Chemscore.DEClash.Weighted>
0.2531

> <Gold.Chemscore.DEInternal.Weighted>
2.0395

> <Gold.Chemscore.Rot.Weighted>
5.6595

> <Gold.Chemscore.Internal.Correction.Weighted>
   9.000000E+99

> <Gold.Protein.RotatedTorsions>
[ 6907 6896 6895 6894 ] final   -1.72 input  -60.11 | X-H torsion
[ 7974 7965 7964 7962 ] final   72.63 input  175.53 | X-H torsion
[ 8008 7997 7996 7995 ] final  123.34 input   59.86 | X-H torsion
[ 10167 10162 10161 10158 ] final   -6.89 input  -65.29 | X-H torsion
[ 10718 10713 10712 10709 ] final  125.46 input   66.30 | X-H torsion
[ 10763 10752 10751 10750 ] final   84.76 input  -60.55 | X-H torsion
[ 11005 11000 10999 10996 ] final  101.51 input  -57.11 | X-H torsion

> <Gold.Protein.ActiveResidues>
 VAL166  LYS551  ARG553  GLY616  TRP617  ASP618  TYR619  PRO620  LYS621  CYS622 
 ASP623  PHE694  ASN695  SER759  ASP760  ASP761  ALA762  ILE779  LEU786  VAL792 
 PHE793  MET794  SER795  GLU796  ALA797  LYS798  CYS799  TRP800  GLU811  SER814 

> <Gold.Protein.RotatedAtoms>
  151.5415  135.1068  159.9927 H   0  0  0  0  0  0  0  0  0  0  0  0  # atno 6907 bound_to 6896
  152.4533  133.7669  159.6788 H   0  0  0  0  0  0  0  0  0  0  0  0  # atno 6908 bound_to 6896
  150.8469  133.7782  159.3064 H   0  0  0  0  0  0  0  0  0  0  0  0  # atno 6909 bound_to 6896
  145.7509  139.2760  143.1431 H   0  0  0  0  0  0  0  0  0  0  0  0  # atno 7974 bound_to 7965
  156.2762  140.2765  156.1611 H   0  0  0  0  0  0  0  0  0  0  0  0  # atno 8008 bound_to 7997
  155.0752  140.0387  157.2639 H   0  0  0  0  0  0  0  0  0  0  0  0  # atno 8009 bound_to 7997
  154.7008  140.2648  155.6727 H   0  0  0  0  0  0  0  0  0  0  0  0  # atno 8010 bound_to 7997
  140.7011  143.6142  150.8674 H   0  0  0  0  0  0  0  0  0  0  0  0  # atno 10167 bound_to 10162
  157.5501  131.1094  150.8715 H   0  0  0  0  0  0  0  0  0  0  0  0  # atno 10718 bound_to 10713
  153.1411  135.4642  154.9497 H   0  0  0  0  0  0  0  0  0  0  0  0  # atno 10763 bound_to 10752
  154.7748  135.3170  154.8117 H   0  0  0  0  0  0  0  0  0  0  0  0  # atno 10764 bound_to 10752
  153.8640  135.6910  153.4834 H   0  0  0  0  0  0  0  0  0  0  0  0  # atno 10765 bound_to 10752
  139.8773  134.9186  156.4917 H   0  0  0  0  0  0  0  0  0  0  0  0  # atno 11005 bound_to 11000
  146.0357  140.8214  142.9854 LP  0  0  0  0  0  0  0  0  0  0  0  0  # atno 17320 bound_to 7965
  144.6850  140.2835  143.7288 LP  0  0  0  0  0  0  0  0  0  0  0  0  # atno 17321 bound_to 7965
  139.9865  143.5894  152.2925 LP  0  0  0  0  0  0  0  0  0  0  0  0  # atno 17342 bound_to 10162
  139.6534  144.7661  151.2104 LP  0  0  0  0  0  0  0  0  0  0  0  0  # atno 17343 bound_to 10162
  156.9243  130.5326  149.5279 LP  0  0  0  0  0  0  0  0  0  0  0  0  # atno 17370 bound_to 10713
  156.0570  130.5629  150.9112 LP  0  0  0  0  0  0  0  0  0  0  0  0  # atno 17371 bound_to 10713
  140.8654  133.8028  155.9308 LP  0  0  0  0  0  0  0  0  0  0  0  0  # atno 17394 bound_to 11000
  140.9007  134.2381  157.5043 LP  0  0  0  0  0  0  0  0  0  0  0  0  # atno 17395 bound_to 11000

$$$$
