AV-unprocessed.smi:845|AV-procd|sdf|3928|dock3
  -GOLD-   22720 1393D 1   1.00000     0.00000
 Structure written by MMmdl.
 43 44  0  0  0  0  0  0  0  0  2 V2000
  147.1250  141.1046  154.2574 C   0  0  0  0  0  0  0  0  0  0  0  0
  147.7989  139.9125  153.5502 C   0  0  0  0  0  0  0  0  0  0  0  0
  147.1250  139.6969  152.1820 C   0  0  0  0  0  0  0  0  0  0  0  0
  147.7754  138.6254  154.4269 C   0  0  1  0  0  0  0  0  0  0  0  0
  146.5256  137.7206  154.2314 C   0  0  0  0  0  0  0  0  0  0  0  0
  146.6824  136.7238  153.1725 N   0  0  0  0  0  0  0  0  0  0  0  0
  145.7114  135.9322  152.6952 C   0  0  0  0  0  0  0  0  0  0  0  0
  144.5564  135.9422  153.1212 O   0  0  0  0  0  0  0  0  0  0  0  0
  146.1704  135.1378  151.7125 N   0  0  0  0  0  0  0  0  0  0  0  0
  145.4607  134.1492  150.9809 C   0  0  0  0  0  0  0  0  0  0  0  0
  144.1286  134.1120  150.8594 N   0  0  0  0  0  0  0  0  0  0  0  0
  143.7025  133.0284  150.0870 C   0  0  0  0  0  0  0  0  0  0  0  0
  144.7310  132.2440  149.6270 C   0  0  0  0  0  0  0  0  0  0  0  0
  146.2848  132.8388  150.1487 S   0  0  0  0  0  0  0  0  0  0  0  0
  149.0687  137.8785  154.3464 N   0  3  0  0  0  0  0  0  0  0  0  0
  150.2796  138.7319  154.4238 C   0  0  0  0  0  0  0  0  0  0  0  0
  151.5301  137.8967  154.0996 C   0  0  0  0  0  0  0  0  0  0  0  0
  151.6117  136.7877  154.9877 O   0  0  0  0  0  0  0  0  0  0  0  0
  150.4873  135.9227  154.8736 C   0  0  0  0  0  0  0  0  0  0  0  0
  149.2079  136.6958  155.2315 C   0  0  0  0  0  0  0  0  0  0  0  0
  146.0855  140.8845  154.5028 H   0  0  0  0  0  0  0  0  0  0  0  0
  147.1328  141.9915  153.6230 H   0  0  0  0  0  0  0  0  0  0  0  0
  147.6369  141.3740  155.1813 H   0  0  0  0  0  0  0  0  0  0  0  0
  148.8340  140.1957  153.3591 H   0  0  0  0  0  0  0  0  0  0  0  0
  146.0877  139.3800  152.2965 H   0  0  0  0  0  0  0  0  0  0  0  0
  147.6391  138.9434  151.5860 H   0  0  0  0  0  0  0  0  0  0  0  0
  147.1257  140.6160  151.5954 H   0  0  0  0  0  0  0  0  0  0  0  0
  147.7184  138.9834  155.4561 H   0  0  0  0  0  0  0  0  0  0  0  0
  146.2225  137.2675  155.1753 H   0  0  0  0  0  0  0  0  0  0  0  0
  145.6817  138.3457  153.9385 H   0  0  0  0  0  0  0  0  0  0  0  0
  147.5997  136.6468  152.7577 H   0  0  0  0  0  0  0  0  0  0  0  0
  147.1406  135.2499  151.4580 H   0  0  0  0  0  0  0  0  0  0  0  0
  142.6454  132.8903  149.9144 H   0  0  0  0  0  0  0  0  0  0  0  0
  144.6687  131.3559  149.0156 H   0  0  0  0  0  0  0  0  0  0  0  0
  150.2041  139.5604  153.7187 H   0  0  0  0  0  0  0  0  0  0  0  0
  150.3743  139.1639  155.4203 H   0  0  0  0  0  0  0  0  0  0  0  0
  151.5075  137.5468  153.0662 H   0  0  0  0  0  0  0  0  0  0  0  0
  152.4277  138.5056  154.2095 H   0  0  0  0  0  0  0  0  0  0  0  0
  150.4267  135.5123  153.8646 H   0  0  0  0  0  0  0  0  0  0  0  0
  150.6196  135.0806  155.5529 H   0  0  0  0  0  0  0  0  0  0  0  0
  149.2693  137.0120  156.2719 H   0  0  0  0  0  0  0  0  0  0  0  0
  148.3430  136.0398  155.1380 H   0  0  0  0  0  0  0  0  0  0  0  0
  149.0804  137.5079  153.4070 H   0  0  0  0  0  0  0  0  0  0  0  0
  1  2  1  0  0  0  0
  1 21  1  0  0  0  0
  1 22  1  0  0  0  0
  1 23  1  0  0  0  0
  2  3  1  0  0  0  0
  2  4  1  0  0  0  0
  2 24  1  0  0  0  0
  3 25  1  0  0  0  0
  3 26  1  0  0  0  0
  3 27  1  0  0  0  0
  4  5  1  0  0  0  0
  4 15  1  0  0  0  0
  4 28  1  0  0  0  0
  5  6  1  0  0  0  0
  5 29  1  0  0  0  0
  5 30  1  0  0  0  0
  6  7  1  0  0  0  0
  6 31  1  0  0  0  0
  7  8  2  0  0  0  0
  7  9  1  0  0  0  0
  9 10  1  0  0  0  0
  9 32  1  0  0  0  0
 10 14  1  0  0  0  0
 10 11  2  0  0  0  0
 11 12  1  0  0  0  0
 12 13  2  0  0  0  0
 12 33  1  0  0  0  0
 13 14  1  0  0  0  0
 13 34  1  0  0  0  0
 15 20  1  0  0  0  0
 15 16  1  0  0  0  0
 15 43  1  0  0  0  0
 16 17  1  0  0  0  0
 16 35  1  0  0  0  0
 16 36  1  0  0  0  0
 17 18  1  0  0  0  0
 17 37  1  0  0  0  0
 17 38  1  0  0  0  0
 18 19  1  0  0  0  0
 19 20  1  0  0  0  0
 19 39  1  0  0  0  0
 19 40  1  0  0  0  0
 20 41  1  0  0  0  0
 20 42  1  0  0  0  0
M  CHG  1  15   1
M  END
> <s_m_source_file>
AV-unprocessed.smi

> <i_m_source_file_index>
845

> <i_lp_mmshare_version>
43012

> <i_f3d_flags>
0

> <s_epik_input>
W0NIMl0xW0NIMl1PW0NIMl1bQ0gyXU4xW0NASF0oW0NIXShbQ0gzXSlbQ0gzXSlbQ0gyXVtOSF1DKD1PKVtOSF1jMm5bY0hdW2NIXXMy

> <s_epik_cmdline>
J2VwaWtfcHl0aG9uJywgJy1waCcsICc3LjAnLCAnLXRuJywgJzgnLCAnLW1hJywgJzIwMCcsICctbWV0YWxfYmluZGluZycsICctaW1hZScsICc8aW5maWxlLm1hZT4nLCAnLW9tYWUnLCAnPG91dGZpbGUubWFlPic=

> <r_lp_tautomer_probability>
0.999

> <r_epik_Ionization_Penalty>
0.398341

> <r_epik_Ionization_Penalty_Charging>
0.398119

> <r_epik_Ionization_Penalty_Neutral>
0.000222117

> <r_epik_State_Penalty>
0.397286

> <r_epik_Charging_Adjusted_Penalty>
0.795404

> <i_epik_Tot_Q>
1

> <i_epik_Tot_abs_Q>
1

> <r_epik_Metal_State_Penalty>
0.407542

> <b_epik_Metal_Only>
0

> <s_lp_Force_Field>
OPLS_2005

> <r_lp_Energy>
31.69

> <b_lp_Chiralities_Consistent>
1

> <s_lp_Variant>
AV-unprocessed.smi:845-2

> <Gold.Version>
5.8.1

> <Gold.Id.Protein>
6NUR|6NUR_protein|mol2

> <Gold.PLP.Fitness>
45.7265

> <Gold.PLP.PLP>
-30.7127

> <Gold.PLP.part.hbond>
-4.0000

> <Gold.PLP.part.metal>
0.0000

> <Gold.PLP.part.buried>
-0.3650

> <Gold.PLP.part.nonpolar>
-27.1009

> <Gold.PLP.part.repulsive>
0.3840

> <Gold.PLP.ligand.clash>
0.0000

> <Gold.PLP.ligand.torsion>
1.3807

> <Gold.PLP.Chemscore.Hbond>
4.8600

> <Gold.PLP.Chemscore.CHOScore>
0.9720

> <Gold.PLP.Chemscore.Metal>
0.0000

> <Gold.Chemscore.Hbonds>
donor molecule, donor type, donor heavy atom, donor atom, acceptor molecule, acceptor atom, score
      L1  H     6    31       P1  7948  1.00
      L1  H     9    32       P1  7948  0.90
      L1  H    15    43       P1  7948  2.00
      P1  H 10752 10765       L1    18  1.00
      L1  C    12    33       P1 10186  1.00

> <Gold.PLP.Chemscore.Internal.Correction>
0.2790

> <Gold.Rescore>
     Score         DG    S(hbond)    S(metal)    S(lipo)     H(rot)  DE(clash)    DE(int)     intcor
     16.64     -20.16       2.95        0.00      80.79       1.80       1.65       1.87       ----

> <Gold.Chemscore.Fitness>
16.6389

> <Gold.Chemscore.DG>
-20.1593

> <Gold.Chemscore.ZeroCoef>
-5.4800

> <Gold.Chemscore.Hbond>
2.9480

> <Gold.Chemscore.Metal>
0.0000

> <Gold.Chemscore.Lipo>
80.7919

> <Gold.Chemscore.Internal_Hbond>
0.0000

> <Gold.Chemscore.DEClash>
1.6519

> <Gold.Chemscore.DEInternal>
1.8685

> <Gold.Chemscore.Rot>
1.8046

> <Gold.Chemscore.Internal.Correction>
   9.000000E+99

> <Gold.Chemscore.Hbonds>
donor molecule, donor type, donor heavy atom, donor atom, acceptor molecule, acceptor atom, score
      L1  H     6    31       P1  7948  1.00
      L1  H     9    32       P1  7948  0.75
      L1  H    15    43       P1  7948  0.97
      P1  H 10752 10765       L1    18  0.15

> <Gold.Chemscore.Hbond.Weighted>
-9.8464

> <Gold.Chemscore.Metal.Weighted>
-0.0000

> <Gold.Chemscore.Lipo.Weighted>
-9.4527

> <Gold.Chemscore.Internal_Hbond.Weighted>
0.0000

> <Gold.Chemscore.DEClash.Weighted>
1.6519

> <Gold.Chemscore.DEInternal.Weighted>
1.8685

> <Gold.Chemscore.Rot.Weighted>
4.6197

> <Gold.Chemscore.Internal.Correction.Weighted>
   9.000000E+99

> <Gold.Protein.RotatedTorsions>
[ 6907 6896 6895 6894 ] final  172.93 input  -60.11 | X-H torsion
[ 7974 7965 7964 7962 ] final   26.26 input  175.53 | X-H torsion
[ 8008 7997 7996 7995 ] final  112.16 input   59.86 | X-H torsion
[ 10167 10162 10161 10158 ] final  -66.65 input  -65.29 | X-H torsion
[ 10718 10713 10712 10709 ] final -130.09 input   66.30 | X-H torsion
[ 10763 10752 10751 10750 ] final  162.37 input  -60.55 | X-H torsion
[ 11005 11000 10999 10996 ] final    3.04 input  -57.11 | X-H torsion

> <Gold.Protein.ActiveResidues>
 VAL166  LYS551  ARG553  GLY616  TRP617  ASP618  TYR619  PRO620  LYS621  CYS622 
 ASP623  PHE694  ASN695  SER759  ASP760  ASP761  ALA762  ILE779  LEU786  VAL792 
 PHE793  MET794  SER795  GLU796  ALA797  LYS798  CYS799  TRP800  GLU811  SER814 

> <Gold.Protein.RotatedAtoms>
  151.7764  133.3345  159.3458 H   0  0  0  0  0  0  0  0  0  0  0  0  # atno 6907 bound_to 6896
  150.7442  134.5972  159.6027 H   0  0  0  0  0  0  0  0  0  0  0  0  # atno 6908 bound_to 6896
  152.3306  134.7265  160.0342 H   0  0  0  0  0  0  0  0  0  0  0  0  # atno 6909 bound_to 6896
  146.1846  139.7352  142.8875 H   0  0  0  0  0  0  0  0  0  0  0  0  # atno 7974 bound_to 7965
  156.2173  140.3005  155.9870 H   0  0  0  0  0  0  0  0  0  0  0  0  # atno 8008 bound_to 7997
  155.2572  140.0428  157.3010 H   0  0  0  0  0  0  0  0  0  0  0  0  # atno 8009 bound_to 7997
  154.5787  140.2369  155.8093 H   0  0  0  0  0  0  0  0  0  0  0  0  # atno 8010 bound_to 7997
  140.5641  143.2314  151.6669 H   0  0  0  0  0  0  0  0  0  0  0  0  # atno 10167 bound_to 10162
  156.2110  130.6918  151.0649 H   0  0  0  0  0  0  0  0  0  0  0  0  # atno 10718 bound_to 10713
  154.2773  135.2764  155.2712 H   0  0  0  0  0  0  0  0  0  0  0  0  # atno 10763 bound_to 10752
  154.5249  135.5746  153.6714 H   0  0  0  0  0  0  0  0  0  0  0  0  # atno 10764 bound_to 10752
  152.9935  135.6213  154.2931 H   0  0  0  0  0  0  0  0  0  0  0  0  # atno 10765 bound_to 10752
  140.5975  133.9866  155.8117 H   0  0  0  0  0  0  0  0  0  0  0  0  # atno 11005 bound_to 11000
  145.3975  141.0381  143.3089 LP  0  0  0  0  0  0  0  0  0  0  0  0  # atno 17320 bound_to 7965
  144.8375  139.5526  143.6915 LP  0  0  0  0  0  0  0  0  0  0  0  0  # atno 17321 bound_to 7965
  139.5084  144.3611  152.0561 LP  0  0  0  0  0  0  0  0  0  0  0  0  # atno 17342 bound_to 10162
  140.2741  144.3932  150.6141 LP  0  0  0  0  0  0  0  0  0  0  0  0  # atno 17343 bound_to 10162
  157.7038  131.0765  150.6733 LP  0  0  0  0  0  0  0  0  0  0  0  0  # atno 17370 bound_to 10713
  156.6793  130.4562  149.5633 LP  0  0  0  0  0  0  0  0  0  0  0  0  # atno 17371 bound_to 10713
  141.0894  133.9940  157.3261 LP  0  0  0  0  0  0  0  0  0  0  0  0  # atno 17394 bound_to 11000
  139.9247  135.0201  156.8190 LP  0  0  0  0  0  0  0  0  0  0  0  0  # atno 17395 bound_to 11000

$$$$
