AV-unprocessed.smi:3336|AV-procd|sdf|12860|dock4
  -GOLD-   2272019253D 1   1.00000     0.00000
 Structure written by MMmdl.
 41 42  0  0  0  0  0  0  0  0  1 V2000
  146.0286  136.7253  153.7217 C   0  0  0  0  0  0  0  0  0  0  0  0
  146.6673  135.6214  154.5798 C   0  0  1  0  0  0  0  0  0  0  0  0
  146.0854  134.2174  154.2727 C   0  0  0  0  0  0  0  0  0  0  0  0
  146.0981  133.8639  152.8619 N   0  0  0  0  0  0  0  0  0  0  0  0
  146.7495  132.8156  152.2457 C   0  0  0  0  0  0  0  0  0  0  0  0
  146.4737  132.8925  150.9106 C   0  0  0  0  0  0  0  0  0  0  0  0
  145.6388  134.0396  150.8039 C   0  0  0  0  0  0  0  0  0  0  0  0
  145.4205  134.6216  151.9716 N   0  0  0  0  0  0  0  0  0  0  0  0
  148.1168  135.7016  154.3740 N   0  0  0  0  0  0  0  0  0  0  0  0
  148.9505  135.9512  155.5692 C   0  0  1  0  0  0  0  0  0  0  0  0
  148.9872  134.6800  156.4322 C   0  0  0  0  0  0  0  0  0  0  0  0
  150.3913  136.4116  155.2449 C   0  0  0  0  0  0  0  0  0  0  0  0
  151.3193  135.6555  155.5394 O   0  0  0  0  0  0  0  0  0  0  0  0
  150.6124  137.6165  154.6604 N   0  0  0  0  0  0  0  0  0  0  0  0
  149.6231  138.6713  154.4054 C   0  0  0  0  0  0  0  0  0  0  0  0
  150.0004  139.9089  155.2403 C   0  0  0  0  0  0  0  0  0  0  0  0
  151.3204  140.3326  154.9120 O   0  0  0  0  0  0  0  0  0  0  0  0
  152.2981  139.3207  155.1342 C   0  0  0  0  0  0  0  0  0  0  0  0
  151.9539  138.0817  154.2900 C   0  0  0  0  0  0  0  0  0  0  0  0
  144.9428  136.7169  153.8197 H   0  0  0  0  0  0  0  0  0  0  0  0
  146.2676  136.6085  152.6641 H   0  0  0  0  0  0  0  0  0  0  0  0
  146.3759  137.7121  154.0299 H   0  0  0  0  0  0  0  0  0  0  0  0
  146.4339  135.8596  155.6170 H   0  0  0  0  0  0  0  0  0  0  0  0
  146.5970  133.4392  154.8393 H   0  0  0  0  0  0  0  0  0  0  0  0
  145.0493  134.1813  154.6113 H   0  0  0  0  0  0  0  0  0  0  0  0
  147.3460  132.1089  152.8039 H   0  0  0  0  0  0  0  0  0  0  0  0
  146.8166  132.2307  150.1293 H   0  0  0  0  0  0  0  0  0  0  0  0
  145.1900  134.4653  149.9183 H   0  0  0  0  0  0  0  0  0  0  0  0
  148.3128  136.3781  153.6499 H   0  0  0  0  0  0  0  0  0  0  0  0
  148.4408  136.7209  156.1409 H   0  0  0  0  0  0  0  0  0  0  0  0
  149.5524  134.8336  157.3517 H   0  0  0  0  0  0  0  0  0  0  0  0
  149.4444  133.8464  155.8974 H   0  0  0  0  0  0  0  0  0  0  0  0
  147.9802  134.3761  156.7195 H   0  0  0  0  0  0  0  0  0  0  0  0
  149.6274  138.9182  153.3428 H   0  0  0  0  0  0  0  0  0  0  0  0
  148.5987  138.3995  154.6451 H   0  0  0  0  0  0  0  0  0  0  0  0
  149.3079  140.7258  155.0374 H   0  0  0  0  0  0  0  0  0  0  0  0
  149.9342  139.6914  156.3075 H   0  0  0  0  0  0  0  0  0  0  0  0
  153.2772  139.7091  154.8539 H   0  0  0  0  0  0  0  0  0  0  0  0
  152.3440  139.0692  156.1949 H   0  0  0  0  0  0  0  0  0  0  0  0
  152.7247  137.3219  154.4234 H   0  0  0  0  0  0  0  0  0  0  0  0
  151.9663  138.3360  153.2289 H   0  0  0  0  0  0  0  0  0  0  0  0
  1  2  1  0  0  0  0
  1 20  1  0  0  0  0
  1 21  1  0  0  0  0
  1 22  1  0  0  0  0
  2  3  1  0  0  0  0
  2  9  1  0  0  0  0
  2 23  1  0  0  0  0
  3  4  1  0  0  0  0
  3 24  1  0  0  0  0
  3 25  1  0  0  0  0
  4  8  1  0  0  0  0
  4  5  1  0  0  0  0
  5  6  2  0  0  0  0
  5 26  1  0  0  0  0
  6  7  1  0  0  0  0
  6 27  1  0  0  0  0
  7  8  2  0  0  0  0
  7 28  1  0  0  0  0
  9 10  1  0  0  0  0
  9 29  1  0  0  0  0
 10 11  1  0  0  0  0
 10 12  1  0  0  0  0
 10 30  1  0  0  0  0
 11 31  1  0  0  0  0
 11 32  1  0  0  0  0
 11 33  1  0  0  0  0
 12 13  2  0  0  0  0
 12 14  1  0  0  0  0
 14 19  1  0  0  0  0
 14 15  1  0  0  0  0
 15 16  1  0  0  0  0
 15 34  1  0  0  0  0
 15 35  1  0  0  0  0
 16 17  1  0  0  0  0
 16 36  1  0  0  0  0
 16 37  1  0  0  0  0
 17 18  1  0  0  0  0
 18 19  1  0  0  0  0
 18 38  1  0  0  0  0
 18 39  1  0  0  0  0
 19 40  1  0  0  0  0
 19 41  1  0  0  0  0
M  END
> <s_m_source_file>
AV-unprocessed.smi

> <i_m_source_file_index>
3336

> <i_lp_mmshare_version>
43012

> <i_f3d_flags>
0

> <s_epik_input>
bjFbY0hdW2NIXVtjSF1uMVtDSDJdW0NAQEhdKFtDSDNdKVtOSF1bQ0BIXShbQ0gzXSlDKD1PKU4yW0NIMl1bQ0gyXU9bQ0gyXVtDSDJdMg==

> <s_epik_cmdline>
J2VwaWtfcHl0aG9uJywgJy1waCcsICc3LjAnLCAnLXRuJywgJzgnLCAnLW1hJywgJzIwMCcsICctbWV0YWxfYmluZGluZycsICctaW1hZScsICc8aW5maWxlLm1hZT4nLCAnLW9tYWUnLCAnPG91dGZpbGUubWFlPic=

> <r_lp_tautomer_probability>
1

> <r_epik_Ionization_Penalty>
0.739958

> <r_epik_Ionization_Penalty_Charging>
0

> <r_epik_Ionization_Penalty_Neutral>
0.739958

> <r_epik_State_Penalty>
0.765967

> <r_epik_Charging_Adjusted_Penalty>
0.765967

> <i_epik_Tot_Q>
0

> <i_epik_Tot_abs_Q>
0

> <r_epik_Metal_State_Penalty>
0.765947

> <b_epik_Metal_Only>
0

> <s_lp_Force_Field>
OPLS_2005

> <r_lp_Energy>
28.3858

> <b_lp_Chiralities_Consistent>
1

> <s_lp_Variant>
AV-unprocessed.smi:3336-8

> <Gold.Version>
5.8.1

> <Gold.Id.Protein>
6NUR|6NUR_protein|mol2

> <Gold.PLP.Fitness>
37.7616

> <Gold.PLP.PLP>
-28.9081

> <Gold.PLP.part.hbond>
-3.0000

> <Gold.PLP.part.metal>
0.0000

> <Gold.PLP.part.buried>
-4.5011

> <Gold.PLP.part.nonpolar>
-22.4618

> <Gold.PLP.part.repulsive>
0.2341

> <Gold.PLP.ligand.clash>
0.0000

> <Gold.PLP.ligand.torsion>
1.0286

> <Gold.PLP.Chemscore.Hbond>
2.6240

> <Gold.PLP.Chemscore.CHOScore>
0.9929

> <Gold.PLP.Chemscore.Metal>
0.0000

> <Gold.Chemscore.Hbonds>
donor molecule, donor type, donor heavy atom, donor atom, acceptor molecule, acceptor atom, score
      L1  H     9    29       P1  7948  0.66
      P1  H  7989  7998       L1    17  1.00
      P1  H 10752 10763       L1    13  1.00
      L1  C     7    28       P1  7921  1.00

> <Gold.PLP.Chemscore.Internal.Correction>
0.0602

> <Gold.Rescore>
     Score         DG    S(hbond)    S(metal)    S(lipo)     H(rot)  DE(clash)    DE(int)     intcor
     14.38     -16.68       2.57        0.00      61.50       1.79       0.07       2.23       ----

> <Gold.Chemscore.Fitness>
14.3832

> <Gold.Chemscore.DG>
-16.6812

> <Gold.Chemscore.ZeroCoef>
-5.4800

> <Gold.Chemscore.Hbond>
2.5739

> <Gold.Chemscore.Metal>
0.0000

> <Gold.Chemscore.Lipo>
61.5010

> <Gold.Chemscore.Internal_Hbond>
0.0000

> <Gold.Chemscore.DEClash>
0.0668

> <Gold.Chemscore.DEInternal>
2.2312

> <Gold.Chemscore.Rot>
1.7935

> <Gold.Chemscore.Internal.Correction>
   9.000000E+99

> <Gold.Chemscore.Hbonds>
donor molecule, donor type, donor heavy atom, donor atom, acceptor molecule, acceptor atom, score
      L1  H     9    29       P1  7948  0.66
      P1  H  7989  7998       L1    17  0.41
      P1  H 10752 10763       L1    13  0.98

> <Gold.Chemscore.Hbond.Weighted>
-8.5968

> <Gold.Chemscore.Metal.Weighted>
-0.0000

> <Gold.Chemscore.Lipo.Weighted>
-7.1956

> <Gold.Chemscore.Internal_Hbond.Weighted>
0.0000

> <Gold.Chemscore.DEClash.Weighted>
0.0668

> <Gold.Chemscore.DEInternal.Weighted>
2.2312

> <Gold.Chemscore.Rot.Weighted>
4.5912

> <Gold.Chemscore.Internal.Correction.Weighted>
   9.000000E+99

> <Gold.Protein.RotatedTorsions>
[ 6907 6896 6895 6894 ] final   79.91 input  -60.11 | X-H torsion
[ 7974 7965 7964 7962 ] final  -65.17 input  175.53 | X-H torsion
[ 8008 7997 7996 7995 ] final  139.48 input   59.86 | X-H torsion
[ 10167 10162 10161 10158 ] final -139.43 input  -65.29 | X-H torsion
[ 10718 10713 10712 10709 ] final   49.68 input   66.30 | X-H torsion
[ 10763 10752 10751 10750 ] final   86.55 input  -60.55 | X-H torsion
[ 11005 11000 10999 10996 ] final   26.63 input  -57.11 | X-H torsion

> <Gold.Protein.ActiveResidues>
 VAL166  LYS551  ARG553  GLY616  TRP617  ASP618  TYR619  PRO620  LYS621  CYS622 
 ASP623  PHE694  ASN695  SER759  ASP760  ASP761  ALA762  ILE779  LEU786  VAL792 
 PHE793  MET794  SER795  GLU796  ALA797  LYS798  CYS799  TRP800  GLU811  SER814 

> <Gold.Protein.RotatedAtoms>
  152.5216  134.3439  159.9226 H   0  0  0  0  0  0  0  0  0  0  0  0  # atno 6907 bound_to 6896
  151.3389  133.3964  159.2677 H   0  0  0  0  0  0  0  0  0  0  0  0  # atno 6908 bound_to 6896
  150.9819  134.9191  159.7907 H   0  0  0  0  0  0  0  0  0  0  0  0  # atno 6909 bound_to 6896
  145.7576  140.8878  143.0447 H   0  0  0  0  0  0  0  0  0  0  0  0  # atno 7974 bound_to 7965
  156.2989  140.2366  156.4244 H   0  0  0  0  0  0  0  0  0  0  0  0  # atno 8008 bound_to 7997
  154.8327  140.0432  157.1508 H   0  0  0  0  0  0  0  0  0  0  0  0  # atno 8009 bound_to 7997
  154.9190  140.3001  155.5230 H   0  0  0  0  0  0  0  0  0  0  0  0  # atno 8010 bound_to 7997
  139.8380  143.7359  152.2664 H   0  0  0  0  0  0  0  0  0  0  0  0  # atno 10167 bound_to 10162
  157.4810  130.8315  149.8094 H   0  0  0  0  0  0  0  0  0  0  0  0  # atno 10718 bound_to 10713
  153.1581  135.4576  154.9734 H   0  0  0  0  0  0  0  0  0  0  0  0  # atno 10763 bound_to 10752
  154.7877  135.3209  154.7851 H   0  0  0  0  0  0  0  0  0  0  0  0  # atno 10764 bound_to 10752
  153.8345  135.6935  153.4865 H   0  0  0  0  0  0  0  0  0  0  0  0  # atno 10765 bound_to 10752
  140.3350  134.2396  155.7697 H   0  0  0  0  0  0  0  0  0  0  0  0  # atno 11005 bound_to 11000
  144.6837  139.9677  143.7481 LP  0  0  0  0  0  0  0  0  0  0  0  0  # atno 17320 bound_to 7965
  146.0296  139.3323  143.0763 LP  0  0  0  0  0  0  0  0  0  0  0  0  # atno 17321 bound_to 7965
  139.7587  144.7513  151.0396 LP  0  0  0  0  0  0  0  0  0  0  0  0  # atno 17342 bound_to 10162
  140.7801  143.4775  151.0062 LP  0  0  0  0  0  0  0  0  0  0  0  0  # atno 17343 bound_to 10162
  156.0122  130.3828  150.2228 LP  0  0  0  0  0  0  0  0  0  0  0  0  # atno 17370 bound_to 10713
  157.0414  131.0036  151.3282 LP  0  0  0  0  0  0  0  0  0  0  0  0  # atno 17371 bound_to 10713
  141.2053  133.7862  157.0237 LP  0  0  0  0  0  0  0  0  0  0  0  0  # atno 17394 bound_to 11000
  140.0829  134.9638  157.1653 LP  0  0  0  0  0  0  0  0  0  0  0  0  # atno 17395 bound_to 11000

$$$$
