AV-unprocessed.smi:767|AV-procd|sdf|3659|dock1
  -GOLD-   22720 1 63D 1   1.00000     0.00000
 Structure written by MMmdl.
 47 49  0  0  0  0  0  0  0  0  1 V2000
  152.1587  144.7479  159.9567 C   0  0  0  0  0  0  0  0  0  0  0  0
  152.1602  143.2344  159.9057 C   0  0  0  0  0  0  0  0  0  0  0  0
  153.0812  142.4878  160.6700 C   0  0  0  0  0  0  0  0  0  0  0  0
  153.0417  141.0833  160.5817 C   0  0  0  0  0  0  0  0  0  0  0  0
  152.0845  140.4806  159.7399 C   0  0  0  0  0  0  0  0  0  0  0  0
  151.9889  138.9690  159.6252 C   0  0  0  0  0  0  0  0  0  0  0  0
  150.9122  138.4946  158.6286 C   0  0  0  0  0  0  0  0  0  0  0  0
  149.6579  138.1304  159.2801 N   0  0  0  0  0  0  0  0  0  0  0  0
  149.1738  136.8853  159.3804 C   0  0  0  0  0  0  0  0  0  0  0  0
  149.7189  135.8899  158.9033 O   0  0  0  0  0  0  0  0  0  0  0  0
  148.0341  136.8560  160.0820 N   0  0  0  0  0  0  0  0  0  0  0  0
  147.2785  135.6448  160.4043 C   0  0  2  0  0  0  0  0  0  0  0  0
  145.7655  135.7933  160.1247 C   0  0  2  0  0  0  0  0  0  0  0  0
  145.1836  136.9569  159.3592 C   0  0  0  0  0  0  0  0  0  0  0  0
  144.7373  137.9086  160.4732 C   0  0  0  0  0  0  0  0  0  0  0  0
  145.4844  137.5082  161.6201 O   0  0  0  0  0  0  0  0  0  0  0  0
  145.5830  136.0857  161.6050 C   0  0  2  0  0  0  0  0  0  0  0  0
  146.9722  135.4929  161.9196 C   0  0  0  0  0  0  0  0  0  0  0  0
  146.9371  134.0418  162.4078 C   0  0  0  0  0  0  0  0  0  0  0  0
  147.8243  136.2663  162.9348 C   0  0  0  0  0  0  0  0  0  0  0  0
  151.2114  141.3184  159.0152 C   0  0  0  0  0  0  0  0  0  0  0  0
  151.2431  142.6664  159.0915 N   0  0  0  0  0  0  0  0  0  0  0  0
  152.7124  145.1120  160.8225 H   0  0  0  0  0  0  0  0  0  0  0  0
  151.1397  145.1310  160.0223 H   0  0  0  0  0  0  0  0  0  0  0  0
  152.6224  145.1550  159.0580 H   0  0  0  0  0  0  0  0  0  0  0  0
  153.8009  142.9763  161.3103 H   0  0  0  0  0  0  0  0  0  0  0  0
  153.7299  140.4811  161.1561 H   0  0  0  0  0  0  0  0  0  0  0  0
  152.9621  138.5750  159.3310 H   0  0  0  0  0  0  0  0  0  0  0  0
  151.7828  138.5524  160.6119 H   0  0  0  0  0  0  0  0  0  0  0  0
  150.6879  139.2999  157.9289 H   0  0  0  0  0  0  0  0  0  0  0  0
  151.2850  137.6619  158.0304 H   0  0  0  0  0  0  0  0  0  0  0  0
  149.1368  138.8790  159.7124 H   0  0  0  0  0  0  0  0  0  0  0  0
  147.6714  137.7264  160.4426 H   0  0  0  0  0  0  0  0  0  0  0  0
  147.6903  134.7388  159.9556 H   0  0  0  0  0  0  0  0  0  0  0  0
  145.3251  134.8309  159.8594 H   0  0  0  0  0  0  0  0  0  0  0  0
  145.9168  137.4272  158.7044 H   0  0  0  0  0  0  0  0  0  0  0  0
  144.3387  136.6592  158.7375 H   0  0  0  0  0  0  0  0  0  0  0  0
  144.9146  138.9556  160.2272 H   0  0  0  0  0  0  0  0  0  0  0  0
  143.6739  137.7814  160.6810 H   0  0  0  0  0  0  0  0  0  0  0  0
  144.7280  135.5821  162.0586 H   0  0  0  0  0  0  0  0  0  0  0  0
  146.4977  133.9634  163.4027 H   0  0  0  0  0  0  0  0  0  0  0  0
  147.9381  133.6117  162.4540 H   0  0  0  0  0  0  0  0  0  0  0  0
  146.3460  133.4081  161.7458 H   0  0  0  0  0  0  0  0  0  0  0  0
  147.4284  136.1693  163.9461 H   0  0  0  0  0  0  0  0  0  0  0  0
  147.8609  137.3334  162.7154 H   0  0  0  0  0  0  0  0  0  0  0  0
  148.8521  135.9031  162.9486 H   0  0  0  0  0  0  0  0  0  0  0  0
  150.4634  140.8961  158.3603 H   0  0  0  0  0  0  0  0  0  0  0  0
  1  2  1  0  0  0  0
  1 23  1  0  0  0  0
  1 24  1  0  0  0  0
  1 25  1  0  0  0  0
  2 22  1  0  0  0  0
  2  3  2  0  0  0  0
  3  4  1  0  0  0  0
  3 26  1  0  0  0  0
  4  5  2  0  0  0  0
  4 27  1  0  0  0  0
  5  6  1  0  0  0  0
  5 21  1  0  0  0  0
  6  7  1  0  0  0  0
  6 28  1  0  0  0  0
  6 29  1  0  0  0  0
  7  8  1  0  0  0  0
  7 30  1  0  0  0  0
  7 31  1  0  0  0  0
  8  9  1  0  0  0  0
  8 32  1  0  0  0  0
  9 10  2  0  0  0  0
  9 11  1  0  0  0  0
 11 12  1  0  0  0  0
 11 33  1  0  0  0  0
 12 18  1  0  0  0  0
 12 13  1  0  0  0  0
 12 34  1  0  0  0  0
 13 17  1  0  0  0  0
 13 14  1  0  0  0  0
 13 35  1  0  0  0  0
 14 15  1  0  0  0  0
 14 36  1  0  0  0  0
 14 37  1  0  0  0  0
 15 16  1  0  0  0  0
 15 38  1  0  0  0  0
 15 39  1  0  0  0  0
 16 17  1  0  0  0  0
 17 18  1  0  0  0  0
 17 40  1  0  0  0  0
 18 19  1  0  0  0  0
 18 20  1  0  0  0  0
 19 41  1  0  0  0  0
 19 42  1  0  0  0  0
 19 43  1  0  0  0  0
 20 44  1  0  0  0  0
 20 45  1  0  0  0  0
 20 46  1  0  0  0  0
 21 22  2  0  0  0  0
 21 47  1  0  0  0  0
M  END
> <s_m_source_file>
AV-unprocessed.smi

> <i_m_source_file_index>
767

> <i_lp_mmshare_version>
43012

> <i_f3d_flags>
0

> <s_epik_input>
W0NIM11jMVtjSF1bY0hdYyhbY0hdbjEpW0NIMl1bQ0gyXVtOSF1DKD1PKVtOSF1bQ0BIXTJDKFtDSDNdKShbQ0gzXSlbQ0BIXShbQ0BASF0yMylPW0NIMl1bQ0gyXTM=

> <s_epik_cmdline>
J2VwaWtfcHl0aG9uJywgJy1waCcsICc3LjAnLCAnLXRuJywgJzgnLCAnLW1hJywgJzIwMCcsICctbWV0YWxfYmluZGluZycsICctaW1hZScsICc8aW5maWxlLm1hZT4nLCAnLW9tYWUnLCAnPG91dGZpbGUubWFlPic=

> <r_epik_Ionization_Penalty>
0.0567523

> <r_epik_Ionization_Penalty_Charging>
0

> <r_epik_Ionization_Penalty_Neutral>
0.0567523

> <r_epik_State_Penalty>
0.0489186

> <r_epik_Charging_Adjusted_Penalty>
0.0489186

> <i_epik_Tot_Q>
0

> <i_epik_Tot_abs_Q>
0

> <r_epik_Metal_State_Penalty>
0.044622

> <b_epik_Metal_Only>
0

> <s_lp_Force_Field>
OPLS_2005

> <r_lp_Energy>
34.1608

> <b_lp_Chiralities_Consistent>
1

> <s_lp_Variant>
AV-unprocessed.smi:767-3

> <Gold.Version>
5.8.1

> <Gold.Id.Protein>
6NUR|6NUR_protein|mol2

> <Gold.PLP.Fitness>
46.3472

> <Gold.PLP.PLP>
-41.2846

> <Gold.PLP.part.hbond>
-2.0000

> <Gold.PLP.part.metal>
0.0000

> <Gold.PLP.part.buried>
-4.3647

> <Gold.PLP.part.nonpolar>
-34.9323

> <Gold.PLP.part.repulsive>
0.4633

> <Gold.PLP.ligand.clash>
0.0000

> <Gold.PLP.ligand.torsion>
0.4052

> <Gold.PLP.Chemscore.Hbond>
1.8800

> <Gold.PLP.Chemscore.CHOScore>
0.0000

> <Gold.PLP.Chemscore.Metal>
0.0000

> <Gold.Chemscore.Hbonds>
donor molecule, donor type, donor heavy atom, donor atom, acceptor molecule, acceptor atom, score
      P1  H  6896  6909       L1    10  1.00
      P1  H  6934  6947       L1    16  0.06

> <Gold.PLP.Chemscore.Internal.Correction>
0.2330

> <Gold.Rescore>
     Score         DG    S(hbond)    S(metal)    S(lipo)     H(rot)  DE(clash)    DE(int)     intcor
     18.49     -19.26       1.74        0.00      99.71       1.45       0.42       0.35       ----

> <Gold.Chemscore.Fitness>
18.4894

> <Gold.Chemscore.DG>
-19.2589

> <Gold.Chemscore.ZeroCoef>
-5.4800

> <Gold.Chemscore.Hbond>
1.7439

> <Gold.Chemscore.Metal>
0.0000

> <Gold.Chemscore.Lipo>
99.7058

> <Gold.Chemscore.Internal_Hbond>
0.0000

> <Gold.Chemscore.DEClash>
0.4212

> <Gold.Chemscore.DEInternal>
0.3483

> <Gold.Chemscore.Rot>
1.4497

> <Gold.Chemscore.Internal.Correction>
   9.000000E+99

> <Gold.Chemscore.Hbonds>
donor molecule, donor type, donor heavy atom, donor atom, acceptor molecule, acceptor atom, score
      P1  H  6896  6909       L1    10  1.00

> <Gold.Chemscore.Hbond.Weighted>
-5.8245

> <Gold.Chemscore.Metal.Weighted>
-0.0000

> <Gold.Chemscore.Lipo.Weighted>
-11.6656

> <Gold.Chemscore.Internal_Hbond.Weighted>
0.0000

> <Gold.Chemscore.DEClash.Weighted>
0.4212

> <Gold.Chemscore.DEInternal.Weighted>
0.3483

> <Gold.Chemscore.Rot.Weighted>
3.7112

> <Gold.Chemscore.Internal.Correction.Weighted>
   9.000000E+99

> <Gold.Protein.RotatedTorsions>
[ 6907 6896 6895 6894 ] final   60.01 input  -60.11 | X-H torsion
[ 7974 7965 7964 7962 ] final   -8.57 input  175.53 | X-H torsion
[ 8008 7997 7996 7995 ] final  -93.25 input   59.86 | X-H torsion
[ 10167 10162 10161 10158 ] final -131.91 input  -65.29 | X-H torsion
[ 10718 10713 10712 10709 ] final   78.59 input   66.30 | X-H torsion
[ 10763 10752 10751 10750 ] final   72.33 input  -60.55 | X-H torsion
[ 11005 11000 10999 10996 ] final  -33.47 input  -57.11 | X-H torsion

> <Gold.Protein.ActiveResidues>
 VAL166  LYS551  ARG553  GLY616  TRP617  ASP618  TYR619  PRO620  LYS621  CYS622 
 ASP623  PHE694  ASN695  SER759  ASP760  ASP761  ALA762  ILE779  LEU786  VAL792 
 PHE793  MET794  SER795  GLU796  ALA797  LYS798  CYS799  TRP800  GLU811  SER814 

> <Gold.Protein.RotatedAtoms>
  152.3965  134.6356  160.0086 H   0  0  0  0  0  0  0  0  0  0  0  0  # atno 6907 bound_to 6896
  151.6574  133.3312  159.3174 H   0  0  0  0  0  0  0  0  0  0  0  0  # atno 6908 bound_to 6896
  150.7872  134.6910  159.6541 H   0  0  0  0  0  0  0  0  0  0  0  0  # atno 6909 bound_to 6896
  146.2277  140.2487  142.8346 H   0  0  0  0  0  0  0  0  0  0  0  0  # atno 7974 bound_to 7965
  154.7332  140.0501  157.0745 H   0  0  0  0  0  0  0  0  0  0  0  0  # atno 8008 bound_to 7997
  155.0274  140.3154  155.4752 H   0  0  0  0  0  0  0  0  0  0  0  0  # atno 8009 bound_to 7997
  156.2846  140.2156  156.5394 H   0  0  0  0  0  0  0  0  0  0  0  0  # atno 8010 bound_to 7997
  139.9140  143.6460  152.2569 H   0  0  0  0  0  0  0  0  0  0  0  0  # atno 10167 bound_to 10162
  157.6750  130.9875  150.1809 H   0  0  0  0  0  0  0  0  0  0  0  0  # atno 10718 bound_to 10713
  153.0452  135.5104  154.7727 H   0  0  0  0  0  0  0  0  0  0  0  0  # atno 10763 bound_to 10752
  154.6633  135.2942  154.9841 H   0  0  0  0  0  0  0  0  0  0  0  0  # atno 10764 bound_to 10752
  154.0684  135.6681  153.4873 H   0  0  0  0  0  0  0  0  0  0  0  0  # atno 10765 bound_to 10752
  140.9637  133.7149  156.1410 H   0  0  0  0  0  0  0  0  0  0  0  0  # atno 11005 bound_to 11000
  144.9428  140.8097  143.5620 LP  0  0  0  0  0  0  0  0  0  0  0  0  # atno 17320 bound_to 7965
  145.2440  139.2060  143.4977 LP  0  0  0  0  0  0  0  0  0  0  0  0  # atno 17321 bound_to 7965
  139.6918  144.7646  151.1425 LP  0  0  0  0  0  0  0  0  0  0  0  0  # atno 17342 bound_to 10162
  140.7678  143.5578  150.9132 LP  0  0  0  0  0  0  0  0  0  0  0  0  # atno 17343 bound_to 10162
  156.2542  130.3704  149.8200 LP  0  0  0  0  0  0  0  0  0  0  0  0  # atno 17370 bound_to 10713
  156.5964  130.8528  151.3421 LP  0  0  0  0  0  0  0  0  0  0  0  0  # atno 17371 bound_to 10713
  140.7430  134.4129  157.5552 LP  0  0  0  0  0  0  0  0  0  0  0  0  # atno 17394 bound_to 11000
  139.8887  134.8849  156.2460 LP  0  0  0  0  0  0  0  0  0  0  0  0  # atno 17395 bound_to 11000

$$$$
