AV-unprocessed.smi:102|AV-procd|sdf|950|dock5
  -GOLD-   2262017473D 1   1.00000     0.00000
 Structure written by MMmdl.
 44 45  0  0  0  0  0  0  0  0  1 V2000
  151.2012  145.6131  159.9220 C   0  0  0  0  0  0  0  0  0  0  0  0
  150.0808  144.5873  159.8166 C   0  0  0  0  0  0  0  0  0  0  0  0
  149.3229  144.3607  160.7598 O   0  0  0  0  0  0  0  0  0  0  0  0
  150.0420  143.9976  158.6140 O   0  0  0  0  0  0  0  0  0  0  0  0
  149.1629  142.9053  158.3909 C   0  0  0  0  0  0  0  0  0  0  0  0
  149.9520  141.6498  157.9854 C   0  0  1  0  0  0  0  0  0  0  0  0
  149.5182  140.5082  158.7044 O   0  0  0  0  0  0  0  0  0  0  0  0
  149.9386  139.3707  158.0234 C   0  0  1  0  0  0  0  0  0  0  0  0
  148.8625  138.3225  158.1936 N   0  0  0  0  0  0  0  0  0  0  0  0
  147.5415  138.6175  157.8809 C   0  0  0  0  0  0  0  0  0  0  0  0
  146.5200  137.7544  158.0894 C   0  0  0  0  0  0  0  0  0  0  0  0
  145.2684  138.1149  157.7588 F   0  0  0  0  0  0  0  0  0  0  0  0
  146.7630  136.4479  158.6923 C   0  0  0  0  0  0  0  0  0  0  0  0
  145.9072  135.5922  158.9082 O   0  0  0  0  0  0  0  0  0  0  0  0
  148.0956  136.2146  159.0432 N   0  0  0  0  0  0  0  0  0  0  0  0
  149.1558  137.1016  158.8446 C   0  0  0  0  0  0  0  0  0  0  0  0
  150.2841  136.7945  159.2264 O   0  0  0  0  0  0  0  0  0  0  0  0
  150.1799  139.7344  156.5446 C   0  0  2  0  0  0  0  0  0  0  0  0
  151.5158  139.4189  156.1728 O   0  0  0  0  0  0  0  0  0  0  0  0
  151.7721  138.8883  154.9645 C   0  0  0  0  0  0  0  0  0  0  0  0
  153.2633  138.8211  154.6642 C   0  0  0  0  0  0  0  0  0  0  0  0
  150.9338  138.4912  154.1549 O   0  0  0  0  0  0  0  0  0  0  0  0
  149.9390  141.2410  156.5034 C   0  0  1  0  0  0  0  0  0  0  0  0
  148.7009  141.4762  155.8406 O   0  0  0  0  0  0  0  0  0  0  0  0
  148.5997  141.3629  154.5040 C   0  0  0  0  0  0  0  0  0  0  0  0
  147.2016  141.6943  154.0000 C   0  0  0  0  0  0  0  0  0  0  0  0
  149.5029  141.0475  153.7298 O   0  0  0  0  0  0  0  0  0  0  0  0
  148.3075  135.3334  159.4883 H   0  0  0  0  0  0  0  0  0  0  0  0
  152.1619  145.1507  159.6945 H   0  0  0  0  0  0  0  0  0  0  0  0
  151.2472  146.0282  160.9290 H   0  0  0  0  0  0  0  0  0  0  0  0
  151.0336  146.4295  159.2193 H   0  0  0  0  0  0  0  0  0  0  0  0
  148.5789  142.6999  159.2894 H   0  0  0  0  0  0  0  0  0  0  0  0
  148.4603  143.1724  157.6006 H   0  0  0  0  0  0  0  0  0  0  0  0
  150.9952  141.8076  158.2639 H   0  0  0  0  0  0  0  0  0  0  0  0
  150.8512  138.9997  158.4917 H   0  0  0  0  0  0  0  0  0  0  0  0
  147.3005  139.5840  157.4643 H   0  0  0  0  0  0  0  0  0  0  0  0
  149.4814  139.1937  155.9043 H   0  0  0  0  0  0  0  0  0  0  0  0
  153.7435  138.0781  155.3009 H   0  0  0  0  0  0  0  0  0  0  0  0
  153.7320  139.7886  154.8447 H   0  0  0  0  0  0  0  0  0  0  0  0
  153.4320  138.5447  153.6231 H   0  0  0  0  0  0  0  0  0  0  0  0
  150.7520  141.7398  155.9735 H   0  0  0  0  0  0  0  0  0  0  0  0
  147.0866  142.7729  153.8914 H   0  0  0  0  0  0  0  0  0  0  0  0
  146.4466  141.3332  154.6987 H   0  0  0  0  0  0  0  0  0  0  0  0
  147.0252  141.2275  153.0309 H   0  0  0  0  0  0  0  0  0  0  0  0
  1  2  1  0  0  0  0
  1 29  1  0  0  0  0
  1 30  1  0  0  0  0
  1 31  1  0  0  0  0
  2  3  2  0  0  0  0
  2  4  1  0  0  0  0
  4  5  1  0  0  0  0
  5  6  1  0  0  0  0
  5 32  1  0  0  0  0
  5 33  1  0  0  0  0
  6 23  1  0  0  0  0
  6  7  1  0  0  0  0
  6 34  1  0  0  0  0
  7  8  1  0  0  0  0
  8  9  1  0  0  0  0
  8 18  1  0  0  0  0
  8 35  1  0  0  0  0
  9 16  1  0  0  0  0
  9 10  1  0  0  0  0
 10 11  2  0  0  0  0
 10 36  1  0  0  0  0
 11 12  1  0  0  0  0
 11 13  1  0  0  0  0
 13 14  2  0  0  0  0
 13 15  1  0  0  0  0
 15 28  1  0  0  0  0
 15 16  1  0  0  0  0
 16 17  2  0  0  0  0
 18 19  1  0  0  0  0
 18 23  1  0  0  0  0
 18 37  1  0  0  0  0
 19 20  1  0  0  0  0
 20 21  1  0  0  0  0
 20 22  2  0  0  0  0
 21 38  1  0  0  0  0
 21 39  1  0  0  0  0
 21 40  1  0  0  0  0
 23 24  1  0  0  0  0
 23 41  1  0  0  0  0
 24 25  1  0  0  0  0
 25 26  1  0  0  0  0
 25 27  2  0  0  0  0
 26 42  1  0  0  0  0
 26 43  1  0  0  0  0
 26 44  1  0  0  0  0
M  END
> <s_m_source_file>
AV-unprocessed.smi

> <i_m_source_file_index>
102

> <i_lp_mmshare_version>
43012

> <i_f3d_flags>
0

> <s_epik_input>
W0NIM11DKD1PKU9bQ0gyXVtDQEBIXTFPW0NASF0oW0NAQEhdKE9DKD1PKVtDSDNdKVtDQEhdMU9DKD1PKVtDSDNdKW4yW2NIXWMoRiljKD1PKVtuSF1jMj1P

> <s_epik_cmdline>
J2VwaWtfcHl0aG9uJywgJy1waCcsICc3LjAnLCAnLXRuJywgJzgnLCAnLW1hJywgJzIwMCcsICctbWV0YWxfYmluZGluZycsICctaW1hZScsICc8aW5maWxlLm1hZT4nLCAnLW9tYWUnLCAnPG91dGZpbGUubWFlPic=

> <r_lp_tautomer_probability>
0.999537

> <r_epik_Ionization_Penalty>
0.058267

> <r_epik_Ionization_Penalty_Charging>
0.058267

> <r_epik_Ionization_Penalty_Neutral>
6.57791e-16

> <r_epik_State_Penalty>
0.0503774

> <r_epik_Charging_Adjusted_Penalty>
0.108644

> <i_epik_Tot_Q>
0

> <i_epik_Tot_abs_Q>
0

> <r_epik_Metal_State_Penalty>
2.6644

> <b_epik_Metal_Only>
0

> <s_epik_Chemistry_Notes>
This compound has an ester and may undergo hydrolysis at high or low pH. This compound contains an acetal/aminal-like group ( X-CH(R)-Y where X, Y are N, S, or O) that may be acid/base labile, releasing an aldehyde.

> <s_lp_Force_Field>
OPLS_2005

> <r_lp_Energy>
13.4822

> <b_lp_Chiralities_Consistent>
1

> <s_lp_Variant>
AV-unprocessed.smi:102-6

> <Gold.Version>
5.8.1

> <Gold.Id.Protein>
6NUR|6NUR_protein|mol2

> <Gold.PLP.Fitness>
36.2171

> <Gold.PLP.PLP>
-32.1846

> <Gold.PLP.part.hbond>
-5.2911

> <Gold.PLP.part.metal>
0.0000

> <Gold.PLP.part.buried>
-6.0493

> <Gold.PLP.part.nonpolar>
-24.9022

> <Gold.PLP.part.repulsive>
3.2115

> <Gold.PLP.ligand.clash>
0.0000

> <Gold.PLP.ligand.torsion>
1.8843

> <Gold.PLP.Chemscore.Hbond>
2.5367

> <Gold.PLP.Chemscore.CHOScore>
0.0000

> <Gold.PLP.Chemscore.Metal>
0.0000

> <Gold.Chemscore.Hbonds>
donor molecule, donor type, donor heavy atom, donor atom, acceptor molecule, acceptor atom, score
      P1  H  6896  6907       L1    17  0.99
      P1  H  6933  6944       L1     3  0.25
      P1  H  7989  7998       L1    27  0.25
      P1  H  8011  8017       L1    27  0.96

> <Gold.PLP.Chemscore.Internal.Correction>
0.1911

> <Gold.Rescore>
     Score         DG    S(hbond)    S(metal)    S(lipo)     H(rot)  DE(clash)    DE(int)     intcor
      5.84      -9.49       2.77        0.00      44.01       4.05       1.71       1.94       ----

> <Gold.Chemscore.Fitness>
5.8369

> <Gold.Chemscore.DG>
-9.4940

> <Gold.Chemscore.ZeroCoef>
-5.4800

> <Gold.Chemscore.Hbond>
2.7660

> <Gold.Chemscore.Metal>
0.0000

> <Gold.Chemscore.Lipo>
44.0079

> <Gold.Chemscore.Internal_Hbond>
0.0000

> <Gold.Chemscore.DEClash>
1.7122

> <Gold.Chemscore.DEInternal>
1.9449

> <Gold.Chemscore.Rot>
4.0520

> <Gold.Chemscore.Internal.Correction>
   9.000000E+99

> <Gold.Chemscore.Hbonds>
donor molecule, donor type, donor heavy atom, donor atom, acceptor molecule, acceptor atom, score
      P1  H  6896  6907       L1    17  0.91
      P1  H  6933  6944       L1     3  0.25
      P1  H  7989  7998       L1    27  0.25
      P1  H  8011  8017       L1    27  0.74

> <Gold.Chemscore.Hbond.Weighted>
-9.2383

> <Gold.Chemscore.Metal.Weighted>
-0.0000

> <Gold.Chemscore.Lipo.Weighted>
-5.1489

> <Gold.Chemscore.Internal_Hbond.Weighted>
0.0000

> <Gold.Chemscore.DEClash.Weighted>
1.7122

> <Gold.Chemscore.DEInternal.Weighted>
1.9449

> <Gold.Chemscore.Rot.Weighted>
10.3732

> <Gold.Chemscore.Internal.Correction.Weighted>
   9.000000E+99

> <Gold.Protein.RotatedTorsions>
[ 6907 6896 6895 6894 ] final  -46.83 input  -60.11 | X-H torsion
[ 7974 7965 7964 7962 ] final   59.70 input  175.53 | X-H torsion
[ 8008 7997 7996 7995 ] final  -86.11 input   59.86 | X-H torsion
[ 10167 10162 10161 10158 ] final  154.23 input  -65.29 | X-H torsion
[ 10718 10713 10712 10709 ] final  154.60 input   66.30 | X-H torsion
[ 10763 10752 10751 10750 ] final  121.59 input  -60.55 | X-H torsion
[ 11005 11000 10999 10996 ] final   35.51 input  -57.11 | X-H torsion

> <Gold.Protein.ActiveResidues>
 VAL166  LYS551  ARG553  GLY616  TRP617  ASP618  TYR619  PRO620  LYS621  CYS622 
 ASP623  PHE694  ASN695  SER759  ASP760  ASP761  ALA762  ILE779  LEU786  VAL792 
 PHE793  MET794  SER795  GLU796  ALA797  LYS798  CYS799  TRP800  GLU811  SER814 

> <Gold.Protein.RotatedAtoms>
  150.9071  134.8486  159.7399 H   0  0  0  0  0  0  0  0  0  0  0  0  # atno 6907 bound_to 6896
  152.4924  134.4415  159.9555 H   0  0  0  0  0  0  0  0  0  0  0  0  # atno 6908 bound_to 6896
  151.4461  133.3591  159.2824 H   0  0  0  0  0  0  0  0  0  0  0  0  # atno 6909 bound_to 6896
  145.9042  139.3604  143.0574 H   0  0  0  0  0  0  0  0  0  0  0  0  # atno 7974 bound_to 7965
  154.6482  140.0582  156.9925 H   0  0  0  0  0  0  0  0  0  0  0  0  # atno 8008 bound_to 7997
  155.1411  140.3265  155.4433 H   0  0  0  0  0  0  0  0  0  0  0  0  # atno 8009 bound_to 7997
  156.2564  140.1964  156.6527 H   0  0  0  0  0  0  0  0  0  0  0  0  # atno 8010 bound_to 7997
  139.4824  144.5205  151.7884 H   0  0  0  0  0  0  0  0  0  0  0  0  # atno 10167 bound_to 10162
  157.2295  131.0736  151.1862 H   0  0  0  0  0  0  0  0  0  0  0  0  # atno 10718 bound_to 10713
  153.6165  135.3421  155.2996 H   0  0  0  0  0  0  0  0  0  0  0  0  # atno 10763 bound_to 10752
  154.8608  135.4262  154.2253 H   0  0  0  0  0  0  0  0  0  0  0  0  # atno 10764 bound_to 10752
  153.3116  135.7032  153.7183 H   0  0  0  0  0  0  0  0  0  0  0  0  # atno 10765 bound_to 10752
  140.2419  134.3405  155.7922 H   0  0  0  0  0  0  0  0  0  0  0  0  # atno 11005 bound_to 11000
  145.8753  140.9396  143.0629 LP  0  0  0  0  0  0  0  0  0  0  0  0  # atno 17320 bound_to 7965
  144.6738  140.0708  143.7473 LP  0  0  0  0  0  0  0  0  0  0  0  0  # atno 17321 bound_to 7965
  140.4718  144.1576  150.5919 LP  0  0  0  0  0  0  0  0  0  0  0  0  # atno 17342 bound_to 10162
  140.4374  143.2541  151.9518 LP  0  0  0  0  0  0  0  0  0  0  0  0  # atno 17343 bound_to 10162
  157.3493  130.7074  149.6430 LP  0  0  0  0  0  0  0  0  0  0  0  0  # atno 17370 bound_to 10713
  155.9676  130.4257  150.4666 LP  0  0  0  0  0  0  0  0  0  0  0  0  # atno 17371 bound_to 10713
  141.2210  133.7304  156.8899 LP  0  0  0  0  0  0  0  0  0  0  0  0  # atno 17394 bound_to 11000
  140.1645  134.9143  157.2756 LP  0  0  0  0  0  0  0  0  0  0  0  0  # atno 17395 bound_to 11000

$$$$
