AV-unprocessed.smi:34|AV-procd|sdf|218|dock5
  -GOLD-   2262015533D 1   1.00000     0.00000
 Structure written by MMmdl.
 55 59  0  0  0  0  0  0  0  0  1 V2000
  149.7395  128.0677  155.5407 O   0  0  0  0  0  0  0  0  0  0  0  0
  149.5204  128.6638  154.4858 C   0  0  0  0  0  0  0  0  0  0  0  0
  149.7181  130.0960  154.3497 N   0  0  0  0  0  0  0  0  0  0  0  0
  150.2060  130.9645  155.2663 C   0  0  0  0  0  0  0  0  0  0  0  0
  150.8414  130.5533  156.3947 N   0  0  0  0  0  0  0  0  0  0  0  0
  151.3045  131.4503  157.2698 C   0  0  0  0  0  0  0  0  0  0  0  0
  151.2404  132.7815  157.2104 N   0  0  0  0  0  0  0  0  0  0  0  0
  150.6062  133.2057  156.0791 C   0  0  0  0  0  0  0  0  0  0  0  0
  150.0681  132.3629  155.0662 C   0  0  0  0  0  0  0  0  0  0  0  0
  149.5014  133.1361  154.0619 N   0  0  0  0  0  0  0  0  0  0  0  0
  149.6937  134.3636  154.4623 C   0  0  0  0  0  0  0  0  0  0  0  0
  150.3516  134.4998  155.6647 N   0  0  0  0  0  0  0  0  0  0  0  0
  150.7069  135.7832  156.3564 C   0  0  1  0  0  0  0  0  0  0  0  0
  151.3463  136.6433  155.4557 O   0  0  0  0  0  0  0  0  0  0  0  0
  150.5872  137.8407  155.2996 C   0  0  2  0  0  0  0  0  0  0  0  0
  151.5120  139.0164  154.9662 C   0  0  0  0  0  0  0  0  0  0  0  0
  151.3608  140.0256  155.9509 O   0  0  0  0  0  0  0  0  0  0  0  0
  152.1942  140.0697  157.0081 C   0  0  0  0  0  0  0  0  0  0  0  0
  153.0023  139.1785  157.2772 O   0  0  0  0  0  0  0  0  0  0  0  0
  152.0386  141.3131  157.8173 C   0  0  0  0  0  0  0  0  0  0  0  0
  151.1506  142.3217  157.3754 C   0  0  0  0  0  0  0  0  0  0  0  0
  150.9800  143.5045  158.1210 C   0  0  0  0  0  0  0  0  0  0  0  0
  151.6961  143.6939  159.3171 C   0  0  0  0  0  0  0  0  0  0  0  0
  152.5842  142.6992  159.7664 C   0  0  0  0  0  0  0  0  0  0  0  0
  152.7559  141.5154  159.0224 C   0  0  0  0  0  0  0  0  0  0  0  0
  149.8589  137.9643  156.6346 C   0  0  1  0  0  0  0  0  0  0  0  0
  148.8120  138.7913  156.6132 F   0  0  0  0  0  0  0  0  0  0  0  0
  149.4791  136.5239  156.9261 C   0  0  1  0  0  0  0  0  0  0  0  0
  148.2579  136.1656  156.3001 O   0  0  0  0  0  0  0  0  0  0  0  0
  148.9468  127.9647  153.2885 C   0  0  0  0  0  0  0  0  0  0  0  0
  148.0967  128.6631  152.4019 C   0  0  0  0  0  0  0  0  0  0  0  0
  147.5471  128.0121  151.2803 C   0  0  0  0  0  0  0  0  0  0  0  0
  147.8352  126.6551  151.0414 C   0  0  0  0  0  0  0  0  0  0  0  0
  148.6697  125.9480  151.9276 C   0  0  0  0  0  0  0  0  0  0  0  0
  149.2205  126.5981  153.0491 C   0  0  0  0  0  0  0  0  0  0  0  0
  149.4583  130.4940  153.4591 H   0  0  0  0  0  0  0  0  0  0  0  0
  151.7961  131.0431  158.1408 H   0  0  0  0  0  0  0  0  0  0  0  0
  149.3593  135.2127  153.8840 H   0  0  0  0  0  0  0  0  0  0  0  0
  151.4197  135.4906  157.1283 H   0  0  0  0  0  0  0  0  0  0  0  0
  149.8666  137.6919  154.4945 H   0  0  0  0  0  0  0  0  0  0  0  0
  152.5501  138.6854  154.9121 H   0  0  0  0  0  0  0  0  0  0  0  0
  151.2469  139.4276  153.9913 H   0  0  0  0  0  0  0  0  0  0  0  0
  150.5890  142.1986  156.4605 H   0  0  0  0  0  0  0  0  0  0  0  0
  150.2981  144.2668  157.7742 H   0  0  0  0  0  0  0  0  0  0  0  0
  151.5647  144.6006  159.8890 H   0  0  0  0  0  0  0  0  0  0  0  0
  153.1359  142.8431  160.6837 H   0  0  0  0  0  0  0  0  0  0  0  0
  153.4461  140.7729  159.3955 H   0  0  0  0  0  0  0  0  0  0  0  0
  150.5423  138.3298  157.4022 H   0  0  0  0  0  0  0  0  0  0  0  0
  149.3940  136.3311  157.9959 H   0  0  0  0  0  0  0  0  0  0  0  0
  148.2072  136.6074  155.4662 H   0  0  0  0  0  0  0  0  0  0  0  0
  147.8668  129.7052  152.5715 H   0  0  0  0  0  0  0  0  0  0  0  0
  146.9038  128.5545  150.6033 H   0  0  0  0  0  0  0  0  0  0  0  0
  147.4139  126.1562  150.1811 H   0  0  0  0  0  0  0  0  0  0  0  0
  148.8859  124.9051  151.7483 H   0  0  0  0  0  0  0  0  0  0  0  0
  149.8513  126.0354  153.7223 H   0  0  0  0  0  0  0  0  0  0  0  0
  1  2  2  0  0  0  0
  2  3  1  0  0  0  0
  2 30  1  0  0  0  0
  3  4  1  0  0  0  0
  3 36  1  0  0  0  0
  4  9  1  0  0  0  0
  4  5  2  0  0  0  0
  5  6  1  0  0  0  0
  6  7  2  0  0  0  0
  6 37  1  0  0  0  0
  7  8  1  0  0  0  0
  8 12  1  0  0  0  0
  8  9  2  0  0  0  0
  9 10  1  0  0  0  0
 10 11  2  0  0  0  0
 11 12  1  0  0  0  0
 11 38  1  0  0  0  0
 12 13  1  0  0  0  0
 13 28  1  0  0  0  0
 13 14  1  0  0  0  0
 13 39  1  0  0  0  0
 14 15  1  0  0  0  0
 15 16  1  0  0  0  0
 15 26  1  0  0  0  0
 15 40  1  0  0  0  0
 16 17  1  0  0  0  0
 16 41  1  0  0  0  0
 16 42  1  0  0  0  0
 17 18  1  0  0  0  0
 18 19  2  0  0  0  0
 18 20  1  0  0  0  0
 20 25  1  0  0  0  0
 20 21  2  0  0  0  0
 21 22  1  0  0  0  0
 21 43  1  0  0  0  0
 22 23  2  0  0  0  0
 22 44  1  0  0  0  0
 23 24  1  0  0  0  0
 23 45  1  0  0  0  0
 24 25  2  0  0  0  0
 24 46  1  0  0  0  0
 25 47  1  0  0  0  0
 26 27  1  0  0  0  0
 26 28  1  0  0  0  0
 26 48  1  0  0  0  0
 28 29  1  0  0  0  0
 28 49  1  0  0  0  0
 29 50  1  0  0  0  0
 30 35  1  0  0  0  0
 30 31  2  0  0  0  0
 31 32  1  0  0  0  0
 31 51  1  0  0  0  0
 32 33  2  0  0  0  0
 32 52  1  0  0  0  0
 33 34  1  0  0  0  0
 33 53  1  0  0  0  0
 34 35  2  0  0  0  0
 34 54  1  0  0  0  0
 35 55  1  0  0  0  0
M  END
> <s_m_source_file>
AV-unprocessed.smi

> <i_m_source_file_index>
34

> <i_lp_mmshare_version>
43012

> <i_f3d_flags>
0

> <s_epik_input>
W2NIXTFbY0hdW2NIXVtjSF1bY0hdYzFDKD1PKVtOSF1jKG5bY0hdbjIpYyhjMjMpbltjSF1uM1tDQEBIXTRPW0NASF0oW0NAQEhdKEYpW0NASF00W09IXSlbQ0gyXU9DKD1PKWM1W2NIXVtjSF1bY0hdW2NIXVtjSF01

> <s_epik_cmdline>
J2VwaWtfcHl0aG9uJywgJy1waCcsICc3LjAnLCAnLXRuJywgJzgnLCAnLW1hJywgJzIwMCcsICctbWV0YWxfYmluZGluZycsICctaW1hZScsICc8aW5maWxlLm1hZT4nLCAnLW9tYWUnLCAnPG91dGZpbGUubWFlPic=

> <r_lp_tautomer_probability>
1

> <r_epik_Ionization_Penalty>
0.00257489

> <r_epik_Ionization_Penalty_Charging>
0

> <r_epik_Ionization_Penalty_Neutral>
0.00257489

> <r_epik_State_Penalty>
0.00519398

> <r_epik_Charging_Adjusted_Penalty>
0.00519398

> <i_epik_Tot_Q>
0

> <i_epik_Tot_abs_Q>
0

> <r_epik_Metal_State_Penalty>
0.335891

> <b_epik_Metal_Only>
0

> <s_epik_Chemistry_Notes>
This compound has an ester and may undergo hydrolysis at high or low pH. This compound contains an acetal/aminal-like group ( X-CH(R)-Y where X, Y are N, S, or O) that may be acid/base labile, releasing an aldehyde.

> <s_lp_Force_Field>
OPLS_2005

> <r_lp_Energy>
55.7216

> <b_lp_Chiralities_Consistent>
1

> <s_lp_Variant>
AV-unprocessed.smi:34-4

> <Gold.Version>
5.8.1

> <Gold.Id.Protein>
6NUR|6NUR_protein|mol2

> <Gold.PLP.Fitness>
61.2311

> <Gold.PLP.PLP>
-54.2493

> <Gold.PLP.part.hbond>
-2.9861

> <Gold.PLP.part.metal>
0.0000

> <Gold.PLP.part.buried>
-5.9163

> <Gold.PLP.part.nonpolar>
-45.8342

> <Gold.PLP.part.repulsive>
0.2738

> <Gold.PLP.ligand.clash>
1.7427

> <Gold.PLP.ligand.torsion>
1.6752

> <Gold.PLP.Chemscore.Hbond>
2.9175

> <Gold.PLP.Chemscore.CHOScore>
0.9205

> <Gold.PLP.Chemscore.Metal>
0.0000

> <Gold.Chemscore.Hbonds>
donor molecule, donor type, donor heavy atom, donor atom, acceptor molecule, acceptor atom, score
      P1  H  6896  6908       L1     7  0.88
      P1  H  7997  8008       L1    19  1.00
      P1  H 10752 10763       L1    14  0.88
      L1  C    11    38       P1  7948  1.00

> <Gold.PLP.Chemscore.Internal.Correction>
0.5608

> <Gold.Rescore>
     Score         DG    S(hbond)    S(metal)    S(lipo)     H(rot)  DE(clash)    DE(int)     intcor
     13.29     -18.81       2.20        0.00     110.77       2.72       0.03       5.49       ----

> <Gold.Chemscore.Fitness>
13.2907

> <Gold.Chemscore.DG>
-18.8098

> <Gold.Chemscore.ZeroCoef>
-5.4800

> <Gold.Chemscore.Hbond>
2.1968

> <Gold.Chemscore.Metal>
0.0000

> <Gold.Chemscore.Lipo>
110.7658

> <Gold.Chemscore.Internal_Hbond>
0.0000

> <Gold.Chemscore.DEClash>
0.0310

> <Gold.Chemscore.DEInternal>
5.4881

> <Gold.Chemscore.Rot>
2.7215

> <Gold.Chemscore.Internal.Correction>
   9.000000E+99

> <Gold.Chemscore.Hbonds>
donor molecule, donor type, donor heavy atom, donor atom, acceptor molecule, acceptor atom, score
      P1  H  6896  6908       L1     7  0.36
      P1  H  7997  8008       L1    19  0.25
      P1  H 10752 10763       L1    14  0.43

> <Gold.Chemscore.Hbond.Weighted>
-7.3373

> <Gold.Chemscore.Metal.Weighted>
-0.0000

> <Gold.Chemscore.Lipo.Weighted>
-12.9596

> <Gold.Chemscore.Internal_Hbond.Weighted>
0.0000

> <Gold.Chemscore.DEClash.Weighted>
0.0310

> <Gold.Chemscore.DEInternal.Weighted>
5.4881

> <Gold.Chemscore.Rot.Weighted>
6.9670

> <Gold.Chemscore.Internal.Correction.Weighted>
   9.000000E+99

> <Gold.Protein.RotatedTorsions>
[ 6907 6896 6895 6894 ] final   79.93 input  -60.11 | X-H torsion
[ 7974 7965 7964 7962 ] final  -17.17 input  175.53 | X-H torsion
[ 8008 7997 7996 7995 ] final  -81.62 input   59.86 | X-H torsion
[ 10167 10162 10161 10158 ] final   -0.66 input  -65.29 | X-H torsion
[ 10718 10713 10712 10709 ] final   84.30 input   66.30 | X-H torsion
[ 10763 10752 10751 10750 ] final   67.14 input  -60.55 | X-H torsion
[ 11005 11000 10999 10996 ] final   60.29 input  -57.11 | X-H torsion

> <Gold.Protein.ActiveResidues>
 VAL166  LYS551  ARG553  GLY616  TRP617  ASP618  TYR619  PRO620  LYS621  CYS622 
 ASP623  PHE694  ASN695  SER759  ASP760  ASP761  ALA762  ILE779  LEU786  VAL792 
 PHE793  MET794  SER795  GLU796  ALA797  LYS798  CYS799  TRP800  GLU811  SER814 

> <Gold.Protein.RotatedAtoms>
  152.5217  134.3435  159.9225 H   0  0  0  0  0  0  0  0  0  0  0  0  # atno 6907 bound_to 6896
  151.3385  133.3965  159.2676 H   0  0  0  0  0  0  0  0  0  0  0  0  # atno 6908 bound_to 6896
  150.9823  134.9193  159.7909 H   0  0  0  0  0  0  0  0  0  0  0  0  # atno 6909 bound_to 6896
  146.1953  140.3741  142.8443 H   0  0  0  0  0  0  0  0  0  0  0  0  # atno 7974 bound_to 7965
  154.6002  140.0645  156.9358 H   0  0  0  0  0  0  0  0  0  0  0  0  # atno 8008 bound_to 7997
  155.2145  140.3325  155.4306 H   0  0  0  0  0  0  0  0  0  0  0  0  # atno 8009 bound_to 7997
  156.2313  140.1842  156.7218 H   0  0  0  0  0  0  0  0  0  0  0  0  # atno 8010 bound_to 7997
  140.6777  143.6868  150.8060 H   0  0  0  0  0  0  0  0  0  0  0  0  # atno 10167 bound_to 10162
  157.6895  131.0127  150.2653 H   0  0  0  0  0  0  0  0  0  0  0  0  # atno 10718 bound_to 10713
  153.0172  135.5295  154.6933 H   0  0  0  0  0  0  0  0  0  0  0  0  # atno 10763 bound_to 10752
  154.6062  135.2873  155.0484 H   0  0  0  0  0  0  0  0  0  0  0  0  # atno 10764 bound_to 10752
  154.1523  135.6561  153.5019 H   0  0  0  0  0  0  0  0  0  0  0  0  # atno 10765 bound_to 10752
  140.0242  134.6107  155.9596 H   0  0  0  0  0  0  0  0  0  0  0  0  # atno 11005 bound_to 11000
  144.8569  140.7083  143.6132 LP  0  0  0  0  0  0  0  0  0  0  0  0  # atno 17320 bound_to 7965
  145.3662  139.1669  143.4357 LP  0  0  0  0  0  0  0  0  0  0  0  0  # atno 17321 bound_to 7965
  140.0564  143.5198  152.2649 LP  0  0  0  0  0  0  0  0  0  0  0  0  # atno 17342 bound_to 10162
  139.6079  144.7601  151.3019 LP  0  0  0  0  0  0  0  0  0  0  0  0  # atno 17343 bound_to 10162
  156.3225  130.3788  149.7562 LP  0  0  0  0  0  0  0  0  0  0  0  0  # atno 17370 bound_to 10713
  156.5128  130.8180  151.3175 LP  0  0  0  0  0  0  0  0  0  0  0  0  # atno 17371 bound_to 10713
  141.1793  133.6544  156.4953 LP  0  0  0  0  0  0  0  0  0  0  0  0  # atno 17394 bound_to 11000
  140.4334  134.7081  157.4954 LP  0  0  0  0  0  0  0  0  0  0  0  0  # atno 17395 bound_to 11000

$$$$
