AV-unprocessed.smi:247|AV-procd|sdf|1895|dock5
  -GOLD-   2262020563D 1   1.00000     0.00000
 Structure written by MMmdl.
 61 65  0  0  0  0  0  0  0  0  1 V2000
  146.8658  137.7940  162.7328 O   0  0  0  0  0  0  0  0  0  0  0  0
  147.5153  136.5396  162.8016 C   0  0  0  0  0  0  0  0  0  0  0  0
  146.7909  135.4231  161.9989 C   0  0  0  0  0  0  0  0  0  0  0  0
  146.4391  135.9784  160.5823 C   0  0  0  0  0  0  0  0  0  0  0  0
  147.5732  136.4563  159.8034 N   0  0  0  0  0  0  0  0  0  0  0  0
  148.9044  136.3612  160.1426 C   0  0  0  0  0  0  0  0  0  0  0  0
  149.7391  136.8543  159.2698 N   0  0  0  0  0  0  0  0  0  0  0  0
  148.9257  137.3045  158.2366 C   0  0  0  0  0  0  0  0  0  0  0  0
  149.1721  137.9363  156.9841 C   0  0  0  0  0  0  0  0  0  0  0  0
  150.4242  138.2229  156.5399 N   0  0  0  0  0  0  0  0  0  0  0  0
  151.0483  137.2328  155.6676 C   0  0  0  0  0  0  0  0  0  0  0  0
  151.8441  138.0182  154.6215 C   0  0  0  0  0  0  0  0  0  0  0  0
  152.0865  139.3665  155.2906 C   0  0  0  0  0  0  0  0  0  0  0  0
  150.8015  139.5687  156.1043 C   0  0  2  0  0  0  0  0  0  0  0  0
  150.8911  140.6042  157.2621 C   0  0  1  0  0  0  0  0  0  0  0  0
  152.0420  140.3179  158.2562 C   0  0  0  0  0  0  0  0  0  0  0  0
  152.0263  141.2626  159.3211 O   0  0  0  0  0  0  0  0  0  0  0  0
  152.2469  142.5975  158.8813 C   0  0  0  0  0  0  0  0  0  0  0  0
  151.1084  143.0245  157.9441 C   0  0  0  0  0  0  0  0  0  0  0  0
  151.0019  142.0586  156.7558 C   0  0  2  0  0  0  0  0  0  0  0  0
  149.8688  142.4112  155.9870 O   0  0  0  0  0  0  0  0  0  0  0  0
  148.0902  138.2455  156.2206 N   0  0  0  0  0  0  0  0  0  0  0  0
  146.8568  137.9546  156.6431 C   0  0  0  0  0  0  0  0  0  0  0  0
  146.4818  137.3651  157.7796 N   0  0  0  0  0  0  0  0  0  0  0  0
  147.5600  137.0588  158.5564 C   0  0  0  0  0  0  0  0  0  0  0  0
  147.6907  134.1623  161.9228 C   0  0  0  0  0  0  0  0  0  0  0  0
  146.9451  132.9459  161.3452 C   0  0  0  0  0  0  0  0  0  0  0  0
  145.7878  132.6732  162.1260 O   0  0  0  0  0  0  0  0  0  0  0  0
  144.8467  133.7400  162.1204 C   0  0  0  0  0  0  0  0  0  0  0  0
  145.4798  135.0115  162.7180 C   0  0  0  0  0  0  0  0  0  0  0  0
  146.9655  138.2304  163.5650 H   0  0  0  0  0  0  0  0  0  0  0  0
  148.5345  136.6684  162.4353 H   0  0  0  0  0  0  0  0  0  0  0  0
  147.5892  136.2729  163.8558 H   0  0  0  0  0  0  0  0  0  0  0  0
  145.9305  135.2300  159.9770 H   0  0  0  0  0  0  0  0  0  0  0  0
  145.7285  136.8010  160.6756 H   0  0  0  0  0  0  0  0  0  0  0  0
  149.2404  135.9155  161.0673 H   0  0  0  0  0  0  0  0  0  0  0  0
  151.7176  136.6156  156.2679 H   0  0  0  0  0  0  0  0  0  0  0  0
  150.3200  136.5749  155.1909 H   0  0  0  0  0  0  0  0  0  0  0  0
  152.7655  137.5165  154.3246 H   0  0  0  0  0  0  0  0  0  0  0  0
  151.2350  138.1590  153.7276 H   0  0  0  0  0  0  0  0  0  0  0  0
  152.9621  139.2941  155.9344 H   0  0  0  0  0  0  0  0  0  0  0  0
  152.2621  140.1662  154.5706 H   0  0  0  0  0  0  0  0  0  0  0  0
  150.0349  139.9032  155.4035 H   0  0  0  0  0  0  0  0  0  0  0  0
  149.9674  140.5408  157.8377 H   0  0  0  0  0  0  0  0  0  0  0  0
  151.9332  139.3234  158.6890 H   0  0  0  0  0  0  0  0  0  0  0  0
  153.0162  140.3451  157.7681 H   0  0  0  0  0  0  0  0  0  0  0  0
  152.2831  143.2539  159.7509 H   0  0  0  0  0  0  0  0  0  0  0  0
  153.2141  142.6753  158.3822 H   0  0  0  0  0  0  0  0  0  0  0  0
  150.1711  143.0350  158.5025 H   0  0  0  0  0  0  0  0  0  0  0  0
  151.2750  144.0433  157.5922 H   0  0  0  0  0  0  0  0  0  0  0  0
  151.8880  142.1683  156.1294 H   0  0  0  0  0  0  0  0  0  0  0  0
  149.7379  143.3447  156.0543 H   0  0  0  0  0  0  0  0  0  0  0  0
  146.0562  138.2331  155.9740 H   0  0  0  0  0  0  0  0  0  0  0  0
  148.5979  134.3576  161.3523 H   0  0  0  0  0  0  0  0  0  0  0  0
  148.0315  133.8909  162.9225 H   0  0  0  0  0  0  0  0  0  0  0  0
  146.6693  133.0999  160.3018 H   0  0  0  0  0  0  0  0  0  0  0  0
  147.5932  132.0699  161.3690 H   0  0  0  0  0  0  0  0  0  0  0  0
  144.4746  133.9082  161.1097 H   0  0  0  0  0  0  0  0  0  0  0  0
  143.9851  133.4426  162.7183 H   0  0  0  0  0  0  0  0  0  0  0  0
  145.6750  134.8095  163.7713 H   0  0  0  0  0  0  0  0  0  0  0  0
  144.7609  135.8313  162.6992 H   0  0  0  0  0  0  0  0  0  0  0  0
  1  2  1  0  0  0  0
  1 31  1  0  0  0  0
  2  3  1  0  0  0  0
  2 32  1  0  0  0  0
  2 33  1  0  0  0  0
  3 30  1  0  0  0  0
  3  4  1  0  0  0  0
  3 26  1  0  0  0  0
  4  5  1  0  0  0  0
  4 34  1  0  0  0  0
  4 35  1  0  0  0  0
  5 25  1  0  0  0  0
  5  6  1  0  0  0  0
  6  7  2  0  0  0  0
  6 36  1  0  0  0  0
  7  8  1  0  0  0  0
  8 25  2  0  0  0  0
  8  9  1  0  0  0  0
  9 10  1  0  0  0  0
  9 22  2  0  0  0  0
 10 14  1  0  0  0  0
 10 11  1  0  0  0  0
 11 12  1  0  0  0  0
 11 37  1  0  0  0  0
 11 38  1  0  0  0  0
 12 13  1  0  0  0  0
 12 39  1  0  0  0  0
 12 40  1  0  0  0  0
 13 14  1  0  0  0  0
 13 41  1  0  0  0  0
 13 42  1  0  0  0  0
 14 15  1  0  0  0  0
 14 43  1  0  0  0  0
 15 20  1  0  0  0  0
 15 16  1  0  0  0  0
 15 44  1  0  0  0  0
 16 17  1  0  0  0  0
 16 45  1  0  0  0  0
 16 46  1  0  0  0  0
 17 18  1  0  0  0  0
 18 19  1  0  0  0  0
 18 47  1  0  0  0  0
 18 48  1  0  0  0  0
 19 20  1  0  0  0  0
 19 49  1  0  0  0  0
 19 50  1  0  0  0  0
 20 21  1  0  0  0  0
 20 51  1  0  0  0  0
 21 52  1  0  0  0  0
 22 23  1  0  0  0  0
 23 24  2  0  0  0  0
 23 53  1  0  0  0  0
 24 25  1  0  0  0  0
 26 27  1  0  0  0  0
 26 54  1  0  0  0  0
 26 55  1  0  0  0  0
 27 28  1  0  0  0  0
 27 56  1  0  0  0  0
 27 57  1  0  0  0  0
 28 29  1  0  0  0  0
 29 30  1  0  0  0  0
 29 58  1  0  0  0  0
 29 59  1  0  0  0  0
 30 60  1  0  0  0  0
 30 61  1  0  0  0  0
M  END
> <s_m_source_file>
AV-unprocessed.smi

> <i_m_source_file_index>
247

> <i_lp_mmshare_version>
43012

> <i_f3d_flags>
0

> <s_epik_input>
W0NIMl0xW0NIMl1PW0NIMl1bQ0gyXUMxKFtDSDJdW09IXSlbQ0gyXW4oW2NIXW4yKWMoYzIzKW5bY0hdbmMzTjRbQ0gyXVtDSDJdW0NIMl1bQ0BIXTRbQ0BASF01W0NIMl1PW0NIMl1bQ0gyXVtDQEhdNVtPSF0=

> <s_epik_cmdline>
J2VwaWtfcHl0aG9uJywgJy1waCcsICc3LjAnLCAnLXRuJywgJzgnLCAnLW1hJywgJzIwMCcsICctbWV0YWxfYmluZGluZycsICctaW1hZScsICc8aW5maWxlLm1hZT4nLCAnLW9tYWUnLCAnPG91dGZpbGUubWFlPic=

> <r_lp_tautomer_probability>
1

> <r_epik_Ionization_Penalty>
0.00362597

> <r_epik_Ionization_Penalty_Charging>
0

> <r_epik_Ionization_Penalty_Neutral>
0.00362597

> <r_epik_State_Penalty>
0.00241433

> <r_epik_Charging_Adjusted_Penalty>
0.00241433

> <i_epik_Tot_Q>
0

> <i_epik_Tot_abs_Q>
0

> <r_epik_Metal_State_Penalty>
-0

> <b_epik_Metal_Only>
0

> <s_lp_Force_Field>
OPLS_2005

> <r_lp_Energy>
58.878

> <b_lp_Chiralities_Consistent>
1

> <s_lp_Variant>
AV-unprocessed.smi:247-8

> <Gold.Version>
5.8.1

> <Gold.Id.Protein>
6NUR|6NUR_protein|mol2

> <Gold.PLP.Fitness>
52.0193

> <Gold.PLP.PLP>
-48.8260

> <Gold.PLP.part.hbond>
-3.0804

> <Gold.PLP.part.metal>
0.0000

> <Gold.PLP.part.buried>
-7.6435

> <Gold.PLP.part.nonpolar>
-38.7060

> <Gold.PLP.part.repulsive>
0.0679

> <Gold.PLP.ligand.clash>
0.0000

> <Gold.PLP.ligand.torsion>
0.6066

> <Gold.PLP.Chemscore.Hbond>
1.3292

> <Gold.PLP.Chemscore.CHOScore>
0.0000

> <Gold.PLP.Chemscore.Metal>
0.0000

> <Gold.Chemscore.Hbonds>
donor molecule, donor type, donor heavy atom, donor atom, acceptor molecule, acceptor atom, score
      L1  H    21    52       P1  8028  1.00
      P1  H  6896  6907       L1     7  0.08
      P1  H  6934  6947       L1     1  0.24

> <Gold.PLP.Chemscore.Internal.Correction>
0.4190

> <Gold.Rescore>
     Score         DG    S(hbond)    S(metal)    S(lipo)     H(rot)  DE(clash)    DE(int)     intcor
     13.57     -15.35       1.27        0.00     118.67       3.23       0.04       1.75       ----

> <Gold.Chemscore.Fitness>
13.5668

> <Gold.Chemscore.DG>
-15.3537

> <Gold.Chemscore.ZeroCoef>
-5.4800

> <Gold.Chemscore.Hbond>
1.2733

> <Gold.Chemscore.Metal>
0.0000

> <Gold.Chemscore.Lipo>
118.6674

> <Gold.Chemscore.Internal_Hbond>
0.0000

> <Gold.Chemscore.DEClash>
0.0402

> <Gold.Chemscore.DEInternal>
1.7466

> <Gold.Chemscore.Rot>
3.2278

> <Gold.Chemscore.Internal.Correction>
   9.000000E+99

> <Gold.Chemscore.Hbonds>
donor molecule, donor type, donor heavy atom, donor atom, acceptor molecule, acceptor atom, score
      L1  H    21    52       P1  8028  0.95
      P1  H  6934  6947       L1     1  0.22

> <Gold.Chemscore.Hbond.Weighted>
-4.2529

> <Gold.Chemscore.Metal.Weighted>
-0.0000

> <Gold.Chemscore.Lipo.Weighted>
-13.8841

> <Gold.Chemscore.Internal_Hbond.Weighted>
0.0000

> <Gold.Chemscore.DEClash.Weighted>
0.0402

> <Gold.Chemscore.DEInternal.Weighted>
1.7466

> <Gold.Chemscore.Rot.Weighted>
8.2633

> <Gold.Chemscore.Internal.Correction.Weighted>
   9.000000E+99

> <Gold.Protein.RotatedTorsions>
[ 6907 6896 6895 6894 ] final  -26.48 input  -60.11 | X-H torsion
[ 7974 7965 7964 7962 ] final -149.12 input  175.53 | X-H torsion
[ 8008 7997 7996 7995 ] final   50.45 input   59.86 | X-H torsion
[ 10167 10162 10161 10158 ] final -115.97 input  -65.29 | X-H torsion
[ 10718 10713 10712 10709 ] final   73.33 input   66.30 | X-H torsion
[ 10763 10752 10751 10750 ] final -147.70 input  -60.55 | X-H torsion
[ 11005 11000 10999 10996 ] final  133.82 input  -57.11 | X-H torsion

> <Gold.Protein.ActiveResidues>
 VAL166  LYS551  ARG553  GLY616  TRP617  ASP618  TYR619  PRO620  LYS621  CYS622 
 ASP623  PHE694  ASN695  SER759  ASP760  ASP761  ALA762  ILE779  LEU786  VAL792 
 PHE793  MET794  SER795  GLU796  ALA797  LYS798  CYS799  TRP800  GLU811  SER814 

> <Gold.Protein.RotatedAtoms>
  151.1603  135.0270  159.8707 H   0  0  0  0  0  0  0  0  0  0  0  0  # atno 6907 bound_to 6896
  152.5451  134.1286  159.8439 H   0  0  0  0  0  0  0  0  0  0  0  0  # atno 6908 bound_to 6896
  151.1381  133.4944  159.2630 H   0  0  0  0  0  0  0  0  0  0  0  0  # atno 6909 bound_to 6896
  144.7987  140.5106  143.5722 H   0  0  0  0  0  0  0  0  0  0  0  0  # atno 7974 bound_to 7965
  155.4190  140.3445  155.4270 H   0  0  0  0  0  0  0  0  0  0  0  0  # atno 8008 bound_to 7997
  156.1404  140.1540  156.8961 H   0  0  0  0  0  0  0  0  0  0  0  0  # atno 8009 bound_to 7997
  154.4966  140.0826  156.7690 H   0  0  0  0  0  0  0  0  0  0  0  0  # atno 8010 bound_to 7997
  140.0843  143.4759  152.1907 H   0  0  0  0  0  0  0  0  0  0  0  0  # atno 10167 bound_to 10162
  157.6543  130.9623  150.1054 H   0  0  0  0  0  0  0  0  0  0  0  0  # atno 10718 bound_to 10713
  154.8272  135.3353  154.6858 H   0  0  0  0  0  0  0  0  0  0  0  0  # atno 10763 bound_to 10752
  153.7483  135.6941  153.4956 H   0  0  0  0  0  0  0  0  0  0  0  0  # atno 10764 bound_to 10752
  153.2195  135.4454  155.0423 H   0  0  0  0  0  0  0  0  0  0  0  0  # atno 10765 bound_to 10752
  139.9875  134.9527  156.9778 H   0  0  0  0  0  0  0  0  0  0  0  0  # atno 11005 bound_to 11000
  145.5609  139.1479  143.3342 LP  0  0  0  0  0  0  0  0  0  0  0  0  # atno 17320 bound_to 7965
  146.2262  140.5745  142.8995 LP  0  0  0  0  0  0  0  0  0  0  0  0  # atno 17321 bound_to 7965
  139.5761  144.7488  151.3760 LP  0  0  0  0  0  0  0  0  0  0  0  0  # atno 17342 bound_to 10162
  140.7062  143.7508  150.7486 LP  0  0  0  0  0  0  0  0  0  0  0  0  # atno 17343 bound_to 10162
  156.1965  130.3657  149.8842 LP  0  0  0  0  0  0  0  0  0  0  0  0  # atno 17370 bound_to 10713
  156.6757  130.8838  151.3568 LP  0  0  0  0  0  0  0  0  0  0  0  0  # atno 17371 bound_to 10713
  140.4973  134.1133  155.7243 LP  0  0  0  0  0  0  0  0  0  0  0  0  # atno 17394 bound_to 11000
  141.1538  133.8921  157.2031 LP  0  0  0  0  0  0  0  0  0  0  0  0  # atno 17395 bound_to 11000

$$$$
