AV-unprocessed.smi:2473|AV-procd|sdf|9749|dock3
  -GOLD-   2272013393D 1   1.00000     0.00000
 Structure written by MMmdl.
 47 48  0  0  0  0  0  0  0  0  1 V2000
  152.6443  143.7823  161.9065 C   0  0  0  0  0  0  0  0  0  0  0  0
  151.7913  144.0954  160.6690 C   0  0  2  0  0  0  0  0  0  0  0  0
  150.3061  144.2439  161.0401 C   0  0  0  0  0  0  0  0  0  0  0  0
  149.4433  144.5676  159.8047 C   0  0  2  0  0  0  0  0  0  0  0  0
  147.9681  144.7045  160.2034 C   0  0  0  0  0  0  0  0  0  0  0  0
  147.4499  143.8783  160.9549 O   0  0  0  0  0  0  0  0  0  0  0  0
  147.3135  145.7716  159.7172 N   0  0  0  0  0  0  0  0  0  0  0  0
  145.9523  146.1654  160.0722 C   0  0  0  0  0  0  0  0  0  0  0  0
  145.3067  147.0632  158.9981 C   0  0  0  0  0  0  0  0  0  0  0  0
  145.5632  148.5290  159.1949 C   0  0  0  0  0  0  0  0  0  0  0  0
  145.8407  149.0710  160.3768 N   0  0  0  0  0  0  0  0  0  0  0  0
  146.0455  150.4202  160.1106 C   0  0  0  0  0  0  0  0  0  0  0  0
  145.8782  150.6502  158.7667 C   0  0  0  0  0  0  0  0  0  0  0  0
  145.5673  149.4267  158.1887 N   0  0  0  0  0  0  0  0  0  0  0  0
  145.3097  149.1966  156.7797 C   0  0  0  0  0  0  0  0  0  0  0  0
  149.6289  143.4794  158.7237 C   0  0  0  0  0  0  0  0  0  0  0  0
  151.1072  143.2640  158.3124 C   0  0  0  0  0  0  0  0  0  0  0  0
  151.1932  142.0205  157.4055 C   0  0  0  0  0  0  0  0  0  0  0  0
  151.6397  144.4701  157.5078 C   0  0  0  0  0  0  0  0  0  0  0  0
  151.9665  143.0180  159.5784 C   0  0  0  0  0  0  0  0  0  0  0  0
  152.3482  142.8377  162.3638 H   0  0  0  0  0  0  0  0  0  0  0  0
  152.5429  144.5633  162.6606 H   0  0  0  0  0  0  0  0  0  0  0  0
  153.7008  143.7106  161.6472 H   0  0  0  0  0  0  0  0  0  0  0  0
  152.1402  145.0506  160.2761 H   0  0  0  0  0  0  0  0  0  0  0  0
  149.9568  143.3227  161.5102 H   0  0  0  0  0  0  0  0  0  0  0  0
  150.1935  145.0296  161.7879 H   0  0  0  0  0  0  0  0  0  0  0  0
  149.7703  145.5266  159.4008 H   0  0  0  0  0  0  0  0  0  0  0  0
  147.8178  146.3911  159.0995 H   0  0  0  0  0  0  0  0  0  0  0  0
  145.3564  145.2616  160.1985 H   0  0  0  0  0  0  0  0  0  0  0  0
  145.9377  146.6737  161.0377 H   0  0  0  0  0  0  0  0  0  0  0  0
  145.6501  146.7604  158.0090 H   0  0  0  0  0  0  0  0  0  0  0  0
  144.2281  146.9038  158.9972 H   0  0  0  0  0  0  0  0  0  0  0  0
  146.2954  151.1143  160.8991 H   0  0  0  0  0  0  0  0  0  0  0  0
  145.9549  151.5593  158.1889 H   0  0  0  0  0  0  0  0  0  0  0  0
  145.4755  150.1131  156.2129 H   0  0  0  0  0  0  0  0  0  0  0  0
  144.2765  148.8779  156.6409 H   0  0  0  0  0  0  0  0  0  0  0  0
  145.9785  148.4255  156.3985 H   0  0  0  0  0  0  0  0  0  0  0  0
  149.2274  142.5362  159.0989 H   0  0  0  0  0  0  0  0  0  0  0  0
  149.0332  143.7267  157.8436 H   0  0  0  0  0  0  0  0  0  0  0  0
  152.2203  141.8246  157.0953 H   0  0  0  0  0  0  0  0  0  0  0  0
  150.5955  142.1454  156.5019 H   0  0  0  0  0  0  0  0  0  0  0  0
  150.8307  141.1267  157.9148 H   0  0  0  0  0  0  0  0  0  0  0  0
  152.6723  144.3100  157.1956 H   0  0  0  0  0  0  0  0  0  0  0  0
  151.6179  145.3983  158.0764 H   0  0  0  0  0  0  0  0  0  0  0  0
  151.0492  144.6324  156.6056 H   0  0  0  0  0  0  0  0  0  0  0  0
  153.0191  142.9429  159.3016 H   0  0  0  0  0  0  0  0  0  0  0  0
  151.7023  142.0497  160.0063 H   0  0  0  0  0  0  0  0  0  0  0  0
  1  2  1  0  0  0  0
  1 21  1  0  0  0  0
  1 22  1  0  0  0  0
  1 23  1  0  0  0  0
  2 20  1  0  0  0  0
  2  3  1  0  0  0  0
  2 24  1  0  0  0  0
  3  4  1  0  0  0  0
  3 25  1  0  0  0  0
  3 26  1  0  0  0  0
  4  5  1  0  0  0  0
  4 16  1  0  0  0  0
  4 27  1  0  0  0  0
  5  6  2  0  0  0  0
  5  7  1  0  0  0  0
  7  8  1  0  0  0  0
  7 28  1  0  0  0  0
  8  9  1  0  0  0  0
  8 29  1  0  0  0  0
  8 30  1  0  0  0  0
  9 10  1  0  0  0  0
  9 31  1  0  0  0  0
  9 32  1  0  0  0  0
 10 14  1  0  0  0  0
 10 11  2  0  0  0  0
 11 12  1  0  0  0  0
 12 13  2  0  0  0  0
 12 33  1  0  0  0  0
 13 14  1  0  0  0  0
 13 34  1  0  0  0  0
 14 15  1  0  0  0  0
 15 35  1  0  0  0  0
 15 36  1  0  0  0  0
 15 37  1  0  0  0  0
 16 17  1  0  0  0  0
 16 38  1  0  0  0  0
 16 39  1  0  0  0  0
 17 18  1  0  0  0  0
 17 19  1  0  0  0  0
 17 20  1  0  0  0  0
 18 40  1  0  0  0  0
 18 41  1  0  0  0  0
 18 42  1  0  0  0  0
 19 43  1  0  0  0  0
 19 44  1  0  0  0  0
 19 45  1  0  0  0  0
 20 46  1  0  0  0  0
 20 47  1  0  0  0  0
M  END
> <s_m_source_file>
AV-unprocessed.smi

> <i_m_source_file_index>
2473

> <i_lp_mmshare_version>
43012

> <i_f3d_flags>
0

> <s_epik_input>
W0NIM11bQ0BASF0oW0NIMl0xKVtDSDJdW0NASF0oW0NIMl1DMShbQ0gzXSlbQ0gzXSlDKD1PKVtOSF1bQ0gyXVtDSDJdYzJuW2NIXVtjSF1uMltDSDNd

> <s_epik_cmdline>
J2VwaWtfcHl0aG9uJywgJy1waCcsICc3LjAnLCAnLXRuJywgJzgnLCAnLW1hJywgJzIwMCcsICctbWV0YWxfYmluZGluZycsICctaW1hZScsICc8aW5maWxlLm1hZT4nLCAnLW9tYWUnLCAnPG91dGZpbGUubWFlPic=

> <r_lp_tautomer_probability>
1

> <r_epik_Ionization_Penalty>
1.22858

> <r_epik_Ionization_Penalty_Charging>
1.22858

> <r_epik_Ionization_Penalty_Neutral>
2.12671e-08

> <r_epik_State_Penalty>
1.2965

> <r_epik_Charging_Adjusted_Penalty>
2.52508

> <i_epik_Tot_Q>
0

> <i_epik_Tot_abs_Q>
0

> <r_epik_Metal_State_Penalty>
0.411461

> <b_epik_Metal_Only>
0

> <s_lp_Force_Field>
OPLS_2005

> <r_lp_Energy>
12.8127

> <b_lp_Chiralities_Consistent>
1

> <s_lp_Variant>
AV-unprocessed.smi:2473-7

> <Gold.Version>
5.8.1

> <Gold.Id.Protein>
6NUR|6NUR_protein|mol2

> <Gold.PLP.Fitness>
51.9283

> <Gold.PLP.PLP>
-49.9024

> <Gold.PLP.part.hbond>
-2.9370

> <Gold.PLP.part.metal>
0.0000

> <Gold.PLP.part.buried>
-5.7956

> <Gold.PLP.part.nonpolar>
-41.5800

> <Gold.PLP.part.repulsive>
0.3359

> <Gold.PLP.ligand.clash>
0.0000

> <Gold.PLP.ligand.torsion>
1.0711

> <Gold.PLP.Chemscore.Hbond>
1.3840

> <Gold.PLP.Chemscore.CHOScore>
0.0000

> <Gold.PLP.Chemscore.Metal>
0.0000

> <Gold.Chemscore.Hbonds>
donor molecule, donor type, donor heavy atom, donor atom, acceptor molecule, acceptor atom, score
      L1  H     7    28       P1  8029  0.38
      P1  H  6933  6944       L1     6  1.00

> <Gold.PLP.Chemscore.Internal.Correction>
0.0160

> <Gold.Rescore>
     Score         DG    S(hbond)    S(metal)    S(lipo)     H(rot)  DE(clash)    DE(int)     intcor
     19.41     -21.20       1.40        0.00     127.48       1.51       0.72       1.07       ----

> <Gold.Chemscore.Fitness>
19.4104

> <Gold.Chemscore.DG>
-21.2011

> <Gold.Chemscore.ZeroCoef>
-5.4800

> <Gold.Chemscore.Hbond>
1.3993

> <Gold.Chemscore.Metal>
0.0000

> <Gold.Chemscore.Lipo>
127.4833

> <Gold.Chemscore.Internal_Hbond>
0.0000

> <Gold.Chemscore.DEClash>
0.7220

> <Gold.Chemscore.DEInternal>
1.0687

> <Gold.Chemscore.Rot>
1.5109

> <Gold.Chemscore.Internal.Correction>
   9.000000E+99

> <Gold.Chemscore.Hbonds>
donor molecule, donor type, donor heavy atom, donor atom, acceptor molecule, acceptor atom, score
      L1  H     7    28       P1  8029  0.38
      P1  H  6933  6944       L1     6  0.94

> <Gold.Chemscore.Hbond.Weighted>
-4.6735

> <Gold.Chemscore.Metal.Weighted>
-0.0000

> <Gold.Chemscore.Lipo.Weighted>
-14.9155

> <Gold.Chemscore.Internal_Hbond.Weighted>
0.0000

> <Gold.Chemscore.DEClash.Weighted>
0.7220

> <Gold.Chemscore.DEInternal.Weighted>
1.0687

> <Gold.Chemscore.Rot.Weighted>
3.8680

> <Gold.Chemscore.Internal.Correction.Weighted>
   9.000000E+99

> <Gold.Protein.RotatedTorsions>
[ 6907 6896 6895 6894 ] final   64.89 input  -60.11 | X-H torsion
[ 7974 7965 7964 7962 ] final -103.97 input  175.53 | X-H torsion
[ 8008 7997 7996 7995 ] final  159.26 input   59.86 | X-H torsion
[ 10167 10162 10161 10158 ] final   58.52 input  -65.29 | X-H torsion
[ 10718 10713 10712 10709 ] final  -49.65 input   66.30 | X-H torsion
[ 10763 10752 10751 10750 ] final -168.05 input  -60.55 | X-H torsion
[ 11005 11000 10999 10996 ] final -146.37 input  -57.11 | X-H torsion

> <Gold.Protein.ActiveResidues>
 VAL166  LYS551  ARG553  GLY616  TRP617  ASP618  TYR619  PRO620  LYS621  CYS622 
 ASP623  PHE694  ASN695  SER759  ASP760  ASP761  ALA762  ILE779  LEU786  VAL792 
 PHE793  MET794  SER795  GLU796  ALA797  LYS798  CYS799  TRP800  GLU811  SER814 

> <Gold.Protein.RotatedAtoms>
  152.4366  134.5674  159.9911 H   0  0  0  0  0  0  0  0  0  0  0  0  # atno 6907 bound_to 6896
  151.5782  133.3375  159.3011 H   0  0  0  0  0  0  0  0  0  0  0  0  # atno 6908 bound_to 6896
  150.8265  134.7534  159.6882 H   0  0  0  0  0  0  0  0  0  0  0  0  # atno 6909 bound_to 6896
  145.2491  140.9232  143.3105 H   0  0  0  0  0  0  0  0  0  0  0  0  # atno 7974 bound_to 7965
  156.2250  140.1836  156.7384 H   0  0  0  0  0  0  0  0  0  0  0  0  # atno 8008 bound_to 7997
  154.5927  140.0648  156.9289 H   0  0  0  0  0  0  0  0  0  0  0  0  # atno 8009 bound_to 7997
  155.2309  140.3314  155.4306 H   0  0  0  0  0  0  0  0  0  0  0  0  # atno 8010 bound_to 7997
  140.1863  144.4131  150.6591 H   0  0  0  0  0  0  0  0  0  0  0  0  # atno 10167 bound_to 10162
  156.1873  130.4152  149.9421 H   0  0  0  0  0  0  0  0  0  0  0  0  # atno 10718 bound_to 10713
  154.6669  135.2933  154.9794 H   0  0  0  0  0  0  0  0  0  0  0  0  # atno 10763 bound_to 10752
  154.0834  135.6601  153.4845 H   0  0  0  0  0  0  0  0  0  0  0  0  # atno 10764 bound_to 10752
  153.0463  135.5203  154.7646 H   0  0  0  0  0  0  0  0  0  0  0  0  # atno 10765 bound_to 10752
  140.7827  134.3060  157.5040 H   0  0  0  0  0  0  0  0  0  0  0  0  # atno 11005 bound_to 11000
  144.9519  139.4074  143.6398 LP  0  0  0  0  0  0  0  0  0  0  0  0  # atno 17320 bound_to 7965
  146.3307  139.8530  142.8869 LP  0  0  0  0  0  0  0  0  0  0  0  0  # atno 17321 bound_to 7965
  140.6486  143.2219  151.6130 LP  0  0  0  0  0  0  0  0  0  0  0  0  # atno 17342 bound_to 10162
  139.5274  144.3016  152.1068 LP  0  0  0  0  0  0  0  0  0  0  0  0  # atno 17343 bound_to 10162
  156.7172  130.8993  151.3615 LP  0  0  0  0  0  0  0  0  0  0  0  0  # atno 17370 bound_to 10713
  157.6907  130.9230  150.0506 LP  0  0  0  0  0  0  0  0  0  0  0  0  # atno 17371 bound_to 10713
  139.8740  134.9328  156.3563 LP  0  0  0  0  0  0  0  0  0  0  0  0  # atno 17394 bound_to 11000
  140.9467  133.7478  156.0217 LP  0  0  0  0  0  0  0  0  0  0  0  0  # atno 17395 bound_to 11000

$$$$
