AV-unprocessed.smi:2103|AV-procd|sdf|8582|dock8
  -GOLD-   2272011313D 1   1.00000     0.00000
 Structure written by MMmdl.
 38 39  0  0  0  0  0  0  0  0  1 V2000
  150.7025  134.5710  156.5936 C   0  0  0  0  0  0  0  0  0  0  0  0
  150.3658  135.9052  157.0442 N   0  0  0  0  0  0  0  0  0  0  0  0
  149.3709  136.0656  158.0392 C   0  0  0  0  0  0  0  0  0  0  0  0
  148.7712  135.1134  158.5391 O   0  0  0  0  0  0  0  0  0  0  0  0
  149.1123  137.4505  158.4149 C   0  0  0  0  0  0  0  0  0  0  0  0
  149.7854  138.4660  157.8310 C   0  0  0  0  0  0  0  0  0  0  0  0
  150.7457  138.2818  156.8531 N   0  0  0  0  0  0  0  0  0  0  0  0
  151.4276  139.4485  156.2771 C   0  0  0  0  0  0  0  0  0  0  0  0
  152.1797  140.2965  157.3130 C   0  0  0  0  0  0  0  0  0  0  0  0
  153.1017  139.8217  157.9781 O   0  0  0  0  0  0  0  0  0  0  0  0
  151.7586  141.5637  157.4413 N   0  0  0  0  0  0  0  0  0  0  0  0
  152.3237  142.5568  158.3499 C   0  0  0  0  0  0  0  0  0  0  0  0
  152.0099  142.2024  159.8194 C   0  0  0  0  0  0  0  0  0  0  0  0
  152.5274  143.2839  160.7817 C   0  0  0  0  0  0  0  0  0  0  0  0
  151.9693  144.6687  160.4185 C   0  0  0  0  0  0  0  0  0  0  0  0
  152.2873  145.0284  158.9589 C   0  0  0  0  0  0  0  0  0  0  0  0
  151.7683  143.9495  157.9947 C   0  0  0  0  0  0  0  0  0  0  0  0
  151.0575  136.9721  156.4295 C   0  0  0  0  0  0  0  0  0  0  0  0
  151.9037  136.7783  155.5528 O   0  0  0  0  0  0  0  0  0  0  0  0
  150.2474  133.8129  157.2303 H   0  0  0  0  0  0  0  0  0  0  0  0
  151.7882  134.4681  156.6429 H   0  0  0  0  0  0  0  0  0  0  0  0
  150.3391  134.4799  155.5688 H   0  0  0  0  0  0  0  0  0  0  0  0
  148.3717  137.6657  159.1712 H   0  0  0  0  0  0  0  0  0  0  0  0
  149.5592  139.4741  158.1471 H   0  0  0  0  0  0  0  0  0  0  0  0
  152.1254  139.1314  155.5001 H   0  0  0  0  0  0  0  0  0  0  0  0
  150.7003  140.0875  155.7741 H   0  0  0  0  0  0  0  0  0  0  0  0
  150.9921  141.8670  156.8582 H   0  0  0  0  0  0  0  0  0  0  0  0
  153.4070  142.5787  158.2152 H   0  0  0  0  0  0  0  0  0  0  0  0
  150.9330  142.0874  159.9501 H   0  0  0  0  0  0  0  0  0  0  0  0
  152.4562  141.2427  160.0818 H   0  0  0  0  0  0  0  0  0  0  0  0
  152.2547  143.0304  161.8065 H   0  0  0  0  0  0  0  0  0  0  0  0
  153.6173  143.3089  160.7490 H   0  0  0  0  0  0  0  0  0  0  0  0
  150.8892  144.6790  160.5705 H   0  0  0  0  0  0  0  0  0  0  0  0
  152.3832  145.4240  161.0870 H   0  0  0  0  0  0  0  0  0  0  0  0
  151.8448  145.9933  158.7100 H   0  0  0  0  0  0  0  0  0  0  0  0
  153.3651  145.1409  158.8354 H   0  0  0  0  0  0  0  0  0  0  0  0
  152.0400  144.2115  156.9714 H   0  0  0  0  0  0  0  0  0  0  0  0
  150.6779  143.9319  158.0295 H   0  0  0  0  0  0  0  0  0  0  0  0
  1  2  1  0  0  0  0
  1 20  1  0  0  0  0
  1 21  1  0  0  0  0
  1 22  1  0  0  0  0
  2 18  1  0  0  0  0
  2  3  1  0  0  0  0
  3  4  2  0  0  0  0
  3  5  1  0  0  0  0
  5  6  2  0  0  0  0
  5 23  1  0  0  0  0
  6  7  1  0  0  0  0
  6 24  1  0  0  0  0
  7  8  1  0  0  0  0
  7 18  1  0  0  0  0
  8  9  1  0  0  0  0
  8 25  1  0  0  0  0
  8 26  1  0  0  0  0
  9 10  2  0  0  0  0
  9 11  1  0  0  0  0
 11 12  1  0  0  0  0
 11 27  1  0  0  0  0
 12 17  1  0  0  0  0
 12 13  1  0  0  0  0
 12 28  1  0  0  0  0
 13 14  1  0  0  0  0
 13 29  1  0  0  0  0
 13 30  1  0  0  0  0
 14 15  1  0  0  0  0
 14 31  1  0  0  0  0
 14 32  1  0  0  0  0
 15 16  1  0  0  0  0
 15 33  1  0  0  0  0
 15 34  1  0  0  0  0
 16 17  1  0  0  0  0
 16 35  1  0  0  0  0
 16 36  1  0  0  0  0
 17 37  1  0  0  0  0
 17 38  1  0  0  0  0
 18 19  2  0  0  0  0
M  END
> <s_m_source_file>
AV-unprocessed.smi

> <i_m_source_file_index>
2103

> <i_lp_mmshare_version>
43012

> <i_f3d_flags>
0

> <s_epik_input>
W0NIM11uMWMoPU8pW2NIXVtjSF1uKGMxPU8pW0NIMl1DKD1PKVtOSF1bQ0hdMltDSDJdW0NIMl1bQ0gyXVtDSDJdW0NIMl0y

> <s_epik_cmdline>
J2VwaWtfcHl0aG9uJywgJy1waCcsICc3LjAnLCAnLXRuJywgJzgnLCAnLW1hJywgJzIwMCcsICctbWV0YWxfYmluZGluZycsICctaW1hZScsICc8aW5maWxlLm1hZT4nLCAnLW9tYWUnLCAnPG91dGZpbGUubWFlPic=

> <r_lp_tautomer_probability>
1

> <r_epik_Ionization_Penalty>
3.18221e-08

> <r_epik_Ionization_Penalty_Charging>
1.27752e-08

> <r_epik_Ionization_Penalty_Neutral>
1.90469e-08

> <r_epik_State_Penalty>
-0

> <r_epik_Charging_Adjusted_Penalty>
1.27752e-08

> <i_epik_Tot_Q>
0

> <i_epik_Tot_abs_Q>
0

> <r_epik_Metal_State_Penalty>
-0

> <b_epik_Metal_Only>
0

> <s_lp_Force_Field>
OPLS_2005

> <r_lp_Energy>
16.4869

> <b_lp_Chiralities_Consistent>
1

> <s_lp_Variant>
AV-unprocessed.smi:2103-1

> <Gold.Version>
5.8.1

> <Gold.Id.Protein>
6NUR|6NUR_protein|mol2

> <Gold.PLP.Fitness>
41.9848

> <Gold.PLP.PLP>
-33.1916

> <Gold.PLP.part.hbond>
-3.0000

> <Gold.PLP.part.metal>
0.0000

> <Gold.PLP.part.buried>
-3.5667

> <Gold.PLP.part.nonpolar>
-26.0948

> <Gold.PLP.part.repulsive>
0.1587

> <Gold.PLP.ligand.clash>
0.0000

> <Gold.PLP.ligand.torsion>
0.1059

> <Gold.PLP.Chemscore.Hbond>
3.0000

> <Gold.PLP.Chemscore.CHOScore>
0.0000

> <Gold.PLP.Chemscore.Metal>
0.0000

> <Gold.Chemscore.Hbonds>
donor molecule, donor type, donor heavy atom, donor atom, acceptor molecule, acceptor atom, score
      P1  H  6896  6909       L1     4  0.28
      P1  H  7997  8008       L1    10  1.00
      P1  H 10752 10764       L1    19  1.00

> <Gold.PLP.Chemscore.Internal.Correction>
0.0050

> <Gold.Rescore>
     Score         DG    S(hbond)    S(metal)    S(lipo)     H(rot)  DE(clash)    DE(int)     intcor
     19.58     -19.89       2.55        0.00      84.01       1.54       0.04       0.27       ----

> <Gold.Chemscore.Fitness>
19.5806

> <Gold.Chemscore.DG>
-19.8946

> <Gold.Chemscore.ZeroCoef>
-5.4800

> <Gold.Chemscore.Hbond>
2.5521

> <Gold.Chemscore.Metal>
0.0000

> <Gold.Chemscore.Lipo>
84.0063

> <Gold.Chemscore.Internal_Hbond>
0.0000

> <Gold.Chemscore.DEClash>
0.0442

> <Gold.Chemscore.DEInternal>
0.2698

> <Gold.Chemscore.Rot>
1.5383

> <Gold.Chemscore.Internal.Correction>
   9.000000E+99

> <Gold.Chemscore.Hbonds>
donor molecule, donor type, donor heavy atom, donor atom, acceptor molecule, acceptor atom, score
      P1  H  6896  6909       L1     4  0.03
      P1  H  7997  8008       L1    10  0.60
      P1  H 10752 10764       L1    19  0.98

> <Gold.Chemscore.Hbond.Weighted>
-8.5239

> <Gold.Chemscore.Metal.Weighted>
-0.0000

> <Gold.Chemscore.Lipo.Weighted>
-9.8287

> <Gold.Chemscore.Internal_Hbond.Weighted>
0.0000

> <Gold.Chemscore.DEClash.Weighted>
0.0442

> <Gold.Chemscore.DEInternal.Weighted>
0.2698

> <Gold.Chemscore.Rot.Weighted>
3.9380

> <Gold.Chemscore.Internal.Correction.Weighted>
   9.000000E+99

> <Gold.Protein.RotatedTorsions>
[ 6907 6896 6895 6894 ] final   21.69 input  -60.11 | X-H torsion
[ 7974 7965 7964 7962 ] final   31.49 input  175.53 | X-H torsion
[ 8008 7997 7996 7995 ] final  -85.86 input   59.86 | X-H torsion
[ 10167 10162 10161 10158 ] final   36.42 input  -65.29 | X-H torsion
[ 10718 10713 10712 10709 ] final   76.19 input   66.30 | X-H torsion
[ 10763 10752 10751 10750 ] final  -55.51 input  -60.55 | X-H torsion
[ 11005 11000 10999 10996 ] final  138.54 input  -57.11 | X-H torsion

> <Gold.Protein.ActiveResidues>
 VAL166  LYS551  ARG553  GLY616  TRP617  ASP618  TYR619  PRO620  LYS621  CYS622 
 ASP623  PHE694  ASN695  SER759  ASP760  ASP761  ALA762  ILE779  LEU786  VAL792 
 PHE793  MET794  SER795  GLU796  ALA797  LYS798  CYS799  TRP800  GLU811  SER814 

> <Gold.Protein.RotatedAtoms>
  151.9157  135.0320  160.0517 H   0  0  0  0  0  0  0  0  0  0  0  0  # atno 6907 bound_to 6896
  152.2242  133.5003  159.5188 H   0  0  0  0  0  0  0  0  0  0  0  0  # atno 6908 bound_to 6896
  150.7008  134.1219  159.4080 H   0  0  0  0  0  0  0  0  0  0  0  0  # atno 6909 bound_to 6896
  146.1547  139.6650  142.9075 H   0  0  0  0  0  0  0  0  0  0  0  0  # atno 7974 bound_to 7965
  154.6454  140.0586  156.9894 H   0  0  0  0  0  0  0  0  0  0  0  0  # atno 8008 bound_to 7997
  155.1452  140.3269  155.4425 H   0  0  0  0  0  0  0  0  0  0  0  0  # atno 8009 bound_to 7997
  156.2551  140.1957  156.6566 H   0  0  0  0  0  0  0  0  0  0  0  0  # atno 8010 bound_to 7997
  140.4129  144.1567  150.6141 H   0  0  0  0  0  0  0  0  0  0  0  0  # atno 10167 bound_to 10162
  157.6664  130.9763  150.1462 H   0  0  0  0  0  0  0  0  0  0  0  0  # atno 10718 bound_to 10713
  154.1919  135.6426  153.5062 H   0  0  0  0  0  0  0  0  0  0  0  0  # atno 10763 bound_to 10752
  153.0033  135.5431  154.6406 H   0  0  0  0  0  0  0  0  0  0  0  0  # atno 10764 bound_to 10752
  154.5797  135.2924  155.0718 H   0  0  0  0  0  0  0  0  0  0  0  0  # atno 10765 bound_to 10752
  140.0191  134.9405  157.0437 H   0  0  0  0  0  0  0  0  0  0  0  0  # atno 11005 bound_to 11000
  145.4738  141.0436  143.2684 LP  0  0  0  0  0  0  0  0  0  0  0  0  # atno 17320 bound_to 7965
  144.7948  139.6256  143.7097 LP  0  0  0  0  0  0  0  0  0  0  0  0  # atno 17321 bound_to 7965
  140.4618  143.2446  151.9210 LP  0  0  0  0  0  0  0  0  0  0  0  0  # atno 17342 bound_to 10162
  139.4782  144.5460  151.8458 LP  0  0  0  0  0  0  0  0  0  0  0  0  # atno 17343 bound_to 10162
  156.2272  130.3679  149.8486 LP  0  0  0  0  0  0  0  0  0  0  0  0  # atno 17370 bound_to 10713
  156.6323  130.8671  151.3498 LP  0  0  0  0  0  0  0  0  0  0  0  0  # atno 17371 bound_to 10713
  140.4419  134.1672  155.7174 LP  0  0  0  0  0  0  0  0  0  0  0  0  # atno 17394 bound_to 11000
  141.1762  133.8509  157.1413 LP  0  0  0  0  0  0  0  0  0  0  0  0  # atno 17395 bound_to 11000

$$$$
