AV-unprocessed.smi:412|AV-procd|sdf|2511|dock9
  -GOLD-   2262022463D 1   1.00000     0.00000
 Structure written by MMmdl.
 36 38  0  0  0  0  0  0  0  0  1 V2000
  154.1821  140.7853  160.3888 C   0  0  0  0  0  0  0  0  0  0  0  0
  153.0782  141.0887  159.4861 N   0  0  0  0  0  0  0  0  0  0  0  0
  152.3682  140.2097  158.7410 C   0  0  0  0  0  0  0  0  0  0  0  0
  152.5379  138.9910  158.6991 O   0  0  0  0  0  0  0  0  0  0  0  0
  151.4313  140.9039  158.0522 N   0  0  0  0  0  0  0  0  0  0  0  0
  150.4433  140.3488  157.1278 C   0  0  0  0  0  0  0  0  0  0  0  0
  150.6486  140.8617  155.6886 C   0  0  1  0  0  0  0  0  0  0  0  0
  151.7977  140.2387  155.1479 O   0  0  0  0  0  0  0  0  0  0  0  0
  149.4162  140.5991  154.8358 C   0  0  0  0  0  0  0  0  0  0  0  0
  149.0350  139.2799  154.5027 C   0  0  0  0  0  0  0  0  0  0  0  0
  147.8885  139.0483  153.7179 C   0  0  0  0  0  0  0  0  0  0  0  0
  147.1129  140.1331  153.2664 C   0  0  0  0  0  0  0  0  0  0  0  0
  147.4831  141.4495  153.6017 C   0  0  0  0  0  0  0  0  0  0  0  0
  148.6310  141.6818  154.3843 C   0  0  0  0  0  0  0  0  0  0  0  0
  151.5418  142.2653  158.3713 C   0  0  0  0  0  0  0  0  0  0  0  0
  150.8063  143.3830  157.9388 C   0  0  0  0  0  0  0  0  0  0  0  0
  151.1757  144.6432  158.4649 C   0  0  0  0  0  0  0  0  0  0  0  0
  152.2453  144.7601  159.3904 C   0  0  0  0  0  0  0  0  0  0  0  0
  152.9676  143.6186  159.8109 C   0  0  0  0  0  0  0  0  0  0  0  0
  152.5792  142.3798  159.2727 C   0  0  0  0  0  0  0  0  0  0  0  0
  154.4270  139.7224  160.3952 H   0  0  0  0  0  0  0  0  0  0  0  0
  153.9258  141.0774  161.4073 H   0  0  0  0  0  0  0  0  0  0  0  0
  155.0752  141.3344  160.0896 H   0  0  0  0  0  0  0  0  0  0  0  0
  150.4365  139.2587  157.1609 H   0  0  0  0  0  0  0  0  0  0  0  0
  149.4589  140.6581  157.4832 H   0  0  0  0  0  0  0  0  0  0  0  0
  150.8320  141.9371  155.6981 H   0  0  0  0  0  0  0  0  0  0  0  0
  152.5563  140.5546  155.6145 H   0  0  0  0  0  0  0  0  0  0  0  0
  149.6195  138.4405  154.8497 H   0  0  0  0  0  0  0  0  0  0  0  0
  147.6034  138.0380  153.4638 H   0  0  0  0  0  0  0  0  0  0  0  0
  146.2333  139.9556  152.6654 H   0  0  0  0  0  0  0  0  0  0  0  0
  146.8856  142.2817  153.2594 H   0  0  0  0  0  0  0  0  0  0  0  0
  148.9049  142.6954  154.6385 H   0  0  0  0  0  0  0  0  0  0  0  0
  149.9908  143.2897  157.2375 H   0  0  0  0  0  0  0  0  0  0  0  0
  150.6361  145.5273  158.1591 H   0  0  0  0  0  0  0  0  0  0  0  0
  152.5102  145.7320  159.7795 H   0  0  0  0  0  0  0  0  0  0  0  0
  153.7816  143.6983  160.5163 H   0  0  0  0  0  0  0  0  0  0  0  0
  1  2  1  0  0  0  0
  1 21  1  0  0  0  0
  1 22  1  0  0  0  0
  1 23  1  0  0  0  0
  2 20  1  0  0  0  0
  2  3  1  0  0  0  0
  3  4  2  0  0  0  0
  3  5  1  0  0  0  0
  5  6  1  0  0  0  0
  5 15  1  0  0  0  0
  6  7  1  0  0  0  0
  6 24  1  0  0  0  0
  6 25  1  0  0  0  0
  7  8  1  0  0  0  0
  7  9  1  0  0  0  0
  7 26  1  0  0  0  0
  8 27  1  0  0  0  0
  9 14  1  0  0  0  0
  9 10  2  0  0  0  0
 10 11  1  0  0  0  0
 10 28  1  0  0  0  0
 11 12  2  0  0  0  0
 11 29  1  0  0  0  0
 12 13  1  0  0  0  0
 12 30  1  0  0  0  0
 13 14  2  0  0  0  0
 13 31  1  0  0  0  0
 14 32  1  0  0  0  0
 15 20  2  0  0  0  0
 15 16  1  0  0  0  0
 16 17  2  0  0  0  0
 16 33  1  0  0  0  0
 17 18  1  0  0  0  0
 17 34  1  0  0  0  0
 18 19  2  0  0  0  0
 18 35  1  0  0  0  0
 19 20  1  0  0  0  0
 19 36  1  0  0  0  0
M  END
> <s_m_source_file>
AV-unprocessed.smi

> <i_m_source_file_index>
412

> <i_lp_mmshare_version>
43012

> <i_f3d_flags>
0

> <s_epik_input>
W2NIXTFbY0hdW2NIXVtjSF1jKGMxMiluKFtDSDNdKWMoPU8pbjJbQ0gyXVtDQEhdKFtPSF0pYzNbY0hdW2NIXVtjSF1bY0hdW2NIXTM=

> <s_epik_cmdline>
J2VwaWtfcHl0aG9uJywgJy1waCcsICc3LjAnLCAnLXRuJywgJzgnLCAnLW1hJywgJzIwMCcsICctbWV0YWxfYmluZGluZycsICctaW1hZScsICc8aW5maWxlLm1hZT4nLCAnLW9tYWUnLCAnPG91dGZpbGUubWFlPic=

> <r_lp_tautomer_probability>
1

> <r_epik_Ionization_Penalty>
1.34619e-06

> <r_epik_Ionization_Penalty_Charging>
2.57375e-09

> <r_epik_Ionization_Penalty_Neutral>
1.34362e-06

> <r_epik_State_Penalty>
-0

> <r_epik_Charging_Adjusted_Penalty>
2.57375e-09

> <i_epik_Tot_Q>
0

> <i_epik_Tot_abs_Q>
0

> <r_epik_Metal_State_Penalty>
-0

> <b_epik_Metal_Only>
0

> <s_lp_Force_Field>
OPLS_2005

> <r_lp_Energy>
43.5229

> <b_lp_Chiralities_Consistent>
1

> <s_lp_Variant>
AV-unprocessed.smi:412-2

> <Gold.Version>
5.8.1

> <Gold.Id.Protein>
6NUR|6NUR_protein|mol2

> <Gold.PLP.Fitness>
50.2468

> <Gold.PLP.PLP>
-48.2148

> <Gold.PLP.part.hbond>
-1.0000

> <Gold.PLP.part.metal>
0.0000

> <Gold.PLP.part.buried>
-3.8721

> <Gold.PLP.part.nonpolar>
-42.6918

> <Gold.PLP.part.repulsive>
0.0000

> <Gold.PLP.ligand.clash>
0.0000

> <Gold.PLP.ligand.torsion>
0.2184

> <Gold.PLP.Chemscore.Hbond>
0.8208

> <Gold.PLP.Chemscore.CHOScore>
0.0000

> <Gold.PLP.Chemscore.Metal>
0.0000

> <Gold.Chemscore.Hbonds>
donor molecule, donor type, donor heavy atom, donor atom, acceptor molecule, acceptor atom, score
      P1  H  7989  7998       L1     8  0.78

> <Gold.PLP.Chemscore.Internal.Correction>
0.0063

> <Gold.Rescore>
     Score         DG    S(hbond)    S(metal)    S(lipo)     H(rot)  DE(clash)    DE(int)     intcor
     17.56     -17.69       0.66        0.00     123.84       1.76       0.02       0.11       ----

> <Gold.Chemscore.Fitness>
17.5601

> <Gold.Chemscore.DG>
-17.6890

> <Gold.Chemscore.ZeroCoef>
-5.4800

> <Gold.Chemscore.Hbond>
0.6629

> <Gold.Chemscore.Metal>
0.0000

> <Gold.Chemscore.Lipo>
123.8395

> <Gold.Chemscore.Internal_Hbond>
0.0000

> <Gold.Chemscore.DEClash>
0.0174

> <Gold.Chemscore.DEInternal>
0.1115

> <Gold.Chemscore.Rot>
1.7555

> <Gold.Chemscore.Internal.Correction>
   9.000000E+99

> <Gold.Chemscore.Hbonds>
donor molecule, donor type, donor heavy atom, donor atom, acceptor molecule, acceptor atom, score
      P1  H  7989  7998       L1     8  0.13

> <Gold.Chemscore.Hbond.Weighted>
-2.2139

> <Gold.Chemscore.Metal.Weighted>
-0.0000

> <Gold.Chemscore.Lipo.Weighted>
-14.4892

> <Gold.Chemscore.Internal_Hbond.Weighted>
0.0000

> <Gold.Chemscore.DEClash.Weighted>
0.0174

> <Gold.Chemscore.DEInternal.Weighted>
0.1115

> <Gold.Chemscore.Rot.Weighted>
4.4942

> <Gold.Chemscore.Internal.Correction.Weighted>
   9.000000E+99

> <Gold.Protein.RotatedTorsions>
[ 6907 6896 6895 6894 ] final   76.76 input  -60.11 | X-H torsion
[ 7974 7965 7964 7962 ] final  -46.34 input  175.53 | X-H torsion
[ 8008 7997 7996 7995 ] final  171.12 input   59.86 | X-H torsion
[ 10167 10162 10161 10158 ] final   -8.89 input  -65.29 | X-H torsion
[ 10718 10713 10712 10709 ] final  132.67 input   66.30 | X-H torsion
[ 10763 10752 10751 10750 ] final -152.69 input  -60.55 | X-H torsion
[ 11005 11000 10999 10996 ] final   85.62 input  -57.11 | X-H torsion

> <Gold.Protein.ActiveResidues>
 VAL166  LYS551  ARG553  GLY616  TRP617  ASP618  TYR619  PRO620  LYS621  CYS622 
 ASP623  PHE694  ASN695  SER759  ASP760  ASP761  ALA762  ILE779  LEU786  VAL792 
 PHE793  MET794  SER795  GLU796  ALA797  LYS798  CYS799  TRP800  GLU811  SER814 

> <Gold.Protein.RotatedAtoms>
  152.5088  134.3920  159.9386 H   0  0  0  0  0  0  0  0  0  0  0  0  # atno 6907 bound_to 6896
  151.3880  133.3792  159.2725 H   0  0  0  0  0  0  0  0  0  0  0  0  # atno 6908 bound_to 6896
  150.9454  134.8880  159.7697 H   0  0  0  0  0  0  0  0  0  0  0  0  # atno 6909 bound_to 6896
  145.9729  140.7364  142.9401 H   0  0  0  0  0  0  0  0  0  0  0  0  # atno 7974 bound_to 7965
  156.1301  140.1520  156.9078 H   0  0  0  0  0  0  0  0  0  0  0  0  # atno 8008 bound_to 7997
  154.4902  140.0853  156.7618 H   0  0  0  0  0  0  0  0  0  0  0  0  # atno 8009 bound_to 7997
  155.4271  140.3425  155.4279 H   0  0  0  0  0  0  0  0  0  0  0  0  # atno 8010 bound_to 7997
  140.7072  143.5918  150.8886 H   0  0  0  0  0  0  0  0  0  0  0  0  # atno 10167 bound_to 10162
  157.4848  131.1087  150.9634 H   0  0  0  0  0  0  0  0  0  0  0  0  # atno 10718 bound_to 10713
  154.7978  135.3230  154.7625 H   0  0  0  0  0  0  0  0  0  0  0  0  # atno 10763 bound_to 10752
  153.8300  135.6880  153.4820 H   0  0  0  0  0  0  0  0  0  0  0  0  # atno 10764 bound_to 10752
  153.1678  135.4635  154.9803 H   0  0  0  0  0  0  0  0  0  0  0  0  # atno 10765 bound_to 10752
  139.8966  134.8299  156.2607 H   0  0  0  0  0  0  0  0  0  0  0  0  # atno 11005 bound_to 11000
  144.6841  140.2779  143.7296 LP  0  0  0  0  0  0  0  0  0  0  0  0  # atno 17320 bound_to 7965
  145.7880  139.1916  143.2119 LP  0  0  0  0  0  0  0  0  0  0  0  0  # atno 17321 bound_to 7965
  139.9644  143.6128  152.2993 LP  0  0  0  0  0  0  0  0  0  0  0  0  # atno 17342 bound_to 10162
  139.6692  144.7661  151.1816 LP  0  0  0  0  0  0  0  0  0  0  0  0  # atno 17343 bound_to 10162
  157.0355  130.5728  149.5349 LP  0  0  0  0  0  0  0  0  0  0  0  0  # atno 17370 bound_to 10713
  156.0141  130.5234  150.8080 LP  0  0  0  0  0  0  0  0  0  0  0  0  # atno 17371 bound_to 10713
  141.0164  133.7066  156.1196 LP  0  0  0  0  0  0  0  0  0  0  0  0  # atno 17394 bound_to 11000
  140.7295  134.4270  157.5567 LP  0  0  0  0  0  0  0  0  0  0  0  0  # atno 17395 bound_to 11000

$$$$
