AV-unprocessed.smi:1643|AV-procd|sdf|6580|dock9
  -GOLD-   22720 7273D 1   1.00000     0.00000
 Structure written by MMmdl.
 55 57  0  0  0  0  0  0  0  0  3 V2000
  149.7793  140.3455  157.0989 C   0  0  0  0  0  0  0  0  0  0  0  0
  148.2795  140.6267  157.2244 C   0  0  0  0  0  0  0  0  0  0  0  0
  147.7335  140.3835  158.3007 O   0  0  0  0  0  0  0  0  0  0  0  0
  147.6105  141.1397  156.1626 N   0  0  0  0  0  0  0  0  0  0  0  0
  146.1958  141.5281  156.2711 C   0  0  0  0  0  0  0  0  0  0  0  0
  145.2500  140.4528  155.6937 C   0  0  0  0  0  0  0  0  0  0  0  0
  145.9048  139.4415  154.7277 C   0  0  0  0  0  0  0  0  0  0  0  0
  146.4570  140.0395  153.4810 N   0  3  2  0  0  0  0  0  0  0  0  0
  147.1386  139.0333  152.6225 C   0  0  0  0  0  0  0  0  0  0  0  0
  146.1299  138.0446  152.0119 C   0  0  1  0  0  0  0  0  0  0  0  0
  146.5646  137.6596  150.7219 O   0  0  0  0  0  0  0  0  0  0  0  0
  145.9595  136.7818  152.8795 C   0  0  0  0  0  0  0  0  0  0  0  0
  145.0671  135.7888  152.2670 N   0  0  0  0  0  0  0  0  0  0  0  0
  143.8981  135.9576  151.5902 C   0  0  0  0  0  0  0  0  0  0  0  0
  143.4542  134.7232  151.2239 N   0  3  0  0  0  0  0  0  0  0  0  0
  144.3530  133.7526  151.6712 C   0  0  0  0  0  0  0  0  0  0  0  0
  144.3382  132.3687  151.5435 C   0  0  0  0  0  0  0  0  0  0  0  0
  145.4158  131.6565  152.1173 C   0  0  0  0  0  0  0  0  0  0  0  0
  145.4322  130.1426  151.9929 C   0  0  0  0  0  0  0  0  0  0  0  0
  146.4620  132.3354  152.7943 C   0  0  0  0  0  0  0  0  0  0  0  0
  147.6155  131.5596  153.4072 C   0  0  0  0  0  0  0  0  0  0  0  0
  146.4588  133.7436  152.9133 C   0  0  0  0  0  0  0  0  0  0  0  0
  145.3904  134.4296  152.3411 C   0  0  0  0  0  0  0  0  0  0  0  0
  147.2404  141.3005  153.6361 C   0  0  0  0  0  0  0  0  0  0  0  0
  148.2275  141.3256  154.8338 C   0  0  0  0  0  0  0  0  0  0  0  0
  150.3076  141.2069  156.6895 H   0  0  0  0  0  0  0  0  0  0  0  0
  149.9580  139.4820  156.4582 H   0  0  0  0  0  0  0  0  0  0  0  0
  150.2102  140.1289  158.0769 H   0  0  0  0  0  0  0  0  0  0  0  0
  145.9091  141.7460  157.3013 H   0  0  0  0  0  0  0  0  0  0  0  0
  146.0464  142.4811  155.7646 H   0  0  0  0  0  0  0  0  0  0  0  0
  144.8336  139.8860  156.5274 H   0  0  0  0  0  0  0  0  0  0  0  0
  144.3982  140.9350  155.2128 H   0  0  0  0  0  0  0  0  0  0  0  0
  146.6821  138.8781  155.2466 H   0  0  0  0  0  0  0  0  0  0  0  0
  145.1551  138.7045  154.4374 H   0  0  0  0  0  0  0  0  0  0  0  0
  147.7362  139.5116  151.8445 H   0  0  0  0  0  0  0  0  0  0  0  0
  147.8521  138.4643  153.2207 H   0  0  0  0  0  0  0  0  0  0  0  0
  145.1639  138.5411  151.9107 H   0  0  0  0  0  0  0  0  0  0  0  0
  145.9575  138.0006  150.0825 H   0  0  0  0  0  0  0  0  0  0  0  0
  146.9239  136.2996  153.0462 H   0  0  0  0  0  0  0  0  0  0  0  0
  145.5665  137.0329  153.8655 H   0  0  0  0  0  0  0  0  0  0  0  0
  143.4093  136.8987  151.3834 H   0  0  0  0  0  0  0  0  0  0  0  0
  143.5380  131.8585  151.0271 H   0  0  0  0  0  0  0  0  0  0  0  0
  146.3289  129.8111  151.4687 H   0  0  0  0  0  0  0  0  0  0  0  0
  144.5680  129.7784  151.4366 H   0  0  0  0  0  0  0  0  0  0  0  0
  145.4145  129.6772  152.9786 H   0  0  0  0  0  0  0  0  0  0  0  0
  148.3216  132.2228  153.9079 H   0  0  0  0  0  0  0  0  0  0  0  0
  148.1603  131.0127  152.6374 H   0  0  0  0  0  0  0  0  0  0  0  0
  147.2492  130.8463  154.1461 H   0  0  0  0  0  0  0  0  0  0  0  0
  147.2559  134.2600  153.4272 H   0  0  0  0  0  0  0  0  0  0  0  0
  147.7933  141.4972  152.7169 H   0  0  0  0  0  0  0  0  0  0  0  0
  146.5382  142.1311  153.6936 H   0  0  0  0  0  0  0  0  0  0  0  0
  148.7621  142.2762  154.8390 H   0  0  0  0  0  0  0  0  0  0  0  0
  148.9747  140.5547  154.6456 H   0  0  0  0  0  0  0  0  0  0  0  0
  145.6463  140.3169  152.9458 H   0  0  0  0  0  0  0  0  0  0  0  0
  142.6005  134.5580  150.7057 H   0  0  0  0  0  0  0  0  0  0  0  0
  1  2  1  0  0  0  0
  1 26  1  0  0  0  0
  1 27  1  0  0  0  0
  1 28  1  0  0  0  0
  2  3  2  0  0  0  0
  2  4  1  0  0  0  0
  4 25  1  0  0  0  0
  4  5  1  0  0  0  0
  5  6  1  0  0  0  0
  5 29  1  0  0  0  0
  5 30  1  0  0  0  0
  6  7  1  0  0  0  0
  6 31  1  0  0  0  0
  6 32  1  0  0  0  0
  7  8  1  0  0  0  0
  7 33  1  0  0  0  0
  7 34  1  0  0  0  0
  8  9  1  0  0  0  0
  8 24  1  0  0  0  0
  8 54  1  0  0  0  0
  9 10  1  0  0  0  0
  9 35  1  0  0  0  0
  9 36  1  0  0  0  0
 10 11  1  0  0  0  0
 10 12  1  0  0  0  0
 10 37  1  0  0  0  0
 11 38  1  0  0  0  0
 12 13  1  0  0  0  0
 12 39  1  0  0  0  0
 12 40  1  0  0  0  0
 13 23  1  0  0  0  0
 13 14  1  0  0  0  0
 14 15  2  0  0  0  0
 14 41  1  0  0  0  0
 15 16  1  0  0  0  0
 15 55  1  0  0  0  0
 16 23  2  0  0  0  0
 16 17  1  0  0  0  0
 17 18  2  0  0  0  0
 17 42  1  0  0  0  0
 18 19  1  0  0  0  0
 18 20  1  0  0  0  0
 19 43  1  0  0  0  0
 19 44  1  0  0  0  0
 19 45  1  0  0  0  0
 20 21  1  0  0  0  0
 20 22  2  0  0  0  0
 21 46  1  0  0  0  0
 21 47  1  0  0  0  0
 21 48  1  0  0  0  0
 22 23  1  0  0  0  0
 22 49  1  0  0  0  0
 24 25  1  0  0  0  0
 24 50  1  0  0  0  0
 24 51  1  0  0  0  0
 25 52  1  0  0  0  0
 25 53  1  0  0  0  0
M  CHG  1   8   1
M  CHG  1  15   1
M  END
> <s_m_source_file>
AV-unprocessed.smi

> <i_m_source_file_index>
1643

> <i_lp_mmshare_version>
43012

> <i_f3d_flags>
0

> <s_epik_input>
W0NIM11DKD1PKU4xW0NIMl1bQ0gyXVtDSDJdTihbQ0gyXVtDSDJdMSlbQ0gyXVtDQEhdKFtPSF0pW0NIMl1uKFtjSF1uMiljKGMyMylbY0hdYyhbQ0gzXSljKFtjSF0zKVtDSDNd

> <s_epik_cmdline>
J2VwaWtfcHl0aG9uJywgJy1waCcsICc3LjAnLCAnLXRuJywgJzgnLCAnLW1hJywgJzIwMCcsICctbWV0YWxfYmluZGluZycsICctaW1hZScsICc8aW5maWxlLm1hZT4nLCAnLW9tYWUnLCAnPG91dGZpbGUubWFlPic=

> <r_epik_Ionization_Penalty>
1.2865

> <r_epik_Ionization_Penalty_Charging>
1.2865

> <r_epik_Ionization_Penalty_Neutral>
2.89706e-06

> <r_epik_State_Penalty>
1.3566

> <r_epik_Charging_Adjusted_Penalty>
2.6431

> <i_epik_Tot_Q>
2

> <i_epik_Tot_abs_Q>
2

> <r_epik_Metal_State_Penalty>
5.37339

> <b_epik_Metal_Only>
0

> <s_lp_Force_Field>
OPLS_2005

> <r_lp_Energy>
57.2213

> <b_lp_Chiralities_Consistent>
1

> <s_lp_Variant>
AV-unprocessed.smi:1643-9

> <Gold.Version>
5.8.1

> <Gold.Id.Protein>
6NUR|6NUR_protein|mol2

> <Gold.PLP.Fitness>
59.4230

> <Gold.PLP.PLP>
-40.4044

> <Gold.PLP.part.hbond>
-5.7792

> <Gold.PLP.part.metal>
0.0000

> <Gold.PLP.part.buried>
-2.8235

> <Gold.PLP.part.nonpolar>
-31.9428

> <Gold.PLP.part.repulsive>
0.0007

> <Gold.PLP.ligand.clash>
0.0000

> <Gold.PLP.ligand.torsion>
0.8788

> <Gold.PLP.Chemscore.Hbond>
5.8960

> <Gold.PLP.Chemscore.CHOScore>
0.9971

> <Gold.PLP.Chemscore.Metal>
0.0000

> <Gold.Chemscore.Hbonds>
donor molecule, donor type, donor heavy atom, donor atom, acceptor molecule, acceptor atom, score
      L1  H     8    54       P1 10175  2.00
      L1  H    11    38       P1 10171  0.59
      L1  H    15    55       P1 10186  1.80
      P1  H  7954  7966       L1    11  1.00
      L1  C    14    41       P1 10171  1.00

> <Gold.PLP.Chemscore.Internal.Correction>
0.0967

> <Gold.Rescore>
     Score         DG    S(hbond)    S(metal)    S(lipo)     H(rot)  DE(clash)    DE(int)     intcor
     21.13     -21.97       3.53        0.00      87.89       2.17       0.05       0.79       ----

> <Gold.Chemscore.Fitness>
21.1262

> <Gold.Chemscore.DG>
-21.9718

> <Gold.Chemscore.ZeroCoef>
-5.4800

> <Gold.Chemscore.Hbond>
3.5255

> <Gold.Chemscore.Metal>
0.0000

> <Gold.Chemscore.Lipo>
87.8899

> <Gold.Chemscore.Internal_Hbond>
0.0000

> <Gold.Chemscore.DEClash>
0.0509

> <Gold.Chemscore.DEInternal>
0.7947

> <Gold.Chemscore.Rot>
2.1744

> <Gold.Chemscore.Internal.Correction>
   9.000000E+99

> <Gold.Chemscore.Hbonds>
donor molecule, donor type, donor heavy atom, donor atom, acceptor molecule, acceptor atom, score
      L1  H     8    54       P1 10175  0.87
      L1  H    11    38       P1 10171  0.58
      L1  H    15    55       P1 10186  0.18
      P1  H  7954  7966       L1    11  0.34

> <Gold.Chemscore.Hbond.Weighted>
-11.7753

> <Gold.Chemscore.Metal.Weighted>
-0.0000

> <Gold.Chemscore.Lipo.Weighted>
-10.2831

> <Gold.Chemscore.Internal_Hbond.Weighted>
0.0000

> <Gold.Chemscore.DEClash.Weighted>
0.0509

> <Gold.Chemscore.DEInternal.Weighted>
0.7947

> <Gold.Chemscore.Rot.Weighted>
5.5666

> <Gold.Chemscore.Internal.Correction.Weighted>
   9.000000E+99

> <Gold.Protein.RotatedTorsions>
[ 6907 6896 6895 6894 ] final  -52.37 input  -60.11 | X-H torsion
[ 7974 7965 7964 7962 ] final  -86.31 input  175.53 | X-H torsion
[ 8008 7997 7996 7995 ] final -137.96 input   59.86 | X-H torsion
[ 10167 10162 10161 10158 ] final  176.59 input  -65.29 | X-H torsion
[ 10718 10713 10712 10709 ] final  -61.55 input   66.30 | X-H torsion
[ 10763 10752 10751 10750 ] final -107.48 input  -60.55 | X-H torsion
[ 11005 11000 10999 10996 ] final   69.89 input  -57.11 | X-H torsion

> <Gold.Protein.ActiveResidues>
 VAL166  LYS551  ARG553  GLY616  TRP617  ASP618  TYR619  PRO620  LYS621  CYS622 
 ASP623  PHE694  ASN695  SER759  ASP760  ASP761  ALA762  ILE779  LEU786  VAL792 
 PHE793  MET794  SER795  GLU796  ALA797  LYS798  CYS799  TRP800  GLU811  SER814 

> <Gold.Protein.RotatedAtoms>
  150.8524  134.7853  159.7019 H   0  0  0  0  0  0  0  0  0  0  0  0  # atno 6907 bound_to 6896
  152.4585  134.5234  159.9799 H   0  0  0  0  0  0  0  0  0  0  0  0  # atno 6908 bound_to 6896
  151.5352  133.3404  159.2961 H   0  0  0  0  0  0  0  0  0  0  0  0  # atno 6909 bound_to 6896
  145.4816  140.9556  143.1861 H   0  0  0  0  0  0  0  0  0  0  0  0  # atno 7974 bound_to 7965
  155.4205  140.0518  157.3026 H   0  0  0  0  0  0  0  0  0  0  0  0  # atno 8008 bound_to 7997
  154.4905  140.2118  155.9519 H   0  0  0  0  0  0  0  0  0  0  0  0  # atno 8009 bound_to 7997
  156.1335  140.3167  155.8390 H   0  0  0  0  0  0  0  0  0  0  0  0  # atno 8010 bound_to 7997
  139.5220  144.2897  152.0474 H   0  0  0  0  0  0  0  0  0  0  0  0  # atno 10167 bound_to 10162
  156.0914  130.4199  150.1010 H   0  0  0  0  0  0  0  0  0  0  0  0  # atno 10718 bound_to 10713
  154.8078  135.4673  154.0436 H   0  0  0  0  0  0  0  0  0  0  0  0  # atno 10763 bound_to 10752
  153.1892  135.6852  153.8382 H   0  0  0  0  0  0  0  0  0  0  0  0  # atno 10764 bound_to 10752
  153.7906  135.3243  155.3355 H   0  0  0  0  0  0  0  0  0  0  0  0  # atno 10765 bound_to 10752
  139.9628  134.7032  156.0609 H   0  0  0  0  0  0  0  0  0  0  0  0  # atno 11005 bound_to 11000
  144.7885  139.6376  143.7123 LP  0  0  0  0  0  0  0  0  0  0  0  0  # atno 17320 bound_to 7965
  146.2337  139.5864  142.9538 LP  0  0  0  0  0  0  0  0  0  0  0  0  # atno 17321 bound_to 7965
  140.2349  144.4330  150.6284 LP  0  0  0  0  0  0  0  0  0  0  0  0  # atno 17342 bound_to 10162
  140.6330  143.2190  151.6455 LP  0  0  0  0  0  0  0  0  0  0  0  0  # atno 17343 bound_to 10162
  156.9019  130.9623  151.3575 LP  0  0  0  0  0  0  0  0  0  0  0  0  # atno 17370 bound_to 10713
  157.6064  130.8550  149.8882 LP  0  0  0  0  0  0  0  0  0  0  0  0  # atno 17371 bound_to 10713
  141.1306  133.6587  156.3454 LP  0  0  0  0  0  0  0  0  0  0  0  0  # atno 17394 bound_to 11000
  140.5463  134.6072  157.5394 LP  0  0  0  0  0  0  0  0  0  0  0  0  # atno 17395 bound_to 11000

$$$$
