AV-unprocessed.smi:1389|AV-procd|sdf|5646|dock2
  -GOLD-   22720 5263D 1   1.00000     0.00000
 Structure written by MMmdl.
 51 53  0  0  0  0  0  0  0  0  1 V2000
  152.1555  145.2814  159.1426 C   0  0  0  0  0  0  0  0  0  0  0  0
  152.2654  143.7447  158.9700 C   0  0  2  0  0  0  0  0  0  0  0  0
  150.8403  143.1452  158.8015 C   0  0  0  0  0  0  0  0  0  0  0  0
  150.7246  142.2650  157.6408 N   0  0  0  0  0  0  0  0  0  0  0  0
  149.5848  141.9563  157.0060 C   0  0  0  0  0  0  0  0  0  0  0  0
  148.4780  142.3745  157.3453 O   0  0  0  0  0  0  0  0  0  0  0  0
  149.8217  141.1626  155.9484 N   0  0  0  0  0  0  0  0  0  0  0  0
  148.8899  140.6677  154.9920 C   0  0  0  0  0  0  0  0  0  0  0  0
  147.8358  141.4615  154.4776 C   0  0  0  0  0  0  0  0  0  0  0  0
  146.9474  140.9012  153.5426 C   0  0  0  0  0  0  0  0  0  0  0  0
  147.1383  139.5621  153.1603 C   0  0  0  0  0  0  0  0  0  0  0  0
  148.1255  138.7879  153.6542 N   0  0  0  0  0  0  0  0  0  0  0  0
  148.9896  139.3199  154.5531 C   0  0  0  0  0  0  0  0  0  0  0  0
  149.9914  138.4764  155.0763 N   0  0  0  0  0  0  0  0  0  0  0  0
  151.3426  138.8533  154.6713 C   0  0  0  0  0  0  0  0  0  0  0  0
  152.2518  138.5397  155.8605 C   0  0  0  0  0  0  0  0  0  0  0  0
  151.3171  138.6943  157.0535 C   0  0  0  0  0  0  0  0  0  0  0  0
  149.9915  138.1678  156.5057 C   0  0  0  0  0  0  0  0  0  0  0  0
  153.0410  143.1023  160.0572 N   0  0  0  0  0  0  0  0  0  0  0  0
  152.3713  143.1819  161.3606 C   0  0  0  0  0  0  0  0  0  0  0  0
  153.1669  142.4946  162.4839 C   0  0  0  0  0  0  0  0  0  0  0  0
  153.4060  141.1369  162.1406 O   0  0  0  0  0  0  0  0  0  0  0  0
  154.1234  141.0148  160.9204 C   0  0  0  0  0  0  0  0  0  0  0  0
  153.3344  141.6902  159.7855 C   0  0  0  0  0  0  0  0  0  0  0  0
  151.5642  145.7481  158.3561 H   0  0  0  0  0  0  0  0  0  0  0  0
  153.1240  145.7762  159.0914 H   0  0  0  0  0  0  0  0  0  0  0  0
  151.6935  145.5389  160.0963 H   0  0  0  0  0  0  0  0  0  0  0  0
  152.7952  143.5699  158.0324 H   0  0  0  0  0  0  0  0  0  0  0  0
  150.5765  142.5154  159.6491 H   0  0  0  0  0  0  0  0  0  0  0  0
  150.1003  143.9468  158.7729 H   0  0  0  0  0  0  0  0  0  0  0  0
  151.5847  141.8753  157.2838 H   0  0  0  0  0  0  0  0  0  0  0  0
  150.7921  140.9800  155.7387 H   0  0  0  0  0  0  0  0  0  0  0  0
  147.6857  142.4826  154.7926 H   0  0  0  0  0  0  0  0  0  0  0  0
  146.1361  141.4837  153.1319 H   0  0  0  0  0  0  0  0  0  0  0  0
  146.4758  139.0967  152.4456 H   0  0  0  0  0  0  0  0  0  0  0  0
  151.6534  138.3082  153.7798 H   0  0  0  0  0  0  0  0  0  0  0  0
  151.3831  139.9197  154.4420 H   0  0  0  0  0  0  0  0  0  0  0  0
  152.6019  137.5085  155.7985 H   0  0  0  0  0  0  0  0  0  0  0  0
  153.1242  139.1916  155.9119 H   0  0  0  0  0  0  0  0  0  0  0  0
  151.6563  138.1542  157.9376 H   0  0  0  0  0  0  0  0  0  0  0  0
  151.2185  139.7489  157.3145 H   0  0  0  0  0  0  0  0  0  0  0  0
  149.1395  138.5683  157.0553 H   0  0  0  0  0  0  0  0  0  0  0  0
  149.9521  137.0830  156.6094 H   0  0  0  0  0  0  0  0  0  0  0  0
  152.2346  144.2185  161.6619 H   0  0  0  0  0  0  0  0  0  0  0  0
  151.3782  142.7351  161.2945 H   0  0  0  0  0  0  0  0  0  0  0  0
  154.1147  143.0074  162.6556 H   0  0  0  0  0  0  0  0  0  0  0  0
  152.6095  142.5316  163.4200 H   0  0  0  0  0  0  0  0  0  0  0  0
  155.1128  141.4632  161.0231 H   0  0  0  0  0  0  0  0  0  0  0  0
  154.2734  139.9578  160.7006 H   0  0  0  0  0  0  0  0  0  0  0  0
  152.4047  141.1448  159.6163 H   0  0  0  0  0  0  0  0  0  0  0  0
  153.9311  141.5877  158.8811 H   0  0  0  0  0  0  0  0  0  0  0  0
  1  2  1  0  0  0  0
  1 25  1  0  0  0  0
  1 26  1  0  0  0  0
  1 27  1  0  0  0  0
  2  3  1  0  0  0  0
  2 19  1  0  0  0  0
  2 28  1  0  0  0  0
  3  4  1  0  0  0  0
  3 29  1  0  0  0  0
  3 30  1  0  0  0  0
  4  5  1  0  0  0  0
  4 31  1  0  0  0  0
  5  6  2  0  0  0  0
  5  7  1  0  0  0  0
  7  8  1  0  0  0  0
  7 32  1  0  0  0  0
  8 13  1  0  0  0  0
  8  9  2  0  0  0  0
  9 10  1  0  0  0  0
  9 33  1  0  0  0  0
 10 11  2  0  0  0  0
 10 34  1  0  0  0  0
 11 12  1  0  0  0  0
 11 35  1  0  0  0  0
 12 13  2  0  0  0  0
 13 14  1  0  0  0  0
 14 18  1  0  0  0  0
 14 15  1  0  0  0  0
 15 16  1  0  0  0  0
 15 36  1  0  0  0  0
 15 37  1  0  0  0  0
 16 17  1  0  0  0  0
 16 38  1  0  0  0  0
 16 39  1  0  0  0  0
 17 18  1  0  0  0  0
 17 40  1  0  0  0  0
 17 41  1  0  0  0  0
 18 42  1  0  0  0  0
 18 43  1  0  0  0  0
 19 24  1  0  0  0  0
 19 20  1  0  0  0  0
 20 21  1  0  0  0  0
 20 44  1  0  0  0  0
 20 45  1  0  0  0  0
 21 22  1  0  0  0  0
 21 46  1  0  0  0  0
 21 47  1  0  0  0  0
 22 23  1  0  0  0  0
 23 24  1  0  0  0  0
 23 48  1  0  0  0  0
 23 49  1  0  0  0  0
 24 50  1  0  0  0  0
 24 51  1  0  0  0  0
M  END
> <s_m_source_file>
AV-unprocessed.smi

> <i_m_source_file_index>
1389

> <i_lp_mmshare_version>
43012

> <i_f3d_flags>
0

> <s_epik_input>
W0NIMl0xW0NIMl1PW0NIMl1bQ0gyXU4xW0NASF0oW0NIM10pW0NIMl1bTkhdQyg9TylbTkhdYzJbY0hdW2NIXVtjSF1uYzJOM1tDSDJdW0NIMl1bQ0gyXVtDSDJdMw==

> <s_epik_cmdline>
J2VwaWtfcHl0aG9uJywgJy1waCcsICc3LjAnLCAnLXRuJywgJzgnLCAnLW1hJywgJzIwMCcsICctbWV0YWxfYmluZGluZycsICctaW1hZScsICc8aW5maWxlLm1hZT4nLCAnLW9tYWUnLCAnPG91dGZpbGUubWFlPic=

> <r_lp_tautomer_probability>
1

> <r_epik_Ionization_Penalty>
0.365229

> <r_epik_Ionization_Penalty_Charging>
0

> <r_epik_Ionization_Penalty_Neutral>
0.365229

> <r_epik_State_Penalty>
0.350519

> <r_epik_Charging_Adjusted_Penalty>
0.350519

> <i_epik_Tot_Q>
0

> <i_epik_Tot_abs_Q>
0

> <r_epik_Metal_State_Penalty>
0.33386

> <b_epik_Metal_Only>
0

> <s_lp_Force_Field>
OPLS_2005

> <r_lp_Energy>
57.3938

> <b_lp_Chiralities_Consistent>
1

> <s_lp_Variant>
AV-unprocessed.smi:1389-1

> <Gold.Version>
5.8.1

> <Gold.Id.Protein>
6NUR|6NUR_protein|mol2

> <Gold.PLP.Fitness>
42.2333

> <Gold.PLP.PLP>
-44.5704

> <Gold.PLP.part.hbond>
0.0000

> <Gold.PLP.part.metal>
0.0000

> <Gold.PLP.part.buried>
-6.0973

> <Gold.PLP.part.nonpolar>
-39.9955

> <Gold.PLP.part.repulsive>
1.9801

> <Gold.PLP.ligand.clash>
0.0000

> <Gold.PLP.ligand.torsion>
1.2530

> <Gold.PLP.Chemscore.Hbond>
0.0000

> <Gold.PLP.Chemscore.CHOScore>
0.0000

> <Gold.PLP.Chemscore.Metal>
0.0000

> <Gold.PLP.Chemscore.Internal.Correction>
0.1690

> <Gold.Rescore>
     Score         DG    S(hbond)    S(metal)    S(lipo)     H(rot)  DE(clash)    DE(int)     intcor
     13.10     -16.15       0.00        0.00     125.59       1.57       0.03       3.02       ----

> <Gold.Chemscore.Fitness>
13.1030

> <Gold.Chemscore.DG>
-16.1501

> <Gold.Chemscore.ZeroCoef>
-5.4800

> <Gold.Chemscore.Hbond>
0.0000

> <Gold.Chemscore.Metal>
0.0000

> <Gold.Chemscore.Lipo>
125.5898

> <Gold.Chemscore.Internal_Hbond>
0.0000

> <Gold.Chemscore.DEClash>
0.0285

> <Gold.Chemscore.DEInternal>
3.0186

> <Gold.Chemscore.Rot>
1.5718

> <Gold.Chemscore.Internal.Correction>
   9.000000E+99

> <Gold.Chemscore.Hbond.Weighted>
-0.0000

> <Gold.Chemscore.Metal.Weighted>
-0.0000

> <Gold.Chemscore.Lipo.Weighted>
-14.6940

> <Gold.Chemscore.Internal_Hbond.Weighted>
0.0000

> <Gold.Chemscore.DEClash.Weighted>
0.0285

> <Gold.Chemscore.DEInternal.Weighted>
3.0186

> <Gold.Chemscore.Rot.Weighted>
4.0239

> <Gold.Chemscore.Internal.Correction.Weighted>
   9.000000E+99

> <Gold.Protein.RotatedTorsions>
[ 6907 6896 6895 6894 ] final  -53.47 input  -60.11 | X-H torsion
[ 7974 7965 7964 7962 ] final   60.08 input  175.53 | X-H torsion
[ 8008 7997 7996 7995 ] final -139.50 input   59.86 | X-H torsion
[ 10167 10162 10161 10158 ] final  -61.22 input  -65.29 | X-H torsion
[ 10718 10713 10712 10709 ] final  138.07 input   66.30 | X-H torsion
[ 10763 10752 10751 10750 ] final -172.01 input  -60.55 | X-H torsion
[ 11005 11000 10999 10996 ] final  179.58 input  -57.11 | X-H torsion

> <Gold.Protein.ActiveResidues>
 VAL166  LYS551  ARG553  GLY616  TRP617  ASP618  TYR619  PRO620  LYS621  CYS622 
 ASP623  PHE694  ASN695  SER759  ASP760  ASP761  ALA762  ILE779  LEU786  VAL792 
 PHE793  MET794  SER795  GLU796  ALA797  LYS798  CYS799  TRP800  GLU811  SER814 

> <Gold.Protein.RotatedAtoms>
  150.8424  134.7720  159.6942 H   0  0  0  0  0  0  0  0  0  0  0  0  # atno 6907 bound_to 6896
  152.4508  134.5394  159.9844 H   0  0  0  0  0  0  0  0  0  0  0  0  # atno 6908 bound_to 6896
  151.5531  133.3376  159.2992 H   0  0  0  0  0  0  0  0  0  0  0  0  # atno 6909 bound_to 6896
  145.9001  139.3574  143.0598 H   0  0  0  0  0  0  0  0  0  0  0  0  # atno 7974 bound_to 7965
  155.4459  140.0535  157.3006 H   0  0  0  0  0  0  0  0  0  0  0  0  # atno 8008 bound_to 7997
  154.4798  140.2076  155.9747 H   0  0  0  0  0  0  0  0  0  0  0  0  # atno 8009 bound_to 7997
  156.1188  140.3192  155.8183 H   0  0  0  0  0  0  0  0  0  0  0  0  # atno 8010 bound_to 7997
  140.6020  143.2364  151.5907 H   0  0  0  0  0  0  0  0  0  0  0  0  # atno 10167 bound_to 10162
  157.4293  131.1047  151.0268 H   0  0  0  0  0  0  0  0  0  0  0  0  # atno 10718 bound_to 10713
  154.6241  135.2878  155.0292 H   0  0  0  0  0  0  0  0  0  0  0  0  # atno 10763 bound_to 10752
  154.1477  135.6508  153.4960 H   0  0  0  0  0  0  0  0  0  0  0  0  # atno 10764 bound_to 10752
  153.0249  135.5348  154.7042 H   0  0  0  0  0  0  0  0  0  0  0  0  # atno 10765 bound_to 10752
  140.4078  134.6719  157.4597 H   0  0  0  0  0  0  0  0  0  0  0  0  # atno 11005 bound_to 11000
  145.8802  140.9367  143.0605 LP  0  0  0  0  0  0  0  0  0  0  0  0  # atno 17320 bound_to 7965
  144.6735  140.0770  143.7471 LP  0  0  0  0  0  0  0  0  0  0  0  0  # atno 17321 bound_to 7965
  139.5298  144.2951  152.1120 LP  0  0  0  0  0  0  0  0  0  0  0  0  # atno 17342 bound_to 10162
  140.2133  144.4540  150.6375 LP  0  0  0  0  0  0  0  0  0  0  0  0  # atno 17343 bound_to 10162
  157.1170  130.6046  149.5496 LP  0  0  0  0  0  0  0  0  0  0  0  0  # atno 17370 bound_to 10713
  155.9907  130.4960  150.7270 LP  0  0  0  0  0  0  0  0  0  0  0  0  # atno 17371 bound_to 10713
  140.0290  134.6435  155.9133 LP  0  0  0  0  0  0  0  0  0  0  0  0  # atno 17394 bound_to 11000
  141.1833  133.6550  156.5110 LP  0  0  0  0  0  0  0  0  0  0  0  0  # atno 17395 bound_to 11000

$$$$
