AV-unprocessed.smi:1757|AV-procd|sdf|7078|dock3
  -GOLD-   22720 8293D 1   1.00000     0.00000
 Structure written by MMmdl.
 39 40  0  0  0  0  0  0  0  0  3 V2000
  146.7669  137.9425  153.6314 C   0  0  0  0  0  0  0  0  0  0  0  0
  148.1599  137.4465  153.6438 N   0  3  2  0  0  0  0  0  0  0  0  0
  148.4120  136.4985  154.7577 C   0  0  0  0  0  0  0  0  0  0  0  0
  149.8297  135.9028  154.6713 C   0  0  0  0  0  0  0  0  0  0  0  0
  150.9130  136.9951  154.6191 C   0  0  2  0  0  0  0  0  0  0  0  0
  151.0370  137.6532  155.9191 N   0  0  0  0  0  0  0  0  0  0  0  0
  151.8317  138.6993  156.1882 C   0  0  0  0  0  0  0  0  0  0  0  0
  152.5522  139.2302  155.3436 O   0  0  0  0  0  0  0  0  0  0  0  0
  151.7038  139.0765  157.4730 N   0  0  0  0  0  0  0  0  0  0  0  0
  152.3471  140.1140  158.1695 C   0  0  0  0  0  0  0  0  0  0  0  0
  151.9286  141.4097  158.2005 C   0  0  0  0  0  0  0  0  0  0  0  0
  152.6472  142.4438  158.9345 C   0  0  0  0  0  0  0  0  0  0  0  0
  152.1566  143.8740  159.0743 C   0  0  0  0  0  0  0  0  0  0  0  0
  152.9428  144.5720  159.8940 F   0  0  0  0  0  0  0  0  0  0  0  0
  152.1608  144.4735  157.8847 F   0  0  0  0  0  0  0  0  0  0  0  0
  150.9130  143.9087  159.5534 F   0  0  0  0  0  0  0  0  0  0  0  0
  153.7656  141.9500  159.5773 C   0  0  0  0  0  0  0  0  0  0  0  0
  154.2630  140.6937  159.5747 N   0  5  0  0  0  0  0  0  0  0  0  0
  153.5826  139.7344  158.8860 C   0  0  0  0  0  0  0  0  0  0  0  0
  153.9745  138.5672  158.8488 O   0  0  0  0  0  0  0  0  0  0  0  0
  150.5844  137.9999  153.4955 C   0  0  0  0  0  0  0  0  0  0  0  0
  149.1522  138.5495  153.6159 C   0  0  0  0  0  0  0  0  0  0  0  0
  146.5494  138.5212  154.5301 H   0  0  0  0  0  0  0  0  0  0  0  0
  146.0628  137.1113  153.5798 H   0  0  0  0  0  0  0  0  0  0  0  0
  146.5927  138.5795  152.7634 H   0  0  0  0  0  0  0  0  0  0  0  0
  148.2721  137.0095  155.7117 H   0  0  0  0  0  0  0  0  0  0  0  0
  147.6788  135.6918  154.7222 H   0  0  0  0  0  0  0  0  0  0  0  0
  150.0073  135.2326  155.5134 H   0  0  0  0  0  0  0  0  0  0  0  0
  149.9014  135.2860  153.7742 H   0  0  0  0  0  0  0  0  0  0  0  0
  151.8677  136.5152  154.3953 H   0  0  0  0  0  0  0  0  0  0  0  0
  150.4821  137.2797  156.6754 H   0  0  0  0  0  0  0  0  0  0  0  0
  151.0238  138.5730  158.0237 H   0  0  0  0  0  0  0  0  0  0  0  0
  151.0503  141.7222  157.6606 H   0  0  0  0  0  0  0  0  0  0  0  0
  154.3452  142.6726  160.1906 H   0  0  0  0  0  0  0  0  0  0  0  0
  151.3009  138.8221  153.4902 H   0  0  0  0  0  0  0  0  0  0  0  0
  150.6938  137.5027  152.5309 H   0  0  0  0  0  0  0  0  0  0  0  0
  148.9446  139.2059  152.7699 H   0  0  0  0  0  0  0  0  0  0  0  0
  149.0529  139.1564  154.5174 H   0  0  0  0  0  0  0  0  0  0  0  0
  148.2852  136.9249  152.7878 H   0  0  0  0  0  0  0  0  0  0  0  0
  1  2  1  0  0  0  0
  1 23  1  0  0  0  0
  1 24  1  0  0  0  0
  1 25  1  0  0  0  0
  2 22  1  0  0  0  0
  2  3  1  0  0  0  0
  2 39  1  0  0  0  0
  3  4  1  0  0  0  0
  3 26  1  0  0  0  0
  3 27  1  0  0  0  0
  4  5  1  0  0  0  0
  4 28  1  0  0  0  0
  4 29  1  0  0  0  0
  5  6  1  0  0  0  0
  5 21  1  0  0  0  0
  5 30  1  0  0  0  0
  6  7  1  0  0  0  0
  6 31  1  0  0  0  0
  7  8  2  0  0  0  0
  7  9  1  0  0  0  0
  9 10  1  0  0  0  0
  9 32  1  0  0  0  0
 10 19  1  0  0  0  0
 10 11  2  0  0  0  0
 11 12  1  0  0  0  0
 11 33  1  0  0  0  0
 12 13  1  0  0  0  0
 12 17  2  0  0  0  0
 13 14  1  0  0  0  0
 13 15  1  0  0  0  0
 13 16  1  0  0  0  0
 17 18  1  0  0  0  0
 17 34  1  0  0  0  0
 18 19  1  0  0  0  0
 19 20  2  0  0  0  0
 21 22  1  0  0  0  0
 21 35  1  0  0  0  0
 21 36  1  0  0  0  0
 22 37  1  0  0  0  0
 22 38  1  0  0  0  0
M  CHG  1   2   1
M  CHG  1  18  -1
M  END
> <s_m_source_file>
AV-unprocessed.smi

> <i_m_source_file_index>
1757

> <i_lp_mmshare_version>
43012

> <i_f3d_flags>
0

> <s_epik_input>
W0NIM11OMVtDSDJdW0NIMl1bQ0hdKFtDSDJdW0NIMl0xKVtOSF1DKD1PKVtOSF1jMltjSF1jKEMoRikoRilGKVtjSF1bbkhdYzI9Tw==

> <s_epik_cmdline>
J2VwaWtfcHl0aG9uJywgJy1waCcsICc3LjAnLCAnLXRuJywgJzgnLCAnLW1hJywgJzIwMCcsICctbWV0YWxfYmluZGluZycsICctaW1hZScsICc8aW5maWxlLm1hZT4nLCAnLW9tYWUnLCAnPG91dGZpbGUubWFlPic=

> <r_lp_tautomer_probability>
1

> <r_epik_Ionization_Penalty>
3.04759

> <r_epik_Ionization_Penalty_Charging>
0.155898

> <r_epik_Ionization_Penalty_Neutral>
2.89169

> <r_epik_State_Penalty>
2.88714

> <r_epik_Charging_Adjusted_Penalty>
3.04304

> <i_epik_Tot_Q>
0

> <i_epik_Tot_abs_Q>
2

> <r_epik_Metal_State_Penalty>
0.445786

> <b_epik_Metal_Only>
1

> <s_lp_Force_Field>
OPLS_2005

> <r_lp_Energy>
26.2534

> <b_lp_Chiralities_Consistent>
1

> <s_lp_Variant>
AV-unprocessed.smi:1757-4

> <Gold.Version>
5.8.1

> <Gold.Id.Protein>
6NUR|6NUR_protein|mol2

> <Gold.PLP.Fitness>
48.7502

> <Gold.PLP.PLP>
-41.3647

> <Gold.PLP.part.hbond>
-2.0000

> <Gold.PLP.part.metal>
0.0000

> <Gold.PLP.part.buried>
-7.5201

> <Gold.PLP.part.nonpolar>
-31.5108

> <Gold.PLP.part.repulsive>
0.1161

> <Gold.PLP.ligand.clash>
0.0000

> <Gold.PLP.ligand.torsion>
0.8334

> <Gold.PLP.Chemscore.Hbond>
3.0000

> <Gold.PLP.Chemscore.CHOScore>
0.0000

> <Gold.PLP.Chemscore.Metal>
0.0000

> <Gold.Chemscore.Hbonds>
donor molecule, donor type, donor heavy atom, donor atom, acceptor molecule, acceptor atom, score
      L1  H     2    39       P1  7948  1.01
      P1  H  7997  8009       L1     8  0.63

> <Gold.PLP.Chemscore.Internal.Correction>
0.0524

> <Gold.Rescore>
     Score         DG    S(hbond)    S(metal)    S(lipo)     H(rot)  DE(clash)    DE(int)     intcor
     17.79     -18.69       2.00        0.00      77.74       1.00       0.04       0.86       ----

> <Gold.Chemscore.Fitness>
17.7890

> <Gold.Chemscore.DG>
-18.6911

> <Gold.Chemscore.ZeroCoef>
-5.4800

> <Gold.Chemscore.Hbond>
1.9985

> <Gold.Chemscore.Metal>
0.0000

> <Gold.Chemscore.Lipo>
77.7436

> <Gold.Chemscore.Internal_Hbond>
0.0000

> <Gold.Chemscore.DEClash>
0.0391

> <Gold.Chemscore.DEInternal>
0.8630

> <Gold.Chemscore.Rot>
1.0000

> <Gold.Chemscore.Internal.Correction>
   9.000000E+99

> <Gold.Chemscore.Hbonds>
donor molecule, donor type, donor heavy atom, donor atom, acceptor molecule, acceptor atom, score
      L1  H     2    39       P1  7948  0.49
      P1  H  7997  8009       L1     8  0.55

> <Gold.Chemscore.Hbond.Weighted>
-6.6751

> <Gold.Chemscore.Metal.Weighted>
-0.0000

> <Gold.Chemscore.Lipo.Weighted>
-9.0960

> <Gold.Chemscore.Internal_Hbond.Weighted>
0.0000

> <Gold.Chemscore.DEClash.Weighted>
0.0391

> <Gold.Chemscore.DEInternal.Weighted>
0.8630

> <Gold.Chemscore.Rot.Weighted>
2.5600

> <Gold.Chemscore.Internal.Correction.Weighted>
   9.000000E+99

> <Gold.Protein.RotatedTorsions>
[ 6907 6896 6895 6894 ] final  173.67 input  -60.11 | X-H torsion
[ 7974 7965 7964 7962 ] final  -95.16 input  175.53 | X-H torsion
[ 8008 7997 7996 7995 ] final -152.47 input   59.86 | X-H torsion
[ 10167 10162 10161 10158 ] final  151.95 input  -65.29 | X-H torsion
[ 10718 10713 10712 10709 ] final  111.74 input   66.30 | X-H torsion
[ 10763 10752 10751 10750 ] final  117.33 input  -60.55 | X-H torsion
[ 11005 11000 10999 10996 ] final -116.51 input  -57.11 | X-H torsion

> <Gold.Protein.ActiveResidues>
 VAL166  LYS551  ARG553  GLY616  TRP617  ASP618  TYR619  PRO620  LYS621  CYS622 
 ASP623  PHE694  ASN695  SER759  ASP760  ASP761  ALA762  ILE779  LEU786  VAL792 
 PHE793  MET794  SER795  GLU796  ALA797  LYS798  CYS799  TRP800  GLU811  SER814 

> <Gold.Protein.RotatedAtoms>
  151.7645  133.3336  159.3426 H   0  0  0  0  0  0  0  0  0  0  0  0  # atno 6907 bound_to 6896
  150.7485  134.6075  159.6078 H   0  0  0  0  0  0  0  0  0  0  0  0  # atno 6908 bound_to 6896
  152.3383  134.7171  160.0322 H   0  0  0  0  0  0  0  0  0  0  0  0  # atno 6909 bound_to 6896
  145.3637  140.9495  143.2486 H   0  0  0  0  0  0  0  0  0  0  0  0  # atno 7974 bound_to 7965
  155.6556  140.0717  157.2572 H   0  0  0  0  0  0  0  0  0  0  0  0  # atno 8008 bound_to 7997
  154.4153  140.1725  156.1771 H   0  0  0  0  0  0  0  0  0  0  0  0  # atno 8009 bound_to 7997
  155.9740  140.3359  155.6605 H   0  0  0  0  0  0  0  0  0  0  0  0  # atno 8010 bound_to 7997
  139.4836  144.5399  151.7583 H   0  0  0  0  0  0  0  0  0  0  0  0  # atno 10167 bound_to 10162
  157.6429  131.0956  150.6793 H   0  0  0  0  0  0  0  0  0  0  0  0  # atno 10718 bound_to 10713
  153.5508  135.3540  155.2758 H   0  0  0  0  0  0  0  0  0  0  0  0  # atno 10763 bound_to 10752
  154.8707  135.4113  154.2939 H   0  0  0  0  0  0  0  0  0  0  0  0  # atno 10764 bound_to 10752
  153.3665  135.7062  153.6740 H   0  0  0  0  0  0  0  0  0  0  0  0  # atno 10765 bound_to 10752
  141.0417  133.9825  157.2984 H   0  0  0  0  0  0  0  0  0  0  0  0  # atno 11005 bound_to 11000
  144.8627  139.5153  143.6804 LP  0  0  0  0  0  0  0  0  0  0  0  0  # atno 17320 bound_to 7965
  146.2916  139.7156  142.9157 LP  0  0  0  0  0  0  0  0  0  0  0  0  # atno 17321 bound_to 7965
  140.4936  144.1273  150.5955 LP  0  0  0  0  0  0  0  0  0  0  0  0  # atno 17342 bound_to 10162
  140.4142  143.2642  151.9795 LP  0  0  0  0  0  0  0  0  0  0  0  0  # atno 17343 bound_to 10162
  156.7114  130.4653  149.5546 LP  0  0  0  0  0  0  0  0  0  0  0  0  # atno 17370 bound_to 10713
  156.1727  130.6447  151.0857 LP  0  0  0  0  0  0  0  0  0  0  0  0  # atno 17371 bound_to 10713
  139.9281  135.0201  156.8304 LP  0  0  0  0  0  0  0  0  0  0  0  0  # atno 17394 bound_to 11000
  140.6222  133.9983  155.7623 LP  0  0  0  0  0  0  0  0  0  0  0  0  # atno 17395 bound_to 11000

$$$$
