AV-unprocessed.smi:1817|AV-procd|sdf|7368|dock1
  -GOLD-   22720 9 33D 1   1.00000     0.00000
 Structure written by MMmdl.
 43 44  0  0  0  0  0  0  0  0  2 V2000
  144.1516  136.9860  152.3702 C   0  0  0  0  0  0  0  0  0  0  0  0
  145.6042  137.4740  152.2757 C   0  0  0  0  0  0  0  0  0  0  0  0
  145.8067  138.7998  152.9115 N   0  3  0  0  0  0  0  0  0  0  0  0
  147.0426  139.4663  152.4325 C   0  0  0  0  0  0  0  0  0  0  0  0
  147.1999  140.8522  153.0921 C   0  0  0  0  0  0  0  0  0  0  0  0
  147.2866  140.7509  154.5560 N   0  0  0  0  0  0  0  0  0  0  0  0
  148.4869  140.0645  155.0841 C   0  0  2  0  0  0  0  0  0  0  0  0
  148.3698  139.8797  156.6156 C   0  0  0  0  0  0  0  0  0  0  0  0
  149.7984  140.8221  154.7357 C   0  0  0  0  0  0  0  0  0  0  0  0
  150.0129  141.9842  155.5929 N   0  0  0  0  0  0  0  0  0  0  0  0
  150.7656  141.9811  156.7031 C   0  0  0  0  0  0  0  0  0  0  0  0
  151.3777  140.9889  157.1013 O   0  0  0  0  0  0  0  0  0  0  0  0
  150.7518  143.1818  157.3076 N   0  0  0  0  0  0  0  0  0  0  0  0
  151.3853  143.5618  158.5205 C   0  0  0  0  0  0  0  0  0  0  0  0
  152.2361  142.7720  159.1946 N   0  0  0  0  0  0  0  0  0  0  0  0
  152.7078  143.3828  160.3492 N   0  0  0  0  0  0  0  0  0  0  0  0
  152.1939  144.6067  160.5008 C   0  0  0  0  0  0  0  0  0  0  0  0
  151.0840  145.1335  159.2472 S   0  0  0  0  0  0  0  0  0  0  0  0
  146.0082  140.1673  154.9908 C   0  0  0  0  0  0  0  0  0  0  0  0
  145.7762  138.7592  154.3964 C   0  0  0  0  0  0  0  0  0  0  0  0
  144.0226  136.0605  151.8088 H   0  0  0  0  0  0  0  0  0  0  0  0
  143.4603  137.7209  151.9567 H   0  0  0  0  0  0  0  0  0  0  0  0
  143.8545  136.7821  153.3986 H   0  0  0  0  0  0  0  0  0  0  0  0
  146.2843  136.7416  152.7131 H   0  0  0  0  0  0  0  0  0  0  0  0
  145.8651  137.5453  151.2191 H   0  0  0  0  0  0  0  0  0  0  0  0
  147.9123  138.8359  152.6226 H   0  0  0  0  0  0  0  0  0  0  0  0
  146.9836  139.5925  151.3510 H   0  0  0  0  0  0  0  0  0  0  0  0
  148.0516  141.3871  152.6767 H   0  0  0  0  0  0  0  0  0  0  0  0
  146.3383  141.4707  152.8361 H   0  0  0  0  0  0  0  0  0  0  0  0
  148.5545  139.0744  154.6372 H   0  0  0  0  0  0  0  0  0  0  0  0
  149.2815  139.4654  157.0450 H   0  0  0  0  0  0  0  0  0  0  0  0
  147.5781  139.1844  156.8903 H   0  0  0  0  0  0  0  0  0  0  0  0
  148.1773  140.8296  157.1156 H   0  0  0  0  0  0  0  0  0  0  0  0
  150.6811  140.1935  154.8448 H   0  0  0  0  0  0  0  0  0  0  0  0
  149.7788  141.1550  153.6974 H   0  0  0  0  0  0  0  0  0  0  0  0
  149.5448  142.8397  155.3306 H   0  0  0  0  0  0  0  0  0  0  0  0
  150.2117  143.9055  156.8569 H   0  0  0  0  0  0  0  0  0  0  0  0
  152.4704  145.2035  161.3572 H   0  0  0  0  0  0  0  0  0  0  0  0
  145.9341  140.1396  156.0761 H   0  0  0  0  0  0  0  0  0  0  0  0
  145.1997  140.8276  154.6731 H   0  0  0  0  0  0  0  0  0  0  0  0
  144.8035  138.4007  154.7315 H   0  0  0  0  0  0  0  0  0  0  0  0
  146.5106  138.0454  154.7703 H   0  0  0  0  0  0  0  0  0  0  0  0
  145.0396  139.3876  152.6183 H   0  0  0  0  0  0  0  0  0  0  0  0
  1  2  1  0  0  0  0
  1 21  1  0  0  0  0
  1 22  1  0  0  0  0
  1 23  1  0  0  0  0
  2  3  1  0  0  0  0
  2 24  1  0  0  0  0
  2 25  1  0  0  0  0
  3 20  1  0  0  0  0
  3  4  1  0  0  0  0
  3 43  1  0  0  0  0
  4  5  1  0  0  0  0
  4 26  1  0  0  0  0
  4 27  1  0  0  0  0
  5  6  1  0  0  0  0
  5 28  1  0  0  0  0
  5 29  1  0  0  0  0
  6  7  1  0  0  0  0
  6 19  1  0  0  0  0
  7  8  1  0  0  0  0
  7  9  1  0  0  0  0
  7 30  1  0  0  0  0
  8 31  1  0  0  0  0
  8 32  1  0  0  0  0
  8 33  1  0  0  0  0
  9 10  1  0  0  0  0
  9 34  1  0  0  0  0
  9 35  1  0  0  0  0
 10 11  1  0  0  0  0
 10 36  1  0  0  0  0
 11 12  2  0  0  0  0
 11 13  1  0  0  0  0
 13 14  1  0  0  0  0
 13 37  1  0  0  0  0
 14 18  1  0  0  0  0
 14 15  2  0  0  0  0
 15 16  1  0  0  0  0
 16 17  2  0  0  0  0
 17 18  1  0  0  0  0
 17 38  1  0  0  0  0
 19 20  1  0  0  0  0
 19 39  1  0  0  0  0
 19 40  1  0  0  0  0
 20 41  1  0  0  0  0
 20 42  1  0  0  0  0
M  CHG  1   3   1
M  END
> <s_m_source_file>
AV-unprocessed.smi

> <i_m_source_file_index>
1817

> <i_lp_mmshare_version>
43012

> <i_f3d_flags>
0

> <s_epik_input>
W0NIM11bQ0gyXU4xW0NIMl1bQ0gyXU4oW0NIMl1bQ0gyXTEpW0NASF0oW0NIM10pW0NIMl1bTkhdQyg9TylbTkhdYzJubltjSF1zMg==

> <s_epik_cmdline>
J2VwaWtfcHl0aG9uJywgJy1waCcsICc3LjAnLCAnLXRuJywgJzgnLCAnLW1hJywgJzIwMCcsICctbWV0YWxfYmluZGluZycsICctaW1hZScsICc8aW5maWxlLm1hZT4nLCAnLW9tYWUnLCAnPG91dGZpbGUubWFlPic=

> <r_lp_tautomer_probability>
1

> <r_epik_Ionization_Penalty>
0.0474318

> <r_epik_Ionization_Penalty_Charging>
0.0451959

> <r_epik_Ionization_Penalty_Neutral>
0.00223598

> <r_epik_State_Penalty>
0.165541

> <r_epik_Charging_Adjusted_Penalty>
0.210737

> <i_epik_Tot_Q>
1

> <i_epik_Tot_abs_Q>
1

> <r_epik_Metal_State_Penalty>
0.500395

> <b_epik_Metal_Only>
0

> <s_lp_Force_Field>
OPLS_2005

> <r_lp_Energy>
19.2999

> <b_lp_Chiralities_Consistent>
1

> <s_lp_Variant>
AV-unprocessed.smi:1817-1

> <Gold.Version>
5.8.1

> <Gold.Id.Protein>
6NUR|6NUR_protein|mol2

> <Gold.PLP.Fitness>
43.6525

> <Gold.PLP.PLP>
-32.4437

> <Gold.PLP.part.hbond>
-3.0000

> <Gold.PLP.part.metal>
0.0000

> <Gold.PLP.part.buried>
-4.5812

> <Gold.PLP.part.nonpolar>
-24.5965

> <Gold.PLP.part.repulsive>
0.3086

> <Gold.PLP.ligand.clash>
0.0000

> <Gold.PLP.ligand.torsion>
0.4958

> <Gold.PLP.Chemscore.Hbond>
4.0000

> <Gold.PLP.Chemscore.CHOScore>
0.0000

> <Gold.PLP.Chemscore.Metal>
0.0000

> <Gold.Chemscore.Hbonds>
donor molecule, donor type, donor heavy atom, donor atom, acceptor molecule, acceptor atom, score
      L1  H     3    43       P1 10175  2.00
      L1  H    10    36       P1  8028  1.00
      L1  H    13    37       P1  8028  1.00

> <Gold.PLP.Chemscore.Internal.Correction>
0.2004

> <Gold.Rescore>
     Score         DG    S(hbond)    S(metal)    S(lipo)     H(rot)  DE(clash)    DE(int)     intcor
     16.30     -18.38       2.91        0.00      69.12       1.92       0.47       1.62       ----

> <Gold.Chemscore.Fitness>
16.2978

> <Gold.Chemscore.DG>
-18.3783

> <Gold.Chemscore.ZeroCoef>
-5.4800

> <Gold.Chemscore.Hbond>
2.9119

> <Gold.Chemscore.Metal>
0.0000

> <Gold.Chemscore.Lipo>
69.1182

> <Gold.Chemscore.Internal_Hbond>
0.0000

> <Gold.Chemscore.DEClash>
0.4650

> <Gold.Chemscore.DEInternal>
1.6155

> <Gold.Chemscore.Rot>
1.9196

> <Gold.Chemscore.Internal.Correction>
   9.000000E+99

> <Gold.Chemscore.Hbonds>
donor molecule, donor type, donor heavy atom, donor atom, acceptor molecule, acceptor atom, score
      L1  H     3    43       P1 10175  1.00
      L1  H    10    36       P1  8028  0.93
      L1  H    13    37       P1  8028  0.98

> <Gold.Chemscore.Hbond.Weighted>
-9.7256

> <Gold.Chemscore.Metal.Weighted>
-0.0000

> <Gold.Chemscore.Lipo.Weighted>
-8.0868

> <Gold.Chemscore.Internal_Hbond.Weighted>
0.0000

> <Gold.Chemscore.DEClash.Weighted>
0.4650

> <Gold.Chemscore.DEInternal.Weighted>
1.6155

> <Gold.Chemscore.Rot.Weighted>
4.9141

> <Gold.Chemscore.Internal.Correction.Weighted>
   9.000000E+99

> <Gold.Protein.RotatedTorsions>
[ 6907 6896 6895 6894 ] final   95.36 input  -60.11 | X-H torsion
[ 7974 7965 7964 7962 ] final  131.41 input  175.53 | X-H torsion
[ 8008 7997 7996 7995 ] final   64.53 input   59.86 | X-H torsion
[ 10167 10162 10161 10158 ] final  130.59 input  -65.29 | X-H torsion
[ 10718 10713 10712 10709 ] final  110.40 input   66.30 | X-H torsion
[ 10763 10752 10751 10750 ] final  150.22 input  -60.55 | X-H torsion
[ 11005 11000 10999 10996 ] final  -53.95 input  -57.11 | X-H torsion

> <Gold.Protein.ActiveResidues>
 VAL166  LYS551  ARG553  GLY616  TRP617  ASP618  TYR619  PRO620  LYS621  CYS622 
 ASP623  PHE694  ASN695  SER759  ASP760  ASP761  ALA762  ILE779  LEU786  VAL792 
 PHE793  MET794  SER795  GLU796  ALA797  LYS798  CYS799  TRP800  GLU811  SER814 

> <Gold.Protein.RotatedAtoms>
  152.5444  134.1051  159.8334 H   0  0  0  0  0  0  0  0  0  0  0  0  # atno 6907 bound_to 6896
  151.1124  133.5155  159.2612 H   0  0  0  0  0  0  0  0  0  0  0  0  # atno 6908 bound_to 6896
  151.1869  135.0395  159.8870 H   0  0  0  0  0  0  0  0  0  0  0  0  # atno 6909 bound_to 6896
  145.0076  139.4251  143.5261 H   0  0  0  0  0  0  0  0  0  0  0  0  # atno 7974 bound_to 7965
  155.6475  140.3497  155.4736 H   0  0  0  0  0  0  0  0  0  0  0  0  # atno 8008 bound_to 7997
  155.9875  140.1187  157.0692 H   0  0  0  0  0  0  0  0  0  0  0  0  # atno 8009 bound_to 7997
  154.4209  140.1126  156.5506 H   0  0  0  0  0  0  0  0  0  0  0  0  # atno 8010 bound_to 7997
  139.5423  144.6742  151.4585 H   0  0  0  0  0  0  0  0  0  0  0  0  # atno 10167 bound_to 10162
  157.6496  131.0932  150.6596 H   0  0  0  0  0  0  0  0  0  0  0  0  # atno 10718 bound_to 10713
  154.0839  135.2857  155.3285 H   0  0  0  0  0  0  0  0  0  0  0  0  # atno 10763 bound_to 10752
  154.6665  135.5315  153.8087 H   0  0  0  0  0  0  0  0  0  0  0  0  # atno 10764 bound_to 10752
  153.0438  135.6547  154.1012 H   0  0  0  0  0  0  0  0  0  0  0  0  # atno 10765 bound_to 10752
  141.1001  133.6619  156.4247 H   0  0  0  0  0  0  0  0  0  0  0  0  # atno 11005 bound_to 11000
  146.3464  139.9502  142.8730 LP  0  0  0  0  0  0  0  0  0  0  0  0  # atno 17320 bound_to 7965
  145.2066  140.9878  143.4124 LP  0  0  0  0  0  0  0  0  0  0  0  0  # atno 17321 bound_to 7965
  140.6658  143.8402  150.6940 LP  0  0  0  0  0  0  0  0  0  0  0  0  # atno 17342 bound_to 10162
  140.1810  143.4114  152.1933 LP  0  0  0  0  0  0  0  0  0  0  0  0  # atno 17343 bound_to 10162
  156.6909  130.4595  149.5600 LP  0  0  0  0  0  0  0  0  0  0  0  0  # atno 17370 bound_to 10713
  156.1862  130.6531  151.1009 LP  0  0  0  0  0  0  0  0  0  0  0  0  # atno 17371 bound_to 10713
  140.5042  134.6456  157.5260 LP  0  0  0  0  0  0  0  0  0  0  0  0  # atno 17394 bound_to 11000
  139.9850  134.7076  155.9790 LP  0  0  0  0  0  0  0  0  0  0  0  0  # atno 17395 bound_to 11000

$$$$
