AV-unprocessed.smi:2276|AV-procd|sdf|9173|dock3
  -GOLD-   2272012383D 1   1.00000     0.00000
 Structure written by MMmdl.
 53 54  0  0  0  0  0  0  0  0  2 V2000
  154.0811  139.0859  159.8954 C   0  0  0  0  0  0  0  0  0  0  0  0
  153.0421  140.1314  159.5483 C   0  0  0  0  0  0  0  0  0  0  0  0
  153.2526  141.4824  159.8828 C   0  0  0  0  0  0  0  0  0  0  0  0
  152.2577  142.4168  159.5363 C   0  0  0  0  0  0  0  0  0  0  0  0
  152.4156  143.8848  159.8716 C   0  0  0  0  0  0  0  0  0  0  0  0
  151.1144  142.0741  158.9063 N   0  0  0  0  0  0  0  0  0  0  0  0
  150.9004  140.7757  158.5771 C   0  0  0  0  0  0  0  0  0  0  0  0
  149.7122  140.3121  157.9528 N   0  0  0  0  0  0  0  0  0  0  0  0
  148.5215  140.9337  157.9066 C   0  0  0  0  0  0  0  0  0  0  0  0
  148.2683  142.0152  158.4375 O   0  0  0  0  0  0  0  0  0  0  0  0
  147.6201  140.2046  157.2317 N   0  0  0  0  0  0  0  0  0  0  0  0
  146.1797  140.4565  157.1714 C   0  0  0  0  0  0  0  0  0  0  0  0
  145.6163  140.5726  155.7308 C   0  0  1  0  0  0  0  0  0  0  0  0
  146.4899  141.5173  154.8908 C   0  0  0  0  0  0  0  0  0  0  0  0
  145.4542  139.1925  155.0409 C   0  0  0  0  0  0  0  0  0  0  0  0
  146.6842  138.6656  154.4354 N   0  0  0  0  0  0  0  0  0  0  0  0
  146.6697  137.2002  154.3780 C   0  0  0  0  0  0  0  0  0  0  0  0
  145.6547  136.6600  153.3414 C   0  0  0  0  0  0  0  0  0  0  0  0
  145.9243  137.2178  151.9945 N   0  3  0  0  0  0  0  0  0  0  0  0
  144.9796  136.7216  150.9709 C   0  0  0  0  0  0  0  0  0  0  0  0
  145.9828  138.6962  152.0370 C   0  0  0  0  0  0  0  0  0  0  0  0
  147.0049  139.1651  153.0914 C   0  0  0  0  0  0  0  0  0  0  0  0
  151.8484  139.7752  158.8876 C   0  0  0  0  0  0  0  0  0  0  0  0
  154.9644  139.2108  159.2687 H   0  0  0  0  0  0  0  0  0  0  0  0
  153.6944  138.0775  159.7455 H   0  0  0  0  0  0  0  0  0  0  0  0
  154.3836  139.1818  160.9385 H   0  0  0  0  0  0  0  0  0  0  0  0
  154.1547  141.7926  160.3900 H   0  0  0  0  0  0  0  0  0  0  0  0
  153.4417  144.1147  160.1596 H   0  0  0  0  0  0  0  0  0  0  0  0
  151.7587  144.1551  160.6986 H   0  0  0  0  0  0  0  0  0  0  0  0
  152.1585  144.5041  159.0117 H   0  0  0  0  0  0  0  0  0  0  0  0
  149.7275  139.3463  157.6602 H   0  0  0  0  0  0  0  0  0  0  0  0
  147.9387  139.3470  156.8048 H   0  0  0  0  0  0  0  0  0  0  0  0
  145.6590  139.6691  157.7182 H   0  0  0  0  0  0  0  0  0  0  0  0
  145.9917  141.3838  157.7134 H   0  0  0  0  0  0  0  0  0  0  0  0
  144.6442  141.0493  155.8286 H   0  0  0  0  0  0  0  0  0  0  0  0
  147.4948  141.1154  154.7577 H   0  0  0  0  0  0  0  0  0  0  0  0
  146.5827  142.4936  155.3672 H   0  0  0  0  0  0  0  0  0  0  0  0
  146.0616  141.6770  153.9011 H   0  0  0  0  0  0  0  0  0  0  0  0
  145.0919  138.4764  155.7797 H   0  0  0  0  0  0  0  0  0  0  0  0
  144.6804  139.2426  154.2796 H   0  0  0  0  0  0  0  0  0  0  0  0
  147.6712  136.8519  154.1218 H   0  0  0  0  0  0  0  0  0  0  0  0
  146.4510  136.7957  155.3669 H   0  0  0  0  0  0  0  0  0  0  0  0
  145.7320  135.5733  153.2969 H   0  0  0  0  0  0  0  0  0  0  0  0
  144.6291  136.8802  153.6394 H   0  0  0  0  0  0  0  0  0  0  0  0
  143.9605  137.0453  151.1879 H   0  0  0  0  0  0  0  0  0  0  0  0
  144.9930  135.6322  150.9306 H   0  0  0  0  0  0  0  0  0  0  0  0
  145.2522  137.0957  149.9835 H   0  0  0  0  0  0  0  0  0  0  0  0
  146.2754  139.0720  151.0558 H   0  0  0  0  0  0  0  0  0  0  0  0
  144.9939  139.1030  152.2409 H   0  0  0  0  0  0  0  0  0  0  0  0
  147.0895  140.2500  153.0814 H   0  0  0  0  0  0  0  0  0  0  0  0
  147.9956  138.7990  152.8177 H   0  0  0  0  0  0  0  0  0  0  0  0
  151.6612  138.7439  158.6247 H   0  0  0  0  0  0  0  0  0  0  0  0
  146.8450  136.8995  151.7281 H   0  0  0  0  0  0  0  0  0  0  0  0
  1  2  1  0  0  0  0
  1 24  1  0  0  0  0
  1 25  1  0  0  0  0
  1 26  1  0  0  0  0
  2 23  1  0  0  0  0
  2  3  2  0  0  0  0
  3  4  1  0  0  0  0
  3 27  1  0  0  0  0
  4  5  1  0  0  0  0
  4  6  2  0  0  0  0
  5 28  1  0  0  0  0
  5 29  1  0  0  0  0
  5 30  1  0  0  0  0
  6  7  1  0  0  0  0
  7  8  1  0  0  0  0
  7 23  2  0  0  0  0
  8  9  1  0  0  0  0
  8 31  1  0  0  0  0
  9 10  2  0  0  0  0
  9 11  1  0  0  0  0
 11 12  1  0  0  0  0
 11 32  1  0  0  0  0
 12 13  1  0  0  0  0
 12 33  1  0  0  0  0
 12 34  1  0  0  0  0
 13 14  1  0  0  0  0
 13 15  1  0  0  0  0
 13 35  1  0  0  0  0
 14 36  1  0  0  0  0
 14 37  1  0  0  0  0
 14 38  1  0  0  0  0
 15 16  1  0  0  0  0
 15 39  1  0  0  0  0
 15 40  1  0  0  0  0
 16 22  1  0  0  0  0
 16 17  1  0  0  0  0
 17 18  1  0  0  0  0
 17 41  1  0  0  0  0
 17 42  1  0  0  0  0
 18 19  1  0  0  0  0
 18 43  1  0  0  0  0
 18 44  1  0  0  0  0
 19 20  1  0  0  0  0
 19 21  1  0  0  0  0
 19 53  1  0  0  0  0
 20 45  1  0  0  0  0
 20 46  1  0  0  0  0
 20 47  1  0  0  0  0
 21 22  1  0  0  0  0
 21 48  1  0  0  0  0
 21 49  1  0  0  0  0
 22 50  1  0  0  0  0
 22 51  1  0  0  0  0
 23 52  1  0  0  0  0
M  CHG  1  19   1
M  END
> <s_m_source_file>
AV-unprocessed.smi

> <i_m_source_file_index>
2276

> <i_lp_mmshare_version>
43012

> <i_f3d_flags>
0

> <s_epik_input>
W0NIM11jMVtjSF1jKFtDSDNdKW5jKFtjSF0xKVtOSF1DKD1PKVtOSF1bQ0gyXVtDQEhdKFtDSDNdKVtDSDJdTjJbQ0gyXVtDSDJdTihbQ0gzXSlbQ0gyXVtDSDJdMg==

> <s_epik_cmdline>
J2VwaWtfcHl0aG9uJywgJy1waCcsICc3LjAnLCAnLXRuJywgJzgnLCAnLW1hJywgJzIwMCcsICctbWV0YWxfYmluZGluZycsICctaW1hZScsICc8aW5maWxlLm1hZT4nLCAnLW9tYWUnLCAnPG91dGZpbGUubWFlPic=

> <r_epik_Ionization_Penalty>
0.0247364

> <r_epik_Ionization_Penalty_Charging>
0.0230248

> <r_epik_Ionization_Penalty_Neutral>
0.00171164

> <r_epik_State_Penalty>
0.239056

> <r_epik_Charging_Adjusted_Penalty>
0.262081

> <i_epik_Tot_Q>
1

> <i_epik_Tot_abs_Q>
1

> <r_epik_Metal_State_Penalty>
0.239048

> <b_epik_Metal_Only>
0

> <s_lp_Force_Field>
OPLS_2005

> <r_lp_Energy>
20.5392

> <b_lp_Chiralities_Consistent>
1

> <s_lp_Variant>
AV-unprocessed.smi:2276-2

> <Gold.Version>
5.8.1

> <Gold.Id.Protein>
6NUR|6NUR_protein|mol2

> <Gold.PLP.Fitness>
42.6552

> <Gold.PLP.PLP>
-37.9569

> <Gold.PLP.part.hbond>
-1.0000

> <Gold.PLP.part.metal>
0.0000

> <Gold.PLP.part.buried>
-5.1117

> <Gold.PLP.part.nonpolar>
-33.2516

> <Gold.PLP.part.repulsive>
1.4140

> <Gold.PLP.ligand.clash>
0.0000

> <Gold.PLP.ligand.torsion>
0.6844

> <Gold.PLP.Chemscore.Hbond>
2.0000

> <Gold.PLP.Chemscore.CHOScore>
0.0000

> <Gold.PLP.Chemscore.Metal>
0.0000

> <Gold.Chemscore.Hbonds>
donor molecule, donor type, donor heavy atom, donor atom, acceptor molecule, acceptor atom, score
      L1  H    19    53       P1  7948  1.20

> <Gold.PLP.Chemscore.Internal.Correction>
0.0669

> <Gold.Rescore>
     Score         DG    S(hbond)    S(metal)    S(lipo)     H(rot)  DE(clash)    DE(int)     intcor
     12.34     -15.67       0.99        0.00      94.45       1.63       0.01       3.33       ----

> <Gold.Chemscore.Fitness>
12.3401

> <Gold.Chemscore.DG>
-15.6730

> <Gold.Chemscore.ZeroCoef>
-5.4800

> <Gold.Chemscore.Hbond>
0.9910

> <Gold.Chemscore.Metal>
0.0000

> <Gold.Chemscore.Lipo>
94.4548

> <Gold.Chemscore.Internal_Hbond>
0.0000

> <Gold.Chemscore.DEClash>
0.0064

> <Gold.Chemscore.DEInternal>
3.3264

> <Gold.Chemscore.Rot>
1.6282

> <Gold.Chemscore.Internal.Correction>
   9.000000E+99

> <Gold.Chemscore.Hbonds>
donor molecule, donor type, donor heavy atom, donor atom, acceptor molecule, acceptor atom, score
      L1  H    19    53       P1  7948  0.60

> <Gold.Chemscore.Hbond.Weighted>
-3.3099

> <Gold.Chemscore.Metal.Weighted>
-0.0000

> <Gold.Chemscore.Lipo.Weighted>
-11.0512

> <Gold.Chemscore.Internal_Hbond.Weighted>
0.0000

> <Gold.Chemscore.DEClash.Weighted>
0.0064

> <Gold.Chemscore.DEInternal.Weighted>
3.3264

> <Gold.Chemscore.Rot.Weighted>
4.1682

> <Gold.Chemscore.Internal.Correction.Weighted>
   9.000000E+99

> <Gold.Protein.RotatedTorsions>
[ 6907 6896 6895 6894 ] final   73.96 input  -60.11 | X-H torsion
[ 7974 7965 7964 7962 ] final -126.84 input  175.53 | X-H torsion
[ 8008 7997 7996 7995 ] final  -68.18 input   59.86 | X-H torsion
[ 10167 10162 10161 10158 ] final  -98.44 input  -65.29 | X-H torsion
[ 10718 10713 10712 10709 ] final  -20.41 input   66.30 | X-H torsion
[ 10763 10752 10751 10750 ] final   24.73 input  -60.55 | X-H torsion
[ 11005 11000 10999 10996 ] final  -59.00 input  -57.11 | X-H torsion

> <Gold.Protein.ActiveResidues>
 VAL166  LYS551  ARG553  GLY616  TRP617  ASP618  TYR619  PRO620  LYS621  CYS622 
 ASP623  PHE694  ASN695  SER759  ASP760  ASP761  ALA762  ILE779  LEU786  VAL792 
 PHE793  MET794  SER795  GLU796  ALA797  LYS798  CYS799  TRP800  GLU811  SER814 

> <Gold.Protein.RotatedAtoms>
  152.4951  134.4343  159.9522 H   0  0  0  0  0  0  0  0  0  0  0  0  # atno 6907 bound_to 6896
  151.4323  133.3660  159.2778 H   0  0  0  0  0  0  0  0  0  0  0  0  # atno 6908 bound_to 6896
  150.9146  134.8586  159.7508 H   0  0  0  0  0  0  0  0  0  0  0  0  # atno 6909 bound_to 6896
  144.9832  140.7660  143.4599 H   0  0  0  0  0  0  0  0  0  0  0  0  # atno 7974 bound_to 7965
  154.4850  140.0878  156.7465 H   0  0  0  0  0  0  0  0  0  0  0  0  # atno 8008 bound_to 7997
  155.4373  140.3452  155.4268 H   0  0  0  0  0  0  0  0  0  0  0  0  # atno 8009 bound_to 7997
  156.1248  140.1484  156.9141 H   0  0  0  0  0  0  0  0  0  0  0  0  # atno 8010 bound_to 7997
  140.2729  143.3332  152.0516 H   0  0  0  0  0  0  0  0  0  0  0  0  # atno 10167 bound_to 10162
  156.5322  130.4658  149.6541 H   0  0  0  0  0  0  0  0  0  0  0  0  # atno 10718 bound_to 10713
  153.0743  135.6599  154.0180 H   0  0  0  0  0  0  0  0  0  0  0  0  # atno 10763 bound_to 10752
  153.9818  135.2954  155.3421 H   0  0  0  0  0  0  0  0  0  0  0  0  # atno 10764 bound_to 10752
  154.7126  135.5199  153.8760 H   0  0  0  0  0  0  0  0  0  0  0  0  # atno 10765 bound_to 10752
  141.1230  133.6614  156.5005 H   0  0  0  0  0  0  0  0  0  0  0  0  # atno 11005 bound_to 11000
  145.2391  139.2080  143.5002 LP  0  0  0  0  0  0  0  0  0  0  0  0  # atno 17320 bound_to 7965
  146.3413  140.2283  142.8593 LP  0  0  0  0  0  0  0  0  0  0  0  0  # atno 17321 bound_to 7965
  139.4983  144.6644  151.6391 LP  0  0  0  0  0  0  0  0  0  0  0  0  # atno 17342 bound_to 10162
  140.5874  143.9839  150.6304 LP  0  0  0  0  0  0  0  0  0  0  0  0  # atno 17343 bound_to 10162
  156.3049  130.7197  151.2077 LP  0  0  0  0  0  0  0  0  0  0  0  0  # atno 17370 bound_to 10713
  157.7420  131.0496  150.5058 LP  0  0  0  0  0  0  0  0  0  0  0  0  # atno 17371 bound_to 10713
  140.4450  134.6981  157.5011 LP  0  0  0  0  0  0  0  0  0  0  0  0  # atno 17394 bound_to 11000
  140.0204  134.6556  155.9249 LP  0  0  0  0  0  0  0  0  0  0  0  0  # atno 17395 bound_to 11000

$$$$
