AV-unprocessed.smi:47|AV-procd|sdf|436|dock3
  -GOLD-   2262016303D 1   1.00000     0.00000
 Structure written by MMmdl.
 31 33  0  0  0  0  0  0  0  0  1 V2000
  145.6076  139.9615  154.0147 O   0  0  0  0  0  0  0  0  0  0  0  0
  146.9295  140.2333  153.6009 C   0  0  2  0  0  0  0  0  0  0  0  0
  147.7889  138.9744  153.5269 C   0  0  0  0  0  0  0  0  0  0  0  0
  149.1716  139.4298  153.6527 N   0  0  0  0  0  0  0  0  0  0  0  0
  149.1607  140.7760  154.2403 C   0  0  2  0  0  0  0  0  0  0  0  0
  150.0839  140.9339  155.4088 C   0  0  0  0  0  0  0  0  0  0  0  0
  150.9592  139.9818  155.7157 N   0  0  0  0  0  0  0  0  0  0  0  0
  151.5984  140.5235  156.7723 N   0  0  0  0  0  0  0  0  0  0  0  0
  151.1111  141.7424  157.0368 C   0  0  0  0  0  0  0  0  0  0  0  0
  151.5793  142.6113  158.1188 C   0  0  0  0  0  0  0  0  0  0  0  0
  152.1762  142.0576  159.2752 C   0  0  0  0  0  0  0  0  0  0  0  0
  152.6270  142.8925  160.3161 C   0  0  0  0  0  0  0  0  0  0  0  0
  152.4879  144.2890  160.2111 C   0  0  0  0  0  0  0  0  0  0  0  0
  151.8973  144.8502  159.0635 C   0  0  0  0  0  0  0  0  0  0  0  0
  151.4449  144.0160  158.0226 C   0  0  0  0  0  0  0  0  0  0  0  0
  150.1404  142.0614  156.1805 N   0  0  0  0  0  0  0  0  0  0  0  0
  147.7008  141.0850  154.5979 C   0  0  0  0  0  0  0  0  0  0  0  0
  146.9094  140.7275  152.6283 H   0  0  0  0  0  0  0  0  0  0  0  0
  149.4708  141.4799  153.4666 H   0  0  0  0  0  0  0  0  0  0  0  0
  152.3418  140.0484  157.2638 H   0  0  0  0  0  0  0  0  0  0  0  0
  145.0351  140.0488  153.2679 H   0  0  0  0  0  0  0  0  0  0  0  0
  147.5509  138.3175  154.3648 H   0  0  0  0  0  0  0  0  0  0  0  0
  147.6281  138.4091  152.6085 H   0  0  0  0  0  0  0  0  0  0  0  0
  149.5774  139.4896  152.7246 H   0  0  0  0  0  0  0  0  0  0  0  0
  152.2923  140.9886  159.3776 H   0  0  0  0  0  0  0  0  0  0  0  0
  153.0799  142.4605  161.1964 H   0  0  0  0  0  0  0  0  0  0  0  0
  152.8336  144.9291  161.0095 H   0  0  0  0  0  0  0  0  0  0  0  0
  151.7907  145.9217  158.9806 H   0  0  0  0  0  0  0  0  0  0  0  0
  150.9951  144.4672  157.1503 H   0  0  0  0  0  0  0  0  0  0  0  0
  147.4621  142.1475  154.5435 H   0  0  0  0  0  0  0  0  0  0  0  0
  147.4829  140.7435  155.6119 H   0  0  0  0  0  0  0  0  0  0  0  0
  1  2  1  0  0  0  0
  1 21  1  0  0  0  0
  2 18  1  0  0  0  0
  2 17  1  0  0  0  0
  2  3  1  0  0  0  0
  3  4  1  0  0  0  0
  3 22  1  0  0  0  0
  3 23  1  0  0  0  0
  4  5  1  0  0  0  0
  4 24  1  0  0  0  0
  5 19  1  0  0  0  0
  5  6  1  0  0  0  0
  5 17  1  0  0  0  0
  6 16  1  0  0  0  0
  6  7  2  0  0  0  0
  7  8  1  0  0  0  0
  8 20  1  0  0  0  0
  8  9  1  0  0  0  0
  9 10  1  0  0  0  0
  9 16  2  0  0  0  0
 10 15  1  0  0  0  0
 10 11  2  0  0  0  0
 11 12  1  0  0  0  0
 11 25  1  0  0  0  0
 12 13  2  0  0  0  0
 12 26  1  0  0  0  0
 13 14  1  0  0  0  0
 13 27  1  0  0  0  0
 14 15  2  0  0  0  0
 14 28  1  0  0  0  0
 15 29  1  0  0  0  0
 17 30  1  0  0  0  0
 17 31  1  0  0  0  0
M  END
> <s_m_source_file>
AV-unprocessed.smi

> <i_m_source_file_index>
47

> <i_lp_mmshare_version>
43012

> <i_f3d_flags>
0

> <s_epik_input>
W09IXVtDQEhdMVtDSDJdW05IXVtDQEBIXShbQ0gyXTEpYzJuW25IXWMobjIpLWMzW2NIXVtjSF1bY0hdW2NIXVtjSF0z

> <s_epik_cmdline>
J2VwaWtfcHl0aG9uJywgJy1waCcsICc3LjAnLCAnLXRuJywgJzgnLCAnLW1hJywgJzIwMCcsICctbWV0YWxfYmluZGluZycsICctaW1hZScsICc8aW5maWxlLm1hZT4nLCAnLW9tYWUnLCAnPG91dGZpbGUubWFlPic=

> <r_epik_Ionization_Penalty>
1.65981

> <r_epik_Ionization_Penalty_Charging>
0

> <r_epik_Ionization_Penalty_Neutral>
1.65981

> <r_epik_State_Penalty>
2.0492

> <r_epik_Charging_Adjusted_Penalty>
2.0492

> <i_epik_Tot_Q>
0

> <i_epik_Tot_abs_Q>
0

> <r_epik_Metal_State_Penalty>
2.54641

> <b_epik_Metal_Only>
0

> <s_lp_Force_Field>
OPLS_2005

> <r_lp_Energy>
26.3825

> <b_lp_Chiralities_Consistent>
1

> <s_lp_Variant>
AV-unprocessed.smi:47-14

> <Gold.Version>
5.8.1

> <Gold.Id.Protein>
6NUR|6NUR_protein|mol2

> <Gold.PLP.Fitness>
41.4699

> <Gold.PLP.PLP>
-36.3369

> <Gold.PLP.part.hbond>
-1.8663

> <Gold.PLP.part.metal>
0.0000

> <Gold.PLP.part.buried>
-5.0211

> <Gold.PLP.part.nonpolar>
-30.9399

> <Gold.PLP.part.repulsive>
1.2002

> <Gold.PLP.ligand.clash>
0.0000

> <Gold.PLP.ligand.torsion>
0.4404

> <Gold.PLP.Chemscore.Hbond>
2.0000

> <Gold.PLP.Chemscore.CHOScore>
0.0000

> <Gold.PLP.Chemscore.Metal>
0.0000

> <Gold.Chemscore.Hbonds>
donor molecule, donor type, donor heavy atom, donor atom, acceptor molecule, acceptor atom, score
      L1  H     1    21       P1 10175  1.00
      L1  H     4    24       P1  7957  1.00

> <Gold.PLP.Chemscore.Internal.Correction>
0.0137

> <Gold.Rescore>
     Score         DG    S(hbond)    S(metal)    S(lipo)     H(rot)  DE(clash)    DE(int)     intcor
     18.87     -19.43       1.97        0.00      95.42       1.48       0.41       0.15       ----

> <Gold.Chemscore.Fitness>
18.8742

> <Gold.Chemscore.DG>
-19.4343

> <Gold.Chemscore.ZeroCoef>
-5.4800

> <Gold.Chemscore.Hbond>
1.9687

> <Gold.Chemscore.Metal>
0.0000

> <Gold.Chemscore.Lipo>
95.4194

> <Gold.Chemscore.Internal_Hbond>
0.0000

> <Gold.Chemscore.DEClash>
0.4123

> <Gold.Chemscore.DEInternal>
0.1478

> <Gold.Chemscore.Rot>
1.4786

> <Gold.Chemscore.Internal.Correction>
   9.000000E+99

> <Gold.Chemscore.Hbonds>
donor molecule, donor type, donor heavy atom, donor atom, acceptor molecule, acceptor atom, score
      L1  H     1    21       P1 10175  0.98
      L1  H     4    24       P1  7957  0.97

> <Gold.Chemscore.Hbond.Weighted>
-6.5755

> <Gold.Chemscore.Metal.Weighted>
-0.0000

> <Gold.Chemscore.Lipo.Weighted>
-11.1641

> <Gold.Chemscore.Internal_Hbond.Weighted>
0.0000

> <Gold.Chemscore.DEClash.Weighted>
0.4123

> <Gold.Chemscore.DEInternal.Weighted>
0.1478

> <Gold.Chemscore.Rot.Weighted>
3.7853

> <Gold.Chemscore.Internal.Correction.Weighted>
   9.000000E+99

> <Gold.Protein.RotatedTorsions>
[ 6907 6896 6895 6894 ] final  -34.12 input  -60.11 | X-H torsion
[ 7974 7965 7964 7962 ] final  179.69 input  175.53 | X-H torsion
[ 8008 7997 7996 7995 ] final -111.65 input   59.86 | X-H torsion
[ 10167 10162 10161 10158 ] final -156.64 input  -65.29 | X-H torsion
[ 10718 10713 10712 10709 ] final  -46.15 input   66.30 | X-H torsion
[ 10763 10752 10751 10750 ] final  -61.91 input  -60.55 | X-H torsion
[ 11005 11000 10999 10996 ] final  108.88 input  -57.11 | X-H torsion

> <Gold.Protein.ActiveResidues>
 VAL166  LYS551  ARG553  GLY616  TRP617  ASP618  TYR619  PRO620  LYS621  CYS622 
 ASP623  PHE694  ASN695  SER759  ASP760  ASP761  ALA762  ILE779  LEU786  VAL792 
 PHE793  MET794  SER795  GLU796  ALA797  LYS798  CYS799  TRP800  GLU811  SER814 

> <Gold.Protein.RotatedAtoms>
  151.0567  134.9709  159.8239 H   0  0  0  0  0  0  0  0  0  0  0  0  # atno 6907 bound_to 6896
  152.5389  134.2469  159.8893 H   0  0  0  0  0  0  0  0  0  0  0  0  # atno 6908 bound_to 6896
  151.2487  133.4318  159.2644 H   0  0  0  0  0  0  0  0  0  0  0  0  # atno 6909 bound_to 6896
  144.7143  140.0586  143.6433 H   0  0  0  0  0  0  0  0  0  0  0  0  # atno 7974 bound_to 7965
  154.9931  140.0395  157.2328 H   0  0  0  0  0  0  0  0  0  0  0  0  # atno 8008 bound_to 7997
  154.7611  140.2784  155.6191 H   0  0  0  0  0  0  0  0  0  0  0  0  # atno 8009 bound_to 7997
  156.2904  140.2628  156.2390 H   0  0  0  0  0  0  0  0  0  0  0  0  # atno 8010 bound_to 7997
  139.6834  143.9543  152.2348 H   0  0  0  0  0  0  0  0  0  0  0  0  # atno 10167 bound_to 10162
  156.2212  130.4166  149.8991 H   0  0  0  0  0  0  0  0  0  0  0  0  # atno 10718 bound_to 10713
  154.2918  135.6252  153.5388 H   0  0  0  0  0  0  0  0  0  0  0  0  # atno 10763 bound_to 10752
  152.9851  135.5657  154.5382 H   0  0  0  0  0  0  0  0  0  0  0  0  # atno 10764 bound_to 10752
  154.4994  135.2871  155.1409 H   0  0  0  0  0  0  0  0  0  0  0  0  # atno 10765 bound_to 10752
  139.8852  134.9443  156.6041 H   0  0  0  0  0  0  0  0  0  0  0  0  # atno 11005 bound_to 11000
  145.9883  139.2995  143.1000 LP  0  0  0  0  0  0  0  0  0  0  0  0  # atno 17320 bound_to 7965
  145.8932  140.9290  143.0541 LP  0  0  0  0  0  0  0  0  0  0  0  0  # atno 17321 bound_to 7965
  139.9339  144.6724  150.8335 LP  0  0  0  0  0  0  0  0  0  0  0  0  # atno 17342 bound_to 10162
  140.7659  143.3290  151.2452 LP  0  0  0  0  0  0  0  0  0  0  0  0  # atno 17343 bound_to 10162
  156.6637  130.8792  151.3551 LP  0  0  0  0  0  0  0  0  0  0  0  0  # atno 17370 bound_to 10713
  157.7088  130.9416  150.1020 LP  0  0  0  0  0  0  0  0  0  0  0  0  # atno 17371 bound_to 10713
  140.7861  133.8620  155.8608 LP  0  0  0  0  0  0  0  0  0  0  0  0  # atno 17394 bound_to 11000
  140.9718  134.1522  157.4570 LP  0  0  0  0  0  0  0  0  0  0  0  0  # atno 17395 bound_to 11000

$$$$
