AV-unprocessed.smi:3280|AV-procd|sdf|12555|dock2
  -GOLD-   2272018473D 1   1.00000     0.00000
 Structure written by MMmdl.
 38 39  0  0  0  0  0  0  0  0  1 V2000
  145.2056  143.5941  153.6291 C   0  0  0  0  0  0  0  0  0  0  0  0
  145.0178  142.5743  154.7617 C   0  0  0  0  0  0  0  0  0  0  0  0
  144.2969  143.1621  155.9839 C   0  0  0  0  0  0  0  0  0  0  0  0
  146.3120  141.9216  155.1409 C   0  0  0  0  0  0  0  0  0  0  0  0
  146.3749  141.0471  156.1385 N   0  0  0  0  0  0  0  0  0  0  0  0
  147.7255  140.6713  156.1576 O   0  0  0  0  0  0  0  0  0  0  0  0
  148.3213  141.3840  155.1719 C   0  0  0  0  0  0  0  0  0  0  0  0
  149.7741  141.1710  154.9062 C   0  0  0  0  0  0  0  0  0  0  0  0
  150.6230  141.2995  156.1773 C   0  0  0  0  0  0  0  0  0  0  0  0
  150.1576  142.4350  156.9619 N   0  0  0  0  0  0  0  0  0  0  0  0
  151.1929  142.9478  157.8525 C   0  0  1  0  0  0  0  0  0  0  0  0
  150.6141  144.1799  158.5758 C   0  0  0  0  0  0  0  0  0  0  0  0
  151.6378  144.8573  159.5009 C   0  0  0  0  0  0  0  0  0  0  0  0
  152.1228  143.9231  160.6178 C   0  0  0  0  0  0  0  0  0  0  0  0
  152.9665  142.4707  159.9359 S   0  0  0  0  0  0  0  0  0  0  0  0
  151.6404  141.8642  158.8569 C   0  0  0  0  0  0  0  0  0  0  0  0
  147.4856  142.1646  154.4917 N   0  0  0  0  0  0  0  0  0  0  0  0
  145.6509  143.1265  152.7504 H   0  0  0  0  0  0  0  0  0  0  0  0
  145.8557  144.4139  153.9364 H   0  0  0  0  0  0  0  0  0  0  0  0
  144.2506  144.0237  153.3259 H   0  0  0  0  0  0  0  0  0  0  0  0
  144.3647  141.7940  154.3671 H   0  0  0  0  0  0  0  0  0  0  0  0
  144.1148  142.3957  156.7379 H   0  0  0  0  0  0  0  0  0  0  0  0
  143.3320  143.5856  155.7043 H   0  0  0  0  0  0  0  0  0  0  0  0
  144.8847  143.9542  156.4486 H   0  0  0  0  0  0  0  0  0  0  0  0
  149.9052  140.1838  154.4610 H   0  0  0  0  0  0  0  0  0  0  0  0
  150.0985  141.8979  154.1600 H   0  0  0  0  0  0  0  0  0  0  0  0
  150.5541  140.3800  156.7575 H   0  0  0  0  0  0  0  0  0  0  0  0
  151.6709  141.4413  155.9094 H   0  0  0  0  0  0  0  0  0  0  0  0
  149.8763  143.1706  156.3294 H   0  0  0  0  0  0  0  0  0  0  0  0
  152.0459  143.2714  157.2540 H   0  0  0  0  0  0  0  0  0  0  0  0
  150.2722  144.9096  157.8403 H   0  0  0  0  0  0  0  0  0  0  0  0
  149.7341  143.8956  159.1551 H   0  0  0  0  0  0  0  0  0  0  0  0
  152.4896  145.2082  158.9171 H   0  0  0  0  0  0  0  0  0  0  0  0
  151.1870  145.7445  159.9466 H   0  0  0  0  0  0  0  0  0  0  0  0
  152.8125  144.4493  161.2780 H   0  0  0  0  0  0  0  0  0  0  0  0
  151.2830  143.5927  161.2300 H   0  0  0  0  0  0  0  0  0  0  0  0
  150.8013  141.5437  159.4758 H   0  0  0  0  0  0  0  0  0  0  0  0
  152.0169  140.9776  158.3480 H   0  0  0  0  0  0  0  0  0  0  0  0
  1  2  1  0  0  0  0
  1 18  1  0  0  0  0
  1 19  1  0  0  0  0
  1 20  1  0  0  0  0
  2  3  1  0  0  0  0
  2  4  1  0  0  0  0
  2 21  1  0  0  0  0
  3 22  1  0  0  0  0
  3 23  1  0  0  0  0
  3 24  1  0  0  0  0
  4 17  1  0  0  0  0
  4  5  2  0  0  0  0
  5  6  1  0  0  0  0
  6  7  1  0  0  0  0
  7  8  1  0  0  0  0
  7 17  2  0  0  0  0
  8  9  1  0  0  0  0
  8 25  1  0  0  0  0
  8 26  1  0  0  0  0
  9 10  1  0  0  0  0
  9 27  1  0  0  0  0
  9 28  1  0  0  0  0
 10 11  1  0  0  0  0
 10 29  1  0  0  0  0
 11 16  1  0  0  0  0
 11 12  1  0  0  0  0
 11 30  1  0  0  0  0
 12 13  1  0  0  0  0
 12 31  1  0  0  0  0
 12 32  1  0  0  0  0
 13 14  1  0  0  0  0
 13 33  1  0  0  0  0
 13 34  1  0  0  0  0
 14 15  1  0  0  0  0
 14 35  1  0  0  0  0
 14 36  1  0  0  0  0
 15 16  1  0  0  0  0
 16 37  1  0  0  0  0
 16 38  1  0  0  0  0
M  END
> <s_m_source_file>
AV-unprocessed.smi

> <i_m_source_file_index>
3280

> <i_lp_mmshare_version>
43012

> <i_f3d_flags>
0

> <s_epik_input>
W0NIM11bQ0hdKFtDSDNdKWMxbm9jKG4xKVtDSDJdW0NIMl1bTkhdW0NAQEhdMltDSDJdW0NIMl1bQ0gyXVNbQ0gyXTI=

> <s_epik_cmdline>
J2VwaWtfcHl0aG9uJywgJy1waCcsICc3LjAnLCAnLXRuJywgJzgnLCAnLW1hJywgJzIwMCcsICctbWV0YWxfYmluZGluZycsICctaW1hZScsICc8aW5maWxlLm1hZT4nLCAnLW9tYWUnLCAnPG91dGZpbGUubWFlPic=

> <r_lp_tautomer_probability>
1

> <r_epik_Ionization_Penalty>
2.40576

> <r_epik_Ionization_Penalty_Charging>
0

> <r_epik_Ionization_Penalty_Neutral>
2.40576

> <r_epik_State_Penalty>
2.56401

> <r_epik_Charging_Adjusted_Penalty>
2.56401

> <i_epik_Tot_Q>
0

> <i_epik_Tot_abs_Q>
0

> <r_epik_Metal_State_Penalty>
2.56401

> <b_epik_Metal_Only>
0

> <s_lp_Force_Field>
OPLS_2005

> <r_lp_Energy>
1.02241

> <b_lp_Chiralities_Consistent>
1

> <s_lp_Variant>
AV-unprocessed.smi:3280-4

> <Gold.Version>
5.8.1

> <Gold.Id.Protein>
6NUR|6NUR_protein|mol2

> <Gold.PLP.Fitness>
40.6289

> <Gold.PLP.PLP>
-38.7817

> <Gold.PLP.part.hbond>
-1.0000

> <Gold.PLP.part.metal>
0.0000

> <Gold.PLP.part.buried>
-4.8651

> <Gold.PLP.part.nonpolar>
-34.2900

> <Gold.PLP.part.repulsive>
1.1892

> <Gold.PLP.ligand.clash>
0.0000

> <Gold.PLP.ligand.torsion>
0.4135

> <Gold.PLP.Chemscore.Hbond>
0.8640

> <Gold.PLP.Chemscore.CHOScore>
0.0000

> <Gold.PLP.Chemscore.Metal>
0.0000

> <Gold.Chemscore.Hbonds>
donor molecule, donor type, donor heavy atom, donor atom, acceptor molecule, acceptor atom, score
      L1  H    10    29       P1  8028  1.00

> <Gold.PLP.Chemscore.Internal.Correction>
0.0821

> <Gold.Rescore>
     Score         DG    S(hbond)    S(metal)    S(lipo)     H(rot)  DE(clash)    DE(int)     intcor
     15.45     -15.99       0.98        0.00      98.84       1.68       0.07       0.48       ----

> <Gold.Chemscore.Fitness>
15.4465

> <Gold.Chemscore.DG>
-15.9936

> <Gold.Chemscore.ZeroCoef>
-5.4800

> <Gold.Chemscore.Hbond>
0.9755

> <Gold.Chemscore.Metal>
0.0000

> <Gold.Chemscore.Lipo>
98.8430

> <Gold.Chemscore.Internal_Hbond>
0.0000

> <Gold.Chemscore.DEClash>
0.0658

> <Gold.Chemscore.DEInternal>
0.4812

> <Gold.Chemscore.Rot>
1.6833

> <Gold.Chemscore.Internal.Correction>
   9.000000E+99

> <Gold.Chemscore.Hbonds>
donor molecule, donor type, donor heavy atom, donor atom, acceptor molecule, acceptor atom, score
      L1  H    10    29       P1  8028  0.98

> <Gold.Chemscore.Hbond.Weighted>
-3.2581

> <Gold.Chemscore.Metal.Weighted>
-0.0000

> <Gold.Chemscore.Lipo.Weighted>
-11.5646

> <Gold.Chemscore.Internal_Hbond.Weighted>
0.0000

> <Gold.Chemscore.DEClash.Weighted>
0.0658

> <Gold.Chemscore.DEInternal.Weighted>
0.4812

> <Gold.Chemscore.Rot.Weighted>
4.3092

> <Gold.Chemscore.Internal.Correction.Weighted>
   9.000000E+99

> <Gold.Protein.RotatedTorsions>
[ 6907 6896 6895 6894 ] final -155.96 input  -60.11 | X-H torsion
[ 7974 7965 7964 7962 ] final  -33.96 input  175.53 | X-H torsion
[ 8008 7997 7996 7995 ] final  171.22 input   59.86 | X-H torsion
[ 10167 10162 10161 10158 ] final   20.35 input  -65.29 | X-H torsion
[ 10718 10713 10712 10709 ] final -132.33 input   66.30 | X-H torsion
[ 10763 10752 10751 10750 ] final   68.59 input  -60.55 | X-H torsion
[ 11005 11000 10999 10996 ] final  -95.60 input  -57.11 | X-H torsion

> <Gold.Protein.ActiveResidues>
 VAL166  LYS551  ARG553  GLY616  TRP617  ASP618  TYR619  PRO620  LYS621  CYS622 
 ASP623  PHE694  ASN695  SER759  ASP760  ASP761  ALA762  ILE779  LEU786  VAL792 
 PHE793  MET794  SER795  GLU796  ALA797  LYS798  CYS799  TRP800  GLU811  SER814 

> <Gold.Protein.RotatedAtoms>
  151.2804  133.4212  159.2626 H   0  0  0  0  0  0  0  0  0  0  0  0  # atno 6907 bound_to 6896
  151.0365  134.9577  159.8149 H   0  0  0  0  0  0  0  0  0  0  0  0  # atno 6908 bound_to 6896
  152.5356  134.2764  159.9043 H   0  0  0  0  0  0  0  0  0  0  0  0  # atno 6909 bound_to 6896
  146.0869  140.5980  142.8882 H   0  0  0  0  0  0  0  0  0  0  0  0  # atno 7974 bound_to 7965
  156.1292  140.1517  156.9091 H   0  0  0  0  0  0  0  0  0  0  0  0  # atno 8008 bound_to 7997
  154.4895  140.0855  156.7603 H   0  0  0  0  0  0  0  0  0  0  0  0  # atno 8009 bound_to 7997
  155.4288  140.3426  155.4280 H   0  0  0  0  0  0  0  0  0  0  0  0  # atno 8010 bound_to 7997
  140.5510  143.9509  150.6578 H   0  0  0  0  0  0  0  0  0  0  0  0  # atno 10167 bound_to 10162
  156.2335  130.7052  151.0883 H   0  0  0  0  0  0  0  0  0  0  0  0  # atno 10718 bound_to 10713
  153.0243  135.5242  154.7158 H   0  0  0  0  0  0  0  0  0  0  0  0  # atno 10763 bound_to 10752
  154.6227  135.2891  155.0309 H   0  0  0  0  0  0  0  0  0  0  0  0  # atno 10764 bound_to 10752
  154.1290  135.6596  153.4970 H   0  0  0  0  0  0  0  0  0  0  0  0  # atno 10765 bound_to 10752
  141.1437  133.8038  157.0458 H   0  0  0  0  0  0  0  0  0  0  0  0  # atno 11005 bound_to 11000
  144.7332  140.4732  143.6923 LP  0  0  0  0  0  0  0  0  0  0  0  0  # atno 17320 bound_to 7965
  145.6113  139.1513  143.3074 LP  0  0  0  0  0  0  0  0  0  0  0  0  # atno 17321 bound_to 7965
  140.2934  143.3308  152.1040 LP  0  0  0  0  0  0  0  0  0  0  0  0  # atno 17342 bound_to 10162
  139.5027  144.6741  151.6171 LP  0  0  0  0  0  0  0  0  0  0  0  0  # atno 17343 bound_to 10162
  157.7144  131.0718  150.6384 LP  0  0  0  0  0  0  0  0  0  0  0  0  # atno 17370 bound_to 10713
  156.6453  130.4470  149.5738 LP  0  0  0  0  0  0  0  0  0  0  0  0  # atno 17371 bound_to 10713
  140.0664  134.9727  157.1392 LP  0  0  0  0  0  0  0  0  0  0  0  0  # atno 17394 bound_to 11000
  140.3774  134.2324  155.7173 LP  0  0  0  0  0  0  0  0  0  0  0  0  # atno 17395 bound_to 11000

$$$$
