AV-unprocessed.smi:1022|AV-procd|sdf|4461|dock7
  -GOLD-   22720 2433D 1   1.00000     0.00000
 Structure written by MMmdl.
 32 33  0  0  0  0  0  0  0  0  2 V2000
  146.0604  143.5761  153.7998 C   0  0  0  0  0  0  0  0  0  0  0  0
  146.6521  142.3326  154.1307 O   0  0  0  0  0  0  0  0  0  0  0  0
  146.6814  141.4342  153.0320 C   0  0  0  0  0  0  0  0  0  0  0  0
  147.2332  140.0679  153.4791 C   0  0  1  0  0  0  0  0  0  0  0  0
  146.9368  138.9577  152.4609 C   0  0  0  0  0  0  0  0  0  0  0  0
  148.6713  140.1422  153.7288 N   0  0  0  0  0  0  0  0  0  0  0  0
  149.2786  139.9823  154.9138 C   0  0  0  0  0  0  0  0  0  0  0  0
  148.6097  139.7432  155.9220 O   0  0  0  0  0  0  0  0  0  0  0  0
  150.6236  140.1135  154.8583 N   0  5  0  0  0  0  0  0  0  0  0  0
  151.3317  140.2509  155.9914 C   0  0  0  0  0  0  0  0  0  0  0  0
  152.4730  139.5830  156.2112 N   0  0  0  0  0  0  0  0  0  0  0  0
  153.0441  139.8715  157.4421 N   0  0  0  0  0  0  0  0  0  0  0  0
  152.3279  140.7611  158.1336 C   0  0  0  0  0  0  0  0  0  0  0  0
  152.7325  141.2310  159.4908 C   0  0  0  0  0  0  0  0  0  0  0  0
  152.8774  142.7064  159.7854 C   0  0  0  0  0  0  0  0  0  0  0  0
  154.1000  141.8251  159.7493 C   0  0  0  0  0  0  0  0  0  0  0  0
  150.8823  141.3283  157.3128 S   0  0  0  0  0  0  0  0  0  0  0  0
  146.0664  144.2282  154.6730 H   0  0  0  0  0  0  0  0  0  0  0  0
  145.0246  143.4473  153.4832 H   0  0  0  0  0  0  0  0  0  0  0  0
  146.6117  144.0755  153.0021 H   0  0  0  0  0  0  0  0  0  0  0  0
  145.6781  141.3177  152.6189 H   0  0  0  0  0  0  0  0  0  0  0  0
  147.3072  141.8441  152.2377 H   0  0  0  0  0  0  0  0  0  0  0  0
  146.7352  139.7901  154.4097 H   0  0  0  0  0  0  0  0  0  0  0  0
  145.8653  138.8672  152.2815 H   0  0  0  0  0  0  0  0  0  0  0  0
  147.2933  137.9919  152.8205 H   0  0  0  0  0  0  0  0  0  0  0  0
  147.4196  139.1543  151.5031 H   0  0  0  0  0  0  0  0  0  0  0  0
  149.2595  140.3418  152.9333 H   0  0  0  0  0  0  0  0  0  0  0  0
  152.2997  140.5962  160.2618 H   0  0  0  0  0  0  0  0  0  0  0  0
  152.7359  143.4024  158.9608 H   0  0  0  0  0  0  0  0  0  0  0  0
  152.5393  143.0597  160.7575 H   0  0  0  0  0  0  0  0  0  0  0  0
  154.5774  141.5888  160.6978 H   0  0  0  0  0  0  0  0  0  0  0  0
  154.7763  141.9485  158.9056 H   0  0  0  0  0  0  0  0  0  0  0  0
  1  2  1  0  0  0  0
  1 18  1  0  0  0  0
  1 19  1  0  0  0  0
  1 20  1  0  0  0  0
  2  3  1  0  0  0  0
  3  4  1  0  0  0  0
  3 21  1  0  0  0  0
  3 22  1  0  0  0  0
  4  5  1  0  0  0  0
  4  6  1  0  0  0  0
  4 23  1  0  0  0  0
  5 24  1  0  0  0  0
  5 25  1  0  0  0  0
  5 26  1  0  0  0  0
  6  7  1  0  0  0  0
  6 27  1  0  0  0  0
  7  8  2  0  0  0  0
  7  9  1  0  0  0  0
  9 10  1  0  0  0  0
 10 17  1  0  0  0  0
 10 11  2  0  0  0  0
 11 12  1  0  0  0  0
 12 13  2  0  0  0  0
 13 14  1  0  0  0  0
 13 17  1  0  0  0  0
 14 16  1  0  0  0  0
 14 15  1  0  0  0  0
 14 28  1  0  0  0  0
 15 16  1  0  0  0  0
 15 29  1  0  0  0  0
 15 30  1  0  0  0  0
 16 31  1  0  0  0  0
 16 32  1  0  0  0  0
M  CHG  1   9  -1
M  END
> <s_m_source_file>
AV-unprocessed.smi

> <i_m_source_file_index>
1022

> <i_lp_mmshare_version>
43012

> <i_f3d_flags>
0

> <s_epik_input>
W0NIM11PW0NIMl1bQ0BIXShbQ0gzXSlbTkhdQyg9TylbTkhdYzFubmMoczEpW0NIXTJbQ0gyXVtDSDJdMg==

> <s_epik_cmdline>
J2VwaWtfcHl0aG9uJywgJy1waCcsICc3LjAnLCAnLXRuJywgJzgnLCAnLW1hJywgJzIwMCcsICctbWV0YWxfYmluZGluZycsICctaW1hZScsICc8aW5maWxlLm1hZT4nLCAnLW9tYWUnLCAnPG91dGZpbGUubWFlPic=

> <r_lp_tautomer_probability>
1

> <r_epik_Ionization_Penalty>
3.79487

> <r_epik_Ionization_Penalty_Charging>
3.64217

> <r_epik_Ionization_Penalty_Neutral>
0.152695

> <r_epik_State_Penalty>
3.6409

> <r_epik_Charging_Adjusted_Penalty>
7.28307

> <i_epik_Tot_Q>
-1

> <i_epik_Tot_abs_Q>
1

> <r_epik_Metal_State_Penalty>
0.534129

> <b_epik_Metal_Only>
1

> <s_lp_Force_Field>
OPLS_2005

> <r_lp_Energy>
0.506403

> <b_lp_Chiralities_Consistent>
1

> <s_lp_Variant>
AV-unprocessed.smi:1022-4

> <Gold.Version>
5.8.1

> <Gold.Id.Protein>
6NUR|6NUR_protein|mol2

> <Gold.PLP.Fitness>
39.9609

> <Gold.PLP.PLP>
-32.3332

> <Gold.PLP.part.hbond>
-3.8837

> <Gold.PLP.part.metal>
0.0000

> <Gold.PLP.part.buried>
-3.1173

> <Gold.PLP.part.nonpolar>
-25.0463

> <Gold.PLP.part.repulsive>
0.3585

> <Gold.PLP.ligand.clash>
0.0000

> <Gold.PLP.ligand.torsion>
0.5924

> <Gold.PLP.Chemscore.Hbond>
2.8640

> <Gold.PLP.Chemscore.CHOScore>
0.0000

> <Gold.PLP.Chemscore.Metal>
0.0000

> <Gold.Chemscore.Hbonds>
donor molecule, donor type, donor heavy atom, donor atom, acceptor molecule, acceptor atom, score
      L1  H     6    27       P1  7957  0.94
      P1  H  7989  7998       L1     9  1.00
      P1  H  7997  8010       L1    12  0.95

> <Gold.PLP.Chemscore.Internal.Correction>
0.2204

> <Gold.Rescore>
     Score         DG    S(hbond)    S(metal)    S(lipo)     H(rot)  DE(clash)    DE(int)     intcor
     15.38     -16.12       1.99        0.00      71.13       1.69       0.02       0.72       ----

> <Gold.Chemscore.Fitness>
15.3808

> <Gold.Chemscore.DG>
-16.1166

> <Gold.Chemscore.ZeroCoef>
-5.4800

> <Gold.Chemscore.Hbond>
1.9899

> <Gold.Chemscore.Metal>
0.0000

> <Gold.Chemscore.Lipo>
71.1284

> <Gold.Chemscore.Internal_Hbond>
0.0000

> <Gold.Chemscore.DEClash>
0.0155

> <Gold.Chemscore.DEInternal>
0.7203

> <Gold.Chemscore.Rot>
1.6921

> <Gold.Chemscore.Internal.Correction>
   9.000000E+99

> <Gold.Chemscore.Hbonds>
donor molecule, donor type, donor heavy atom, donor atom, acceptor molecule, acceptor atom, score
      L1  H     6    27       P1  7957  0.92
      P1  H  7989  7998       L1     9  0.60
      P1  H  7997  8010       L1    12  0.20

> <Gold.Chemscore.Hbond.Weighted>
-6.6463

> <Gold.Chemscore.Metal.Weighted>
-0.0000

> <Gold.Chemscore.Lipo.Weighted>
-8.3220

> <Gold.Chemscore.Internal_Hbond.Weighted>
0.0000

> <Gold.Chemscore.DEClash.Weighted>
0.0155

> <Gold.Chemscore.DEInternal.Weighted>
0.7203

> <Gold.Chemscore.Rot.Weighted>
4.3317

> <Gold.Chemscore.Internal.Correction.Weighted>
   9.000000E+99

> <Gold.Protein.RotatedTorsions>
[ 6907 6896 6895 6894 ] final  153.22 input  -60.11 | X-H torsion
[ 7974 7965 7964 7962 ] final  -50.83 input  175.53 | X-H torsion
[ 8008 7997 7996 7995 ] final   36.67 input   59.86 | X-H torsion
[ 10167 10162 10161 10158 ] final  128.54 input  -65.29 | X-H torsion
[ 10718 10713 10712 10709 ] final   76.73 input   66.30 | X-H torsion
[ 10763 10752 10751 10750 ] final  161.32 input  -60.55 | X-H torsion
[ 11005 11000 10999 10996 ] final   24.83 input  -57.11 | X-H torsion

> <Gold.Protein.ActiveResidues>
 VAL166  LYS551  ARG553  GLY616  TRP617  ASP618  TYR619  PRO620  LYS621  CYS622 
 ASP623  PHE694  ASN695  SER759  ASP760  ASP761  ALA762  ILE779  LEU786  VAL792 
 PHE793  MET794  SER795  GLU796  ALA797  LYS798  CYS799  TRP800  GLU811  SER814 

> <Gold.Protein.RotatedAtoms>
  152.0757  133.4128  159.4478 H   0  0  0  0  0  0  0  0  0  0  0  0  # atno 6907 bound_to 6896
  150.6863  134.3040  159.4727 H   0  0  0  0  0  0  0  0  0  0  0  0  # atno 6908 bound_to 6896
  152.0876  134.9428  160.0623 H   0  0  0  0  0  0  0  0  0  0  0  0  # atno 6909 bound_to 6896
  145.9256  140.7795  142.9625 H   0  0  0  0  0  0  0  0  0  0  0  0  # atno 7974 bound_to 7965
  155.1912  140.3308  155.4358 H   0  0  0  0  0  0  0  0  0  0  0  0  # atno 8008 bound_to 7997
  156.2441  140.1910  156.6955 H   0  0  0  0  0  0  0  0  0  0  0  0  # atno 8009 bound_to 7997
  154.6205  140.0596  156.9594 H   0  0  0  0  0  0  0  0  0  0  0  0  # atno 8010 bound_to 7997
  139.5522  144.6822  151.4289 H   0  0  0  0  0  0  0  0  0  0  0  0  # atno 10167 bound_to 10162
  157.6684  130.9788  150.1539 H   0  0  0  0  0  0  0  0  0  0  0  0  # atno 10718 bound_to 10713
  154.2612  135.2768  155.2777 H   0  0  0  0  0  0  0  0  0  0  0  0  # atno 10763 bound_to 10752
  154.5382  135.5710  153.6820 H   0  0  0  0  0  0  0  0  0  0  0  0  # atno 10764 bound_to 10752
  152.9962  135.6244  154.2762 H   0  0  0  0  0  0  0  0  0  0  0  0  # atno 10765 bound_to 10752
  140.3544  134.2193  155.7677 H   0  0  0  0  0  0  0  0  0  0  0  0  # atno 11005 bound_to 11000
  144.6758  140.2045  143.7383 LP  0  0  0  0  0  0  0  0  0  0  0  0  # atno 17320 bound_to 7965
  145.8493  139.2167  143.1781 LP  0  0  0  0  0  0  0  0  0  0  0  0  # atno 17321 bound_to 7965
  140.6787  143.8131  150.7093 LP  0  0  0  0  0  0  0  0  0  0  0  0  # atno 17342 bound_to 10162
  140.1577  143.4302  152.2088 LP  0  0  0  0  0  0  0  0  0  0  0  0  # atno 17343 bound_to 10162
  156.2331  130.3684  149.8422 LP  0  0  0  0  0  0  0  0  0  0  0  0  # atno 17370 bound_to 10713
  156.6243  130.8639  151.3482 LP  0  0  0  0  0  0  0  0  0  0  0  0  # atno 17371 bound_to 10713
  141.2002  133.7992  157.0498 LP  0  0  0  0  0  0  0  0  0  0  0  0  # atno 17394 bound_to 11000
  140.0677  134.9720  157.1413 LP  0  0  0  0  0  0  0  0  0  0  0  0  # atno 17395 bound_to 11000

$$$$
