AV-unprocessed.smi:3133|AV-procd|sdf|11940|dock10
  -GOLD-   2272017333D 1   1.00000     0.00000
 Structure written by MMmdl.
 32 33  0  0  0  0  0  0  0  0  1 V2000
  149.0068  140.4996  154.8642 C   0  0  0  0  0  0  0  0  0  0  0  0
  150.4274  140.6345  155.4494 C   0  0  1  0  0  0  0  0  0  0  0  0
  150.4181  140.7916  156.9775 C   0  0  0  0  0  0  0  0  0  0  0  0
  149.3813  140.6178  157.6191 O   0  0  0  0  0  0  0  0  0  0  0  0
  151.5881  141.1166  157.5495 N   0  0  0  0  0  0  0  0  0  0  0  0
  151.8007  141.3013  158.9803 C   0  0  0  0  0  0  0  0  0  0  0  0
  152.4354  142.6671  159.2906 C   0  0  1  0  0  0  0  0  0  0  0  0
  151.9358  143.7957  158.3936 C   0  0  0  0  0  0  0  0  0  0  0  0
  152.2822  145.0126  159.2220 C   0  0  0  0  0  0  0  0  0  0  0  0
  152.0244  144.5235  160.6471 C   0  0  0  0  0  0  0  0  0  0  0  0
  152.0941  143.0994  160.6036 O   0  0  0  0  0  0  0  0  0  0  0  0
  151.2948  139.5269  155.0659 N   0  0  0  0  0  0  0  0  0  0  0  0
  150.9939  138.3704  154.4708 C   0  0  0  0  0  0  0  0  0  0  0  0
  152.0454  137.6032  154.2197 N   0  0  0  0  0  0  0  0  0  0  0  0
  153.0358  138.4079  154.7071 C   0  0  0  0  0  0  0  0  0  0  0  0
  152.6426  139.5759  155.2141 N   0  0  0  0  0  0  0  0  0  0  0  0
  148.3930  141.3634  155.1217 H   0  0  0  0  0  0  0  0  0  0  0  0
  148.4927  139.6102  155.2308 H   0  0  0  0  0  0  0  0  0  0  0  0
  149.0401  140.4359  153.7763 H   0  0  0  0  0  0  0  0  0  0  0  0
  150.8631  141.5409  155.0250 H   0  0  0  0  0  0  0  0  0  0  0  0
  152.3902  141.2486  156.9508 H   0  0  0  0  0  0  0  0  0  0  0  0
  150.8518  141.1965  159.5091 H   0  0  0  0  0  0  0  0  0  0  0  0
  152.4446  140.4978  159.3389 H   0  0  0  0  0  0  0  0  0  0  0  0
  153.5232  142.6127  159.2197 H   0  0  0  0  0  0  0  0  0  0  0  0
  152.4060  143.7987  157.4097 H   0  0  0  0  0  0  0  0  0  0  0  0
  150.8551  143.7314  158.2583 H   0  0  0  0  0  0  0  0  0  0  0  0
  153.3375  145.2590  159.0957 H   0  0  0  0  0  0  0  0  0  0  0  0
  151.6936  145.8920  158.9599 H   0  0  0  0  0  0  0  0  0  0  0  0
  152.7490  144.9306  161.3526 H   0  0  0  0  0  0  0  0  0  0  0  0
  151.0279  144.8127  160.9818 H   0  0  0  0  0  0  0  0  0  0  0  0
  149.9846  138.0859  154.2118 H   0  0  0  0  0  0  0  0  0  0  0  0
  154.0786  138.1273  154.6810 H   0  0  0  0  0  0  0  0  0  0  0  0
  1  2  1  0  0  0  0
  1 17  1  0  0  0  0
  1 18  1  0  0  0  0
  1 19  1  0  0  0  0
  2  3  1  0  0  0  0
  2 12  1  0  0  0  0
  2 20  1  0  0  0  0
  3  4  2  0  0  0  0
  3  5  1  0  0  0  0
  5  6  1  0  0  0  0
  5 21  1  0  0  0  0
  6  7  1  0  0  0  0
  6 22  1  0  0  0  0
  6 23  1  0  0  0  0
  7 11  1  0  0  0  0
  7  8  1  0  0  0  0
  7 24  1  0  0  0  0
  8  9  1  0  0  0  0
  8 25  1  0  0  0  0
  8 26  1  0  0  0  0
  9 10  1  0  0  0  0
  9 27  1  0  0  0  0
  9 28  1  0  0  0  0
 10 11  1  0  0  0  0
 10 29  1  0  0  0  0
 10 30  1  0  0  0  0
 12 16  1  0  0  0  0
 12 13  1  0  0  0  0
 13 14  2  0  0  0  0
 13 31  1  0  0  0  0
 14 15  1  0  0  0  0
 15 16  2  0  0  0  0
 15 32  1  0  0  0  0
M  END
> <s_m_source_file>
AV-unprocessed.smi

> <i_m_source_file_index>
3133

> <i_lp_mmshare_version>
43012

> <i_f3d_flags>
0

> <s_epik_input>
bjFbY0hdbltjSF1uMVtDQEhdKFtDSDNdKUMoPU8pW05IXVtDSDJdW0NAQEhdMltDSDJdW0NIMl1bQ0gyXU8y

> <s_epik_cmdline>
J2VwaWtfcHl0aG9uJywgJy1waCcsICc3LjAnLCAnLXRuJywgJzgnLCAnLW1hJywgJzIwMCcsICctbWV0YWxfYmluZGluZycsICctaW1hZScsICc8aW5maWxlLm1hZT4nLCAnLW9tYWUnLCAnPG91dGZpbGUubWFlPic=

> <r_lp_tautomer_probability>
1

> <r_epik_Ionization_Penalty>
1.2027e-05

> <r_epik_Ionization_Penalty_Charging>
0

> <r_epik_Ionization_Penalty_Neutral>
1.2027e-05

> <r_epik_State_Penalty>
-0

> <r_epik_Charging_Adjusted_Penalty>
0

> <i_epik_Tot_Q>
0

> <i_epik_Tot_abs_Q>
0

> <r_epik_Metal_State_Penalty>
-0

> <b_epik_Metal_Only>
0

> <s_lp_Force_Field>
OPLS_2005

> <r_lp_Energy>
22.8462

> <b_lp_Chiralities_Consistent>
1

> <s_lp_Variant>
AV-unprocessed.smi:3133-4

> <Gold.Version>
5.8.1

> <Gold.Id.Protein>
6NUR|6NUR_protein|mol2

> <Gold.PLP.Fitness>
42.3481

> <Gold.PLP.PLP>
-38.0285

> <Gold.PLP.part.hbond>
-2.7413

> <Gold.PLP.part.metal>
0.0000

> <Gold.PLP.part.buried>
-3.4751

> <Gold.PLP.part.nonpolar>
-32.8538

> <Gold.PLP.part.repulsive>
0.3019

> <Gold.PLP.ligand.clash>
0.0000

> <Gold.PLP.ligand.torsion>
0.5917

> <Gold.PLP.Chemscore.Hbond>
1.8000

> <Gold.PLP.Chemscore.CHOScore>
0.0000

> <Gold.PLP.Chemscore.Metal>
0.0000

> <Gold.Chemscore.Hbonds>
donor molecule, donor type, donor heavy atom, donor atom, acceptor molecule, acceptor atom, score
      P1  H  7997  8010       L1    16  0.95
      P1  H 10752 10763       L1    14  0.66

> <Gold.PLP.Chemscore.Internal.Correction>
0.1030

> <Gold.Rescore>
     Score         DG    S(hbond)    S(metal)    S(lipo)     H(rot)  DE(clash)    DE(int)     intcor
     10.54     -11.59       1.06        0.00      71.35       2.26       0.18       0.86       ----

> <Gold.Chemscore.Fitness>
10.5450

> <Gold.Chemscore.DG>
-11.5859

> <Gold.Chemscore.ZeroCoef>
-5.4800

> <Gold.Chemscore.Hbond>
1.0578

> <Gold.Chemscore.Metal>
0.0000

> <Gold.Chemscore.Lipo>
71.3484

> <Gold.Chemscore.Internal_Hbond>
0.0000

> <Gold.Chemscore.DEClash>
0.1842

> <Gold.Chemscore.DEInternal>
0.8568

> <Gold.Chemscore.Rot>
2.2558

> <Gold.Chemscore.Internal.Correction>
   9.000000E+99

> <Gold.Chemscore.Hbonds>
donor molecule, donor type, donor heavy atom, donor atom, acceptor molecule, acceptor atom, score
      P1  H  7997  8010       L1    16  0.20
      P1  H 10752 10763       L1    14  0.22

> <Gold.Chemscore.Hbond.Weighted>
-3.5329

> <Gold.Chemscore.Metal.Weighted>
-0.0000

> <Gold.Chemscore.Lipo.Weighted>
-8.3478

> <Gold.Chemscore.Internal_Hbond.Weighted>
0.0000

> <Gold.Chemscore.DEClash.Weighted>
0.1842

> <Gold.Chemscore.DEInternal.Weighted>
0.8568

> <Gold.Chemscore.Rot.Weighted>
5.7747

> <Gold.Chemscore.Internal.Correction.Weighted>
   9.000000E+99

> <Gold.Protein.RotatedTorsions>
[ 6907 6896 6895 6894 ] final   67.59 input  -60.11 | X-H torsion
[ 7974 7965 7964 7962 ] final  109.77 input  175.53 | X-H torsion
[ 8008 7997 7996 7995 ] final   93.11 input   59.86 | X-H torsion
[ 10167 10162 10161 10158 ] final -111.50 input  -65.29 | X-H torsion
[ 10718 10713 10712 10709 ] final -127.41 input   66.30 | X-H torsion
[ 10763 10752 10751 10750 ] final   34.59 input  -60.55 | X-H torsion
[ 11005 11000 10999 10996 ] final   77.76 input  -57.11 | X-H torsion

> <Gold.Protein.ActiveResidues>
 VAL166  LYS551  ARG553  GLY616  TRP617  ASP618  TYR619  PRO620  LYS621  CYS622 
 ASP623  PHE694  ASN695  SER759  ASP760  ASP761  ALA762  ILE779  LEU786  VAL792 
 PHE793  MET794  SER795  GLU796  ALA797  LYS798  CYS799  TRP800  GLU811  SER814 

> <Gold.Protein.RotatedAtoms>
  152.4562  134.5285  159.9803 H   0  0  0  0  0  0  0  0  0  0  0  0  # atno 6907 bound_to 6896
  151.5345  133.3437  159.2932 H   0  0  0  0  0  0  0  0  0  0  0  0  # atno 6908 bound_to 6896
  150.8508  134.7862  159.7070 H   0  0  0  0  0  0  0  0  0  0  0  0  # atno 6909 bound_to 6896
  145.2636  139.2693  143.4004 H   0  0  0  0  0  0  0  0  0  0  0  0  # atno 7974 bound_to 7965
  156.0431  140.3317  155.7266 H   0  0  0  0  0  0  0  0  0  0  0  0  # atno 8008 bound_to 7997
  155.5715  140.0628  157.2823 H   0  0  0  0  0  0  0  0  0  0  0  0  # atno 8009 bound_to 7997
  154.4402  140.1860  156.0872 H   0  0  0  0  0  0  0  0  0  0  0  0  # atno 8010 bound_to 7997
  140.1329  143.4345  152.1615 H   0  0  0  0  0  0  0  0  0  0  0  0  # atno 10167 bound_to 10162
  156.1855  130.6760  151.0359 H   0  0  0  0  0  0  0  0  0  0  0  0  # atno 10718 bound_to 10713
  153.0157  135.6356  154.1693 H   0  0  0  0  0  0  0  0  0  0  0  0  # atno 10763 bound_to 10752
  154.1432  135.2833  155.3157 H   0  0  0  0  0  0  0  0  0  0  0  0  # atno 10764 bound_to 10752
  154.6108  135.5557  153.7533 H   0  0  0  0  0  0  0  0  0  0  0  0  # atno 10765 bound_to 10752
  139.9241  134.7709  156.1563 H   0  0  0  0  0  0  0  0  0  0  0  0  # atno 11005 bound_to 11000
  146.3268  140.3059  142.8623 LP  0  0  0  0  0  0  0  0  0  0  0  0  # atno 17320 bound_to 7965
  144.9397  140.8065  143.5638 LP  0  0  0  0  0  0  0  0  0  0  0  0  # atno 17321 bound_to 7965
  139.5510  144.7338  151.4434 LP  0  0  0  0  0  0  0  0  0  0  0  0  # atno 17342 bound_to 10162
  140.6806  143.8090  150.7117 LP  0  0  0  0  0  0  0  0  0  0  0  0  # atno 17343 bound_to 10162
  157.6896  131.0814  150.7146 LP  0  0  0  0  0  0  0  0  0  0  0  0  # atno 17370 bound_to 10713
  156.7203  130.4678  149.5524 LP  0  0  0  0  0  0  0  0  0  0  0  0  # atno 17371 bound_to 10713
  141.0784  133.6765  156.2285 LP  0  0  0  0  0  0  0  0  0  0  0  0  # atno 17394 bound_to 11000
  140.6389  134.5187  157.5567 LP  0  0  0  0  0  0  0  0  0  0  0  0  # atno 17395 bound_to 11000

$$$$
