AV-unprocessed.smi:1666|AV-procd|sdf|6671|dock3
  -GOLD-   22720 7383D 1   1.00000     0.00000
 Structure written by MMmdl.
 39 40  0  0  0  0  0  0  0  0  1 V2000
  147.8525  132.9633  152.2749 C   0  0  0  0  0  0  0  0  0  0  0  0
  146.5046  133.0060  151.5734 C   0  0  0  0  0  0  0  0  0  0  0  0
  146.0134  131.8388  150.9509 C   0  0  0  0  0  0  0  0  0  0  0  0
  144.7678  131.8803  150.3013 C   0  0  0  0  0  0  0  0  0  0  0  0
  144.0620  133.0955  150.3016 C   0  0  0  0  0  0  0  0  0  0  0  0
  144.5244  134.2157  150.8934 N   0  0  0  0  0  0  0  0  0  0  0  0
  145.7252  134.1930  151.5245 C   0  0  0  0  0  0  0  0  0  0  0  0
  146.2747  135.3355  152.1718 N   0  0  0  0  0  0  0  0  0  0  0  0
  145.6928  136.1487  153.0708 C   0  0  0  0  0  0  0  0  0  0  0  0
  144.5450  136.0297  153.5007 O   0  0  0  0  0  0  0  0  0  0  0  0
  146.5266  137.1310  153.4433 N   0  0  0  0  0  0  0  0  0  0  0  0
  146.1931  138.2238  154.3521 C   0  0  0  0  0  0  0  0  0  0  0  0
  147.0373  139.4780  154.0547 C   0  0  0  0  0  0  0  0  0  0  0  0
  148.3073  139.5689  154.7751 N   0  0  0  0  0  0  0  0  0  0  0  0
  149.3269  138.6706  154.2379 C   0  0  0  0  0  0  0  0  0  0  0  0
  150.6530  138.7885  155.0087 C   0  0  0  0  0  0  0  0  0  0  0  0
  151.1030  140.1394  154.9827 O   0  0  0  0  0  0  0  0  0  0  0  0
  150.1527  141.0451  155.5344 C   0  0  0  0  0  0  0  0  0  0  0  0
  148.8255  140.9318  154.7644 C   0  0  0  0  0  0  0  0  0  0  0  0
  148.2984  131.9699  152.2186 H   0  0  0  0  0  0  0  0  0  0  0  0
  147.7437  133.2223  153.3284 H   0  0  0  0  0  0  0  0  0  0  0  0
  148.5446  133.6685  151.8139 H   0  0  0  0  0  0  0  0  0  0  0  0
  146.5819  130.9207  150.9690 H   0  0  0  0  0  0  0  0  0  0  0  0
  144.3639  131.0042  149.8159 H   0  0  0  0  0  0  0  0  0  0  0  0
  143.1012  133.1711  149.8145 H   0  0  0  0  0  0  0  0  0  0  0  0
  147.2198  135.5682  151.9059 H   0  0  0  0  0  0  0  0  0  0  0  0
  147.4514  137.1462  153.0394 H   0  0  0  0  0  0  0  0  0  0  0  0
  145.1255  138.4464  154.3410 H   0  0  0  0  0  0  0  0  0  0  0  0
  146.4107  137.8829  155.3644 H   0  0  0  0  0  0  0  0  0  0  0  0
  147.2232  139.5386  152.9814 H   0  0  0  0  0  0  0  0  0  0  0  0
  146.4286  140.3502  154.2980 H   0  0  0  0  0  0  0  0  0  0  0  0
  148.9880  137.6369  154.2848 H   0  0  0  0  0  0  0  0  0  0  0  0
  149.5001  138.8946  153.1843 H   0  0  0  0  0  0  0  0  0  0  0  0
  150.5286  138.4587  156.0414 H   0  0  0  0  0  0  0  0  0  0  0  0
  151.4123  138.1498  154.5573 H   0  0  0  0  0  0  0  0  0  0  0  0
  150.0041  140.8271  156.5932 H   0  0  0  0  0  0  0  0  0  0  0  0
  150.5453  142.0599  155.4679 H   0  0  0  0  0  0  0  0  0  0  0  0
  148.9751  141.2629  153.7356 H   0  0  0  0  0  0  0  0  0  0  0  0
  148.0947  141.6094  155.2068 H   0  0  0  0  0  0  0  0  0  0  0  0
  1  2  1  0  0  0  0
  1 20  1  0  0  0  0
  1 21  1  0  0  0  0
  1 22  1  0  0  0  0
  2  7  1  0  0  0  0
  2  3  2  0  0  0  0
  3  4  1  0  0  0  0
  3 23  1  0  0  0  0
  4  5  2  0  0  0  0
  4 24  1  0  0  0  0
  5  6  1  0  0  0  0
  5 25  1  0  0  0  0
  6  7  2  0  0  0  0
  7  8  1  0  0  0  0
  8  9  1  0  0  0  0
  8 26  1  0  0  0  0
  9 10  2  0  0  0  0
  9 11  1  0  0  0  0
 11 12  1  0  0  0  0
 11 27  1  0  0  0  0
 12 13  1  0  0  0  0
 12 28  1  0  0  0  0
 12 29  1  0  0  0  0
 13 14  1  0  0  0  0
 13 30  1  0  0  0  0
 13 31  1  0  0  0  0
 14 19  1  0  0  0  0
 14 15  1  0  0  0  0
 15 16  1  0  0  0  0
 15 32  1  0  0  0  0
 15 33  1  0  0  0  0
 16 17  1  0  0  0  0
 16 34  1  0  0  0  0
 16 35  1  0  0  0  0
 17 18  1  0  0  0  0
 18 19  1  0  0  0  0
 18 36  1  0  0  0  0
 18 37  1  0  0  0  0
 19 38  1  0  0  0  0
 19 39  1  0  0  0  0
M  END
> <s_m_source_file>
AV-unprocessed.smi

> <i_m_source_file_index>
1666

> <i_lp_mmshare_version>
43012

> <i_f3d_flags>
0

> <s_epik_input>
W0NIM11jMVtjSF1bY0hdW2NIXW5jMVtOSF1DKD1PKVtOSF1bQ0gyXVtDSDJdTjJbQ0gyXVtDSDJdT1tDSDJdW0NIMl0y

> <s_epik_cmdline>
J2VwaWtfcHl0aG9uJywgJy1waCcsICc3LjAnLCAnLXRuJywgJzgnLCAnLW1hJywgJzIwMCcsICctbWV0YWxfYmluZGluZycsICctaW1hZScsICc8aW5maWxlLm1hZT4nLCAnLW9tYWUnLCAnPG91dGZpbGUubWFlPic=

> <r_epik_Ionization_Penalty>
0.266047

> <r_epik_Ionization_Penalty_Charging>
0

> <r_epik_Ionization_Penalty_Neutral>
0.266047

> <r_epik_State_Penalty>
0.257924

> <r_epik_Charging_Adjusted_Penalty>
0.257924

> <i_epik_Tot_Q>
0

> <i_epik_Tot_abs_Q>
0

> <r_epik_Metal_State_Penalty>
0.257922

> <b_epik_Metal_Only>
0

> <s_lp_Force_Field>
OPLS_2005

> <r_lp_Energy>
28.1058

> <b_lp_Chiralities_Consistent>
1

> <s_lp_Variant>
AV-unprocessed.smi:1666-1

> <Gold.Version>
5.8.1

> <Gold.Id.Protein>
6NUR|6NUR_protein|mol2

> <Gold.PLP.Fitness>
44.0324

> <Gold.PLP.PLP>
-33.9500

> <Gold.PLP.part.hbond>
-3.0000

> <Gold.PLP.part.metal>
0.0000

> <Gold.PLP.part.buried>
-5.3544

> <Gold.PLP.part.nonpolar>
-27.1284

> <Gold.PLP.part.repulsive>
0.5545

> <Gold.PLP.ligand.clash>
0.0000

> <Gold.PLP.ligand.torsion>
0.9522

> <Gold.PLP.Chemscore.Hbond>
2.9833

> <Gold.PLP.Chemscore.CHOScore>
1.0000

> <Gold.PLP.Chemscore.Metal>
0.0000

> <Gold.Chemscore.Hbonds>
donor molecule, donor type, donor heavy atom, donor atom, acceptor molecule, acceptor atom, score
      L1  H     8    26       P1  7948  1.00
      L1  H    11    27       P1  7948  0.80
      P1  H  7989  7998       L1    17  1.00
      L1  C     5    25       P1 10186  1.00

> <Gold.PLP.Chemscore.Internal.Correction>
0.0370

> <Gold.Rescore>
     Score         DG    S(hbond)    S(metal)    S(lipo)     H(rot)  DE(clash)    DE(int)     intcor
     17.76     -19.01       2.42        0.00      79.18       1.49       0.36       0.89       ----

> <Gold.Chemscore.Fitness>
17.7611

> <Gold.Chemscore.DG>
-19.0091

> <Gold.Chemscore.ZeroCoef>
-5.4800

> <Gold.Chemscore.Hbond>
2.4177

> <Gold.Chemscore.Metal>
0.0000

> <Gold.Chemscore.Lipo>
79.1816

> <Gold.Chemscore.Internal_Hbond>
0.0000

> <Gold.Chemscore.DEClash>
0.3564

> <Gold.Chemscore.DEInternal>
0.8916

> <Gold.Chemscore.Rot>
1.4884

> <Gold.Chemscore.Internal.Correction>
   9.000000E+99

> <Gold.Chemscore.Hbonds>
donor molecule, donor type, donor heavy atom, donor atom, acceptor molecule, acceptor atom, score
      L1  H     8    26       P1  7948  1.00
      L1  H    11    27       P1  7948  0.74
      P1  H  7989  7998       L1    17  0.54

> <Gold.Chemscore.Hbond.Weighted>
-8.0751

> <Gold.Chemscore.Metal.Weighted>
-0.0000

> <Gold.Chemscore.Lipo.Weighted>
-9.2643

> <Gold.Chemscore.Internal_Hbond.Weighted>
0.0000

> <Gold.Chemscore.DEClash.Weighted>
0.3564

> <Gold.Chemscore.DEInternal.Weighted>
0.8916

> <Gold.Chemscore.Rot.Weighted>
3.8103

> <Gold.Chemscore.Internal.Correction.Weighted>
   9.000000E+99

> <Gold.Protein.RotatedTorsions>
[ 6907 6896 6895 6894 ] final -118.97 input  -60.11 | X-H torsion
[ 7974 7965 7964 7962 ] final -133.81 input  175.53 | X-H torsion
[ 8008 7997 7996 7995 ] final -111.31 input   59.86 | X-H torsion
[ 10167 10162 10161 10158 ] final  172.84 input  -65.29 | X-H torsion
[ 10718 10713 10712 10709 ] final  -13.99 input   66.30 | X-H torsion
[ 10763 10752 10751 10750 ] final  136.47 input  -60.55 | X-H torsion
[ 11005 11000 10999 10996 ] final  -18.69 input  -57.11 | X-H torsion

> <Gold.Protein.ActiveResidues>
 VAL166  LYS551  ARG553  GLY616  TRP617  ASP618  TYR619  PRO620  LYS621  CYS622 
 ASP623  PHE694  ASN695  SER759  ASP760  ASP761  ALA762  ILE779  LEU786  VAL792 
 PHE793  MET794  SER795  GLU796  ALA797  LYS798  CYS799  TRP800  GLU811  SER814 

> <Gold.Protein.RotatedAtoms>
  150.8265  133.8163  159.3116 H   0  0  0  0  0  0  0  0  0  0  0  0  # atno 6907 bound_to 6896
  151.5906  135.1052  160.0047 H   0  0  0  0  0  0  0  0  0  0  0  0  # atno 6908 bound_to 6896
  152.4349  133.7302  159.6639 H   0  0  0  0  0  0  0  0  0  0  0  0  # atno 6909 bound_to 6896
  144.9159  140.6954  143.4996 H   0  0  0  0  0  0  0  0  0  0  0  0  # atno 7974 bound_to 7965
  154.9879  140.0395  157.2306 H   0  0  0  0  0  0  0  0  0  0  0  0  # atno 8008 bound_to 7997
  154.7655  140.2792  155.6157 H   0  0  0  0  0  0  0  0  0  0  0  0  # atno 8009 bound_to 7997
  156.2912  140.2620  156.2444 H   0  0  0  0  0  0  0  0  0  0  0  0  # atno 8010 bound_to 7997
  139.5089  144.3328  152.0094 H   0  0  0  0  0  0  0  0  0  0  0  0  # atno 10167 bound_to 10162
  156.6224  130.4879  149.6159 H   0  0  0  0  0  0  0  0  0  0  0  0  # atno 10718 bound_to 10713
  153.8571  135.3072  155.3436 H   0  0  0  0  0  0  0  0  0  0  0  0  # atno 10763 bound_to 10752
  154.7865  135.4806  153.9961 H   0  0  0  0  0  0  0  0  0  0  0  0  # atno 10764 bound_to 10752
  153.1483  135.6838  153.9014 H   0  0  0  0  0  0  0  0  0  0  0  0  # atno 10765 bound_to 10752
  140.8293  133.8009  155.9741 H   0  0  0  0  0  0  0  0  0  0  0  0  # atno 11005 bound_to 11000
  145.3376  139.1741  143.4503 LP  0  0  0  0  0  0  0  0  0  0  0  0  # atno 17320 bound_to 7965
  146.3181  140.3413  142.8648 LP  0  0  0  0  0  0  0  0  0  0  0  0  # atno 17321 bound_to 7965
  140.2768  144.3904  150.6132 LP  0  0  0  0  0  0  0  0  0  0  0  0  # atno 17342 bound_to 10162
  140.6048  143.2167  151.7002 LP  0  0  0  0  0  0  0  0  0  0  0  0  # atno 17343 bound_to 10162
  156.2301  130.6789  151.1455 LP  0  0  0  0  0  0  0  0  0  0  0  0  # atno 17370 bound_to 10713
  157.7224  131.0673  150.6080 LP  0  0  0  0  0  0  0  0  0  0  0  0  # atno 17371 bound_to 10713
  140.9015  134.2372  157.5039 LP  0  0  0  0  0  0  0  0  0  0  0  0  # atno 17394 bound_to 11000
  139.8705  134.9709  156.4717 LP  0  0  0  0  0  0  0  0  0  0  0  0  # atno 17395 bound_to 11000

$$$$
