AV-unprocessed.smi:806|AV-procd|sdf|3800|dock2
  -GOLD-   22720 1233D 1   1.00000     0.00000
 Structure written by MMmdl.
 45 46  0  0  0  0  0  0  0  0  2 V2000
  148.1955  138.7241  156.5310 C   0  0  0  0  0  0  0  0  0  0  0  0
  149.0481  139.6689  155.7842 N   0  0  0  0  0  0  0  0  0  0  0  0
  148.7423  140.0558  154.5116 C   0  0  0  0  0  0  0  0  0  0  0  0
  149.4344  140.8589  153.8837 O   0  0  0  0  0  0  0  0  0  0  0  0
  147.4964  139.4825  153.8070 C   0  0  0  0  0  0  0  0  0  0  0  0
  147.7970  138.8672  152.4955 N   0  3  0  0  0  0  0  0  0  0  0  0
  146.6126  138.4413  151.7185 C   0  0  0  0  0  0  0  0  0  0  0  0
  145.6930  137.5402  152.5584 C   0  0  0  0  0  0  0  0  0  0  0  0
  145.6712  136.1733  152.0683 N   0  0  0  0  0  0  0  0  0  0  0  0
  145.2388  135.7063  150.8446 C   0  0  0  0  0  0  0  0  0  0  0  0
  145.4013  134.3507  150.8469 C   0  0  0  0  0  0  0  0  0  0  0  0
  145.9561  134.0783  152.1284 C   0  0  0  0  0  0  0  0  0  0  0  0
  146.1193  135.1719  152.8554 N   0  0  0  0  0  0  0  0  0  0  0  0
  150.2535  140.2089  156.4931 C   0  0  0  0  0  0  0  0  0  0  0  0
  151.4683  140.0220  155.6677 C   0  0  0  0  0  0  0  0  0  0  0  0
  152.4191  139.8760  155.0236 N   0  0  0  0  0  0  0  0  0  0  0  0
  150.0328  141.7196  156.7910 C   0  0  0  0  0  0  0  0  0  0  0  0
  151.2129  142.3643  157.5403 C   0  0  0  0  0  0  0  0  0  0  0  0
  151.5108  141.6271  158.8523 C   0  0  0  0  0  0  0  0  0  0  0  0
  151.7379  140.1300  158.6061 C   0  0  0  0  0  0  0  0  0  0  0  0
  150.5434  139.5098  157.8582 C   0  0  0  0  0  0  0  0  0  0  0  0
  147.3112  138.3623  156.0120 H   0  0  0  0  0  0  0  0  0  0  0  0
  147.8251  139.1946  157.4418 H   0  0  0  0  0  0  0  0  0  0  0  0
  148.7567  137.8307  156.8038 H   0  0  0  0  0  0  0  0  0  0  0  0
  147.0769  138.6975  154.4369 H   0  0  0  0  0  0  0  0  0  0  0  0
  146.7341  140.2521  153.6785 H   0  0  0  0  0  0  0  0  0  0  0  0
  148.3170  139.5405  151.9500 H   0  0  0  0  0  0  0  0  0  0  0  0
  146.0674  139.3269  151.3909 H   0  0  0  0  0  0  0  0  0  0  0  0
  146.9228  137.9142  150.8153 H   0  0  0  0  0  0  0  0  0  0  0  0
  146.0122  137.5364  153.6014 H   0  0  0  0  0  0  0  0  0  0  0  0
  144.6726  137.9257  152.5428 H   0  0  0  0  0  0  0  0  0  0  0  0
  144.8505  136.3678  150.0840 H   0  0  0  0  0  0  0  0  0  0  0  0
  145.1626  133.6583  150.0532 H   0  0  0  0  0  0  0  0  0  0  0  0
  146.2438  133.1260  152.5490 H   0  0  0  0  0  0  0  0  0  0  0  0
  149.8690  142.2824  155.8727 H   0  0  0  0  0  0  0  0  0  0  0  0
  149.1248  141.8436  157.3829 H   0  0  0  0  0  0  0  0  0  0  0  0
  152.1008  142.3628  156.9073 H   0  0  0  0  0  0  0  0  0  0  0  0
  150.9896  143.4109  157.7492 H   0  0  0  0  0  0  0  0  0  0  0  0
  152.3859  142.0633  159.3351 H   0  0  0  0  0  0  0  0  0  0  0  0
  150.6775  141.7612  159.5432 H   0  0  0  0  0  0  0  0  0  0  0  0
  152.6587  139.9837  158.0405 H   0  0  0  0  0  0  0  0  0  0  0  0
  151.8824  139.6189  159.5583 H   0  0  0  0  0  0  0  0  0  0  0  0
  149.6842  139.5736  158.5254 H   0  0  0  0  0  0  0  0  0  0  0  0
  150.7453  138.4491  157.7035 H   0  0  0  0  0  0  0  0  0  0  0  0
  148.3776  138.0548  152.6456 H   0  0  0  0  0  0  0  0  0  0  0  0
  1  2  1  0  0  0  0
  1 22  1  0  0  0  0
  1 23  1  0  0  0  0
  1 24  1  0  0  0  0
  2  3  1  0  0  0  0
  2 14  1  0  0  0  0
  3  4  2  0  0  0  0
  3  5  1  0  0  0  0
  5  6  1  0  0  0  0
  5 25  1  0  0  0  0
  5 26  1  0  0  0  0
  6  7  1  0  0  0  0
  6 27  1  0  0  0  0
  6 45  1  0  0  0  0
  7  8  1  0  0  0  0
  7 28  1  0  0  0  0
  7 29  1  0  0  0  0
  8  9  1  0  0  0  0
  8 30  1  0  0  0  0
  8 31  1  0  0  0  0
  9 13  1  0  0  0  0
  9 10  1  0  0  0  0
 10 11  2  0  0  0  0
 10 32  1  0  0  0  0
 11 12  1  0  0  0  0
 11 33  1  0  0  0  0
 12 13  2  0  0  0  0
 12 34  1  0  0  0  0
 14 21  1  0  0  0  0
 14 15  1  0  0  0  0
 14 17  1  0  0  0  0
 15 16  3  0  0  0  0
 17 18  1  0  0  0  0
 17 35  1  0  0  0  0
 17 36  1  0  0  0  0
 18 19  1  0  0  0  0
 18 37  1  0  0  0  0
 18 38  1  0  0  0  0
 19 20  1  0  0  0  0
 19 39  1  0  0  0  0
 19 40  1  0  0  0  0
 20 21  1  0  0  0  0
 20 41  1  0  0  0  0
 20 42  1  0  0  0  0
 21 43  1  0  0  0  0
 21 44  1  0  0  0  0
M  CHG  1   6   1
M  END
> <s_m_source_file>
AV-unprocessed.smi

> <i_m_source_file_index>
806

> <i_lp_mmshare_version>
43012

> <i_f3d_flags>
0

> <s_epik_input>
W0NIMl0xW0NIMl1bQ0gyXVtDSDJdW0NIMl1DMShDI04pTihbQ0gzXSlDKD1PKVtDSDJdW05IXVtDSDJdW0NIMl1uMltjSF1bY0hdW2NIXW4y

> <s_epik_cmdline>
J2VwaWtfcHl0aG9uJywgJy1waCcsICc3LjAnLCAnLXRuJywgJzgnLCAnLW1hJywgJzIwMCcsICctbWV0YWxfYmluZGluZycsICctaW1hZScsICc8aW5maWxlLm1hZT4nLCAnLW9tYWUnLCAnPG91dGZpbGUubWFlPic=

> <r_lp_tautomer_probability>
1

> <r_epik_Ionization_Penalty>
0.349033

> <r_epik_Ionization_Penalty_Charging>
0.349031

> <r_epik_Ionization_Penalty_Neutral>
2.24604e-06

> <r_epik_State_Penalty>
0.345151

> <r_epik_Charging_Adjusted_Penalty>
0.694182

> <i_epik_Tot_Q>
1

> <i_epik_Tot_abs_Q>
1

> <r_epik_Metal_State_Penalty>
0.345887

> <b_epik_Metal_Only>
0

> <s_lp_Force_Field>
OPLS_2005

> <r_lp_Energy>
26.3561

> <b_lp_Chiralities_Consistent>
1

> <s_lp_Variant>
AV-unprocessed.smi:806-1

> <Gold.Version>
5.8.1

> <Gold.Id.Protein>
6NUR|6NUR_protein|mol2

> <Gold.PLP.Fitness>
51.3692

> <Gold.PLP.PLP>
-36.4686

> <Gold.PLP.part.hbond>
-4.9446

> <Gold.PLP.part.metal>
0.0000

> <Gold.PLP.part.buried>
-5.4142

> <Gold.PLP.part.nonpolar>
-30.4122

> <Gold.PLP.part.repulsive>
2.4212

> <Gold.PLP.ligand.clash>
0.0000

> <Gold.PLP.ligand.torsion>
0.6272

> <Gold.PLP.Chemscore.Hbond>
4.3321

> <Gold.PLP.Chemscore.CHOScore>
1.0000

> <Gold.PLP.Chemscore.Metal>
0.0000

> <Gold.Chemscore.Hbonds>
donor molecule, donor type, donor heavy atom, donor atom, acceptor molecule, acceptor atom, score
      L1  H     6    27       P1  7957  1.00
      L1  H     6    45       P1  7948  1.72
      P1  H  7989  7998       L1    16  0.45
      P1  H  7997  8010       L1    16  0.50
      P1  H  8011  8017       L1     4  0.51
      L1  C    10    32       P1 10171  1.00

> <Gold.PLP.Chemscore.Internal.Correction>
0.1586

> <Gold.Rescore>
     Score         DG    S(hbond)    S(metal)    S(lipo)     H(rot)  DE(clash)    DE(int)     intcor
     16.96     -19.76       3.28        0.00      74.08       2.09       0.77       2.02       ----

> <Gold.Chemscore.Fitness>
16.9634

> <Gold.Chemscore.DG>
-19.7555

> <Gold.Chemscore.ZeroCoef>
-5.4800

> <Gold.Chemscore.Hbond>
3.2805

> <Gold.Chemscore.Metal>
0.0000

> <Gold.Chemscore.Lipo>
74.0785

> <Gold.Chemscore.Internal_Hbond>
0.0000

> <Gold.Chemscore.DEClash>
0.7704

> <Gold.Chemscore.DEInternal>
2.0218

> <Gold.Chemscore.Rot>
2.0893

> <Gold.Chemscore.Internal.Correction>
   9.000000E+99

> <Gold.Chemscore.Hbonds>
donor molecule, donor type, donor heavy atom, donor atom, acceptor molecule, acceptor atom, score
      L1  H     6    27       P1  7957  0.94
      L1  H     6    45       P1  7948  0.79
      P1  H  7989  7998       L1     4  0.25
      P1  H  7997  8010       L1    16  0.50
      P1  H  8011  8017       L1     4  0.49

> <Gold.Chemscore.Hbond.Weighted>
-10.9569

> <Gold.Chemscore.Metal.Weighted>
-0.0000

> <Gold.Chemscore.Lipo.Weighted>
-8.6672

> <Gold.Chemscore.Internal_Hbond.Weighted>
0.0000

> <Gold.Chemscore.DEClash.Weighted>
0.7704

> <Gold.Chemscore.DEInternal.Weighted>
2.0218

> <Gold.Chemscore.Rot.Weighted>
5.3486

> <Gold.Chemscore.Internal.Correction.Weighted>
   9.000000E+99

> <Gold.Protein.RotatedTorsions>
[ 6907 6896 6895 6894 ] final   84.96 input  -60.11 | X-H torsion
[ 7974 7965 7964 7962 ] final  -59.09 input  175.53 | X-H torsion
[ 8008 7997 7996 7995 ] final  100.64 input   59.86 | X-H torsion
[ 10167 10162 10161 10158 ] final -142.59 input  -65.29 | X-H torsion
[ 10718 10713 10712 10709 ] final   16.70 input   66.30 | X-H torsion
[ 10763 10752 10751 10750 ] final  162.99 input  -60.55 | X-H torsion
[ 11005 11000 10999 10996 ] final -144.19 input  -57.11 | X-H torsion

> <Gold.Protein.ActiveResidues>
 VAL166  LYS551  ARG553  GLY616  TRP617  ASP618  TYR619  PRO620  LYS621  CYS622 
 ASP623  PHE694  ASN695  SER759  ASP760  ASP761  ALA762  ILE779  LEU786  VAL792 
 PHE793  MET794  SER795  GLU796  ALA797  LYS798  CYS799  TRP800  GLU811  SER814 

> <Gold.Protein.RotatedAtoms>
  152.5364  134.2661  159.8953 H   0  0  0  0  0  0  0  0  0  0  0  0  # atno 6907 bound_to 6896
  151.2619  133.4291  159.2624 H   0  0  0  0  0  0  0  0  0  0  0  0  # atno 6908 bound_to 6896
  151.0445  134.9645  159.8236 H   0  0  0  0  0  0  0  0  0  0  0  0  # atno 6909 bound_to 6896
  145.8316  140.8476  143.0080 H   0  0  0  0  0  0  0  0  0  0  0  0  # atno 7974 bound_to 7965
  156.1223  140.3210  155.8226 H   0  0  0  0  0  0  0  0  0  0  0  0  # atno 8008 bound_to 7997
  155.4483  140.0530  157.3021 H   0  0  0  0  0  0  0  0  0  0  0  0  # atno 8009 bound_to 7997
  154.4836  140.2063  155.9719 H   0  0  0  0  0  0  0  0  0  0  0  0  # atno 8010 bound_to 7997
  139.8074  143.7750  152.2662 H   0  0  0  0  0  0  0  0  0  0  0  0  # atno 10167 bound_to 10162
  157.0716  130.6350  149.5807 H   0  0  0  0  0  0  0  0  0  0  0  0  # atno 10718 bound_to 10713
  154.2868  135.2762  155.2673 H   0  0  0  0  0  0  0  0  0  0  0  0  # atno 10763 bound_to 10752
  154.5169  135.5767  153.6653 H   0  0  0  0  0  0  0  0  0  0  0  0  # atno 10764 bound_to 10752
  152.9920  135.6195  154.3030 H   0  0  0  0  0  0  0  0  0  0  0  0  # atno 10765 bound_to 10752
  140.8049  134.2813  157.4964 H   0  0  0  0  0  0  0  0  0  0  0  0  # atno 11005 bound_to 11000
  144.6739  140.0680  143.7474 LP  0  0  0  0  0  0  0  0  0  0  0  0  # atno 17320 bound_to 7965
  145.9564  139.2770  143.1181 LP  0  0  0  0  0  0  0  0  0  0  0  0  # atno 17321 bound_to 7965
  139.7888  144.7418  150.9984 LP  0  0  0  0  0  0  0  0  0  0  0  0  # atno 17342 bound_to 10162
  140.7819  143.4464  151.0477 LP  0  0  0  0  0  0  0  0  0  0  0  0  # atno 17343 bound_to 10162
  155.9949  130.5014  150.7437 LP  0  0  0  0  0  0  0  0  0  0  0  0  # atno 17370 bound_to 10713
  157.4873  131.0908  151.0467 LP  0  0  0  0  0  0  0  0  0  0  0  0  # atno 17371 bound_to 10713
  139.8718  134.9451  156.3899 LP  0  0  0  0  0  0  0  0  0  0  0  0  # atno 17394 bound_to 11000
  140.9257  133.7614  155.9961 LP  0  0  0  0  0  0  0  0  0  0  0  0  # atno 17395 bound_to 11000

$$$$
