AV-unprocessed.smi:1942|AV-procd|sdf|7849|dock8
  -GOLD-   22720 9593D 1   1.00000     0.00000
 Structure written by MMmdl.
 35 37  0  0  0  0  0  0  0  0  1 V2000
  153.2513  140.0875  160.2488 O   0  0  0  0  0  0  0  0  0  0  0  0
  152.9453  141.2346  159.9233 C   0  0  0  0  0  0  0  0  0  0  0  0
  153.1228  142.3749  160.8300 C   0  0  0  0  0  0  0  0  0  0  0  0
  152.7902  143.6285  160.4631 C   0  0  0  0  0  0  0  0  0  0  0  0
  152.2437  143.8835  159.1512 C   0  0  0  0  0  0  0  0  0  0  0  0
  152.0771  142.8427  158.3198 C   0  0  0  0  0  0  0  0  0  0  0  0
  152.4211  141.5283  158.6936 N   0  0  0  0  0  0  0  0  0  0  0  0
  152.1924  140.4666  157.6993 C   0  0  0  0  0  0  0  0  0  0  0  0
  150.9220  140.7087  156.9192 C   0  0  0  0  0  0  0  0  0  0  0  0
  149.9035  141.4345  157.3915 N   0  0  0  0  0  0  0  0  0  0  0  0
  148.9825  141.3826  156.3653 C   0  0  0  0  0  0  0  0  0  0  0  0
  147.6995  141.9635  156.2525 C   0  0  0  0  0  0  0  0  0  0  0  0
  146.9261  141.7664  155.0896 C   0  0  0  0  0  0  0  0  0  0  0  0
  145.3618  142.4837  154.9680 Cl  0  0  0  0  0  0  0  0  0  0  0  0
  147.4244  140.9854  154.0263 C   0  0  0  0  0  0  0  0  0  0  0  0
  148.7004  140.3970  154.1194 C   0  0  0  0  0  0  0  0  0  0  0  0
  149.4682  140.5991  155.2820 C   0  0  0  0  0  0  0  0  0  0  0  0
  150.7295  140.1724  155.6856 N   0  0  0  0  0  0  0  0  0  0  0  0
  151.6226  139.3185  154.9130 C   0  0  0  0  0  0  0  0  0  0  0  0
  151.0221  137.9292  154.6407 C   0  0  0  0  0  0  0  0  0  0  0  0
  151.9160  137.1205  153.9057 O   0  0  0  0  0  0  0  0  0  0  0  0
  153.5307  142.2033  161.8153 H   0  0  0  0  0  0  0  0  0  0  0  0
  152.9341  144.4466  161.1533 H   0  0  0  0  0  0  0  0  0  0  0  0
  151.9785  144.8850  158.8459 H   0  0  0  0  0  0  0  0  0  0  0  0
  151.6804  142.9489  157.3206 H   0  0  0  0  0  0  0  0  0  0  0  0
  153.0480  140.4135  157.0258 H   0  0  0  0  0  0  0  0  0  0  0  0
  152.1266  139.4867  158.1737 H   0  0  0  0  0  0  0  0  0  0  0  0
  147.3107  142.5621  157.0630 H   0  0  0  0  0  0  0  0  0  0  0  0
  146.8272  140.8373  153.1383 H   0  0  0  0  0  0  0  0  0  0  0  0
  149.0845  139.7988  153.3067 H   0  0  0  0  0  0  0  0  0  0  0  0
  151.8956  139.8119  153.9804 H   0  0  0  0  0  0  0  0  0  0  0  0
  152.5519  139.2089  155.4730 H   0  0  0  0  0  0  0  0  0  0  0  0
  150.7893  137.4298  155.5814 H   0  0  0  0  0  0  0  0  0  0  0  0
  150.0881  138.0177  154.0851 H   0  0  0  0  0  0  0  0  0  0  0  0
  151.5033  136.8776  153.0908 H   0  0  0  0  0  0  0  0  0  0  0  0
  1  2  2  0  0  0  0
  2  7  1  0  0  0  0
  2  3  1  0  0  0  0
  3  4  2  0  0  0  0
  3 22  1  0  0  0  0
  4  5  1  0  0  0  0
  4 23  1  0  0  0  0
  5  6  2  0  0  0  0
  5 24  1  0  0  0  0
  6  7  1  0  0  0  0
  6 25  1  0  0  0  0
  7  8  1  0  0  0  0
  8  9  1  0  0  0  0
  8 26  1  0  0  0  0
  8 27  1  0  0  0  0
  9 18  1  0  0  0  0
  9 10  2  0  0  0  0
 10 11  1  0  0  0  0
 11 17  2  0  0  0  0
 11 12  1  0  0  0  0
 12 13  2  0  0  0  0
 12 28  1  0  0  0  0
 13 14  1  0  0  0  0
 13 15  1  0  0  0  0
 15 16  2  0  0  0  0
 15 29  1  0  0  0  0
 16 17  1  0  0  0  0
 16 30  1  0  0  0  0
 17 18  1  0  0  0  0
 18 19  1  0  0  0  0
 19 20  1  0  0  0  0
 19 31  1  0  0  0  0
 19 32  1  0  0  0  0
 20 21  1  0  0  0  0
 20 33  1  0  0  0  0
 20 34  1  0  0  0  0
 21 35  1  0  0  0  0
M  END
> <s_m_source_file>
AV-unprocessed.smi

> <i_m_source_file_index>
1942

> <i_lp_mmshare_version>
43012

> <i_f3d_flags>
0

> <s_epik_input>
Tz1jMVtjSF1bY0hdW2NIXVtjSF1uMVtDSDJdYyhuMiluKFtDSDJdW0NIMl1bT0hdKWMoYzIzKVtjSF1bY0hdYyhDbClbY0hdMw==

> <s_epik_cmdline>
J2VwaWtfcHl0aG9uJywgJy1waCcsICc3LjAnLCAnLXRuJywgJzgnLCAnLW1hJywgJzIwMCcsICctbWV0YWxfYmluZGluZycsICctaW1hZScsICc8aW5maWxlLm1hZT4nLCAnLW9tYWUnLCAnPG91dGZpbGUubWFlPic=

> <r_lp_tautomer_probability>
1

> <r_epik_Ionization_Penalty>
0.0394182

> <r_epik_Ionization_Penalty_Charging>
8.17328e-07

> <r_epik_Ionization_Penalty_Neutral>
0.0394174

> <r_epik_State_Penalty>
0.0331163

> <r_epik_Charging_Adjusted_Penalty>
0.0331171

> <i_epik_Tot_Q>
0

> <i_epik_Tot_abs_Q>
0

> <r_epik_Metal_State_Penalty>
3.40583e-05

> <b_epik_Metal_Only>
0

> <s_lp_Force_Field>
OPLS_2005

> <r_lp_Energy>
18.6161

> <b_lp_Chiralities_Consistent>
1

> <s_lp_Variant>
AV-unprocessed.smi:1942-1

> <Gold.Version>
5.8.1

> <Gold.Id.Protein>
6NUR|6NUR_protein|mol2

> <Gold.PLP.Fitness>
49.2191

> <Gold.PLP.PLP>
-44.5389

> <Gold.PLP.part.hbond>
-2.0000

> <Gold.PLP.part.metal>
0.0000

> <Gold.PLP.part.buried>
-1.8481

> <Gold.PLP.part.nonpolar>
-40.7101

> <Gold.PLP.part.repulsive>
0.0640

> <Gold.PLP.ligand.clash>
0.0000

> <Gold.PLP.ligand.torsion>
0.6637

> <Gold.PLP.Chemscore.Hbond>
2.0000

> <Gold.PLP.Chemscore.CHOScore>
0.0000

> <Gold.PLP.Chemscore.Metal>
0.0000

> <Gold.Chemscore.Hbonds>
donor molecule, donor type, donor heavy atom, donor atom, acceptor molecule, acceptor atom, score
      L1  H    21    35       P1  7949  1.00
      P1  H 10752 10763       L1    21  0.85

> <Gold.PLP.Chemscore.Internal.Correction>
0.0077

> <Gold.Rescore>
     Score         DG    S(hbond)    S(metal)    S(lipo)     H(rot)  DE(clash)    DE(int)     intcor
     14.36     -16.60       1.48        0.00     102.59       2.27       0.35       1.89       ----

> <Gold.Chemscore.Fitness>
14.3587

> <Gold.Chemscore.DG>
-16.6008

> <Gold.Chemscore.ZeroCoef>
-5.4800

> <Gold.Chemscore.Hbond>
1.4796

> <Gold.Chemscore.Metal>
0.0000

> <Gold.Chemscore.Lipo>
102.5886

> <Gold.Chemscore.Internal_Hbond>
0.0000

> <Gold.Chemscore.DEClash>
0.3499

> <Gold.Chemscore.DEInternal>
1.8922

> <Gold.Chemscore.Rot>
2.2750

> <Gold.Chemscore.Internal.Correction>
   9.000000E+99

> <Gold.Chemscore.Hbonds>
donor molecule, donor type, donor heavy atom, donor atom, acceptor molecule, acceptor atom, score
      L1  H    21    35       P1  7949  0.90
      P1  H 10752 10763       L1    21  0.14

> <Gold.Chemscore.Hbond.Weighted>
-4.9419

> <Gold.Chemscore.Metal.Weighted>
-0.0000

> <Gold.Chemscore.Lipo.Weighted>
-12.0029

> <Gold.Chemscore.Internal_Hbond.Weighted>
0.0000

> <Gold.Chemscore.DEClash.Weighted>
0.3499

> <Gold.Chemscore.DEInternal.Weighted>
1.8922

> <Gold.Chemscore.Rot.Weighted>
5.8240

> <Gold.Chemscore.Internal.Correction.Weighted>
   9.000000E+99

> <Gold.Protein.RotatedTorsions>
[ 6907 6896 6895 6894 ] final  -26.76 input  -60.11 | X-H torsion
[ 7974 7965 7964 7962 ] final  104.10 input  175.53 | X-H torsion
[ 8008 7997 7996 7995 ] final  -99.93 input   59.86 | X-H torsion
[ 10167 10162 10161 10158 ] final  119.84 input  -65.29 | X-H torsion
[ 10718 10713 10712 10709 ] final -126.18 input   66.30 | X-H torsion
[ 10763 10752 10751 10750 ] final   26.19 input  -60.55 | X-H torsion
[ 11005 11000 10999 10996 ] final -103.11 input  -57.11 | X-H torsion

> <Gold.Protein.ActiveResidues>
 VAL166  LYS551  ARG553  GLY616  TRP617  ASP618  TYR619  PRO620  LYS621  CYS622 
 ASP623  PHE694  ASN695  SER759  ASP760  ASP761  ALA762  ILE779  LEU786  VAL792 
 PHE793  MET794  SER795  GLU796  ALA797  LYS798  CYS799  TRP800  GLU811  SER814 

> <Gold.Protein.RotatedAtoms>
  151.1565  135.0252  159.8690 H   0  0  0  0  0  0  0  0  0  0  0  0  # atno 6907 bound_to 6896
  152.5452  134.1329  159.8456 H   0  0  0  0  0  0  0  0  0  0  0  0  # atno 6908 bound_to 6896
  151.1419  133.4919  159.2629 H   0  0  0  0  0  0  0  0  0  0  0  0  # atno 6909 bound_to 6896
  145.3372  139.2471  143.3629 H   0  0  0  0  0  0  0  0  0  0  0  0  # atno 7974 bound_to 7965
  154.8217  140.0444  157.1415 H   0  0  0  0  0  0  0  0  0  0  0  0  # atno 8008 bound_to 7997
  154.9253  140.3032  155.5175 H   0  0  0  0  0  0  0  0  0  0  0  0  # atno 8009 bound_to 7997
  156.2980  140.2333  156.4307 H   0  0  0  0  0  0  0  0  0  0  0  0  # atno 8010 bound_to 7997
  139.6020  144.7059  151.3041 H   0  0  0  0  0  0  0  0  0  0  0  0  # atno 10167 bound_to 10162
  156.1742  130.6688  151.0220 H   0  0  0  0  0  0  0  0  0  0  0  0  # atno 10718 bound_to 10713
  153.0639  135.6566  154.0398 H   0  0  0  0  0  0  0  0  0  0  0  0  # atno 10763 bound_to 10752
  154.0060  135.2933  155.3399 H   0  0  0  0  0  0  0  0  0  0  0  0  # atno 10764 bound_to 10752
  154.6989  135.5252  153.8567 H   0  0  0  0  0  0  0  0  0  0  0  0  # atno 10765 bound_to 10752
  141.1160  133.8613  157.1445 H   0  0  0  0  0  0  0  0  0  0  0  0  # atno 11005 bound_to 11000
  146.3022  140.3961  142.8700 LP  0  0  0  0  0  0  0  0  0  0  0  0  # atno 17320 bound_to 7965
  144.8818  140.7411  143.5981 LP  0  0  0  0  0  0  0  0  0  0  0  0  # atno 17321 bound_to 7965
  140.7256  143.7012  150.7844 LP  0  0  0  0  0  0  0  0  0  0  0  0  # atno 17342 bound_to 10162
  140.0590  143.5174  152.2637 LP  0  0  0  0  0  0  0  0  0  0  0  0  # atno 17343 bound_to 10162
  157.6824  131.0834  150.7334 LP  0  0  0  0  0  0  0  0  0  0  0  0  # atno 17370 bound_to 10713
  156.7392  130.4734  149.5481 LP  0  0  0  0  0  0  0  0  0  0  0  0  # atno 17371 bound_to 10713
  140.0083  134.9999  157.0340 LP  0  0  0  0  0  0  0  0  0  0  0  0  # atno 17394 bound_to 11000
  140.4644  134.1451  155.7195 LP  0  0  0  0  0  0  0  0  0  0  0  0  # atno 17395 bound_to 11000

$$$$
