AV-unprocessed.smi:2923|AV-procd|sdf|11203|dock8
  -GOLD-   2272016 93D 1   1.00000     0.00000
 Structure written by MMmdl.
 47 49  0  0  0  0  0  0  0  0  2 V2000
  151.5646  144.1347  157.4012 C   0  0  0  0  0  0  0  0  0  0  0  0
  151.6949  142.6979  157.6176 N   0  0  0  0  0  0  0  0  0  0  0  0
  152.5123  142.1894  158.7115 C   0  0  0  0  0  0  0  0  0  0  0  0
  151.0457  141.7961  156.7470 C   0  0  0  0  0  0  0  0  0  0  0  0
  151.5230  140.4880  156.4871 C   0  0  0  0  0  0  0  0  0  0  0  0
  150.8176  139.6471  155.6017 C   0  0  0  0  0  0  0  0  0  0  0  0
  149.6366  140.1085  154.9840 C   0  0  0  0  0  0  0  0  0  0  0  0
  148.9716  139.2285  154.0873 N   0  0  0  0  0  0  0  0  0  0  0  0
  147.6545  139.1147  153.8430 C   0  0  0  0  0  0  0  0  0  0  0  0
  146.7661  139.7476  154.4127 O   0  0  0  0  0  0  0  0  0  0  0  0
  147.4143  138.1973  152.8974 N   0  0  0  0  0  0  0  0  0  0  0  0
  146.0840  137.8372  152.4217 C   0  0  1  0  0  0  0  0  0  0  0  0
  146.0739  136.5129  151.6587 C   0  0  2  0  0  0  0  0  0  0  0  0
  145.8181  136.1228  150.2467 C   0  0  0  0  0  0  0  0  0  0  0  0
  144.8669  134.9284  150.5261 C   0  0  0  0  0  0  0  0  0  0  0  0
  144.5410  135.0012  151.9359 O   0  0  0  0  0  0  0  0  0  0  0  0
  144.6814  136.3732  152.2424 C   0  0  1  0  0  0  0  0  0  0  0  0
  145.2072  137.0952  153.4994 C   0  0  0  0  0  0  0  0  0  0  0  0
  145.8911  136.2399  154.5855 C   0  0  0  0  0  0  0  0  0  0  0  0
  144.1846  137.9706  154.2244 C   0  0  0  0  0  0  0  0  0  0  0  0
  149.2053  141.4259  155.2690 C   0  0  0  0  0  0  0  0  0  0  0  0
  149.9118  142.1976  156.1226 N   0  3  0  0  0  0  0  0  0  0  0  0
  151.9602  144.4121  156.4234 H   0  0  0  0  0  0  0  0  0  0  0  0
  152.1103  144.7018  158.1554 H   0  0  0  0  0  0  0  0  0  0  0  0
  150.5179  144.4367  157.4510 H   0  0  0  0  0  0  0  0  0  0  0  0
  151.9075  141.5967  159.3985 H   0  0  0  0  0  0  0  0  0  0  0  0
  152.9623  143.0028  159.2809 H   0  0  0  0  0  0  0  0  0  0  0  0
  153.3204  141.5651  158.3293 H   0  0  0  0  0  0  0  0  0  0  0  0
  152.4229  140.1133  156.9514 H   0  0  0  0  0  0  0  0  0  0  0  0
  151.1846  138.6507  155.4027 H   0  0  0  0  0  0  0  0  0  0  0  0
  149.5695  138.5865  153.5877 H   0  0  0  0  0  0  0  0  0  0  0  0
  148.1968  137.7152  152.4800 H   0  0  0  0  0  0  0  0  0  0  0  0
  145.5628  138.6403  151.8923 H   0  0  0  0  0  0  0  0  0  0  0  0
  146.7934  135.8171  152.0966 H   0  0  0  0  0  0  0  0  0  0  0  0
  145.3241  136.9177  149.6862 H   0  0  0  0  0  0  0  0  0  0  0  0
  146.7235  135.8229  149.7185 H   0  0  0  0  0  0  0  0  0  0  0  0
  143.9622  135.0022  149.9214 H   0  0  0  0  0  0  0  0  0  0  0  0
  145.3412  133.9706  150.3108 H   0  0  0  0  0  0  0  0  0  0  0  0
  143.9208  136.9648  151.7198 H   0  0  0  0  0  0  0  0  0  0  0  0
  145.1669  135.6058  155.0975 H   0  0  0  0  0  0  0  0  0  0  0  0
  146.3634  136.8658  155.3434 H   0  0  0  0  0  0  0  0  0  0  0  0
  146.6651  135.5782  154.2015 H   0  0  0  0  0  0  0  0  0  0  0  0
  143.4293  137.3682  154.7300 H   0  0  0  0  0  0  0  0  0  0  0  0
  143.6605  138.6311  153.5328 H   0  0  0  0  0  0  0  0  0  0  0  0
  144.6587  138.6047  154.9742 H   0  0  0  0  0  0  0  0  0  0  0  0
  148.3354  141.9046  154.8458 H   0  0  0  0  0  0  0  0  0  0  0  0
  149.5709  143.1416  156.3052 H   0  0  0  0  0  0  0  0  0  0  0  0
  1  2  1  0  0  0  0
  1 23  1  0  0  0  0
  1 24  1  0  0  0  0
  1 25  1  0  0  0  0
  2  3  1  0  0  0  0
  2  4  1  0  0  0  0
  3 26  1  0  0  0  0
  3 27  1  0  0  0  0
  3 28  1  0  0  0  0
  4 22  1  0  0  0  0
  4  5  2  0  0  0  0
  5  6  1  0  0  0  0
  5 29  1  0  0  0  0
  6  7  2  0  0  0  0
  6 30  1  0  0  0  0
  7  8  1  0  0  0  0
  7 21  1  0  0  0  0
  8  9  1  0  0  0  0
  8 31  1  0  0  0  0
  9 10  2  0  0  0  0
  9 11  1  0  0  0  0
 11 12  1  0  0  0  0
 11 32  1  0  0  0  0
 12 18  1  0  0  0  0
 12 13  1  0  0  0  0
 12 33  1  0  0  0  0
 13 17  1  0  0  0  0
 13 14  1  0  0  0  0
 13 34  1  0  0  0  0
 14 15  1  0  0  0  0
 14 35  1  0  0  0  0
 14 36  1  0  0  0  0
 15 16  1  0  0  0  0
 15 37  1  0  0  0  0
 15 38  1  0  0  0  0
 16 17  1  0  0  0  0
 17 18  1  0  0  0  0
 17 39  1  0  0  0  0
 18 19  1  0  0  0  0
 18 20  1  0  0  0  0
 19 40  1  0  0  0  0
 19 41  1  0  0  0  0
 19 42  1  0  0  0  0
 20 43  1  0  0  0  0
 20 44  1  0  0  0  0
 20 45  1  0  0  0  0
 21 22  2  0  0  0  0
 21 46  1  0  0  0  0
 22 47  1  0  0  0  0
M  CHG  1  22   1
M  END
> <s_m_source_file>
AV-unprocessed.smi

> <i_m_source_file_index>
2923

> <i_lp_mmshare_version>
43012

> <i_f3d_flags>
0

> <s_epik_input>
W0NIM11OKFtDSDNdKWMxW2NIXVtjSF1jKFtjSF1uMSlbTkhdQyg9TylbTkhdW0NASF0yQyhbQ0gzXSkoW0NIM10pW0NAQEhdKFtDQEhdMjMpT1tDSDJdW0NIMl0z

> <s_epik_cmdline>
J2VwaWtfcHl0aG9uJywgJy1waCcsICc3LjAnLCAnLXRuJywgJzgnLCAnLW1hJywgJzIwMCcsICctbWV0YWxfYmluZGluZycsICctaW1hZScsICc8aW5maWxlLm1hZT4nLCAnLW9tYWUnLCAnPG91dGZpbGUubWFlPic=

> <r_lp_tautomer_probability>
0.999994

> <r_epik_Ionization_Penalty>
0.252205

> <r_epik_Ionization_Penalty_Charging>
0.252185

> <r_epik_Ionization_Penalty_Neutral>
1.99479e-05

> <r_epik_State_Penalty>
0.243573

> <r_epik_Charging_Adjusted_Penalty>
0.495758

> <i_epik_Tot_Q>
1

> <i_epik_Tot_abs_Q>
1

> <r_epik_Metal_State_Penalty>
0.534372

> <b_epik_Metal_Only>
0

> <s_lp_Force_Field>
OPLS_2005

> <r_lp_Energy>
67.7909

> <b_lp_Chiralities_Consistent>
1

> <s_lp_Variant>
AV-unprocessed.smi:2923-2

> <Gold.Version>
5.8.1

> <Gold.Id.Protein>
6NUR|6NUR_protein|mol2

> <Gold.PLP.Fitness>
39.5704

> <Gold.PLP.PLP>
-31.6696

> <Gold.PLP.part.hbond>
-2.1864

> <Gold.PLP.part.metal>
0.0000

> <Gold.PLP.part.buried>
-2.0606

> <Gold.PLP.part.nonpolar>
-27.9046

> <Gold.PLP.part.repulsive>
0.3764

> <Gold.PLP.ligand.clash>
0.0000

> <Gold.PLP.ligand.torsion>
0.6829

> <Gold.PLP.Chemscore.Hbond>
3.0000

> <Gold.PLP.Chemscore.CHOScore>
0.0000

> <Gold.PLP.Chemscore.Metal>
0.0000

> <Gold.Chemscore.Hbonds>
donor molecule, donor type, donor heavy atom, donor atom, acceptor molecule, acceptor atom, score
      L1  H    11    32       P1  7948  1.00
      L1  H    22    47       P1  8028  1.95

> <Gold.PLP.Chemscore.Internal.Correction>
0.2666

> <Gold.Rescore>
     Score         DG    S(hbond)    S(metal)    S(lipo)     H(rot)  DE(clash)    DE(int)     intcor
     17.87     -18.53       1.99        0.00      76.74       1.00       0.11       0.55       ----

> <Gold.Chemscore.Fitness>
17.8749

> <Gold.Chemscore.DG>
-18.5299

> <Gold.Chemscore.ZeroCoef>
-5.4800

> <Gold.Chemscore.Hbond>
1.9855

> <Gold.Chemscore.Metal>
0.0000

> <Gold.Chemscore.Lipo>
76.7370

> <Gold.Chemscore.Internal_Hbond>
0.0000

> <Gold.Chemscore.DEClash>
0.1065

> <Gold.Chemscore.DEInternal>
0.5484

> <Gold.Chemscore.Rot>
1.0000

> <Gold.Chemscore.Internal.Correction>
   9.000000E+99

> <Gold.Chemscore.Hbonds>
donor molecule, donor type, donor heavy atom, donor atom, acceptor molecule, acceptor atom, score
      L1  H    11    32       P1  7948  0.96
      L1  H    22    47       P1  8028  0.93

> <Gold.Chemscore.Hbond.Weighted>
-6.6317

> <Gold.Chemscore.Metal.Weighted>
-0.0000

> <Gold.Chemscore.Lipo.Weighted>
-8.9782

> <Gold.Chemscore.Internal_Hbond.Weighted>
0.0000

> <Gold.Chemscore.DEClash.Weighted>
0.1065

> <Gold.Chemscore.DEInternal.Weighted>
0.5484

> <Gold.Chemscore.Rot.Weighted>
2.5600

> <Gold.Chemscore.Internal.Correction.Weighted>
   9.000000E+99

> <Gold.Protein.RotatedTorsions>
[ 6907 6896 6895 6894 ] final -142.33 input  -60.11 | X-H torsion
[ 7974 7965 7964 7962 ] final  140.85 input  175.53 | X-H torsion
[ 8008 7997 7996 7995 ] final   59.64 input   59.86 | X-H torsion
[ 10167 10162 10161 10158 ] final  -41.69 input  -65.29 | X-H torsion
[ 10718 10713 10712 10709 ] final  -63.65 input   66.30 | X-H torsion
[ 10763 10752 10751 10750 ] final  -76.35 input  -60.55 | X-H torsion
[ 11005 11000 10999 10996 ] final   52.25 input  -57.11 | X-H torsion

> <Gold.Protein.ActiveResidues>
 VAL166  LYS551  ARG553  GLY616  TRP617  ASP618  TYR619  PRO620  LYS621  CYS622 
 ASP623  PHE694  ASN695  SER759  ASP760  ASP761  ALA762  ILE779  LEU786  VAL792 
 PHE793  MET794  SER795  GLU796  ALA797  LYS798  CYS799  TRP800  GLU811  SER814 

> <Gold.Protein.RotatedAtoms>
  151.0856  133.5356  159.2617 H   0  0  0  0  0  0  0  0  0  0  0  0  # atno 6907 bound_to 6896
  151.2243  135.0530  159.8972 H   0  0  0  0  0  0  0  0  0  0  0  0  # atno 6908 bound_to 6896
  152.5428  134.0654  159.8224 H   0  0  0  0  0  0  0  0  0  0  0  0  # atno 6909 bound_to 6896
  144.9150  139.5243  143.5691 H   0  0  0  0  0  0  0  0  0  0  0  0  # atno 7974 bound_to 7965
  155.5694  140.3489  155.4511 H   0  0  0  0  0  0  0  0  0  0  0  0  # atno 8008 bound_to 7997
  156.0455  140.1306  157.0134 H   0  0  0  0  0  0  0  0  0  0  0  0  # atno 8009 bound_to 7997
  154.4411  140.1015  156.6285 H   0  0  0  0  0  0  0  0  0  0  0  0  # atno 8010 bound_to 7997
  140.6994  143.3080  151.3102 H   0  0  0  0  0  0  0  0  0  0  0  0  # atno 10167 bound_to 10162
  156.0778  130.4223  150.1307 H   0  0  0  0  0  0  0  0  0  0  0  0  # atno 10718 bound_to 10713
  154.4987  135.5800  153.6514 H   0  0  0  0  0  0  0  0  0  0  0  0  # atno 10763 bound_to 10752
  152.9875  135.6130  154.3030 H   0  0  0  0  0  0  0  0  0  0  0  0  # atno 10764 bound_to 10752
  154.2936  135.2848  155.2623 H   0  0  0  0  0  0  0  0  0  0  0  0  # atno 10765 bound_to 10752
  140.0865  134.5267  155.8894 H   0  0  0  0  0  0  0  0  0  0  0  0  # atno 11005 bound_to 11000
  146.3177  139.7985  142.8970 LP  0  0  0  0  0  0  0  0  0  0  0  0  # atno 17320 bound_to 7965
  145.3391  141.0284  143.3402 LP  0  0  0  0  0  0  0  0  0  0  0  0  # atno 17321 bound_to 7965
  139.6493  144.0393  152.2614 LP  0  0  0  0  0  0  0  0  0  0  0  0  # atno 17342 bound_to 10162
  139.9924  144.6352  150.7803 LP  0  0  0  0  0  0  0  0  0  0  0  0  # atno 17343 bound_to 10162
  156.9345  130.9724  151.3527 LP  0  0  0  0  0  0  0  0  0  0  0  0  # atno 17370 bound_to 10713
  157.5881  130.8424  149.8619 LP  0  0  0  0  0  0  0  0  0  0  0  0  # atno 17371 bound_to 10713
  141.2064  133.6655  156.6241 LP  0  0  0  0  0  0  0  0  0  0  0  0  # atno 17394 bound_to 11000
  140.3413  134.7847  157.4399 LP  0  0  0  0  0  0  0  0  0  0  0  0  # atno 17395 bound_to 11000

$$$$
