AV-unprocessed.smi:218|AV-procd|sdf|1664|dock4
  -GOLD-   2262020 63D 1   1.00000     0.00000
 Structure written by MMmdl.
 54 57  0  0  0  0  0  0  0  0  1 V2000
  152.2739  142.9624  159.6559 C   0  0  0  0  0  0  0  0  0  0  0  0
  151.8358  142.8090  158.1944 C   0  0  0  0  0  0  0  0  0  0  0  0
  151.1617  144.0921  157.6784 C   0  0  0  0  0  0  0  0  0  0  0  0
  150.9196  141.7135  158.1495 O   0  0  0  0  0  0  0  0  0  0  0  0
  150.4237  141.2717  156.9378 C   0  0  0  0  0  0  0  0  0  0  0  0
  151.0520  140.1704  156.3221 C   0  0  0  0  0  0  0  0  0  0  0  0
  150.5675  139.7145  155.0773 C   0  0  0  0  0  0  0  0  0  0  0  0
  151.2138  138.5378  154.3623 C   0  0  0  0  0  0  0  0  0  0  0  0
  150.5032  137.2686  154.4866 N   0  0  0  0  0  0  0  0  0  0  0  0
  150.4604  136.6295  155.6765 C   0  0  0  0  0  0  0  0  0  0  0  0
  151.2397  135.5427  155.9159 N   0  0  0  0  0  0  0  0  0  0  0  0
  151.1866  134.9320  157.1033 C   0  0  0  0  0  0  0  0  0  0  0  0
  150.4370  135.2360  158.1651 N   0  0  0  0  0  0  0  0  0  0  0  0
  149.6472  136.3232  157.9270 C   0  0  0  0  0  0  0  0  0  0  0  0
  149.5999  137.0679  156.7156 C   0  0  0  0  0  0  0  0  0  0  0  0
  148.6851  138.1058  156.8358 N   0  0  0  0  0  0  0  0  0  0  0  0
  148.2233  137.9798  158.0510 C   0  0  0  0  0  0  0  0  0  0  0  0
  148.7465  136.9325  158.7768 N   0  0  0  0  0  0  0  0  0  0  0  0
  148.4234  136.5461  160.1830 C   0  0  2  0  0  0  0  0  0  0  0  0
  148.0913  135.1895  160.1894 O   0  0  0  0  0  0  0  0  0  0  0  0
  146.9914  134.9576  161.0613 C   0  0  1  0  0  0  0  0  0  0  0  0
  147.5409  134.6480  162.4705 C   0  0  0  0  0  0  0  0  0  0  0  0
  146.6014  135.0022  163.4637 O   0  0  0  0  0  0  0  0  0  0  0  0
  146.1695  136.2463  160.9137 C   0  0  1  0  0  0  0  0  0  0  0  0
  145.2567  136.4945  161.9678 O   0  0  0  0  0  0  0  0  0  0  0  0
  147.2168  137.3413  160.7143 C   0  0  1  0  0  0  0  0  0  0  0  0
  147.5367  138.0069  161.9229 O   0  0  0  0  0  0  0  0  0  0  0  0
  149.4616  140.3736  154.5049 C   0  0  0  0  0  0  0  0  0  0  0  0
  148.8996  141.4648  155.1953 C   0  0  0  0  0  0  0  0  0  0  0  0
  149.3644  141.9103  156.3814 N   0  0  0  0  0  0  0  0  0  0  0  0
  149.3447  136.7206  160.7411 H   0  0  0  0  0  0  0  0  0  0  0  0
  146.4339  134.0950  160.6934 H   0  0  0  0  0  0  0  0  0  0  0  0
  145.5844  136.1650  159.9974 H   0  0  0  0  0  0  0  0  0  0  0  0
  146.8834  138.0836  159.9875 H   0  0  0  0  0  0  0  0  0  0  0  0
  152.9899  143.7768  159.7691 H   0  0  0  0  0  0  0  0  0  0  0  0
  152.7496  142.0505  160.0175 H   0  0  0  0  0  0  0  0  0  0  0  0
  151.4225  143.1728  160.3038 H   0  0  0  0  0  0  0  0  0  0  0  0
  152.7320  142.5967  157.6097 H   0  0  0  0  0  0  0  0  0  0  0  0
  151.8387  144.9437  157.7490 H   0  0  0  0  0  0  0  0  0  0  0  0
  150.2693  144.3277  158.2590 H   0  0  0  0  0  0  0  0  0  0  0  0
  150.8613  144.0009  156.6351 H   0  0  0  0  0  0  0  0  0  0  0  0
  151.8950  139.6914  156.7981 H   0  0  0  0  0  0  0  0  0  0  0  0
  151.2823  138.7829  153.3024 H   0  0  0  0  0  0  0  0  0  0  0  0
  152.2388  138.4109  154.7130 H   0  0  0  0  0  0  0  0  0  0  0  0
  149.8691  137.0506  153.7315 H   0  0  0  0  0  0  0  0  0  0  0  0
  151.8392  134.0793  157.2197 H   0  0  0  0  0  0  0  0  0  0  0  0
  147.4814  138.6537  158.4542 H   0  0  0  0  0  0  0  0  0  0  0  0
  147.7255  133.5775  162.5654 H   0  0  0  0  0  0  0  0  0  0  0  0
  148.4890  135.1505  162.6603 H   0  0  0  0  0  0  0  0  0  0  0  0
  146.9507  135.7238  163.9645 H   0  0  0  0  0  0  0  0  0  0  0  0
  144.8324  137.3239  161.8079 H   0  0  0  0  0  0  0  0  0  0  0  0
  147.0054  137.6435  162.6145 H   0  0  0  0  0  0  0  0  0  0  0  0
  149.0548  140.0564  153.5557 H   0  0  0  0  0  0  0  0  0  0  0  0
  148.0528  141.9938  154.7837 H   0  0  0  0  0  0  0  0  0  0  0  0
  1  2  1  0  0  0  0
  1 35  1  0  0  0  0
  1 36  1  0  0  0  0
  1 37  1  0  0  0  0
  2  3  1  0  0  0  0
  2  4  1  0  0  0  0
  2 38  1  0  0  0  0
  3 39  1  0  0  0  0
  3 40  1  0  0  0  0
  3 41  1  0  0  0  0
  4  5  1  0  0  0  0
  5 30  1  0  0  0  0
  5  6  2  0  0  0  0
  6  7  1  0  0  0  0
  6 42  1  0  0  0  0
  7  8  1  0  0  0  0
  7 28  2  0  0  0  0
  8  9  1  0  0  0  0
  8 43  1  0  0  0  0
  8 44  1  0  0  0  0
  9 10  1  0  0  0  0
  9 45  1  0  0  0  0
 10 15  1  0  0  0  0
 10 11  2  0  0  0  0
 11 12  1  0  0  0  0
 12 13  2  0  0  0  0
 12 46  1  0  0  0  0
 13 14  1  0  0  0  0
 14 18  1  0  0  0  0
 14 15  2  0  0  0  0
 15 16  1  0  0  0  0
 16 17  2  0  0  0  0
 17 18  1  0  0  0  0
 17 47  1  0  0  0  0
 18 19  1  0  0  0  0
 19 31  1  0  0  0  0
 19 26  1  0  0  0  0
 19 20  1  0  0  0  0
 20 21  1  0  0  0  0
 21 32  1  0  0  0  0
 21 22  1  0  0  0  0
 21 24  1  0  0  0  0
 22 23  1  0  0  0  0
 22 48  1  0  0  0  0
 22 49  1  0  0  0  0
 23 50  1  0  0  0  0
 24 33  1  0  0  0  0
 24 25  1  0  0  0  0
 24 26  1  0  0  0  0
 25 51  1  0  0  0  0
 26 34  1  0  0  0  0
 26 27  1  0  0  0  0
 27 52  1  0  0  0  0
 28 29  1  0  0  0  0
 28 53  1  0  0  0  0
 29 30  2  0  0  0  0
 29 54  1  0  0  0  0
M  END
> <s_m_source_file>
AV-unprocessed.smi

> <i_m_source_file_index>
218

> <i_lp_mmshare_version>
43012

> <i_f3d_flags>
0

> <s_epik_input>
W0NIM11bQ0hdKFtDSDNdKU9jMVtjSF1jKFtjSF1bY0hdbjEpW0NIMl1bTkhdYyhuW2NIXW4yKWMoYzIzKW5bY0hdbjNbQ0BASF00T1tDQEhdKFtDSDJdW09IXSlbQ0BASF0oW09IXSlbQ0BIXTRbT0hd

> <s_epik_cmdline>
J2VwaWtfcHl0aG9uJywgJy1waCcsICc3LjAnLCAnLXRuJywgJzgnLCAnLW1hJywgJzIwMCcsICctbWV0YWxfYmluZGluZycsICctaW1hZScsICc8aW5maWxlLm1hZT4nLCAnLW9tYWUnLCAnPG91dGZpbGUubWFlPic=

> <r_lp_tautomer_probability>
1

> <r_epik_Ionization_Penalty>
0.00457014

> <r_epik_Ionization_Penalty_Charging>
0

> <r_epik_Ionization_Penalty_Neutral>
0.00457014

> <r_epik_State_Penalty>
-0

> <r_epik_Charging_Adjusted_Penalty>
0

> <i_epik_Tot_Q>
0

> <i_epik_Tot_abs_Q>
0

> <r_epik_Metal_State_Penalty>
-0

> <b_epik_Metal_Only>
0

> <s_epik_Chemistry_Notes>
This compound contains an acetal/aminal-like group ( X-CH(R)-Y where X, Y are N, S, or O) that may be acid/base labile, releasing an aldehyde.

> <s_lp_Force_Field>
OPLS_2005

> <r_lp_Energy>
44.1408

> <b_lp_Chiralities_Consistent>
1

> <s_lp_Variant>
AV-unprocessed.smi:218-3

> <Gold.Version>
5.8.1

> <Gold.Id.Protein>
6NUR|6NUR_protein|mol2

> <Gold.PLP.Fitness>
54.4700

> <Gold.PLP.PLP>
-45.3392

> <Gold.PLP.part.hbond>
-6.0214

> <Gold.PLP.part.metal>
0.0000

> <Gold.PLP.part.buried>
-5.2484

> <Gold.PLP.part.nonpolar>
-34.2756

> <Gold.PLP.part.repulsive>
0.2517

> <Gold.PLP.ligand.clash>
0.0000

> <Gold.PLP.ligand.torsion>
1.7386

> <Gold.PLP.Chemscore.Hbond>
3.1715

> <Gold.PLP.Chemscore.CHOScore>
0.9955

> <Gold.PLP.Chemscore.Metal>
0.0000

> <Gold.Chemscore.Hbonds>
donor molecule, donor type, donor heavy atom, donor atom, acceptor molecule, acceptor atom, score
      L1  H     9    45       P1  7948  0.57
      P1  H  6896  6907       L1    13  0.48
      P1  H  6931  6943       L1    27  0.42
      P1  H 10752 10765       L1    11  0.77

> <Gold.PLP.Chemscore.Internal.Correction>
0.1071

> <Gold.Rescore>
     Score         DG    S(hbond)    S(metal)    S(lipo)     H(rot)  DE(clash)    DE(int)     intcor
      8.85     -11.65       2.31        0.00      94.11       4.90       0.23       2.57       ----

> <Gold.Chemscore.Fitness>
8.8511

> <Gold.Chemscore.DG>
-11.6473

> <Gold.Chemscore.ZeroCoef>
-5.4800

> <Gold.Chemscore.Hbond>
2.3078

> <Gold.Chemscore.Metal>
0.0000

> <Gold.Chemscore.Lipo>
94.1093

> <Gold.Chemscore.Internal_Hbond>
0.0000

> <Gold.Chemscore.DEClash>
0.2258

> <Gold.Chemscore.DEInternal>
2.5704

> <Gold.Chemscore.Rot>
4.9029

> <Gold.Chemscore.Internal.Correction>
   9.000000E+99

> <Gold.Chemscore.Hbonds>
donor molecule, donor type, donor heavy atom, donor atom, acceptor molecule, acceptor atom, score
      L1  H     9    45       P1  7948  0.32
      P1  H  6896  6907       L1    13  0.35
      P1  H  6931  6943       L1    27  0.27
      P1  H 10752 10765       L1    11  0.57

> <Gold.Chemscore.Hbond.Weighted>
-7.7081

> <Gold.Chemscore.Metal.Weighted>
-0.0000

> <Gold.Chemscore.Lipo.Weighted>
-11.0108

> <Gold.Chemscore.Internal_Hbond.Weighted>
0.0000

> <Gold.Chemscore.DEClash.Weighted>
0.2258

> <Gold.Chemscore.DEInternal.Weighted>
2.5704

> <Gold.Chemscore.Rot.Weighted>
12.5515

> <Gold.Chemscore.Internal.Correction.Weighted>
   9.000000E+99

> <Gold.Protein.RotatedTorsions>
[ 6907 6896 6895 6894 ] final  -97.61 input  -60.11 | X-H torsion
[ 7974 7965 7964 7962 ] final  175.54 input  175.53 | X-H torsion
[ 8008 7997 7996 7995 ] final -171.39 input   59.86 | X-H torsion
[ 10167 10162 10161 10158 ] final  169.94 input  -65.29 | X-H torsion
[ 10718 10713 10712 10709 ] final  -78.83 input   66.30 | X-H torsion
[ 10763 10752 10751 10750 ] final -177.80 input  -60.55 | X-H torsion
[ 11005 11000 10999 10996 ] final -132.51 input  -57.11 | X-H torsion

> <Gold.Protein.ActiveResidues>
 VAL166  LYS551  ARG553  GLY616  TRP617  ASP618  TYR619  PRO620  LYS621  CYS622 
 ASP623  PHE694  ASN695  SER759  ASP760  ASP761  ALA762  ILE779  LEU786  VAL792 
 PHE793  MET794  SER795  GLU796  ALA797  LYS798  CYS799  TRP800  GLU811  SER814 

> <Gold.Protein.RotatedAtoms>
  150.7021  134.1322  159.4073 H   0  0  0  0  0  0  0  0  0  0  0  0  # atno 6907 bound_to 6896
  151.9308  135.0255  160.0538 H   0  0  0  0  0  0  0  0  0  0  0  0  # atno 6908 bound_to 6896
  152.2177  133.4924  159.5182 H   0  0  0  0  0  0  0  0  0  0  0  0  # atno 6909 bound_to 6896
  144.7200  139.9963  143.6440 H   0  0  0  0  0  0  0  0  0  0  0  0  # atno 7974 bound_to 7965
  155.9309  140.1091  157.1133 H   0  0  0  0  0  0  0  0  0  0  0  0  # atno 8008 bound_to 7997
  154.4070  140.1238  156.4867 H   0  0  0  0  0  0  0  0  0  0  0  0  # atno 8009 bound_to 7997
  155.7081  140.3471  155.4964 H   0  0  0  0  0  0  0  0  0  0  0  0  # atno 8010 bound_to 7997
  139.5005  144.3651  151.9784 H   0  0  0  0  0  0  0  0  0  0  0  0  # atno 10167 bound_to 10162
  156.0107  130.4529  150.3556 H   0  0  0  0  0  0  0  0  0  0  0  0  # atno 10718 bound_to 10713
  154.5556  135.2816  155.0968 H   0  0  0  0  0  0  0  0  0  0  0  0  # atno 10763 bound_to 10752
  154.2397  135.6359  153.5206 H   0  0  0  0  0  0  0  0  0  0  0  0  # atno 10764 bound_to 10752
  153.0015  135.5557  154.6135 H   0  0  0  0  0  0  0  0  0  0  0  0  # atno 10765 bound_to 10752
  140.9164  134.1501  157.4349 H   0  0  0  0  0  0  0  0  0  0  0  0  # atno 11005 bound_to 11000
  146.0372  139.3388  143.0719 LP  0  0  0  0  0  0  0  0  0  0  0  0  # atno 17320 bound_to 7965
  145.8380  140.9595  143.0814 LP  0  0  0  0  0  0  0  0  0  0  0  0  # atno 17321 bound_to 7965
  140.3087  144.3563  150.6040 LP  0  0  0  0  0  0  0  0  0  0  0  0  # atno 17342 bound_to 10162
  140.5816  143.2172  151.7418 LP  0  0  0  0  0  0  0  0  0  0  0  0  # atno 17343 bound_to 10162
  157.1647  131.0353  151.2824 LP  0  0  0  0  0  0  0  0  0  0  0  0  # atno 17370 bound_to 10713
  157.4281  130.7475  149.6967 LP  0  0  0  0  0  0  0  0  0  0  0  0  # atno 17371 bound_to 10713
  139.8767  134.9955  156.5747 LP  0  0  0  0  0  0  0  0  0  0  0  0  # atno 17394 bound_to 11000
  140.8044  133.8479  155.8755 LP  0  0  0  0  0  0  0  0  0  0  0  0  # atno 17395 bound_to 11000

$$$$
