AV-unprocessed.smi:478|AV-procd|sdf|2671|dock5
  -GOLD-   2262023 83D 1   1.00000     0.00000
 Structure written by MMmdl.
 41 42  0  0  0  0  0  0  0  0  1 V2000
  153.0454  139.1776  157.0757 C   0  0  0  0  0  0  0  0  0  0  0  0
  152.7284  138.1105  156.1208 N   0  0  0  0  0  0  0  0  0  0  0  0
  152.0676  136.9612  156.7496 C   0  0  0  0  0  0  0  0  0  0  0  0
  152.1305  138.6119  154.5746 S   0  0  0  0  0  0  0  0  0  0  0  0
  152.9712  139.7303  154.1195 O   0  0  0  0  0  0  0  0  0  0  0  0
  152.0010  137.4087  153.7374 O   0  0  0  0  0  0  0  0  0  0  0  0
  150.4591  139.2558  154.8582 C   0  0  0  0  0  0  0  0  0  0  0  0
  150.2321  140.3225  155.8064 C   0  0  0  0  0  0  0  0  0  0  0  0
  149.0151  140.8932  155.9066 C   0  0  0  0  0  0  0  0  0  0  0  0
  147.8909  140.4625  155.0669 C   0  0  0  0  0  0  0  0  0  0  0  0
  146.7725  140.9683  155.1623 O   0  0  0  0  0  0  0  0  0  0  0  0
  148.1650  139.4681  154.1669 N   0  0  0  0  0  0  0  0  0  0  0  0
  147.1225  138.9687  153.2557 C   0  0  0  0  0  0  0  0  0  0  0  0
  146.4451  137.6976  153.7869 C   0  0  0  0  0  0  0  0  0  0  0  0
  146.0478  137.6719  154.9541 O   0  0  0  0  0  0  0  0  0  0  0  0
  146.3395  136.6857  152.8943 N   0  0  0  0  0  0  0  0  0  0  0  0
  145.8161  135.4421  153.0144 C   0  0  0  0  0  0  0  0  0  0  0  0
  145.3720  135.0543  154.0939 O   0  0  0  0  0  0  0  0  0  0  0  0
  145.8086  134.6711  151.9110 N   0  0  0  0  0  0  0  0  0  0  0  0
  145.3052  133.3387  151.8264 C   0  0  0  0  0  0  0  0  0  0  0  0
  145.4896  132.6059  150.5150 C   0  0  0  0  0  0  0  0  0  0  0  0
  144.1230  133.0878  150.9156 C   0  0  0  0  0  0  0  0  0  0  0  0
  149.4458  138.8917  154.0550 C   0  0  0  0  0  0  0  0  0  0  0  0
  153.5570  138.7754  157.9506 H   0  0  0  0  0  0  0  0  0  0  0  0
  152.1320  139.6766  157.4012 H   0  0  0  0  0  0  0  0  0  0  0  0
  153.7001  139.9180  156.6161 H   0  0  0  0  0  0  0  0  0  0  0  0
  152.6206  136.6329  157.6301 H   0  0  0  0  0  0  0  0  0  0  0  0
  152.0155  136.1223  156.0566 H   0  0  0  0  0  0  0  0  0  0  0  0
  151.0535  137.2256  157.0518 H   0  0  0  0  0  0  0  0  0  0  0  0
  151.0372  140.6632  156.4407 H   0  0  0  0  0  0  0  0  0  0  0  0
  148.8613  141.6877  156.6219 H   0  0  0  0  0  0  0  0  0  0  0  0
  146.3509  139.7242  153.1014 H   0  0  0  0  0  0  0  0  0  0  0  0
  147.5449  138.7885  152.2650 H   0  0  0  0  0  0  0  0  0  0  0  0
  146.7136  136.8915  151.9795 H   0  0  0  0  0  0  0  0  0  0  0  0
  146.1992  135.0620  151.0650 H   0  0  0  0  0  0  0  0  0  0  0  0
  145.3559  132.7259  152.7254 H   0  0  0  0  0  0  0  0  0  0  0  0
  145.9872  133.1319  149.7024 H   0  0  0  0  0  0  0  0  0  0  0  0
  145.6789  131.5354  150.5610 H   0  0  0  0  0  0  0  0  0  0  0  0
  143.3987  132.3390  151.2300 H   0  0  0  0  0  0  0  0  0  0  0  0
  143.7101  133.9356  150.3720 H   0  0  0  0  0  0  0  0  0  0  0  0
  149.5495  138.1568  153.2698 H   0  0  0  0  0  0  0  0  0  0  0  0
  1  2  1  0  0  0  0
  1 24  1  0  0  0  0
  1 25  1  0  0  0  0
  1 26  1  0  0  0  0
  2  3  1  0  0  0  0
  2  4  1  0  0  0  0
  3 27  1  0  0  0  0
  3 28  1  0  0  0  0
  3 29  1  0  0  0  0
  4  5  2  0  0  0  0
  4  6  2  0  0  0  0
  4  7  1  0  0  0  0
  7 23  2  0  0  0  0
  7  8  1  0  0  0  0
  8  9  2  0  0  0  0
  8 30  1  0  0  0  0
  9 10  1  0  0  0  0
  9 31  1  0  0  0  0
 10 11  2  0  0  0  0
 10 12  1  0  0  0  0
 12 13  1  0  0  0  0
 12 23  1  0  0  0  0
 13 14  1  0  0  0  0
 13 32  1  0  0  0  0
 13 33  1  0  0  0  0
 14 15  2  0  0  0  0
 14 16  1  0  0  0  0
 16 17  1  0  0  0  0
 16 34  1  0  0  0  0
 17 18  2  0  0  0  0
 17 19  1  0  0  0  0
 19 20  1  0  0  0  0
 19 35  1  0  0  0  0
 20 22  1  0  0  0  0
 20 21  1  0  0  0  0
 20 36  1  0  0  0  0
 21 22  1  0  0  0  0
 21 37  1  0  0  0  0
 21 38  1  0  0  0  0
 22 39  1  0  0  0  0
 22 40  1  0  0  0  0
 23 41  1  0  0  0  0
M  END
> <s_m_source_file>
AV-unprocessed.smi

> <i_m_source_file_index>
478

> <i_lp_mmshare_version>
43012

> <i_f3d_flags>
0

> <s_epik_input>
W0NIM11OKFtDSDNdKVMoPU8pKD1PKWMxW2NIXVtjSF1jKD1PKW4oW2NIXTEpW0NIMl1DKD1PKVtOSF1DKD1PKVtOSF1bQ0hdMltDSDJdW0NIMl0y

> <s_epik_cmdline>
J2VwaWtfcHl0aG9uJywgJy1waCcsICc3LjAnLCAnLXRuJywgJzgnLCAnLW1hJywgJzIwMCcsICctbWV0YWxfYmluZGluZycsICctaW1hZScsICc8aW5maWxlLm1hZT4nLCAnLW9tYWUnLCAnPG91dGZpbGUubWFlPic=

> <r_lp_tautomer_probability>
1

> <r_epik_Ionization_Penalty>
3.37124e-05

> <r_epik_Ionization_Penalty_Charging>
7.23904e-09

> <r_epik_Ionization_Penalty_Neutral>
3.37051e-05

> <r_epik_State_Penalty>
-0

> <r_epik_Charging_Adjusted_Penalty>
7.23904e-09

> <i_epik_Tot_Q>
0

> <i_epik_Tot_abs_Q>
0

> <r_epik_Metal_State_Penalty>
-0

> <b_epik_Metal_Only>
0

> <s_lp_Force_Field>
OPLS_2005

> <r_lp_Energy>
28.3578

> <b_lp_Chiralities_Consistent>
1

> <s_lp_Variant>
AV-unprocessed.smi:478-1

> <Gold.Version>
5.8.1

> <Gold.Id.Protein>
6NUR|6NUR_protein|mol2

> <Gold.PLP.Fitness>
41.1555

> <Gold.PLP.PLP>
-31.2158

> <Gold.PLP.part.hbond>
-4.0000

> <Gold.PLP.part.metal>
0.0000

> <Gold.PLP.part.buried>
-2.8110

> <Gold.PLP.part.nonpolar>
-24.8759

> <Gold.PLP.part.repulsive>
0.5024

> <Gold.PLP.ligand.clash>
0.0000

> <Gold.PLP.ligand.torsion>
1.8395

> <Gold.PLP.Chemscore.Hbond>
2.6585

> <Gold.PLP.Chemscore.CHOScore>
1.0000

> <Gold.PLP.Chemscore.Metal>
0.0000

> <Gold.Chemscore.Hbonds>
donor molecule, donor type, donor heavy atom, donor atom, acceptor molecule, acceptor atom, score
      L1  H    16    34       P1  7948  0.06
      P1  H  7989  7998       L1     5  0.21
      P1  H  7997  8009       L1     5  0.29
      P1  H 10752 10763       L1     6  0.77
      L1  C    23    41       P1  7948  1.00
      L1  C    23    41       P1  7957  0.10

> <Gold.PLP.Chemscore.Internal.Correction>
2.6431

> <Gold.Rescore>
     Score         DG    S(hbond)    S(metal)    S(lipo)     H(rot)  DE(clash)    DE(int)     intcor
     13.63     -16.84       2.91        0.00      56.61       1.95       0.00       3.21       ----

> <Gold.Chemscore.Fitness>
13.6307

> <Gold.Chemscore.DG>
-16.8438

> <Gold.Chemscore.ZeroCoef>
-5.4800

> <Gold.Chemscore.Hbond>
2.9109

> <Gold.Chemscore.Metal>
0.0000

> <Gold.Chemscore.Lipo>
56.6061

> <Gold.Chemscore.Internal_Hbond>
0.0000

> <Gold.Chemscore.DEClash>
0.0000

> <Gold.Chemscore.DEInternal>
3.2132

> <Gold.Chemscore.Rot>
1.9459

> <Gold.Chemscore.Internal.Correction>
   9.000000E+99

> <Gold.Chemscore.Hbonds>
donor molecule, donor type, donor heavy atom, donor atom, acceptor molecule, acceptor atom, score
      L1  H    16    34       P1  7948  0.06
      P1  H  7989  7998       L1     5  0.07
      P1  H  7997  8009       L1     5  0.24
      P1  H 10752 10763       L1     6  0.71

> <Gold.Chemscore.Hbond.Weighted>
-9.7224

> <Gold.Chemscore.Metal.Weighted>
-0.0000

> <Gold.Chemscore.Lipo.Weighted>
-6.6229

> <Gold.Chemscore.Internal_Hbond.Weighted>
0.0000

> <Gold.Chemscore.DEClash.Weighted>
0.0000

> <Gold.Chemscore.DEInternal.Weighted>
3.2132

> <Gold.Chemscore.Rot.Weighted>
4.9815

> <Gold.Chemscore.Internal.Correction.Weighted>
   9.000000E+99

> <Gold.Protein.RotatedTorsions>
[ 6907 6896 6895 6894 ] final  -82.63 input  -60.11 | X-H torsion
[ 7974 7965 7964 7962 ] final  162.45 input  175.53 | X-H torsion
[ 8008 7997 7996 7995 ] final -117.76 input   59.86 | X-H torsion
[ 10167 10162 10161 10158 ] final  -24.43 input  -65.29 | X-H torsion
[ 10718 10713 10712 10709 ] final  137.65 input   66.30 | X-H torsion
[ 10763 10752 10751 10750 ] final   44.34 input  -60.55 | X-H torsion
[ 11005 11000 10999 10996 ] final  174.39 input  -57.11 | X-H torsion

> <Gold.Protein.ActiveResidues>
 VAL166  LYS551  ARG553  GLY616  TRP617  ASP618  TYR619  PRO620  LYS621  CYS622 
 ASP623  PHE694  ASN695  SER759  ASP760  ASP761  ALA762  ILE779  LEU786  VAL792 
 PHE793  MET794  SER795  GLU796  ALA797  LYS798  CYS799  TRP800  GLU811  SER814 

> <Gold.Protein.RotatedAtoms>
  150.6895  134.3635  159.4960 H   0  0  0  0  0  0  0  0  0  0  0  0  # atno 6907 bound_to 6896
  152.1460  134.9022  160.0560 H   0  0  0  0  0  0  0  0  0  0  0  0  # atno 6908 bound_to 6896
  152.0138  133.3837  159.4267 H   0  0  0  0  0  0  0  0  0  0  0  0  # atno 6909 bound_to 6896
  144.7636  139.8041  143.6323 H   0  0  0  0  0  0  0  0  0  0  0  0  # atno 7974 bound_to 7965
  155.0888  140.0395  157.2662 H   0  0  0  0  0  0  0  0  0  0  0  0  # atno 8008 bound_to 7997
  154.6848  140.2641  155.6846 H   0  0  0  0  0  0  0  0  0  0  0  0  # atno 8009 bound_to 7997
  156.2708  140.2771  156.1406 H   0  0  0  0  0  0  0  0  0  0  0  0  # atno 8010 bound_to 7997
  140.7288  143.4354  151.0738 H   0  0  0  0  0  0  0  0  0  0  0  0  # atno 10167 bound_to 10162
  157.4338  131.1051  151.0220 H   0  0  0  0  0  0  0  0  0  0  0  0  # atno 10718 bound_to 10713
  152.9843  135.6073  154.3259 H   0  0  0  0  0  0  0  0  0  0  0  0  # atno 10763 bound_to 10752
  154.2965  135.2773  155.2632 H   0  0  0  0  0  0  0  0  0  0  0  0  # atno 10764 bound_to 10752
  154.4904  135.5893  153.6511 H   0  0  0  0  0  0  0  0  0  0  0  0  # atno 10765 bound_to 10752
  140.3508  134.7197  157.4266 H   0  0  0  0  0  0  0  0  0  0  0  0  # atno 11005 bound_to 11000
  146.1723  139.4879  142.9919 LP  0  0  0  0  0  0  0  0  0  0  0  0  # atno 17320 bound_to 7965
  145.6540  141.0256  143.1745 LP  0  0  0  0  0  0  0  0  0  0  0  0  # atno 17321 bound_to 7965
  139.8015  143.8077  152.3163 LP  0  0  0  0  0  0  0  0  0  0  0  0  # atno 17342 bound_to 10162
  139.8095  144.7341  150.9716 LP  0  0  0  0  0  0  0  0  0  0  0  0  # atno 17343 bound_to 10162
  157.1107  130.6020  149.5481 LP  0  0  0  0  0  0  0  0  0  0  0  0  # atno 17370 bound_to 10713
  155.9923  130.4980  150.7334 LP  0  0  0  0  0  0  0  0  0  0  0  0  # atno 17371 bound_to 10713
  140.0705  134.5869  155.8647 LP  0  0  0  0  0  0  0  0  0  0  0  0  # atno 17394 bound_to 11000
  141.2013  133.6617  156.5941 LP  0  0  0  0  0  0  0  0  0  0  0  0  # atno 17395 bound_to 11000

$$$$
