AV-unprocessed.smi:909|AV-procd|sdf|4115|dock6
  -GOLD-   22720 2 13D 1   1.00000     0.00000
 Structure written by MMmdl.
 39 40  0  0  0  0  0  0  0  0  2 V2000
  151.3090  133.0784  156.5762 C   0  0  0  0  0  0  0  0  0  0  0  0
  150.7679  134.4757  156.4788 C   0  0  0  0  0  0  0  0  0  0  0  0
  151.4266  135.3820  155.7760 N   0  0  0  0  0  0  0  0  0  0  0  0
  150.6760  136.5578  155.8687 O   0  0  0  0  0  0  0  0  0  0  0  0
  149.5842  136.3114  156.6369 C   0  0  0  0  0  0  0  0  0  0  0  0
  148.6428  137.4488  156.8478 C   0  0  0  0  0  0  0  0  0  0  0  0
  149.5848  135.0114  157.0633 C   0  0  0  0  0  0  0  0  0  0  0  0
  148.5768  134.3026  157.9312 C   0  0  0  0  0  0  0  0  0  0  0  0
  148.3523  135.1045  159.2123 C   0  0  0  0  0  0  0  0  0  0  0  0
  149.2404  135.8526  159.6162 O   0  0  0  0  0  0  0  0  0  0  0  0
  147.1696  134.8971  159.8204 N   0  0  0  0  0  0  0  0  0  0  0  0
  146.5693  135.4451  161.0484 C   0  0  0  0  0  0  0  0  0  0  0  0
  147.1909  136.8561  161.1993 C   0  0  0  0  0  0  0  0  0  0  0  0
  147.0243  137.6748  160.2675 O   0  0  0  0  0  0  0  0  0  0  0  0
  147.8680  137.0896  162.2264 O   0  5  0  0  0  0  0  0  0  0  0  0
  145.0080  135.5461  161.0735 C   0  0  0  0  0  0  0  0  0  0  0  0
  144.2875  134.1894  161.2097 C   0  0  0  0  0  0  0  0  0  0  0  0
  144.8022  133.3958  162.4149 C   0  0  0  0  0  0  0  0  0  0  0  0
  146.3203  133.2095  162.3254 C   0  0  0  0  0  0  0  0  0  0  0  0
  147.0413  134.5650  162.2424 C   0  0  0  0  0  0  0  0  0  0  0  0
  151.9234  132.9604  157.4686 H   0  0  0  0  0  0  0  0  0  0  0  0
  151.9235  132.8257  155.7115 H   0  0  0  0  0  0  0  0  0  0  0  0
  150.5019  132.3474  156.6282 H   0  0  0  0  0  0  0  0  0  0  0  0
  147.7717  137.3512  156.1999 H   0  0  0  0  0  0  0  0  0  0  0  0
  149.1227  138.4025  156.6263 H   0  0  0  0  0  0  0  0  0  0  0  0
  148.2944  137.4784  157.8802 H   0  0  0  0  0  0  0  0  0  0  0  0
  147.6233  134.1811  157.4158 H   0  0  0  0  0  0  0  0  0  0  0  0
  148.9090  133.2960  158.1887 H   0  0  0  0  0  0  0  0  0  0  0  0
  146.5761  134.2236  159.3590 H   0  0  0  0  0  0  0  0  0  0  0  0
  144.7116  136.1521  161.9315 H   0  0  0  0  0  0  0  0  0  0  0  0
  144.6254  136.0864  160.2074 H   0  0  0  0  0  0  0  0  0  0  0  0
  143.2142  134.3535  161.3083 H   0  0  0  0  0  0  0  0  0  0  0  0
  144.4198  133.5926  160.3085 H   0  0  0  0  0  0  0  0  0  0  0  0
  144.5478  133.9184  163.3377 H   0  0  0  0  0  0  0  0  0  0  0  0
  144.3085  132.4249  162.4601 H   0  0  0  0  0  0  0  0  0  0  0  0
  146.6754  132.6560  163.1951 H   0  0  0  0  0  0  0  0  0  0  0  0
  146.5673  132.6040  161.4525 H   0  0  0  0  0  0  0  0  0  0  0  0
  148.1167  134.3865  162.1891 H   0  0  0  0  0  0  0  0  0  0  0  0
  146.8734  135.0975  163.1805 H   0  0  0  0  0  0  0  0  0  0  0  0
  1  2  1  0  0  0  0
  1 21  1  0  0  0  0
  1 22  1  0  0  0  0
  1 23  1  0  0  0  0
  2  7  1  0  0  0  0
  2  3  2  0  0  0  0
  3  4  1  0  0  0  0
  4  5  1  0  0  0  0
  5  6  1  0  0  0  0
  5  7  2  0  0  0  0
  6 24  1  0  0  0  0
  6 25  1  0  0  0  0
  6 26  1  0  0  0  0
  7  8  1  0  0  0  0
  8  9  1  0  0  0  0
  8 27  1  0  0  0  0
  8 28  1  0  0  0  0
  9 10  2  0  0  0  0
  9 11  1  0  0  0  0
 11 12  1  0  0  0  0
 11 29  1  0  0  0  0
 12 20  1  0  0  0  0
 12 13  1  0  0  0  0
 12 16  1  0  0  0  0
 13 14  2  0  0  0  0
 13 15  1  0  0  0  0
 16 17  1  0  0  0  0
 16 30  1  0  0  0  0
 16 31  1  0  0  0  0
 17 18  1  0  0  0  0
 17 32  1  0  0  0  0
 17 33  1  0  0  0  0
 18 19  1  0  0  0  0
 18 34  1  0  0  0  0
 18 35  1  0  0  0  0
 19 20  1  0  0  0  0
 19 36  1  0  0  0  0
 19 37  1  0  0  0  0
 20 38  1  0  0  0  0
 20 39  1  0  0  0  0
M  CHG  1  15  -1
M  END
> <s_m_source_file>
AV-unprocessed.smi

> <i_m_source_file_index>
909

> <i_lp_mmshare_version>
43012

> <i_f3d_flags>
0

> <s_epik_input>
W0NIM11jMW5vYyhbQ0gzXSljMVtDSDJdQyg9TylbTkhdQzIoQyg9TylbT0hdKVtDSDJdW0NIMl1bQ0gyXVtDSDJdW0NIMl0y

> <s_epik_cmdline>
J2VwaWtfcHl0aG9uJywgJy1waCcsICc3LjAnLCAnLXRuJywgJzgnLCAnLW1hJywgJzIwMCcsICctbWV0YWxfYmluZGluZycsICctaW1hZScsICc8aW5maWxlLm1hZT4nLCAnLW9tYWUnLCAnPG91dGZpbGUubWFlPic=

> <r_epik_Ionization_Penalty>
0.000391234

> <r_epik_Ionization_Penalty_Charging>
0.000391215

> <r_epik_Ionization_Penalty_Neutral>
1.90707e-08

> <r_epik_State_Penalty>
0.000239413

> <r_epik_Charging_Adjusted_Penalty>
0.000630628

> <i_epik_Tot_Q>
-1

> <i_epik_Tot_abs_Q>
1

> <r_epik_Metal_State_Penalty>
-0

> <b_epik_Metal_Only>
0

> <s_lp_Force_Field>
OPLS_2005

> <r_lp_Energy>
2.68806

> <b_lp_Chiralities_Consistent>
1

> <s_lp_Variant>
AV-unprocessed.smi:909-1

> <Gold.Version>
5.8.1

> <Gold.Id.Protein>
6NUR|6NUR_protein|mol2

> <Gold.PLP.Fitness>
39.6539

> <Gold.PLP.PLP>
-23.6417

> <Gold.PLP.part.hbond>
-4.9566

> <Gold.PLP.part.metal>
0.0000

> <Gold.PLP.part.buried>
-2.0016

> <Gold.PLP.part.nonpolar>
-16.8880

> <Gold.PLP.part.repulsive>
0.1724

> <Gold.PLP.ligand.clash>
0.0000

> <Gold.PLP.ligand.torsion>
1.0269

> <Gold.PLP.Chemscore.Hbond>
6.0000

> <Gold.PLP.Chemscore.CHOScore>
0.0000

> <Gold.PLP.Chemscore.Metal>
0.0000

> <Gold.Chemscore.Hbonds>
donor molecule, donor type, donor heavy atom, donor atom, acceptor molecule, acceptor atom, score
      P1  H  6896  6907       L1    10  1.00
      P1  H  6931  6943       L1    15  2.00
      P1  H  6934  6947       L1    14  1.85
      P1  H 10752 10764       L1     3  1.00

> <Gold.PLP.Chemscore.Internal.Correction>
0.0659

> <Gold.Rescore>
     Score         DG    S(hbond)    S(metal)    S(lipo)     H(rot)  DE(clash)    DE(int)     intcor
     17.03     -19.41       3.67        0.00      56.45       1.93       0.03       2.36       ----

> <Gold.Chemscore.Fitness>
17.0263

> <Gold.Chemscore.DG>
-19.4129

> <Gold.Chemscore.ZeroCoef>
-5.4800

> <Gold.Chemscore.Hbond>
3.6726

> <Gold.Chemscore.Metal>
0.0000

> <Gold.Chemscore.Lipo>
56.4471

> <Gold.Chemscore.Internal_Hbond>
0.0000

> <Gold.Chemscore.DEClash>
0.0270

> <Gold.Chemscore.DEInternal>
2.3595

> <Gold.Chemscore.Rot>
1.9289

> <Gold.Chemscore.Internal.Correction>
   9.000000E+99

> <Gold.Chemscore.Hbonds>
donor molecule, donor type, donor heavy atom, donor atom, acceptor molecule, acceptor atom, score
      P1  H  6896  6907       L1    10  0.40
      P1  H  6931  6943       L1    15  0.76
      P1  H  6934  6947       L1    14  0.44
      P1  H 10752 10764       L1     3  0.94

> <Gold.Chemscore.Hbond.Weighted>
-12.2665

> <Gold.Chemscore.Metal.Weighted>
-0.0000

> <Gold.Chemscore.Lipo.Weighted>
-6.6043

> <Gold.Chemscore.Internal_Hbond.Weighted>
0.0000

> <Gold.Chemscore.DEClash.Weighted>
0.0270

> <Gold.Chemscore.DEInternal.Weighted>
2.3595

> <Gold.Chemscore.Rot.Weighted>
4.9379

> <Gold.Chemscore.Internal.Correction.Weighted>
   9.000000E+99

> <Gold.Protein.RotatedTorsions>
[ 6907 6896 6895 6894 ] final  -59.06 input  -60.11 | X-H torsion
[ 7974 7965 7964 7962 ] final  -46.11 input  175.53 | X-H torsion
[ 8008 7997 7996 7995 ] final -150.76 input   59.86 | X-H torsion
[ 10167 10162 10161 10158 ] final  -94.17 input  -65.29 | X-H torsion
[ 10718 10713 10712 10709 ] final   97.69 input   66.30 | X-H torsion
[ 10763 10752 10751 10750 ] final  -40.86 input  -60.55 | X-H torsion
[ 11005 11000 10999 10996 ] final -150.26 input  -57.11 | X-H torsion

> <Gold.Protein.ActiveResidues>
 VAL166  LYS551  ARG553  GLY616  TRP617  ASP618  TYR619  PRO620  LYS621  CYS622 
 ASP623  PHE694  ASN695  SER759  ASP760  ASP761  ALA762  ILE779  LEU786  VAL792 
 PHE793  MET794  SER795  GLU796  ALA797  LYS798  CYS799  TRP800  GLU811  SER814 

> <Gold.Protein.RotatedAtoms>
  150.7959  134.7018  159.6553 H   0  0  0  0  0  0  0  0  0  0  0  0  # atno 6907 bound_to 6896
  152.4071  134.6185  160.0054 H   0  0  0  0  0  0  0  0  0  0  0  0  # atno 6908 bound_to 6896
  151.6439  133.3287  159.3172 H   0  0  0  0  0  0  0  0  0  0  0  0  # atno 6909 bound_to 6896
  145.9752  140.7341  142.9390 H   0  0  0  0  0  0  0  0  0  0  0  0  # atno 7974 bound_to 7965
  155.6287  140.0689  157.2655 H   0  0  0  0  0  0  0  0  0  0  0  0  # atno 8008 bound_to 7997
  154.4211  140.1771  156.1498 H   0  0  0  0  0  0  0  0  0  0  0  0  # atno 8009 bound_to 7997
  155.9950  140.3341  155.6793 H   0  0  0  0  0  0  0  0  0  0  0  0  # atno 8010 bound_to 7997
  140.3172  143.3070  152.0085 H   0  0  0  0  0  0  0  0  0  0  0  0  # atno 10167 bound_to 10162
  157.6908  131.0617  150.4682 H   0  0  0  0  0  0  0  0  0  0  0  0  # atno 10718 bound_to 10713
  153.9529  135.6748  153.4744 H   0  0  0  0  0  0  0  0  0  0  0  0  # atno 10763 bound_to 10752
  153.0875  135.4891  154.8623 H   0  0  0  0  0  0  0  0  0  0  0  0  # atno 10764 bound_to 10752
  154.7315  135.3139  154.8842 H   0  0  0  0  0  0  0  0  0  0  0  0  # atno 10765 bound_to 10752
  140.7420  134.3503  157.5145 H   0  0  0  0  0  0  0  0  0  0  0  0  # atno 11005 bound_to 11000
  144.6847  140.2816  143.7291 LP  0  0  0  0  0  0  0  0  0  0  0  0  # atno 17320 bound_to 7965
  145.7848  139.1905  143.2137 LP  0  0  0  0  0  0  0  0  0  0  0  0  # atno 17321 bound_to 7965
  139.4881  144.6339  151.7015 LP  0  0  0  0  0  0  0  0  0  0  0  0  # atno 17342 bound_to 10162
  140.5516  144.0416  150.6129 LP  0  0  0  0  0  0  0  0  0  0  0  0  # atno 17343 bound_to 10162
  156.5022  130.4119  149.6347 LP  0  0  0  0  0  0  0  0  0  0  0  0  # atno 17370 bound_to 10713
  156.3318  130.7335  151.2266 LP  0  0  0  0  0  0  0  0  0  0  0  0  # atno 17371 bound_to 10713
  139.8804  134.9087  156.2974 LP  0  0  0  0  0  0  0  0  0  0  0  0  # atno 17394 bound_to 11000
  140.9828  133.7257  156.0697 LP  0  0  0  0  0  0  0  0  0  0  0  0  # atno 17395 bound_to 11000

$$$$
