AV-unprocessed.smi:625|AV-procd|sdf|3103|dock6
  -GOLD-   22720 0 23D 1   1.00000     0.00000
 Structure written by MMmdl.
 49 51  0  0  0  0  0  0  0  0  1 V2000
  146.2975  138.4780  151.8099 C   0  0  0  0  0  0  0  0  0  0  0  0
  147.4925  138.7237  152.6025 N   0  0  0  0  0  0  0  0  0  0  0  0
  147.6363  139.7375  153.4739 C   0  0  0  0  0  0  0  0  0  0  0  0
  146.7391  140.5604  153.6604 O   0  0  0  0  0  0  0  0  0  0  0  0
  148.9276  139.7567  154.1673 C   0  0  0  0  0  0  0  0  0  0  0  0
  149.2218  140.8317  155.0948 C   0  0  0  0  0  0  0  0  0  0  0  0
  150.3846  140.8561  155.7757 C   0  0  0  0  0  0  0  0  0  0  0  0
  151.3964  139.8077  155.6133 C   0  0  0  0  0  0  0  0  0  0  0  0
  152.4498  139.8136  156.2502 O   0  0  0  0  0  0  0  0  0  0  0  0
  151.0906  138.8240  154.7144 N   0  0  0  0  0  0  0  0  0  0  0  0
  151.9895  137.6820  154.4857 C   0  0  0  0  0  0  0  0  0  0  0  0
  151.5152  136.4529  155.2687 C   0  0  0  0  0  0  0  0  0  0  0  0
  152.1381  136.0701  156.2591 O   0  0  0  0  0  0  0  0  0  0  0  0
  150.3945  135.8652  154.8213 N   0  0  0  0  0  0  0  0  0  0  0  0
  149.6682  134.7868  155.4884 C   0  0  2  0  0  0  0  0  0  0  0  0
  150.6850  133.7351  155.9606 C   0  0  0  0  0  0  0  0  0  0  0  0
  148.6063  134.1915  154.5276 C   0  0  1  0  0  0  0  0  0  0  0  0
  149.2138  133.3176  153.4032 C   0  0  0  0  0  0  0  0  0  0  0  0
  148.4422  131.9916  153.5258 C   0  0  2  0  0  0  0  0  0  0  0  0
  146.9824  132.2005  153.0836 C   0  0  0  0  0  0  0  0  0  0  0  0
  146.3927  133.0190  154.2461 C   0  0  0  0  0  0  0  0  0  0  0  0
  147.6031  133.2023  155.1809 C   0  0  1  0  0  0  0  0  0  0  0  0
  148.3035  131.8566  155.0360 C   0  0  0  0  0  0  0  0  0  0  0  0
  149.8728  138.8060  154.0053 C   0  0  0  0  0  0  0  0  0  0  0  0
  146.4449  137.6011  151.1798 H   0  0  0  0  0  0  0  0  0  0  0  0
  146.0760  139.3291  151.1650 H   0  0  0  0  0  0  0  0  0  0  0  0
  145.4366  138.2934  152.4535 H   0  0  0  0  0  0  0  0  0  0  0  0
  148.2599  138.0773  152.4908 H   0  0  0  0  0  0  0  0  0  0  0  0
  148.5091  141.6286  155.2521 H   0  0  0  0  0  0  0  0  0  0  0  0
  150.5771  141.6680  156.4615 H   0  0  0  0  0  0  0  0  0  0  0  0
  152.0266  137.4587  153.4179 H   0  0  0  0  0  0  0  0  0  0  0  0
  153.0200  137.9007  154.7689 H   0  0  0  0  0  0  0  0  0  0  0  0
  149.9674  136.2456  153.9891 H   0  0  0  0  0  0  0  0  0  0  0  0
  149.1604  135.1729  156.3734 H   0  0  0  0  0  0  0  0  0  0  0  0
  150.2013  132.9250  156.5060 H   0  0  0  0  0  0  0  0  0  0  0  0
  151.4235  134.1787  156.6294 H   0  0  0  0  0  0  0  0  0  0  0  0
  151.2214  133.2941  155.1196 H   0  0  0  0  0  0  0  0  0  0  0  0
  148.0515  135.0216  154.0875 H   0  0  0  0  0  0  0  0  0  0  0  0
  149.1033  133.7732  152.4185 H   0  0  0  0  0  0  0  0  0  0  0  0
  150.2774  133.1388  153.5654 H   0  0  0  0  0  0  0  0  0  0  0  0
  148.9338  131.1531  153.0321 H   0  0  0  0  0  0  0  0  0  0  0  0
  146.9109  132.7216  152.1283 H   0  0  0  0  0  0  0  0  0  0  0  0
  146.4635  131.2460  152.9854 H   0  0  0  0  0  0  0  0  0  0  0  0
  145.9682  133.9685  153.9187 H   0  0  0  0  0  0  0  0  0  0  0  0
  145.6025  132.4571  154.7451 H   0  0  0  0  0  0  0  0  0  0  0  0
  147.3048  133.4493  156.1984 H   0  0  0  0  0  0  0  0  0  0  0  0
  147.6841  131.0109  155.3399 H   0  0  0  0  0  0  0  0  0  0  0  0
  149.2597  131.8047  155.5590 H   0  0  0  0  0  0  0  0  0  0  0  0
  149.7697  137.9535  153.3490 H   0  0  0  0  0  0  0  0  0  0  0  0
  1  2  1  0  0  0  0
  1 25  1  0  0  0  0
  1 26  1  0  0  0  0
  1 27  1  0  0  0  0
  2  3  1  0  0  0  0
  2 28  1  0  0  0  0
  3  4  2  0  0  0  0
  3  5  1  0  0  0  0
  5 24  2  0  0  0  0
  5  6  1  0  0  0  0
  6  7  2  0  0  0  0
  6 29  1  0  0  0  0
  7  8  1  0  0  0  0
  7 30  1  0  0  0  0
  8  9  2  0  0  0  0
  8 10  1  0  0  0  0
 10 11  1  0  0  0  0
 10 24  1  0  0  0  0
 11 12  1  0  0  0  0
 11 31  1  0  0  0  0
 11 32  1  0  0  0  0
 12 13  2  0  0  0  0
 12 14  1  0  0  0  0
 14 15  1  0  0  0  0
 14 33  1  0  0  0  0
 15 16  1  0  0  0  0
 15 17  1  0  0  0  0
 15 34  1  0  0  0  0
 16 35  1  0  0  0  0
 16 36  1  0  0  0  0
 16 37  1  0  0  0  0
 17 22  1  0  0  0  0
 17 18  1  0  0  0  0
 17 38  1  0  0  0  0
 18 19  1  0  0  0  0
 18 39  1  0  0  0  0
 18 40  1  0  0  0  0
 19 23  1  0  0  0  0
 19 20  1  0  0  0  0
 19 41  1  0  0  0  0
 20 21  1  0  0  0  0
 20 42  1  0  0  0  0
 20 43  1  0  0  0  0
 21 22  1  0  0  0  0
 21 44  1  0  0  0  0
 21 45  1  0  0  0  0
 22 23  1  0  0  0  0
 22 46  1  0  0  0  0
 23 47  1  0  0  0  0
 23 48  1  0  0  0  0
 24 49  1  0  0  0  0
M  END
> <s_m_source_file>
AV-unprocessed.smi

> <i_m_source_file_index>
625

> <i_lp_mmshare_version>
43012

> <i_f3d_flags>
0

> <s_epik_input>
W0NIM11bTkhdQyg9TyljMVtjSF1bY0hdYyg9TyluKFtjSF0xKVtDSDJdQyg9TylbTkhdW0NASF0oW0NIM10pW0NASF0oW0NIMl1bQ0BIXTIzKVtDQEhdKFtDSDJdMylbQ0gyXVtDSDJdMg==

> <s_epik_cmdline>
J2VwaWtfcHl0aG9uJywgJy1waCcsICc3LjAnLCAnLXRuJywgJzgnLCAnLW1hJywgJzIwMCcsICctbWV0YWxfYmluZGluZycsICctaW1hZScsICc8aW5maWxlLm1hZT4nLCAnLW9tYWUnLCAnPG91dGZpbGUubWFlPic=

> <r_lp_tautomer_probability>
1

> <r_epik_Ionization_Penalty>
3.7129e-07

> <r_epik_Ionization_Penalty_Charging>
5.04114e-08

> <r_epik_Ionization_Penalty_Neutral>
3.20879e-07

> <r_epik_State_Penalty>
-0

> <r_epik_Charging_Adjusted_Penalty>
5.04114e-08

> <i_epik_Tot_Q>
0

> <i_epik_Tot_abs_Q>
0

> <r_epik_Metal_State_Penalty>
-0

> <b_epik_Metal_Only>
0

> <s_lp_Force_Field>
OPLS_2005

> <r_lp_Energy>
63.7952

> <b_lp_Chiralities_Consistent>
1

> <s_lp_Variant>
AV-unprocessed.smi:625-3

> <Gold.Version>
5.8.1

> <Gold.Id.Protein>
6NUR|6NUR_protein|mol2

> <Gold.PLP.Fitness>
48.8840

> <Gold.PLP.PLP>
-38.1340

> <Gold.PLP.part.hbond>
-4.2223

> <Gold.PLP.part.metal>
0.0000

> <Gold.PLP.part.buried>
3.9403

> <Gold.PLP.part.nonpolar>
-39.2875

> <Gold.PLP.part.repulsive>
0.3124

> <Gold.PLP.ligand.clash>
0.0000

> <Gold.PLP.ligand.torsion>
0.6731

> <Gold.PLP.Chemscore.Hbond>
3.0086

> <Gold.PLP.Chemscore.CHOScore>
1.0000

> <Gold.PLP.Chemscore.Metal>
0.0000

> <Gold.Chemscore.Hbonds>
donor molecule, donor type, donor heavy atom, donor atom, acceptor molecule, acceptor atom, score
      L1  H     2    28       P1  7948  0.95
      L1  H    14    33       P1  7948  0.26
      P1  H  7997  8010       L1     9  1.00
      P1  H 10752 10765       L1    13  0.64
      L1  C    24    49       P1  7948  1.00

> <Gold.PLP.Chemscore.Internal.Correction>
0.0704

> <Gold.Rescore>
     Score         DG    S(hbond)    S(metal)    S(lipo)     H(rot)  DE(clash)    DE(int)     intcor
     15.41     -19.29       2.30        0.00      88.99       1.67       1.68       2.20       ----

> <Gold.Chemscore.Fitness>
15.4060

> <Gold.Chemscore.DG>
-19.2859

> <Gold.Chemscore.ZeroCoef>
-5.4800

> <Gold.Chemscore.Hbond>
2.2968

> <Gold.Chemscore.Metal>
0.0000

> <Gold.Chemscore.Lipo>
88.9913

> <Gold.Chemscore.Internal_Hbond>
0.0000

> <Gold.Chemscore.DEClash>
1.6777

> <Gold.Chemscore.DEInternal>
2.2021

> <Gold.Chemscore.Rot>
1.6709

> <Gold.Chemscore.Internal.Correction>
   9.000000E+99

> <Gold.Chemscore.Hbonds>
donor molecule, donor type, donor heavy atom, donor atom, acceptor molecule, acceptor atom, score
      L1  H     2    28       P1  7948  0.86
      L1  H    14    33       P1  7948  0.06
      P1  H  7997  8010       L1     9  1.00
      P1  H 10752 10765       L1    13  0.05

> <Gold.Chemscore.Hbond.Weighted>
-7.6713

> <Gold.Chemscore.Metal.Weighted>
-0.0000

> <Gold.Chemscore.Lipo.Weighted>
-10.4120

> <Gold.Chemscore.Internal_Hbond.Weighted>
0.0000

> <Gold.Chemscore.DEClash.Weighted>
1.6777

> <Gold.Chemscore.DEInternal.Weighted>
2.2021

> <Gold.Chemscore.Rot.Weighted>
4.2774

> <Gold.Chemscore.Internal.Correction.Weighted>
   9.000000E+99

> <Gold.Protein.RotatedTorsions>
[ 6907 6896 6895 6894 ] final -106.82 input  -60.11 | X-H torsion
[ 7974 7965 7964 7962 ] final  150.46 input  175.53 | X-H torsion
[ 8008 7997 7996 7995 ] final   75.93 input   59.86 | X-H torsion
[ 10167 10162 10161 10158 ] final  160.12 input  -65.29 | X-H torsion
[ 10718 10713 10712 10709 ] final   93.80 input   66.30 | X-H torsion
[ 10763 10752 10751 10750 ] final -125.84 input  -60.55 | X-H torsion
[ 11005 11000 10999 10996 ] final  -94.67 input  -57.11 | X-H torsion

> <Gold.Protein.ActiveResidues>
 VAL166  LYS551  ARG553  GLY616  TRP617  ASP618  TYR619  PRO620  LYS621  CYS622 
 ASP623  PHE694  ASN695  SER759  ASP760  ASP761  ALA762  ILE779  LEU786  VAL792 
 PHE793  MET794  SER795  GLU796  ALA797  LYS798  CYS799  TRP800  GLU811  SER814 

> <Gold.Protein.RotatedAtoms>
  150.7410  133.9919  159.3609 H   0  0  0  0  0  0  0  0  0  0  0  0  # atno 6907 bound_to 6896
  151.7868  135.0745  160.0391 H   0  0  0  0  0  0  0  0  0  0  0  0  # atno 6908 bound_to 6896
  152.3236  133.5844  159.5797 H   0  0  0  0  0  0  0  0  0  0  0  0  # atno 6909 bound_to 6896
  144.8362  139.6411  143.6037 H   0  0  0  0  0  0  0  0  0  0  0  0  # atno 7974 bound_to 7965
  155.8200  140.3470  155.5509 H   0  0  0  0  0  0  0  0  0  0  0  0  # atno 8008 bound_to 7997
  155.8351  140.0933  157.1789 H   0  0  0  0  0  0  0  0  0  0  0  0  # atno 8009 bound_to 7997
  154.4004  140.1405  156.3649 H   0  0  0  0  0  0  0  0  0  0  0  0  # atno 8010 bound_to 7997
  139.4837  144.4665  151.8635 H   0  0  0  0  0  0  0  0  0  0  0  0  # atno 10167 bound_to 10162
  157.6952  131.0490  150.4089 H   0  0  0  0  0  0  0  0  0  0  0  0  # atno 10718 bound_to 10713
  154.8740  135.4016  154.3334 H   0  0  0  0  0  0  0  0  0  0  0  0  # atno 10763 bound_to 10752
  153.4144  135.7021  153.6342 H   0  0  0  0  0  0  0  0  0  0  0  0  # atno 10764 bound_to 10752
  153.5031  135.3723  155.2520 H   0  0  0  0  0  0  0  0  0  0  0  0  # atno 10765 bound_to 10752
  141.1464  133.7972  157.0330 H   0  0  0  0  0  0  0  0  0  0  0  0  # atno 11005 bound_to 11000
  146.2661  139.6523  142.9328 LP  0  0  0  0  0  0  0  0  0  0  0  0  # atno 17320 bound_to 7965
  145.4789  141.0437  143.2657 LP  0  0  0  0  0  0  0  0  0  0  0  0  # atno 17321 bound_to 7965
  140.4130  144.2343  150.5888 LP  0  0  0  0  0  0  0  0  0  0  0  0  # atno 17342 bound_to 10162
  140.4947  143.2336  151.8766 LP  0  0  0  0  0  0  0  0  0  0  0  0  # atno 17343 bound_to 10162
  156.4475  130.4004  149.6657 LP  0  0  0  0  0  0  0  0  0  0  0  0  # atno 17370 bound_to 10713
  156.3819  130.7583  151.2577 LP  0  0  0  0  0  0  0  0  0  0  0  0  # atno 17371 bound_to 10713
  140.0741  134.9685  157.1517 LP  0  0  0  0  0  0  0  0  0  0  0  0  # atno 17394 bound_to 11000
  140.3668  134.2434  155.7181 LP  0  0  0  0  0  0  0  0  0  0  0  0  # atno 17395 bound_to 11000

$$$$
