AV-unprocessed.smi:11|AV-procd|sdf|55|dock3
  -GOLD-   2262015173D 1   1.00000     0.00000
 Structure written by MMmdl.
 33 35  0  0  0  0  0  0  0  0  1 V2000
  150.8693  137.4935  158.4798 C   0  0  0  0  0  0  0  0  0  0  0  0
  151.5289  138.7224  159.1276 C   0  0  0  0  0  0  0  0  0  0  0  0
  152.5641  139.4621  158.2441 C   0  0  1  0  0  0  0  0  0  0  0  0
  153.6790  138.6140  158.0487 O   0  0  0  0  0  0  0  0  0  0  0  0
  151.9999  139.9567  156.9031 C   0  0  0  0  0  0  0  0  0  0  0  0
  151.3762  141.3036  157.2628 C   0  0  0  0  0  0  0  0  0  0  0  0
  152.2264  141.8331  158.3193 N   0  0  0  0  0  0  0  0  0  0  0  0
  151.8418  142.9600  159.0736 C   0  0  0  0  0  0  0  0  0  0  0  0
  151.1040  143.9184  158.4559 N   0  0  0  0  0  0  0  0  0  0  0  0
  150.7138  145.0015  159.1336 C   0  0  0  0  0  0  0  0  0  0  0  0
  150.9522  145.3196  160.4078 N   0  0  0  0  0  0  0  0  0  0  0  0
  151.7057  144.3661  161.0240 C   0  0  0  0  0  0  0  0  0  0  0  0
  152.1475  144.3730  162.3303 N   0  0  0  0  0  0  0  0  0  0  0  0
  152.8971  143.2394  162.5900 C   0  0  0  0  0  0  0  0  0  0  0  0
  152.9555  142.4731  161.4538 C   0  0  0  0  0  0  0  0  0  0  0  0
  152.1963  143.1622  160.4398 C   0  0  0  0  0  0  0  0  0  0  0  0
  153.0249  140.7698  158.9139 C   0  0  0  0  0  0  0  0  0  0  0  0
  151.9682  145.0920  163.0164 H   0  0  0  0  0  0  0  0  0  0  0  0
  150.1993  137.0044  159.1869 H   0  0  0  0  0  0  0  0  0  0  0  0
  151.6104  136.7566  158.1699 H   0  0  0  0  0  0  0  0  0  0  0  0
  150.2757  137.7622  157.6069 H   0  0  0  0  0  0  0  0  0  0  0  0
  150.7463  139.4168  159.4354 H   0  0  0  0  0  0  0  0  0  0  0  0
  152.0156  138.4016  160.0496 H   0  0  0  0  0  0  0  0  0  0  0  0
  153.4620  137.7541  158.3754 H   0  0  0  0  0  0  0  0  0  0  0  0
  152.8141  140.1240  156.1960 H   0  0  0  0  0  0  0  0  0  0  0  0
  151.2948  139.2758  156.4285 H   0  0  0  0  0  0  0  0  0  0  0  0
  151.3400  141.9746  156.4043 H   0  0  0  0  0  0  0  0  0  0  0  0
  150.3605  141.1648  157.6354 H   0  0  0  0  0  0  0  0  0  0  0  0
  150.1270  145.7157  158.5755 H   0  0  0  0  0  0  0  0  0  0  0  0
  153.3317  143.0713  163.5644 H   0  0  0  0  0  0  0  0  0  0  0  0
  153.4719  141.5322  161.3395 H   0  0  0  0  0  0  0  0  0  0  0  0
  152.9126  140.7229  159.9976 H   0  0  0  0  0  0  0  0  0  0  0  0
  154.0729  140.9755  158.6920 H   0  0  0  0  0  0  0  0  0  0  0  0
  1  2  1  0  0  0  0
  1 19  1  0  0  0  0
  1 20  1  0  0  0  0
  1 21  1  0  0  0  0
  2  3  1  0  0  0  0
  2 22  1  0  0  0  0
  2 23  1  0  0  0  0
  3 17  1  0  0  0  0
  3  4  1  0  0  0  0
  3  5  1  0  0  0  0
  4 24  1  0  0  0  0
  5  6  1  0  0  0  0
  5 25  1  0  0  0  0
  5 26  1  0  0  0  0
  6  7  1  0  0  0  0
  6 27  1  0  0  0  0
  6 28  1  0  0  0  0
  7  8  1  0  0  0  0
  7 17  1  0  0  0  0
  8 16  1  0  0  0  0
  8  9  2  0  0  0  0
  9 10  1  0  0  0  0
 10 11  2  0  0  0  0
 10 29  1  0  0  0  0
 11 12  1  0  0  0  0
 12 16  2  0  0  0  0
 12 13  1  0  0  0  0
 13 18  1  0  0  0  0
 13 14  1  0  0  0  0
 14 15  2  0  0  0  0
 14 30  1  0  0  0  0
 15 16  1  0  0  0  0
 15 31  1  0  0  0  0
 17 32  1  0  0  0  0
 17 33  1  0  0  0  0
M  END
> <s_m_source_file>
AV-unprocessed.smi

> <i_m_source_file_index>
11

> <i_lp_mmshare_version>
43012

> <i_f3d_flags>
0

> <s_epik_input>
W0NIM11bQ0gyXVtDQEBdMShbT0hdKVtDSDJdW0NIMl1OKFtDSDJdMSljKG5bY0hdbjIpYyhjMjMpW2NIXVtjSF1bbkhdMw==

> <s_epik_cmdline>
J2VwaWtfcHl0aG9uJywgJy1waCcsICc3LjAnLCAnLXRuJywgJzgnLCAnLW1hJywgJzIwMCcsICctbWV0YWxfYmluZGluZycsICctaW1hZScsICc8aW5maWxlLm1hZT4nLCAnLW9tYWUnLCAnPG91dGZpbGUubWFlPic=

> <r_lp_tautomer_probability>
0.999998

> <r_epik_Ionization_Penalty>
0.0511253

> <r_epik_Ionization_Penalty_Charging>
0

> <r_epik_Ionization_Penalty_Neutral>
0.0511253

> <r_epik_State_Penalty>
0.0394181

> <r_epik_Charging_Adjusted_Penalty>
0.0394181

> <i_epik_Tot_Q>
0

> <i_epik_Tot_abs_Q>
0

> <r_epik_Metal_State_Penalty>
0.0367127

> <b_epik_Metal_Only>
0

> <s_lp_Force_Field>
OPLS_2005

> <r_lp_Energy>
27.4132

> <b_lp_Chiralities_Consistent>
1

> <s_lp_Variant>
AV-unprocessed.smi:11-1

> <Gold.Version>
5.8.1

> <Gold.Id.Protein>
6NUR|6NUR_protein|mol2

> <Gold.PLP.Fitness>
41.9099

> <Gold.PLP.PLP>
-36.4155

> <Gold.PLP.part.hbond>
-2.7758

> <Gold.PLP.part.metal>
0.0000

> <Gold.PLP.part.buried>
-6.6561

> <Gold.PLP.part.nonpolar>
-27.3500

> <Gold.PLP.part.repulsive>
0.4139

> <Gold.PLP.ligand.clash>
0.0000

> <Gold.PLP.ligand.torsion>
0.2416

> <Gold.PLP.Chemscore.Hbond>
0.9120

> <Gold.PLP.Chemscore.CHOScore>
1.0000

> <Gold.PLP.Chemscore.Metal>
0.0000

> <Gold.Chemscore.Hbonds>
donor molecule, donor type, donor heavy atom, donor atom, acceptor molecule, acceptor atom, score
      P1  H  7997  8010       L1     4  0.86
      L1  C    10    29       P1  8029  0.90

> <Gold.PLP.Chemscore.Internal.Correction>
0.2415

> <Gold.Rescore>
     Score         DG    S(hbond)    S(metal)    S(lipo)     H(rot)  DE(clash)    DE(int)     intcor
      8.65      -9.76       0.00        0.00      67.87       1.43       0.13       0.98       ----

> <Gold.Chemscore.Fitness>
8.6457

> <Gold.Chemscore.DG>
-9.7638

> <Gold.Chemscore.ZeroCoef>
-5.4800

> <Gold.Chemscore.Hbond>
0.0000

> <Gold.Chemscore.Metal>
0.0000

> <Gold.Chemscore.Lipo>
67.8667

> <Gold.Chemscore.Internal_Hbond>
0.0000

> <Gold.Chemscore.DEClash>
0.1337

> <Gold.Chemscore.DEInternal>
0.9845

> <Gold.Chemscore.Rot>
1.4283

> <Gold.Chemscore.Internal.Correction>
   9.000000E+99

> <Gold.Chemscore.Hbonds>
donor molecule, donor type, donor heavy atom, donor atom, acceptor molecule, acceptor atom, score
      P1  H  7997  8010       L1     4  0.15

> <Gold.Chemscore.Hbond.Weighted>
-0.0000

> <Gold.Chemscore.Metal.Weighted>
-0.0000

> <Gold.Chemscore.Lipo.Weighted>
-7.9404

> <Gold.Chemscore.Internal_Hbond.Weighted>
0.0000

> <Gold.Chemscore.DEClash.Weighted>
0.1337

> <Gold.Chemscore.DEInternal.Weighted>
0.9845

> <Gold.Chemscore.Rot.Weighted>
3.6566

> <Gold.Chemscore.Internal.Correction.Weighted>
   9.000000E+99

> <Gold.Protein.RotatedTorsions>
[ 6907 6896 6895 6894 ] final   -2.37 input  -60.11 | X-H torsion
[ 7974 7965 7964 7962 ] final   37.81 input  175.53 | X-H torsion
[ 8008 7997 7996 7995 ] final    8.23 input   59.86 | X-H torsion
[ 10167 10162 10161 10158 ] final   22.08 input  -65.29 | X-H torsion
[ 10718 10713 10712 10709 ] final  126.08 input   66.30 | X-H torsion
[ 10763 10752 10751 10750 ] final  158.24 input  -60.55 | X-H torsion
[ 11005 11000 10999 10996 ] final  115.78 input  -57.11 | X-H torsion

> <Gold.Protein.ActiveResidues>
 VAL166  LYS551  ARG553  GLY616  TRP617  ASP618  TYR619  PRO620  LYS621  CYS622 
 ASP623  PHE694  ASN695  SER759  ASP760  ASP761  ALA762  ILE779  LEU786  VAL792 
 PHE793  MET794  SER795  GLU796  ALA797  LYS798  CYS799  TRP800  GLU811  SER814 

> <Gold.Protein.RotatedAtoms>
  151.5311  135.1068  159.9902 H   0  0  0  0  0  0  0  0  0  0  0  0  # atno 6907 bound_to 6896
  152.4578  133.7755  159.6833 H   0  0  0  0  0  0  0  0  0  0  0  0  # atno 6908 bound_to 6896
  150.8528  133.7695  159.3044 H   0  0  0  0  0  0  0  0  0  0  0  0  # atno 6909 bound_to 6896
  146.1110  139.5849  142.9352 H   0  0  0  0  0  0  0  0  0  0  0  0  # atno 7974 bound_to 7965
  154.7641  140.2790  155.6190 H   0  0  0  0  0  0  0  0  0  0  0  0  # atno 8008 bound_to 7997
  156.2921  140.2654  156.2354 H   0  0  0  0  0  0  0  0  0  0  0  0  # atno 8009 bound_to 7997
  154.9981  140.0373  157.2338 H   0  0  0  0  0  0  0  0  0  0  0  0  # atno 8010 bound_to 7997
  140.5377  143.9732  150.6501 H   0  0  0  0  0  0  0  0  0  0  0  0  # atno 10167 bound_to 10162
  157.5449  131.1096  150.8798 H   0  0  0  0  0  0  0  0  0  0  0  0  # atno 10718 bound_to 10713
  154.2129  135.2785  155.2952 H   0  0  0  0  0  0  0  0  0  0  0  0  # atno 10763 bound_to 10752
  154.5764  135.5603  153.7147 H   0  0  0  0  0  0  0  0  0  0  0  0  # atno 10764 bound_to 10752
  153.0060  135.6334  154.2268 H   0  0  0  0  0  0  0  0  0  0  0  0  # atno 10765 bound_to 10752
  139.9020  134.9589  156.7098 H   0  0  0  0  0  0  0  0  0  0  0  0  # atno 11005 bound_to 11000
  145.5664  141.0399  143.2198 LP  0  0  0  0  0  0  0  0  0  0  0  0  # atno 17320 bound_to 7965
  144.7511  139.7191  143.7272 LP  0  0  0  0  0  0  0  0  0  0  0  0  # atno 17321 bound_to 7965
  140.3124  143.3189  152.0866 LP  0  0  0  0  0  0  0  0  0  0  0  0  # atno 17342 bound_to 10162
  139.4977  144.6627  151.6427 LP  0  0  0  0  0  0  0  0  0  0  0  0  # atno 17343 bound_to 10162
  156.9340  130.5360  149.5279 LP  0  0  0  0  0  0  0  0  0  0  0  0  # atno 17370 bound_to 10713
  156.0527  130.5594  150.9025 LP  0  0  0  0  0  0  0  0  0  0  0  0  # atno 17371 bound_to 10713
  140.7085  133.9244  155.8069 LP  0  0  0  0  0  0  0  0  0  0  0  0  # atno 17394 bound_to 11000
  141.0318  134.0745  157.4005 LP  0  0  0  0  0  0  0  0  0  0  0  0  # atno 17395 bound_to 11000

$$$$
