AV-unprocessed.smi:1006|AV-procd|sdf|4396|dock2
  -GOLD-   22720 2333D 1   1.00000     0.00000
 Structure written by MMmdl.
 47 49  0  0  0  0  0  0  0  0  3 V2000
  149.6633  132.7528  152.1249 C   0  0  0  0  0  0  0  0  0  0  0  0
  150.2241  133.3271  153.4085 C   0  0  0  0  0  0  0  0  0  0  0  0
  150.9085  132.5294  154.3481 C   0  0  0  0  0  0  0  0  0  0  0  0
  151.3849  133.1759  155.5018 C   0  0  0  0  0  0  0  0  0  0  0  0
  152.0738  132.4690  156.4839 N   0  0  0  0  0  0  0  0  0  0  0  0
  151.1948  134.4958  155.6988 N   0  0  0  0  0  0  0  0  0  0  0  0
  150.5365  135.1959  154.7652 C   0  0  0  0  0  0  0  0  0  0  0  0
  150.2854  136.9482  154.9903 S   0  0  0  0  0  0  0  0  0  0  0  0
  151.9775  137.5649  155.2560 C   0  0  0  0  0  0  0  0  0  0  0  0
  152.0257  139.1008  155.3116 C   0  0  2  0  0  0  0  0  0  0  0  0
  153.1709  139.5521  154.6145 O   0  0  0  0  0  0  0  0  0  0  0  0
  152.0535  139.6272  156.7598 C   0  0  0  0  0  0  0  0  0  0  0  0
  151.3071  140.8836  156.9242 N   0  0  0  0  0  0  0  0  0  0  0  0
  150.4887  141.5269  156.0476 C   0  0  0  0  0  0  0  0  0  0  0  0
  150.0306  142.6521  156.6621 N   0  3  0  0  0  0  0  0  0  0  0  0
  150.5637  142.7296  157.9504 C   0  0  0  0  0  0  0  0  0  0  0  0
  150.3930  143.6809  158.9491 C   0  0  0  0  0  0  0  0  0  0  0  0
  151.0840  143.4719  160.1638 C   0  0  0  0  0  0  0  0  0  0  0  0
  150.9190  144.4927  161.2768 C   0  0  0  0  0  0  0  0  0  0  0  0
  151.9153  142.3362  160.3445 C   0  0  0  0  0  0  0  0  0  0  0  0
  152.6570  142.1233  161.6532 C   0  0  0  0  0  0  0  0  0  0  0  0
  152.0749  141.3798  159.3164 C   0  0  0  0  0  0  0  0  0  0  0  0
  151.3852  141.5988  158.1259 C   0  0  0  0  0  0  0  0  0  0  0  0
  150.0544  134.6534  153.6378 N   0  3  0  0  0  0  0  0  0  0  0  0
  149.6258  131.6637  152.1669 H   0  0  0  0  0  0  0  0  0  0  0  0
  150.2868  133.0411  151.2783 H   0  0  0  0  0  0  0  0  0  0  0  0
  148.6513  133.1192  151.9494 H   0  0  0  0  0  0  0  0  0  0  0  0
  151.0601  131.4716  154.1878 H   0  0  0  0  0  0  0  0  0  0  0  0
  152.2510  131.4785  156.3985 H   0  0  0  0  0  0  0  0  0  0  0  0
  152.4454  132.9301  157.3022 H   0  0  0  0  0  0  0  0  0  0  0  0
  152.3443  137.1504  156.1956 H   0  0  0  0  0  0  0  0  0  0  0  0
  152.6317  137.1971  154.4644 H   0  0  0  0  0  0  0  0  0  0  0  0
  151.1457  139.5039  154.8084 H   0  0  0  0  0  0  0  0  0  0  0  0
  152.9105  139.8089  153.7428 H   0  0  0  0  0  0  0  0  0  0  0  0
  151.5950  138.8965  157.4273 H   0  0  0  0  0  0  0  0  0  0  0  0
  153.0753  139.7626  157.1145 H   0  0  0  0  0  0  0  0  0  0  0  0
  150.2463  141.2040  155.0453 H   0  0  0  0  0  0  0  0  0  0  0  0
  149.7601  144.5442  158.8034 H   0  0  0  0  0  0  0  0  0  0  0  0
  150.4757  144.0286  162.1580 H   0  0  0  0  0  0  0  0  0  0  0  0
  150.2708  145.3146  160.9712 H   0  0  0  0  0  0  0  0  0  0  0  0
  151.8838  144.9164  161.5558 H   0  0  0  0  0  0  0  0  0  0  0  0
  153.2367  141.2000  161.6377 H   0  0  0  0  0  0  0  0  0  0  0  0
  151.9561  142.0623  162.4862 H   0  0  0  0  0  0  0  0  0  0  0  0
  153.3472  142.9462  161.8401 H   0  0  0  0  0  0  0  0  0  0  0  0
  152.7130  140.5197  159.4536 H   0  0  0  0  0  0  0  0  0  0  0  0
  149.5615  135.2269  152.9531 H   0  0  0  0  0  0  0  0  0  0  0  0
  149.4011  143.3172  156.2311 H   0  0  0  0  0  0  0  0  0  0  0  0
  1  2  1  0  0  0  0
  1 25  1  0  0  0  0
  1 26  1  0  0  0  0
  1 27  1  0  0  0  0
  2 24  1  0  0  0  0
  2  3  2  0  0  0  0
  3  4  1  0  0  0  0
  3 28  1  0  0  0  0
  4  5  1  0  0  0  0
  4  6  2  0  0  0  0
  5 29  1  0  0  0  0
  5 30  1  0  0  0  0
  6  7  1  0  0  0  0
  7  8  1  0  0  0  0
  7 24  2  0  0  0  0
  8  9  1  0  0  0  0
  9 10  1  0  0  0  0
  9 31  1  0  0  0  0
  9 32  1  0  0  0  0
 10 11  1  0  0  0  0
 10 12  1  0  0  0  0
 10 33  1  0  0  0  0
 11 34  1  0  0  0  0
 12 13  1  0  0  0  0
 12 35  1  0  0  0  0
 12 36  1  0  0  0  0
 13 23  1  0  0  0  0
 13 14  1  0  0  0  0
 14 15  2  0  0  0  0
 14 37  1  0  0  0  0
 15 16  1  0  0  0  0
 15 47  1  0  0  0  0
 16 23  2  0  0  0  0
 16 17  1  0  0  0  0
 17 18  2  0  0  0  0
 17 38  1  0  0  0  0
 18 19  1  0  0  0  0
 18 20  1  0  0  0  0
 19 39  1  0  0  0  0
 19 40  1  0  0  0  0
 19 41  1  0  0  0  0
 20 21  1  0  0  0  0
 20 22  2  0  0  0  0
 21 42  1  0  0  0  0
 21 43  1  0  0  0  0
 21 44  1  0  0  0  0
 22 23  1  0  0  0  0
 22 45  1  0  0  0  0
 24 46  1  0  0  0  0
M  CHG  1  15   1
M  CHG  1  24   1
M  END
> <s_m_source_file>
AV-unprocessed.smi

> <i_m_source_file_index>
1006

> <i_lp_mmshare_version>
43012

> <i_f3d_flags>
0

> <s_epik_input>
W0NIM11jMVtjSF1jKFtOSDJdKW5jKG4xKVNbQ0gyXVtDQEhdKFtPSF0pW0NIMl1uKFtjSF1uMiljKGMyMylbY0hdYyhbQ0gzXSljKFtjSF0zKVtDSDNd

> <s_epik_cmdline>
J2VwaWtfcHl0aG9uJywgJy1waCcsICc3LjAnLCAnLXRuJywgJzgnLCAnLW1hJywgJzIwMCcsICctbWV0YWxfYmluZGluZycsICctaW1hZScsICc8aW5maWxlLm1hZT4nLCAnLW9tYWUnLCAnPG91dGZpbGUubWFlPic=

> <r_lp_tautomer_probability>
0.999762

> <r_epik_Ionization_Penalty>
1.50932

> <r_epik_Ionization_Penalty_Charging>
1.50929

> <r_epik_Ionization_Penalty_Neutral>
3.48853e-05

> <r_epik_State_Penalty>
1.56619

> <r_epik_Charging_Adjusted_Penalty>
3.07548

> <i_epik_Tot_Q>
2

> <i_epik_Tot_abs_Q>
2

> <r_epik_Metal_State_Penalty>
1.82892

> <b_epik_Metal_Only>
0

> <s_lp_Force_Field>
OPLS_2005

> <r_lp_Energy>
18.0663

> <b_lp_Chiralities_Consistent>
1

> <s_lp_Variant>
AV-unprocessed.smi:1006-7

> <Gold.Version>
5.8.1

> <Gold.Id.Protein>
6NUR|6NUR_protein|mol2

> <Gold.PLP.Fitness>
63.7738

> <Gold.PLP.PLP>
-51.0649

> <Gold.PLP.part.hbond>
-3.7487

> <Gold.PLP.part.metal>
0.0000

> <Gold.PLP.part.buried>
-5.0680

> <Gold.PLP.part.nonpolar>
-42.3424

> <Gold.PLP.part.repulsive>
0.2150

> <Gold.PLP.ligand.clash>
0.0000

> <Gold.PLP.ligand.torsion>
1.1356

> <Gold.PLP.Chemscore.Hbond>
4.9840

> <Gold.PLP.Chemscore.CHOScore>
0.0000

> <Gold.PLP.Chemscore.Metal>
0.0000

> <Gold.Chemscore.Hbonds>
donor molecule, donor type, donor heavy atom, donor atom, acceptor molecule, acceptor atom, score
      L1  H    15    47       P1  8028  2.00
      L1  H    24    46       P1  7948  0.30
      P1  H  7997  8010       L1    11  1.00

> <Gold.PLP.Chemscore.Internal.Correction>
0.0280

> <Gold.Rescore>
     Score         DG    S(hbond)    S(metal)    S(lipo)     H(rot)  DE(clash)    DE(int)     intcor
     19.10     -20.47       2.49        0.00     121.78       2.96       0.03       1.34       ----

> <Gold.Chemscore.Fitness>
19.0999

> <Gold.Chemscore.DG>
-20.4679

> <Gold.Chemscore.ZeroCoef>
-5.4800

> <Gold.Chemscore.Hbond>
2.4901

> <Gold.Chemscore.Metal>
0.0000

> <Gold.Chemscore.Lipo>
121.7801

> <Gold.Chemscore.Internal_Hbond>
0.0000

> <Gold.Chemscore.DEClash>
0.0308

> <Gold.Chemscore.DEInternal>
1.3372

> <Gold.Chemscore.Rot>
2.9599

> <Gold.Chemscore.Internal.Correction>
   9.000000E+99

> <Gold.Chemscore.Hbonds>
donor molecule, donor type, donor heavy atom, donor atom, acceptor molecule, acceptor atom, score
      L1  H    15    47       P1  8028  0.98
      P1  H  7997  8010       L1    11  0.85

> <Gold.Chemscore.Hbond.Weighted>
-8.3169

> <Gold.Chemscore.Metal.Weighted>
-0.0000

> <Gold.Chemscore.Lipo.Weighted>
-14.2483

> <Gold.Chemscore.Internal_Hbond.Weighted>
0.0000

> <Gold.Chemscore.DEClash.Weighted>
0.0308

> <Gold.Chemscore.DEInternal.Weighted>
1.3372

> <Gold.Chemscore.Rot.Weighted>
7.5772

> <Gold.Chemscore.Internal.Correction.Weighted>
   9.000000E+99

> <Gold.Protein.RotatedTorsions>
[ 6907 6896 6895 6894 ] final  104.81 input  -60.11 | X-H torsion
[ 7974 7965 7964 7962 ] final  -74.32 input  175.53 | X-H torsion
[ 8008 7997 7996 7995 ] final  111.56 input   59.86 | X-H torsion
[ 10167 10162 10161 10158 ] final  -88.21 input  -65.29 | X-H torsion
[ 10718 10713 10712 10709 ] final   -2.69 input   66.30 | X-H torsion
[ 10763 10752 10751 10750 ] final  165.40 input  -60.55 | X-H torsion
[ 11005 11000 10999 10996 ] final  -46.52 input  -57.11 | X-H torsion

> <Gold.Protein.ActiveResidues>
 VAL166  LYS551  ARG553  GLY616  TRP617  ASP618  TYR619  PRO620  LYS621  CYS622 
 ASP623  PHE694  ASN695  SER759  ASP760  ASP761  ALA762  ILE779  LEU786  VAL792 
 PHE793  MET794  SER795  GLU796  ALA797  LYS798  CYS799  TRP800  GLU811  SER814 

> <Gold.Protein.RotatedAtoms>
  152.5252  133.9621  159.7721 H   0  0  0  0  0  0  0  0  0  0  0  0  # atno 6907 bound_to 6896
  150.9909  133.6142  159.2715 H   0  0  0  0  0  0  0  0  0  0  0  0  # atno 6908 bound_to 6896
  151.3285  135.0842  159.9383 H   0  0  0  0  0  0  0  0  0  0  0  0  # atno 6909 bound_to 6896
  145.6406  140.9312  143.1038 H   0  0  0  0  0  0  0  0  0  0  0  0  # atno 7974 bound_to 7965
  156.2132  140.3017  155.9779 H   0  0  0  0  0  0  0  0  0  0  0  0  # atno 8008 bound_to 7997
  155.2672  140.0432  157.3020 H   0  0  0  0  0  0  0  0  0  0  0  0  # atno 8009 bound_to 7997
  154.5729  140.2353  155.8173 H   0  0  0  0  0  0  0  0  0  0  0  0  # atno 8010 bound_to 7997
  140.3769  143.2767  151.9432 H   0  0  0  0  0  0  0  0  0  0  0  0  # atno 10167 bound_to 10162
  156.7871  130.5349  149.5741 H   0  0  0  0  0  0  0  0  0  0  0  0  # atno 10718 bound_to 10713
  154.3234  135.2755  155.2508 H   0  0  0  0  0  0  0  0  0  0  0  0  # atno 10763 bound_to 10752
  154.4851  135.5848  153.6421 H   0  0  0  0  0  0  0  0  0  0  0  0  # atno 10764 bound_to 10752
  152.9874  135.6121  154.3421 H   0  0  0  0  0  0  0  0  0  0  0  0  # atno 10765 bound_to 10752
  141.0584  133.6717  156.3167 H   0  0  0  0  0  0  0  0  0  0  0  0  # atno 11005 bound_to 11000
  144.7159  139.8200  143.7399 LP  0  0  0  0  0  0  0  0  0  0  0  0  # atno 17320 bound_to 7965
  146.1284  139.4314  143.0184 LP  0  0  0  0  0  0  0  0  0  0  0  0  # atno 17321 bound_to 7965
  139.4798  144.5855  151.7861 LP  0  0  0  0  0  0  0  0  0  0  0  0  # atno 17342 bound_to 10162
  140.4977  144.1216  150.5964 LP  0  0  0  0  0  0  0  0  0  0  0  0  # atno 17343 bound_to 10162
  156.1182  130.6090  151.0152 LP  0  0  0  0  0  0  0  0  0  0  0  0  # atno 17370 bound_to 10713
  157.6618  131.0879  150.7820 LP  0  0  0  0  0  0  0  0  0  0  0  0  # atno 17371 bound_to 10713
  140.5918  134.5643  157.5501 LP  0  0  0  0  0  0  0  0  0  0  0  0  # atno 17394 bound_to 11000
  139.9410  134.7786  156.0678 LP  0  0  0  0  0  0  0  0  0  0  0  0  # atno 17395 bound_to 11000

$$$$
