AV-unprocessed.smi:3150|AV-procd|sdf|12011|dock1
  -GOLD-   2272017423D 1   1.00000     0.00000
 Structure written by MMmdl.
 32 33  0  0  0  0  0  0  0  0  2 V2000
  152.7472  138.8501  154.9726 C   0  0  0  0  0  0  0  0  0  0  0  0
  151.4066  139.4250  155.4493 C   0  0  2  0  0  0  0  0  0  0  0  0
  150.6611  139.8030  154.2951 O   0  0  0  0  0  0  0  0  0  0  0  0
  149.2478  139.8311  154.4711 C   0  0  0  0  0  0  0  0  0  0  0  0
  148.6138  140.9308  153.6394 C   0  0  0  0  0  0  0  0  0  0  0  0
  147.7562  142.0023  154.2807 C   0  0  0  0  0  0  0  0  0  0  0  0
  147.1181  140.9610  153.4018 C   0  0  0  0  0  0  0  0  0  0  0  0
  151.6302  140.6395  156.3655 C   0  0  0  0  0  0  0  0  0  0  0  0
  151.0022  141.6764  156.1334 O   0  0  0  0  0  0  0  0  0  0  0  0
  152.5547  140.3694  157.3710 N   0  0  0  0  0  0  0  0  0  0  0  0
  152.7013  141.1113  158.4348 C   0  0  0  0  0  0  0  0  0  0  0  0
  151.9387  142.2661  158.6824 N   0  0  0  0  0  0  0  0  0  0  0  0
  152.0976  143.0456  159.8085 C   0  0  0  0  0  0  0  0  0  0  0  0
  152.9991  142.7440  160.7442 C   0  0  0  0  0  0  0  0  0  0  0  0
  153.8262  141.5684  160.5657 C   0  0  0  0  0  0  0  0  0  0  0  0
  153.7101  140.7397  159.4436 C   0  0  0  0  0  0  0  0  0  0  0  0
  154.4463  139.7321  159.3311 O   0  5  0  0  0  0  0  0  0  0  0  0
  153.3614  138.5282  155.8145 H   0  0  0  0  0  0  0  0  0  0  0  0
  153.3172  139.5840  154.4016 H   0  0  0  0  0  0  0  0  0  0  0  0
  152.5886  137.9832  154.3309 H   0  0  0  0  0  0  0  0  0  0  0  0
  150.8655  138.6398  155.9819 H   0  0  0  0  0  0  0  0  0  0  0  0
  148.8167  138.8755  154.1707 H   0  0  0  0  0  0  0  0  0  0  0  0
  148.9833  139.9969  155.5158 H   0  0  0  0  0  0  0  0  0  0  0  0
  149.2319  141.2547  152.8045 H   0  0  0  0  0  0  0  0  0  0  0  0
  147.5702  141.9386  155.3509 H   0  0  0  0  0  0  0  0  0  0  0  0
  147.8379  143.0119  153.8837 H   0  0  0  0  0  0  0  0  0  0  0  0
  146.7734  141.2766  152.4194 H   0  0  0  0  0  0  0  0  0  0  0  0
  146.5081  140.2005  153.8853 H   0  0  0  0  0  0  0  0  0  0  0  0
  151.4425  143.9023  159.8633 H   0  0  0  0  0  0  0  0  0  0  0  0
  153.1110  143.3658  161.6199 H   0  0  0  0  0  0  0  0  0  0  0  0
  154.5527  141.3336  161.3304 H   0  0  0  0  0  0  0  0  0  0  0  0
  151.2334  142.5682  158.0267 H   0  0  0  0  0  0  0  0  0  0  0  0
  1  2  1  0  0  0  0
  1 18  1  0  0  0  0
  1 19  1  0  0  0  0
  1 20  1  0  0  0  0
  2  3  1  0  0  0  0
  2  8  1  0  0  0  0
  2 21  1  0  0  0  0
  3  4  1  0  0  0  0
  4  5  1  0  0  0  0
  4 22  1  0  0  0  0
  4 23  1  0  0  0  0
  5  7  1  0  0  0  0
  5  6  1  0  0  0  0
  5 24  1  0  0  0  0
  6  7  1  0  0  0  0
  6 25  1  0  0  0  0
  6 26  1  0  0  0  0
  7 27  1  0  0  0  0
  7 28  1  0  0  0  0
  8  9  2  0  0  0  0
  8 10  1  0  0  0  0
 10 11  2  0  0  0  0
 11 16  1  0  0  0  0
 11 12  1  0  0  0  0
 12 32  1  0  0  0  0
 12 13  1  0  0  0  0
 13 29  1  0  0  0  0
 13 14  2  0  0  0  0
 14 30  1  0  0  0  0
 14 15  1  0  0  0  0
 15 16  2  0  0  0  0
 15 31  1  0  0  0  0
 16 17  1  0  0  0  0
M  CHG  1  17  -1
M  END
> <s_m_source_file>
AV-unprocessed.smi

> <i_m_source_file_index>
3150

> <i_lp_mmshare_version>
43012

> <i_f3d_flags>
0

> <s_epik_input>
W0NIMl0xW0NIMl1bQ0hdMVtDSDJdT1tDQEBIXShbQ0gzXSlDKD1PKVtOSF1jMm5bY0hdW2NIXVtjSF1jMltPSF0=

> <s_epik_cmdline>
J2VwaWtfcHl0aG9uJywgJy1waCcsICc3LjAnLCAnLXRuJywgJzgnLCAnLW1hJywgJzIwMCcsICctbWV0YWxfYmluZGluZycsICctaW1hZScsICc8aW5maWxlLm1hZT4nLCAnLW9tYWUnLCAnPG91dGZpbGUubWFlPic=

> <r_epik_Ionization_Penalty>
0.784632

> <r_epik_Ionization_Penalty_Charging>
0.784632

> <r_epik_Ionization_Penalty_Neutral>
7.02258e-13

> <r_epik_State_Penalty>
1.43154

> <r_epik_Charging_Adjusted_Penalty>
2.21617

> <i_epik_Tot_Q>
-1

> <i_epik_Tot_abs_Q>
1

> <r_epik_Metal_State_Penalty>
1.39244

> <b_epik_Metal_Only>
0

> <s_lp_Force_Field>
OPLS_2005

> <r_lp_Energy>
43.7392

> <b_lp_Chiralities_Consistent>
1

> <s_lp_Variant>
AV-unprocessed.smi:3150-5

> <Gold.Version>
5.8.1

> <Gold.Id.Protein>
6NUR|6NUR_protein|mol2

> <Gold.PLP.Fitness>
40.9683

> <Gold.PLP.PLP>
-36.8342

> <Gold.PLP.part.hbond>
-2.7334

> <Gold.PLP.part.metal>
0.0000

> <Gold.PLP.part.buried>
-0.2934

> <Gold.PLP.part.nonpolar>
-32.7463

> <Gold.PLP.part.repulsive>
0.2758

> <Gold.PLP.ligand.clash>
0.0000

> <Gold.PLP.ligand.torsion>
1.1740

> <Gold.PLP.Chemscore.Hbond>
1.9357

> <Gold.PLP.Chemscore.CHOScore>
0.0000

> <Gold.PLP.Chemscore.Metal>
0.0000

> <Gold.Chemscore.Hbonds>
donor molecule, donor type, donor heavy atom, donor atom, acceptor molecule, acceptor atom, score
      P1  H  7989  7998       L1     3  1.00
      P1  H  7997  8008       L1    10  0.93

> <Gold.PLP.Chemscore.Internal.Correction>
0.6747

> <Gold.Rescore>
     Score         DG    S(hbond)    S(metal)    S(lipo)     H(rot)  DE(clash)    DE(int)     intcor
     13.98     -15.66       1.34        0.00      84.45       1.64       0.25       1.44       ----

> <Gold.Chemscore.Fitness>
13.9757

> <Gold.Chemscore.DG>
-15.6564

> <Gold.Chemscore.ZeroCoef>
-5.4800

> <Gold.Chemscore.Hbond>
1.3445

> <Gold.Chemscore.Metal>
0.0000

> <Gold.Chemscore.Lipo>
84.4507

> <Gold.Chemscore.Internal_Hbond>
0.0000

> <Gold.Chemscore.DEClash>
0.2453

> <Gold.Chemscore.DEInternal>
1.4354

> <Gold.Chemscore.Rot>
1.6387

> <Gold.Chemscore.Internal.Correction>
   9.000000E+99

> <Gold.Chemscore.Hbonds>
donor molecule, donor type, donor heavy atom, donor atom, acceptor molecule, acceptor atom, score
      P1  H  7989  7998       L1     3  0.50
      P1  H  7997  8008       L1    10  0.32

> <Gold.Chemscore.Hbond.Weighted>
-4.4907

> <Gold.Chemscore.Metal.Weighted>
-0.0000

> <Gold.Chemscore.Lipo.Weighted>
-9.8807

> <Gold.Chemscore.Internal_Hbond.Weighted>
0.0000

> <Gold.Chemscore.DEClash.Weighted>
0.2453

> <Gold.Chemscore.DEInternal.Weighted>
1.4354

> <Gold.Chemscore.Rot.Weighted>
4.1950

> <Gold.Chemscore.Internal.Correction.Weighted>
   9.000000E+99

> <Gold.Protein.RotatedTorsions>
[ 6907 6896 6895 6894 ] final  109.76 input  -60.11 | X-H torsion
[ 7974 7965 7964 7962 ] final   77.63 input  175.53 | X-H torsion
[ 8008 7997 7996 7995 ] final  -66.44 input   59.86 | X-H torsion
[ 10167 10162 10161 10158 ] final  -75.73 input  -65.29 | X-H torsion
[ 10718 10713 10712 10709 ] final  -44.03 input   66.30 | X-H torsion
[ 10763 10752 10751 10750 ] final -160.55 input  -60.55 | X-H torsion
[ 11005 11000 10999 10996 ] final    1.46 input  -57.11 | X-H torsion

> <Gold.Protein.ActiveResidues>
 VAL166  LYS551  ARG553  GLY616  TRP617  ASP618  TYR619  PRO620  LYS621  CYS622 
 ASP623  PHE694  ASN695  SER759  ASP760  ASP761  ALA762  ILE779  LEU786  VAL792 
 PHE793  MET794  SER795  GLU796  ALA797  LYS798  CYS799  TRP800  GLU811  SER814 

> <Gold.Protein.RotatedAtoms>
  152.5052  133.8898  159.7387 H   0  0  0  0  0  0  0  0  0  0  0  0  # atno 6907 bound_to 6896
  150.9339  133.6725  159.2811 H   0  0  0  0  0  0  0  0  0  0  0  0  # atno 6908 bound_to 6896
  151.4060  135.0983  159.9623 H   0  0  0  0  0  0  0  0  0  0  0  0  # atno 6909 bound_to 6896
  145.6875  139.2542  143.1778 H   0  0  0  0  0  0  0  0  0  0  0  0  # atno 7974 bound_to 7965
  154.4735  140.0912  156.7203 H   0  0  0  0  0  0  0  0  0  0  0  0  # atno 8008 bound_to 7997
  155.4660  140.3462  155.4301 H   0  0  0  0  0  0  0  0  0  0  0  0  # atno 8009 bound_to 7997
  156.1078  140.1439  156.9369 H   0  0  0  0  0  0  0  0  0  0  0  0  # atno 8010 bound_to 7997
  140.4917  143.2379  151.7895 H   0  0  0  0  0  0  0  0  0  0  0  0  # atno 10167 bound_to 10162
  156.2428  130.4181  149.8740 H   0  0  0  0  0  0  0  0  0  0  0  0  # atno 10718 bound_to 10713
  154.7380  135.3062  154.8777 H   0  0  0  0  0  0  0  0  0  0  0  0  # atno 10763 bound_to 10752
  153.9600  135.6754  153.4749 H   0  0  0  0  0  0  0  0  0  0  0  0  # atno 10764 bound_to 10752
  153.0981  135.4925  154.8740 H   0  0  0  0  0  0  0  0  0  0  0  0  # atno 10765 bound_to 10752
  140.6152  133.9711  155.8197 H   0  0  0  0  0  0  0  0  0  0  0  0  # atno 11005 bound_to 11000
  146.0910  140.7655  142.9595 LP  0  0  0  0  0  0  0  0  0  0  0  0  # atno 17320 bound_to 7965
  144.7007  140.3638  143.7159 LP  0  0  0  0  0  0  0  0  0  0  0  0  # atno 17321 bound_to 7965
  139.4853  144.4640  151.9507 LP  0  0  0  0  0  0  0  0  0  0  0  0  # atno 17342 bound_to 10162
  140.3727  144.2836  150.5918 LP  0  0  0  0  0  0  0  0  0  0  0  0  # atno 17343 bound_to 10162
  156.6316  130.8668  151.3496 LP  0  0  0  0  0  0  0  0  0  0  0  0  # atno 17370 bound_to 10713
  157.7182  130.9525  150.1337 LP  0  0  0  0  0  0  0  0  0  0  0  0  # atno 17371 bound_to 10713
  141.0780  134.0105  157.3428 LP  0  0  0  0  0  0  0  0  0  0  0  0  # atno 17394 bound_to 11000
  139.9176  135.0198  156.7940 LP  0  0  0  0  0  0  0  0  0  0  0  0  # atno 17395 bound_to 11000

$$$$
