AV-unprocessed.smi:213|AV-procd|sdf|1641|dock9
  -GOLD-   2262020 13D 1   1.00000     0.00000
 Structure written by MMmdl.
 58 61  0  0  0  0  0  0  0  0  1 V2000
  151.0306  138.6332  157.6066 C   0  0  0  0  0  0  0  0  0  0  0  0
  151.8371  139.7508  156.9221 C   0  0  2  0  0  0  0  0  0  0  0  0
  151.6579  141.1203  157.6150 C   0  0  0  0  0  0  0  0  0  0  0  0
  152.1871  141.2162  158.9762 N   0  0  0  0  0  0  0  0  0  0  0  0
  152.0951  142.5843  159.4749 C   0  0  0  0  0  0  0  0  0  0  0  0
  152.6383  142.7130  160.9083 C   0  0  0  0  0  0  0  0  0  0  0  0
  153.9851  142.2530  160.9490 O   0  0  0  0  0  0  0  0  0  0  0  0
  154.1155  140.9037  160.5142 C   0  0  0  0  0  0  0  0  0  0  0  0
  153.5740  140.7657  159.0804 C   0  0  0  0  0  0  0  0  0  0  0  0
  151.5029  139.8390  155.4978 N   0  0  0  0  0  0  0  0  0  0  0  0
  152.5384  139.7215  154.4729 C   0  0  0  0  0  0  0  0  0  0  0  0
  150.2055  139.9083  155.0963 C   0  0  0  0  0  0  0  0  0  0  0  0
  149.7054  141.1232  154.7445 N   0  0  0  0  0  0  0  0  0  0  0  0
  148.4381  141.2467  154.3406 C   0  0  0  0  0  0  0  0  0  0  0  0
  147.5054  140.3013  154.2211 N   0  0  0  0  0  0  0  0  0  0  0  0
  147.9923  139.0811  154.5849 C   0  0  0  0  0  0  0  0  0  0  0  0
  149.3148  138.7948  155.0312 C   0  0  0  0  0  0  0  0  0  0  0  0
  149.4200  137.4393  155.3290 N   0  0  0  0  0  0  0  0  0  0  0  0
  148.2392  136.9539  155.0604 C   0  0  0  0  0  0  0  0  0  0  0  0
  147.3204  137.8728  154.6099 N   0  0  0  0  0  0  0  0  0  0  0  0
  145.9367  137.6210  154.2504 C   0  0  0  0  0  0  0  0  0  0  0  0
  145.7405  137.5254  152.7251 C   0  0  2  0  0  0  0  0  0  0  0  0
  144.6090  138.2734  152.3229 O   0  0  0  0  0  0  0  0  0  0  0  0
  145.6354  136.0708  152.2254 C   0  0  2  0  0  0  0  0  0  0  0  0
  145.4673  135.8765  150.7166 C   0  0  0  0  0  0  0  0  0  0  0  0
  144.8731  134.4867  150.6679 C   0  0  0  0  0  0  0  0  0  0  0  0
  143.9510  134.4937  151.8860 C   0  0  0  0  0  0  0  0  0  0  0  0
  144.5514  135.3735  152.8339 O   0  0  0  0  0  0  0  0  0  0  0  0
  151.3440  138.5005  158.6422 H   0  0  0  0  0  0  0  0  0  0  0  0
  151.1762  137.6793  157.0990 H   0  0  0  0  0  0  0  0  0  0  0  0
  149.9622  138.8483  157.6121 H   0  0  0  0  0  0  0  0  0  0  0  0
  152.8904  139.4974  157.0062 H   0  0  0  0  0  0  0  0  0  0  0  0
  152.1157  141.8953  156.9981 H   0  0  0  0  0  0  0  0  0  0  0  0
  150.5924  141.3526  157.6392 H   0  0  0  0  0  0  0  0  0  0  0  0
  152.6510  143.2558  158.8182 H   0  0  0  0  0  0  0  0  0  0  0  0
  151.0568  142.9174  159.4540 H   0  0  0  0  0  0  0  0  0  0  0  0
  152.6058  143.7524  161.2347 H   0  0  0  0  0  0  0  0  0  0  0  0
  152.0281  142.1375  161.6062 H   0  0  0  0  0  0  0  0  0  0  0  0
  155.1661  140.6163  160.5526 H   0  0  0  0  0  0  0  0  0  0  0  0
  153.5770  140.2423  161.1946 H   0  0  0  0  0  0  0  0  0  0  0  0
  153.6601  139.7219  158.7817 H   0  0  0  0  0  0  0  0  0  0  0  0
  154.2029  141.3408  158.3990 H   0  0  0  0  0  0  0  0  0  0  0  0
  152.3562  140.4218  153.6569 H   0  0  0  0  0  0  0  0  0  0  0  0
  152.5570  138.7109  154.0638 H   0  0  0  0  0  0  0  0  0  0  0  0
  153.5265  139.9372  154.8784 H   0  0  0  0  0  0  0  0  0  0  0  0
  148.1269  142.2467  154.0765 H   0  0  0  0  0  0  0  0  0  0  0  0
  148.0021  135.9082  155.1929 H   0  0  0  0  0  0  0  0  0  0  0  0
  145.6239  136.6930  154.7302 H   0  0  0  0  0  0  0  0  0  0  0  0
  145.3167  138.4141  154.6705 H   0  0  0  0  0  0  0  0  0  0  0  0
  146.6026  137.9817  152.2370 H   0  0  0  0  0  0  0  0  0  0  0  0
  144.4747  138.9677  152.9497 H   0  0  0  0  0  0  0  0  0  0  0  0
  146.5396  135.5403  152.5290 H   0  0  0  0  0  0  0  0  0  0  0  0
  144.7602  136.5906  150.2932 H   0  0  0  0  0  0  0  0  0  0  0  0
  146.4065  135.9604  150.1692 H   0  0  0  0  0  0  0  0  0  0  0  0
  144.3477  134.2756  149.7360 H   0  0  0  0  0  0  0  0  0  0  0  0
  145.6583  133.7399  150.7947 H   0  0  0  0  0  0  0  0  0  0  0  0
  142.9717  134.8928  151.6189 H   0  0  0  0  0  0  0  0  0  0  0  0
  143.8078  133.4968  152.3035 H   0  0  0  0  0  0  0  0  0  0  0  0
  1  2  1  0  0  0  0
  1 29  1  0  0  0  0
  1 30  1  0  0  0  0
  1 31  1  0  0  0  0
  2  3  1  0  0  0  0
  2 10  1  0  0  0  0
  2 32  1  0  0  0  0
  3  4  1  0  0  0  0
  3 33  1  0  0  0  0
  3 34  1  0  0  0  0
  4  9  1  0  0  0  0
  4  5  1  0  0  0  0
  5  6  1  0  0  0  0
  5 35  1  0  0  0  0
  5 36  1  0  0  0  0
  6  7  1  0  0  0  0
  6 37  1  0  0  0  0
  6 38  1  0  0  0  0
  7  8  1  0  0  0  0
  8  9  1  0  0  0  0
  8 39  1  0  0  0  0
  8 40  1  0  0  0  0
  9 41  1  0  0  0  0
  9 42  1  0  0  0  0
 10 11  1  0  0  0  0
 10 12  1  0  0  0  0
 11 43  1  0  0  0  0
 11 44  1  0  0  0  0
 11 45  1  0  0  0  0
 12 17  1  0  0  0  0
 12 13  2  0  0  0  0
 13 14  1  0  0  0  0
 14 15  2  0  0  0  0
 14 46  1  0  0  0  0
 15 16  1  0  0  0  0
 16 20  1  0  0  0  0
 16 17  2  0  0  0  0
 17 18  1  0  0  0  0
 18 19  2  0  0  0  0
 19 20  1  0  0  0  0
 19 47  1  0  0  0  0
 20 21  1  0  0  0  0
 21 22  1  0  0  0  0
 21 48  1  0  0  0  0
 21 49  1  0  0  0  0
 22 23  1  0  0  0  0
 22 24  1  0  0  0  0
 22 50  1  0  0  0  0
 23 51  1  0  0  0  0
 24 28  1  0  0  0  0
 24 25  1  0  0  0  0
 24 52  1  0  0  0  0
 25 26  1  0  0  0  0
 25 53  1  0  0  0  0
 25 54  1  0  0  0  0
 26 27  1  0  0  0  0
 26 55  1  0  0  0  0
 26 56  1  0  0  0  0
 27 28  1  0  0  0  0
 27 57  1  0  0  0  0
 27 58  1  0  0  0  0
M  END
> <s_m_source_file>
AV-unprocessed.smi

> <i_m_source_file_index>
213

> <i_lp_mmshare_version>
43012

> <i_f3d_flags>
0

> <s_epik_input>
W0NIMl0xW0NIMl1PW0NIMl1bQ0gyXU4xW0NIMl1bQ0BASF0oW0NIM10pTihbQ0gzXSljKG5bY0hdbjIpYyhjMjMpbltjSF1uM1tDSDJdW0NASF0oW09IXSlbQ0BASF00W0NIMl1bQ0gyXVtDSDJdTzQ=

> <s_epik_cmdline>
J2VwaWtfcHl0aG9uJywgJy1waCcsICc3LjAnLCAnLXRuJywgJzgnLCAnLW1hJywgJzIwMCcsICctbWV0YWxfYmluZGluZycsICctaW1hZScsICc8aW5maWxlLm1hZT4nLCAnLW9tYWUnLCAnPG91dGZpbGUubWFlPic=

> <r_lp_tautomer_probability>
1

> <r_epik_Ionization_Penalty>
0.423322

> <r_epik_Ionization_Penalty_Charging>
0

> <r_epik_Ionization_Penalty_Neutral>
0.423322

> <r_epik_State_Penalty>
0.569486

> <r_epik_Charging_Adjusted_Penalty>
0.569486

> <i_epik_Tot_Q>
0

> <i_epik_Tot_abs_Q>
0

> <r_epik_Metal_State_Penalty>
0.568671

> <b_epik_Metal_Only>
0

> <s_lp_Force_Field>
OPLS_2005

> <r_lp_Energy>
51.8913

> <b_lp_Chiralities_Consistent>
1

> <s_lp_Variant>
AV-unprocessed.smi:213-9

> <Gold.Version>
5.8.1

> <Gold.Id.Protein>
6NUR|6NUR_protein|mol2

> <Gold.PLP.Fitness>
44.8459

> <Gold.PLP.PLP>
-45.4678

> <Gold.PLP.part.hbond>
-3.1670

> <Gold.PLP.part.metal>
0.0000

> <Gold.PLP.part.buried>
-5.9026

> <Gold.PLP.part.nonpolar>
-37.2319

> <Gold.PLP.part.repulsive>
0.3940

> <Gold.PLP.ligand.clash>
0.0000

> <Gold.PLP.ligand.torsion>
2.6019

> <Gold.PLP.Chemscore.Hbond>
1.4080

> <Gold.PLP.Chemscore.CHOScore>
0.0000

> <Gold.PLP.Chemscore.Metal>
0.0000

> <Gold.Chemscore.Hbonds>
donor molecule, donor type, donor heavy atom, donor atom, acceptor molecule, acceptor atom, score
      L1  H    23    51       P1 10175  0.40

> <Gold.PLP.Chemscore.Internal.Correction>
0.3579

> <Gold.Rescore>
     Score         DG    S(hbond)    S(metal)    S(lipo)     H(rot)  DE(clash)    DE(int)     intcor
     10.30     -12.76       1.00        0.00      93.70       2.74       0.03       2.44       ----

> <Gold.Chemscore.Fitness>
10.3010

> <Gold.Chemscore.DG>
-12.7642

> <Gold.Chemscore.ZeroCoef>
-5.4800

> <Gold.Chemscore.Hbond>
0.9970

> <Gold.Chemscore.Metal>
0.0000

> <Gold.Chemscore.Lipo>
93.6985

> <Gold.Chemscore.Internal_Hbond>
0.0000

> <Gold.Chemscore.DEClash>
0.0275

> <Gold.Chemscore.DEInternal>
2.4357

> <Gold.Chemscore.Rot>
2.7378

> <Gold.Chemscore.Internal.Correction>
   9.000000E+99

> <Gold.Chemscore.Hbonds>
donor molecule, donor type, donor heavy atom, donor atom, acceptor molecule, acceptor atom, score
      L1  H    23    51       P1 10175  0.40

> <Gold.Chemscore.Hbond.Weighted>
-3.3301

> <Gold.Chemscore.Metal.Weighted>
-0.0000

> <Gold.Chemscore.Lipo.Weighted>
-10.9627

> <Gold.Chemscore.Internal_Hbond.Weighted>
0.0000

> <Gold.Chemscore.DEClash.Weighted>
0.0275

> <Gold.Chemscore.DEInternal.Weighted>
2.4357

> <Gold.Chemscore.Rot.Weighted>
7.0087

> <Gold.Chemscore.Internal.Correction.Weighted>
   9.000000E+99

> <Gold.Protein.RotatedTorsions>
[ 6907 6896 6895 6894 ] final   73.33 input  -60.11 | X-H torsion
[ 7974 7965 7964 7962 ] final -115.24 input  175.53 | X-H torsion
[ 8008 7997 7996 7995 ] final   55.05 input   59.86 | X-H torsion
[ 10167 10162 10161 10158 ] final   47.26 input  -65.29 | X-H torsion
[ 10718 10713 10712 10709 ] final  124.32 input   66.30 | X-H torsion
[ 10763 10752 10751 10750 ] final -147.71 input  -60.55 | X-H torsion
[ 11005 11000 10999 10996 ] final   -4.72 input  -57.11 | X-H torsion

> <Gold.Protein.ActiveResidues>
 VAL166  LYS551  ARG553  GLY616  TRP617  ASP618  TYR619  PRO620  LYS621  CYS622 
 ASP623  PHE694  ASN695  SER759  ASP760  ASP761  ALA762  ILE779  LEU786  VAL792 
 PHE793  MET794  SER795  GLU796  ALA797  LYS798  CYS799  TRP800  GLU811  SER814 

> <Gold.Protein.RotatedAtoms>
  152.4917  134.4437  159.9551 H   0  0  0  0  0  0  0  0  0  0  0  0  # atno 6907 bound_to 6896
  151.4423  133.3634  159.2791 H   0  0  0  0  0  0  0  0  0  0  0  0  # atno 6908 bound_to 6896
  150.9079  134.8518  159.7465 H   0  0  0  0  0  0  0  0  0  0  0  0  # atno 6909 bound_to 6896
  145.1107  140.8610  143.3871 H   0  0  0  0  0  0  0  0  0  0  0  0  # atno 7974 bound_to 7965
  155.4948  140.3472  155.4361 H   0  0  0  0  0  0  0  0  0  0  0  0  # atno 8008 bound_to 7997
  156.0953  140.1421  156.9567 H   0  0  0  0  0  0  0  0  0  0  0  0  # atno 8009 bound_to 7997
  154.4660  140.0917  156.6998 H   0  0  0  0  0  0  0  0  0  0  0  0  # atno 8010 bound_to 7997
  140.3055  144.2883  150.6210 H   0  0  0  0  0  0  0  0  0  0  0  0  # atno 10167 bound_to 10162
  157.5594  131.1090  150.8564 H   0  0  0  0  0  0  0  0  0  0  0  0  # atno 10718 bound_to 10713
  154.8271  135.3353  154.6861 H   0  0  0  0  0  0  0  0  0  0  0  0  # atno 10763 bound_to 10752
  153.7485  135.6941  153.4955 H   0  0  0  0  0  0  0  0  0  0  0  0  # atno 10764 bound_to 10752
  153.2193  135.4454  155.0421 H   0  0  0  0  0  0  0  0  0  0  0  0  # atno 10765 bound_to 10752
  140.6833  133.9134  155.8569 H   0  0  0  0  0  0  0  0  0  0  0  0  # atno 11005 bound_to 11000
  145.0850  139.2932  143.5764 LP  0  0  0  0  0  0  0  0  0  0  0  0  # atno 17320 bound_to 7965
  146.3526  140.0369  142.8646 LP  0  0  0  0  0  0  0  0  0  0  0  0  # atno 17321 bound_to 7965
  140.5614  143.2191  151.7758 LP  0  0  0  0  0  0  0  0  0  0  0  0  # atno 17342 bound_to 10162
  139.4905  144.4343  151.9837 LP  0  0  0  0  0  0  0  0  0  0  0  0  # atno 17343 bound_to 10162
  156.9066  130.5265  149.5281 LP  0  0  0  0  0  0  0  0  0  0  0  0  # atno 17370 bound_to 10713
  156.0649  130.5694  150.9268 LP  0  0  0  0  0  0  0  0  0  0  0  0  # atno 17371 bound_to 10713
  141.0300  134.0769  157.4025 LP  0  0  0  0  0  0  0  0  0  0  0  0  # atno 17394 bound_to 11000
  139.8945  135.0136  156.6954 LP  0  0  0  0  0  0  0  0  0  0  0  0  # atno 17395 bound_to 11000

$$$$
