AV-unprocessed.smi:1163|AV-procd|sdf|4922|dock6
  -GOLD-   22720 3503D 1   1.00000     0.00000
 Structure written by MMmdl.
 40 41  0  0  0  0  0  0  0  0  2 V2000
  135.9149  139.2000  154.3353 C   0  0  0  0  0  0  0  0  0  0  0  0
  136.6772  138.0268  154.5974 O   0  0  0  0  0  0  0  0  0  0  0  0
  138.0121  138.0214  154.2479 C   0  0  0  0  0  0  0  0  0  0  0  0
  138.7752  136.8680  154.5174 C   0  0  0  0  0  0  0  0  0  0  0  0
  140.1369  136.8525  154.1599 C   0  0  0  0  0  0  0  0  0  0  0  0
  140.6927  137.9939  153.5347 C   0  0  0  0  0  0  0  0  0  0  0  0
  142.0538  138.1064  153.1429 N   0  0  0  0  0  0  0  0  0  0  0  0
  142.9652  137.1279  153.0091 C   0  0  0  0  0  0  0  0  0  0  0  0
  142.7583  135.9296  153.1987 O   0  0  0  0  0  0  0  0  0  0  0  0
  144.1493  137.6151  152.6125 N   0  0  0  0  0  0  0  0  0  0  0  0
  145.3396  136.8078  152.3654 C   0  0  2  0  0  0  0  0  0  0  0  0
  145.1225  135.6975  151.3385 C   0  0  0  0  0  0  0  0  0  0  0  0
  146.1152  134.5947  151.7463 C   0  0  0  0  0  0  0  0  0  0  0  0
  146.6816  134.9863  153.0604 N   0  3  2  0  0  0  0  0  0  0  0  0
  146.9455  133.8709  154.0016 C   0  0  0  0  0  0  0  0  0  0  0  0
  148.3318  133.2350  153.7973 C   0  0  0  0  0  0  0  0  0  0  0  0
  148.3763  132.0719  154.4451 F   0  0  0  0  0  0  0  0  0  0  0  0
  148.5730  133.0083  152.5065 F   0  0  0  0  0  0  0  0  0  0  0  0
  149.2790  134.0346  154.2876 F   0  0  0  0  0  0  0  0  0  0  0  0
  145.7964  136.0327  153.6011 C   0  0  0  0  0  0  0  0  0  0  0  0
  139.8482  139.1037  153.3254 C   0  0  0  0  0  0  0  0  0  0  0  0
  138.5418  139.1243  153.6633 N   0  0  0  0  0  0  0  0  0  0  0  0
  134.8884  139.0448  154.6671 H   0  0  0  0  0  0  0  0  0  0  0  0
  135.8865  139.4269  153.2684 H   0  0  0  0  0  0  0  0  0  0  0  0
  136.3098  140.0626  154.8742 H   0  0  0  0  0  0  0  0  0  0  0  0
  138.3248  136.0098  154.9937 H   0  0  0  0  0  0  0  0  0  0  0  0
  140.7262  135.9768  154.3836 H   0  0  0  0  0  0  0  0  0  0  0  0
  142.3498  139.0327  152.8717 H   0  0  0  0  0  0  0  0  0  0  0  0
  144.2343  138.6120  152.4764 H   0  0  0  0  0  0  0  0  0  0  0  0
  146.1530  137.4499  152.0206 H   0  0  0  0  0  0  0  0  0  0  0  0
  144.1042  135.3108  151.4042 H   0  0  0  0  0  0  0  0  0  0  0  0
  145.2794  136.0435  150.3163 H   0  0  0  0  0  0  0  0  0  0  0  0
  145.6009  133.6340  151.8017 H   0  0  0  0  0  0  0  0  0  0  0  0
  146.9230  134.4978  151.0202 H   0  0  0  0  0  0  0  0  0  0  0  0
  146.8960  134.2668  155.0169 H   0  0  0  0  0  0  0  0  0  0  0  0
  146.1595  133.1184  153.9248 H   0  0  0  0  0  0  0  0  0  0  0  0
  146.3186  136.6613  154.3235 H   0  0  0  0  0  0  0  0  0  0  0  0
  144.9424  135.5725  154.1023 H   0  0  0  0  0  0  0  0  0  0  0  0
  140.2293  140.0037  152.8650 H   0  0  0  0  0  0  0  0  0  0  0  0
  147.5648  135.4395  152.8730 H   0  0  0  0  0  0  0  0  0  0  0  0
  1  2  1  0  0  0  0
  1 23  1  0  0  0  0
  1 24  1  0  0  0  0
  1 25  1  0  0  0  0
  2  3  1  0  0  0  0
  3 22  1  0  0  0  0
  3  4  2  0  0  0  0
  4  5  1  0  0  0  0
  4 26  1  0  0  0  0
  5  6  2  0  0  0  0
  5 27  1  0  0  0  0
  6  7  1  0  0  0  0
  6 21  1  0  0  0  0
  7  8  1  0  0  0  0
  7 28  1  0  0  0  0
  8  9  2  0  0  0  0
  8 10  1  0  0  0  0
 10 11  1  0  0  0  0
 10 29  1  0  0  0  0
 11 20  1  0  0  0  0
 11 12  1  0  0  0  0
 11 30  1  0  0  0  0
 12 13  1  0  0  0  0
 12 31  1  0  0  0  0
 12 32  1  0  0  0  0
 13 14  1  0  0  0  0
 13 33  1  0  0  0  0
 13 34  1  0  0  0  0
 14 15  1  0  0  0  0
 14 20  1  0  0  0  0
 14 40  1  0  0  0  0
 15 16  1  0  0  0  0
 15 35  1  0  0  0  0
 15 36  1  0  0  0  0
 16 17  1  0  0  0  0
 16 18  1  0  0  0  0
 16 19  1  0  0  0  0
 20 37  1  0  0  0  0
 20 38  1  0  0  0  0
 21 22  2  0  0  0  0
 21 39  1  0  0  0  0
M  CHG  1  14   1
M  END
> <s_m_source_file>
AV-unprocessed.smi

> <i_m_source_file_index>
1163

> <i_lp_mmshare_version>
43012

> <i_f3d_flags>
0

> <s_epik_input>
W0NIM11PYzFbY0hdW2NIXWMoW2NIXW4xKVtOSF1DKD1PKVtOSF1bQ0BASF0yW0NIMl1bQ0gyXU4oW0NIMl0yKVtDSDJdQyhGKShGKUY=

> <s_epik_cmdline>
J2VwaWtfcHl0aG9uJywgJy1waCcsICc3LjAnLCAnLXRuJywgJzgnLCAnLW1hJywgJzIwMCcsICctbWV0YWxfYmluZGluZycsICctaW1hZScsICc8aW5maWxlLm1hZT4nLCAnLW9tYWUnLCAnPG91dGZpbGUubWFlPic=

> <r_lp_tautomer_probability>
1

> <r_epik_Ionization_Penalty>
1.12054

> <r_epik_Ionization_Penalty_Charging>
1.12047

> <r_epik_Ionization_Penalty_Neutral>
7.20346e-05

> <r_epik_State_Penalty>
1.17927

> <r_epik_Charging_Adjusted_Penalty>
2.29974

> <i_epik_Tot_Q>
1

> <i_epik_Tot_abs_Q>
1

> <r_epik_Metal_State_Penalty>
1.17928

> <b_epik_Metal_Only>
0

> <s_lp_Force_Field>
OPLS_2005

> <r_lp_Energy>
30.0061

> <b_lp_Chiralities_Consistent>
1

> <s_lp_Variant>
AV-unprocessed.smi:1163-3

> <Gold.Version>
5.8.1

> <Gold.Id.Protein>
6NUR|6NUR_protein|mol2

> <Gold.PLP.Fitness>
50.9480

> <Gold.PLP.PLP>
-36.5305

> <Gold.PLP.part.hbond>
-4.0000

> <Gold.PLP.part.metal>
0.0000

> <Gold.PLP.part.buried>
-2.7530

> <Gold.PLP.part.nonpolar>
-30.1710

> <Gold.PLP.part.repulsive>
0.3016

> <Gold.PLP.ligand.clash>
0.0000

> <Gold.PLP.ligand.torsion>
0.5527

> <Gold.PLP.Chemscore.Hbond>
4.0000

> <Gold.PLP.Chemscore.CHOScore>
1.0000

> <Gold.PLP.Chemscore.Metal>
0.0000

> <Gold.Chemscore.Hbonds>
donor molecule, donor type, donor heavy atom, donor atom, acceptor molecule, acceptor atom, score
      L1  H     7    28       P1 10175  1.00
      L1  H    10    29       P1 10175  1.00
      L1  H    14    40       P1  7948  2.00
      L1  C    21    39       P1 10160  1.00

> <Gold.PLP.Chemscore.Internal.Correction>
0.5228

> <Gold.Rescore>
     Score         DG    S(hbond)    S(metal)    S(lipo)     H(rot)  DE(clash)    DE(int)     intcor
     13.29     -17.30       2.94        0.00      53.83       1.68       0.95       3.05       ----

> <Gold.Chemscore.Fitness>
13.2935

> <Gold.Chemscore.DG>
-17.2982

> <Gold.Chemscore.ZeroCoef>
-5.4800

> <Gold.Chemscore.Hbond>
2.9386

> <Gold.Chemscore.Metal>
0.0000

> <Gold.Chemscore.Lipo>
53.8326

> <Gold.Chemscore.Internal_Hbond>
0.0000

> <Gold.Chemscore.DEClash>
0.9533

> <Gold.Chemscore.DEInternal>
3.0514

> <Gold.Chemscore.Rot>
1.6778

> <Gold.Chemscore.Internal.Correction>
   9.000000E+99

> <Gold.Chemscore.Hbonds>
donor molecule, donor type, donor heavy atom, donor atom, acceptor molecule, acceptor atom, score
      L1  H     7    28       P1 10175  0.98
      L1  H    10    29       P1 10175  0.98
      L1  H    14    40       P1  7948  0.99

> <Gold.Chemscore.Hbond.Weighted>
-9.8149

> <Gold.Chemscore.Metal.Weighted>
-0.0000

> <Gold.Chemscore.Lipo.Weighted>
-6.2984

> <Gold.Chemscore.Internal_Hbond.Weighted>
0.0000

> <Gold.Chemscore.DEClash.Weighted>
0.9533

> <Gold.Chemscore.DEInternal.Weighted>
3.0514

> <Gold.Chemscore.Rot.Weighted>
4.2951

> <Gold.Chemscore.Internal.Correction.Weighted>
   9.000000E+99

> <Gold.Protein.RotatedTorsions>
[ 6907 6896 6895 6894 ] final   82.70 input  -60.11 | X-H torsion
[ 7974 7965 7964 7962 ] final  -28.12 input  175.53 | X-H torsion
[ 8008 7997 7996 7995 ] final  -24.20 input   59.86 | X-H torsion
[ 10167 10162 10161 10158 ] final -178.06 input  -65.29 | X-H torsion
[ 10718 10713 10712 10709 ] final -108.78 input   66.30 | X-H torsion
[ 10763 10752 10751 10750 ] final -157.14 input  -60.55 | X-H torsion
[ 11005 11000 10999 10996 ] final   41.94 input  -57.11 | X-H torsion

> <Gold.Protein.ActiveResidues>
 VAL166  LYS551  ARG553  GLY616  TRP617  ASP618  TYR619  PRO620  LYS621  CYS622 
 ASP623  PHE694  ASN695  SER759  ASP760  ASP761  ALA762  ILE779  LEU786  VAL792 
 PHE793  MET794  SER795  GLU796  ALA797  LYS798  CYS799  TRP800  GLU811  SER814 

> <Gold.Protein.RotatedAtoms>
  152.5306  134.3010  159.9078 H   0  0  0  0  0  0  0  0  0  0  0  0  # atno 6907 bound_to 6896
  151.2961  133.4137  159.2644 H   0  0  0  0  0  0  0  0  0  0  0  0  # atno 6908 bound_to 6896
  151.0159  134.9449  159.8090 H   0  0  0  0  0  0  0  0  0  0  0  0  # atno 6909 bound_to 6896
  146.1311  140.5241  142.8693 H   0  0  0  0  0  0  0  0  0  0  0  0  # atno 7974 bound_to 7965
  154.4542  140.1960  156.0428 H   0  0  0  0  0  0  0  0  0  0  0  0  # atno 8008 bound_to 7997
  156.0712  140.3284  155.7551 H   0  0  0  0  0  0  0  0  0  0  0  0  # atno 8009 bound_to 7997
  155.5260  140.0574  157.2889 H   0  0  0  0  0  0  0  0  0  0  0  0  # atno 8010 bound_to 7997
  139.5450  144.2260  152.0970 H   0  0  0  0  0  0  0  0  0  0  0  0  # atno 10167 bound_to 10162
  156.0503  130.5730  150.8008 H   0  0  0  0  0  0  0  0  0  0  0  0  # atno 10718 bound_to 10713
  154.7659  135.3131  154.8286 H   0  0  0  0  0  0  0  0  0  0  0  0  # atno 10763 bound_to 10752
  153.9035  135.6813  153.4758 H   0  0  0  0  0  0  0  0  0  0  0  0  # atno 10764 bound_to 10752
  153.1265  135.4799  154.9214 H   0  0  0  0  0  0  0  0  0  0  0  0  # atno 10765 bound_to 10752
  140.1786  134.4132  155.8213 H   0  0  0  0  0  0  0  0  0  0  0  0  # atno 11005 bound_to 11000
  144.7691  140.5597  143.6682 LP  0  0  0  0  0  0  0  0  0  0  0  0  # atno 17320 bound_to 7965
  145.5259  139.1476  143.3526 LP  0  0  0  0  0  0  0  0  0  0  0  0  # atno 17321 bound_to 7965
  140.1745  144.4904  150.6561 LP  0  0  0  0  0  0  0  0  0  0  0  0  # atno 17342 bound_to 10162
  140.6695  143.2280  151.5661 LP  0  0  0  0  0  0  0  0  0  0  0  0  # atno 17343 bound_to 10162
  157.5422  131.0941  150.9812 LP  0  0  0  0  0  0  0  0  0  0  0  0  # atno 17370 bound_to 10713
  157.0092  130.5630  149.5319 LP  0  0  0  0  0  0  0  0  0  0  0  0  # atno 17371 bound_to 10713
  141.2222  133.6990  156.7891 LP  0  0  0  0  0  0  0  0  0  0  0  0  # atno 17394 bound_to 11000
  140.2293  134.8698  157.3460 LP  0  0  0  0  0  0  0  0  0  0  0  0  # atno 17395 bound_to 11000

$$$$
