AV-unprocessed.smi:1329|AV-procd|sdf|5484|dock7
  -GOLD-   22720 5 63D 1   1.00000     0.00000
 Structure written by MMmdl.
 42 43  0  0  0  0  0  0  0  0  1 V2000
  144.9140  145.0444  152.7474 C   0  0  0  0  0  0  0  0  0  0  0  0
  145.3184  144.0358  153.7884 C   0  0  0  0  0  0  0  0  0  0  0  0
  146.1274  143.1018  153.4091 N   0  0  0  0  0  0  0  0  0  0  0  0
  146.5577  142.1239  154.2838 N   0  0  0  0  0  0  0  0  0  0  0  0
  147.4546  141.1331  153.6756 C   0  0  0  0  0  0  0  0  0  0  0  0
  148.7841  141.0050  154.4523 C   0  0  1  0  0  0  0  0  0  0  0  0
  149.8067  140.7298  153.5149 O   0  0  0  0  0  0  0  0  0  0  0  0
  149.1630  142.3126  155.1676 C   0  0  0  0  0  0  0  0  0  0  0  0
  150.0289  142.0095  156.2492 O   0  0  0  0  0  0  0  0  0  0  0  0
  151.1221  142.9053  156.3498 C   0  0  0  0  0  0  0  0  0  0  0  0
  151.5289  143.1116  157.7944 C   0  0  0  0  0  0  0  0  0  0  0  0
  151.5215  144.4050  158.3572 C   0  0  0  0  0  0  0  0  0  0  0  0
  151.8941  144.5926  159.7027 C   0  0  0  0  0  0  0  0  0  0  0  0
  152.2743  143.4878  160.4893 C   0  0  0  0  0  0  0  0  0  0  0  0
  152.2809  142.1950  159.9307 C   0  0  0  0  0  0  0  0  0  0  0  0
  151.9078  142.0069  158.5854 C   0  0  0  0  0  0  0  0  0  0  0  0
  146.1942  142.0406  155.5957 C   0  0  0  0  0  0  0  0  0  0  0  0
  146.5998  141.1469  156.3403 O   0  0  0  0  0  0  0  0  0  0  0  0
  145.2792  143.1028  156.0196 C   0  0  0  0  0  0  0  0  0  0  0  0
  144.8696  143.0507  157.3861 C   0  0  0  0  0  0  0  0  0  0  0  0
  144.5451  143.0281  158.4969 N   0  0  0  0  0  0  0  0  0  0  0  0
  144.8473  144.0674  155.1694 C   0  0  0  0  0  0  0  0  0  0  0  0
  143.8940  145.1891  155.5584 C   0  0  0  0  0  0  0  0  0  0  0  0
  145.2303  146.0469  153.0361 H   0  0  0  0  0  0  0  0  0  0  0  0
  143.8315  145.0549  152.6186 H   0  0  0  0  0  0  0  0  0  0  0  0
  145.3581  144.8263  151.7750 H   0  0  0  0  0  0  0  0  0  0  0  0
  146.9645  140.1608  153.5904 H   0  0  0  0  0  0  0  0  0  0  0  0
  147.6521  141.4334  152.6450 H   0  0  0  0  0  0  0  0  0  0  0  0
  148.7229  140.1983  155.1839 H   0  0  0  0  0  0  0  0  0  0  0  0
  149.4830  140.0910  152.8984 H   0  0  0  0  0  0  0  0  0  0  0  0
  149.6178  143.0263  154.4779 H   0  0  0  0  0  0  0  0  0  0  0  0
  148.2679  142.7842  155.5762 H   0  0  0  0  0  0  0  0  0  0  0  0
  151.9757  142.5166  155.7920 H   0  0  0  0  0  0  0  0  0  0  0  0
  150.8609  143.8676  155.9058 H   0  0  0  0  0  0  0  0  0  0  0  0
  151.2277  145.2562  157.7603 H   0  0  0  0  0  0  0  0  0  0  0  0
  151.8870  145.5837  160.1317 H   0  0  0  0  0  0  0  0  0  0  0  0
  152.5595  143.6316  161.5210 H   0  0  0  0  0  0  0  0  0  0  0  0
  152.5706  141.3473  160.5341 H   0  0  0  0  0  0  0  0  0  0  0  0
  151.9106  141.0128  158.1627 H   0  0  0  0  0  0  0  0  0  0  0  0
  143.6242  145.1548  156.6135 H   0  0  0  0  0  0  0  0  0  0  0  0
  142.9713  145.1219  154.9814 H   0  0  0  0  0  0  0  0  0  0  0  0
  144.3479  146.1622  155.3699 H   0  0  0  0  0  0  0  0  0  0  0  0
  1  2  1  0  0  0  0
  1 24  1  0  0  0  0
  1 25  1  0  0  0  0
  1 26  1  0  0  0  0
  2 22  1  0  0  0  0
  2  3  2  0  0  0  0
  3  4  1  0  0  0  0
  4  5  1  0  0  0  0
  4 17  1  0  0  0  0
  5  6  1  0  0  0  0
  5 27  1  0  0  0  0
  5 28  1  0  0  0  0
  6  7  1  0  0  0  0
  6  8  1  0  0  0  0
  6 29  1  0  0  0  0
  7 30  1  0  0  0  0
  8  9  1  0  0  0  0
  8 31  1  0  0  0  0
  8 32  1  0  0  0  0
  9 10  1  0  0  0  0
 10 11  1  0  0  0  0
 10 33  1  0  0  0  0
 10 34  1  0  0  0  0
 11 16  1  0  0  0  0
 11 12  2  0  0  0  0
 12 13  1  0  0  0  0
 12 35  1  0  0  0  0
 13 14  2  0  0  0  0
 13 36  1  0  0  0  0
 14 15  1  0  0  0  0
 14 37  1  0  0  0  0
 15 16  2  0  0  0  0
 15 38  1  0  0  0  0
 16 39  1  0  0  0  0
 17 18  2  0  0  0  0
 17 19  1  0  0  0  0
 19 20  1  0  0  0  0
 19 22  2  0  0  0  0
 20 21  3  0  0  0  0
 22 23  1  0  0  0  0
 23 40  1  0  0  0  0
 23 41  1  0  0  0  0
 23 42  1  0  0  0  0
M  END
> <s_m_source_file>
AV-unprocessed.smi

> <i_m_source_file_index>
1329

> <i_lp_mmshare_version>
43012

> <i_f3d_flags>
0

> <s_epik_input>
TiNDYyhjMVtDSDNdKWMoPU8pbihuYzFbQ0gzXSlbQ0gyXVtDQEhdKFtPSF0pW0NIMl1PW0NIMl1jMltjSF1bY0hdW2NIXVtjSF1bY0hdMg==

> <s_epik_cmdline>
J2VwaWtfcHl0aG9uJywgJy1waCcsICc3LjAnLCAnLXRuJywgJzgnLCAnLW1hJywgJzIwMCcsICctbWV0YWxfYmluZGluZycsICctaW1hZScsICc8aW5maWxlLm1hZT4nLCAnLW9tYWUnLCAnPG91dGZpbGUubWFlPic=

> <r_lp_tautomer_probability>
1

> <r_epik_Ionization_Penalty>
6.13319e-08

> <r_epik_Ionization_Penalty_Charging>
2.19172e-10

> <r_epik_Ionization_Penalty_Neutral>
6.11128e-08

> <r_epik_State_Penalty>
-0

> <r_epik_Charging_Adjusted_Penalty>
2.19172e-10

> <i_epik_Tot_Q>
0

> <i_epik_Tot_abs_Q>
0

> <r_epik_Metal_State_Penalty>
-0

> <b_epik_Metal_Only>
0

> <s_lp_Force_Field>
OPLS_2005

> <r_lp_Energy>
31.6334

> <b_lp_Chiralities_Consistent>
1

> <s_lp_Variant>
AV-unprocessed.smi:1329-2

> <Gold.Version>
5.8.1

> <Gold.Id.Protein>
6NUR|6NUR_protein|mol2

> <Gold.PLP.Fitness>
48.0948

> <Gold.PLP.PLP>
-44.5317

> <Gold.PLP.part.hbond>
-2.4492

> <Gold.PLP.part.metal>
0.0000

> <Gold.PLP.part.buried>
-0.5948

> <Gold.PLP.part.nonpolar>
-41.0725

> <Gold.PLP.part.repulsive>
0.8351

> <Gold.PLP.ligand.clash>
0.0000

> <Gold.PLP.ligand.torsion>
1.2510

> <Gold.PLP.Chemscore.Hbond>
1.9670

> <Gold.PLP.Chemscore.CHOScore>
0.0000

> <Gold.PLP.Chemscore.Metal>
0.0000

> <Gold.Chemscore.Hbonds>
donor molecule, donor type, donor heavy atom, donor atom, acceptor molecule, acceptor atom, score
      L1  H     7    30       P1  7957  0.59
      P1  H  7989  7998       L1     7  0.38
      P1  H  8011  8017       L1     7  0.94

> <Gold.PLP.Chemscore.Internal.Correction>
0.1641

> <Gold.Rescore>
     Score         DG    S(hbond)    S(metal)    S(lipo)     H(rot)  DE(clash)    DE(int)     intcor
     12.72     -15.75       0.95        0.00     114.71       2.48       1.09       1.94       ----

> <Gold.Chemscore.Fitness>
12.7171

> <Gold.Chemscore.DG>
-15.7476

> <Gold.Chemscore.ZeroCoef>
-5.4800

> <Gold.Chemscore.Hbond>
0.9548

> <Gold.Chemscore.Metal>
0.0000

> <Gold.Chemscore.Lipo>
114.7135

> <Gold.Chemscore.Internal_Hbond>
0.0000

> <Gold.Chemscore.DEClash>
1.0941

> <Gold.Chemscore.DEInternal>
1.9364

> <Gold.Chemscore.Rot>
2.4777

> <Gold.Chemscore.Internal.Correction>
   9.000000E+99

> <Gold.Chemscore.Hbonds>
donor molecule, donor type, donor heavy atom, donor atom, acceptor molecule, acceptor atom, score
      L1  H     7    30       P1  7957  0.60
      P1  H  7989  7998       L1     7  0.31
      P1  H  8011  8017       L1     7  0.09

> <Gold.Chemscore.Hbond.Weighted>
-3.1890

> <Gold.Chemscore.Metal.Weighted>
-0.0000

> <Gold.Chemscore.Lipo.Weighted>
-13.4215

> <Gold.Chemscore.Internal_Hbond.Weighted>
0.0000

> <Gold.Chemscore.DEClash.Weighted>
1.0941

> <Gold.Chemscore.DEInternal.Weighted>
1.9364

> <Gold.Chemscore.Rot.Weighted>
6.3428

> <Gold.Chemscore.Internal.Correction.Weighted>
   9.000000E+99

> <Gold.Protein.RotatedTorsions>
[ 6907 6896 6895 6894 ] final -174.80 input  -60.11 | X-H torsion
[ 7974 7965 7964 7962 ] final   79.92 input  175.53 | X-H torsion
[ 8008 7997 7996 7995 ] final   81.26 input   59.86 | X-H torsion
[ 10167 10162 10161 10158 ] final  134.50 input  -65.29 | X-H torsion
[ 10718 10713 10712 10709 ] final -142.20 input   66.30 | X-H torsion
[ 10763 10752 10751 10750 ] final  152.18 input  -60.55 | X-H torsion
[ 11005 11000 10999 10996 ] final    2.73 input  -57.11 | X-H torsion

> <Gold.Protein.ActiveResidues>
 VAL166  LYS551  ARG553  GLY616  TRP617  ASP618  TYR619  PRO620  LYS621  CYS622 
 ASP623  PHE694  ASN695  SER759  ASP760  ASP761  ALA762  ILE779  LEU786  VAL792 
 PHE793  MET794  SER795  GLU796  ALA797  LYS798  CYS799  TRP800  GLU811  SER814 

> <Gold.Protein.RotatedAtoms>
  151.5782  133.3381  159.3002 H   0  0  0  0  0  0  0  0  0  0  0  0  # atno 6907 bound_to 6896
  150.8328  134.7592  159.6879 H   0  0  0  0  0  0  0  0  0  0  0  0  # atno 6908 bound_to 6896
  152.4409  134.5599  159.9942 H   0  0  0  0  0  0  0  0  0  0  0  0  # atno 6909 bound_to 6896
  145.6579  139.2464  143.1939 H   0  0  0  0  0  0  0  0  0  0  0  0  # atno 7974 bound_to 7965
  155.8947  140.3437  155.5982 H   0  0  0  0  0  0  0  0  0  0  0  0  # atno 8008 bound_to 7997
  155.7570  140.0827  157.2193 H   0  0  0  0  0  0  0  0  0  0  0  0  # atno 8009 bound_to 7997
  154.4037  140.1543  156.2776 H   0  0  0  0  0  0  0  0  0  0  0  0  # atno 8010 bound_to 7997
  139.5254  144.6564  151.5148 H   0  0  0  0  0  0  0  0  0  0  0  0  # atno 10167 bound_to 10162
  156.3431  130.7648  151.1788 H   0  0  0  0  0  0  0  0  0  0  0  0  # atno 10718 bound_to 10713
  154.1159  135.2836  155.3220 H   0  0  0  0  0  0  0  0  0  0  0  0  # atno 10763 bound_to 10752
  154.6457  135.5387  153.7845 H   0  0  0  0  0  0  0  0  0  0  0  0  # atno 10764 bound_to 10752
  153.0329  135.6497  154.1316 H   0  0  0  0  0  0  0  0  0  0  0  0  # atno 10765 bound_to 10752
  140.6010  133.9836  155.8132 H   0  0  0  0  0  0  0  0  0  0  0  0  # atno 11005 bound_to 11000
  146.1149  140.7382  142.9485 LP  0  0  0  0  0  0  0  0  0  0  0  0  # atno 17320 bound_to 7965
  144.7099  140.3999  143.7088 LP  0  0  0  0  0  0  0  0  0  0  0  0  # atno 17321 bound_to 7965
  140.6392  143.8923  150.6676 LP  0  0  0  0  0  0  0  0  0  0  0  0  # atno 17342 bound_to 10162
  140.2252  143.3778  152.1610 LP  0  0  0  0  0  0  0  0  0  0  0  0  # atno 17343 bound_to 10162
  157.7450  131.0449  150.4815 LP  0  0  0  0  0  0  0  0  0  0  0  0  # atno 17370 bound_to 10713
  156.4998  130.4114  149.6359 LP  0  0  0  0  0  0  0  0  0  0  0  0  # atno 17371 bound_to 10713
  141.0872  133.9972  157.3294 LP  0  0  0  0  0  0  0  0  0  0  0  0  # atno 17394 bound_to 11000
  139.9232  135.0201  156.8142 LP  0  0  0  0  0  0  0  0  0  0  0  0  # atno 17395 bound_to 11000

$$$$
