AV-unprocessed.smi:2035|AV-procd|sdf|8272|dock4
  -GOLD-   2272010543D 1   1.00000     0.00000
 Structure written by MMmdl.
 35 36  0  0  0  0  0  0  0  0  2 V2000
  150.1039  140.8778  157.3394 O   0  0  0  0  0  0  0  0  0  0  0  0
  149.8709  142.0057  156.9074 C   0  0  0  0  0  0  0  0  0  0  0  0
  150.3151  143.1578  157.4405 N   0  0  0  0  0  0  0  0  0  0  0  0
  151.1271  143.3768  158.5892 C   0  0  0  0  0  0  0  0  0  0  0  0
  151.1217  144.6794  159.1370 C   0  0  0  0  0  0  0  0  0  0  0  0
  151.9005  144.9620  160.2774 C   0  0  0  0  0  0  0  0  0  0  0  0
  152.6449  143.9873  160.8408 N   0  3  0  0  0  0  0  0  0  0  0  0
  152.6820  142.7273  160.3578 C   0  0  0  0  0  0  0  0  0  0  0  0
  151.9237  142.3851  159.2193 C   0  0  0  0  0  0  0  0  0  0  0  0
  149.1249  142.2376  155.8174 N   0  0  0  0  0  0  0  0  0  0  0  0
  148.4991  141.2170  154.9742 C   0  0  1  0  0  0  0  0  0  0  0  0
  147.6593  141.8879  153.8641 C   0  0  0  0  0  0  0  0  0  0  0  0
  146.5595  140.9866  153.2803 C   0  0  0  0  0  0  0  0  0  0  0  0
  147.0686  139.7240  152.5690 C   0  0  0  0  0  0  0  0  0  0  0  0
  147.7716  138.7268  153.5062 C   0  0  0  0  0  0  0  0  0  0  0  0
  149.1433  139.1148  153.8107 N   0  0  0  0  0  0  0  0  0  0  0  0
  149.5513  140.2186  154.4555 C   0  0  0  0  0  0  0  0  0  0  0  0
  150.7511  140.4349  154.6254 O   0  0  0  0  0  0  0  0  0  0  0  0
  150.0424  143.9952  156.9470 H   0  0  0  0  0  0  0  0  0  0  0  0
  150.5257  145.4610  158.6880 H   0  0  0  0  0  0  0  0  0  0  0  0
  151.9490  145.9311  160.7522 H   0  0  0  0  0  0  0  0  0  0  0  0
  153.3122  142.0328  160.8942 H   0  0  0  0  0  0  0  0  0  0  0  0
  151.9732  141.3683  158.8646 H   0  0  0  0  0  0  0  0  0  0  0  0
  148.9902  143.1955  155.5271 H   0  0  0  0  0  0  0  0  0  0  0  0
  147.8276  140.6433  155.6157 H   0  0  0  0  0  0  0  0  0  0  0  0
  147.1684  142.7760  154.2644 H   0  0  0  0  0  0  0  0  0  0  0  0
  148.3111  142.2477  153.0666 H   0  0  0  0  0  0  0  0  0  0  0  0
  145.8637  140.7038  154.0711 H   0  0  0  0  0  0  0  0  0  0  0  0
  145.9763  141.5722  152.5689 H   0  0  0  0  0  0  0  0  0  0  0  0
  146.2101  139.2236  152.1200 H   0  0  0  0  0  0  0  0  0  0  0  0
  147.7240  139.9926  151.7392 H   0  0  0  0  0  0  0  0  0  0  0  0
  147.2032  138.5802  154.4258 H   0  0  0  0  0  0  0  0  0  0  0  0
  147.8185  137.7531  153.0182 H   0  0  0  0  0  0  0  0  0  0  0  0
  149.8627  138.4831  153.4893 H   0  0  0  0  0  0  0  0  0  0  0  0
  153.2014  144.2113  161.6664 H   0  0  0  0  0  0  0  0  0  0  0  0
  1  2  2  0  0  0  0
  2  3  1  0  0  0  0
  2 10  1  0  0  0  0
  3  4  1  0  0  0  0
  3 19  1  0  0  0  0
  4  9  1  0  0  0  0
  4  5  2  0  0  0  0
  5  6  1  0  0  0  0
  5 20  1  0  0  0  0
  6  7  2  0  0  0  0
  6 21  1  0  0  0  0
  7  8  1  0  0  0  0
  7 35  1  0  0  0  0
  8  9  2  0  0  0  0
  8 22  1  0  0  0  0
  9 23  1  0  0  0  0
 10 11  1  0  0  0  0
 10 24  1  0  0  0  0
 11 17  1  0  0  0  0
 11 12  1  0  0  0  0
 11 25  1  0  0  0  0
 12 13  1  0  0  0  0
 12 26  1  0  0  0  0
 12 27  1  0  0  0  0
 13 14  1  0  0  0  0
 13 28  1  0  0  0  0
 13 29  1  0  0  0  0
 14 15  1  0  0  0  0
 14 30  1  0  0  0  0
 14 31  1  0  0  0  0
 15 16  1  0  0  0  0
 15 32  1  0  0  0  0
 15 33  1  0  0  0  0
 16 17  1  0  0  0  0
 16 34  1  0  0  0  0
 17 18  2  0  0  0  0
M  CHG  1   7   1
M  END
> <s_m_source_file>
AV-unprocessed.smi

> <i_m_source_file_index>
2035

> <i_lp_mmshare_version>
43012

> <i_f3d_flags>
0

> <s_epik_input>
W2NIXTFbY0hdbltjSF1bY0hdYzFbTkhdQyg9TylbTkhdW0NAQEhdMltDSDJdW0NIMl1bQ0gyXVtDSDJdW05IXUMyPU8=

> <s_epik_cmdline>
J2VwaWtfcHl0aG9uJywgJy1waCcsICc3LjAnLCAnLXRuJywgJzgnLCAnLW1hJywgJzIwMCcsICctbWV0YWxfYmluZGluZycsICctaW1hZScsICc8aW5maWxlLm1hZT4nLCAnLW9tYWUnLCAnPG91dGZpbGUubWFlPic=

> <r_epik_Ionization_Penalty>
1.10339

> <r_epik_Ionization_Penalty_Charging>
1.10337

> <r_epik_Ionization_Penalty_Neutral>
1.85869e-05

> <r_epik_State_Penalty>
1.16071

> <r_epik_Charging_Adjusted_Penalty>
2.26408

> <i_epik_Tot_Q>
1

> <i_epik_Tot_abs_Q>
1

> <r_epik_Metal_State_Penalty>
1.24751

> <b_epik_Metal_Only>
0

> <s_lp_Force_Field>
OPLS_2005

> <r_lp_Energy>
20.9624

> <b_lp_Chiralities_Consistent>
1

> <s_lp_Variant>
AV-unprocessed.smi:2035-4

> <Gold.Version>
5.8.1

> <Gold.Id.Protein>
6NUR|6NUR_protein|mol2

> <Gold.PLP.Fitness>
42.7037

> <Gold.PLP.PLP>
-34.0556

> <Gold.PLP.part.hbond>
-3.8897

> <Gold.PLP.part.metal>
0.0000

> <Gold.PLP.part.buried>
0.7283

> <Gold.PLP.part.nonpolar>
-30.1233

> <Gold.PLP.part.repulsive>
0.3587

> <Gold.PLP.ligand.clash>
0.0000

> <Gold.PLP.ligand.torsion>
0.0815

> <Gold.PLP.Chemscore.Hbond>
2.9280

> <Gold.PLP.Chemscore.CHOScore>
0.0000

> <Gold.PLP.Chemscore.Metal>
0.0000

> <Gold.Chemscore.Hbonds>
donor molecule, donor type, donor heavy atom, donor atom, acceptor molecule, acceptor atom, score
      L1  H     3    19       P1  8028  0.93
      L1  H    10    24       P1  8028  0.99
      P1  H  7989  7998       L1    18  0.91

> <Gold.PLP.Chemscore.Internal.Correction>
0.0270

> <Gold.Rescore>
     Score         DG    S(hbond)    S(metal)    S(lipo)     H(rot)  DE(clash)    DE(int)     intcor
     20.11     -22.05       2.85        0.00      82.28       1.00       0.21       1.73       ----

> <Gold.Chemscore.Fitness>
20.1081

> <Gold.Chemscore.DG>
-22.0526

> <Gold.Chemscore.ZeroCoef>
-5.4800

> <Gold.Chemscore.Hbond>
2.8461

> <Gold.Chemscore.Metal>
0.0000

> <Gold.Chemscore.Lipo>
82.2784

> <Gold.Chemscore.Internal_Hbond>
0.0000

> <Gold.Chemscore.DEClash>
0.2101

> <Gold.Chemscore.DEInternal>
1.7343

> <Gold.Chemscore.Rot>
1.0000

> <Gold.Chemscore.Internal.Correction>
   9.000000E+99

> <Gold.Chemscore.Hbonds>
donor molecule, donor type, donor heavy atom, donor atom, acceptor molecule, acceptor atom, score
      L1  H     3    19       P1  8028  0.87
      L1  H    10    24       P1  8028  0.92
      P1  H  7989  7998       L1    18  0.84

> <Gold.Chemscore.Hbond.Weighted>
-9.5060

> <Gold.Chemscore.Metal.Weighted>
-0.0000

> <Gold.Chemscore.Lipo.Weighted>
-9.6266

> <Gold.Chemscore.Internal_Hbond.Weighted>
0.0000

> <Gold.Chemscore.DEClash.Weighted>
0.2101

> <Gold.Chemscore.DEInternal.Weighted>
1.7343

> <Gold.Chemscore.Rot.Weighted>
2.5600

> <Gold.Chemscore.Internal.Correction.Weighted>
   9.000000E+99

> <Gold.Protein.RotatedTorsions>
[ 6907 6896 6895 6894 ] final   93.31 input  -60.11 | X-H torsion
[ 7974 7965 7964 7962 ] final  172.15 input  175.53 | X-H torsion
[ 8008 7997 7996 7995 ] final  135.85 input   59.86 | X-H torsion
[ 10167 10162 10161 10158 ] final   28.78 input  -65.29 | X-H torsion
[ 10718 10713 10712 10709 ] final  143.30 input   66.30 | X-H torsion
[ 10763 10752 10751 10750 ] final -104.60 input  -60.55 | X-H torsion
[ 11005 11000 10999 10996 ] final   44.51 input  -57.11 | X-H torsion

> <Gold.Protein.ActiveResidues>
 VAL166  LYS551  ARG553  GLY616  TRP617  ASP618  TYR619  PRO620  LYS621  CYS622 
 ASP623  PHE694  ASN695  SER759  ASP760  ASP761  ALA762  ILE779  LEU786  VAL792 
 PHE793  MET794  SER795  GLU796  ALA797  LYS798  CYS799  TRP800  GLU811  SER814 

> <Gold.Protein.RotatedAtoms>
  152.5452  134.1367  159.8461 H   0  0  0  0  0  0  0  0  0  0  0  0  # atno 6907 bound_to 6896
  151.1407  133.4966  159.2604 H   0  0  0  0  0  0  0  0  0  0  0  0  # atno 6908 bound_to 6896
  151.1575  135.0268  159.8750 H   0  0  0  0  0  0  0  0  0  0  0  0  # atno 6909 bound_to 6896
  144.7275  139.9456  143.6430 H   0  0  0  0  0  0  0  0  0  0  0  0  # atno 7974 bound_to 7965
  156.3003  140.2460  156.3649 H   0  0  0  0  0  0  0  0  0  0  0  0  # atno 8008 bound_to 7997
  154.8843  140.0411  157.1820 H   0  0  0  0  0  0  0  0  0  0  0  0  # atno 8009 bound_to 7997
  154.8664  140.2928  155.5512 H   0  0  0  0  0  0  0  0  0  0  0  0  # atno 8010 bound_to 7997
  140.4823  144.0596  150.6269 H   0  0  0  0  0  0  0  0  0  0  0  0  # atno 10167 bound_to 10162
  157.3705  131.0978  151.0832 H   0  0  0  0  0  0  0  0  0  0  0  0  # atno 10718 bound_to 10713
  154.7889  135.4780  154.0009 H   0  0  0  0  0  0  0  0  0  0  0  0  # atno 10763 bound_to 10752
  153.1602  135.6807  153.8761 H   0  0  0  0  0  0  0  0  0  0  0  0  # atno 10764 bound_to 10752
  153.8377  135.3183  155.3402 H   0  0  0  0  0  0  0  0  0  0  0  0  # atno 10765 bound_to 10752
  140.1545  134.4419  155.8359 H   0  0  0  0  0  0  0  0  0  0  0  0  # atno 11005 bound_to 11000
  146.0751  139.3739  143.0499 LP  0  0  0  0  0  0  0  0  0  0  0  0  # atno 17320 bound_to 7965
  145.7916  140.9811  143.1046 LP  0  0  0  0  0  0  0  0  0  0  0  0  # atno 17321 bound_to 7965
  140.3842  143.2786  152.0135 LP  0  0  0  0  0  0  0  0  0  0  0  0  # atno 17342 bound_to 10162
  139.4835  144.6130  151.7398 LP  0  0  0  0  0  0  0  0  0  0  0  0  # atno 17343 bound_to 10162
  157.1938  130.6364  149.5714 LP  0  0  0  0  0  0  0  0  0  0  0  0  # atno 17370 bound_to 10713
  155.9754  130.4713  150.6461 LP  0  0  0  0  0  0  0  0  0  0  0  0  # atno 17371 bound_to 10713
  141.2203  133.6887  156.7483 LP  0  0  0  0  0  0  0  0  0  0  0  0  # atno 17394 bound_to 11000
  140.2564  134.8501  157.3716 LP  0  0  0  0  0  0  0  0  0  0  0  0  # atno 17395 bound_to 11000

$$$$
