AV-unprocessed.smi:2067|AV-procd|sdf|8426|dock8
  -GOLD-   2272011123D 1   1.00000     0.00000
 Structure written by MMmdl.
 47 48  0  0  0  0  0  0  0  0  1 V2000
  143.8518  136.1244  154.2581 C   0  0  0  0  0  0  0  0  0  0  0  0
  144.5224  135.4404  153.0567 C   0  0  1  0  0  0  0  0  0  0  0  0
  143.5169  134.5357  152.3171 C   0  0  0  0  0  0  0  0  0  0  0  0
  144.1663  133.8236  151.1216 C   0  0  0  0  0  0  0  0  0  0  0  0
  144.7945  134.8356  150.1541 C   0  0  0  0  0  0  0  0  0  0  0  0
  145.8022  135.7415  150.8777 C   0  0  0  0  0  0  0  0  0  0  0  0
  145.1574  136.4617  152.0838 C   0  0  2  0  0  0  0  0  0  0  0  0
  146.1255  137.2086  152.8130 O   0  0  0  0  0  0  0  0  0  0  0  0
  146.5902  138.3890  152.1729 C   0  0  0  0  0  0  0  0  0  0  0  0
  147.0859  139.3584  153.2510 C   0  0  0  0  0  0  0  0  0  0  0  0
  148.4868  139.1209  153.5651 N   0  0  0  0  0  0  0  0  0  0  0  0
  149.1873  139.7058  154.6143 C   0  0  0  0  0  0  0  0  0  0  0  0
  148.5872  140.5780  155.4714 C   0  0  0  0  0  0  0  0  0  0  0  0
  147.2014  140.9191  155.3985 C   0  0  0  0  0  0  0  0  0  0  0  0
  146.0826  141.2079  155.3174 N   0  0  0  0  0  0  0  0  0  0  0  0
  149.3122  141.2089  156.5734 C   0  0  0  0  0  0  0  0  0  0  0  0
  148.7936  142.0066  157.3574 O   0  0  0  0  0  0  0  0  0  0  0  0
  150.6690  140.8309  156.6754 N   0  0  0  0  0  0  0  0  0  0  0  0
  151.4878  141.4021  157.7259 C   0  0  0  0  0  0  0  0  0  0  0  0
  151.3071  139.9194  155.8126 C   0  0  0  0  0  0  0  0  0  0  0  0
  152.4986  139.6288  155.9604 O   0  0  0  0  0  0  0  0  0  0  0  0
  150.5329  139.3607  154.7677 N   0  0  0  0  0  0  0  0  0  0  0  0
  151.2601  138.4602  153.8971 C   0  0  0  0  0  0  0  0  0  0  0  0
  143.0668  136.8101  153.9384 H   0  0  0  0  0  0  0  0  0  0  0  0
  144.5757  136.6916  154.8425 H   0  0  0  0  0  0  0  0  0  0  0  0
  143.4015  135.3915  154.9277 H   0  0  0  0  0  0  0  0  0  0  0  0
  145.3192  134.8044  153.4456 H   0  0  0  0  0  0  0  0  0  0  0  0
  143.1080  133.7926  153.0028 H   0  0  0  0  0  0  0  0  0  0  0  0
  142.6718  135.1315  151.9691 H   0  0  0  0  0  0  0  0  0  0  0  0
  144.9311  133.1322  151.4776 H   0  0  0  0  0  0  0  0  0  0  0  0
  143.4231  133.2209  150.5989 H   0  0  0  0  0  0  0  0  0  0  0  0
  145.2873  134.3108  149.3351 H   0  0  0  0  0  0  0  0  0  0  0  0
  144.0114  135.4466  149.7036 H   0  0  0  0  0  0  0  0  0  0  0  0
  146.6492  135.1443  151.2185 H   0  0  0  0  0  0  0  0  0  0  0  0
  146.1988  136.4632  150.1638 H   0  0  0  0  0  0  0  0  0  0  0  0
  144.3772  137.1384  151.7298 H   0  0  0  0  0  0  0  0  0  0  0  0
  147.4140  138.1340  151.5062 H   0  0  0  0  0  0  0  0  0  0  0  0
  145.8107  138.8579  151.5695 H   0  0  0  0  0  0  0  0  0  0  0  0
  146.8981  140.3853  152.9442 H   0  0  0  0  0  0  0  0  0  0  0  0
  146.5183  139.1987  154.1678 H   0  0  0  0  0  0  0  0  0  0  0  0
  149.0388  138.9966  152.7287 H   0  0  0  0  0  0  0  0  0  0  0  0
  152.3310  141.9014  157.2450 H   0  0  0  0  0  0  0  0  0  0  0  0
  151.8214  140.5775  158.3584 H   0  0  0  0  0  0  0  0  0  0  0  0
  150.9305  142.1240  158.3215 H   0  0  0  0  0  0  0  0  0  0  0  0
  152.0644  139.0337  153.4324 H   0  0  0  0  0  0  0  0  0  0  0  0
  150.6065  138.0562  153.1277 H   0  0  0  0  0  0  0  0  0  0  0  0
  151.6464  137.6465  154.5136 H   0  0  0  0  0  0  0  0  0  0  0  0
  1  2  1  0  0  0  0
  1 24  1  0  0  0  0
  1 25  1  0  0  0  0
  1 26  1  0  0  0  0
  2  7  1  0  0  0  0
  2  3  1  0  0  0  0
  2 27  1  0  0  0  0
  3  4  1  0  0  0  0
  3 28  1  0  0  0  0
  3 29  1  0  0  0  0
  4  5  1  0  0  0  0
  4 30  1  0  0  0  0
  4 31  1  0  0  0  0
  5  6  1  0  0  0  0
  5 32  1  0  0  0  0
  5 33  1  0  0  0  0
  6  7  1  0  0  0  0
  6 34  1  0  0  0  0
  6 35  1  0  0  0  0
  7  8  1  0  0  0  0
  7 36  1  0  0  0  0
  8  9  1  0  0  0  0
  9 10  1  0  0  0  0
  9 37  1  0  0  0  0
  9 38  1  0  0  0  0
 10 11  1  0  0  0  0
 10 39  1  0  0  0  0
 10 40  1  0  0  0  0
 11 12  1  0  0  0  0
 11 41  1  0  0  0  0
 12 22  1  0  0  0  0
 12 13  2  0  0  0  0
 13 14  1  0  0  0  0
 13 16  1  0  0  0  0
 14 15  3  0  0  0  0
 16 17  2  0  0  0  0
 16 18  1  0  0  0  0
 18 19  1  0  0  0  0
 18 20  1  0  0  0  0
 19 42  1  0  0  0  0
 19 43  1  0  0  0  0
 19 44  1  0  0  0  0
 20 21  2  0  0  0  0
 20 22  1  0  0  0  0
 22 23  1  0  0  0  0
 23 45  1  0  0  0  0
 23 46  1  0  0  0  0
 23 47  1  0  0  0  0
M  END
> <s_m_source_file>
AV-unprocessed.smi

> <i_m_source_file_index>
2067

> <i_lp_mmshare_version>
43012

> <i_f3d_flags>
0

> <s_epik_input>
W0NIM11bQ0BASF0xW0NIMl1bQ0gyXVtDSDJdW0NIMl1bQ0BIXTFPW0NIMl1bQ0gyXVtOSF1jMmMoQyNOKWMoPU8pbihbQ0gzXSljKD1PKW4yW0NIM10=

> <s_epik_cmdline>
J2VwaWtfcHl0aG9uJywgJy1waCcsICc3LjAnLCAnLXRuJywgJzgnLCAnLW1hJywgJzIwMCcsICctbWV0YWxfYmluZGluZycsICctaW1hZScsICc8aW5maWxlLm1hZT4nLCAnLW9tYWUnLCAnPG91dGZpbGUubWFlPic=

> <r_epik_Ionization_Penalty>
0.00056529

> <r_epik_Ionization_Penalty_Charging>
3.94678e-10

> <r_epik_Ionization_Penalty_Neutral>
0.000565289

> <r_epik_State_Penalty>
0.000354611

> <r_epik_Charging_Adjusted_Penalty>
0.000354611

> <i_epik_Tot_Q>
0

> <i_epik_Tot_abs_Q>
0

> <r_epik_Metal_State_Penalty>
-0

> <b_epik_Metal_Only>
0

> <s_lp_Force_Field>
OPLS_2005

> <r_lp_Energy>
31.2775

> <b_lp_Chiralities_Consistent>
1

> <s_lp_Variant>
AV-unprocessed.smi:2067-4

> <Gold.Version>
5.8.1

> <Gold.Id.Protein>
6NUR|6NUR_protein|mol2

> <Gold.PLP.Fitness>
42.8613

> <Gold.PLP.PLP>
-38.7358

> <Gold.PLP.part.hbond>
-2.0194

> <Gold.PLP.part.metal>
0.0000

> <Gold.PLP.part.buried>
-6.3196

> <Gold.PLP.part.nonpolar>
-32.3822

> <Gold.PLP.part.repulsive>
2.3881

> <Gold.PLP.ligand.clash>
10.7747

> <Gold.PLP.ligand.torsion>
0.4288

> <Gold.PLP.Chemscore.Hbond>
1.6560

> <Gold.PLP.Chemscore.CHOScore>
0.0000

> <Gold.PLP.Chemscore.Metal>
0.0000

> <Gold.Chemscore.Hbonds>
donor molecule, donor type, donor heavy atom, donor atom, acceptor molecule, acceptor atom, score
      L1  H    11    41       P1  7957  0.80
      P1  H  7997  8009       L1    21  1.00

> <Gold.PLP.Chemscore.Internal.Correction>
10.7898

> <Gold.Rescore>
     Score         DG    S(hbond)    S(metal)    S(lipo)     H(rot)  DE(clash)    DE(int)     intcor
     11.55     -15.00       1.76        0.00      69.71       1.76       0.37       3.08       ----

> <Gold.Chemscore.Fitness>
11.5533

> <Gold.Chemscore.DG>
-14.9985

> <Gold.Chemscore.ZeroCoef>
-5.4800

> <Gold.Chemscore.Hbond>
1.7557

> <Gold.Chemscore.Metal>
0.0000

> <Gold.Chemscore.Lipo>
69.7061

> <Gold.Chemscore.Internal_Hbond>
0.0000

> <Gold.Chemscore.DEClash>
0.3680

> <Gold.Chemscore.DEInternal>
3.0772

> <Gold.Chemscore.Rot>
1.7583

> <Gold.Chemscore.Internal.Correction>
   9.000000E+99

> <Gold.Chemscore.Hbonds>
donor molecule, donor type, donor heavy atom, donor atom, acceptor molecule, acceptor atom, score
      L1  H    11    41       P1  7957  0.78
      P1  H  7997  8009       L1    21  0.99

> <Gold.Chemscore.Hbond.Weighted>
-5.8641

> <Gold.Chemscore.Metal.Weighted>
-0.0000

> <Gold.Chemscore.Lipo.Weighted>
-8.1556

> <Gold.Chemscore.Internal_Hbond.Weighted>
0.0000

> <Gold.Chemscore.DEClash.Weighted>
0.3680

> <Gold.Chemscore.DEInternal.Weighted>
3.0772

> <Gold.Chemscore.Rot.Weighted>
4.5012

> <Gold.Chemscore.Internal.Correction.Weighted>
   9.000000E+99

> <Gold.Protein.RotatedTorsions>
[ 6907 6896 6895 6894 ] final   51.84 input  -60.11 | X-H torsion
[ 7974 7965 7964 7962 ] final   42.04 input  175.53 | X-H torsion
[ 8008 7997 7996 7995 ] final -161.31 input   59.86 | X-H torsion
[ 10167 10162 10161 10158 ] final  102.95 input  -65.29 | X-H torsion
[ 10718 10713 10712 10709 ] final  -91.77 input   66.30 | X-H torsion
[ 10763 10752 10751 10750 ] final   89.65 input  -60.55 | X-H torsion
[ 11005 11000 10999 10996 ] final  155.21 input  -57.11 | X-H torsion

> <Gold.Protein.ActiveResidues>
 VAL166  LYS551  ARG553  GLY616  TRP617  ASP618  TYR619  PRO620  LYS621  CYS622 
 ASP623  PHE694  ASN695  SER759  ASP760  ASP761  ALA762  ILE779  LEU786  VAL792 
 PHE793  MET794  SER795  GLU796  ALA797  LYS798  CYS799  TRP800  GLU811  SER814 

> <Gold.Protein.RotatedAtoms>
  152.3170  134.7428  160.0322 H   0  0  0  0  0  0  0  0  0  0  0  0  # atno 6907 bound_to 6896
  151.7889  133.3352  159.3501 H   0  0  0  0  0  0  0  0  0  0  0  0  # atno 6908 bound_to 6896
  150.7349  134.5792  159.5974 H   0  0  0  0  0  0  0  0  0  0  0  0  # atno 6909 bound_to 6896
  146.0773  139.5345  142.9559 H   0  0  0  0  0  0  0  0  0  0  0  0  # atno 7974 bound_to 7965
  155.7903  140.0877  157.2012 H   0  0  0  0  0  0  0  0  0  0  0  0  # atno 8008 bound_to 7997
  154.3986  140.1491  156.3213 H   0  0  0  0  0  0  0  0  0  0  0  0  # atno 8009 bound_to 7997
  155.8565  140.3432  155.5730 H   0  0  0  0  0  0  0  0  0  0  0  0  # atno 8010 bound_to 7997
  139.7306  144.7037  151.0729 H   0  0  0  0  0  0  0  0  0  0  0  0  # atno 10167 bound_to 10162
  155.9996  130.4961  150.5525 H   0  0  0  0  0  0  0  0  0  0  0  0  # atno 10718 bound_to 10713
  153.1893  135.4462  155.0129 H   0  0  0  0  0  0  0  0  0  0  0  0  # atno 10763 bound_to 10752
  154.8080  135.3282  154.7383 H   0  0  0  0  0  0  0  0  0  0  0  0  # atno 10764 bound_to 10752
  153.7839  135.6975  153.4939 H   0  0  0  0  0  0  0  0  0  0  0  0  # atno 10765 bound_to 10752
  140.1560  134.8642  157.2515 H   0  0  0  0  0  0  0  0  0  0  0  0  # atno 11005 bound_to 11000
  145.6282  141.0309  143.1877 LP  0  0  0  0  0  0  0  0  0  0  0  0  # atno 17320 bound_to 7965
  144.7270  139.7845  143.7361 LP  0  0  0  0  0  0  0  0  0  0  0  0  # atno 17321 bound_to 7965
  140.7770  143.5049  150.9725 LP  0  0  0  0  0  0  0  0  0  0  0  0  # atno 17342 bound_to 10162
  139.8737  143.7160  152.3164 LP  0  0  0  0  0  0  0  0  0  0  0  0  # atno 17343 bound_to 10162
  157.3446  131.0723  151.1761 LP  0  0  0  0  0  0  0  0  0  0  0  0  # atno 17370 bound_to 10713
  157.2598  130.6653  149.5969 LP  0  0  0  0  0  0  0  0  0  0  0  0  # atno 17371 bound_to 10713
  140.2547  134.3642  155.7429 LP  0  0  0  0  0  0  0  0  0  0  0  0  # atno 17394 bound_to 11000
  141.2204  133.7336  156.8989 LP  0  0  0  0  0  0  0  0  0  0  0  0  # atno 17395 bound_to 11000

$$$$
