AV-unprocessed.smi:2858|AV-procd|sdf|10999|dock2
  -GOLD-   2272015453D 1   1.00000     0.00000
 Structure written by MMmdl.
 40 41  0  0  0  0  0  0  0  0  2 V2000
  144.6555  135.8753  153.5502 O   0  0  0  0  0  0  0  0  0  0  0  0
  145.4911  136.7503  153.3387 C   0  0  0  0  0  0  0  0  0  0  0  0
  146.6613  136.9353  154.3169 C   0  0  0  0  0  0  0  0  0  0  0  0
  147.7822  137.7447  153.7722 N   0  3  2  0  0  0  0  0  0  0  0  0
  148.8380  137.9912  154.7856 C   0  0  0  0  0  0  0  0  0  0  0  0
  150.1002  138.6257  154.1776 C   0  0  0  0  0  0  0  0  0  0  0  0
  151.1288  139.0188  155.2509 C   0  0  0  0  0  0  0  0  0  0  0  0
  150.7891  140.2885  155.8829 N   0  0  0  0  0  0  0  0  0  0  0  0
  151.4884  140.8640  156.8719 C   0  0  0  0  0  0  0  0  0  0  0  0
  152.5010  140.3648  157.3642 O   0  0  0  0  0  0  0  0  0  0  0  0
  150.9299  142.0252  157.2550 N   0  0  0  0  0  0  0  0  0  0  0  0
  151.3502  142.8956  158.2949 C   0  0  0  0  0  0  0  0  0  0  0  0
  151.1839  144.2986  158.1685 C   0  0  0  0  0  0  0  0  0  0  0  0
  151.5827  145.1389  159.2255 C   0  0  0  0  0  0  0  0  0  0  0  0
  152.1268  144.5593  160.3852 C   0  0  0  0  0  0  0  0  0  0  0  0
  152.2393  143.1579  160.4353 C   0  0  0  0  0  0  0  0  0  0  0  0
  151.8559  142.3488  159.4246 N   0  0  0  0  0  0  0  0  0  0  0  0
  147.2974  138.9773  153.1058 C   0  0  0  0  0  0  0  0  0  0  0  0
  146.3634  138.6171  151.9371 C   0  0  0  0  0  0  0  0  0  0  0  0
  145.4110  137.5612  152.2713 N   0  0  0  0  0  0  0  0  0  0  0  0
  146.2736  137.4131  155.2180 H   0  0  0  0  0  0  0  0  0  0  0  0
  147.0336  135.9527  154.6100 H   0  0  0  0  0  0  0  0  0  0  0  0
  148.4412  138.6094  155.5924 H   0  0  0  0  0  0  0  0  0  0  0  0
  149.1236  137.0398  155.2373 H   0  0  0  0  0  0  0  0  0  0  0  0
  150.5585  137.9262  153.4772 H   0  0  0  0  0  0  0  0  0  0  0  0
  149.8330  139.5099  153.5999 H   0  0  0  0  0  0  0  0  0  0  0  0
  151.2096  138.2372  156.0084 H   0  0  0  0  0  0  0  0  0  0  0  0
  152.1173  139.1185  154.8015 H   0  0  0  0  0  0  0  0  0  0  0  0
  149.9679  140.7653  155.5390 H   0  0  0  0  0  0  0  0  0  0  0  0
  150.0433  142.2557  156.8315 H   0  0  0  0  0  0  0  0  0  0  0  0
  150.7462  144.7399  157.2858 H   0  0  0  0  0  0  0  0  0  0  0  0
  151.4669  146.2100  159.1492 H   0  0  0  0  0  0  0  0  0  0  0  0
  152.4431  145.1718  161.2165 H   0  0  0  0  0  0  0  0  0  0  0  0
  152.6443  142.6726  161.3108 H   0  0  0  0  0  0  0  0  0  0  0  0
  146.7674  139.5931  153.8344 H   0  0  0  0  0  0  0  0  0  0  0  0
  148.1247  139.5776  152.7292 H   0  0  0  0  0  0  0  0  0  0  0  0
  145.8211  139.5002  151.5982 H   0  0  0  0  0  0  0  0  0  0  0  0
  146.9555  138.2687  151.0901 H   0  0  0  0  0  0  0  0  0  0  0  0
  144.6333  137.4313  151.6394 H   0  0  0  0  0  0  0  0  0  0  0  0
  148.2050  137.1781  153.0508 H   0  0  0  0  0  0  0  0  0  0  0  0
  1  2  2  0  0  0  0
  2 20  1  0  0  0  0
  2  3  1  0  0  0  0
  3  4  1  0  0  0  0
  3 21  1  0  0  0  0
  3 22  1  0  0  0  0
  4  5  1  0  0  0  0
  4 18  1  0  0  0  0
  4 40  1  0  0  0  0
  5  6  1  0  0  0  0
  5 23  1  0  0  0  0
  5 24  1  0  0  0  0
  6  7  1  0  0  0  0
  6 25  1  0  0  0  0
  6 26  1  0  0  0  0
  7  8  1  0  0  0  0
  7 27  1  0  0  0  0
  7 28  1  0  0  0  0
  8  9  1  0  0  0  0
  8 29  1  0  0  0  0
  9 10  2  0  0  0  0
  9 11  1  0  0  0  0
 11 12  1  0  0  0  0
 11 30  1  0  0  0  0
 12 17  1  0  0  0  0
 12 13  2  0  0  0  0
 13 14  1  0  0  0  0
 13 31  1  0  0  0  0
 14 15  2  0  0  0  0
 14 32  1  0  0  0  0
 15 16  1  0  0  0  0
 15 33  1  0  0  0  0
 16 17  2  0  0  0  0
 16 34  1  0  0  0  0
 18 19  1  0  0  0  0
 18 35  1  0  0  0  0
 18 36  1  0  0  0  0
 19 20  1  0  0  0  0
 19 37  1  0  0  0  0
 19 38  1  0  0  0  0
 20 39  1  0  0  0  0
M  CHG  1   4   1
M  END
> <s_m_source_file>
AV-unprocessed.smi

> <i_m_source_file_index>
2858

> <i_lp_mmshare_version>
43012

> <i_f3d_flags>
0

> <s_epik_input>
Tz1DMVtDSDJdTihbQ0gyXVtDSDJdW05IXTEpW0NIMl1bQ0gyXVtDSDJdW05IXUMoPU8pW05IXWMyW2NIXVtjSF1bY0hdW2NIXW4y

> <s_epik_cmdline>
J2VwaWtfcHl0aG9uJywgJy1waCcsICc3LjAnLCAnLXRuJywgJzgnLCAnLW1hJywgJzIwMCcsICctbWV0YWxfYmluZGluZycsICctaW1hZScsICc8aW5maWxlLm1hZT4nLCAnLW9tYWUnLCAnPG91dGZpbGUubWFlPic=

> <r_epik_Ionization_Penalty>
0.11034

> <r_epik_Ionization_Penalty_Charging>
0.110189

> <r_epik_Ionization_Penalty_Neutral>
0.000150894

> <r_epik_State_Penalty>
0.0999426

> <r_epik_Charging_Adjusted_Penalty>
0.210132

> <i_epik_Tot_Q>
1

> <i_epik_Tot_abs_Q>
1

> <r_epik_Metal_State_Penalty>
0.172915

> <b_epik_Metal_Only>
0

> <s_lp_Force_Field>
OPLS_2005

> <r_lp_Energy>
23.7119

> <b_lp_Chiralities_Consistent>
1

> <s_lp_Variant>
AV-unprocessed.smi:2858-1

> <Gold.Version>
5.8.1

> <Gold.Id.Protein>
6NUR|6NUR_protein|mol2

> <Gold.PLP.Fitness>
49.4190

> <Gold.PLP.PLP>
-38.1455

> <Gold.PLP.part.hbond>
-3.9983

> <Gold.PLP.part.metal>
0.0000

> <Gold.PLP.part.buried>
-2.4486

> <Gold.PLP.part.nonpolar>
-32.6359

> <Gold.PLP.part.repulsive>
0.3552

> <Gold.PLP.ligand.clash>
0.0000

> <Gold.PLP.ligand.torsion>
0.3782

> <Gold.PLP.Chemscore.Hbond>
4.0000

> <Gold.PLP.Chemscore.CHOScore>
0.0000

> <Gold.PLP.Chemscore.Metal>
0.0000

> <Gold.Chemscore.Hbonds>
donor molecule, donor type, donor heavy atom, donor atom, acceptor molecule, acceptor atom, score
      L1  H     4    40       P1  7948  2.00
      L1  H    20    39       P1 10171  0.23
      P1  H  7997  8008       L1    10  0.94

> <Gold.PLP.Chemscore.Internal.Correction>
0.0299

> <Gold.Rescore>
     Score         DG    S(hbond)    S(metal)    S(lipo)     H(rot)  DE(clash)    DE(int)     intcor
     17.76     -19.71       2.91        0.00      83.96       2.08       0.35       1.59       ----

> <Gold.Chemscore.Fitness>
17.7594

> <Gold.Chemscore.DG>
-19.7053

> <Gold.Chemscore.ZeroCoef>
-5.4800

> <Gold.Chemscore.Hbond>
2.9105

> <Gold.Chemscore.Metal>
0.0000

> <Gold.Chemscore.Lipo>
83.9583

> <Gold.Chemscore.Internal_Hbond>
0.0000

> <Gold.Chemscore.DEClash>
0.3536

> <Gold.Chemscore.DEInternal>
1.5923

> <Gold.Chemscore.Rot>
2.0777

> <Gold.Chemscore.Internal.Correction>
   9.000000E+99

> <Gold.Chemscore.Hbonds>
donor molecule, donor type, donor heavy atom, donor atom, acceptor molecule, acceptor atom, score
      L1  H     4    40       P1  7948  1.00
      L1  H    20    39       P1 10171  0.24
      P1  H  7997  8008       L1    10  0.86

> <Gold.Chemscore.Hbond.Weighted>
-9.7210

> <Gold.Chemscore.Metal.Weighted>
-0.0000

> <Gold.Chemscore.Lipo.Weighted>
-9.8231

> <Gold.Chemscore.Internal_Hbond.Weighted>
0.0000

> <Gold.Chemscore.DEClash.Weighted>
0.3536

> <Gold.Chemscore.DEInternal.Weighted>
1.5923

> <Gold.Chemscore.Rot.Weighted>
5.3188

> <Gold.Chemscore.Internal.Correction.Weighted>
   9.000000E+99

> <Gold.Protein.RotatedTorsions>
[ 6907 6896 6895 6894 ] final -156.95 input  -60.11 | X-H torsion
[ 7974 7965 7964 7962 ] final -177.06 input  175.53 | X-H torsion
[ 8008 7997 7996 7995 ] final  -62.77 input   59.86 | X-H torsion
[ 10167 10162 10161 10158 ] final   -0.45 input  -65.29 | X-H torsion
[ 10718 10713 10712 10709 ] final  106.04 input   66.30 | X-H torsion
[ 10763 10752 10751 10750 ] final  -96.97 input  -60.55 | X-H torsion
[ 11005 11000 10999 10996 ] final  -62.86 input  -57.11 | X-H torsion

> <Gold.Protein.ActiveResidues>
 VAL166  LYS551  ARG553  GLY616  TRP617  ASP618  TYR619  PRO620  LYS621  CYS622 
 ASP623  PHE694  ASN695  SER759  ASP760  ASP761  ALA762  ILE779  LEU786  VAL792 
 PHE793  MET794  SER795  GLU796  ALA797  LYS798  CYS799  TRP800  GLU811  SER814 

> <Gold.Protein.RotatedAtoms>
  151.2954  133.4146  159.2635 H   0  0  0  0  0  0  0  0  0  0  0  0  # atno 6907 bound_to 6896
  151.0241  134.9492  159.8086 H   0  0  0  0  0  0  0  0  0  0  0  0  # atno 6908 bound_to 6896
  152.5331  134.2916  159.9098 H   0  0  0  0  0  0  0  0  0  0  0  0  # atno 6909 bound_to 6896
  144.7127  140.1077  143.6413 H   0  0  0  0  0  0  0  0  0  0  0  0  # atno 7974 bound_to 7965
  154.4517  140.0989  156.6638 H   0  0  0  0  0  0  0  0  0  0  0  0  # atno 8008 bound_to 7997
  155.5263  140.3480  155.4398 H   0  0  0  0  0  0  0  0  0  0  0  0  # atno 8009 bound_to 7997
  156.0695  140.1346  156.9834 H   0  0  0  0  0  0  0  0  0  0  0  0  # atno 8010 bound_to 7997
  140.6768  143.6893  150.8041 H   0  0  0  0  0  0  0  0  0  0  0  0  # atno 10167 bound_to 10162
  157.6683  131.0841  150.5947 H   0  0  0  0  0  0  0  0  0  0  0  0  # atno 10718 bound_to 10713
  154.7287  135.5064  153.8928 H   0  0  0  0  0  0  0  0  0  0  0  0  # atno 10763 bound_to 10752
  153.0929  135.6664  153.9828 H   0  0  0  0  0  0  0  0  0  0  0  0  # atno 10764 bound_to 10752
  153.9634  135.3045  155.3411 H   0  0  0  0  0  0  0  0  0  0  0  0  # atno 10765 bound_to 10752
  141.1374  133.6645  156.5592 H   0  0  0  0  0  0  0  0  0  0  0  0  # atno 11005 bound_to 11000
  145.9482  139.2715  143.1228 LP  0  0  0  0  0  0  0  0  0  0  0  0  # atno 17320 bound_to 7965
  145.9351  140.9020  143.0336 LP  0  0  0  0  0  0  0  0  0  0  0  0  # atno 17321 bound_to 7965
  140.0587  143.5176  152.2638 LP  0  0  0  0  0  0  0  0  0  0  0  0  # atno 17342 bound_to 10162
  139.6065  144.7597  151.3050 LP  0  0  0  0  0  0  0  0  0  0  0  0  # atno 17343 bound_to 10162
  156.6247  130.4415  149.5809 LP  0  0  0  0  0  0  0  0  0  0  0  0  # atno 17370 bound_to 10713
  156.2328  130.6805  151.1480 LP  0  0  0  0  0  0  0  0  0  0  0  0  # atno 17371 bound_to 10713
  140.4002  134.7363  157.4775 LP  0  0  0  0  0  0  0  0  0  0  0  0  # atno 17394 bound_to 11000
  140.0502  134.6142  155.8871 LP  0  0  0  0  0  0  0  0  0  0  0  0  # atno 17395 bound_to 11000

$$$$
