AV-unprocessed.smi:704|AV-procd|sdf|3445|dock10
  -GOLD-   22720 0433D 1   1.00000     0.00000
 Structure written by MMmdl.
 38 39  0  0  0  0  0  0  0  0  1 V2000
  151.5641  138.2135  154.4169 C   0  0  0  0  0  0  0  0  0  0  0  0
  150.2321  138.2750  153.9187 O   0  0  0  0  0  0  0  0  0  0  0  0
  149.4884  139.4146  154.1599 C   0  0  0  0  0  0  0  0  0  0  0  0
  150.0931  140.4609  154.7765 N   0  0  0  0  0  0  0  0  0  0  0  0
  149.3703  141.5760  155.0073 C   0  0  0  0  0  0  0  0  0  0  0  0
  148.0204  141.7096  154.6341 C   0  0  0  0  0  0  0  0  0  0  0  0
  147.3909  140.6258  153.9947 C   0  0  0  0  0  0  0  0  0  0  0  0
  148.1323  139.4425  153.7587 C   0  0  0  0  0  0  0  0  0  0  0  0
  147.6048  138.2941  153.1062 N   0  0  0  0  0  0  0  0  0  0  0  0
  146.3248  137.9020  152.9931 C   0  0  0  0  0  0  0  0  0  0  0  0
  145.3515  138.4989  153.4521 O   0  0  0  0  0  0  0  0  0  0  0  0
  146.2346  136.7442  152.3241 N   0  0  0  0  0  0  0  0  0  0  0  0
  144.9941  136.0273  152.0351 C   0  0  1  0  0  0  0  0  0  0  0  0
  145.1350  135.2045  150.7443 C   0  0  0  0  0  0  0  0  0  0  0  0
  145.3234  133.7600  151.1983 C   0  0  0  0  0  0  0  0  0  0  0  0
  144.4756  133.6558  152.4626 C   0  0  0  0  0  0  0  0  0  0  0  0
  144.6332  135.0190  153.1608 C   0  0  2  0  0  0  0  0  0  0  0  0
  143.3782  135.4324  153.9453 C   0  0  0  0  0  0  0  0  0  0  0  0
  142.8388  134.5180  154.7551 N   0  0  0  0  0  0  0  0  0  0  0  0
  142.9023  136.5599  153.8256 O   0  0  0  0  0  0  0  0  0  0  0  0
  152.0069  137.2562  154.1425 H   0  0  0  0  0  0  0  0  0  0  0  0
  151.5881  138.2890  155.5050 H   0  0  0  0  0  0  0  0  0  0  0  0
  152.1864  139.0005  153.9883 H   0  0  0  0  0  0  0  0  0  0  0  0
  149.8853  142.3884  155.4981 H   0  0  0  0  0  0  0  0  0  0  0  0
  147.4810  142.6246  154.8289 H   0  0  0  0  0  0  0  0  0  0  0  0
  146.3623  140.7309  153.6877 H   0  0  0  0  0  0  0  0  0  0  0  0
  148.2959  137.6555  152.7403 H   0  0  0  0  0  0  0  0  0  0  0  0
  147.0886  136.3217  151.9904 H   0  0  0  0  0  0  0  0  0  0  0  0
  144.2060  136.7679  151.8816 H   0  0  0  0  0  0  0  0  0  0  0  0
  144.2100  135.2785  150.1706 H   0  0  0  0  0  0  0  0  0  0  0  0
  145.9429  135.5464  150.0961 H   0  0  0  0  0  0  0  0  0  0  0  0
  145.0320  133.0373  150.4356 H   0  0  0  0  0  0  0  0  0  0  0  0
  146.3722  133.5855  151.4423 H   0  0  0  0  0  0  0  0  0  0  0  0
  143.4377  133.4658  152.1839 H   0  0  0  0  0  0  0  0  0  0  0  0
  144.7987  132.8300  153.0971 H   0  0  0  0  0  0  0  0  0  0  0  0
  145.4726  134.9355  153.8543 H   0  0  0  0  0  0  0  0  0  0  0  0
  142.0057  134.7373  155.2814 H   0  0  0  0  0  0  0  0  0  0  0  0
  143.2602  133.6035  154.8275 H   0  0  0  0  0  0  0  0  0  0  0  0
  1  2  1  0  0  0  0
  1 21  1  0  0  0  0
  1 22  1  0  0  0  0
  1 23  1  0  0  0  0
  2  3  1  0  0  0  0
  3  8  1  0  0  0  0
  3  4  2  0  0  0  0
  4  5  1  0  0  0  0
  5  6  2  0  0  0  0
  5 24  1  0  0  0  0
  6  7  1  0  0  0  0
  6 25  1  0  0  0  0
  7  8  2  0  0  0  0
  7 26  1  0  0  0  0
  8  9  1  0  0  0  0
  9 10  1  0  0  0  0
  9 27  1  0  0  0  0
 10 11  2  0  0  0  0
 10 12  1  0  0  0  0
 12 13  1  0  0  0  0
 12 28  1  0  0  0  0
 13 17  1  0  0  0  0
 13 14  1  0  0  0  0
 13 29  1  0  0  0  0
 14 15  1  0  0  0  0
 14 30  1  0  0  0  0
 14 31  1  0  0  0  0
 15 16  1  0  0  0  0
 15 32  1  0  0  0  0
 15 33  1  0  0  0  0
 16 17  1  0  0  0  0
 16 34  1  0  0  0  0
 16 35  1  0  0  0  0
 17 18  1  0  0  0  0
 17 36  1  0  0  0  0
 18 19  1  0  0  0  0
 18 20  2  0  0  0  0
 19 37  1  0  0  0  0
 19 38  1  0  0  0  0
M  END
> <s_m_source_file>
AV-unprocessed.smi

> <i_m_source_file_index>
704

> <i_lp_mmshare_version>
43012

> <i_f3d_flags>
0

> <s_epik_input>
W0NIM11PYzFuW2NIXVtjSF1bY0hdYzFbTkhdQyg9TylbTkhdW0NAQEhdMltDSDJdW0NIMl1bQ0gyXVtDQEhdMkMoPU8pW05IMl0=

> <s_epik_cmdline>
J2VwaWtfcHl0aG9uJywgJy1waCcsICc3LjAnLCAnLXRuJywgJzgnLCAnLW1hJywgJzIwMCcsICctbWV0YWxfYmluZGluZycsICctaW1hZScsICc8aW5maWxlLm1hZT4nLCAnLW9tYWUnLCAnPG91dGZpbGUubWFlPic=

> <r_lp_tautomer_probability>
1

> <r_epik_Ionization_Penalty>
9.09123e-05

> <r_epik_Ionization_Penalty_Charging>
0

> <r_epik_Ionization_Penalty_Neutral>
9.09123e-05

> <r_epik_State_Penalty>
-0

> <r_epik_Charging_Adjusted_Penalty>
0

> <i_epik_Tot_Q>
0

> <i_epik_Tot_abs_Q>
0

> <r_epik_Metal_State_Penalty>
-0

> <b_epik_Metal_Only>
0

> <s_lp_Force_Field>
OPLS_2005

> <r_lp_Energy>
17.389

> <b_lp_Chiralities_Consistent>
1

> <s_lp_Variant>
AV-unprocessed.smi:704-4

> <Gold.Version>
5.8.1

> <Gold.Id.Protein>
6NUR|6NUR_protein|mol2

> <Gold.PLP.Fitness>
42.6731

> <Gold.PLP.PLP>
-28.9924

> <Gold.PLP.part.hbond>
-4.8288

> <Gold.PLP.part.metal>
0.0000

> <Gold.PLP.part.buried>
-4.3188

> <Gold.PLP.part.nonpolar>
-23.6968

> <Gold.PLP.part.repulsive>
2.8381

> <Gold.PLP.ligand.clash>
0.0000

> <Gold.PLP.ligand.torsion>
0.7813

> <Gold.PLP.Chemscore.Hbond>
4.2330

> <Gold.PLP.Chemscore.CHOScore>
0.8447

> <Gold.PLP.Chemscore.Metal>
0.0000

> <Gold.Chemscore.Hbonds>
donor molecule, donor type, donor heavy atom, donor atom, acceptor molecule, acceptor atom, score
      L1  H     9    27       P1  7948  1.00
      L1  H    12    28       P1  7948  1.00
      L1  H    19    37       P1 11000  0.46
      L1  H    19    38       P1 10957  0.74
      P1  H  7989  7998       L1     4  0.94
      L1  C     5    24       P1  8028  0.82

> <Gold.PLP.Chemscore.Internal.Correction>
0.0101

> <Gold.Rescore>
     Score         DG    S(hbond)    S(metal)    S(lipo)     H(rot)  DE(clash)    DE(int)     intcor
     15.69     -17.91       3.25        0.00      54.20       1.86       0.40       1.82       ----

> <Gold.Chemscore.Fitness>
15.6882

> <Gold.Chemscore.DG>
-17.9134

> <Gold.Chemscore.ZeroCoef>
-5.4800

> <Gold.Chemscore.Hbond>
3.2534

> <Gold.Chemscore.Metal>
0.0000

> <Gold.Chemscore.Lipo>
54.1974

> <Gold.Chemscore.Internal_Hbond>
0.0000

> <Gold.Chemscore.DEClash>
0.4010

> <Gold.Chemscore.DEInternal>
1.8242

> <Gold.Chemscore.Rot>
1.8648

> <Gold.Chemscore.Internal.Correction>
   9.000000E+99

> <Gold.Chemscore.Hbonds>
donor molecule, donor type, donor heavy atom, donor atom, acceptor molecule, acceptor atom, score
      L1  H     9    27       P1  7948  0.99
      L1  H    12    28       P1  7948  0.98
      L1  H    19    37       P1 11000  0.10
      L1  H    19    38       P1 10957  0.73
      P1  H  7989  7998       L1     4  0.22

> <Gold.Chemscore.Hbond.Weighted>
-10.8662

> <Gold.Chemscore.Metal.Weighted>
-0.0000

> <Gold.Chemscore.Lipo.Weighted>
-6.3411

> <Gold.Chemscore.Internal_Hbond.Weighted>
0.0000

> <Gold.Chemscore.DEClash.Weighted>
0.4010

> <Gold.Chemscore.DEInternal.Weighted>
1.8242

> <Gold.Chemscore.Rot.Weighted>
4.7739

> <Gold.Chemscore.Internal.Correction.Weighted>
   9.000000E+99

> <Gold.Protein.RotatedTorsions>
[ 6907 6896 6895 6894 ] final   16.49 input  -60.11 | X-H torsion
[ 7974 7965 7964 7962 ] final  -45.15 input  175.53 | X-H torsion
[ 8008 7997 7996 7995 ] final   50.95 input   59.86 | X-H torsion
[ 10167 10162 10161 10158 ] final  140.12 input  -65.29 | X-H torsion
[ 10718 10713 10712 10709 ] final  160.29 input   66.30 | X-H torsion
[ 10763 10752 10751 10750 ] final   86.54 input  -60.55 | X-H torsion
[ 11005 11000 10999 10996 ] final  129.88 input  -57.11 | X-H torsion

> <Gold.Protein.ActiveResidues>
 VAL166  LYS551  ARG553  GLY616  TRP617  ASP618  TYR619  PRO620  LYS621  CYS622 
 ASP623  PHE694  ASN695  SER759  ASP760  ASP761  ALA762  ILE779  LEU786  VAL792 
 PHE793  MET794  SER795  GLU796  ALA797  LYS798  CYS799  TRP800  GLU811  SER814 

> <Gold.Protein.RotatedAtoms>
  151.8347  135.0610  160.0440 H   0  0  0  0  0  0  0  0  0  0  0  0  # atno 6907 bound_to 6896
  152.2854  133.5506  159.5532 H   0  0  0  0  0  0  0  0  0  0  0  0  # atno 6908 bound_to 6896
  150.7207  134.0420  159.3811 H   0  0  0  0  0  0  0  0  0  0  0  0  # atno 6909 bound_to 6896
  145.9850  140.7243  142.9345 H   0  0  0  0  0  0  0  0  0  0  0  0  # atno 7974 bound_to 7965
  155.4272  140.3449  155.4277 H   0  0  0  0  0  0  0  0  0  0  0  0  # atno 8008 bound_to 7997
  156.1358  140.1527  156.9028 H   0  0  0  0  0  0  0  0  0  0  0  0  # atno 8009 bound_to 7997
  154.4930  140.0835  156.7617 H   0  0  0  0  0  0  0  0  0  0  0  0  # atno 8010 bound_to 7997
  139.5058  144.6254  151.5951 H   0  0  0  0  0  0  0  0  0  0  0  0  # atno 10167 bound_to 10162
  157.1524  131.0567  151.2273 H   0  0  0  0  0  0  0  0  0  0  0  0  # atno 10718 bound_to 10713
  153.1580  135.4576  154.9732 H   0  0  0  0  0  0  0  0  0  0  0  0  # atno 10763 bound_to 10752
  154.7876  135.3209  154.7853 H   0  0  0  0  0  0  0  0  0  0  0  0  # atno 10764 bound_to 10752
  153.8347  135.6935  153.4864 H   0  0  0  0  0  0  0  0  0  0  0  0  # atno 10765 bound_to 10752
  139.9640  134.9595  156.9213 H   0  0  0  0  0  0  0  0  0  0  0  0  # atno 11005 bound_to 11000
  144.6872  140.2972  143.7269 LP  0  0  0  0  0  0  0  0  0  0  0  0  # atno 17320 bound_to 7965
  145.7714  139.1858  143.2210 LP  0  0  0  0  0  0  0  0  0  0  0  0  # atno 17321 bound_to 7965
  140.5969  143.9680  150.6360 LP  0  0  0  0  0  0  0  0  0  0  0  0  # atno 17342 bound_to 10162
  140.2879  143.3344  152.1090 LP  0  0  0  0  0  0  0  0  0  0  0  0  # atno 17343 bound_to 10162
  157.4208  130.7436  149.6912 LP  0  0  0  0  0  0  0  0  0  0  0  0  # atno 17370 bound_to 10713
  155.9768  130.4071  150.3754 LP  0  0  0  0  0  0  0  0  0  0  0  0  # atno 17371 bound_to 10713
  140.5436  134.0695  155.7348 LP  0  0  0  0  0  0  0  0  0  0  0  0  # atno 17394 bound_to 11000
  141.1319  133.9287  157.2517 LP  0  0  0  0  0  0  0  0  0  0  0  0  # atno 17395 bound_to 11000

$$$$
