AV-unprocessed.smi:275|AV-procd|sdf|2067|dock7
  -GOLD-   2262021323D 1   1.00000     0.00000
 Structure written by MMmdl.
 65 69  0  0  0  0  0  0  0  0  1 V2000
  148.2082  132.6453  159.8367 C   0  0  0  0  0  0  0  0  0  0  0  0
  147.9752  133.6282  158.6802 C   0  0  0  0  0  0  0  0  0  0  0  0
  149.0022  133.3627  157.5567 C   0  0  0  0  0  0  0  0  0  0  0  0
  147.8775  135.0895  159.1942 C   0  0  1  0  0  0  0  0  0  0  0  0
  147.3088  135.9774  158.1770 N   0  0  0  0  0  0  0  0  0  0  0  0
  148.0157  137.1958  157.9070 C   0  0  0  0  0  0  0  0  0  0  0  0
  147.3686  138.1936  157.2449 N   0  0  0  0  0  0  0  0  0  0  0  0
  147.9701  139.3500  156.9561 C   0  0  0  0  0  0  0  0  0  0  0  0
  149.2204  139.7239  157.2193 N   0  0  0  0  0  0  0  0  0  0  0  0
  149.9008  138.7294  157.8537 C   0  0  0  0  0  0  0  0  0  0  0  0
  149.3860  137.4514  158.2225 C   0  0  0  0  0  0  0  0  0  0  0  0
  150.3926  136.7114  158.8337 N   0  0  0  0  0  0  0  0  0  0  0  0
  151.4284  137.5035  158.8391 C   0  0  0  0  0  0  0  0  0  0  0  0
  151.2177  138.7403  158.2783 N   0  0  0  0  0  0  0  0  0  0  0  0
  152.1900  139.8128  158.1572 C   0  0  0  0  0  0  0  0  0  0  0  0
  151.5614  141.1586  157.7173 C   0  0  2  0  0  0  0  0  0  0  0  0
  151.5748  141.3526  156.1811 C   0  0  0  0  0  0  0  0  0  0  0  0
  151.0190  140.2382  155.5137 O   0  0  0  0  0  0  0  0  0  0  0  0
  152.1993  142.3552  158.4675 C   0  0  1  0  0  0  0  0  0  0  0  0
  151.4661  143.6756  158.3082 C   0  0  0  0  0  0  0  0  0  0  0  0
  152.0106  144.4888  159.4775 C   0  0  0  0  0  0  0  0  0  0  0  0
  152.2698  143.5475  160.5126 O   0  0  0  0  0  0  0  0  0  0  0  0
  152.2037  142.2227  159.9942 C   0  0  0  0  0  0  0  0  0  0  0  0
  146.0494  136.1069  158.9082 C   0  0  0  0  0  0  0  0  0  0  0  0
  146.7697  135.5895  160.1607 C   0  0  0  0  0  0  0  0  0  0  0  0
  147.1990  136.6977  161.1484 C   0  0  0  0  0  0  0  0  0  0  0  0
  148.0665  136.1776  162.3068 C   0  0  0  0  0  0  0  0  0  0  0  0
  147.3314  135.0908  163.0986 C   0  0  0  0  0  0  0  0  0  0  0  0
  146.8351  133.9777  162.1695 C   0  0  0  0  0  0  0  0  0  0  0  0
  146.0052  134.5491  161.0053 C   0  0  0  0  0  0  0  0  0  0  0  0
  149.1773  132.8126  160.3077 H   0  0  0  0  0  0  0  0  0  0  0  0
  148.1842  131.6128  159.4875 H   0  0  0  0  0  0  0  0  0  0  0  0
  147.4396  132.7478  160.6030 H   0  0  0  0  0  0  0  0  0  0  0  0
  147.0027  133.3614  158.2687 H   0  0  0  0  0  0  0  0  0  0  0  0
  150.0245  133.5264  157.8987 H   0  0  0  0  0  0  0  0  0  0  0  0
  148.8424  133.9879  156.6814 H   0  0  0  0  0  0  0  0  0  0  0  0
  148.9406  132.3284  157.2177 H   0  0  0  0  0  0  0  0  0  0  0  0
  148.8373  135.4358  159.5742 H   0  0  0  0  0  0  0  0  0  0  0  0
  147.3623  140.0783  156.4400 H   0  0  0  0  0  0  0  0  0  0  0  0
  152.3790  137.2077  159.2587 H   0  0  0  0  0  0  0  0  0  0  0  0
  152.6838  139.9170  159.1235 H   0  0  0  0  0  0  0  0  0  0  0  0
  152.9626  139.5081  157.4505 H   0  0  0  0  0  0  0  0  0  0  0  0
  150.5108  141.1226  158.0091 H   0  0  0  0  0  0  0  0  0  0  0  0
  151.0191  142.2450  155.8930 H   0  0  0  0  0  0  0  0  0  0  0  0
  152.5909  141.5053  155.8177 H   0  0  0  0  0  0  0  0  0  0  0  0
  150.4965  139.7480  156.1300 H   0  0  0  0  0  0  0  0  0  0  0  0
  153.2291  142.4905  158.1321 H   0  0  0  0  0  0  0  0  0  0  0  0
  151.6485  144.1577  157.3473 H   0  0  0  0  0  0  0  0  0  0  0  0
  150.3905  143.5319  158.4212 H   0  0  0  0  0  0  0  0  0  0  0  0
  152.9501  144.9692  159.2015 H   0  0  0  0  0  0  0  0  0  0  0  0
  151.3172  145.2632  159.8065 H   0  0  0  0  0  0  0  0  0  0  0  0
  151.2778  141.7656  160.3464 H   0  0  0  0  0  0  0  0  0  0  0  0
  153.0360  141.6196  160.3580 H   0  0  0  0  0  0  0  0  0  0  0  0
  145.6356  137.1090  159.0210 H   0  0  0  0  0  0  0  0  0  0  0  0
  145.2941  135.4186  158.5297 H   0  0  0  0  0  0  0  0  0  0  0  0
  147.7516  137.4830  160.6324 H   0  0  0  0  0  0  0  0  0  0  0  0
  146.3168  137.1914  161.5584 H   0  0  0  0  0  0  0  0  0  0  0  0
  149.0034  135.7782  161.9167 H   0  0  0  0  0  0  0  0  0  0  0  0
  148.3349  137.0005  162.9698 H   0  0  0  0  0  0  0  0  0  0  0  0
  147.9847  134.6769  163.8673 H   0  0  0  0  0  0  0  0  0  0  0  0
  146.4814  135.5340  163.6190 H   0  0  0  0  0  0  0  0  0  0  0  0
  147.6895  133.4231  161.7826 H   0  0  0  0  0  0  0  0  0  0  0  0
  146.2372  133.2634  162.7363 H   0  0  0  0  0  0  0  0  0  0  0  0
  145.0989  135.0018  161.4099 H   0  0  0  0  0  0  0  0  0  0  0  0
  145.6541  133.7230  160.3920 H   0  0  0  0  0  0  0  0  0  0  0  0
  1  2  1  0  0  0  0
  1 31  1  0  0  0  0
  1 32  1  0  0  0  0
  1 33  1  0  0  0  0
  2  3  1  0  0  0  0
  2  4  1  0  0  0  0
  2 34  1  0  0  0  0
  3 35  1  0  0  0  0
  3 36  1  0  0  0  0
  3 37  1  0  0  0  0
  4 25  1  0  0  0  0
  4  5  1  0  0  0  0
  4 38  1  0  0  0  0
  5  6  1  0  0  0  0
  5 24  1  0  0  0  0
  6 11  1  0  0  0  0
  6  7  2  0  0  0  0
  7  8  1  0  0  0  0
  8  9  2  0  0  0  0
  8 39  1  0  0  0  0
  9 10  1  0  0  0  0
 10 14  1  0  0  0  0
 10 11  2  0  0  0  0
 11 12  1  0  0  0  0
 12 13  2  0  0  0  0
 13 14  1  0  0  0  0
 13 40  1  0  0  0  0
 14 15  1  0  0  0  0
 15 16  1  0  0  0  0
 15 41  1  0  0  0  0
 15 42  1  0  0  0  0
 16 17  1  0  0  0  0
 16 19  1  0  0  0  0
 16 43  1  0  0  0  0
 17 18  1  0  0  0  0
 17 44  1  0  0  0  0
 17 45  1  0  0  0  0
 18 46  1  0  0  0  0
 19 23  1  0  0  0  0
 19 20  1  0  0  0  0
 19 47  1  0  0  0  0
 20 21  1  0  0  0  0
 20 48  1  0  0  0  0
 20 49  1  0  0  0  0
 21 22  1  0  0  0  0
 21 50  1  0  0  0  0
 21 51  1  0  0  0  0
 22 23  1  0  0  0  0
 23 52  1  0  0  0  0
 23 53  1  0  0  0  0
 24 25  1  0  0  0  0
 24 54  1  0  0  0  0
 24 55  1  0  0  0  0
 25 30  1  0  0  0  0
 25 26  1  0  0  0  0
 26 27  1  0  0  0  0
 26 56  1  0  0  0  0
 26 57  1  0  0  0  0
 27 28  1  0  0  0  0
 27 58  1  0  0  0  0
 27 59  1  0  0  0  0
 28 29  1  0  0  0  0
 28 60  1  0  0  0  0
 28 61  1  0  0  0  0
 29 30  1  0  0  0  0
 29 62  1  0  0  0  0
 29 63  1  0  0  0  0
 30 64  1  0  0  0  0
 30 65  1  0  0  0  0
M  END
> <s_m_source_file>
AV-unprocessed.smi

> <i_m_source_file_index>
275

> <i_lp_mmshare_version>
43012

> <i_f3d_flags>
0

> <s_epik_input>
W0NIMl0xW0NIMl1bQ0gyXVtDSDJdW0NIMl1DMTJbQ0BIXShbQ0hdKFtDSDNdKVtDSDNdKU4oW0NIMl0yKWMobltjSF1uMyljKGMzNCluW2NIXW40W0NIMl1bQ0BIXShbQ0gyXVtPSF0pW0NAQEhdNVtDSDJdW0NIMl1PW0NIMl01

> <s_epik_cmdline>
J2VwaWtfcHl0aG9uJywgJy1waCcsICc3LjAnLCAnLXRuJywgJzgnLCAnLW1hJywgJzIwMCcsICctbWV0YWxfYmluZGluZycsICctaW1hZScsICc8aW5maWxlLm1hZT4nLCAnLW9tYWUnLCAnPG91dGZpbGUubWFlPic=

> <r_lp_tautomer_probability>
1

> <r_epik_Ionization_Penalty>
0.00375122

> <r_epik_Ionization_Penalty_Charging>
0

> <r_epik_Ionization_Penalty_Neutral>
0.00375122

> <r_epik_State_Penalty>
0.00260593

> <r_epik_Charging_Adjusted_Penalty>
0.00260593

> <i_epik_Tot_Q>
0

> <i_epik_Tot_abs_Q>
0

> <r_epik_Metal_State_Penalty>
-0

> <b_epik_Metal_Only>
0

> <s_lp_Force_Field>
OPLS_2005

> <r_lp_Energy>
69.8585

> <b_lp_Chiralities_Consistent>
1

> <s_lp_Variant>
AV-unprocessed.smi:275-6

> <Gold.Version>
5.8.1

> <Gold.Id.Protein>
6NUR|6NUR_protein|mol2

> <Gold.PLP.Fitness>
45.8539

> <Gold.PLP.PLP>
-43.2153

> <Gold.PLP.part.hbond>
-1.6466

> <Gold.PLP.part.metal>
0.0000

> <Gold.PLP.part.buried>
-7.2136

> <Gold.PLP.part.nonpolar>
-34.8504

> <Gold.PLP.part.repulsive>
0.0613

> <Gold.PLP.ligand.clash>
0.0000

> <Gold.PLP.ligand.torsion>
1.0455

> <Gold.PLP.Chemscore.Hbond>
1.4170

> <Gold.PLP.Chemscore.CHOScore>
0.0000

> <Gold.PLP.Chemscore.Metal>
0.0000

> <Gold.Chemscore.Hbonds>
donor molecule, donor type, donor heavy atom, donor atom, acceptor molecule, acceptor atom, score
      P1  H  6896  6908       L1    12  0.96
      P1  H  7989  7998       L1    18  0.44

> <Gold.PLP.Chemscore.Internal.Correction>
0.4786

> <Gold.Rescore>
     Score         DG    S(hbond)    S(metal)    S(lipo)     H(rot)  DE(clash)    DE(int)     intcor
     12.75     -17.96       1.38        0.00     122.66       2.54       1.59       3.62       ----

> <Gold.Chemscore.Fitness>
12.7493

> <Gold.Chemscore.DG>
-17.9557

> <Gold.Chemscore.ZeroCoef>
-5.4800

> <Gold.Chemscore.Hbond>
1.3836

> <Gold.Chemscore.Metal>
0.0000

> <Gold.Chemscore.Lipo>
122.6601

> <Gold.Chemscore.Internal_Hbond>
0.0000

> <Gold.Chemscore.DEClash>
1.5864

> <Gold.Chemscore.DEInternal>
3.6200

> <Gold.Chemscore.Rot>
2.5377

> <Gold.Chemscore.Internal.Correction>
   9.000000E+99

> <Gold.Chemscore.Hbonds>
donor molecule, donor type, donor heavy atom, donor atom, acceptor molecule, acceptor atom, score
      P1  H  6896  6908       L1    12  0.54
      P1  H  7989  7998       L1    18  0.05

> <Gold.Chemscore.Hbond.Weighted>
-4.6211

> <Gold.Chemscore.Metal.Weighted>
-0.0000

> <Gold.Chemscore.Lipo.Weighted>
-14.3512

> <Gold.Chemscore.Internal_Hbond.Weighted>
0.0000

> <Gold.Chemscore.DEClash.Weighted>
1.5864

> <Gold.Chemscore.DEInternal.Weighted>
3.6200

> <Gold.Chemscore.Rot.Weighted>
6.4966

> <Gold.Chemscore.Internal.Correction.Weighted>
   9.000000E+99

> <Gold.Protein.RotatedTorsions>
[ 6907 6896 6895 6894 ] final -160.89 input  -60.11 | X-H torsion
[ 7974 7965 7964 7962 ] final  -50.94 input  175.53 | X-H torsion
[ 8008 7997 7996 7995 ] final  -24.93 input   59.86 | X-H torsion
[ 10167 10162 10161 10158 ] final   11.16 input  -65.29 | X-H torsion
[ 10718 10713 10712 10709 ] final  133.67 input   66.30 | X-H torsion
[ 10763 10752 10751 10750 ] final -101.78 input  -60.55 | X-H torsion
[ 11005 11000 10999 10996 ] final -139.07 input  -57.11 | X-H torsion

> <Gold.Protein.ActiveResidues>
 VAL166  LYS551  ARG553  GLY616  TRP617  ASP618  TYR619  PRO620  LYS621  CYS622 
 ASP623  PHE694  ASN695  SER759  ASP760  ASP761  ALA762  ILE779  LEU786  VAL792 
 PHE793  MET794  SER795  GLU796  ALA797  LYS798  CYS799  TRP800  GLU811  SER814 

> <Gold.Protein.RotatedAtoms>
  151.3561  133.3907  159.2684 H   0  0  0  0  0  0  0  0  0  0  0  0  # atno 6907 bound_to 6896
  150.9762  134.9127  159.7828 H   0  0  0  0  0  0  0  0  0  0  0  0  # atno 6908 bound_to 6896
  152.5202  134.3524  159.9308 H   0  0  0  0  0  0  0  0  0  0  0  0  # atno 6909 bound_to 6896
  145.9244  140.7805  142.9631 H   0  0  0  0  0  0  0  0  0  0  0  0  # atno 7974 bound_to 7965
  154.4503  140.1940  156.0540 H   0  0  0  0  0  0  0  0  0  0  0  0  # atno 8008 bound_to 7997
  156.0632  140.3294  155.7459 H   0  0  0  0  0  0  0  0  0  0  0  0  # atno 8009 bound_to 7997
  155.5379  140.0584  157.2867 H   0  0  0  0  0  0  0  0  0  0  0  0  # atno 8010 bound_to 7997
  140.6149  143.8329  150.7107 H   0  0  0  0  0  0  0  0  0  0  0  0  # atno 10167 bound_to 10162
  157.4750  131.1082  150.9755 H   0  0  0  0  0  0  0  0  0  0  0  0  # atno 10718 bound_to 10713
  154.7684  135.4885  153.9600 H   0  0  0  0  0  0  0  0  0  0  0  0  # atno 10763 bound_to 10752
  153.1337  135.6758  153.9145 H   0  0  0  0  0  0  0  0  0  0  0  0  # atno 10764 bound_to 10752
  153.8840  135.3128  155.3424 H   0  0  0  0  0  0  0  0  0  0  0  0  # atno 10765 bound_to 10752
  140.8555  134.2233  157.4737 H   0  0  0  0  0  0  0  0  0  0  0  0  # atno 11005 bound_to 11000
  144.6757  140.2027  143.7385 LP  0  0  0  0  0  0  0  0  0  0  0  0  # atno 17320 bound_to 7965
  145.8508  139.2174  143.1773 LP  0  0  0  0  0  0  0  0  0  0  0  0  # atno 17321 bound_to 7965
  140.1906  143.4039  152.1866 LP  0  0  0  0  0  0  0  0  0  0  0  0  # atno 17342 bound_to 10162
  139.5390  144.7238  151.4795 LP  0  0  0  0  0  0  0  0  0  0  0  0  # atno 17343 bound_to 10162
  157.0507  130.5786  149.5370 LP  0  0  0  0  0  0  0  0  0  0  0  0  # atno 17370 bound_to 10713
  156.0092  130.5182  150.7933 LP  0  0  0  0  0  0  0  0  0  0  0  0  # atno 17371 bound_to 10713
  139.8705  134.9704  156.4700 LP  0  0  0  0  0  0  0  0  0  0  0  0  # atno 17394 bound_to 11000
  140.8742  133.7965  155.9397 LP  0  0  0  0  0  0  0  0  0  0  0  0  # atno 17395 bound_to 11000

$$$$
