AV-unprocessed.smi:1021|AV-procd|sdf|4455|dock5
  -GOLD-   22720 2423D 1   1.00000     0.00000
 Structure written by MMmdl.
 42 44  0  0  0  0  0  0  0  0  1 V2000
  152.8990  136.5593  156.4707 O   0  0  0  0  0  0  0  0  0  0  0  0
  151.8174  136.9866  157.2708 C   0  0  0  0  0  0  0  0  0  0  0  0
  150.9580  138.0106  156.5157 C   0  0  0  0  0  0  0  0  0  0  0  0
  151.7565  139.2286  156.0204 C   0  0  0  0  0  0  0  0  0  0  0  0
  152.0646  140.2005  157.1219 C   0  0  0  0  0  0  0  0  0  0  0  0
  152.8734  139.8704  158.1296 N   0  0  0  0  0  0  0  0  0  0  0  0
  152.8669  141.0071  158.9130 C   0  0  0  0  0  0  0  0  0  0  0  0
  153.5262  141.2861  160.1318 C   0  0  0  0  0  0  0  0  0  0  0  0
  153.3643  142.5380  160.7608 C   0  0  0  0  0  0  0  0  0  0  0  0
  152.5425  143.5263  160.1818 C   0  0  0  0  0  0  0  0  0  0  0  0
  151.8770  143.2685  158.9679 C   0  0  0  0  0  0  0  0  0  0  0  0
  152.0425  142.0176  158.3428 C   0  0  0  0  0  0  0  0  0  0  0  0
  151.5435  141.4544  157.1713 N   0  0  0  0  0  0  0  0  0  0  0  0
  150.6536  142.1113  156.2207 C   0  0  0  0  0  0  0  0  0  0  0  0
  149.1644  141.7974  156.4658 C   0  0  1  0  0  0  0  0  0  0  0  0
  148.5034  142.9469  156.9598 O   0  0  0  0  0  0  0  0  0  0  0  0
  148.5047  141.2444  155.2120 C   0  0  0  0  0  0  0  0  0  0  0  0
  148.8320  139.9483  154.7586 C   0  0  0  0  0  0  0  0  0  0  0  0
  148.2315  139.4306  153.5942 C   0  0  0  0  0  0  0  0  0  0  0  0
  147.3021  140.2067  152.8754 C   0  0  0  0  0  0  0  0  0  0  0  0
  146.7247  139.7083  151.7568 F   0  0  0  0  0  0  0  0  0  0  0  0
  146.9751  141.5020  153.3199 C   0  0  0  0  0  0  0  0  0  0  0  0
  147.5760  142.0206  154.4835 C   0  0  0  0  0  0  0  0  0  0  0  0
  153.4434  137.3068  156.2755 H   0  0  0  0  0  0  0  0  0  0  0  0
  151.2213  136.1240  157.5704 H   0  0  0  0  0  0  0  0  0  0  0  0
  152.2173  137.4335  158.1812 H   0  0  0  0  0  0  0  0  0  0  0  0
  150.5026  137.5110  155.6607 H   0  0  0  0  0  0  0  0  0  0  0  0
  150.1305  138.3379  157.1465 H   0  0  0  0  0  0  0  0  0  0  0  0
  152.6996  138.8995  155.5826 H   0  0  0  0  0  0  0  0  0  0  0  0
  151.2137  139.7227  155.2168 H   0  0  0  0  0  0  0  0  0  0  0  0
  154.1563  140.5348  160.5839 H   0  0  0  0  0  0  0  0  0  0  0  0
  153.8721  142.7400  161.6925 H   0  0  0  0  0  0  0  0  0  0  0  0
  152.4220  144.4822  160.6701 H   0  0  0  0  0  0  0  0  0  0  0  0
  151.2439  144.0227  158.5252 H   0  0  0  0  0  0  0  0  0  0  0  0
  150.8182  143.1874  156.2814 H   0  0  0  0  0  0  0  0  0  0  0  0
  150.9469  141.8290  155.2095 H   0  0  0  0  0  0  0  0  0  0  0  0
  149.0850  141.0389  157.2434 H   0  0  0  0  0  0  0  0  0  0  0  0
  148.8893  143.7103  156.5582 H   0  0  0  0  0  0  0  0  0  0  0  0
  149.5462  139.3463  155.3014 H   0  0  0  0  0  0  0  0  0  0  0  0
  148.4849  138.4383  153.2516 H   0  0  0  0  0  0  0  0  0  0  0  0
  146.2642  142.0988  152.7679 H   0  0  0  0  0  0  0  0  0  0  0  0
  147.3222  143.0175  154.8130 H   0  0  0  0  0  0  0  0  0  0  0  0
  1  2  1  0  0  0  0
  1 24  1  0  0  0  0
  2  3  1  0  0  0  0
  2 25  1  0  0  0  0
  2 26  1  0  0  0  0
  3  4  1  0  0  0  0
  3 27  1  0  0  0  0
  3 28  1  0  0  0  0
  4  5  1  0  0  0  0
  4 29  1  0  0  0  0
  4 30  1  0  0  0  0
  5 13  1  0  0  0  0
  5  6  2  0  0  0  0
  6  7  1  0  0  0  0
  7 12  2  0  0  0  0
  7  8  1  0  0  0  0
  8  9  2  0  0  0  0
  8 31  1  0  0  0  0
  9 10  1  0  0  0  0
  9 32  1  0  0  0  0
 10 11  2  0  0  0  0
 10 33  1  0  0  0  0
 11 12  1  0  0  0  0
 11 34  1  0  0  0  0
 12 13  1  0  0  0  0
 13 14  1  0  0  0  0
 14 15  1  0  0  0  0
 14 35  1  0  0  0  0
 14 36  1  0  0  0  0
 15 16  1  0  0  0  0
 15 17  1  0  0  0  0
 15 37  1  0  0  0  0
 16 38  1  0  0  0  0
 17 23  1  0  0  0  0
 17 18  2  0  0  0  0
 18 19  1  0  0  0  0
 18 39  1  0  0  0  0
 19 20  2  0  0  0  0
 19 40  1  0  0  0  0
 20 21  1  0  0  0  0
 20 22  1  0  0  0  0
 22 23  2  0  0  0  0
 22 41  1  0  0  0  0
 23 42  1  0  0  0  0
M  END
> <s_m_source_file>
AV-unprocessed.smi

> <i_m_source_file_index>
1021

> <i_lp_mmshare_version>
43012

> <i_f3d_flags>
0

> <s_epik_input>
W09IXVtDSDJdW0NIMl1bQ0gyXWMobjEpbihjKGMxMilbY0hdW2NIXVtjSF1bY0hdMilbQ0gyXVtDQEhdKFtPSF0pYzNbY0hdW2NIXWMoRilbY0hdW2NIXTM=

> <s_epik_cmdline>
J2VwaWtfcHl0aG9uJywgJy1waCcsICc3LjAnLCAnLXRuJywgJzgnLCAnLW1hJywgJzIwMCcsICctbWV0YWxfYmluZGluZycsICctaW1hZScsICc8aW5maWxlLm1hZT4nLCAnLW9tYWUnLCAnPG91dGZpbGUubWFlPic=

> <r_epik_Ionization_Penalty>
0.182562

> <r_epik_Ionization_Penalty_Charging>
0

> <r_epik_Ionization_Penalty_Neutral>
0.182562

> <r_epik_State_Penalty>
0.172086

> <r_epik_Charging_Adjusted_Penalty>
0.172086

> <i_epik_Tot_Q>
0

> <i_epik_Tot_abs_Q>
0

> <r_epik_Metal_State_Penalty>
0.000199649

> <b_epik_Metal_Only>
0

> <s_lp_Force_Field>
OPLS_2005

> <r_lp_Energy>
11.397

> <b_lp_Chiralities_Consistent>
1

> <s_lp_Variant>
AV-unprocessed.smi:1021-2

> <Gold.Version>
5.8.1

> <Gold.Id.Protein>
6NUR|6NUR_protein|mol2

> <Gold.PLP.Fitness>
49.7137

> <Gold.PLP.PLP>
-44.0463

> <Gold.PLP.part.hbond>
-3.0000

> <Gold.PLP.part.metal>
0.0000

> <Gold.PLP.part.buried>
-0.4416

> <Gold.PLP.part.nonpolar>
-39.2675

> <Gold.PLP.part.repulsive>
0.0000

> <Gold.PLP.ligand.clash>
0.0000

> <Gold.PLP.ligand.torsion>
1.4660

> <Gold.PLP.Chemscore.Hbond>
2.8432

> <Gold.PLP.Chemscore.CHOScore>
0.0000

> <Gold.PLP.Chemscore.Metal>
0.0000

> <Gold.Chemscore.Hbonds>
donor molecule, donor type, donor heavy atom, donor atom, acceptor molecule, acceptor atom, score
      L1  H    16    38       P1  8028  0.52
      P1  H  7997  8010       L1     6  0.73
      P1  H 10752 10765       L1     1  0.85

> <Gold.PLP.Chemscore.Internal.Correction>
0.0697

> <Gold.Rescore>
     Score         DG    S(hbond)    S(metal)    S(lipo)     H(rot)  DE(clash)    DE(int)     intcor
     16.89     -18.24       1.84        0.00     123.87       3.07       0.06       1.29       ----

> <Gold.Chemscore.Fitness>
16.8887

> <Gold.Chemscore.DG>
-18.2366

> <Gold.Chemscore.ZeroCoef>
-5.4800

> <Gold.Chemscore.Hbond>
1.8366

> <Gold.Chemscore.Metal>
0.0000

> <Gold.Chemscore.Lipo>
123.8655

> <Gold.Chemscore.Internal_Hbond>
0.0000

> <Gold.Chemscore.DEClash>
0.0560

> <Gold.Chemscore.DEInternal>
1.2919

> <Gold.Chemscore.Rot>
3.0741

> <Gold.Chemscore.Internal.Correction>
   9.000000E+99

> <Gold.Chemscore.Hbonds>
donor molecule, donor type, donor heavy atom, donor atom, acceptor molecule, acceptor atom, score
      L1  H    16    38       P1  8028  0.37
      P1  H  7997  8010       L1     6  0.06
      P1  H 10752 10765       L1     1  0.19

> <Gold.Chemscore.Hbond.Weighted>
-6.1342

> <Gold.Chemscore.Metal.Weighted>
-0.0000

> <Gold.Chemscore.Lipo.Weighted>
-14.4923

> <Gold.Chemscore.Internal_Hbond.Weighted>
0.0000

> <Gold.Chemscore.DEClash.Weighted>
0.0560

> <Gold.Chemscore.DEInternal.Weighted>
1.2919

> <Gold.Chemscore.Rot.Weighted>
7.8698

> <Gold.Chemscore.Internal.Correction.Weighted>
   9.000000E+99

> <Gold.Protein.RotatedTorsions>
[ 6907 6896 6895 6894 ] final   59.29 input  -60.11 | X-H torsion
[ 7974 7965 7964 7962 ] final -120.63 input  175.53 | X-H torsion
[ 8008 7997 7996 7995 ] final   21.66 input   59.86 | X-H torsion
[ 10167 10162 10161 10158 ] final  -82.77 input  -65.29 | X-H torsion
[ 10718 10713 10712 10709 ] final  106.17 input   66.30 | X-H torsion
[ 10763 10752 10751 10750 ] final -116.17 input  -60.55 | X-H torsion
[ 11005 11000 10999 10996 ] final  -14.36 input  -57.11 | X-H torsion

> <Gold.Protein.ActiveResidues>
 VAL166  LYS551  ARG553  GLY616  TRP617  ASP618  TYR619  PRO620  LYS621  CYS622 
 ASP623  PHE694  ASN695  SER759  ASP760  ASP761  ALA762  ILE779  LEU786  VAL792 
 PHE793  MET794  SER795  GLU796  ALA797  LYS798  CYS799  TRP800  GLU811  SER814 

> <Gold.Protein.RotatedAtoms>
  152.3901  134.6454  160.0110 H   0  0  0  0  0  0  0  0  0  0  0  0  # atno 6907 bound_to 6896
  151.6691  133.3309  159.3200 H   0  0  0  0  0  0  0  0  0  0  0  0  # atno 6908 bound_to 6896
  150.7819  134.6815  159.6491 H   0  0  0  0  0  0  0  0  0  0  0  0  # atno 6909 bound_to 6896
  145.0492  140.8205  143.4219 H   0  0  0  0  0  0  0  0  0  0  0  0  # atno 7974 bound_to 7965
  154.9540  140.3069  155.5062 H   0  0  0  0  0  0  0  0  0  0  0  0  # atno 8008 bound_to 7997
  156.2984  140.2313  156.4558 H   0  0  0  0  0  0  0  0  0  0  0  0  # atno 8009 bound_to 7997
  154.8028  140.0433  157.1274 H   0  0  0  0  0  0  0  0  0  0  0  0  # atno 8010 bound_to 7997
  140.4288  143.2556  151.8788 H   0  0  0  0  0  0  0  0  0  0  0  0  # atno 10167 bound_to 10162
  157.6678  131.0845  150.5967 H   0  0  0  0  0  0  0  0  0  0  0  0  # atno 10718 bound_to 10713
  154.8509  135.4355  154.1778 H   0  0  0  0  0  0  0  0  0  0  0  0  # atno 10763 bound_to 10752
  153.2876  135.6959  153.7330 H   0  0  0  0  0  0  0  0  0  0  0  0  # atno 10764 bound_to 10752
  153.6510  135.3451  155.3074 H   0  0  0  0  0  0  0  0  0  0  0  0  # atno 10765 bound_to 10752
  140.7856  133.8328  155.9332 H   0  0  0  0  0  0  0  0  0  0  0  0  # atno 11005 bound_to 11000
  145.1549  139.2493  143.5422 LP  0  0  0  0  0  0  0  0  0  0  0  0  # atno 17320 bound_to 7965
  146.3516  140.1261  142.8598 LP  0  0  0  0  0  0  0  0  0  0  0  0  # atno 17321 bound_to 7965
  139.4784  144.5357  151.8602 LP  0  0  0  0  0  0  0  0  0  0  0  0  # atno 17342 bound_to 10162
  140.4450  144.1934  150.5893 LP  0  0  0  0  0  0  0  0  0  0  0  0  # atno 17343 bound_to 10162
  156.6268  130.4421  149.5801 LP  0  0  0  0  0  0  0  0  0  0  0  0  # atno 17370 bound_to 10713
  156.2313  130.6796  151.1466 LP  0  0  0  0  0  0  0  0  0  0  0  0  # atno 17371 bound_to 10713
  140.9440  134.1865  157.4777 LP  0  0  0  0  0  0  0  0  0  0  0  0  # atno 17394 bound_to 11000
  139.8737  134.9883  156.5406 LP  0  0  0  0  0  0  0  0  0  0  0  0  # atno 17395 bound_to 11000

$$$$
