AV-unprocessed.smi:1900|AV-procd|sdf|7709|dock3
  -GOLD-   22720 9443D 1   1.00000     0.00000
 Structure written by MMmdl.
 44 45  0  0  0  0  0  0  0  0  2 V2000
  151.1755  138.3907  153.9290 C   0  0  0  0  0  0  0  0  0  0  0  0
  150.1107  138.6466  155.0105 C   0  0  2  0  0  0  0  0  0  0  0  0
  148.6899  138.8354  154.4433 C   0  0  0  0  0  0  0  0  0  0  0  0
  148.5428  140.1570  153.7881 N   0  3  1  0  0  0  0  0  0  0  0  0
  147.1997  140.3383  153.1829 C   0  0  0  0  0  0  0  0  0  0  0  0
  146.8726  139.2609  152.1350 C   0  0  0  0  0  0  0  0  0  0  0  0
  146.0232  138.1214  152.7229 C   0  0  0  0  0  0  0  0  0  0  0  0
  146.3508  136.8324  152.1238 N   0  0  0  0  0  0  0  0  0  0  0  0
  145.4618  135.8681  151.8450 C   0  0  0  0  0  0  0  0  0  0  0  0
  144.2520  135.9820  152.0435 O   0  0  0  0  0  0  0  0  0  0  0  0
  146.0615  134.7818  151.3310 N   0  0  0  0  0  0  0  0  0  0  0  0
  145.4455  133.5710  150.9246 C   0  0  0  0  0  0  0  0  0  0  0  0
  144.0800  133.4431  150.5516 C   0  0  0  0  0  0  0  0  0  0  0  0
  143.7840  132.1946  150.2194 N   0  0  0  0  0  0  0  0  0  0  0  0
  144.9471  131.5240  150.3788 N   0  0  0  0  0  0  0  0  0  0  0  0
  145.9857  132.3212  150.8068 C   0  0  0  0  0  0  0  0  0  0  0  0
  148.9209  141.2398  154.7282 C   0  0  0  0  0  0  0  0  0  0  0  0
  150.3542  141.0263  155.2477 C   0  0  1  0  0  0  0  0  0  0  0  0
  150.7473  142.0764  156.2928 C   0  0  0  0  0  0  0  0  0  0  0  0
  150.4528  139.7425  155.8585 O   0  0  0  0  0  0  0  0  0  0  0  0
  145.0159  130.5334  150.1928 H   0  0  0  0  0  0  0  0  0  0  0  0
  150.9588  137.4715  153.3843 H   0  0  0  0  0  0  0  0  0  0  0  0
  152.1644  138.2823  154.3753 H   0  0  0  0  0  0  0  0  0  0  0  0
  151.2253  139.1957  153.1966 H   0  0  0  0  0  0  0  0  0  0  0  0
  150.0962  137.7644  155.6511 H   0  0  0  0  0  0  0  0  0  0  0  0
  148.4642  138.0361  153.7362 H   0  0  0  0  0  0  0  0  0  0  0  0
  147.9596  138.7576  155.2504 H   0  0  0  0  0  0  0  0  0  0  0  0
  146.4455  140.2818  153.9692 H   0  0  0  0  0  0  0  0  0  0  0  0
  147.1193  141.3367  152.7501 H   0  0  0  0  0  0  0  0  0  0  0  0
  146.3397  139.7058  151.2952 H   0  0  0  0  0  0  0  0  0  0  0  0
  147.7995  138.8514  151.7312 H   0  0  0  0  0  0  0  0  0  0  0  0
  146.1929  138.0467  153.7973 H   0  0  0  0  0  0  0  0  0  0  0  0
  144.9601  138.3300  152.5909 H   0  0  0  0  0  0  0  0  0  0  0  0
  147.3251  136.6529  151.9287 H   0  0  0  0  0  0  0  0  0  0  0  0
  147.0651  134.8194  151.2289 H   0  0  0  0  0  0  0  0  0  0  0  0
  143.3103  134.1996  150.5104 H   0  0  0  0  0  0  0  0  0  0  0  0
  146.9782  131.9333  150.9808 H   0  0  0  0  0  0  0  0  0  0  0  0
  148.8614  142.2098  154.2362 H   0  0  0  0  0  0  0  0  0  0  0  0
  148.2163  141.2619  155.5613 H   0  0  0  0  0  0  0  0  0  0  0  0
  151.0588  141.0955  154.4187 H   0  0  0  0  0  0  0  0  0  0  0  0
  150.6996  143.0827  155.8758 H   0  0  0  0  0  0  0  0  0  0  0  0
  151.7654  141.9124  156.6468 H   0  0  0  0  0  0  0  0  0  0  0  0
  150.0846  142.0407  157.1579 H   0  0  0  0  0  0  0  0  0  0  0  0
  149.2090  140.1741  153.0291 H   0  0  0  0  0  0  0  0  0  0  0  0
  1  2  1  0  0  0  0
  1 22  1  0  0  0  0
  1 23  1  0  0  0  0
  1 24  1  0  0  0  0
  2 20  1  0  0  0  0
  2  3  1  0  0  0  0
  2 25  1  0  0  0  0
  3  4  1  0  0  0  0
  3 26  1  0  0  0  0
  3 27  1  0  0  0  0
  4  5  1  0  0  0  0
  4 17  1  0  0  0  0
  4 44  1  0  0  0  0
  5  6  1  0  0  0  0
  5 28  1  0  0  0  0
  5 29  1  0  0  0  0
  6  7  1  0  0  0  0
  6 30  1  0  0  0  0
  6 31  1  0  0  0  0
  7  8  1  0  0  0  0
  7 32  1  0  0  0  0
  7 33  1  0  0  0  0
  8  9  1  0  0  0  0
  8 34  1  0  0  0  0
  9 10  2  0  0  0  0
  9 11  1  0  0  0  0
 11 12  1  0  0  0  0
 11 35  1  0  0  0  0
 12 16  2  0  0  0  0
 12 13  1  0  0  0  0
 13 14  2  0  0  0  0
 13 36  1  0  0  0  0
 14 15  1  0  0  0  0
 15 21  1  0  0  0  0
 15 16  1  0  0  0  0
 16 37  1  0  0  0  0
 17 18  1  0  0  0  0
 17 38  1  0  0  0  0
 17 39  1  0  0  0  0
 18 19  1  0  0  0  0
 18 20  1  0  0  0  0
 18 40  1  0  0  0  0
 19 41  1  0  0  0  0
 19 42  1  0  0  0  0
 19 43  1  0  0  0  0
M  CHG  1   4   1
M  END
> <s_m_source_file>
AV-unprocessed.smi

> <i_m_source_file_index>
1900

> <i_lp_mmshare_version>
43012

> <i_f3d_flags>
0

> <s_epik_input>
W0NIM11bQ0BASF0xW0NIMl1OKFtDSDJdW0NASF0oTzEpW0NIM10pW0NIMl1bQ0gyXVtDSDJdW05IXUMoPU8pW05IXWMyW2NIXW5bbkhdW2NIXTI=

> <s_epik_cmdline>
J2VwaWtfcHl0aG9uJywgJy1waCcsICc3LjAnLCAnLXRuJywgJzgnLCAnLW1hJywgJzIwMCcsICctbWV0YWxfYmluZGluZycsICctaW1hZScsICc8aW5maWxlLm1hZT4nLCAnLW9tYWUnLCAnPG91dGZpbGUubWFlPic=

> <r_lp_tautomer_probability>
0.5

> <r_epik_Ionization_Penalty>
0.270543

> <r_epik_Ionization_Penalty_Charging>
0.270496

> <r_epik_Ionization_Penalty_Neutral>
4.67091e-05

> <r_epik_State_Penalty>
0.262618

> <r_epik_Charging_Adjusted_Penalty>
0.533114

> <i_epik_Tot_Q>
1

> <i_epik_Tot_abs_Q>
1

> <r_epik_Metal_State_Penalty>
0.262618

> <b_epik_Metal_Only>
0

> <s_lp_Force_Field>
OPLS_2005

> <r_lp_Energy>
21.2497

> <b_lp_Chiralities_Consistent>
1

> <s_lp_Variant>
AV-unprocessed.smi:1900-1

> <Gold.Version>
5.8.1

> <Gold.Id.Protein>
6NUR|6NUR_protein|mol2

> <Gold.PLP.Fitness>
44.6393

> <Gold.PLP.PLP>
-33.6539

> <Gold.PLP.part.hbond>
-2.5686

> <Gold.PLP.part.metal>
0.0000

> <Gold.PLP.part.buried>
-3.2575

> <Gold.PLP.part.nonpolar>
-29.0932

> <Gold.PLP.part.repulsive>
0.7165

> <Gold.PLP.ligand.clash>
0.0000

> <Gold.PLP.ligand.torsion>
0.7692

> <Gold.PLP.Chemscore.Hbond>
2.1667

> <Gold.PLP.Chemscore.CHOScore>
1.9990

> <Gold.PLP.Chemscore.Metal>
0.0000

> <Gold.Chemscore.Hbonds>
donor molecule, donor type, donor heavy atom, donor atom, acceptor molecule, acceptor atom, score
      L1  H     4    44       P1  7957  1.00
      L1  H     8    34       P1  7948  1.00
      L1  H    11    35       P1  7948  0.09
      L1  C    13    36       P1 10186  1.00
      L1  C    16    37       P1 10747  1.00

> <Gold.PLP.Chemscore.Internal.Correction>
0.0268

> <Gold.Rescore>
     Score         DG    S(hbond)    S(metal)    S(lipo)     H(rot)  DE(clash)    DE(int)     intcor
     15.48     -17.79       2.13        0.00      86.68       1.93       0.39       1.92       ----

> <Gold.Chemscore.Fitness>
15.4790

> <Gold.Chemscore.DG>
-17.7889

> <Gold.Chemscore.ZeroCoef>
-5.4800

> <Gold.Chemscore.Hbond>
2.1319

> <Gold.Chemscore.Metal>
0.0000

> <Gold.Chemscore.Lipo>
86.6769

> <Gold.Chemscore.Internal_Hbond>
0.0000

> <Gold.Chemscore.DEClash>
0.3926

> <Gold.Chemscore.DEInternal>
1.9172

> <Gold.Chemscore.Rot>
1.9347

> <Gold.Chemscore.Internal.Correction>
   9.000000E+99

> <Gold.Chemscore.Hbonds>
donor molecule, donor type, donor heavy atom, donor atom, acceptor molecule, acceptor atom, score
      L1  H     4    44       P1  7957  0.94
      L1  H     8    34       P1  7948  1.00
      L1  H    11    35       P1  7948  0.06

> <Gold.Chemscore.Hbond.Weighted>
-7.1205

> <Gold.Chemscore.Metal.Weighted>
-0.0000

> <Gold.Chemscore.Lipo.Weighted>
-10.1412

> <Gold.Chemscore.Internal_Hbond.Weighted>
0.0000

> <Gold.Chemscore.DEClash.Weighted>
0.3926

> <Gold.Chemscore.DEInternal.Weighted>
1.9172

> <Gold.Chemscore.Rot.Weighted>
4.9528

> <Gold.Chemscore.Internal.Correction.Weighted>
   9.000000E+99

> <Gold.Protein.RotatedTorsions>
[ 6907 6896 6895 6894 ] final -112.73 input  -60.11 | X-H torsion
[ 7974 7965 7964 7962 ] final  -78.44 input  175.53 | X-H torsion
[ 8008 7997 7996 7995 ] final  -38.27 input   59.86 | X-H torsion
[ 10167 10162 10161 10158 ] final  -50.82 input  -65.29 | X-H torsion
[ 10718 10713 10712 10709 ] final  154.58 input   66.30 | X-H torsion
[ 10763 10752 10751 10750 ] final -170.89 input  -60.55 | X-H torsion
[ 11005 11000 10999 10996 ] final  -15.66 input  -57.11 | X-H torsion

> <Gold.Protein.ActiveResidues>
 VAL166  LYS551  ARG553  GLY616  TRP617  ASP618  TYR619  PRO620  LYS621  CYS622 
 ASP623  PHE694  ASN695  SER759  ASP760  ASP761  ALA762  ILE779  LEU786  VAL792 
 PHE793  MET794  SER795  GLU796  ALA797  LYS798  CYS799  TRP800  GLU811  SER814 

> <Gold.Protein.RotatedAtoms>
  150.7779  133.9047  159.3351 H   0  0  0  0  0  0  0  0  0  0  0  0  # atno 6907 bound_to 6896
  151.6917  135.0943  160.0244 H   0  0  0  0  0  0  0  0  0  0  0  0  # atno 6908 bound_to 6896
  152.3821  133.6522  159.6205 H   0  0  0  0  0  0  0  0  0  0  0  0  # atno 6909 bound_to 6896
  145.5864  140.9438  143.1316 H   0  0  0  0  0  0  0  0  0  0  0  0  # atno 7974 bound_to 7965
  154.4039  140.1582  156.2673 H   0  0  0  0  0  0  0  0  0  0  0  0  # atno 8008 bound_to 7997
  155.8984  140.3434  155.5986 H   0  0  0  0  0  0  0  0  0  0  0  0  # atno 8009 bound_to 7997
  155.7476  140.0801  157.2207 H   0  0  0  0  0  0  0  0  0  0  0  0  # atno 8010 bound_to 7997
  140.6619  143.2643  151.4415 H   0  0  0  0  0  0  0  0  0  0  0  0  # atno 10167 bound_to 10162
  157.2297  131.0736  151.1861 H   0  0  0  0  0  0  0  0  0  0  0  0  # atno 10718 bound_to 10713
  154.6365  135.2893  155.0155 H   0  0  0  0  0  0  0  0  0  0  0  0  # atno 10763 bound_to 10752
  154.1297  135.6535  153.4923 H   0  0  0  0  0  0  0  0  0  0  0  0  # atno 10764 bound_to 10752
  153.0305  135.5307  154.7214 H   0  0  0  0  0  0  0  0  0  0  0  0  # atno 10765 bound_to 10752
  140.7988  133.8230  155.9450 H   0  0  0  0  0  0  0  0  0  0  0  0  # atno 11005 bound_to 11000
  144.7371  139.7555  143.7325 LP  0  0  0  0  0  0  0  0  0  0  0  0  # atno 17320 bound_to 7965
  146.1679  139.4817  142.9946 LP  0  0  0  0  0  0  0  0  0  0  0  0  # atno 17321 bound_to 7965
  139.5855  144.1614  152.2023 LP  0  0  0  0  0  0  0  0  0  0  0  0  # atno 17342 bound_to 10162
  140.0952  144.5586  150.7026 LP  0  0  0  0  0  0  0  0  0  0  0  0  # atno 17343 bound_to 10162
  157.3491  130.7072  149.6429 LP  0  0  0  0  0  0  0  0  0  0  0  0  # atno 17370 bound_to 10713
  155.9676  130.4258  150.4669 LP  0  0  0  0  0  0  0  0  0  0  0  0  # atno 17371 bound_to 10713
  140.9315  134.2015  157.4860 LP  0  0  0  0  0  0  0  0  0  0  0  0  # atno 17394 bound_to 11000
  139.8723  134.9835  156.5199 LP  0  0  0  0  0  0  0  0  0  0  0  0  # atno 17395 bound_to 11000

$$$$
