AV-unprocessed.smi:2750|AV-procd|sdf|10593|dock5
  -GOLD-   2272015 43D 1   1.00000     0.00000
 Structure written by MMmdl.
 24 25  0  0  0  0  0  0  0  0  3 V2000
  151.0298  130.5064  157.3952 O   0  0  0  0  0  0  0  0  0  0  0  0
  151.6525  131.5557  157.1203 C   0  0  0  0  0  0  0  0  0  0  0  0
  152.5644  132.0639  157.8095 O   0  5  0  0  0  0  0  0  0  0  0  0
  151.2776  132.2713  155.8224 C   0  0  0  0  0  0  0  0  0  0  0  0
  150.8157  133.6274  156.0569 N   0  0  0  0  0  0  0  0  0  0  0  0
  150.4526  134.5840  155.1314 C   0  0  0  0  0  0  0  0  0  0  0  0
  150.0963  135.6542  155.9019 C   0  0  0  0  0  0  0  0  0  0  0  0
  149.6032  137.0048  155.4698 C   0  0  0  0  0  0  0  0  0  0  0  0
  150.4933  137.6681  154.3947 C   0  0  2  0  0  0  0  0  0  0  0  0
  151.8960  137.3213  154.5554 N   0  5  0  0  0  0  0  0  0  0  0  0
  152.6056  138.4612  154.7231 C   0  0  0  0  0  0  0  0  0  0  0  0
  153.8193  138.5755  154.8782 O   0  0  0  0  0  0  0  0  0  0  0  0
  151.7989  139.5272  154.7054 N   0  0  0  0  0  0  0  0  0  0  0  0
  150.5280  139.1784  154.5323 C   0  0  0  0  0  0  0  0  0  0  0  0
  149.5492  139.9227  154.4873 O   0  0  0  0  0  0  0  0  0  0  0  0
  150.2569  135.3100  157.2444 N   0  0  0  0  0  0  0  0  0  0  0  0
  150.6941  134.0923  157.3237 N   0  0  0  0  0  0  0  0  0  0  0  0
  152.1446  132.3083  155.1614 H   0  0  0  0  0  0  0  0  0  0  0  0
  150.5029  131.7106  155.2965 H   0  0  0  0  0  0  0  0  0  0  0  0
  150.4812  134.4254  154.0638 H   0  0  0  0  0  0  0  0  0  0  0  0
  148.5894  136.8975  155.0815 H   0  0  0  0  0  0  0  0  0  0  0  0
  149.5111  137.6619  156.3364 H   0  0  0  0  0  0  0  0  0  0  0  0
  150.1140  137.4286  153.4001 H   0  0  0  0  0  0  0  0  0  0  0  0
  152.1160  140.4782  154.8199 H   0  0  0  0  0  0  0  0  0  0  0  0
  1  2  2  0  0  0  0
  2  3  1  0  0  0  0
  2  4  1  0  0  0  0
  4  5  1  0  0  0  0
  4 18  1  0  0  0  0
  4 19  1  0  0  0  0
  5 17  1  0  0  0  0
  5  6  1  0  0  0  0
  6  7  2  0  0  0  0
  6 20  1  0  0  0  0
  7  8  1  0  0  0  0
  7 16  1  0  0  0  0
  8  9  1  0  0  0  0
  8 21  1  0  0  0  0
  8 22  1  0  0  0  0
  9 14  1  0  0  0  0
  9 10  1  0  0  0  0
  9 23  1  0  0  0  0
 10 11  1  0  0  0  0
 11 12  2  0  0  0  0
 11 13  1  0  0  0  0
 13 14  1  0  0  0  0
 13 24  1  0  0  0  0
 14 15  2  0  0  0  0
 16 17  2  0  0  0  0
M  CHG  1   3  -1
M  CHG  1  10  -1
M  END
> <s_m_source_file>
AV-unprocessed.smi

> <i_m_source_file_index>
2750

> <i_lp_mmshare_version>
43012

> <i_f3d_flags>
0

> <s_epik_input>
Tz1DKFtPSF0pW0NIMl1uMVtjSF1jKG5uMSlbQ0gyXVtDQEBIXTJbTkhdQyg9TylbTkhdQzI9Tw==

> <s_epik_cmdline>
J2VwaWtfcHl0aG9uJywgJy1waCcsICc3LjAnLCAnLXRuJywgJzgnLCAnLW1hJywgJzIwMCcsICctbWV0YWxfYmluZGluZycsICctaW1hZScsICc8aW5maWxlLm1hZT4nLCAnLW9tYWUnLCAnPG91dGZpbGUubWFlPic=

> <r_lp_tautomer_probability>
1

> <r_epik_Ionization_Penalty>
5.10791

> <r_epik_Ionization_Penalty_Charging>
5.10788

> <r_epik_Ionization_Penalty_Neutral>
2.55687e-05

> <r_epik_State_Penalty>
5.12334

> <r_epik_Charging_Adjusted_Penalty>
10.2312

> <i_epik_Tot_Q>
-2

> <i_epik_Tot_abs_Q>
2

> <r_epik_Metal_State_Penalty>
1.50935

> <b_epik_Metal_Only>
1

> <s_lp_Force_Field>
OPLS_2005

> <r_lp_Energy>
16.0951

> <b_lp_Chiralities_Consistent>
1

> <s_lp_Variant>
AV-unprocessed.smi:2750-5

> <Gold.Version>
5.8.1

> <Gold.Id.Protein>
6NUR|6NUR_protein|mol2

> <Gold.PLP.Fitness>
38.1993

> <Gold.PLP.PLP>
-24.1077

> <Gold.PLP.part.hbond>
-4.6283

> <Gold.PLP.part.metal>
0.0000

> <Gold.PLP.part.buried>
-6.0848

> <Gold.PLP.part.nonpolar>
-16.0938

> <Gold.PLP.part.repulsive>
2.4074

> <Gold.PLP.ligand.clash>
0.0000

> <Gold.PLP.ligand.torsion>
0.4720

> <Gold.PLP.Chemscore.Hbond>
5.0080

> <Gold.PLP.Chemscore.CHOScore>
0.0000

> <Gold.PLP.Chemscore.Metal>
0.0000

> <Gold.Chemscore.Hbonds>
donor molecule, donor type, donor heavy atom, donor atom, acceptor molecule, acceptor atom, score
      P1  H  6896  6907       L1    17  0.19
      P1  H  6896  6909       L1     3  1.50
      P1  H  7997  8010       L1    12  0.80
      P1  H 10752 10765       L1    10  1.92

> <Gold.PLP.Chemscore.Internal.Correction>
0.0117

> <Gold.Rescore>
     Score         DG    S(hbond)    S(metal)    S(lipo)     H(rot)  DE(clash)    DE(int)     intcor
      7.48     -10.34       2.74        0.00      24.43       2.80       1.11       1.75       ----

> <Gold.Chemscore.Fitness>
7.4791

> <Gold.Chemscore.DG>
-10.3423

> <Gold.Chemscore.ZeroCoef>
-5.4800

> <Gold.Chemscore.Hbond>
2.7441

> <Gold.Chemscore.Metal>
0.0000

> <Gold.Chemscore.Lipo>
24.4273

> <Gold.Chemscore.Internal_Hbond>
0.0000

> <Gold.Chemscore.DEClash>
1.1099

> <Gold.Chemscore.DEInternal>
1.7533

> <Gold.Chemscore.Rot>
2.7973

> <Gold.Chemscore.Internal.Correction>
   9.000000E+99

> <Gold.Chemscore.Hbonds>
donor molecule, donor type, donor heavy atom, donor atom, acceptor molecule, acceptor atom, score
      P1  H  6896  6907       L1    17  0.01
      P1  H  6896  6909       L1     3  0.72
      P1  H  7997  8010       L1    12  0.74
      P1  H 10752 10765       L1    10  0.84

> <Gold.Chemscore.Hbond.Weighted>
-9.1655

> <Gold.Chemscore.Metal.Weighted>
-0.0000

> <Gold.Chemscore.Lipo.Weighted>
-2.8580

> <Gold.Chemscore.Internal_Hbond.Weighted>
0.0000

> <Gold.Chemscore.DEClash.Weighted>
1.1099

> <Gold.Chemscore.DEInternal.Weighted>
1.7533

> <Gold.Chemscore.Rot.Weighted>
7.1611

> <Gold.Chemscore.Internal.Correction.Weighted>
   9.000000E+99

> <Gold.Protein.RotatedTorsions>
[ 6907 6896 6895 6894 ] final  -90.41 input  -60.11 | X-H torsion
[ 7974 7965 7964 7962 ] final -160.26 input  175.53 | X-H torsion
[ 8008 7997 7996 7995 ] final  105.72 input   59.86 | X-H torsion
[ 10167 10162 10161 10158 ] final -116.36 input  -65.29 | X-H torsion
[ 10718 10713 10712 10709 ] final   49.88 input   66.30 | X-H torsion
[ 10763 10752 10751 10750 ] final  168.94 input  -60.55 | X-H torsion
[ 11005 11000 10999 10996 ] final   20.94 input  -57.11 | X-H torsion

> <Gold.Protein.ActiveResidues>
 VAL166  LYS551  ARG553  GLY616  TRP617  ASP618  TYR619  PRO620  LYS621  CYS622 
 ASP623  PHE694  ASN695  SER759  ASP760  ASP761  ALA762  ILE779  LEU786  VAL792 
 PHE793  MET794  SER795  GLU796  ALA797  LYS798  CYS799  TRP800  GLU811  SER814 

> <Gold.Protein.RotatedAtoms>
  150.6881  134.2436  159.4482 H   0  0  0  0  0  0  0  0  0  0  0  0  # atno 6907 bound_to 6896
  152.0378  134.9727  160.0583 H   0  0  0  0  0  0  0  0  0  0  0  0  # atno 6908 bound_to 6896
  152.1240  133.4335  159.4726 H   0  0  0  0  0  0  0  0  0  0  0  0  # atno 6909 bound_to 6896
  144.7433  140.3566  143.6104 H   0  0  0  0  0  0  0  0  0  0  0  0  # atno 7974 bound_to 7965
  156.1683  140.3125  155.8928 H   0  0  0  0  0  0  0  0  0  0  0  0  # atno 8008 bound_to 7997
  155.3640  140.0478  157.3063 H   0  0  0  0  0  0  0  0  0  0  0  0  # atno 8009 bound_to 7997
  154.5215  140.2200  155.8978 H   0  0  0  0  0  0  0  0  0  0  0  0  # atno 8010 bound_to 7997
  140.0801  143.4796  152.1931 H   0  0  0  0  0  0  0  0  0  0  0  0  # atno 10167 bound_to 10162
  157.4830  130.8327  149.8115 H   0  0  0  0  0  0  0  0  0  0  0  0  # atno 10718 bound_to 10713
  154.3759  135.2753  155.2240 H   0  0  0  0  0  0  0  0  0  0  0  0  # atno 10763 bound_to 10752
  154.4367  135.5964  153.6107 H   0  0  0  0  0  0  0  0  0  0  0  0  # atno 10764 bound_to 10752
  152.9836  135.6009  154.3995 H   0  0  0  0  0  0  0  0  0  0  0  0  # atno 10765 bound_to 10752
  140.3971  134.1758  155.7663 H   0  0  0  0  0  0  0  0  0  0  0  0  # atno 11005 bound_to 11000
  145.7220  139.1712  143.2479 LP  0  0  0  0  0  0  0  0  0  0  0  0  # atno 17320 bound_to 7965
  146.1270  140.7235  142.9430 LP  0  0  0  0  0  0  0  0  0  0  0  0  # atno 17321 bound_to 7965
  139.5785  144.7499  151.3703 LP  0  0  0  0  0  0  0  0  0  0  0  0  # atno 17342 bound_to 10162
  140.7082  143.7459  150.7519 LP  0  0  0  0  0  0  0  0  0  0  0  0  # atno 17343 bound_to 10162
  156.0132  130.3824  150.2196 LP  0  0  0  0  0  0  0  0  0  0  0  0  # atno 17370 bound_to 10713
  157.0383  131.0028  151.3291 LP  0  0  0  0  0  0  0  0  0  0  0  0  # atno 17371 bound_to 10713
  141.1870  133.8290  157.1047 LP  0  0  0  0  0  0  0  0  0  0  0  0  # atno 17394 bound_to 11000
  140.0364  134.9876  157.0878 LP  0  0  0  0  0  0  0  0  0  0  0  0  # atno 17395 bound_to 11000

$$$$
