AV-unprocessed.smi:1695|AV-procd|sdf|6790|dock2
  -GOLD-   22720 7553D 1   1.00000     0.00000
 Structure written by MMmdl.
 51 53  0  0  0  0  0  0  0  0  2 V2000
  153.5077  143.0570  160.1552 C   0  0  0  0  0  0  0  0  0  0  0  0
  152.4612  142.4845  159.2157 C   0  0  0  0  0  0  0  0  0  0  0  0
  151.9865  141.1714  159.4342 C   0  0  0  0  0  0  0  0  0  0  0  0
  151.0138  140.6023  158.5835 C   0  0  0  0  0  0  0  0  0  0  0  0
  150.4156  139.3542  158.6098 N   0  0  0  0  0  0  0  0  0  0  0  0
  149.6003  139.4248  157.5619 C   0  0  0  0  0  0  0  0  0  0  0  0
  149.6049  140.5710  156.8538 N   0  0  0  0  0  0  0  0  0  0  0  0
  148.8132  140.8794  155.6767 C   0  0  0  0  0  0  0  0  0  0  0  0
  149.0144  139.8499  154.5485 C   0  0  1  0  0  0  0  0  0  0  0  0
  150.3935  139.7486  154.2489 O   0  0  0  0  0  0  0  0  0  0  0  0
  148.4918  138.4562  154.9481 C   0  0  0  0  0  0  0  0  0  0  0  0
  147.6579  137.8325  153.8884 N   0  3  1  0  0  0  0  0  0  0  0  0
  146.8594  136.6902  154.4015 C   0  0  0  0  0  0  0  0  0  0  0  0
  146.1232  135.9637  153.2593 C   0  0  0  0  0  0  0  0  0  0  0  0
  145.2469  136.9023  152.4031 C   0  0  1  0  0  0  0  0  0  0  0  0
  143.9249  137.2817  153.0966 C   0  0  0  0  0  0  0  0  0  0  0  0
  143.1258  138.1343  152.4504 N   0  0  0  0  0  0  0  0  0  0  0  0
  143.6229  136.8191  154.1945 O   0  0  0  0  0  0  0  0  0  0  0  0
  146.0750  138.1343  151.9790 C   0  0  0  0  0  0  0  0  0  0  0  0
  146.8109  138.8084  153.1530 C   0  0  0  0  0  0  0  0  0  0  0  0
  150.5268  141.3882  157.4985 C   0  0  0  0  0  0  0  0  0  0  0  0
  150.9904  142.6959  157.2710 C   0  0  0  0  0  0  0  0  0  0  0  0
  151.9612  143.2498  158.1316 C   0  0  0  0  0  0  0  0  0  0  0  0
  152.4558  144.6632  157.8792 C   0  0  0  0  0  0  0  0  0  0  0  0
  153.7761  142.3436  160.9347 H   0  0  0  0  0  0  0  0  0  0  0  0
  153.1333  143.9576  160.6419 H   0  0  0  0  0  0  0  0  0  0  0  0
  154.4152  143.3106  159.6068 H   0  0  0  0  0  0  0  0  0  0  0  0
  152.3664  140.5883  160.2601 H   0  0  0  0  0  0  0  0  0  0  0  0
  148.9673  138.5929  157.2893 H   0  0  0  0  0  0  0  0  0  0  0  0
  147.7623  140.9320  155.9657 H   0  0  0  0  0  0  0  0  0  0  0  0
  149.0923  141.8760  155.3324 H   0  0  0  0  0  0  0  0  0  0  0  0
  148.4995  140.2086  153.6578 H   0  0  0  0  0  0  0  0  0  0  0  0
  150.8457  139.4378  155.0191 H   0  0  0  0  0  0  0  0  0  0  0  0
  149.3506  137.8184  155.1645 H   0  0  0  0  0  0  0  0  0  0  0  0
  147.9160  138.5115  155.8734 H   0  0  0  0  0  0  0  0  0  0  0  0
  147.5206  135.9784  154.8975 H   0  0  0  0  0  0  0  0  0  0  0  0
  146.1594  137.0408  155.1605 H   0  0  0  0  0  0  0  0  0  0  0  0
  146.8605  135.4850  152.6132 H   0  0  0  0  0  0  0  0  0  0  0  0
  145.5197  135.1529  153.6700 H   0  0  0  0  0  0  0  0  0  0  0  0
  144.9809  136.3592  151.4943 H   0  0  0  0  0  0  0  0  0  0  0  0
  142.2474  138.4166  152.8611 H   0  0  0  0  0  0  0  0  0  0  0  0
  143.4036  138.4964  151.5493 H   0  0  0  0  0  0  0  0  0  0  0  0
  146.8093  137.8245  151.2342 H   0  0  0  0  0  0  0  0  0  0  0  0
  145.4368  138.8643  151.4788 H   0  0  0  0  0  0  0  0  0  0  0  0
  146.1034  139.2731  153.8403 H   0  0  0  0  0  0  0  0  0  0  0  0
  147.4241  139.6161  152.7556 H   0  0  0  0  0  0  0  0  0  0  0  0
  150.6010  143.2681  156.4419 H   0  0  0  0  0  0  0  0  0  0  0  0
  151.9524  145.1147  157.0238 H   0  0  0  0  0  0  0  0  0  0  0  0
  153.5270  144.6616  157.6759 H   0  0  0  0  0  0  0  0  0  0  0  0
  152.2687  145.2947  158.7478 H   0  0  0  0  0  0  0  0  0  0  0  0
  148.3064  137.4413  153.2194 H   0  0  0  0  0  0  0  0  0  0  0  0
  1  2  1  0  0  0  0
  1 25  1  0  0  0  0
  1 26  1  0  0  0  0
  1 27  1  0  0  0  0
  2 23  1  0  0  0  0
  2  3  2  0  0  0  0
  3  4  1  0  0  0  0
  3 28  1  0  0  0  0
  4 21  2  0  0  0  0
  4  5  1  0  0  0  0
  5  6  2  0  0  0  0
  6  7  1  0  0  0  0
  6 29  1  0  0  0  0
  7  8  1  0  0  0  0
  7 21  1  0  0  0  0
  8  9  1  0  0  0  0
  8 30  1  0  0  0  0
  8 31  1  0  0  0  0
  9 10  1  0  0  0  0
  9 11  1  0  0  0  0
  9 32  1  0  0  0  0
 10 33  1  0  0  0  0
 11 12  1  0  0  0  0
 11 34  1  0  0  0  0
 11 35  1  0  0  0  0
 12 20  1  0  0  0  0
 12 13  1  0  0  0  0
 12 51  1  0  0  0  0
 13 14  1  0  0  0  0
 13 36  1  0  0  0  0
 13 37  1  0  0  0  0
 14 15  1  0  0  0  0
 14 38  1  0  0  0  0
 14 39  1  0  0  0  0
 15 16  1  0  0  0  0
 15 19  1  0  0  0  0
 15 40  1  0  0  0  0
 16 17  1  0  0  0  0
 16 18  2  0  0  0  0
 17 41  1  0  0  0  0
 17 42  1  0  0  0  0
 19 20  1  0  0  0  0
 19 43  1  0  0  0  0
 19 44  1  0  0  0  0
 20 45  1  0  0  0  0
 20 46  1  0  0  0  0
 21 22  1  0  0  0  0
 22 23  2  0  0  0  0
 22 47  1  0  0  0  0
 23 24  1  0  0  0  0
 24 48  1  0  0  0  0
 24 49  1  0  0  0  0
 24 50  1  0  0  0  0
M  CHG  1  12   1
M  END
> <s_m_source_file>
AV-unprocessed.smi

> <i_m_source_file_index>
1695

> <i_lp_mmshare_version>
43012

> <i_f3d_flags>
0

> <s_epik_input>
W0NIM11jKFtjSF0xKWMoW0NIM10pW2NIXWMoYzEyKW4oW2NIXW4yKVtDSDJdW0NASF0oW09IXSlbQ0gyXU4zW0NIMl1bQ0gyXVtDSF0oQyg9TylbTkgyXSlbQ0gyXVtDSDJdMw==

> <s_epik_cmdline>
J2VwaWtfcHl0aG9uJywgJy1waCcsICc3LjAnLCAnLXRuJywgJzgnLCAnLW1hJywgJzIwMCcsICctbWV0YWxfYmluZGluZycsICctaW1hZScsICc8aW5maWxlLm1hZT4nLCAnLW9tYWUnLCAnPG91dGZpbGUubWFlPic=

> <r_epik_Ionization_Penalty>
0.113899

> <r_epik_Ionization_Penalty_Charging>
0.0258844

> <r_epik_Ionization_Penalty_Neutral>
0.0880147

> <r_epik_State_Penalty>
0.0974403

> <r_epik_Charging_Adjusted_Penalty>
0.123325

> <i_epik_Tot_Q>
1

> <i_epik_Tot_abs_Q>
1

> <r_epik_Metal_State_Penalty>
0.0851148

> <b_epik_Metal_Only>
0

> <s_lp_Force_Field>
OPLS_2005

> <r_lp_Energy>
15.764

> <b_lp_Chiralities_Consistent>
1

> <s_lp_Variant>
AV-unprocessed.smi:1695-2

> <Gold.Version>
5.8.1

> <Gold.Id.Protein>
6NUR|6NUR_protein|mol2

> <Gold.PLP.Fitness>
51.2031

> <Gold.PLP.PLP>
-40.9922

> <Gold.PLP.part.hbond>
-4.0262

> <Gold.PLP.part.metal>
0.0000

> <Gold.PLP.part.buried>
-2.5708

> <Gold.PLP.part.nonpolar>
-34.4160

> <Gold.PLP.part.repulsive>
0.1372

> <Gold.PLP.ligand.clash>
0.0069

> <Gold.PLP.ligand.torsion>
0.9363

> <Gold.PLP.Chemscore.Hbond>
4.0000

> <Gold.PLP.Chemscore.CHOScore>
0.0000

> <Gold.PLP.Chemscore.Metal>
0.0000

> <Gold.Chemscore.Hbonds>
donor molecule, donor type, donor heavy atom, donor atom, acceptor molecule, acceptor atom, score
      L1  H    12    51       P1  7948  2.00
      L1  H    17    42       P1 10171  1.00
      P1  H  7989  7998       L1    10  1.00

> <Gold.PLP.Chemscore.Internal.Correction>
0.0904

> <Gold.Rescore>
     Score         DG    S(hbond)    S(metal)    S(lipo)     H(rot)  DE(clash)    DE(int)     intcor
     18.50     -20.53       2.74        0.00     112.66       2.85       0.18       1.84       ----

> <Gold.Chemscore.Fitness>
18.5039

> <Gold.Chemscore.DG>
-20.5273

> <Gold.Chemscore.ZeroCoef>
-5.4800

> <Gold.Chemscore.Hbond>
2.7402

> <Gold.Chemscore.Metal>
0.0000

> <Gold.Chemscore.Lipo>
112.6643

> <Gold.Chemscore.Internal_Hbond>
0.0000

> <Gold.Chemscore.DEClash>
0.1848

> <Gold.Chemscore.DEInternal>
1.8385

> <Gold.Chemscore.Rot>
2.8464

> <Gold.Chemscore.Internal.Correction>
   9.000000E+99

> <Gold.Chemscore.Hbonds>
donor molecule, donor type, donor heavy atom, donor atom, acceptor molecule, acceptor atom, score
      L1  H    12    51       P1  7948  0.99
      L1  H    17    42       P1 10171  0.50
      P1  H  7989  7998       L1    10  0.39

> <Gold.Chemscore.Hbond.Weighted>
-9.1522

> <Gold.Chemscore.Metal.Weighted>
-0.0000

> <Gold.Chemscore.Lipo.Weighted>
-13.1817

> <Gold.Chemscore.Internal_Hbond.Weighted>
0.0000

> <Gold.Chemscore.DEClash.Weighted>
0.1848

> <Gold.Chemscore.DEInternal.Weighted>
1.8385

> <Gold.Chemscore.Rot.Weighted>
7.2867

> <Gold.Chemscore.Internal.Correction.Weighted>
   9.000000E+99

> <Gold.Protein.RotatedTorsions>
[ 6907 6896 6895 6894 ] final   52.70 input  -60.11 | X-H torsion
[ 7974 7965 7964 7962 ] final  -52.10 input  175.53 | X-H torsion
[ 8008 7997 7996 7995 ] final  -58.00 input   59.86 | X-H torsion
[ 10167 10162 10161 10158 ] final -175.61 input  -65.29 | X-H torsion
[ 10718 10713 10712 10709 ] final   96.23 input   66.30 | X-H torsion
[ 10763 10752 10751 10750 ] final  152.58 input  -60.55 | X-H torsion
[ 11005 11000 10999 10996 ] final  -42.27 input  -57.11 | X-H torsion

> <Gold.Protein.ActiveResidues>
 VAL166  LYS551  ARG553  GLY616  TRP617  ASP618  TYR619  PRO620  LYS621  CYS622 
 ASP623  PHE694  ASN695  SER759  ASP760  ASP761  ALA762  ILE779  LEU786  VAL792 
 PHE793  MET794  SER795  GLU796  ALA797  LYS798  CYS799  TRP800  GLU811  SER814 

> <Gold.Protein.RotatedAtoms>
  152.3260  134.7320  160.0301 H   0  0  0  0  0  0  0  0  0  0  0  0  # atno 6907 bound_to 6896
  151.7752  133.3339  159.3464 H   0  0  0  0  0  0  0  0  0  0  0  0  # atno 6908 bound_to 6896
  150.7396  134.5913  159.6033 H   0  0  0  0  0  0  0  0  0  0  0  0  # atno 6909 bound_to 6896
  145.9117  140.7909  142.9692 H   0  0  0  0  0  0  0  0  0  0  0  0  # atno 7974 bound_to 7965
  154.4290  140.1094  156.5887 H   0  0  0  0  0  0  0  0  0  0  0  0  # atno 8008 bound_to 7997
  155.6035  140.3493  155.4582 H   0  0  0  0  0  0  0  0  0  0  0  0  # atno 8009 bound_to 7997
  156.0155  140.1228  157.0401 H   0  0  0  0  0  0  0  0  0  0  0  0  # atno 8010 bound_to 7997
  139.5572  144.1960  152.1179 H   0  0  0  0  0  0  0  0  0  0  0  0  # atno 10167 bound_to 10162
  157.6929  131.0571  150.4459 H   0  0  0  0  0  0  0  0  0  0  0  0  # atno 10718 bound_to 10713
  154.1223  135.2832  155.3205 H   0  0  0  0  0  0  0  0  0  0  0  0  # atno 10763 bound_to 10752
  154.6414  135.5401  153.7797 H   0  0  0  0  0  0  0  0  0  0  0  0  # atno 10764 bound_to 10752
  153.0308  135.6487  154.1377 H   0  0  0  0  0  0  0  0  0  0  0  0  # atno 10765 bound_to 10752
  141.0304  133.6823  156.2571 H   0  0  0  0  0  0  0  0  0  0  0  0  # atno 11005 bound_to 11000
  144.6744  140.1836  143.7403 LP  0  0  0  0  0  0  0  0  0  0  0  0  # atno 17320 bound_to 7965
  145.8663  139.2249  143.1687 LP  0  0  0  0  0  0  0  0  0  0  0  0  # atno 17321 bound_to 7965
  140.1466  144.5153  150.6712 LP  0  0  0  0  0  0  0  0  0  0  0  0  # atno 17342 bound_to 10162
  140.6846  143.2344  151.5293 LP  0  0  0  0  0  0  0  0  0  0  0  0  # atno 17343 bound_to 10162
  156.4814  130.4074  149.6459 LP  0  0  0  0  0  0  0  0  0  0  0  0  # atno 17370 bound_to 10713
  156.3503  130.7428  151.2387 LP  0  0  0  0  0  0  0  0  0  0  0  0  # atno 17371 bound_to 10713
  140.6417  134.5159  157.5570 LP  0  0  0  0  0  0  0  0  0  0  0  0  # atno 17394 bound_to 11000
  139.9204  134.8161  156.1231 LP  0  0  0  0  0  0  0  0  0  0  0  0  # atno 17395 bound_to 11000

$$$$
