AV-unprocessed.smi:221|AV-procd|sdf|1690|dock9
  -GOLD-   2262020133D 1   1.00000     0.00000
 Structure written by MMmdl.
 50 53  0  0  0  0  0  0  0  0  1 V2000
  142.2117  134.2974  154.7300 N   0  0  0  0  0  0  0  0  0  0  0  0
  142.2928  135.4213  154.0141 C   0  0  0  0  0  0  0  0  0  0  0  0
  141.5132  136.3583  154.1783 O   0  0  0  0  0  0  0  0  0  0  0  0
  143.4262  135.5027  152.9812 C   0  0  2  0  0  0  0  0  0  0  0  0
  143.3844  134.3290  151.9935 C   0  0  0  0  0  0  0  0  0  0  0  0
  144.8225  134.2449  151.4948 C   0  0  1  0  0  0  0  0  0  0  0  0
  145.0127  135.1434  150.5272 F   0  0  0  0  0  0  0  0  0  0  0  0
  145.6447  134.6346  152.7255 C   0  0  0  0  0  0  0  0  0  0  0  0
  144.7509  135.3940  153.5963 N   0  0  0  0  0  0  0  0  0  0  0  0
  145.2622  136.5363  154.1061 C   0  0  0  0  0  0  0  0  0  0  0  0
  144.5205  137.6621  153.9698 N   0  0  0  0  0  0  0  0  0  0  0  0
  144.9745  138.8226  154.4532 C   0  0  0  0  0  0  0  0  0  0  0  0
  146.1194  139.0702  155.0940 N   0  0  0  0  0  0  0  0  0  0  0  0
  146.8667  137.9374  155.2314 C   0  0  0  0  0  0  0  0  0  0  0  0
  146.5168  136.6376  154.7702 C   0  0  0  0  0  0  0  0  0  0  0  0
  147.5231  135.7334  155.0877 N   0  0  0  0  0  0  0  0  0  0  0  0
  148.4182  136.4576  155.7020 C   0  0  0  0  0  0  0  0  0  0  0  0
  148.1073  137.7925  155.8276 N   0  0  0  0  0  0  0  0  0  0  0  0
  148.9232  138.8127  156.4628 C   0  0  0  0  0  0  0  0  0  0  0  0
  149.7705  139.6271  155.4543 C   0  0  1  0  0  0  0  0  0  0  0  0
  148.9025  140.3401  154.3890 C   0  0  0  0  0  0  0  0  0  0  0  0
  149.6824  140.7801  153.2961 O   0  0  0  0  0  0  0  0  0  0  0  0
  150.7374  140.5997  156.1765 C   0  0  2  0  0  0  0  0  0  0  0  0
  151.5776  139.9708  157.2742 C   0  0  0  0  0  0  0  0  0  0  0  0
  152.0294  141.1889  158.0717 C   0  0  0  0  0  0  0  0  0  0  0  0
  150.9641  142.1269  157.9742 O   0  0  0  0  0  0  0  0  0  0  0  0
  150.0471  141.7193  156.9633 C   0  0  0  0  0  0  0  0  0  0  0  0
  143.3462  136.4399  152.4270 H   0  0  0  0  0  0  0  0  0  0  0  0
  145.0865  133.2672  151.0912 H   0  0  0  0  0  0  0  0  0  0  0  0
  141.4827  134.1963  155.4211 H   0  0  0  0  0  0  0  0  0  0  0  0
  142.8770  133.5531  154.5784 H   0  0  0  0  0  0  0  0  0  0  0  0
  143.1226  133.3997  152.5031 H   0  0  0  0  0  0  0  0  0  0  0  0
  142.6676  134.4808  151.1859 H   0  0  0  0  0  0  0  0  0  0  0  0
  145.9468  133.7391  153.2692 H   0  0  0  0  0  0  0  0  0  0  0  0
  146.5571  135.1675  152.4515 H   0  0  0  0  0  0  0  0  0  0  0  0
  144.3275  139.6746  154.3055 H   0  0  0  0  0  0  0  0  0  0  0  0
  149.3383  136.0362  156.0802 H   0  0  0  0  0  0  0  0  0  0  0  0
  148.2741  139.4752  157.0364 H   0  0  0  0  0  0  0  0  0  0  0  0
  149.5647  138.3115  157.1876 H   0  0  0  0  0  0  0  0  0  0  0  0
  150.3881  138.9093  154.9123 H   0  0  0  0  0  0  0  0  0  0  0  0
  148.1227  139.6768  154.0153 H   0  0  0  0  0  0  0  0  0  0  0  0
  148.3836  141.1981  154.8165 H   0  0  0  0  0  0  0  0  0  0  0  0
  149.6260  140.1357  152.6070 H   0  0  0  0  0  0  0  0  0  0  0  0
  151.4094  141.0563  155.4480 H   0  0  0  0  0  0  0  0  0  0  0  0
  150.9651  139.3201  157.9000 H   0  0  0  0  0  0  0  0  0  0  0  0
  152.4178  139.3888  156.8945 H   0  0  0  0  0  0  0  0  0  0  0  0
  152.2567  140.9479  159.1102 H   0  0  0  0  0  0  0  0  0  0  0  0
  152.9209  141.6278  157.6221 H   0  0  0  0  0  0  0  0  0  0  0  0
  149.7657  142.5610  156.3302 H   0  0  0  0  0  0  0  0  0  0  0  0
  149.1445  141.3505  157.4522 H   0  0  0  0  0  0  0  0  0  0  0  0
  1  2  1  0  0  0  0
  1 30  1  0  0  0  0
  1 31  1  0  0  0  0
  2  3  2  0  0  0  0
  2  4  1  0  0  0  0
  4 28  1  0  0  0  0
  4  9  1  0  0  0  0
  4  5  1  0  0  0  0
  5  6  1  0  0  0  0
  5 32  1  0  0  0  0
  5 33  1  0  0  0  0
  6 29  1  0  0  0  0
  6  7  1  0  0  0  0
  6  8  1  0  0  0  0
  8  9  1  0  0  0  0
  8 34  1  0  0  0  0
  8 35  1  0  0  0  0
  9 10  1  0  0  0  0
 10 15  1  0  0  0  0
 10 11  2  0  0  0  0
 11 12  1  0  0  0  0
 12 13  2  0  0  0  0
 12 36  1  0  0  0  0
 13 14  1  0  0  0  0
 14 18  1  0  0  0  0
 14 15  2  0  0  0  0
 15 16  1  0  0  0  0
 16 17  2  0  0  0  0
 17 18  1  0  0  0  0
 17 37  1  0  0  0  0
 18 19  1  0  0  0  0
 19 20  1  0  0  0  0
 19 38  1  0  0  0  0
 19 39  1  0  0  0  0
 20 21  1  0  0  0  0
 20 23  1  0  0  0  0
 20 40  1  0  0  0  0
 21 22  1  0  0  0  0
 21 41  1  0  0  0  0
 21 42  1  0  0  0  0
 22 43  1  0  0  0  0
 23 27  1  0  0  0  0
 23 24  1  0  0  0  0
 23 44  1  0  0  0  0
 24 25  1  0  0  0  0
 24 45  1  0  0  0  0
 24 46  1  0  0  0  0
 25 26  1  0  0  0  0
 25 47  1  0  0  0  0
 25 48  1  0  0  0  0
 26 27  1  0  0  0  0
 27 49  1  0  0  0  0
 27 50  1  0  0  0  0
M  END
> <s_m_source_file>
AV-unprocessed.smi

> <i_m_source_file_index>
221

> <i_lp_mmshare_version>
43012

> <i_f3d_flags>
0

> <s_epik_input>
W05IMl1DKD1PKVtDQEBIXTFbQ0gyXVtDQEBIXShGKVtDSDJdTjFjKG5bY0hdbjIpYyhjMjMpbltjSF1uM1tDSDJdW0NASF0oW0NIMl1bT0hdKVtDQEBIXTRbQ0gyXVtDSDJdT1tDSDJdNA==

> <s_epik_cmdline>
J2VwaWtfcHl0aG9uJywgJy1waCcsICc3LjAnLCAnLXRuJywgJzgnLCAnLW1hJywgJzIwMCcsICctbWV0YWxfYmluZGluZycsICctaW1hZScsICc8aW5maWxlLm1hZT4nLCAnLW9tYWUnLCAnPG91dGZpbGUubWFlPic=

> <r_lp_tautomer_probability>
1

> <r_epik_Ionization_Penalty>
0.000818822

> <r_epik_Ionization_Penalty_Charging>
0

> <r_epik_Ionization_Penalty_Neutral>
0.000818822

> <r_epik_State_Penalty>
0.000440551

> <r_epik_Charging_Adjusted_Penalty>
0.000440551

> <i_epik_Tot_Q>
0

> <i_epik_Tot_abs_Q>
0

> <r_epik_Metal_State_Penalty>
-0

> <b_epik_Metal_Only>
0

> <s_lp_Force_Field>
OPLS_2005

> <r_lp_Energy>
51.1408

> <b_lp_Chiralities_Consistent>
1

> <s_lp_Variant>
AV-unprocessed.smi:221-5

> <Gold.Version>
5.8.1

> <Gold.Id.Protein>
6NUR|6NUR_protein|mol2

> <Gold.PLP.Fitness>
40.8642

> <Gold.PLP.PLP>
-28.6046

> <Gold.PLP.part.hbond>
-4.0398

> <Gold.PLP.part.metal>
0.0000

> <Gold.PLP.part.buried>
-3.7473

> <Gold.PLP.part.nonpolar>
-21.3399

> <Gold.PLP.part.repulsive>
0.4469

> <Gold.PLP.ligand.clash>
0.0000

> <Gold.PLP.ligand.torsion>
0.5561

> <Gold.PLP.Chemscore.Hbond>
3.4770

> <Gold.PLP.Chemscore.CHOScore>
0.8781

> <Gold.PLP.Chemscore.Metal>
0.0000

> <Gold.Chemscore.Hbonds>
donor molecule, donor type, donor heavy atom, donor atom, acceptor molecule, acceptor atom, score
      L1  H     1    30       P1 11000  1.00
      L1  H     1    31       P1 10957  0.58
      L1  H    22    43       P1  7957  0.64
      P1  H  7989  7998       L1    22  0.26
      P1  H  8011  8017       L1    22  1.00
      L1  C    12    36       P1 10175  0.96

> <Gold.PLP.Chemscore.Internal.Correction>
0.3063

> <Gold.Rescore>
     Score         DG    S(hbond)    S(metal)    S(lipo)     H(rot)  DE(clash)    DE(int)     intcor
     10.45     -11.19       2.66        0.00      54.22       3.72       0.02       0.73       ----

> <Gold.Chemscore.Fitness>
10.4473

> <Gold.Chemscore.DG>
-11.1949

> <Gold.Chemscore.ZeroCoef>
-5.4800

> <Gold.Chemscore.Hbond>
2.6630

> <Gold.Chemscore.Metal>
0.0000

> <Gold.Chemscore.Lipo>
54.2246

> <Gold.Chemscore.Internal_Hbond>
0.0000

> <Gold.Chemscore.DEClash>
0.0153

> <Gold.Chemscore.DEInternal>
0.7323

> <Gold.Chemscore.Rot>
3.7202

> <Gold.Chemscore.Internal.Correction>
   9.000000E+99

> <Gold.Chemscore.Hbonds>
donor molecule, donor type, donor heavy atom, donor atom, acceptor molecule, acceptor atom, score
      L1  H     1    30       P1 11000  0.35
      L1  H     1    31       P1 10957  0.58
      L1  H    22    43       P1  7957  0.63
      P1  H  7989  7998       L1    22  0.06
      P1  H  8011  8017       L1    22  0.35

> <Gold.Chemscore.Hbond.Weighted>
-8.8944

> <Gold.Chemscore.Metal.Weighted>
-0.0000

> <Gold.Chemscore.Lipo.Weighted>
-6.3443

> <Gold.Chemscore.Internal_Hbond.Weighted>
0.0000

> <Gold.Chemscore.DEClash.Weighted>
0.0153

> <Gold.Chemscore.DEInternal.Weighted>
0.7323

> <Gold.Chemscore.Rot.Weighted>
9.5237

> <Gold.Chemscore.Internal.Correction.Weighted>
   9.000000E+99

> <Gold.Protein.RotatedTorsions>
[ 6907 6896 6895 6894 ] final  119.21 input  -60.11 | X-H torsion
[ 7974 7965 7964 7962 ] final  109.14 input  175.53 | X-H torsion
[ 8008 7997 7996 7995 ] final  102.81 input   59.86 | X-H torsion
[ 10167 10162 10161 10158 ] final -114.27 input  -65.29 | X-H torsion
[ 10718 10713 10712 10709 ] final   46.76 input   66.30 | X-H torsion
[ 10763 10752 10751 10750 ] final  154.14 input  -60.55 | X-H torsion
[ 11005 11000 10999 10996 ] final  112.52 input  -57.11 | X-H torsion

> <Gold.Protein.ActiveResidues>
 VAL166  LYS551  ARG553  GLY616  TRP617  ASP618  TYR619  PRO620  LYS621  CYS622 
 ASP623  PHE694  ASN695  SER759  ASP760  ASP761  ALA762  ILE779  LEU786  VAL792 
 PHE793  MET794  SER795  GLU796  ALA797  LYS798  CYS799  TRP800  GLU811  SER814 

> <Gold.Protein.RotatedAtoms>
  152.4488  133.7589  159.6735 H   0  0  0  0  0  0  0  0  0  0  0  0  # atno 6907 bound_to 6896
  150.8395  133.7949  159.3072 H   0  0  0  0  0  0  0  0  0  0  0  0  # atno 6908 bound_to 6896
  151.5578  135.1069  160.0017 H   0  0  0  0  0  0  0  0  0  0  0  0  # atno 6909 bound_to 6896
  145.2716  139.2664  143.3963 H   0  0  0  0  0  0  0  0  0  0  0  0  # atno 7974 bound_to 7965
  156.1427  140.3175  155.8521 H   0  0  0  0  0  0  0  0  0  0  0  0  # atno 8008 bound_to 7997
  155.4123  140.0506  157.3048 H   0  0  0  0  0  0  0  0  0  0  0  0  # atno 8009 bound_to 7997
  154.4990  140.2122  155.9398 H   0  0  0  0  0  0  0  0  0  0  0  0  # atno 8010 bound_to 7997
  140.1028  143.4597  152.1801 H   0  0  0  0  0  0  0  0  0  0  0  0  # atno 10167 bound_to 10162
  157.4514  130.8141  149.7793 H   0  0  0  0  0  0  0  0  0  0  0  0  # atno 10718 bound_to 10713
  154.1475  135.2817  155.3144 H   0  0  0  0  0  0  0  0  0  0  0  0  # atno 10763 bound_to 10752
  154.6242  135.5457  153.7612 H   0  0  0  0  0  0  0  0  0  0  0  0  # atno 10764 bound_to 10752
  153.0231  135.6446  154.1620 H   0  0  0  0  0  0  0  0  0  0  0  0  # atno 10765 bound_to 10752
  139.8929  134.9531  156.6598 H   0  0  0  0  0  0  0  0  0  0  0  0  # atno 11005 bound_to 11000
  146.3244  140.3160  142.8630 LP  0  0  0  0  0  0  0  0  0  0  0  0  # atno 17320 bound_to 7965
  144.9330  140.7996  143.5677 LP  0  0  0  0  0  0  0  0  0  0  0  0  # atno 17321 bound_to 7965
  139.5662  144.7436  151.4017 LP  0  0  0  0  0  0  0  0  0  0  0  0  # atno 17342 bound_to 10162
  140.6968  143.7729  150.7340 LP  0  0  0  0  0  0  0  0  0  0  0  0  # atno 17343 bound_to 10162
  155.9989  130.3892  150.2685 LP  0  0  0  0  0  0  0  0  0  0  0  0  # atno 17370 bound_to 10713
  157.0857  131.0155  151.3140 LP  0  0  0  0  0  0  0  0  0  0  0  0  # atno 17371 bound_to 10713
  140.7456  133.8941  155.8309 LP  0  0  0  0  0  0  0  0  0  0  0  0  # atno 17394 bound_to 11000
  141.0042  134.1108  157.4287 LP  0  0  0  0  0  0  0  0  0  0  0  0  # atno 17395 bound_to 11000

$$$$
