AV-unprocessed.smi:197|AV-procd|sdf|1546|dock1
  -GOLD-   2262019403D 1   1.00000     0.00000
 Structure written by MMmdl.
 54 57  0  0  0  0  0  0  0  0  1 V2000
  151.9041  139.7936  156.0991 C   0  0  0  0  0  0  0  0  0  0  0  0
  152.1406  139.2500  154.8099 O   0  0  0  0  0  0  0  0  0  0  0  0
  151.4588  138.0289  154.5527 C   0  0  0  0  0  0  0  0  0  0  0  0
  149.9938  138.0538  155.0301 C   0  0  0  0  0  0  0  0  0  0  0  0
  149.0750  139.0200  154.2359 C   0  0  2  0  0  0  0  0  0  0  0  0
  149.5511  140.4862  154.3673 C   0  0  0  0  0  0  0  0  0  0  0  0
  148.6808  141.3608  153.6576 O   0  0  0  0  0  0  0  0  0  0  0  0
  147.3547  141.3201  154.1671 C   0  0  0  0  0  0  0  0  0  0  0  0
  146.8008  139.8990  154.0008 C   0  0  0  0  0  0  0  0  0  0  0  0
  147.6724  138.9367  154.6645 N   0  0  0  0  0  0  0  0  0  0  0  0
  147.1092  137.7075  154.6713 C   0  0  0  0  0  0  0  0  0  0  0  0
  147.3151  136.9440  155.7721 N   0  0  0  0  0  0  0  0  0  0  0  0
  146.7984  135.7135  155.8375 C   0  0  0  0  0  0  0  0  0  0  0  0
  146.0613  135.0679  154.9312 N   0  0  0  0  0  0  0  0  0  0  0  0
  145.8466  135.8372  153.8255 C   0  0  0  0  0  0  0  0  0  0  0  0
  146.3224  137.1621  153.6169 C   0  0  0  0  0  0  0  0  0  0  0  0
  145.8909  137.6309  152.3822 N   0  0  0  0  0  0  0  0  0  0  0  0
  145.2148  136.6337  151.8815 C   0  0  0  0  0  0  0  0  0  0  0  0
  145.1467  135.5118  152.6766 N   0  0  0  0  0  0  0  0  0  0  0  0
  144.4711  134.2627  152.3607 C   0  0  0  0  0  0  0  0  0  0  0  0
  145.1031  133.5012  151.1693 C   0  0  2  0  0  0  0  0  0  0  0  0
  146.5130  133.6251  151.2584 O   0  0  0  0  0  0  0  0  0  0  0  0
  144.6580  134.0736  149.8187 C   0  0  0  0  0  0  0  0  0  0  0  0
  143.8067  132.9672  149.2065 C   0  0  0  0  0  0  0  0  0  0  0  0
  144.4104  131.7891  149.7089 O   0  0  0  0  0  0  0  0  0  0  0  0
  144.6691  132.0143  151.0866 C   0  0  1  0  0  0  0  0  0  0  0  0
  145.6471  130.9622  151.6346 C   0  0  0  0  0  0  0  0  0  0  0  0
  152.3995  140.7609  156.1806 H   0  0  0  0  0  0  0  0  0  0  0  0
  152.3037  139.1552  156.8853 H   0  0  0  0  0  0  0  0  0  0  0  0
  150.8393  139.9468  156.2776 H   0  0  0  0  0  0  0  0  0  0  0  0
  151.5063  137.7901  153.4892 H   0  0  0  0  0  0  0  0  0  0  0  0
  152.0001  137.2297  155.0578 H   0  0  0  0  0  0  0  0  0  0  0  0
  149.6125  137.0343  154.9861 H   0  0  0  0  0  0  0  0  0  0  0  0
  149.9698  138.3222  156.0868 H   0  0  0  0  0  0  0  0  0  0  0  0
  149.1198  138.7545  153.1800 H   0  0  0  0  0  0  0  0  0  0  0  0
  149.6066  140.7878  155.4146 H   0  0  0  0  0  0  0  0  0  0  0  0
  150.5492  140.6074  153.9484 H   0  0  0  0  0  0  0  0  0  0  0  0
  147.3412  141.6265  155.2142 H   0  0  0  0  0  0  0  0  0  0  0  0
  146.7394  142.0317  153.6167 H   0  0  0  0  0  0  0  0  0  0  0  0
  145.7944  139.8450  154.4191 H   0  0  0  0  0  0  0  0  0  0  0  0
  146.7232  139.6534  152.9406 H   0  0  0  0  0  0  0  0  0  0  0  0
  147.0084  135.1662  156.7445 H   0  0  0  0  0  0  0  0  0  0  0  0
  144.7503  136.6859  150.9075 H   0  0  0  0  0  0  0  0  0  0  0  0
  144.4759  133.6344  153.2526 H   0  0  0  0  0  0  0  0  0  0  0  0
  143.4236  134.4866  152.1536 H   0  0  0  0  0  0  0  0  0  0  0  0
  146.8708  132.7836  151.4972 H   0  0  0  0  0  0  0  0  0  0  0  0
  144.1070  135.0109  149.9046 H   0  0  0  0  0  0  0  0  0  0  0  0
  145.5142  134.2618  149.1686 H   0  0  0  0  0  0  0  0  0  0  0  0
  142.7742  133.0291  149.5540 H   0  0  0  0  0  0  0  0  0  0  0  0
  143.8067  132.9883  148.1165 H   0  0  0  0  0  0  0  0  0  0  0  0
  143.7116  131.8913  151.5939 H   0  0  0  0  0  0  0  0  0  0  0  0
  145.8527  131.1305  152.6910 H   0  0  0  0  0  0  0  0  0  0  0  0
  146.5958  130.9721  151.0981 H   0  0  0  0  0  0  0  0  0  0  0  0
  145.2273  129.9609  151.5378 H   0  0  0  0  0  0  0  0  0  0  0  0
  1  2  1  0  0  0  0
  1 28  1  0  0  0  0
  1 29  1  0  0  0  0
  1 30  1  0  0  0  0
  2  3  1  0  0  0  0
  3  4  1  0  0  0  0
  3 31  1  0  0  0  0
  3 32  1  0  0  0  0
  4  5  1  0  0  0  0
  4 33  1  0  0  0  0
  4 34  1  0  0  0  0
  5 10  1  0  0  0  0
  5  6  1  0  0  0  0
  5 35  1  0  0  0  0
  6  7  1  0  0  0  0
  6 36  1  0  0  0  0
  6 37  1  0  0  0  0
  7  8  1  0  0  0  0
  8  9  1  0  0  0  0
  8 38  1  0  0  0  0
  8 39  1  0  0  0  0
  9 10  1  0  0  0  0
  9 40  1  0  0  0  0
  9 41  1  0  0  0  0
 10 11  1  0  0  0  0
 11 16  1  0  0  0  0
 11 12  2  0  0  0  0
 12 13  1  0  0  0  0
 13 14  2  0  0  0  0
 13 42  1  0  0  0  0
 14 15  1  0  0  0  0
 15 19  1  0  0  0  0
 15 16  2  0  0  0  0
 16 17  1  0  0  0  0
 17 18  2  0  0  0  0
 18 19  1  0  0  0  0
 18 43  1  0  0  0  0
 19 20  1  0  0  0  0
 20 21  1  0  0  0  0
 20 44  1  0  0  0  0
 20 45  1  0  0  0  0
 21 26  1  0  0  0  0
 21 22  1  0  0  0  0
 21 23  1  0  0  0  0
 22 46  1  0  0  0  0
 23 24  1  0  0  0  0
 23 47  1  0  0  0  0
 23 48  1  0  0  0  0
 24 25  1  0  0  0  0
 24 49  1  0  0  0  0
 24 50  1  0  0  0  0
 25 26  1  0  0  0  0
 26 27  1  0  0  0  0
 26 51  1  0  0  0  0
 27 52  1  0  0  0  0
 27 53  1  0  0  0  0
 27 54  1  0  0  0  0
M  END
> <s_m_source_file>
AV-unprocessed.smi

> <i_m_source_file_index>
197

> <i_lp_mmshare_version>
43012

> <i_f3d_flags>
0

> <s_epik_input>
W0NIM11PW0NIMl1bQ0gyXVtDQEBIXTFbQ0gyXU9bQ0gyXVtDSDJdTjFjKG5bY0hdbjIpYyhjMjMpbltjSF1uM1tDSDJdW0NAQF00KFtPSF0pW0NIMl1bQ0gyXU9bQ0BIXTRbQ0gzXQ==

> <s_epik_cmdline>
J2VwaWtfcHl0aG9uJywgJy1waCcsICc3LjAnLCAnLXRuJywgJzgnLCAnLW1hJywgJzIwMCcsICctbWV0YWxfYmluZGluZycsICctaW1hZScsICc8aW5maWxlLm1hZT4nLCAnLW9tYWUnLCAnPG91dGZpbGUubWFlPic=

> <r_lp_tautomer_probability>
1

> <r_epik_Ionization_Penalty>
0.000106218

> <r_epik_Ionization_Penalty_Charging>
0

> <r_epik_Ionization_Penalty_Neutral>
0.000106218

> <r_epik_State_Penalty>
-0

> <r_epik_Charging_Adjusted_Penalty>
0

> <i_epik_Tot_Q>
0

> <i_epik_Tot_abs_Q>
0

> <r_epik_Metal_State_Penalty>
-0

> <b_epik_Metal_Only>
0

> <s_lp_Force_Field>
OPLS_2005

> <r_lp_Energy>
42.2513

> <b_lp_Chiralities_Consistent>
1

> <s_lp_Variant>
AV-unprocessed.smi:197-3

> <Gold.Version>
5.8.1

> <Gold.Id.Protein>
6NUR|6NUR_protein|mol2

> <Gold.PLP.Fitness>
42.1808

> <Gold.PLP.PLP>
-35.3056

> <Gold.PLP.part.hbond>
-3.0000

> <Gold.PLP.part.metal>
0.0000

> <Gold.PLP.part.buried>
-1.2797

> <Gold.PLP.part.nonpolar>
-31.7035

> <Gold.PLP.part.repulsive>
1.6354

> <Gold.PLP.ligand.clash>
0.0000

> <Gold.PLP.ligand.torsion>
1.0558

> <Gold.PLP.Chemscore.Hbond>
1.8874

> <Gold.PLP.Chemscore.CHOScore>
0.9854

> <Gold.PLP.Chemscore.Metal>
0.0000

> <Gold.Chemscore.Hbonds>
donor molecule, donor type, donor heavy atom, donor atom, acceptor molecule, acceptor atom, score
      P1  H  7989  7998       L1     2  0.66
      P1  H  8011  8017       L1     7  0.80
      P1  H 10785 10796       L1    25  0.25
      L1  C    18    43       P1 10171  0.97

> <Gold.PLP.Chemscore.Internal.Correction>
0.3685

> <Gold.Rescore>
     Score         DG    S(hbond)    S(metal)    S(lipo)     H(rot)  DE(clash)    DE(int)     intcor
      8.06     -11.55       0.83        0.00      90.23       2.84       0.37       3.13       ----

> <Gold.Chemscore.Fitness>
8.0560

> <Gold.Chemscore.DG>
-11.5499

> <Gold.Chemscore.ZeroCoef>
-5.4800

> <Gold.Chemscore.Hbond>
0.8300

> <Gold.Chemscore.Metal>
0.0000

> <Gold.Chemscore.Lipo>
90.2317

> <Gold.Chemscore.Internal_Hbond>
0.0000

> <Gold.Chemscore.DEClash>
0.3653

> <Gold.Chemscore.DEInternal>
3.1286

> <Gold.Chemscore.Rot>
2.8358

> <Gold.Chemscore.Internal.Correction>
   9.000000E+99

> <Gold.Chemscore.Hbonds>
donor molecule, donor type, donor heavy atom, donor atom, acceptor molecule, acceptor atom, score
      P1  H  7989  7998       L1     2  0.26
      P1  H  8011  8017       L1     7  0.52
      P1  H 10785 10796       L1    25  0.11

> <Gold.Chemscore.Hbond.Weighted>
-2.7723

> <Gold.Chemscore.Metal.Weighted>
-0.0000

> <Gold.Chemscore.Lipo.Weighted>
-10.5571

> <Gold.Chemscore.Internal_Hbond.Weighted>
0.0000

> <Gold.Chemscore.DEClash.Weighted>
0.3653

> <Gold.Chemscore.DEInternal.Weighted>
3.1286

> <Gold.Chemscore.Rot.Weighted>
7.2596

> <Gold.Chemscore.Internal.Correction.Weighted>
   9.000000E+99

> <Gold.Protein.RotatedTorsions>
[ 6907 6896 6895 6894 ] final  157.18 input  -60.11 | X-H torsion
[ 7974 7965 7964 7962 ] final -154.11 input  175.53 | X-H torsion
[ 8008 7997 7996 7995 ] final   57.18 input   59.86 | X-H torsion
[ 10167 10162 10161 10158 ] final  148.12 input  -65.29 | X-H torsion
[ 10718 10713 10712 10709 ] final  163.01 input   66.30 | X-H torsion
[ 10763 10752 10751 10750 ] final   85.70 input  -60.55 | X-H torsion
[ 11005 11000 10999 10996 ] final   19.44 input  -57.11 | X-H torsion

> <Gold.Protein.ActiveResidues>
 VAL166  LYS551  ARG553  GLY616  TRP617  ASP618  TYR619  PRO620  LYS621  CYS622 
 ASP623  PHE694  ASN695  SER759  ASP760  ASP761  ALA762  ILE779  LEU786  VAL792 
 PHE793  MET794  SER795  GLU796  ALA797  LYS798  CYS799  TRP800  GLU811  SER814 

> <Gold.Protein.RotatedAtoms>
  152.0189  133.3891  159.4249 H   0  0  0  0  0  0  0  0  0  0  0  0  # atno 6907 bound_to 6896
  150.6892  134.3648  159.4975 H   0  0  0  0  0  0  0  0  0  0  0  0  # atno 6908 bound_to 6896
  152.1419  134.9056  160.0604 H   0  0  0  0  0  0  0  0  0  0  0  0  # atno 6909 bound_to 6896
  144.7706  140.4433  143.5910 H   0  0  0  0  0  0  0  0  0  0  0  0  # atno 7974 bound_to 7965
  155.5296  140.3482  155.4423 H   0  0  0  0  0  0  0  0  0  0  0  0  # atno 8008 bound_to 7997
  156.0727  140.1367  156.9835 H   0  0  0  0  0  0  0  0  0  0  0  0  # atno 8009 bound_to 7997
  154.4537  140.0962  156.6668 H   0  0  0  0  0  0  0  0  0  0  0  0  # atno 8010 bound_to 7997
  139.4879  144.5703  151.7067 H   0  0  0  0  0  0  0  0  0  0  0  0  # atno 10167 bound_to 10162
  157.1144  131.0476  151.2443 H   0  0  0  0  0  0  0  0  0  0  0  0  # atno 10718 bound_to 10713
  153.1500  135.4607  154.9623 H   0  0  0  0  0  0  0  0  0  0  0  0  # atno 10763 bound_to 10752
  154.7817  135.3190  154.7977 H   0  0  0  0  0  0  0  0  0  0  0  0  # atno 10764 bound_to 10752
  153.8484  135.6923  153.4849 H   0  0  0  0  0  0  0  0  0  0  0  0  # atno 10765 bound_to 10752
  140.4137  134.1592  155.7668 H   0  0  0  0  0  0  0  0  0  0  0  0  # atno 11005 bound_to 11000
  145.6336  139.1540  143.2955 LP  0  0  0  0  0  0  0  0  0  0  0  0  # atno 17320 bound_to 7965
  146.1849  140.6438  142.9172 LP  0  0  0  0  0  0  0  0  0  0  0  0  # atno 17321 bound_to 7965
  140.5289  144.0761  150.6047 LP  0  0  0  0  0  0  0  0  0  0  0  0  # atno 17342 bound_to 10162
  140.3745  143.2836  152.0241 LP  0  0  0  0  0  0  0  0  0  0  0  0  # atno 17343 bound_to 10162
  157.4531  130.7610  149.7169 LP  0  0  0  0  0  0  0  0  0  0  0  0  # atno 17370 bound_to 10713
  155.9843  130.3993  150.3320 LP  0  0  0  0  0  0  0  0  0  0  0  0  # atno 17371 bound_to 10713
  141.1811  133.8411  157.1253 LP  0  0  0  0  0  0  0  0  0  0  0  0  # atno 17394 bound_to 11000
  140.0249  134.9928  157.0666 LP  0  0  0  0  0  0  0  0  0  0  0  0  # atno 17395 bound_to 11000

$$$$
