AV-unprocessed.smi:1405|AV-procd|sdf|5708|dock10
  -GOLD-   22720 5343D 1   1.00000     0.00000
 Structure written by MMmdl.
 48 51  0  0  0  0  0  0  0  0  2 V2000
  146.5623  137.4399  160.7680 O   0  0  0  0  0  0  0  0  0  0  0  0
  147.3776  136.5329  160.9325 C   0  0  0  0  0  0  0  0  0  0  0  0
  147.2934  135.6723  162.2057 C   0  0  0  0  0  0  0  0  0  0  0  0
  146.7074  134.3332  162.0101 N   0  0  0  0  0  0  0  0  0  0  0  0
  147.5732  133.3005  161.6087 C   0  0  0  0  0  0  0  0  0  0  0  0
  147.1317  132.0474  161.3892 C   0  0  0  0  0  0  0  0  0  0  0  0
  145.7130  131.7726  161.5786 C   0  0  0  0  0  0  0  0  0  0  0  0
  145.2919  130.6344  161.3820 O   0  0  0  0  0  0  0  0  0  0  0  0
  144.9128  132.8078  161.9681 N   0  5  0  0  0  0  0  0  0  0  0  0
  145.3754  134.0780  162.1856 C   0  0  0  0  0  0  0  0  0  0  0  0
  144.6338  135.0002  162.5252 O   0  0  0  0  0  0  0  0  0  0  0  0
  148.3549  136.2660  160.0515 N   0  0  0  0  0  0  0  0  0  0  0  0
  148.5951  136.9895  158.8117 C   0  0  0  0  0  0  0  0  0  0  0  0
  150.0977  137.2934  158.6643 C   0  0  0  0  0  0  0  0  0  0  0  0
  150.4774  138.4267  157.6774 C   0  0  0  0  0  0  0  0  0  0  0  0
  150.4855  137.9207  156.2091 C   0  0  0  0  0  0  0  0  0  0  0  0
  150.8078  139.0797  155.2412 C   0  0  2  0  0  0  0  0  0  0  0  0
  152.1960  139.6627  155.5797 C   0  0  0  0  0  0  0  0  0  0  0  0
  152.1856  140.1956  157.0286 C   0  0  1  0  0  0  0  0  0  0  0  0
  151.1176  141.2999  157.1660 C   0  0  0  0  0  0  0  0  0  0  0  0
  149.7343  140.7105  156.8238 C   0  0  1  0  0  0  0  0  0  0  0  0
  149.7372  140.1818  155.3751 C   0  0  0  0  0  0  0  0  0  0  0  0
  149.4146  139.5531  157.7930 C   0  0  0  0  0  0  0  0  0  0  0  0
  151.8670  139.0394  158.0018 C   0  0  0  0  0  0  0  0  0  0  0  0
  148.2994  135.5781  162.6166 H   0  0  0  0  0  0  0  0  0  0  0  0
  146.7338  136.2265  162.9610 H   0  0  0  0  0  0  0  0  0  0  0  0
  148.6065  133.5899  161.4848 H   0  0  0  0  0  0  0  0  0  0  0  0
  147.8099  131.2666  161.0779 H   0  0  0  0  0  0  0  0  0  0  0  0
  148.9774  135.4986  160.2613 H   0  0  0  0  0  0  0  0  0  0  0  0
  148.2434  136.3965  157.9667 H   0  0  0  0  0  0  0  0  0  0  0  0
  148.0068  137.9061  158.8366 H   0  0  0  0  0  0  0  0  0  0  0  0
  150.5024  137.5372  159.6479 H   0  0  0  0  0  0  0  0  0  0  0  0
  150.6013  136.3744  158.3599 H   0  0  0  0  0  0  0  0  0  0  0  0
  151.2253  137.1317  156.0751 H   0  0  0  0  0  0  0  0  0  0  0  0
  149.5201  137.4813  155.9544 H   0  0  0  0  0  0  0  0  0  0  0  0
  150.8127  138.7041  154.2176 H   0  0  0  0  0  0  0  0  0  0  0  0
  152.9653  138.8981  155.4633 H   0  0  0  0  0  0  0  0  0  0  0  0
  152.4492  140.4632  154.8835 H   0  0  0  0  0  0  0  0  0  0  0  0
  153.1654  140.6098  157.2678 H   0  0  0  0  0  0  0  0  0  0  0  0
  151.1175  141.7021  158.1799 H   0  0  0  0  0  0  0  0  0  0  0  0
  151.3477  142.1348  156.5031 H   0  0  0  0  0  0  0  0  0  0  0  0
  148.9753  141.4869  156.9240 H   0  0  0  0  0  0  0  0  0  0  0  0
  149.9407  140.9942  154.6762 H   0  0  0  0  0  0  0  0  0  0  0  0
  148.7541  139.7884  155.1134 H   0  0  0  0  0  0  0  0  0  0  0  0
  148.4204  139.1587  157.5788 H   0  0  0  0  0  0  0  0  0  0  0  0
  149.3758  139.9326  158.8152 H   0  0  0  0  0  0  0  0  0  0  0  0
  151.8919  139.4001  159.0311 H   0  0  0  0  0  0  0  0  0  0  0  0
  152.6503  138.2854  157.9224 H   0  0  0  0  0  0  0  0  0  0  0  0
  1  2  2  0  0  0  0
  2  3  1  0  0  0  0
  2 12  1  0  0  0  0
  3  4  1  0  0  0  0
  3 25  1  0  0  0  0
  3 26  1  0  0  0  0
  4 10  1  0  0  0  0
  4  5  1  0  0  0  0
  5  6  2  0  0  0  0
  5 27  1  0  0  0  0
  6  7  1  0  0  0  0
  6 28  1  0  0  0  0
  7  8  2  0  0  0  0
  7  9  1  0  0  0  0
  9 10  1  0  0  0  0
 10 11  2  0  0  0  0
 12 13  1  0  0  0  0
 12 29  1  0  0  0  0
 13 14  1  0  0  0  0
 13 30  1  0  0  0  0
 13 31  1  0  0  0  0
 14 15  1  0  0  0  0
 14 32  1  0  0  0  0
 14 33  1  0  0  0  0
 15 23  1  0  0  0  0
 15 24  1  0  0  0  0
 15 16  1  0  0  0  0
 16 17  1  0  0  0  0
 16 34  1  0  0  0  0
 16 35  1  0  0  0  0
 17 22  1  0  0  0  0
 17 18  1  0  0  0  0
 17 36  1  0  0  0  0
 18 19  1  0  0  0  0
 18 37  1  0  0  0  0
 18 38  1  0  0  0  0
 19 20  1  0  0  0  0
 19 24  1  0  0  0  0
 19 39  1  0  0  0  0
 20 21  1  0  0  0  0
 20 40  1  0  0  0  0
 20 41  1  0  0  0  0
 21 22  1  0  0  0  0
 21 23  1  0  0  0  0
 21 42  1  0  0  0  0
 22 43  1  0  0  0  0
 22 44  1  0  0  0  0
 23 45  1  0  0  0  0
 23 46  1  0  0  0  0
 24 47  1  0  0  0  0
 24 48  1  0  0  0  0
M  CHG  1   9  -1
M  END
> <s_m_source_file>
AV-unprocessed.smi

> <i_m_source_file_index>
1405

> <i_lp_mmshare_version>
43012

> <i_f3d_flags>
0

> <s_epik_input>
Tz1jMVtuSF1jKD1PKVtjSF1bY0hdbjFbQ0gyXUMoPU8pW05IXVtDSDJdW0NIMl1DMjNbQ0gyXVtDQEBIXTRbQ0gyXVtDQEhdKFtDSDJdMylbQ0gyXVtDQEBIXShbQ0gyXTQpW0NIMl0y

> <s_epik_cmdline>
J2VwaWtfcHl0aG9uJywgJy1waCcsICc3LjAnLCAnLXRuJywgJzgnLCAnLW1hJywgJzIwMCcsICctbWV0YWxfYmluZGluZycsICctaW1hZScsICc8aW5maWxlLm1hZT4nLCAnLW9tYWUnLCAnPG91dGZpbGUubWFlPic=

> <r_lp_tautomer_probability>
0.999537

> <r_epik_Ionization_Penalty>
3.12935

> <r_epik_Ionization_Penalty_Charging>
2.8866e-08

> <r_epik_Ionization_Penalty_Neutral>
3.12935

> <r_epik_State_Penalty>
3.12845

> <r_epik_Charging_Adjusted_Penalty>
3.12845

> <i_epik_Tot_Q>
-1

> <i_epik_Tot_abs_Q>
1

> <r_epik_Metal_State_Penalty>
0.464346

> <b_epik_Metal_Only>
1

> <s_lp_Force_Field>
OPLS_2005

> <r_lp_Energy>
42.9683

> <b_lp_Chiralities_Consistent>
1

> <s_lp_Variant>
AV-unprocessed.smi:1405-2

> <Gold.Version>
5.8.1

> <Gold.Id.Protein>
6NUR|6NUR_protein|mol2

> <Gold.PLP.Fitness>
40.3657

> <Gold.PLP.PLP>
-39.5419

> <Gold.PLP.part.hbond>
-1.0000

> <Gold.PLP.part.metal>
0.0000

> <Gold.PLP.part.buried>
-5.4415

> <Gold.PLP.part.nonpolar>
-33.2267

> <Gold.PLP.part.repulsive>
0.4042

> <Gold.PLP.ligand.clash>
0.0000

> <Gold.PLP.ligand.torsion>
1.1023

> <Gold.PLP.Chemscore.Hbond>
1.0000

> <Gold.PLP.Chemscore.CHOScore>
0.0000

> <Gold.PLP.Chemscore.Metal>
0.0000

> <Gold.Chemscore.Hbonds>
donor molecule, donor type, donor heavy atom, donor atom, acceptor molecule, acceptor atom, score
      P1  H  6934  6947       L1     1  1.00

> <Gold.PLP.Chemscore.Internal.Correction>
0.0284

> <Gold.Rescore>
     Score         DG    S(hbond)    S(metal)    S(lipo)     H(rot)  DE(clash)    DE(int)     intcor
     11.83     -12.89       0.98        0.00      81.75       2.12       0.11       0.95       ----

> <Gold.Chemscore.Fitness>
11.8334

> <Gold.Chemscore.DG>
-12.8926

> <Gold.Chemscore.ZeroCoef>
-5.4800

> <Gold.Chemscore.Hbond>
0.9818

> <Gold.Chemscore.Metal>
0.0000

> <Gold.Chemscore.Lipo>
81.7493

> <Gold.Chemscore.Internal_Hbond>
0.0000

> <Gold.Chemscore.DEClash>
0.1057

> <Gold.Chemscore.DEInternal>
0.9534

> <Gold.Chemscore.Rot>
2.1216

> <Gold.Chemscore.Internal.Correction>
   9.000000E+99

> <Gold.Chemscore.Hbonds>
donor molecule, donor type, donor heavy atom, donor atom, acceptor molecule, acceptor atom, score
      P1  H  6934  6947       L1     1  0.93

> <Gold.Chemscore.Hbond.Weighted>
-3.2793

> <Gold.Chemscore.Metal.Weighted>
-0.0000

> <Gold.Chemscore.Lipo.Weighted>
-9.5647

> <Gold.Chemscore.Internal_Hbond.Weighted>
0.0000

> <Gold.Chemscore.DEClash.Weighted>
0.1057

> <Gold.Chemscore.DEInternal.Weighted>
0.9534

> <Gold.Chemscore.Rot.Weighted>
5.4314

> <Gold.Chemscore.Internal.Correction.Weighted>
   9.000000E+99

> <Gold.Protein.RotatedTorsions>
[ 6907 6896 6895 6894 ] final   30.87 input  -60.11 | X-H torsion
[ 7974 7965 7964 7962 ] final -133.68 input  175.53 | X-H torsion
[ 8008 7997 7996 7995 ] final   54.86 input   59.86 | X-H torsion
[ 10167 10162 10161 10158 ] final -157.71 input  -65.29 | X-H torsion
[ 10718 10713 10712 10709 ] final -137.48 input   66.30 | X-H torsion
[ 10763 10752 10751 10750 ] final -119.53 input  -60.55 | X-H torsion
[ 11005 11000 10999 10996 ] final  -35.68 input  -57.11 | X-H torsion

> <Gold.Protein.ActiveResidues>
 VAL166  LYS551  ARG553  GLY616  TRP617  ASP618  TYR619  PRO620  LYS621  CYS622 
 ASP623  PHE694  ASN695  SER759  ASP760  ASP761  ALA762  ILE779  LEU786  VAL792 
 PHE793  MET794  SER795  GLU796  ALA797  LYS798  CYS799  TRP800  GLU811  SER814 

> <Gold.Protein.RotatedAtoms>
  152.0522  134.9646  160.0574 H   0  0  0  0  0  0  0  0  0  0  0  0  # atno 6907 bound_to 6896
  152.1043  133.4261  159.4609 H   0  0  0  0  0  0  0  0  0  0  0  0  # atno 6908 bound_to 6896
  150.6840  134.2643  159.4605 H   0  0  0  0  0  0  0  0  0  0  0  0  # atno 6909 bound_to 6896
  144.9171  140.6968  143.4988 H   0  0  0  0  0  0  0  0  0  0  0  0  # atno 7974 bound_to 7965
  155.4916  140.3471  155.4356 H   0  0  0  0  0  0  0  0  0  0  0  0  # atno 8008 bound_to 7997
  156.0973  140.1426  156.9542 H   0  0  0  0  0  0  0  0  0  0  0  0  # atno 8009 bound_to 7997
  154.4672  140.0913  156.7027 H   0  0  0  0  0  0  0  0  0  0  0  0  # atno 8010 bound_to 7997
  139.6749  143.9680  152.2305 H   0  0  0  0  0  0  0  0  0  0  0  0  # atno 10167 bound_to 10162
  156.2886  130.7362  151.1381 H   0  0  0  0  0  0  0  0  0  0  0  0  # atno 10718 bound_to 10713
  154.8620  135.4235  154.2314 H   0  0  0  0  0  0  0  0  0  0  0  0  # atno 10763 bound_to 10752
  153.3298  135.6987  153.6963 H   0  0  0  0  0  0  0  0  0  0  0  0  # atno 10764 bound_to 10752
  153.5984  135.3541  155.2910 H   0  0  0  0  0  0  0  0  0  0  0  0  # atno 10765 bound_to 10752
  140.9815  133.7053  156.1693 H   0  0  0  0  0  0  0  0  0  0  0  0  # atno 11005 bound_to 11000
  145.3357  139.1746  143.4513 LP  0  0  0  0  0  0  0  0  0  0  0  0  # atno 17320 bound_to 7965
  146.3187  140.3392  142.8646 LP  0  0  0  0  0  0  0  0  0  0  0  0  # atno 17321 bound_to 7965
  139.9455  144.6654  150.8224 LP  0  0  0  0  0  0  0  0  0  0  0  0  # atno 17342 bound_to 10162
  140.7632  143.3216  151.2608 LP  0  0  0  0  0  0  0  0  0  0  0  0  # atno 17343 bound_to 10162
  157.7336  131.0589  150.5569 LP  0  0  0  0  0  0  0  0  0  0  0  0  # atno 17370 bound_to 10713
  156.5683  130.4273  149.6031 LP  0  0  0  0  0  0  0  0  0  0  0  0  # atno 17371 bound_to 10713
  140.7178  134.4391  157.5577 LP  0  0  0  0  0  0  0  0  0  0  0  0  # atno 17394 bound_to 11000
  139.8952  134.8688  156.2141 LP  0  0  0  0  0  0  0  0  0  0  0  0  # atno 17395 bound_to 11000

$$$$
