AV-unprocessed.smi:1368|AV-procd|sdf|5577|dock10
  -GOLD-   22720 5173D 1   1.00000     0.00000
 Structure written by MMmdl.
 47 49  0  0  0  0  0  0  0  0  2 V2000
  147.9849  134.8413  163.3322 C   0  0  0  0  0  0  0  0  0  0  0  0
  148.4203  135.6641  162.1235 C   0  0  0  0  0  0  0  0  0  0  0  0
  148.4822  136.8889  162.2211 O   0  0  0  0  0  0  0  0  0  0  0  0
  148.6851  134.9633  161.0051 N   0  0  0  0  0  0  0  0  0  0  0  0
  149.1208  135.4353  159.7364 C   0  0  0  0  0  0  0  0  0  0  0  0
  148.6411  134.7579  158.5977 C   0  0  0  0  0  0  0  0  0  0  0  0
  149.0432  135.1532  157.3079 C   0  0  0  0  0  0  0  0  0  0  0  0
  149.9388  136.2259  157.1274 C   0  0  0  0  0  0  0  0  0  0  0  0
  150.2815  136.5460  155.8309 O   0  0  0  0  0  0  0  0  0  0  0  0
  151.3943  137.4060  155.6228 C   0  0  0  0  0  0  0  0  0  0  0  0
  150.9167  138.8657  155.6780 C   0  0  2  0  0  0  0  0  0  0  0  0
  151.5699  139.5899  154.6539 O   0  0  0  0  0  0  0  0  0  0  0  0
  151.2280  139.5162  157.0410 C   0  0  0  0  0  0  0  0  0  0  0  0
  151.0041  140.9713  157.0496 N   0  0  0  0  0  0  0  0  0  0  0  0
  150.0930  141.7188  156.3639 C   0  0  0  0  0  0  0  0  0  0  0  0
  149.0697  141.2136  155.4031 C   0  0  0  0  0  0  0  0  0  0  0  0
  150.2857  143.0198  156.7209 N   0  3  0  0  0  0  0  0  0  0  0  0
  151.3302  143.1065  157.6424 C   0  0  0  0  0  0  0  0  0  0  0  0
  151.8866  144.2073  158.2867 C   0  0  0  0  0  0  0  0  0  0  0  0
  152.9534  143.9499  159.1723 C   0  0  0  0  0  0  0  0  0  0  0  0
  153.4281  142.6400  159.3884 C   0  0  0  0  0  0  0  0  0  0  0  0
  152.8551  141.5319  158.7303 C   0  0  0  0  0  0  0  0  0  0  0  0
  151.7989  141.7940  157.8576 C   0  0  0  0  0  0  0  0  0  0  0  0
  150.4321  136.8989  158.2726 C   0  0  0  0  0  0  0  0  0  0  0  0
  150.0314  136.5048  159.5640 C   0  0  0  0  0  0  0  0  0  0  0  0
  148.4111  133.8376  163.3016 H   0  0  0  0  0  0  0  0  0  0  0  0
  146.8986  134.7540  163.3562 H   0  0  0  0  0  0  0  0  0  0  0  0
  148.3109  135.3185  164.2569 H   0  0  0  0  0  0  0  0  0  0  0  0
  148.5025  133.9715  161.0557 H   0  0  0  0  0  0  0  0  0  0  0  0
  147.9557  133.9303  158.7080 H   0  0  0  0  0  0  0  0  0  0  0  0
  148.6604  134.6253  156.4466 H   0  0  0  0  0  0  0  0  0  0  0  0
  152.1144  137.2330  156.4244 H   0  0  0  0  0  0  0  0  0  0  0  0
  151.8942  137.1979  154.6749 H   0  0  0  0  0  0  0  0  0  0  0  0
  149.8405  138.9050  155.5053 H   0  0  0  0  0  0  0  0  0  0  0  0
  152.2160  139.0264  154.2551 H   0  0  0  0  0  0  0  0  0  0  0  0
  150.5822  139.0900  157.8098 H   0  0  0  0  0  0  0  0  0  0  0  0
  152.2496  139.3048  157.3577 H   0  0  0  0  0  0  0  0  0  0  0  0
  148.5197  142.0421  154.9563 H   0  0  0  0  0  0  0  0  0  0  0  0
  148.3615  140.5639  155.9174 H   0  0  0  0  0  0  0  0  0  0  0  0
  149.5485  140.6460  154.6053 H   0  0  0  0  0  0  0  0  0  0  0  0
  151.5259  145.2120  158.1210 H   0  0  0  0  0  0  0  0  0  0  0  0
  153.4182  144.7736  159.6949 H   0  0  0  0  0  0  0  0  0  0  0  0
  154.2499  142.4812  160.0715 H   0  0  0  0  0  0  0  0  0  0  0  0
  153.2323  140.5342  158.8987 H   0  0  0  0  0  0  0  0  0  0  0  0
  151.1264  137.7210  158.1897 H   0  0  0  0  0  0  0  0  0  0  0  0
  150.4504  137.0315  160.4069 H   0  0  0  0  0  0  0  0  0  0  0  0
  149.7410  143.7915  156.3582 H   0  0  0  0  0  0  0  0  0  0  0  0
  1  2  1  0  0  0  0
  1 26  1  0  0  0  0
  1 27  1  0  0  0  0
  1 28  1  0  0  0  0
  2  3  2  0  0  0  0
  2  4  1  0  0  0  0
  4  5  1  0  0  0  0
  4 29  1  0  0  0  0
  5 25  1  0  0  0  0
  5  6  2  0  0  0  0
  6  7  1  0  0  0  0
  6 30  1  0  0  0  0
  7  8  2  0  0  0  0
  7 31  1  0  0  0  0
  8  9  1  0  0  0  0
  8 24  1  0  0  0  0
  9 10  1  0  0  0  0
 10 11  1  0  0  0  0
 10 32  1  0  0  0  0
 10 33  1  0  0  0  0
 11 12  1  0  0  0  0
 11 13  1  0  0  0  0
 11 34  1  0  0  0  0
 12 35  1  0  0  0  0
 13 14  1  0  0  0  0
 13 36  1  0  0  0  0
 13 37  1  0  0  0  0
 14 23  1  0  0  0  0
 14 15  1  0  0  0  0
 15 16  1  0  0  0  0
 15 17  2  0  0  0  0
 16 38  1  0  0  0  0
 16 39  1  0  0  0  0
 16 40  1  0  0  0  0
 17 18  1  0  0  0  0
 17 47  1  0  0  0  0
 18 23  2  0  0  0  0
 18 19  1  0  0  0  0
 19 20  2  0  0  0  0
 19 41  1  0  0  0  0
 20 21  1  0  0  0  0
 20 42  1  0  0  0  0
 21 22  2  0  0  0  0
 21 43  1  0  0  0  0
 22 23  1  0  0  0  0
 22 44  1  0  0  0  0
 24 25  2  0  0  0  0
 24 45  1  0  0  0  0
 25 46  1  0  0  0  0
M  CHG  1  17   1
M  END
> <s_m_source_file>
AV-unprocessed.smi

> <i_m_source_file_index>
1368

> <i_lp_mmshare_version>
43012

> <i_f3d_flags>
0

> <s_epik_input>
W0NIM11DKD1PKVtOSF1jMVtjSF1bY0hdYyhbY0hdW2NIXTEpT1tDSDJdW0NASF0oW09IXSlbQ0gyXW4oYyhuMilbQ0gzXSljKGMyMylbY0hdW2NIXVtjSF1bY0hdMw==

> <s_epik_cmdline>
J2VwaWtfcHl0aG9uJywgJy1waCcsICc3LjAnLCAnLXRuJywgJzgnLCAnLW1hJywgJzIwMCcsICctbWV0YWxfYmluZGluZycsICctaW1hZScsICc8aW5maWxlLm1hZT4nLCAnLW9tYWUnLCAnPG91dGZpbGUubWFlPic=

> <r_lp_tautomer_probability>
1

> <r_epik_Ionization_Penalty>
1.00673

> <r_epik_Ionization_Penalty_Charging>
1.00673

> <r_epik_Ionization_Penalty_Neutral>
2.60899e-06

> <r_epik_State_Penalty>
1.05579

> <r_epik_Charging_Adjusted_Penalty>
2.06252

> <i_epik_Tot_Q>
1

> <i_epik_Tot_abs_Q>
1

> <r_epik_Metal_State_Penalty>
1.15682

> <b_epik_Metal_Only>
0

> <s_lp_Force_Field>
OPLS_2005

> <r_lp_Energy>
25.0727

> <b_lp_Chiralities_Consistent>
1

> <s_lp_Variant>
AV-unprocessed.smi:1368-3

> <Gold.Version>
5.8.1

> <Gold.Id.Protein>
6NUR|6NUR_protein|mol2

> <Gold.PLP.Fitness>
59.0200

> <Gold.PLP.PLP>
-48.0518

> <Gold.PLP.part.hbond>
-4.0000

> <Gold.PLP.part.metal>
0.0000

> <Gold.PLP.part.buried>
-7.3034

> <Gold.PLP.part.nonpolar>
-37.3867

> <Gold.PLP.part.repulsive>
0.2316

> <Gold.PLP.ligand.clash>
0.0009

> <Gold.PLP.ligand.torsion>
1.5841

> <Gold.PLP.Chemscore.Hbond>
4.6880

> <Gold.PLP.Chemscore.CHOScore>
0.0000

> <Gold.PLP.Chemscore.Metal>
0.0000

> <Gold.Chemscore.Hbonds>
donor molecule, donor type, donor heavy atom, donor atom, acceptor molecule, acceptor atom, score
      L1  H    17    47       P1  8028  1.53
      P1  H  6931  6943       L1     3  0.89
      P1  H  7989  7998       L1    12  0.85

> <Gold.PLP.Chemscore.Internal.Correction>
0.0733

> <Gold.Rescore>
     Score         DG    S(hbond)    S(metal)    S(lipo)     H(rot)  DE(clash)    DE(int)     intcor
     21.98     -23.50       3.34        0.00     112.85       2.47       0.16       1.35       ----

> <Gold.Chemscore.Fitness>
21.9803

> <Gold.Chemscore.DG>
-23.4962

> <Gold.Chemscore.ZeroCoef>
-5.4800

> <Gold.Chemscore.Hbond>
3.3351

> <Gold.Chemscore.Metal>
0.0000

> <Gold.Chemscore.Lipo>
112.8542

> <Gold.Chemscore.Internal_Hbond>
0.0000

> <Gold.Chemscore.DEClash>
0.1635

> <Gold.Chemscore.DEInternal>
1.3523

> <Gold.Chemscore.Rot>
2.4715

> <Gold.Chemscore.Internal.Correction>
   9.000000E+99

> <Gold.Chemscore.Hbonds>
donor molecule, donor type, donor heavy atom, donor atom, acceptor molecule, acceptor atom, score
      L1  H    17    47       P1  8028  0.77
      P1  H  6931  6943       L1     3  0.87
      P1  H  7989  7998       L1    12  0.15

> <Gold.Chemscore.Hbond.Weighted>
-11.1393

> <Gold.Chemscore.Metal.Weighted>
-0.0000

> <Gold.Chemscore.Lipo.Weighted>
-13.2039

> <Gold.Chemscore.Internal_Hbond.Weighted>
0.0000

> <Gold.Chemscore.DEClash.Weighted>
0.1635

> <Gold.Chemscore.DEInternal.Weighted>
1.3523

> <Gold.Chemscore.Rot.Weighted>
6.3271

> <Gold.Chemscore.Internal.Correction.Weighted>
   9.000000E+99

> <Gold.Protein.RotatedTorsions>
[ 6907 6896 6895 6894 ] final  139.66 input  -60.11 | X-H torsion
[ 7974 7965 7964 7962 ] final   32.83 input  175.53 | X-H torsion
[ 8008 7997 7996 7995 ] final  162.08 input   59.86 | X-H torsion
[ 10167 10162 10161 10158 ] final -169.05 input  -65.29 | X-H torsion
[ 10718 10713 10712 10709 ] final  133.16 input   66.30 | X-H torsion
[ 10763 10752 10751 10750 ] final -158.23 input  -60.55 | X-H torsion
[ 11005 11000 10999 10996 ] final   61.96 input  -57.11 | X-H torsion

> <Gold.Protein.ActiveResidues>
 VAL166  LYS551  ARG553  GLY616  TRP617  ASP618  TYR619  PRO620  LYS621  CYS622 
 ASP623  PHE694  ASN695  SER759  ASP760  ASP761  ALA762  ILE779  LEU786  VAL792 
 PHE793  MET794  SER795  GLU796  ALA797  LYS798  CYS799  TRP800  GLU811  SER814 

> <Gold.Protein.RotatedAtoms>
  152.2523  133.5225  159.5332 H   0  0  0  0  0  0  0  0  0  0  0  0  # atno 6907 bound_to 6896
  150.7097  134.0944  159.3952 H   0  0  0  0  0  0  0  0  0  0  0  0  # atno 6908 bound_to 6896
  151.8863  135.0434  160.0544 H   0  0  0  0  0  0  0  0  0  0  0  0  # atno 6909 bound_to 6896
  146.1461  139.6475  142.9130 H   0  0  0  0  0  0  0  0  0  0  0  0  # atno 7974 bound_to 7965
  156.2057  140.1760  156.7805 H   0  0  0  0  0  0  0  0  0  0  0  0  # atno 8008 bound_to 7997
  154.5652  140.0692  156.8910 H   0  0  0  0  0  0  0  0  0  0  0  0  # atno 8009 bound_to 7997
  155.2774  140.3346  155.4263 H   0  0  0  0  0  0  0  0  0  0  0  0  # atno 8010 bound_to 7997
  139.5947  144.1138  152.1675 H   0  0  0  0  0  0  0  0  0  0  0  0  # atno 10167 bound_to 10162
  157.4801  131.1085  150.9693 H   0  0  0  0  0  0  0  0  0  0  0  0  # atno 10718 bound_to 10713
  154.7573  135.3108  154.8445 H   0  0  0  0  0  0  0  0  0  0  0  0  # atno 10763 bound_to 10752
  153.9215  135.6795  153.4752 H   0  0  0  0  0  0  0  0  0  0  0  0  # atno 10764 bound_to 10752
  153.1171  135.4839  154.9064 H   0  0  0  0  0  0  0  0  0  0  0  0  # atno 10765 bound_to 10752
  140.0125  134.6275  155.9759 H   0  0  0  0  0  0  0  0  0  0  0  0  # atno 11005 bound_to 11000
  145.4935  141.0438  143.2580 LP  0  0  0  0  0  0  0  0  0  0  0  0  # atno 17320 bound_to 7965
  144.7848  139.6451  143.7139 LP  0  0  0  0  0  0  0  0  0  0  0  0  # atno 17321 bound_to 7965
  140.0720  144.5771  150.7185 LP  0  0  0  0  0  0  0  0  0  0  0  0  # atno 17342 bound_to 10162
  140.7202  143.2581  151.4303 LP  0  0  0  0  0  0  0  0  0  0  0  0  # atno 17343 bound_to 10162
  157.0429  130.5756  149.5359 LP  0  0  0  0  0  0  0  0  0  0  0  0  # atno 17370 bound_to 10713
  156.0117  130.5209  150.8008 LP  0  0  0  0  0  0  0  0  0  0  0  0  # atno 17371 bound_to 10713
  141.1720  133.6538  156.4688 LP  0  0  0  0  0  0  0  0  0  0  0  0  # atno 17394 bound_to 11000
  140.4529  134.6912  157.5048 LP  0  0  0  0  0  0  0  0  0  0  0  0  # atno 17395 bound_to 11000

$$$$
