AV-unprocessed.smi:2083|AV-procd|sdf|8499|dock10
  -GOLD-   2272011213D 1   1.00000     0.00000
 Structure written by MMmdl.
 44 45  0  0  0  0  0  0  0  0  3 V2000
  149.2184  140.6128  154.3229 C   0  0  0  0  0  0  0  0  0  0  0  0
  150.1406  139.4685  154.5704 C   0  0  0  0  0  0  0  0  0  0  0  0
  149.9335  138.1279  154.7316 C   0  0  0  0  0  0  0  0  0  0  0  0
  151.2447  137.6195  154.9399 C   0  0  0  0  0  0  0  0  0  0  0  0
  151.5704  136.3333  155.1403 N   0  5  0  0  0  0  0  0  0  0  0  0
  150.6051  135.4151  155.3713 C   0  0  0  0  0  0  0  0  0  0  0  0
  150.3127  134.9172  156.4611 O   0  0  0  0  0  0  0  0  0  0  0  0
  149.9303  135.0550  154.2702 N   0  0  0  0  0  0  0  0  0  0  0  0
  148.8264  134.1008  154.2216 C   0  0  0  0  0  0  0  0  0  0  0  0
  149.1954  132.7886  153.4738 C   0  0  1  0  0  0  0  0  0  0  0  0
  149.7620  131.7489  154.4671 C   0  0  0  0  0  0  0  0  0  0  0  0
  148.0656  132.1832  152.6939 N   0  3  1  0  0  0  0  0  0  0  0  0
  147.2895  131.1153  153.3896 C   0  0  0  0  0  0  0  0  0  0  0  0
  146.2409  130.4797  152.4613 C   0  0  0  0  0  0  0  0  0  0  0  0
  145.2984  131.5355  151.8773 C   0  0  0  0  0  0  0  0  0  0  0  0
  146.1135  132.6277  151.1702 C   0  0  1  0  0  0  0  0  0  0  0  0
  145.2018  133.7149  150.5838 C   0  0  0  0  0  0  0  0  0  0  0  0
  147.1497  133.2238  152.1426 C   0  0  0  0  0  0  0  0  0  0  0  0
  152.1675  138.5655  154.8913 N   0  0  0  0  0  0  0  0  0  0  0  0
  151.4670  139.7553  154.6601 O   0  0  0  0  0  0  0  0  0  0  0  0
  148.7798  140.5450  153.3275 H   0  0  0  0  0  0  0  0  0  0  0  0
  149.7442  141.5651  154.3965 H   0  0  0  0  0  0  0  0  0  0  0  0
  148.4077  140.6187  155.0515 H   0  0  0  0  0  0  0  0  0  0  0  0
  148.9945  137.5957  154.7089 H   0  0  0  0  0  0  0  0  0  0  0  0
  150.2065  135.4825  153.3982 H   0  0  0  0  0  0  0  0  0  0  0  0
  148.5336  133.8800  155.2485 H   0  0  0  0  0  0  0  0  0  0  0  0
  147.9808  134.6063  153.7534 H   0  0  0  0  0  0  0  0  0  0  0  0
  149.9812  133.0402  152.7597 H   0  0  0  0  0  0  0  0  0  0  0  0
  150.6339  132.1313  154.9981 H   0  0  0  0  0  0  0  0  0  0  0  0
  150.0862  130.8324  153.9776 H   0  0  0  0  0  0  0  0  0  0  0  0
  149.0167  131.4754  155.2146 H   0  0  0  0  0  0  0  0  0  0  0  0
  147.9449  130.3097  153.7178 H   0  0  0  0  0  0  0  0  0  0  0  0
  146.8095  131.5299  154.2777 H   0  0  0  0  0  0  0  0  0  0  0  0
  146.7436  129.9501  151.6509 H   0  0  0  0  0  0  0  0  0  0  0  0
  145.6660  129.7314  153.0078 H   0  0  0  0  0  0  0  0  0  0  0  0
  144.6025  131.0675  151.1802 H   0  0  0  0  0  0  0  0  0  0  0  0
  144.6967  131.9737  152.6751 H   0  0  0  0  0  0  0  0  0  0  0  0
  146.6521  132.1684  150.3399 H   0  0  0  0  0  0  0  0  0  0  0  0
  144.6330  134.2204  151.3650 H   0  0  0  0  0  0  0  0  0  0  0  0
  144.4896  133.2903  149.8758 H   0  0  0  0  0  0  0  0  0  0  0  0
  145.7817  134.4703  150.0528 H   0  0  0  0  0  0  0  0  0  0  0  0
  146.6416  133.7278  152.9669 H   0  0  0  0  0  0  0  0  0  0  0  0
  147.7152  133.9910  151.6164 H   0  0  0  0  0  0  0  0  0  0  0  0
  148.4965  131.7264  151.9030 H   0  0  0  0  0  0  0  0  0  0  0  0
  1  2  1  0  0  0  0
  1 21  1  0  0  0  0
  1 22  1  0  0  0  0
  1 23  1  0  0  0  0
  2 20  1  0  0  0  0
  2  3  2  0  0  0  0
  3  4  1  0  0  0  0
  3 24  1  0  0  0  0
  4  5  1  0  0  0  0
  4 19  2  0  0  0  0
  5  6  1  0  0  0  0
  6  7  2  0  0  0  0
  6  8  1  0  0  0  0
  8  9  1  0  0  0  0
  8 25  1  0  0  0  0
  9 10  1  0  0  0  0
  9 26  1  0  0  0  0
  9 27  1  0  0  0  0
 10 11  1  0  0  0  0
 10 12  1  0  0  0  0
 10 28  1  0  0  0  0
 11 29  1  0  0  0  0
 11 30  1  0  0  0  0
 11 31  1  0  0  0  0
 12 18  1  0  0  0  0
 12 13  1  0  0  0  0
 12 44  1  0  0  0  0
 13 14  1  0  0  0  0
 13 32  1  0  0  0  0
 13 33  1  0  0  0  0
 14 15  1  0  0  0  0
 14 34  1  0  0  0  0
 14 35  1  0  0  0  0
 15 16  1  0  0  0  0
 15 36  1  0  0  0  0
 15 37  1  0  0  0  0
 16 17  1  0  0  0  0
 16 18  1  0  0  0  0
 16 38  1  0  0  0  0
 17 39  1  0  0  0  0
 17 40  1  0  0  0  0
 17 41  1  0  0  0  0
 18 42  1  0  0  0  0
 18 43  1  0  0  0  0
 19 20  1  0  0  0  0
M  CHG  1   5  -1
M  CHG  1  12   1
M  END
> <s_m_source_file>
AV-unprocessed.smi

> <i_m_source_file_index>
2083

> <i_lp_mmshare_version>
43012

> <i_f3d_flags>
0

> <s_epik_input>
W0NIM11jMVtjSF1jKG5vMSlbTkhdQyg9TylbTkhdW0NIMl1bQ0BIXShbQ0gzXSlOMltDSDJdW0NIMl1bQ0gyXVtDQEBIXShbQ0gzXSlbQ0gyXTI=

> <s_epik_cmdline>
J2VwaWtfcHl0aG9uJywgJy1waCcsICc3LjAnLCAnLXRuJywgJzgnLCAnLW1hJywgJzIwMCcsICctbWV0YWxfYmluZGluZycsICctaW1hZScsICc8aW5maWxlLm1hZT4nLCAnLW9tYWUnLCAnPG91dGZpbGUubWFlPic=

> <r_epik_Ionization_Penalty>
6.22434

> <r_epik_Ionization_Penalty_Charging>
6.22425

> <r_epik_Ionization_Penalty_Neutral>
9.62407e-05

> <r_epik_State_Penalty>
6.22423

> <r_epik_Charging_Adjusted_Penalty>
12.4485

> <i_epik_Tot_Q>
0

> <i_epik_Tot_abs_Q>
2

> <r_epik_Metal_State_Penalty>
2.16764

> <b_epik_Metal_Only>
1

> <s_lp_Force_Field>
OPLS_2005

> <r_lp_Energy>
9.18004

> <b_lp_Chiralities_Consistent>
1

> <s_lp_Variant>
AV-unprocessed.smi:2083-10

> <Gold.Version>
5.8.1

> <Gold.Id.Protein>
6NUR|6NUR_protein|mol2

> <Gold.PLP.Fitness>
46.4514

> <Gold.PLP.PLP>
-38.0907

> <Gold.PLP.part.hbond>
-4.4570

> <Gold.PLP.part.metal>
0.0000

> <Gold.PLP.part.buried>
-5.9226

> <Gold.PLP.part.nonpolar>
-28.3716

> <Gold.PLP.part.repulsive>
0.2681

> <Gold.PLP.ligand.clash>
0.0000

> <Gold.PLP.ligand.torsion>
1.9033

> <Gold.PLP.Chemscore.Hbond>
4.0255

> <Gold.PLP.Chemscore.CHOScore>
0.0000

> <Gold.PLP.Chemscore.Metal>
0.0000

> <Gold.Chemscore.Hbonds>
donor molecule, donor type, donor heavy atom, donor atom, acceptor molecule, acceptor atom, score
      L1  H    12    44       P1 10747  1.00
      P1  H  7989  7998       L1    20  1.00
      P1  H 10752 10763       L1     5  2.00

> <Gold.PLP.Chemscore.Internal.Correction>
0.0907

> <Gold.Rescore>
     Score         DG    S(hbond)    S(metal)    S(lipo)     H(rot)  DE(clash)    DE(int)     intcor
     18.52     -20.72       2.81        0.00      83.37       1.52       0.48       1.72       ----

> <Gold.Chemscore.Fitness>
18.5184

> <Gold.Chemscore.DG>
-20.7184

> <Gold.Chemscore.ZeroCoef>
-5.4800

> <Gold.Chemscore.Hbond>
2.8061

> <Gold.Chemscore.Metal>
0.0000

> <Gold.Chemscore.Lipo>
83.3716

> <Gold.Chemscore.Internal_Hbond>
0.0000

> <Gold.Chemscore.DEClash>
0.4800

> <Gold.Chemscore.DEInternal>
1.7200

> <Gold.Chemscore.Rot>
1.5190

> <Gold.Chemscore.Internal.Correction>
   9.000000E+99

> <Gold.Chemscore.Hbonds>
donor molecule, donor type, donor heavy atom, donor atom, acceptor molecule, acceptor atom, score
      L1  H    12    44       P1 10747  1.00
      P1  H  7989  7998       L1    20  0.34
      P1  H 10752 10763       L1     5  0.74

> <Gold.Chemscore.Hbond.Weighted>
-9.3725

> <Gold.Chemscore.Metal.Weighted>
-0.0000

> <Gold.Chemscore.Lipo.Weighted>
-9.7545

> <Gold.Chemscore.Internal_Hbond.Weighted>
0.0000

> <Gold.Chemscore.DEClash.Weighted>
0.4800

> <Gold.Chemscore.DEInternal.Weighted>
1.7200

> <Gold.Chemscore.Rot.Weighted>
3.8886

> <Gold.Chemscore.Internal.Correction.Weighted>
   9.000000E+99

> <Gold.Protein.RotatedTorsions>
[ 6907 6896 6895 6894 ] final   93.18 input  -60.11 | X-H torsion
[ 7974 7965 7964 7962 ] final  148.90 input  175.53 | X-H torsion
[ 8008 7997 7996 7995 ] final   37.72 input   59.86 | X-H torsion
[ 10167 10162 10161 10158 ] final  -25.04 input  -65.29 | X-H torsion
[ 10718 10713 10712 10709 ] final  155.77 input   66.30 | X-H torsion
[ 10763 10752 10751 10750 ] final   58.69 input  -60.55 | X-H torsion
[ 11005 11000 10999 10996 ] final   99.45 input  -57.11 | X-H torsion

> <Gold.Protein.ActiveResidues>
 VAL166  LYS551  ARG553  GLY616  TRP617  ASP618  TYR619  PRO620  LYS621  CYS622 
 ASP623  PHE694  ASN695  SER759  ASP760  ASP761  ALA762  ILE779  LEU786  VAL792 
 PHE793  MET794  SER795  GLU796  ALA797  LYS798  CYS799  TRP800  GLU811  SER814 

> <Gold.Protein.RotatedAtoms>
  152.5452  134.1387  159.8469 H   0  0  0  0  0  0  0  0  0  0  0  0  # atno 6907 bound_to 6896
  151.1425  133.4954  159.2604 H   0  0  0  0  0  0  0  0  0  0  0  0  # atno 6908 bound_to 6896
  151.1558  135.0259  159.8743 H   0  0  0  0  0  0  0  0  0  0  0  0  # atno 6909 bound_to 6896
  144.8478  139.6212  143.5987 H   0  0  0  0  0  0  0  0  0  0  0  0  # atno 7974 bound_to 7965
  155.2083  140.3321  155.4332 H   0  0  0  0  0  0  0  0  0  0  0  0  # atno 8008 bound_to 7997
  156.2380  140.1881  156.7115 H   0  0  0  0  0  0  0  0  0  0  0  0  # atno 8009 bound_to 7997
  154.6095  140.0611  156.9460 H   0  0  0  0  0  0  0  0  0  0  0  0  # atno 8010 bound_to 7997
  140.7287  143.4300  151.0817 H   0  0  0  0  0  0  0  0  0  0  0  0  # atno 10167 bound_to 10162
  157.2139  131.0703  151.1953 H   0  0  0  0  0  0  0  0  0  0  0  0  # atno 10718 bound_to 10713
  152.9876  135.5598  154.5592 H   0  0  0  0  0  0  0  0  0  0  0  0  # atno 10763 bound_to 10752
  154.5014  135.2797  155.1419 H   0  0  0  0  0  0  0  0  0  0  0  0  # atno 10764 bound_to 10752
  154.2848  135.6338  153.5414 H   0  0  0  0  0  0  0  0  0  0  0  0  # atno 10765 bound_to 10752
  139.8771  134.9096  156.4608 H   0  0  0  0  0  0  0  0  0  0  0  0  # atno 11005 bound_to 11000
  146.2759  139.6752  142.9263 LP  0  0  0  0  0  0  0  0  0  0  0  0  # atno 17320 bound_to 7965
  145.4561  141.0431  143.2778 LP  0  0  0  0  0  0  0  0  0  0  0  0  # atno 17321 bound_to 7965
  139.7955  143.8157  152.3157 LP  0  0  0  0  0  0  0  0  0  0  0  0  # atno 17342 bound_to 10162
  139.8156  144.7317  150.9640 LP  0  0  0  0  0  0  0  0  0  0  0  0  # atno 17343 bound_to 10162
  157.3644  130.7148  149.6523 LP  0  0  0  0  0  0  0  0  0  0  0  0  # atno 17370 bound_to 10713
  155.9688  130.4216  150.4478 LP  0  0  0  0  0  0  0  0  0  0  0  0  # atno 17371 bound_to 10713
  140.8865  133.7879  155.9524 LP  0  0  0  0  0  0  0  0  0  0  0  0  # atno 17394 bound_to 11000
  140.8799  134.2624  157.5149 LP  0  0  0  0  0  0  0  0  0  0  0  0  # atno 17395 bound_to 11000

$$$$
