AV-unprocessed.smi:1793|AV-procd|sdf|7230|dock1
  -GOLD-   22720 8473D 1   1.00000     0.00000
 Structure written by MMmdl.
 47 49  0  0  0  0  0  0  0  0  2 V2000
  152.1999  138.0720  154.7314 C   0  0  0  0  0  0  0  0  0  0  0  0
  150.6711  137.9976  154.8525 C   0  0  2  0  0  0  0  0  0  0  0  0
  150.2019  136.7351  154.2851 N   0  0  0  0  0  0  0  0  0  0  0  0
  150.5428  135.5130  154.7159 C   0  0  0  0  0  0  0  0  0  0  0  0
  151.3759  135.2982  155.5962 O   0  0  0  0  0  0  0  0  0  0  0  0
  149.8328  134.5634  154.0880 N   0  0  0  0  0  0  0  0  0  0  0  0
  149.7963  133.1832  154.4195 C   0  0  0  0  0  0  0  0  0  0  0  0
  150.8574  132.5930  155.1498 C   0  0  0  0  0  0  0  0  0  0  0  0
  150.8444  131.2092  155.4076 C   0  0  0  0  0  0  0  0  0  0  0  0
  149.7769  130.4366  154.9177 C   0  0  0  0  0  0  0  0  0  0  0  0
  148.7859  131.0293  154.2192 N   0  3  0  0  0  0  0  0  0  0  0  0
  148.7336  132.3583  153.9521 C   0  0  0  0  0  0  0  0  0  0  0  0
  147.6213  132.8494  153.2312 N   0  0  0  0  0  0  0  0  0  0  0  0
  147.6745  132.9605  151.7781 C   0  0  0  0  0  0  0  0  0  0  0  0
  146.2238  133.1496  151.3423 C   0  0  0  0  0  0  0  0  0  0  0  0
  145.4640  132.2891  152.3475 C   0  0  0  0  0  0  0  0  0  0  0  0
  146.2835  132.4256  153.6347 C   0  0  0  0  0  0  0  0  0  0  0  0
  149.9774  139.2045  154.1803 C   0  0  1  0  0  0  0  0  0  0  0  0
  148.4457  139.2405  154.2641 C   0  0  0  0  0  0  0  0  0  0  0  0
  148.1676  140.7211  154.1436 C   0  0  0  0  0  0  0  0  0  0  0  0
  149.3169  141.3140  154.9508 C   0  0  0  0  0  0  0  0  0  0  0  0
  150.4190  140.4321  154.7583 O   0  0  0  0  0  0  0  0  0  0  0  0
  152.5835  138.9891  155.1794 H   0  0  0  0  0  0  0  0  0  0  0  0
  152.5218  138.0511  153.6896 H   0  0  0  0  0  0  0  0  0  0  0  0
  152.6752  137.2340  155.2427 H   0  0  0  0  0  0  0  0  0  0  0  0
  150.4358  138.0227  155.9182 H   0  0  0  0  0  0  0  0  0  0  0  0
  149.5150  136.8033  153.5485 H   0  0  0  0  0  0  0  0  0  0  0  0
  149.1182  134.8851  153.4515 H   0  0  0  0  0  0  0  0  0  0  0  0
  151.6899  133.1865  155.4983 H   0  0  0  0  0  0  0  0  0  0  0  0
  151.6476  130.7472  155.9628 H   0  0  0  0  0  0  0  0  0  0  0  0
  149.6858  129.3696  155.0606 H   0  0  0  0  0  0  0  0  0  0  0  0
  148.3038  133.7940  151.4646 H   0  0  0  0  0  0  0  0  0  0  0  0
  148.0709  132.0441  151.3389 H   0  0  0  0  0  0  0  0  0  0  0  0
  145.9331  134.1953  151.4528 H   0  0  0  0  0  0  0  0  0  0  0  0
  146.0481  132.8545  150.3075 H   0  0  0  0  0  0  0  0  0  0  0  0
  144.4247  132.5948  152.4729 H   0  0  0  0  0  0  0  0  0  0  0  0
  145.4700  131.2496  152.0165 H   0  0  0  0  0  0  0  0  0  0  0  0
  146.3013  131.4885  154.1929 H   0  0  0  0  0  0  0  0  0  0  0  0
  145.8478  133.1941  154.2737 H   0  0  0  0  0  0  0  0  0  0  0  0
  150.2665  139.2431  153.1289 H   0  0  0  0  0  0  0  0  0  0  0  0
  147.9652  138.6524  153.4817 H   0  0  0  0  0  0  0  0  0  0  0  0
  148.0834  138.8815  155.2278 H   0  0  0  0  0  0  0  0  0  0  0  0
  148.2382  141.0333  153.1007 H   0  0  0  0  0  0  0  0  0  0  0  0
  147.1864  141.0079  154.5232 H   0  0  0  0  0  0  0  0  0  0  0  0
  149.5608  142.3320  154.6465 H   0  0  0  0  0  0  0  0  0  0  0  0
  149.0673  141.3278  156.0121 H   0  0  0  0  0  0  0  0  0  0  0  0
  148.0237  130.4418  153.8809 H   0  0  0  0  0  0  0  0  0  0  0  0
  1  2  1  0  0  0  0
  1 23  1  0  0  0  0
  1 24  1  0  0  0  0
  1 25  1  0  0  0  0
  2  3  1  0  0  0  0
  2 18  1  0  0  0  0
  2 26  1  0  0  0  0
  3  4  1  0  0  0  0
  3 27  1  0  0  0  0
  4  5  2  0  0  0  0
  4  6  1  0  0  0  0
  6  7  1  0  0  0  0
  6 28  1  0  0  0  0
  7 12  1  0  0  0  0
  7  8  2  0  0  0  0
  8  9  1  0  0  0  0
  8 29  1  0  0  0  0
  9 10  2  0  0  0  0
  9 30  1  0  0  0  0
 10 11  1  0  0  0  0
 10 31  1  0  0  0  0
 11 12  2  0  0  0  0
 11 47  1  0  0  0  0
 12 13  1  0  0  0  0
 13 17  1  0  0  0  0
 13 14  1  0  0  0  0
 14 15  1  0  0  0  0
 14 32  1  0  0  0  0
 14 33  1  0  0  0  0
 15 16  1  0  0  0  0
 15 34  1  0  0  0  0
 15 35  1  0  0  0  0
 16 17  1  0  0  0  0
 16 36  1  0  0  0  0
 16 37  1  0  0  0  0
 17 38  1  0  0  0  0
 17 39  1  0  0  0  0
 18 22  1  0  0  0  0
 18 19  1  0  0  0  0
 18 40  1  0  0  0  0
 19 20  1  0  0  0  0
 19 41  1  0  0  0  0
 19 42  1  0  0  0  0
 20 21  1  0  0  0  0
 20 43  1  0  0  0  0
 20 44  1  0  0  0  0
 21 22  1  0  0  0  0
 21 45  1  0  0  0  0
 21 46  1  0  0  0  0
M  CHG  1  11   1
M  END
> <s_m_source_file>
AV-unprocessed.smi

> <i_m_source_file_index>
1793

> <i_lp_mmshare_version>
43012

> <i_f3d_flags>
0

> <s_epik_input>
TzFbQ0gyXVtDSDJdW0NIMl1bQ0BIXTFbQ0BIXShbQ0gzXSlbTkhdQyg9TylbTkhdYzJbY0hdW2NIXVtjSF1uYzJOM1tDSDJdW0NIMl1bQ0gyXVtDSDJdMw==

> <s_epik_cmdline>
J2VwaWtfcHl0aG9uJywgJy1waCcsICc3LjAnLCAnLXRuJywgJzgnLCAnLW1hJywgJzIwMCcsICctbWV0YWxfYmluZGluZycsICctaW1hZScsICc8aW5maWxlLm1hZT4nLCAnLW9tYWUnLCAnPG91dGZpbGUubWFlPic=

> <r_lp_tautomer_probability>
0.999994

> <r_epik_Ionization_Penalty>
1.11092

> <r_epik_Ionization_Penalty_Charging>
1.1109

> <r_epik_Ionization_Penalty_Neutral>
1.9363e-05

> <r_epik_State_Penalty>
1.16888

> <r_epik_Charging_Adjusted_Penalty>
2.27978

> <i_epik_Tot_Q>
1

> <i_epik_Tot_abs_Q>
1

> <r_epik_Metal_State_Penalty>
1.25472

> <b_epik_Metal_Only>
0

> <s_lp_Force_Field>
OPLS_2005

> <r_lp_Energy>
52.8031

> <b_lp_Chiralities_Consistent>
1

> <s_lp_Variant>
AV-unprocessed.smi:1793-7

> <Gold.Version>
5.8.1

> <Gold.Id.Protein>
6NUR|6NUR_protein|mol2

> <Gold.PLP.Fitness>
47.5928

> <Gold.PLP.PLP>
-37.5487

> <Gold.PLP.part.hbond>
-4.9803

> <Gold.PLP.part.metal>
0.0000

> <Gold.PLP.part.buried>
0.7479

> <Gold.PLP.part.nonpolar>
-32.4644

> <Gold.PLP.part.repulsive>
0.3720

> <Gold.PLP.ligand.clash>
0.0000

> <Gold.PLP.ligand.torsion>
0.6261

> <Gold.PLP.Chemscore.Hbond>
3.6281

> <Gold.PLP.Chemscore.CHOScore>
0.0000

> <Gold.PLP.Chemscore.Metal>
0.0000

> <Gold.Chemscore.Hbonds>
donor molecule, donor type, donor heavy atom, donor atom, acceptor molecule, acceptor atom, score
      L1  H     3    27       P1  7948  0.93
      L1  H     6    28       P1  7948  0.60
      P1  H  7989  7998       L1    22  0.90
      P1  H 10752 10764       L1     5  1.00

> <Gold.PLP.Chemscore.Internal.Correction>
0.4120

> <Gold.Rescore>
     Score         DG    S(hbond)    S(metal)    S(lipo)     H(rot)  DE(clash)    DE(int)     intcor
     17.59     -20.13       2.61        0.00      80.89       1.38       0.41       2.14       ----

> <Gold.Chemscore.Fitness>
17.5908

> <Gold.Chemscore.DG>
-20.1323

> <Gold.Chemscore.ZeroCoef>
-5.4800

> <Gold.Chemscore.Hbond>
2.6112

> <Gold.Chemscore.Metal>
0.0000

> <Gold.Chemscore.Lipo>
80.8908

> <Gold.Chemscore.Internal_Hbond>
0.0000

> <Gold.Chemscore.DEClash>
0.4052

> <Gold.Chemscore.DEInternal>
2.1364

> <Gold.Chemscore.Rot>
1.3802

> <Gold.Chemscore.Internal.Correction>
   9.000000E+99

> <Gold.Chemscore.Hbonds>
donor molecule, donor type, donor heavy atom, donor atom, acceptor molecule, acceptor atom, score
      L1  H     3    27       P1  7948  0.74
      L1  H     6    28       P1  7948  0.10
      P1  H  7989  7998       L1    22  0.16
      P1  H 10752 10764       L1     5  0.72

> <Gold.Chemscore.Hbond.Weighted>
-8.7213

> <Gold.Chemscore.Metal.Weighted>
-0.0000

> <Gold.Chemscore.Lipo.Weighted>
-9.4642

> <Gold.Chemscore.Internal_Hbond.Weighted>
0.0000

> <Gold.Chemscore.DEClash.Weighted>
0.4052

> <Gold.Chemscore.DEInternal.Weighted>
2.1364

> <Gold.Chemscore.Rot.Weighted>
3.5332

> <Gold.Chemscore.Internal.Correction.Weighted>
   9.000000E+99

> <Gold.Protein.RotatedTorsions>
[ 6907 6896 6895 6894 ] final   -8.99 input  -60.11 | X-H torsion
[ 7974 7965 7964 7962 ] final  -58.95 input  175.53 | X-H torsion
[ 8008 7997 7996 7995 ] final  -16.08 input   59.86 | X-H torsion
[ 10167 10162 10161 10158 ] final  168.93 input  -65.29 | X-H torsion
[ 10718 10713 10712 10709 ] final  154.70 input   66.30 | X-H torsion
[ 10763 10752 10751 10750 ] final  -37.64 input  -60.55 | X-H torsion
[ 11005 11000 10999 10996 ] final  132.83 input  -57.11 | X-H torsion

> <Gold.Protein.ActiveResidues>
 VAL166  LYS551  ARG553  GLY616  TRP617  ASP618  TYR619  PRO620  LYS621  CYS622 
 ASP623  PHE694  ASN695  SER759  ASP760  ASP761  ALA762  ILE779  LEU786  VAL792 
 PHE793  MET794  SER795  GLU796  ALA797  LYS798  CYS799  TRP800  GLU811  SER814 

> <Gold.Protein.RotatedAtoms>
  151.4249  135.1002  159.9624 H   0  0  0  0  0  0  0  0  0  0  0  0  # atno 6907 bound_to 6896
  152.4976  133.8672  159.7290 H   0  0  0  0  0  0  0  0  0  0  0  0  # atno 6908 bound_to 6896
  150.9196  133.6838  159.2863 H   0  0  0  0  0  0  0  0  0  0  0  0  # atno 6909 bound_to 6896
  145.8333  140.8465  143.0072 H   0  0  0  0  0  0  0  0  0  0  0  0  # atno 7974 bound_to 7965
  154.5080  140.2179  155.9212 H   0  0  0  0  0  0  0  0  0  0  0  0  # atno 8008 bound_to 7997
  156.1517  140.3160  155.8626 H   0  0  0  0  0  0  0  0  0  0  0  0  # atno 8009 bound_to 7997
  155.3925  140.0479  157.3031 H   0  0  0  0  0  0  0  0  0  0  0  0  # atno 8010 bound_to 7997
  139.4980  144.3761  151.9672 H   0  0  0  0  0  0  0  0  0  0  0  0  # atno 10167 bound_to 10162
  157.2281  131.0733  151.1870 H   0  0  0  0  0  0  0  0  0  0  0  0  # atno 10718 bound_to 10713
  153.8997  135.6803  153.4756 H   0  0  0  0  0  0  0  0  0  0  0  0  # atno 10763 bound_to 10752
  153.1136  135.4772  154.9075 H   0  0  0  0  0  0  0  0  0  0  0  0  # atno 10764 bound_to 10752
  154.7581  135.3203  154.8384 H   0  0  0  0  0  0  0  0  0  0  0  0  # atno 10765 bound_to 10752
  139.9814  134.9547  156.9638 H   0  0  0  0  0  0  0  0  0  0  0  0  # atno 11005 bound_to 11000
  144.6738  140.0704  143.7473 LP  0  0  0  0  0  0  0  0  0  0  0  0  # atno 17320 bound_to 7965
  145.9547  139.2758  143.1191 LP  0  0  0  0  0  0  0  0  0  0  0  0  # atno 17321 bound_to 7965
  140.3197  144.3442  150.6012 LP  0  0  0  0  0  0  0  0  0  0  0  0  # atno 17342 bound_to 10162
  140.5732  143.2179  151.7561 LP  0  0  0  0  0  0  0  0  0  0  0  0  # atno 17343 bound_to 10162
  157.3506  130.7080  149.6438 LP  0  0  0  0  0  0  0  0  0  0  0  0  # atno 17370 bound_to 10713
  155.9677  130.4253  150.4650 LP  0  0  0  0  0  0  0  0  0  0  0  0  # atno 17371 bound_to 10713
  140.5089  134.1022  155.7266 LP  0  0  0  0  0  0  0  0  0  0  0  0  # atno 17394 bound_to 11000
  141.1485  133.9011  157.2156 LP  0  0  0  0  0  0  0  0  0  0  0  0  # atno 17395 bound_to 11000

$$$$
