AV-unprocessed.smi:157|AV-procd|sdf|1300|dock6
  -GOLD-   2262018583D 1   1.00000     0.00000
 Structure written by MMmdl.
 35 37  0  0  0  0  0  0  0  0  1 V2000
  151.4274  138.0880  154.5244 O   0  0  0  0  0  0  0  0  0  0  0  0
  152.4331  138.6883  155.3132 C   0  0  0  0  0  0  0  0  0  0  0  0
  151.8253  139.3323  156.5692 C   0  0  2  0  0  0  0  0  0  0  0  0
  152.8658  139.9271  157.3429 O   0  0  0  0  0  0  0  0  0  0  0  0
  152.6285  139.7371  158.7067 C   0  0  1  0  0  0  0  0  0  0  0  0
  152.6525  141.0704  159.3874 N   0  0  0  0  0  0  0  0  0  0  0  0
  153.2934  141.3656  160.5263 C   0  0  0  0  0  0  0  0  0  0  0  0
  153.1672  142.6220  160.9180 N   0  0  0  0  0  0  0  0  0  0  0  0
  152.3646  143.2011  159.9366 C   0  0  0  0  0  0  0  0  0  0  0  0
  152.0353  142.2556  158.9758 C   0  0  0  0  0  0  0  0  0  0  0  0
  151.3089  142.2437  157.8004 N   0  0  0  0  0  0  0  0  0  0  0  0
  150.4576  143.2005  157.6025 C   0  0  0  0  0  0  0  0  0  0  0  0
  150.1986  144.3378  158.3539 N   0  0  0  0  0  0  0  0  0  0  0  0
  151.2414  145.2270  158.8369 C   0  0  0  0  0  0  0  0  0  0  0  0
  152.0270  144.6617  160.0266 C   0  0  1  0  0  0  0  0  0  0  0  0
  151.2733  144.8394  161.2084 O   0  0  0  0  0  0  0  0  0  0  0  0
  151.2485  139.0975  158.8420 C   0  0  0  0  0  0  0  0  0  0  0  0
  151.1473  138.3497  157.5311 C   0  0  1  0  0  0  0  0  0  0  0  0
  149.7958  138.1095  157.1971 O   0  0  0  0  0  0  0  0  0  0  0  0
  151.1340  140.1315  156.2950 H   0  0  0  0  0  0  0  0  0  0  0  0
  153.4355  139.1483  159.1431 H   0  0  0  0  0  0  0  0  0  0  0  0
  152.9404  145.2455  160.1447 H   0  0  0  0  0  0  0  0  0  0  0  0
  151.7000  137.4106  157.5872 H   0  0  0  0  0  0  0  0  0  0  0  0
  151.1671  138.7005  153.8534 H   0  0  0  0  0  0  0  0  0  0  0  0
  153.1847  137.9445  155.5793 H   0  0  0  0  0  0  0  0  0  0  0  0
  152.9315  139.4474  154.7098 H   0  0  0  0  0  0  0  0  0  0  0  0
  153.8719  140.6410  161.0804 H   0  0  0  0  0  0  0  0  0  0  0  0
  149.8248  143.1555  156.7151 H   0  0  0  0  0  0  0  0  0  0  0  0
  149.3401  144.8416  158.1830 H   0  0  0  0  0  0  0  0  0  0  0  0
  151.9312  145.3949  158.0086 H   0  0  0  0  0  0  0  0  0  0  0  0
  150.8162  146.2011  159.0803 H   0  0  0  0  0  0  0  0  0  0  0  0
  151.7568  144.4592  161.9262 H   0  0  0  0  0  0  0  0  0  0  0  0
  151.1895  138.4608  159.7251 H   0  0  0  0  0  0  0  0  0  0  0  0
  150.4850  139.8755  158.9071 H   0  0  0  0  0  0  0  0  0  0  0  0
  149.7718  137.5795  156.4145 H   0  0  0  0  0  0  0  0  0  0  0  0
  1  2  1  0  0  0  0
  1 24  1  0  0  0  0
  2  3  1  0  0  0  0
  2 25  1  0  0  0  0
  2 26  1  0  0  0  0
  3 20  1  0  0  0  0
  3 18  1  0  0  0  0
  3  4  1  0  0  0  0
  4  5  1  0  0  0  0
  5 21  1  0  0  0  0
  5  6  1  0  0  0  0
  5 17  1  0  0  0  0
  6 10  1  0  0  0  0
  6  7  1  0  0  0  0
  7  8  2  0  0  0  0
  7 27  1  0  0  0  0
  8  9  1  0  0  0  0
  9 15  1  0  0  0  0
  9 10  2  0  0  0  0
 10 11  1  0  0  0  0
 11 12  2  0  0  0  0
 12 13  1  0  0  0  0
 12 28  1  0  0  0  0
 13 14  1  0  0  0  0
 13 29  1  0  0  0  0
 14 15  1  0  0  0  0
 14 30  1  0  0  0  0
 14 31  1  0  0  0  0
 15 22  1  0  0  0  0
 15 16  1  0  0  0  0
 16 32  1  0  0  0  0
 17 18  1  0  0  0  0
 17 33  1  0  0  0  0
 17 34  1  0  0  0  0
 18 23  1  0  0  0  0
 18 19  1  0  0  0  0
 19 35  1  0  0  0  0
M  END
> <s_m_source_file>
AV-unprocessed.smi

> <i_m_source_file_index>
157

> <i_lp_mmshare_version>
43012

> <i_f3d_flags>
0

> <s_epik_input>
W09IXVtDSDJdW0NASF0xT1tDQEhdKFtDSDJdW0NAQEhdMVtPSF0pbihbY0hdbjIpYyhjMjMpTj1bQ0hdW05IXVtDSDJdW0NASF0zW09IXQ==

> <s_epik_cmdline>
J2VwaWtfcHl0aG9uJywgJy1waCcsICc3LjAnLCAnLXRuJywgJzgnLCAnLW1hJywgJzIwMCcsICctbWV0YWxfYmluZGluZycsICctaW1hZScsICc8aW5maWxlLm1hZT4nLCAnLW9tYWUnLCAnPG91dGZpbGUubWFlPic=

> <r_lp_tautomer_probability>
1

> <r_epik_Ionization_Penalty>
0.0357149

> <r_epik_Ionization_Penalty_Charging>
0.0355056

> <r_epik_Ionization_Penalty_Neutral>
0.000209255

> <r_epik_State_Penalty>
0.0296046

> <r_epik_Charging_Adjusted_Penalty>
0.0651102

> <i_epik_Tot_Q>
0

> <i_epik_Tot_abs_Q>
0

> <r_epik_Metal_State_Penalty>
3.03559e-05

> <b_epik_Metal_Only>
0

> <s_epik_Chemistry_Notes>
This compound has an imine and may undergo hydrolysis. This compound contains an acetal/aminal-like group ( X-CH(R)-Y where X, Y are N, S, or O) that may be acid/base labile, releasing an aldehyde.

> <s_lp_Force_Field>
OPLS_2005

> <r_lp_Energy>
44.6585

> <b_lp_Chiralities_Consistent>
1

> <s_lp_Variant>
AV-unprocessed.smi:157-10

> <Gold.Version>
5.8.1

> <Gold.Id.Protein>
6NUR|6NUR_protein|mol2

> <Gold.PLP.Fitness>
43.2535

> <Gold.PLP.PLP>
-34.8324

> <Gold.PLP.part.hbond>
-4.0000

> <Gold.PLP.part.metal>
0.0000

> <Gold.PLP.part.buried>
-3.6994

> <Gold.PLP.part.nonpolar>
-27.3304

> <Gold.PLP.part.repulsive>
0.1711

> <Gold.PLP.ligand.clash>
0.0000

> <Gold.PLP.ligand.torsion>
0.2945

> <Gold.PLP.Chemscore.Hbond>
2.0000

> <Gold.PLP.Chemscore.CHOScore>
1.0000

> <Gold.PLP.Chemscore.Metal>
0.0000

> <Gold.Chemscore.Hbonds>
donor molecule, donor type, donor heavy atom, donor atom, acceptor molecule, acceptor atom, score
      L1  H    13    29       P1  8029  1.00
      P1  H  7997  8009       L1     4  1.00
      L1  C    12    28       P1  8028  0.98

> <Gold.PLP.Chemscore.Internal.Correction>
0.0102

> <Gold.Rescore>
     Score         DG    S(hbond)    S(metal)    S(lipo)     H(rot)  DE(clash)    DE(int)     intcor
      4.64      -7.55       1.45        0.00      55.92       3.64       1.50       1.41       ----

> <Gold.Chemscore.Fitness>
4.6445

> <Gold.Chemscore.DG>
-7.5539

> <Gold.Chemscore.ZeroCoef>
-5.4800

> <Gold.Chemscore.Hbond>
1.4490

> <Gold.Chemscore.Metal>
0.0000

> <Gold.Chemscore.Lipo>
55.9226

> <Gold.Chemscore.Internal_Hbond>
0.0000

> <Gold.Chemscore.DEClash>
1.5017

> <Gold.Chemscore.DEInternal>
1.4077

> <Gold.Chemscore.Rot>
3.6362

> <Gold.Chemscore.Internal.Correction>
   9.000000E+99

> <Gold.Chemscore.Hbonds>
donor molecule, donor type, donor heavy atom, donor atom, acceptor molecule, acceptor atom, score
      L1  H    13    29       P1  8029  0.28
      P1  H  7997  8009       L1     4  0.92

> <Gold.Chemscore.Hbond.Weighted>
-4.8396

> <Gold.Chemscore.Metal.Weighted>
-0.0000

> <Gold.Chemscore.Lipo.Weighted>
-6.5429

> <Gold.Chemscore.Internal_Hbond.Weighted>
0.0000

> <Gold.Chemscore.DEClash.Weighted>
1.5017

> <Gold.Chemscore.DEInternal.Weighted>
1.4077

> <Gold.Chemscore.Rot.Weighted>
9.3087

> <Gold.Chemscore.Internal.Correction.Weighted>
   9.000000E+99

> <Gold.Protein.RotatedTorsions>
[ 6907 6896 6895 6894 ] final   -0.12 input  -60.11 | X-H torsion
[ 7974 7965 7964 7962 ] final  -65.50 input  175.53 | X-H torsion
[ 8008 7997 7996 7995 ] final  165.00 input   59.86 | X-H torsion
[ 10167 10162 10161 10158 ] final   32.66 input  -65.29 | X-H torsion
[ 10718 10713 10712 10709 ] final   96.32 input   66.30 | X-H torsion
[ 10763 10752 10751 10750 ] final  101.30 input  -60.55 | X-H torsion
[ 11005 11000 10999 10996 ] final   -7.54 input  -57.11 | X-H torsion

> <Gold.Protein.ActiveResidues>
 VAL166  LYS551  ARG553  GLY616  TRP617  ASP618  TYR619  PRO620  LYS621  CYS622 
 ASP623  PHE694  ASN695  SER759  ASP760  ASP761  ALA762  ILE779  LEU786  VAL792 
 PHE793  MET794  SER795  GLU796  ALA797  LYS798  CYS799  TRP800  GLU811  SER814 

> <Gold.Protein.RotatedAtoms>
  151.5674  135.1063  159.9986 H   0  0  0  0  0  0  0  0  0  0  0  0  # atno 6907 bound_to 6896
  152.4417  133.7456  159.6676 H   0  0  0  0  0  0  0  0  0  0  0  0  # atno 6908 bound_to 6896
  150.8324  133.8000  159.3117 H   0  0  0  0  0  0  0  0  0  0  0  0  # atno 6909 bound_to 6896
  145.7534  140.8897  143.0467 H   0  0  0  0  0  0  0  0  0  0  0  0  # atno 7974 bound_to 7965
  156.1836  140.1682  156.8228 H   0  0  0  0  0  0  0  0  0  0  0  0  # atno 8008 bound_to 7997
  154.5388  140.0741  156.8506 H   0  0  0  0  0  0  0  0  0  0  0  0  # atno 8009 bound_to 7997
  155.3257  140.3376  155.4242 H   0  0  0  0  0  0  0  0  0  0  0  0  # atno 8010 bound_to 7997
  140.4478  144.1093  150.6186 H   0  0  0  0  0  0  0  0  0  0  0  0  # atno 10167 bound_to 10162
  157.6928  131.0574  150.4474 H   0  0  0  0  0  0  0  0  0  0  0  0  # atno 10718 bound_to 10713
  153.3249  135.4049  155.1448 H   0  0  0  0  0  0  0  0  0  0  0  0  # atno 10763 bound_to 10752
  154.8609  135.3596  154.5547 H   0  0  0  0  0  0  0  0  0  0  0  0  # atno 10764 bound_to 10752
  153.5982  135.7072  153.5454 H   0  0  0  0  0  0  0  0  0  0  0  0  # atno 10765 bound_to 10752
  140.7138  133.8886  155.8770 H   0  0  0  0  0  0  0  0  0  0  0  0  # atno 11005 bound_to 11000
  144.6845  139.9623  143.7480 LP  0  0  0  0  0  0  0  0  0  0  0  0  # atno 17320 bound_to 7965
  146.0334  139.3355  143.0741 LP  0  0  0  0  0  0  0  0  0  0  0  0  # atno 17321 bound_to 7965
  140.4243  143.2597  151.9676 LP  0  0  0  0  0  0  0  0  0  0  0  0  # atno 17342 bound_to 10162
  139.4794  144.5802  151.7944 LP  0  0  0  0  0  0  0  0  0  0  0  0  # atno 17343 bound_to 10162
  156.4828  130.4077  149.6452 LP  0  0  0  0  0  0  0  0  0  0  0  0  # atno 17370 bound_to 10713
  156.3491  130.7422  151.2379 LP  0  0  0  0  0  0  0  0  0  0  0  0  # atno 17371 bound_to 10713
  141.0061  134.1083  157.4268 LP  0  0  0  0  0  0  0  0  0  0  0  0  # atno 17394 bound_to 11000
  139.8865  135.0082  156.6501 LP  0  0  0  0  0  0  0  0  0  0  0  0  # atno 17395 bound_to 11000

$$$$
