AV-unprocessed.smi:158|AV-procd|sdf|1328|dock10
  -GOLD-   2262019 23D 1   1.00000     0.00000
 Structure written by MMmdl.
 31 33  0  0  0  0  0  0  0  0  1 V2000
  154.4158  140.4610  162.3320 N   0  0  0  0  0  0  0  0  0  0  0  0
  153.7745  141.0310  161.3023 C   0  0  0  0  0  0  0  0  0  0  0  0
  153.3387  142.3052  161.4401 N   0  0  0  0  0  0  0  0  0  0  0  0
  152.6951  142.9128  160.4352 C   0  0  0  0  0  0  0  0  0  0  0  0
  152.1865  144.5353  160.7219 Cl  0  0  0  0  0  0  0  0  0  0  0  0
  152.4014  142.4032  159.2337 N   0  0  0  0  0  0  0  0  0  0  0  0
  152.8389  141.1188  159.0940 C   0  0  0  0  0  0  0  0  0  0  0  0
  153.5318  140.3641  160.0767 C   0  0  0  0  0  0  0  0  0  0  0  0
  153.8208  139.0990  159.5836 N   0  0  0  0  0  0  0  0  0  0  0  0
  153.3246  139.1116  158.3745 C   0  0  0  0  0  0  0  0  0  0  0  0
  152.7068  140.2885  158.0031 N   0  0  0  0  0  0  0  0  0  0  0  0
  152.0443  140.6513  156.7109 C   0  0  1  0  0  0  0  0  0  0  0  0
  152.5422  139.8165  155.7077 O   0  0  0  0  0  0  0  0  0  0  0  0
  151.6247  138.7519  155.4733 C   0  0  2  0  0  0  0  0  0  0  0  0
  151.8825  138.0802  154.1137 C   0  0  0  0  0  0  0  0  0  0  0  0
  151.3111  136.7895  154.0987 O   0  0  0  0  0  0  0  0  0  0  0  0
  150.2718  139.4591  155.6206 C   0  0  2  0  0  0  0  0  0  0  0  0
  149.9538  140.1850  154.4451 O   0  0  0  0  0  0  0  0  0  0  0  0
  150.5337  140.3820  156.8027 C   0  0  2  0  0  0  0  0  0  0  0  0
  149.8344  141.5173  156.7524 F   0  0  0  0  0  0  0  0  0  0  0  0
  152.3149  141.6932  156.5349 H   0  0  0  0  0  0  0  0  0  0  0  0
  151.7147  138.0172  156.2760 H   0  0  0  0  0  0  0  0  0  0  0  0
  149.4631  138.7570  155.8252 H   0  0  0  0  0  0  0  0  0  0  0  0
  150.2935  139.8819  157.7426 H   0  0  0  0  0  0  0  0  0  0  0  0
  154.7503  139.5114  162.2512 H   0  0  0  0  0  0  0  0  0  0  0  0
  154.5654  140.9813  163.1844 H   0  0  0  0  0  0  0  0  0  0  0  0
  153.3991  138.2537  157.7219 H   0  0  0  0  0  0  0  0  0  0  0  0
  151.4119  138.6546  153.3152 H   0  0  0  0  0  0  0  0  0  0  0  0
  152.9486  138.0235  153.8919 H   0  0  0  0  0  0  0  0  0  0  0  0
  151.0200  136.5993  153.2199 H   0  0  0  0  0  0  0  0  0  0  0  0
  149.5279  139.6018  153.8357 H   0  0  0  0  0  0  0  0  0  0  0  0
  1  2  1  0  0  0  0
  1 25  1  0  0  0  0
  1 26  1  0  0  0  0
  2  8  1  0  0  0  0
  2  3  2  0  0  0  0
  3  4  1  0  0  0  0
  4  5  1  0  0  0  0
  4  6  2  0  0  0  0
  6  7  1  0  0  0  0
  7 11  1  0  0  0  0
  7  8  2  0  0  0  0
  8  9  1  0  0  0  0
  9 10  2  0  0  0  0
 10 11  1  0  0  0  0
 10 27  1  0  0  0  0
 11 12  1  0  0  0  0
 12 21  1  0  0  0  0
 12 19  1  0  0  0  0
 12 13  1  0  0  0  0
 13 14  1  0  0  0  0
 14 22  1  0  0  0  0
 14 15  1  0  0  0  0
 14 17  1  0  0  0  0
 15 16  1  0  0  0  0
 15 28  1  0  0  0  0
 15 29  1  0  0  0  0
 16 30  1  0  0  0  0
 17 23  1  0  0  0  0
 17 18  1  0  0  0  0
 17 19  1  0  0  0  0
 18 31  1  0  0  0  0
 19 24  1  0  0  0  0
 19 20  1  0  0  0  0
M  END
> <s_m_source_file>
AV-unprocessed.smi

> <i_m_source_file_index>
158

> <i_lp_mmshare_version>
43012

> <i_f3d_flags>
0

> <s_epik_input>
Q2xjKG4xKW5jKFtOSDJdKWMoYzEyKW5bY0hdbjJbQ0BASF0zT1tDQEhdKFtDSDJdW09IXSlbQ0BASF0oW09IXSlbQ0BASF0zRg==

> <s_epik_cmdline>
J2VwaWtfcHl0aG9uJywgJy1waCcsICc3LjAnLCAnLXRuJywgJzgnLCAnLW1hJywgJzIwMCcsICctbWV0YWxfYmluZGluZycsICctaW1hZScsICc8aW5maWxlLm1hZT4nLCAnLW9tYWUnLCAnPG91dGZpbGUubWFlPic=

> <r_lp_tautomer_probability>
1

> <r_epik_Ionization_Penalty>
6.51543e-05

> <r_epik_Ionization_Penalty_Charging>
0

> <r_epik_Ionization_Penalty_Neutral>
6.51543e-05

> <r_epik_State_Penalty>
-0

> <r_epik_Charging_Adjusted_Penalty>
0

> <i_epik_Tot_Q>
0

> <i_epik_Tot_abs_Q>
0

> <r_epik_Metal_State_Penalty>
-0

> <b_epik_Metal_Only>
0

> <s_epik_Chemistry_Notes>
This compound contains an acetal/aminal-like group ( X-CH(R)-Y where X, Y are N, S, or O) that may be acid/base labile, releasing an aldehyde.

> <s_lp_Force_Field>
OPLS_2005

> <r_lp_Energy>
37.0626

> <b_lp_Chiralities_Consistent>
1

> <s_lp_Variant>
AV-unprocessed.smi:158-6

> <Gold.Version>
5.8.1

> <Gold.Id.Protein>
6NUR|6NUR_protein|mol2

> <Gold.PLP.Fitness>
41.8686

> <Gold.PLP.PLP>
-31.7600

> <Gold.PLP.part.hbond>
-4.4042

> <Gold.PLP.part.metal>
0.0000

> <Gold.PLP.part.buried>
-3.4685

> <Gold.PLP.part.nonpolar>
-21.9580

> <Gold.PLP.part.repulsive>
0.0234

> <Gold.PLP.ligand.clash>
0.0000

> <Gold.PLP.ligand.torsion>
0.9064

> <Gold.PLP.Chemscore.Hbond>
3.9675

> <Gold.PLP.Chemscore.CHOScore>
0.0000

> <Gold.PLP.Chemscore.Metal>
0.0000

> <Gold.Chemscore.Hbonds>
donor molecule, donor type, donor heavy atom, donor atom, acceptor molecule, acceptor atom, score
      L1  H    16    30       P1  7949  1.00
      P1  H  7989  7998       L1    18  0.97
      P1  H  7997  8008       L1    13  1.00
      P1  H 10752 10764       L1    16  1.00

> <Gold.PLP.Chemscore.Internal.Correction>
0.0190

> <Gold.Rescore>
     Score         DG    S(hbond)    S(metal)    S(lipo)     H(rot)  DE(clash)    DE(int)     intcor
      7.00     -10.11       2.13        0.00      47.23       3.12       2.36       0.75       ----

> <Gold.Chemscore.Fitness>
6.9994

> <Gold.Chemscore.DG>
-10.1095

> <Gold.Chemscore.ZeroCoef>
-5.4800

> <Gold.Chemscore.Hbond>
2.1253

> <Gold.Chemscore.Metal>
0.0000

> <Gold.Chemscore.Lipo>
47.2291

> <Gold.Chemscore.Internal_Hbond>
0.0000

> <Gold.Chemscore.DEClash>
2.3583

> <Gold.Chemscore.DEInternal>
0.7517

> <Gold.Chemscore.Rot>
3.1230

> <Gold.Chemscore.Internal.Correction>
   9.000000E+99

> <Gold.Chemscore.Hbonds>
donor molecule, donor type, donor heavy atom, donor atom, acceptor molecule, acceptor atom, score
      L1  H    16    30       P1  7949  0.25
      P1  H  7989  7998       L1    18  0.41
      P1  H  7997  8008       L1    13  0.24
      P1  H 10752 10764       L1    16  0.18

> <Gold.Chemscore.Hbond.Weighted>
-7.0986

> <Gold.Chemscore.Metal.Weighted>
-0.0000

> <Gold.Chemscore.Lipo.Weighted>
-5.5258

> <Gold.Chemscore.Internal_Hbond.Weighted>
0.0000

> <Gold.Chemscore.DEClash.Weighted>
2.3583

> <Gold.Chemscore.DEInternal.Weighted>
0.7517

> <Gold.Chemscore.Rot.Weighted>
7.9950

> <Gold.Chemscore.Internal.Correction.Weighted>
   9.000000E+99

> <Gold.Protein.RotatedTorsions>
[ 6907 6896 6895 6894 ] final   51.55 input  -60.11 | X-H torsion
[ 7974 7965 7964 7962 ] final -109.13 input  175.53 | X-H torsion
[ 8008 7997 7996 7995 ] final  -12.55 input   59.86 | X-H torsion
[ 10167 10162 10161 10158 ] final  175.68 input  -65.29 | X-H torsion
[ 10718 10713 10712 10709 ] final  -86.97 input   66.30 | X-H torsion
[ 10763 10752 10751 10750 ] final  -69.06 input  -60.55 | X-H torsion
[ 11005 11000 10999 10996 ] final  117.30 input  -57.11 | X-H torsion

> <Gold.Protein.ActiveResidues>
 VAL166  LYS551  ARG553  GLY616  TRP617  ASP618  TYR619  PRO620  LYS621  CYS622 
 ASP623  PHE694  ASN695  SER759  ASP760  ASP761  ALA762  ILE779  LEU786  VAL792 
 PHE793  MET794  SER795  GLU796  ALA797  LYS798  CYS799  TRP800  GLU811  SER814 

> <Gold.Protein.RotatedAtoms>
  152.3138  134.7464  160.0329 H   0  0  0  0  0  0  0  0  0  0  0  0  # atno 6907 bound_to 6896
  151.7936  133.3356  159.3514 H   0  0  0  0  0  0  0  0  0  0  0  0  # atno 6908 bound_to 6896
  150.7334  134.5750  159.5954 H   0  0  0  0  0  0  0  0  0  0  0  0  # atno 6909 bound_to 6896
  145.1844  140.8986  143.3461 H   0  0  0  0  0  0  0  0  0  0  0  0  # atno 7974 bound_to 7965
  154.5368  140.2273  155.8710 H   0  0  0  0  0  0  0  0  0  0  0  0  # atno 8008 bound_to 7997
  156.1819  140.3098  155.9127 H   0  0  0  0  0  0  0  0  0  0  0  0  # atno 8009 bound_to 7997
  155.3339  140.0447  157.3034 H   0  0  0  0  0  0  0  0  0  0  0  0  # atno 8010 bound_to 7997
  139.5186  144.3004  152.0384 H   0  0  0  0  0  0  0  0  0  0  0  0  # atno 10167 bound_to 10162
  155.9987  130.4783  150.4796 H   0  0  0  0  0  0  0  0  0  0  0  0  # atno 10718 bound_to 10713
  154.3980  135.6037  153.5881 H   0  0  0  0  0  0  0  0  0  0  0  0  # atno 10763 bound_to 10752
  152.9788  135.5900  154.4218 H   0  0  0  0  0  0  0  0  0  0  0  0  # atno 10764 bound_to 10752
  154.4012  135.2843  155.2073 H   0  0  0  0  0  0  0  0  0  0  0  0  # atno 10765 bound_to 10752
  139.9070  134.9608  156.7329 H   0  0  0  0  0  0  0  0  0  0  0  0  # atno 11005 bound_to 11000
  145.0104  139.3515  143.6123 LP  0  0  0  0  0  0  0  0  0  0  0  0  # atno 17320 bound_to 7965
  146.3447  139.9364  142.8746 LP  0  0  0  0  0  0  0  0  0  0  0  0  # atno 17321 bound_to 7965
  140.2452  144.4228  150.6244 LP  0  0  0  0  0  0  0  0  0  0  0  0  # atno 17342 bound_to 10162
  140.6263  143.2182  151.6589 LP  0  0  0  0  0  0  0  0  0  0  0  0  # atno 17343 bound_to 10162
  157.2803  131.0605  151.2202 LP  0  0  0  0  0  0  0  0  0  0  0  0  # atno 17370 bound_to 10713
  157.3251  130.6956  149.6291 LP  0  0  0  0  0  0  0  0  0  0  0  0  # atno 17371 bound_to 10713
  140.6911  133.9390  155.7966 LP  0  0  0  0  0  0  0  0  0  0  0  0  # atno 17394 bound_to 11000
  141.0441  134.0579  157.3866 LP  0  0  0  0  0  0  0  0  0  0  0  0  # atno 17395 bound_to 11000

$$$$
