AV-unprocessed.smi:2837|AV-procd|sdf|10920|dock4
  -GOLD-   2272015363D 1   1.00000     0.00000
 Structure written by MMmdl.
 32 34  0  0  0  0  0  0  0  0  1 V2000
  155.1923  140.9073  159.9702 F   0  0  0  0  0  0  0  0  0  0  0  0
  154.1497  140.9545  160.8354 C   0  0  0  0  0  0  0  0  0  0  0  0
  154.6532  140.8392  162.0878 F   0  0  0  0  0  0  0  0  0  0  0  0
  153.4849  142.1343  160.7146 O   0  0  0  0  0  0  0  0  0  0  0  0
  152.6337  142.3232  159.6493 C   0  0  0  0  0  0  0  0  0  0  0  0
  152.5205  143.5410  158.9378 C   0  0  0  0  0  0  0  0  0  0  0  0
  151.6044  143.6284  157.8722 C   0  0  0  0  0  0  0  0  0  0  0  0
  150.8211  142.5005  157.5527 C   0  0  0  0  0  0  0  0  0  0  0  0
  149.9092  142.5964  156.4918 N   0  0  0  0  0  0  0  0  0  0  0  0
  149.1139  141.4521  156.0604 C   0  0  2  0  0  0  0  0  0  0  0  0
  149.9457  140.1796  155.8535 C   0  0  0  0  0  0  0  0  0  0  0  0
  149.6112  139.8146  154.4019 C   0  0  1  0  0  0  0  0  0  0  0  0
  148.1577  139.3489  154.2368 C   0  0  0  0  0  0  0  0  0  0  0  0
  147.3900  140.6623  154.3821 C   0  0  0  0  0  0  0  0  0  0  0  0
  148.5224  141.6611  154.6559 C   0  0  2  0  0  0  0  0  0  0  0  0
  149.5380  141.1096  153.8329 O   0  0  0  0  0  0  0  0  0  0  0  0
  150.9160  141.3360  158.2364 N   0  0  0  0  0  0  0  0  0  0  0  0
  151.7979  141.2587  159.2555 C   0  0  0  0  0  0  0  0  0  0  0  0
  153.4928  140.1019  160.6611 H   0  0  0  0  0  0  0  0  0  0  0  0
  153.1157  144.4036  159.1979 H   0  0  0  0  0  0  0  0  0  0  0  0
  151.5050  144.5489  157.3156 H   0  0  0  0  0  0  0  0  0  0  0  0
  149.8046  143.4710  155.9978 H   0  0  0  0  0  0  0  0  0  0  0  0
  148.3087  141.2890  156.7783 H   0  0  0  0  0  0  0  0  0  0  0  0
  151.0141  140.3763  155.9546 H   0  0  0  0  0  0  0  0  0  0  0  0
  149.6813  139.3874  156.5542 H   0  0  0  0  0  0  0  0  0  0  0  0
  150.3436  139.1581  153.9315 H   0  0  0  0  0  0  0  0  0  0  0  0
  147.9955  138.9198  153.2474 H   0  0  0  0  0  0  0  0  0  0  0  0
  147.8739  138.6063  154.9835 H   0  0  0  0  0  0  0  0  0  0  0  0
  146.8749  140.9086  153.4528 H   0  0  0  0  0  0  0  0  0  0  0  0
  146.6520  140.6367  155.1845 H   0  0  0  0  0  0  0  0  0  0  0  0
  148.2583  142.6937  154.4235 H   0  0  0  0  0  0  0  0  0  0  0  0
  151.8408  140.3123  159.7741 H   0  0  0  0  0  0  0  0  0  0  0  0
  1  2  1  0  0  0  0
  2  3  1  0  0  0  0
  2  4  1  0  0  0  0
  2 19  1  0  0  0  0
  4  5  1  0  0  0  0
  5 18  1  0  0  0  0
  5  6  2  0  0  0  0
  6  7  1  0  0  0  0
  6 20  1  0  0  0  0
  7  8  2  0  0  0  0
  7 21  1  0  0  0  0
  8  9  1  0  0  0  0
  8 17  1  0  0  0  0
  9 10  1  0  0  0  0
  9 22  1  0  0  0  0
 10 15  1  0  0  0  0
 10 11  1  0  0  0  0
 10 23  1  0  0  0  0
 11 12  1  0  0  0  0
 11 24  1  0  0  0  0
 11 25  1  0  0  0  0
 12 16  1  0  0  0  0
 12 13  1  0  0  0  0
 12 26  1  0  0  0  0
 13 14  1  0  0  0  0
 13 27  1  0  0  0  0
 13 28  1  0  0  0  0
 14 15  1  0  0  0  0
 14 29  1  0  0  0  0
 14 30  1  0  0  0  0
 15 16  1  0  0  0  0
 15 31  1  0  0  0  0
 17 18  2  0  0  0  0
 18 32  1  0  0  0  0
M  END
> <s_m_source_file>
AV-unprocessed.smi

> <i_m_source_file_index>
2837

> <i_lp_mmshare_version>
43012

> <i_f3d_flags>
0

> <s_epik_input>
RltDSF0oRilPYzFbY0hdW2NIXWMobltjSF0xKVtOSF1bQ0BIXShbQ0gyXVtDQEBIXTIzKVtDQEBIXShPMylbQ0gyXVtDSDJdMg==

> <s_epik_cmdline>
J2VwaWtfcHl0aG9uJywgJy1waCcsICc3LjAnLCAnLXRuJywgJzgnLCAnLW1hJywgJzIwMCcsICctbWV0YWxfYmluZGluZycsICctaW1hZScsICc8aW5maWxlLm1hZT4nLCAnLW9tYWUnLCAnPG91dGZpbGUubWFlPic=

> <r_lp_tautomer_probability>
1

> <r_epik_Ionization_Penalty>
0.0124072

> <r_epik_Ionization_Penalty_Charging>
0

> <r_epik_Ionization_Penalty_Neutral>
0.0124072

> <r_epik_State_Penalty>
0.00959565

> <r_epik_Charging_Adjusted_Penalty>
0.00959565

> <i_epik_Tot_Q>
0

> <i_epik_Tot_abs_Q>
0

> <r_epik_Metal_State_Penalty>
9.67369e-06

> <b_epik_Metal_Only>
0

> <s_lp_Force_Field>
OPLS_2005

> <r_lp_Energy>
39.7079

> <b_lp_Chiralities_Consistent>
1

> <s_lp_Variant>
AV-unprocessed.smi:2837-1

> <Gold.Version>
5.8.1

> <Gold.Id.Protein>
6NUR|6NUR_protein|mol2

> <Gold.PLP.Fitness>
41.8299

> <Gold.PLP.PLP>
-36.9731

> <Gold.PLP.part.hbond>
-2.9890

> <Gold.PLP.part.metal>
0.0000

> <Gold.PLP.part.buried>
-3.4246

> <Gold.PLP.part.nonpolar>
-33.0550

> <Gold.PLP.part.repulsive>
2.0020

> <Gold.PLP.ligand.clash>
0.0000

> <Gold.PLP.ligand.torsion>
0.5721

> <Gold.PLP.Chemscore.Hbond>
1.9886

> <Gold.PLP.Chemscore.CHOScore>
0.0000

> <Gold.PLP.Chemscore.Metal>
0.0000

> <Gold.Chemscore.Hbonds>
donor molecule, donor type, donor heavy atom, donor atom, acceptor molecule, acceptor atom, score
      L1  H     9    22       P1  8028  0.96
      P1  H  7989  7998       L1    16  0.08
      P1  H  8011  8017       L1    16  0.90

> <Gold.PLP.Chemscore.Internal.Correction>
0.0353

> <Gold.Rescore>
     Score         DG    S(hbond)    S(metal)    S(lipo)     H(rot)  DE(clash)    DE(int)     intcor
     16.81     -17.59       1.71        0.00      83.57       1.32       0.38       0.40       ----

> <Gold.Chemscore.Fitness>
16.8064

> <Gold.Chemscore.DG>
-17.5925

> <Gold.Chemscore.ZeroCoef>
-5.4800

> <Gold.Chemscore.Hbond>
1.7116

> <Gold.Chemscore.Metal>
0.0000

> <Gold.Chemscore.Lipo>
83.5748

> <Gold.Chemscore.Internal_Hbond>
0.0000

> <Gold.Chemscore.DEClash>
0.3833

> <Gold.Chemscore.DEInternal>
0.4029

> <Gold.Chemscore.Rot>
1.3213

> <Gold.Chemscore.Internal.Correction>
   9.000000E+99

> <Gold.Chemscore.Hbonds>
donor molecule, donor type, donor heavy atom, donor atom, acceptor molecule, acceptor atom, score
      L1  H     9    22       P1  8028  0.90
      P1  H  8011  8017       L1    16  0.47

> <Gold.Chemscore.Hbond.Weighted>
-5.7168

> <Gold.Chemscore.Metal.Weighted>
-0.0000

> <Gold.Chemscore.Lipo.Weighted>
-9.7783

> <Gold.Chemscore.Internal_Hbond.Weighted>
0.0000

> <Gold.Chemscore.DEClash.Weighted>
0.3833

> <Gold.Chemscore.DEInternal.Weighted>
0.4029

> <Gold.Chemscore.Rot.Weighted>
3.3825

> <Gold.Chemscore.Internal.Correction.Weighted>
   9.000000E+99

> <Gold.Protein.RotatedTorsions>
[ 6907 6896 6895 6894 ] final -169.70 input  -60.11 | X-H torsion
[ 7974 7965 7964 7962 ] final   83.81 input  175.53 | X-H torsion
[ 8008 7997 7996 7995 ] final  -92.51 input   59.86 | X-H torsion
[ 10167 10162 10161 10158 ] final   -2.11 input  -65.29 | X-H torsion
[ 10718 10713 10712 10709 ] final  -17.20 input   66.30 | X-H torsion
[ 10763 10752 10751 10750 ] final   40.41 input  -60.55 | X-H torsion
[ 11005 11000 10999 10996 ] final  -82.77 input  -57.11 | X-H torsion

> <Gold.Protein.ActiveResidues>
 VAL166  LYS551  ARG553  GLY616  TRP617  ASP618  TYR619  PRO620  LYS621  CYS622 
 ASP623  PHE694  ASN695  SER759  ASP760  ASP761  ALA762  ILE779  LEU786  VAL792 
 PHE793  MET794  SER795  GLU796  ALA797  LYS798  CYS799  TRP800  GLU811  SER814 

> <Gold.Protein.RotatedAtoms>
  151.4959  133.3515  159.2860 H   0  0  0  0  0  0  0  0  0  0  0  0  # atno 6907 bound_to 6896
  150.8805  134.8197  159.7232 H   0  0  0  0  0  0  0  0  0  0  0  0  # atno 6908 bound_to 6896
  152.4759  134.4855  159.9731 H   0  0  0  0  0  0  0  0  0  0  0  0  # atno 6909 bound_to 6896
  145.6071  139.2362  143.2213 H   0  0  0  0  0  0  0  0  0  0  0  0  # atno 7974 bound_to 7965
  154.7241  140.0508  157.0666 H   0  0  0  0  0  0  0  0  0  0  0  0  # atno 8008 bound_to 7997
  155.0388  140.3166  155.4713 H   0  0  0  0  0  0  0  0  0  0  0  0  # atno 8009 bound_to 7997
  156.2824  140.2136  156.5512 H   0  0  0  0  0  0  0  0  0  0  0  0  # atno 8010 bound_to 7997
  140.6838  143.6696  150.8197 H   0  0  0  0  0  0  0  0  0  0  0  0  # atno 10167 bound_to 10162
  156.5769  130.4764  149.6337 H   0  0  0  0  0  0  0  0  0  0  0  0  # atno 10718 bound_to 10713
  152.9937  135.6192  154.2622 H   0  0  0  0  0  0  0  0  0  0  0  0  # atno 10763 bound_to 10752
  154.2358  135.2790  155.2874 H   0  0  0  0  0  0  0  0  0  0  0  0  # atno 10764 bound_to 10752
  154.5411  135.5760  153.6898 H   0  0  0  0  0  0  0  0  0  0  0  0  # atno 10765 bound_to 10752
  141.1661  133.7261  156.8621 H   0  0  0  0  0  0  0  0  0  0  0  0  # atno 11005 bound_to 11000
  146.1533  140.6894  142.9312 LP  0  0  0  0  0  0  0  0  0  0  0  0  # atno 17320 bound_to 7965
  144.7285  140.4601  143.6955 LP  0  0  0  0  0  0  0  0  0  0  0  0  # atno 17321 bound_to 7965
  140.0400  143.5356  152.2722 LP  0  0  0  0  0  0  0  0  0  0  0  0  # atno 17342 bound_to 10162
  139.6180  144.7623  151.2804 LP  0  0  0  0  0  0  0  0  0  0  0  0  # atno 17343 bound_to 10162
  156.2665  130.6992  151.1777 LP  0  0  0  0  0  0  0  0  0  0  0  0  # atno 17370 bound_to 10713
  157.7335  131.0590  150.5572 LP  0  0  0  0  0  0  0  0  0  0  0  0  # atno 17371 bound_to 10713
  140.1841  134.9012  157.2984 LP  0  0  0  0  0  0  0  0  0  0  0  0  # atno 17394 bound_to 11000
  140.2362  134.3850  155.7500 LP  0  0  0  0  0  0  0  0  0  0  0  0  # atno 17395 bound_to 11000

$$$$
