AV-unprocessed.smi:2811|AV-procd|sdf|10829|dock1
  -GOLD-   2272015273D 1   1.00000     0.00000
 Structure written by MMmdl.
 38 40  0  0  0  0  0  0  0  0  1 V2000
  152.0860  145.8586  160.4998 C   0  0  0  0  0  0  0  0  0  0  0  0
  152.1265  144.5084  159.8156 C   0  0  0  0  0  0  0  0  0  0  0  0
  153.0021  143.5015  160.2635 C   0  0  0  0  0  0  0  0  0  0  0  0
  152.9964  142.2674  159.5858 C   0  0  0  0  0  0  0  0  0  0  0  0
  153.9136  141.1406  160.0128 C   0  0  0  0  0  0  0  0  0  0  0  0
  152.1956  142.0115  158.5295 N   0  0  0  0  0  0  0  0  0  0  0  0
  151.3465  142.9727  158.0854 C   0  0  0  0  0  0  0  0  0  0  0  0
  150.4545  142.8194  156.9830 N   0  0  0  0  0  0  0  0  0  0  0  0
  150.2251  141.7785  156.1533 C   0  0  0  0  0  0  0  0  0  0  0  0
  150.8414  140.7210  156.2760 O   0  0  0  0  0  0  0  0  0  0  0  0
  149.2995  141.9693  155.2002 N   0  0  0  0  0  0  0  0  0  0  0  0
  148.9020  140.9876  154.1977 C   0  0  2  0  0  0  0  0  0  0  0  0
  147.5779  141.3443  153.5110 C   0  0  0  0  0  0  0  0  0  0  0  0
  146.7143  140.1184  153.8359 C   0  0  1  0  0  0  0  0  0  0  0  0
  147.1854  138.8638  153.0857 C   0  0  0  0  0  0  0  0  0  0  0  0
  148.4738  138.5154  153.8318 C   0  0  0  0  0  0  0  0  0  0  0  0
  148.5494  139.6474  154.8645 C   0  0  2  0  0  0  0  0  0  0  0  0
  147.1707  139.8270  155.1445 O   0  0  0  0  0  0  0  0  0  0  0  0
  151.2913  144.2382  158.7125 C   0  0  0  0  0  0  0  0  0  0  0  0
  152.4433  145.7871  161.5275 H   0  0  0  0  0  0  0  0  0  0  0  0
  151.0682  146.2492  160.5222 H   0  0  0  0  0  0  0  0  0  0  0  0
  152.7159  146.5695  159.9649 H   0  0  0  0  0  0  0  0  0  0  0  0
  153.6609  143.6709  161.1030 H   0  0  0  0  0  0  0  0  0  0  0  0
  154.2668  141.2888  161.0336 H   0  0  0  0  0  0  0  0  0  0  0  0
  154.7801  141.0904  159.3532 H   0  0  0  0  0  0  0  0  0  0  0  0
  153.3939  140.1826  159.9709 H   0  0  0  0  0  0  0  0  0  0  0  0
  149.8892  143.6336  156.7917 H   0  0  0  0  0  0  0  0  0  0  0  0
  148.8406  142.8692  155.1644 H   0  0  0  0  0  0  0  0  0  0  0  0
  149.7099  140.8542  153.4757 H   0  0  0  0  0  0  0  0  0  0  0  0
  147.1323  142.2440  153.9384 H   0  0  0  0  0  0  0  0  0  0  0  0
  147.6894  141.5009  152.4376 H   0  0  0  0  0  0  0  0  0  0  0  0
  145.6420  140.3018  153.7638 H   0  0  0  0  0  0  0  0  0  0  0  0
  146.4584  138.0566  153.1815 H   0  0  0  0  0  0  0  0  0  0  0  0
  147.3479  139.0535  152.0241 H   0  0  0  0  0  0  0  0  0  0  0  0
  148.3790  137.5477  154.3256 H   0  0  0  0  0  0  0  0  0  0  0  0
  149.3478  138.4825  153.1803 H   0  0  0  0  0  0  0  0  0  0  0  0
  149.1585  139.4029  155.7357 H   0  0  0  0  0  0  0  0  0  0  0  0
  150.6138  144.9990  158.3514 H   0  0  0  0  0  0  0  0  0  0  0  0
  1  2  1  0  0  0  0
  1 20  1  0  0  0  0
  1 21  1  0  0  0  0
  1 22  1  0  0  0  0
  2 19  1  0  0  0  0
  2  3  2  0  0  0  0
  3  4  1  0  0  0  0
  3 23  1  0  0  0  0
  4  5  1  0  0  0  0
  4  6  2  0  0  0  0
  5 24  1  0  0  0  0
  5 25  1  0  0  0  0
  5 26  1  0  0  0  0
  6  7  1  0  0  0  0
  7  8  1  0  0  0  0
  7 19  2  0  0  0  0
  8  9  1  0  0  0  0
  8 27  1  0  0  0  0
  9 10  2  0  0  0  0
  9 11  1  0  0  0  0
 11 12  1  0  0  0  0
 11 28  1  0  0  0  0
 12 17  1  0  0  0  0
 12 13  1  0  0  0  0
 12 29  1  0  0  0  0
 13 14  1  0  0  0  0
 13 30  1  0  0  0  0
 13 31  1  0  0  0  0
 14 18  1  0  0  0  0
 14 15  1  0  0  0  0
 14 32  1  0  0  0  0
 15 16  1  0  0  0  0
 15 33  1  0  0  0  0
 15 34  1  0  0  0  0
 16 17  1  0  0  0  0
 16 35  1  0  0  0  0
 16 36  1  0  0  0  0
 17 18  1  0  0  0  0
 17 37  1  0  0  0  0
 19 38  1  0  0  0  0
M  END
> <s_m_source_file>
AV-unprocessed.smi

> <i_m_source_file_index>
2811

> <i_lp_mmshare_version>
43012

> <i_f3d_flags>
0

> <s_epik_input>
W0NIM11jMVtjSF1jKFtDSDNdKW5jKFtjSF0xKVtOSF1DKD1PKVtOSF1bQ0BIXShbQ0gyXVtDQEBIXTIzKVtDQEBIXShPMylbQ0gyXVtDSDJdMg==

> <s_epik_cmdline>
J2VwaWtfcHl0aG9uJywgJy1waCcsICc3LjAnLCAnLXRuJywgJzgnLCAnLW1hJywgJzIwMCcsICctbWV0YWxfYmluZGluZycsICctaW1hZScsICc8aW5maWxlLm1hZT4nLCAnLW9tYWUnLCAnPG91dGZpbGUubWFlPic=

> <r_lp_tautomer_probability>
1

> <r_epik_Ionization_Penalty>
0.000281548

> <r_epik_Ionization_Penalty_Charging>
0

> <r_epik_Ionization_Penalty_Neutral>
0.000281548

> <r_epik_State_Penalty>
-0

> <r_epik_Charging_Adjusted_Penalty>
0

> <i_epik_Tot_Q>
0

> <i_epik_Tot_abs_Q>
0

> <r_epik_Metal_State_Penalty>
-0

> <b_epik_Metal_Only>
0

> <s_lp_Force_Field>
OPLS_2005

> <r_lp_Energy>
40.4473

> <b_lp_Chiralities_Consistent>
1

> <s_lp_Variant>
AV-unprocessed.smi:2811-1

> <Gold.Version>
5.8.1

> <Gold.Id.Protein>
6NUR|6NUR_protein|mol2

> <Gold.PLP.Fitness>
44.2314

> <Gold.PLP.PLP>
-38.5091

> <Gold.PLP.part.hbond>
-2.0000

> <Gold.PLP.part.metal>
0.0000

> <Gold.PLP.part.buried>
-4.1386

> <Gold.PLP.part.nonpolar>
-32.8428

> <Gold.PLP.part.repulsive>
0.2976

> <Gold.PLP.ligand.clash>
0.0000

> <Gold.PLP.ligand.torsion>
0.1407

> <Gold.PLP.Chemscore.Hbond>
1.9920

> <Gold.PLP.Chemscore.CHOScore>
0.0000

> <Gold.PLP.Chemscore.Metal>
0.0000

> <Gold.Chemscore.Hbonds>
donor molecule, donor type, donor heavy atom, donor atom, acceptor molecule, acceptor atom, score
      L1  H     8    27       P1  8028  1.00
      L1  H    11    28       P1  8028  0.96

> <Gold.PLP.Chemscore.Internal.Correction>
0.0277

> <Gold.Rescore>
     Score         DG    S(hbond)    S(metal)    S(lipo)     H(rot)  DE(clash)    DE(int)     intcor
     18.66     -21.38       1.90        0.00     103.66       1.00       0.07       2.64       ----

> <Gold.Chemscore.Fitness>
18.6639

> <Gold.Chemscore.DG>
-21.3798

> <Gold.Chemscore.ZeroCoef>
-5.4800

> <Gold.Chemscore.Hbond>
1.8956

> <Gold.Chemscore.Metal>
0.0000

> <Gold.Chemscore.Lipo>
103.6621

> <Gold.Chemscore.Internal_Hbond>
0.0000

> <Gold.Chemscore.DEClash>
0.0745

> <Gold.Chemscore.DEInternal>
2.6414

> <Gold.Chemscore.Rot>
1.0000

> <Gold.Chemscore.Internal.Correction>
   9.000000E+99

> <Gold.Chemscore.Hbonds>
donor molecule, donor type, donor heavy atom, donor atom, acceptor molecule, acceptor atom, score
      L1  H     8    27       P1  8028  0.97
      L1  H    11    28       P1  8028  0.92

> <Gold.Chemscore.Hbond.Weighted>
-6.3313

> <Gold.Chemscore.Metal.Weighted>
-0.0000

> <Gold.Chemscore.Lipo.Weighted>
-12.1285

> <Gold.Chemscore.Internal_Hbond.Weighted>
0.0000

> <Gold.Chemscore.DEClash.Weighted>
0.0745

> <Gold.Chemscore.DEInternal.Weighted>
2.6414

> <Gold.Chemscore.Rot.Weighted>
2.5600

> <Gold.Chemscore.Internal.Correction.Weighted>
   9.000000E+99

> <Gold.Protein.RotatedTorsions>
[ 6907 6896 6895 6894 ] final -172.65 input  -60.11 | X-H torsion
[ 7974 7965 7964 7962 ] final  -67.15 input  175.53 | X-H torsion
[ 8008 7997 7996 7995 ] final  162.93 input   59.86 | X-H torsion
[ 10167 10162 10161 10158 ] final   98.86 input  -65.29 | X-H torsion
[ 10718 10713 10712 10709 ] final -120.92 input   66.30 | X-H torsion
[ 10763 10752 10751 10750 ] final   57.42 input  -60.55 | X-H torsion
[ 11005 11000 10999 10996 ] final  -45.30 input  -57.11 | X-H torsion

> <Gold.Protein.ActiveResidues>
 VAL166  LYS551  ARG553  GLY616  TRP617  ASP618  TYR619  PRO620  LYS621  CYS622 
 ASP623  PHE694  ASN695  SER759  ASP760  ASP761  ALA762  ILE779  LEU786  VAL792 
 PHE793  MET794  SER795  GLU796  ALA797  LYS798  CYS799  TRP800  GLU811  SER814 

> <Gold.Protein.RotatedAtoms>
  151.5435  133.3429  159.2939 H   0  0  0  0  0  0  0  0  0  0  0  0  # atno 6907 bound_to 6896
  150.8521  134.7852  159.7028 H   0  0  0  0  0  0  0  0  0  0  0  0  # atno 6908 bound_to 6896
  152.4565  134.5289  159.9856 H   0  0  0  0  0  0  0  0  0  0  0  0  # atno 6909 bound_to 6896
  145.7328  140.8989  143.0571 H   0  0  0  0  0  0  0  0  0  0  0  0  # atno 7974 bound_to 7965
  156.1995  140.1737  156.7930 H   0  0  0  0  0  0  0  0  0  0  0  0  # atno 8008 bound_to 7997
  154.5572  140.0706  156.8794 H   0  0  0  0  0  0  0  0  0  0  0  0  # atno 8009 bound_to 7997
  155.2916  140.3355  155.4254 H   0  0  0  0  0  0  0  0  0  0  0  0  # atno 8010 bound_to 7997
  139.7670  144.6935  151.0210 H   0  0  0  0  0  0  0  0  0  0  0  0  # atno 10167 bound_to 10162
  156.1296  130.6385  150.9599 H   0  0  0  0  0  0  0  0  0  0  0  0  # atno 10718 bound_to 10713
  152.9849  135.5642  154.5387 H   0  0  0  0  0  0  0  0  0  0  0  0  # atno 10763 bound_to 10752
  154.4846  135.2790  155.1546 H   0  0  0  0  0  0  0  0  0  0  0  0  # atno 10764 bound_to 10752
  154.3041  135.6301  153.5490 H   0  0  0  0  0  0  0  0  0  0  0  0  # atno 10765 bound_to 10752
  141.0507  133.6744  156.2994 H   0  0  0  0  0  0  0  0  0  0  0  0  # atno 11005 bound_to 11000
  144.6889  139.9355  143.7473 LP  0  0  0  0  0  0  0  0  0  0  0  0  # atno 17320 bound_to 7965
  146.0521  139.3521  143.0633 LP  0  0  0  0  0  0  0  0  0  0  0  0  # atno 17321 bound_to 7965
  140.7811  143.4632  151.0249 LP  0  0  0  0  0  0  0  0  0  0  0  0  # atno 17342 bound_to 10162
  139.8316  143.7683  152.3180 LP  0  0  0  0  0  0  0  0  0  0  0  0  # atno 17343 bound_to 10162
  157.6475  131.0902  150.8122 LP  0  0  0  0  0  0  0  0  0  0  0  0  # atno 17370 bound_to 10713
  156.8209  130.4983  149.5343 LP  0  0  0  0  0  0  0  0  0  0  0  0  # atno 17371 bound_to 10713
  140.6061  134.5505  157.5526 LP  0  0  0  0  0  0  0  0  0  0  0  0  # atno 17394 bound_to 11000
  139.9348  134.7896  156.0833 LP  0  0  0  0  0  0  0  0  0  0  0  0  # atno 17395 bound_to 11000

$$$$
