AV-unprocessed.smi:3037|AV-procd|sdf|11587|dock2
  -GOLD-   2272016563D 1   1.00000     0.00000
 Structure written by MMmdl.
 47 48  0  0  0  0  0  0  0  0  2 V2000
  144.5213  146.2841  153.8279 C   0  0  0  0  0  0  0  0  0  0  0  0
  145.3219  145.0529  154.1404 C   0  0  0  0  0  0  0  0  0  0  0  0
  145.4998  144.4213  155.4041 C   0  0  0  0  0  0  0  0  0  0  0  0
  146.2685  143.3463  155.3379 N   0  0  0  0  0  0  0  0  0  0  0  0
  146.6084  143.2549  154.0349 N   0  0  0  0  0  0  0  0  0  0  0  0
  147.4639  142.1722  153.5836 C   0  0  0  0  0  0  0  0  0  0  0  0
  148.1456  141.4194  154.7495 C   0  0  1  0  0  0  0  0  0  0  0  0
  148.3859  139.9324  154.4382 C   0  0  0  0  0  0  0  0  0  0  0  0
  149.4338  142.0534  155.1087 N   0  3  0  0  0  0  0  0  0  0  0  0
  150.1912  141.3860  156.1883 C   0  0  0  0  0  0  0  0  0  0  0  0
  149.9425  142.0810  157.5390 C   0  0  0  0  0  0  0  0  0  0  0  0
  150.7515  141.4844  158.7045 C   0  0  0  0  0  0  0  0  0  0  0  0
  150.4975  140.3382  159.0778 O   0  0  0  0  0  0  0  0  0  0  0  0
  151.7220  142.2346  159.2820 N   0  0  0  0  0  0  0  0  0  0  0  0
  151.9784  143.6301  158.8998 C   0  0  0  0  0  0  0  0  0  0  0  0
  151.5489  144.5516  160.0566 C   0  0  0  0  0  0  0  0  0  0  0  0
  152.2651  144.1664  161.3645 C   0  0  0  0  0  0  0  0  0  0  0  0
  152.1405  142.6595  161.6570 C   0  0  0  0  0  0  0  0  0  0  0  0
  152.5482  141.8275  160.4278 C   0  0  0  0  0  0  0  0  0  0  0  0
  146.0490  144.2703  153.2889 C   0  0  0  0  0  0  0  0  0  0  0  0
  144.1450  146.7635  154.7317 H   0  0  0  0  0  0  0  0  0  0  0  0
  143.6582  146.0540  153.2031 H   0  0  0  0  0  0  0  0  0  0  0  0
  145.1162  147.0262  153.2949 H   0  0  0  0  0  0  0  0  0  0  0  0
  145.0947  144.7110  156.3623 H   0  0  0  0  0  0  0  0  0  0  0  0
  146.8685  141.4801  152.9853 H   0  0  0  0  0  0  0  0  0  0  0  0
  148.2065  142.6013  152.9113 H   0  0  0  0  0  0  0  0  0  0  0  0
  147.4948  141.4632  155.6241 H   0  0  0  0  0  0  0  0  0  0  0  0
  147.4494  139.3975  154.2783 H   0  0  0  0  0  0  0  0  0  0  0  0
  148.8994  139.4370  155.2629 H   0  0  0  0  0  0  0  0  0  0  0  0
  148.9970  139.8087  153.5434 H   0  0  0  0  0  0  0  0  0  0  0  0
  150.0174  142.0402  154.2843 H   0  0  0  0  0  0  0  0  0  0  0  0
  149.8970  140.3379  156.2496 H   0  0  0  0  0  0  0  0  0  0  0  0
  151.2544  141.4126  155.9437 H   0  0  0  0  0  0  0  0  0  0  0  0
  150.1965  143.1377  157.4446 H   0  0  0  0  0  0  0  0  0  0  0  0
  148.8812  142.0204  157.7833 H   0  0  0  0  0  0  0  0  0  0  0  0
  153.0418  143.7584  158.6928 H   0  0  0  0  0  0  0  0  0  0  0  0
  151.4622  143.9229  157.9847 H   0  0  0  0  0  0  0  0  0  0  0  0
  151.7613  145.5916  159.8072 H   0  0  0  0  0  0  0  0  0  0  0  0
  150.4693  144.4808  160.1966 H   0  0  0  0  0  0  0  0  0  0  0  0
  153.3212  144.4263  161.2814 H   0  0  0  0  0  0  0  0  0  0  0  0
  151.8695  144.7478  162.1977 H   0  0  0  0  0  0  0  0  0  0  0  0
  152.7609  142.3941  162.5134 H   0  0  0  0  0  0  0  0  0  0  0  0
  151.1121  142.4233  161.9334 H   0  0  0  0  0  0  0  0  0  0  0  0
  152.4858  140.7664  160.6628 H   0  0  0  0  0  0  0  0  0  0  0  0
  153.5979  142.0076  160.1910 H   0  0  0  0  0  0  0  0  0  0  0  0
  146.2139  144.3523  152.2247 H   0  0  0  0  0  0  0  0  0  0  0  0
  149.2639  143.0158  155.3642 H   0  0  0  0  0  0  0  0  0  0  0  0
  1  2  1  0  0  0  0
  1 21  1  0  0  0  0
  1 22  1  0  0  0  0
  1 23  1  0  0  0  0
  2 20  2  0  0  0  0
  2  3  1  0  0  0  0
  3  4  2  0  0  0  0
  3 24  1  0  0  0  0
  4  5  1  0  0  0  0
  5  6  1  0  0  0  0
  5 20  1  0  0  0  0
  6  7  1  0  0  0  0
  6 25  1  0  0  0  0
  6 26  1  0  0  0  0
  7  8  1  0  0  0  0
  7  9  1  0  0  0  0
  7 27  1  0  0  0  0
  8 28  1  0  0  0  0
  8 29  1  0  0  0  0
  8 30  1  0  0  0  0
  9 10  1  0  0  0  0
  9 31  1  0  0  0  0
  9 47  1  0  0  0  0
 10 11  1  0  0  0  0
 10 32  1  0  0  0  0
 10 33  1  0  0  0  0
 11 12  1  0  0  0  0
 11 34  1  0  0  0  0
 11 35  1  0  0  0  0
 12 13  2  0  0  0  0
 12 14  1  0  0  0  0
 14 19  1  0  0  0  0
 14 15  1  0  0  0  0
 15 16  1  0  0  0  0
 15 36  1  0  0  0  0
 15 37  1  0  0  0  0
 16 17  1  0  0  0  0
 16 38  1  0  0  0  0
 16 39  1  0  0  0  0
 17 18  1  0  0  0  0
 17 40  1  0  0  0  0
 17 41  1  0  0  0  0
 18 19  1  0  0  0  0
 18 42  1  0  0  0  0
 18 43  1  0  0  0  0
 19 44  1  0  0  0  0
 19 45  1  0  0  0  0
 20 46  1  0  0  0  0
M  CHG  1   9   1
M  END
> <s_m_source_file>
AV-unprocessed.smi

> <i_m_source_file_index>
3037

> <i_lp_mmshare_version>
43012

> <i_f3d_flags>
0

> <s_epik_input>
W0NIM11jMVtjSF1ubihbY0hdMSlbQ0gyXVtDQEhdKFtDSDNdKVtOSF1bQ0gyXVtDSDJdQyg9TylOMltDSDJdW0NIMl1bQ0gyXVtDSDJdW0NIMl0y

> <s_epik_cmdline>
J2VwaWtfcHl0aG9uJywgJy1waCcsICc3LjAnLCAnLXRuJywgJzgnLCAnLW1hJywgJzIwMCcsICctbWV0YWxfYmluZGluZycsICctaW1hZScsICc8aW5maWxlLm1hZT4nLCAnLW9tYWUnLCAnPG91dGZpbGUubWFlPic=

> <r_lp_tautomer_probability>
1

> <r_epik_Ionization_Penalty>
0.00574983

> <r_epik_Ionization_Penalty_Charging>
0.00574185

> <r_epik_Ionization_Penalty_Neutral>
7.97936e-06

> <r_epik_State_Penalty>
0.00421386

> <r_epik_Charging_Adjusted_Penalty>
0.00995571

> <i_epik_Tot_Q>
1

> <i_epik_Tot_abs_Q>
1

> <r_epik_Metal_State_Penalty>
-0

> <b_epik_Metal_Only>
0

> <s_lp_Force_Field>
OPLS_2005

> <r_lp_Energy>
26.5412

> <b_lp_Chiralities_Consistent>
1

> <s_lp_Variant>
AV-unprocessed.smi:3037-2

> <Gold.Version>
5.8.1

> <Gold.Id.Protein>
6NUR|6NUR_protein|mol2

> <Gold.PLP.Fitness>
55.4138

> <Gold.PLP.PLP>
-50.9476

> <Gold.PLP.part.hbond>
-1.0000

> <Gold.PLP.part.metal>
0.0000

> <Gold.PLP.part.buried>
-7.4906

> <Gold.PLP.part.nonpolar>
-42.1449

> <Gold.PLP.part.repulsive>
0.4073

> <Gold.PLP.ligand.clash>
0.0000

> <Gold.PLP.ligand.torsion>
0.8473

> <Gold.PLP.Chemscore.Hbond>
2.0000

> <Gold.PLP.Chemscore.CHOScore>
0.0000

> <Gold.PLP.Chemscore.Metal>
0.0000

> <Gold.Chemscore.Hbonds>
donor molecule, donor type, donor heavy atom, donor atom, acceptor molecule, acceptor atom, score
      L1  H     9    47       P1  8028  2.00

> <Gold.PLP.Chemscore.Internal.Correction>
0.1608

> <Gold.Rescore>
     Score         DG    S(hbond)    S(metal)    S(lipo)     H(rot)  DE(clash)    DE(int)     intcor
     17.01     -17.90       1.00        0.00     117.95       1.84       0.05       0.85       ----

> <Gold.Chemscore.Fitness>
17.0107

> <Gold.Chemscore.DG>
-17.9029

> <Gold.Chemscore.ZeroCoef>
-5.4800

> <Gold.Chemscore.Hbond>
0.9966

> <Gold.Chemscore.Metal>
0.0000

> <Gold.Chemscore.Lipo>
117.9526

> <Gold.Chemscore.Internal_Hbond>
0.0000

> <Gold.Chemscore.DEClash>
0.0452

> <Gold.Chemscore.DEInternal>
0.8470

> <Gold.Chemscore.Rot>
1.8383

> <Gold.Chemscore.Internal.Correction>
   9.000000E+99

> <Gold.Chemscore.Hbonds>
donor molecule, donor type, donor heavy atom, donor atom, acceptor molecule, acceptor atom, score
      L1  H     9    47       P1  8028  1.00

> <Gold.Chemscore.Hbond.Weighted>
-3.3286

> <Gold.Chemscore.Metal.Weighted>
-0.0000

> <Gold.Chemscore.Lipo.Weighted>
-13.8005

> <Gold.Chemscore.Internal_Hbond.Weighted>
0.0000

> <Gold.Chemscore.DEClash.Weighted>
0.0452

> <Gold.Chemscore.DEInternal.Weighted>
0.8470

> <Gold.Chemscore.Rot.Weighted>
4.7062

> <Gold.Chemscore.Internal.Correction.Weighted>
   9.000000E+99

> <Gold.Protein.RotatedTorsions>
[ 6907 6896 6895 6894 ] final   48.34 input  -60.11 | X-H torsion
[ 7974 7965 7964 7962 ] final   19.90 input  175.53 | X-H torsion
[ 8008 7997 7996 7995 ] final  173.21 input   59.86 | X-H torsion
[ 10167 10162 10161 10158 ] final -128.74 input  -65.29 | X-H torsion
[ 10718 10713 10712 10709 ] final   62.37 input   66.30 | X-H torsion
[ 10763 10752 10751 10750 ] final   92.21 input  -60.55 | X-H torsion
[ 11005 11000 10999 10996 ] final  -57.41 input  -57.11 | X-H torsion

> <Gold.Protein.ActiveResidues>
 VAL166  LYS551  ARG553  GLY616  TRP617  ASP618  TYR619  PRO620  LYS621  CYS622 
 ASP623  PHE694  ASN695  SER759  ASP760  ASP761  ALA762  ILE779  LEU786  VAL792 
 PHE793  MET794  SER795  GLU796  ALA797  LYS798  CYS799  TRP800  GLU811  SER814 

> <Gold.Protein.RotatedAtoms>
  152.2784  134.7856  160.0401 H   0  0  0  0  0  0  0  0  0  0  0  0  # atno 6907 bound_to 6896
  151.8444  133.3424  159.3661 H   0  0  0  0  0  0  0  0  0  0  0  0  # atno 6908 bound_to 6896
  150.7179  134.5288  159.5734 H   0  0  0  0  0  0  0  0  0  0  0  0  # atno 6909 bound_to 6896
  146.2132  139.8247  142.8672 H   0  0  0  0  0  0  0  0  0  0  0  0  # atno 7974 bound_to 7965
  156.1098  140.1466  156.9354 H   0  0  0  0  0  0  0  0  0  0  0  0  # atno 8008 bound_to 7997
  154.4759  140.0894  156.7304 H   0  0  0  0  0  0  0  0  0  0  0  0  # atno 8009 bound_to 7997
  155.4616  140.3438  155.4315 H   0  0  0  0  0  0  0  0  0  0  0  0  # atno 8010 bound_to 7997
  139.9471  143.6098  152.2486 H   0  0  0  0  0  0  0  0  0  0  0  0  # atno 10167 bound_to 10162
  157.5896  130.9046  149.9579 H   0  0  0  0  0  0  0  0  0  0  0  0  # atno 10718 bound_to 10713
  153.2167  135.4369  155.0442 H   0  0  0  0  0  0  0  0  0  0  0  0  # atno 10763 bound_to 10752
  154.8229  135.3346  154.6988 H   0  0  0  0  0  0  0  0  0  0  0  0  # atno 10764 bound_to 10752
  153.7422  135.7004  153.5020 H   0  0  0  0  0  0  0  0  0  0  0  0  # atno 10765 bound_to 10752
  141.1163  133.6610  156.4766 H   0  0  0  0  0  0  0  0  0  0  0  0  # atno 11005 bound_to 11000
  145.3060  141.0207  143.3582 LP  0  0  0  0  0  0  0  0  0  0  0  0  # atno 17320 bound_to 7965
  144.8971  139.4698  143.6650 LP  0  0  0  0  0  0  0  0  0  0  0  0  # atno 17321 bound_to 7965
  139.6658  144.7662  151.1876 LP  0  0  0  0  0  0  0  0  0  0  0  0  # atno 17342 bound_to 10162
  140.7594  143.5940  150.8767 LP  0  0  0  0  0  0  0  0  0  0  0  0  # atno 17343 bound_to 10162
  156.0949  130.3660  150.0326 LP  0  0  0  0  0  0  0  0  0  0  0  0  # atno 17370 bound_to 10713
  156.8451  130.9439  151.3629 LP  0  0  0  0  0  0  0  0  0  0  0  0  # atno 17371 bound_to 10713
  140.4635  134.6819  157.5096 LP  0  0  0  0  0  0  0  0  0  0  0  0  # atno 17394 bound_to 11000
  140.0088  134.6722  155.9413 LP  0  0  0  0  0  0  0  0  0  0  0  0  # atno 17395 bound_to 11000

$$$$
