AV-unprocessed.smi:800|AV-procd|sdf|3787|dock5
  -GOLD-   22720 1223D 1   1.00000     0.00000
 Structure written by MMmdl.
 36 37  0  0  0  0  0  0  0  0  1 V2000
  146.6706  140.8825  153.6367 C   0  0  0  0  0  0  0  0  0  0  0  0
  147.4470  139.5968  153.3238 C   0  0  0  0  0  0  0  0  0  0  0  0
  146.5594  138.3502  153.4626 C   0  0  0  0  0  0  0  0  0  0  0  0
  148.6015  139.5006  154.2111 N   0  0  0  0  0  0  0  0  0  0  0  0
  149.4326  140.5082  154.5231 C   0  0  0  0  0  0  0  0  0  0  0  0
  149.2896  141.6621  154.1171 O   0  0  0  0  0  0  0  0  0  0  0  0
  150.5350  140.1646  155.4831 C   0  0  0  0  0  0  0  0  0  0  0  0
  150.8109  141.0864  156.4341 N   0  0  0  0  0  0  0  0  0  0  0  0
  151.7891  140.8314  157.3117 C   0  0  0  0  0  0  0  0  0  0  0  0
  152.0524  141.8005  158.2886 N   0  0  0  0  0  0  0  0  0  0  0  0
  151.4779  143.1469  158.2230 C   0  0  0  0  0  0  0  0  0  0  0  0
  152.4344  144.1808  158.8407 C   0  0  0  0  0  0  0  0  0  0  0  0
  152.7684  143.7962  160.1685 O   0  0  0  0  0  0  0  0  0  0  0  0
  153.4402  142.5431  160.1955 C   0  0  0  0  0  0  0  0  0  0  0  0
  152.5211  141.4468  159.6308 C   0  0  0  0  0  0  0  0  0  0  0  0
  152.5342  139.7193  157.3215 N   0  0  0  0  0  0  0  0  0  0  0  0
  152.2884  138.7899  156.3751 C   0  0  0  0  0  0  0  0  0  0  0  0
  151.2825  138.9606  155.4044 C   0  0  0  0  0  0  0  0  0  0  0  0
  151.0462  137.7506  154.1891 Cl  0  0  0  0  0  0  0  0  0  0  0  0
  145.8131  140.9942  152.9724 H   0  0  0  0  0  0  0  0  0  0  0  0
  147.3012  141.7630  153.5091 H   0  0  0  0  0  0  0  0  0  0  0  0
  146.2989  140.8838  154.6622 H   0  0  0  0  0  0  0  0  0  0  0  0
  147.7961  139.6625  152.2919 H   0  0  0  0  0  0  0  0  0  0  0  0
  145.6977  138.4081  152.7973 H   0  0  0  0  0  0  0  0  0  0  0  0
  146.1866  138.2392  154.4814 H   0  0  0  0  0  0  0  0  0  0  0  0
  147.1078  137.4424  153.2087 H   0  0  0  0  0  0  0  0  0  0  0  0
  148.7924  138.5942  154.6134 H   0  0  0  0  0  0  0  0  0  0  0  0
  151.2609  143.4532  157.2002 H   0  0  0  0  0  0  0  0  0  0  0  0
  150.5292  143.1469  158.7604 H   0  0  0  0  0  0  0  0  0  0  0  0
  153.3396  144.2806  158.2393 H   0  0  0  0  0  0  0  0  0  0  0  0
  151.9598  145.1617  158.8654 H   0  0  0  0  0  0  0  0  0  0  0  0
  154.3697  142.6025  159.6269 H   0  0  0  0  0  0  0  0  0  0  0  0
  153.7127  142.3099  161.2246 H   0  0  0  0  0  0  0  0  0  0  0  0
  151.6541  141.3155  160.2789 H   0  0  0  0  0  0  0  0  0  0  0  0
  153.0686  140.5049  159.6409 H   0  0  0  0  0  0  0  0  0  0  0  0
  152.9073  137.9050  156.3883 H   0  0  0  0  0  0  0  0  0  0  0  0
  1  2  1  0  0  0  0
  1 20  1  0  0  0  0
  1 21  1  0  0  0  0
  1 22  1  0  0  0  0
  2  3  1  0  0  0  0
  2  4  1  0  0  0  0
  2 23  1  0  0  0  0
  3 24  1  0  0  0  0
  3 25  1  0  0  0  0
  3 26  1  0  0  0  0
  4  5  1  0  0  0  0
  4 27  1  0  0  0  0
  5  6  2  0  0  0  0
  5  7  1  0  0  0  0
  7 18  1  0  0  0  0
  7  8  2  0  0  0  0
  8  9  1  0  0  0  0
  9 10  1  0  0  0  0
  9 16  2  0  0  0  0
 10 15  1  0  0  0  0
 10 11  1  0  0  0  0
 11 12  1  0  0  0  0
 11 28  1  0  0  0  0
 11 29  1  0  0  0  0
 12 13  1  0  0  0  0
 12 30  1  0  0  0  0
 12 31  1  0  0  0  0
 13 14  1  0  0  0  0
 14 15  1  0  0  0  0
 14 32  1  0  0  0  0
 14 33  1  0  0  0  0
 15 34  1  0  0  0  0
 15 35  1  0  0  0  0
 16 17  1  0  0  0  0
 17 18  2  0  0  0  0
 17 36  1  0  0  0  0
 18 19  1  0  0  0  0
M  END
> <s_m_source_file>
AV-unprocessed.smi

> <i_m_source_file_index>
800

> <i_lp_mmshare_version>
43012

> <i_f3d_flags>
0

> <s_epik_input>
W0NIM11bQ0hdKFtDSDNdKVtOSF1DKD1PKWMxbmMobltjSF1jMUNsKU4yW0NIMl1bQ0gyXU9bQ0gyXVtDSDJdMg==

> <s_epik_cmdline>
J2VwaWtfcHl0aG9uJywgJy1waCcsICc3LjAnLCAnLXRuJywgJzgnLCAnLW1hJywgJzIwMCcsICctbWV0YWxfYmluZGluZycsICctaW1hZScsICc8aW5maWxlLm1hZT4nLCAnLW9tYWUnLCAnPG91dGZpbGUubWFlPic=

> <r_lp_tautomer_probability>
1

> <r_epik_Ionization_Penalty>
1.24434e-05

> <r_epik_Ionization_Penalty_Charging>
0

> <r_epik_Ionization_Penalty_Neutral>
1.24434e-05

> <r_epik_State_Penalty>
-0

> <r_epik_Charging_Adjusted_Penalty>
0

> <i_epik_Tot_Q>
0

> <i_epik_Tot_abs_Q>
0

> <r_epik_Metal_State_Penalty>
0.0120585

> <b_epik_Metal_Only>
0

> <s_lp_Force_Field>
OPLS_2005

> <r_lp_Energy>
14.0321

> <b_lp_Chiralities_Consistent>
1

> <s_lp_Variant>
AV-unprocessed.smi:800-1

> <Gold.Version>
5.8.1

> <Gold.Id.Protein>
6NUR|6NUR_protein|mol2

> <Gold.PLP.Fitness>
39.7019

> <Gold.PLP.PLP>
-36.9703

> <Gold.PLP.part.hbond>
-3.4643

> <Gold.PLP.part.metal>
0.0000

> <Gold.PLP.part.buried>
-1.7189

> <Gold.PLP.part.nonpolar>
-32.8965

> <Gold.PLP.part.repulsive>
0.3185

> <Gold.PLP.ligand.clash>
0.0000

> <Gold.PLP.ligand.torsion>
1.0541

> <Gold.PLP.Chemscore.Hbond>
1.5760

> <Gold.PLP.Chemscore.CHOScore>
0.0000

> <Gold.PLP.Chemscore.Metal>
0.0000

> <Gold.Chemscore.Hbonds>
donor molecule, donor type, donor heavy atom, donor atom, acceptor molecule, acceptor atom, score
      P1  H  7997  8009       L1    16  0.89
      P1  H  8011  8017       L1     6  0.58

> <Gold.PLP.Chemscore.Internal.Correction>
0.1118

> <Gold.Rescore>
     Score         DG    S(hbond)    S(metal)    S(lipo)     H(rot)  DE(clash)    DE(int)     intcor
     14.59     -17.09       1.10        0.00      89.69       1.00       0.11       2.38       ----

> <Gold.Chemscore.Fitness>
14.5927

> <Gold.Chemscore.DG>
-17.0865

> <Gold.Chemscore.ZeroCoef>
-5.4800

> <Gold.Chemscore.Hbond>
1.0997

> <Gold.Chemscore.Metal>
0.0000

> <Gold.Chemscore.Lipo>
89.6873

> <Gold.Chemscore.Internal_Hbond>
0.0000

> <Gold.Chemscore.DEClash>
0.1109

> <Gold.Chemscore.DEInternal>
2.3829

> <Gold.Chemscore.Rot>
1.0000

> <Gold.Chemscore.Internal.Correction>
   9.000000E+99

> <Gold.Chemscore.Hbonds>
donor molecule, donor type, donor heavy atom, donor atom, acceptor molecule, acceptor atom, score
      P1  H  7997  8009       L1    16  0.14
      P1  H  8011  8017       L1     6  0.56

> <Gold.Chemscore.Hbond.Weighted>
-3.6731

> <Gold.Chemscore.Metal.Weighted>
-0.0000

> <Gold.Chemscore.Lipo.Weighted>
-10.4934

> <Gold.Chemscore.Internal_Hbond.Weighted>
0.0000

> <Gold.Chemscore.DEClash.Weighted>
0.1109

> <Gold.Chemscore.DEInternal.Weighted>
2.3829

> <Gold.Chemscore.Rot.Weighted>
2.5600

> <Gold.Chemscore.Internal.Correction.Weighted>
   9.000000E+99

> <Gold.Protein.RotatedTorsions>
[ 6907 6896 6895 6894 ] final   49.82 input  -60.11 | X-H torsion
[ 7974 7965 7964 7962 ] final -132.67 input  175.53 | X-H torsion
[ 8008 7997 7996 7995 ] final  162.91 input   59.86 | X-H torsion
[ 10167 10162 10161 10158 ] final  -24.36 input  -65.29 | X-H torsion
[ 10718 10713 10712 10709 ] final   99.84 input   66.30 | X-H torsion
[ 10763 10752 10751 10750 ] final -128.00 input  -60.55 | X-H torsion
[ 11005 11000 10999 10996 ] final  -40.48 input  -57.11 | X-H torsion

> <Gold.Protein.ActiveResidues>
 VAL166  LYS551  ARG553  GLY616  TRP617  ASP618  TYR619  PRO620  LYS621  CYS622 
 ASP623  PHE694  ASN695  SER759  ASP760  ASP761  ALA762  ILE779  LEU786  VAL792 
 PHE793  MET794  SER795  GLU796  ALA797  LYS798  CYS799  TRP800  GLU811  SER814 

> <Gold.Protein.RotatedAtoms>
  152.2950  134.7677  160.0369 H   0  0  0  0  0  0  0  0  0  0  0  0  # atno 6907 bound_to 6896
  151.8210  133.3389  159.3592 H   0  0  0  0  0  0  0  0  0  0  0  0  # atno 6908 bound_to 6896
  150.7247  134.5503  159.5835 H   0  0  0  0  0  0  0  0  0  0  0  0  # atno 6909 bound_to 6896
  144.9264  140.7076  143.4933 H   0  0  0  0  0  0  0  0  0  0  0  0  # atno 7974 bound_to 7965
  156.1996  140.1737  156.7927 H   0  0  0  0  0  0  0  0  0  0  0  0  # atno 8008 bound_to 7997
  154.5574  140.0706  156.8797 H   0  0  0  0  0  0  0  0  0  0  0  0  # atno 8009 bound_to 7997
  155.2912  140.3355  155.4255 H   0  0  0  0  0  0  0  0  0  0  0  0  # atno 8010 bound_to 7997
  140.7288  143.4360  151.0729 H   0  0  0  0  0  0  0  0  0  0  0  0  # atno 10167 bound_to 10162
  157.6867  131.0681  150.5009 H   0  0  0  0  0  0  0  0  0  0  0  0  # atno 10718 bound_to 10713
  154.8755  135.3943  154.3685 H   0  0  0  0  0  0  0  0  0  0  0  0  # atno 10763 bound_to 10752
  153.4448  135.7027  153.6151 H   0  0  0  0  0  0  0  0  0  0  0  0  # atno 10764 bound_to 10752
  153.4717  135.3789  155.2363 H   0  0  0  0  0  0  0  0  0  0  0  0  # atno 10765 bound_to 10752
  141.0178  133.6877  156.2327 H   0  0  0  0  0  0  0  0  0  0  0  0  # atno 11005 bound_to 11000
  145.3212  139.1788  143.4587 LP  0  0  0  0  0  0  0  0  0  0  0  0  # atno 17320 bound_to 7965
  146.3228  140.3230  142.8634 LP  0  0  0  0  0  0  0  0  0  0  0  0  # atno 17321 bound_to 7965
  139.8022  143.8068  152.3164 LP  0  0  0  0  0  0  0  0  0  0  0  0  # atno 17342 bound_to 10162
  139.8089  144.7344  150.9724 LP  0  0  0  0  0  0  0  0  0  0  0  0  # atno 17343 bound_to 10162
  156.5331  130.4189  149.6191 LP  0  0  0  0  0  0  0  0  0  0  0  0  # atno 17370 bound_to 10713
  156.3052  130.7198  151.2079 LP  0  0  0  0  0  0  0  0  0  0  0  0  # atno 17371 bound_to 10713
  140.6625  134.4952  157.5584 LP  0  0  0  0  0  0  0  0  0  0  0  0  # atno 17394 bound_to 11000
  139.9127  134.8310  156.1471 LP  0  0  0  0  0  0  0  0  0  0  0  0  # atno 17395 bound_to 11000

$$$$
