AV-unprocessed.smi:2230|AV-procd|sdf|9035|dock2
  -GOLD-   2272012243D 1   1.00000     0.00000
 Structure written by MMmdl.
 29 30  0  0  0  0  0  0  0  0  2 V2000
  148.6944  137.7717  159.7663 O   0  0  0  0  0  0  0  0  0  0  0  0
  149.6118  137.0887  159.2583 C   0  0  0  0  0  0  0  0  0  0  0  0
  149.5862  135.8452  159.1231 O   0  5  0  0  0  0  0  0  0  0  0  0
  150.8807  137.8218  158.7963 C   0  0  2  0  0  0  0  0  0  0  0  0
  150.7392  139.3540  158.9532 C   0  0  0  0  0  0  0  0  0  0  0  0
  151.9256  140.0238  158.4349 N   0  0  0  0  0  0  0  0  0  0  0  0
  151.9400  141.4030  158.6993 C   0  0  0  0  0  0  0  0  0  0  0  0
  151.0779  142.1774  157.9953 N   0  0  0  0  0  0  0  0  0  0  0  0
  151.0500  143.5033  158.2387 C   0  0  0  0  0  0  0  0  0  0  0  0
  151.8738  144.1270  159.1926 C   0  0  0  0  0  0  0  0  0  0  0  0
  152.7706  143.3270  159.9239 C   0  0  0  0  0  0  0  0  0  0  0  0
  152.8177  141.9353  159.6810 C   0  0  0  0  0  0  0  0  0  0  0  0
  153.7941  141.0494  160.4532 C   0  0  0  0  0  0  0  0  0  0  0  0
  153.9279  141.4554  161.7164 F   0  0  0  0  0  0  0  0  0  0  0  0
  153.3577  139.7906  160.4697 F   0  0  0  0  0  0  0  0  0  0  0  0
  154.9996  141.0841  159.8847 F   0  0  0  0  0  0  0  0  0  0  0  0
  152.2271  139.6462  157.0599 C   0  0  0  0  0  0  0  0  0  0  0  0
  152.3537  138.1181  156.9585 C   0  0  0  0  0  0  0  0  0  0  0  0
  151.1537  137.5119  157.4280 O   0  0  0  0  0  0  0  0  0  0  0  0
  151.7068  137.4630  159.4128 H   0  0  0  0  0  0  0  0  0  0  0  0
  149.8600  139.7089  158.4131 H   0  0  0  0  0  0  0  0  0  0  0  0
  150.5988  139.6189  160.0018 H   0  0  0  0  0  0  0  0  0  0  0  0
  150.3499  144.0838  157.6565 H   0  0  0  0  0  0  0  0  0  0  0  0
  151.8199  145.1929  159.3579 H   0  0  0  0  0  0  0  0  0  0  0  0
  153.4121  143.7883  160.6599 H   0  0  0  0  0  0  0  0  0  0  0  0
  151.4347  139.9939  156.3954 H   0  0  0  0  0  0  0  0  0  0  0  0
  153.1542  140.1233  156.7400 H   0  0  0  0  0  0  0  0  0  0  0  0
  152.5193  137.8220  155.9228 H   0  0  0  0  0  0  0  0  0  0  0  0
  153.2068  137.7573  157.5353 H   0  0  0  0  0  0  0  0  0  0  0  0
  1  2  2  0  0  0  0
  2  3  1  0  0  0  0
  2  4  1  0  0  0  0
  4 19  1  0  0  0  0
  4  5  1  0  0  0  0
  4 20  1  0  0  0  0
  5  6  1  0  0  0  0
  5 21  1  0  0  0  0
  5 22  1  0  0  0  0
  6  7  1  0  0  0  0
  6 17  1  0  0  0  0
  7 12  1  0  0  0  0
  7  8  2  0  0  0  0
  8  9  1  0  0  0  0
  9 10  2  0  0  0  0
  9 23  1  0  0  0  0
 10 11  1  0  0  0  0
 10 24  1  0  0  0  0
 11 12  2  0  0  0  0
 11 25  1  0  0  0  0
 12 13  1  0  0  0  0
 13 14  1  0  0  0  0
 13 15  1  0  0  0  0
 13 16  1  0  0  0  0
 17 18  1  0  0  0  0
 17 26  1  0  0  0  0
 17 27  1  0  0  0  0
 18 19  1  0  0  0  0
 18 28  1  0  0  0  0
 18 29  1  0  0  0  0
M  CHG  1   3  -1
M  END
> <s_m_source_file>
AV-unprocessed.smi

> <i_m_source_file_index>
2230

> <i_lp_mmshare_version>
43012

> <i_f3d_flags>
0

> <s_epik_input>
Tz1DKFtPSF0pW0NAQEhdMVtDSDJdTihbQ0gyXVtDSDJdTzEpYzJuW2NIXVtjSF1bY0hdYzJDKEYpKEYpRg==

> <s_epik_cmdline>
J2VwaWtfcHl0aG9uJywgJy1waCcsICc3LjAnLCAnLXRuJywgJzgnLCAnLW1hJywgJzIwMCcsICctbWV0YWxfYmluZGluZycsICctaW1hZScsICc8aW5maWxlLm1hZT4nLCAnLW9tYWUnLCAnPG91dGZpbGUubWFlPic=

> <r_lp_tautomer_probability>
1

> <r_epik_Ionization_Penalty>
0.000150991

> <r_epik_Ionization_Penalty_Charging>
0.000148814

> <r_epik_Ionization_Penalty_Neutral>
2.17728e-06

> <r_epik_State_Penalty>
-0

> <r_epik_Charging_Adjusted_Penalty>
0.000148814

> <i_epik_Tot_Q>
-1

> <i_epik_Tot_abs_Q>
1

> <r_epik_Metal_State_Penalty>
-0

> <b_epik_Metal_Only>
0

> <s_lp_Force_Field>
OPLS_2005

> <r_lp_Energy>
24.3661

> <b_lp_Chiralities_Consistent>
1

> <s_lp_Variant>
AV-unprocessed.smi:2230-1

> <Gold.Version>
5.8.1

> <Gold.Id.Protein>
6NUR|6NUR_protein|mol2

> <Gold.PLP.Fitness>
42.7673

> <Gold.PLP.PLP>
-34.4141

> <Gold.PLP.part.hbond>
-3.0000

> <Gold.PLP.part.metal>
0.0000

> <Gold.PLP.part.buried>
-2.8768

> <Gold.PLP.part.nonpolar>
-29.6369

> <Gold.PLP.part.repulsive>
0.0517

> <Gold.PLP.ligand.clash>
0.0346

> <Gold.PLP.ligand.torsion>
1.1858

> <Gold.PLP.Chemscore.Hbond>
2.3058

> <Gold.PLP.Chemscore.CHOScore>
1.0000

> <Gold.PLP.Chemscore.Metal>
0.0000

> <Gold.Chemscore.Hbonds>
donor molecule, donor type, donor heavy atom, donor atom, acceptor molecule, acceptor atom, score
      P1  H  6896  6908       L1     3  2.00
      P1  H  6931  6943       L1     1  0.29
      P1  H  6934  6947       L1     1  0.22
      L1  C     9    23       P1  8028  1.00

> <Gold.PLP.Chemscore.Internal.Correction>
0.8421

> <Gold.Rescore>
     Score         DG    S(hbond)    S(metal)    S(lipo)     H(rot)  DE(clash)    DE(int)     intcor
     12.10     -14.45       1.22        0.00      74.41       1.49       0.10       2.25       ----

> <Gold.Chemscore.Fitness>
12.0979

> <Gold.Chemscore.DG>
-14.4469

> <Gold.Chemscore.ZeroCoef>
-5.4800

> <Gold.Chemscore.Hbond>
1.2212

> <Gold.Chemscore.Metal>
0.0000

> <Gold.Chemscore.Lipo>
74.4148

> <Gold.Chemscore.Internal_Hbond>
0.0000

> <Gold.Chemscore.DEClash>
0.0972

> <Gold.Chemscore.DEInternal>
2.2517

> <Gold.Chemscore.Rot>
1.4916

> <Gold.Chemscore.Internal.Correction>
   9.000000E+99

> <Gold.Chemscore.Hbonds>
donor molecule, donor type, donor heavy atom, donor atom, acceptor molecule, acceptor atom, score
      P1  H  6896  6908       L1     3  0.99
      P1  H  6931  6943       L1     1  0.12
      P1  H  6934  6947       L1     1  0.11

> <Gold.Chemscore.Hbond.Weighted>
-4.0788

> <Gold.Chemscore.Metal.Weighted>
-0.0000

> <Gold.Chemscore.Lipo.Weighted>
-8.7065

> <Gold.Chemscore.Internal_Hbond.Weighted>
0.0000

> <Gold.Chemscore.DEClash.Weighted>
0.0972

> <Gold.Chemscore.DEInternal.Weighted>
2.2517

> <Gold.Chemscore.Rot.Weighted>
3.8185

> <Gold.Chemscore.Internal.Correction.Weighted>
   9.000000E+99

> <Gold.Protein.RotatedTorsions>
[ 6907 6896 6895 6894 ] final -174.22 input  -60.11 | X-H torsion
[ 7974 7965 7964 7962 ] final -165.27 input  175.53 | X-H torsion
[ 8008 7997 7996 7995 ] final  -34.95 input   59.86 | X-H torsion
[ 10167 10162 10161 10158 ] final  -37.63 input  -65.29 | X-H torsion
[ 10718 10713 10712 10709 ] final -102.61 input   66.30 | X-H torsion
[ 10763 10752 10751 10750 ] final  -50.83 input  -60.55 | X-H torsion
[ 11005 11000 10999 10996 ] final  121.19 input  -57.11 | X-H torsion

> <Gold.Protein.ActiveResidues>
 VAL166  LYS551  ARG553  GLY616  TRP617  ASP618  TYR619  PRO620  LYS621  CYS622 
 ASP623  PHE694  ASN695  SER759  ASP760  ASP761  ALA762  ILE779  LEU786  VAL792 
 PHE793  MET794  SER795  GLU796  ALA797  LYS798  CYS799  TRP800  GLU811  SER814 

> <Gold.Protein.RotatedAtoms>
  151.5688  133.3393  159.2985 H   0  0  0  0  0  0  0  0  0  0  0  0  # atno 6907 bound_to 6896
  150.8379  134.7663  159.6919 H   0  0  0  0  0  0  0  0  0  0  0  0  # atno 6908 bound_to 6896
  152.4452  134.5515  159.9920 H   0  0  0  0  0  0  0  0  0  0  0  0  # atno 6909 bound_to 6896
  144.7274  140.2839  143.6231 H   0  0  0  0  0  0  0  0  0  0  0  0  # atno 7974 bound_to 7965
  154.4107  140.1670  156.2133 H   0  0  0  0  0  0  0  0  0  0  0  0  # atno 8008 bound_to 7997
  155.9425  140.3407  155.6316 H   0  0  0  0  0  0  0  0  0  0  0  0  # atno 8009 bound_to 7997
  155.6971  140.0740  157.2416 H   0  0  0  0  0  0  0  0  0  0  0  0  # atno 8010 bound_to 7997
  140.7113  143.3329  151.2527 H   0  0  0  0  0  0  0  0  0  0  0  0  # atno 10167 bound_to 10162
  156.0235  130.5428  150.7133 H   0  0  0  0  0  0  0  0  0  0  0  0  # atno 10718 bound_to 10713
  154.1167  135.6541  153.4895 H   0  0  0  0  0  0  0  0  0  0  0  0  # atno 10763 bound_to 10752
  153.0239  135.5260  154.7138 H   0  0  0  0  0  0  0  0  0  0  0  0  # atno 10764 bound_to 10752
  154.6334  135.2979  155.0160 H   0  0  0  0  0  0  0  0  0  0  0  0  # atno 10765 bound_to 10752
  139.9215  134.9638  156.7920 H   0  0  0  0  0  0  0  0  0  0  0  0  # atno 11005 bound_to 11000
  145.7922  139.1931  143.2096 LP  0  0  0  0  0  0  0  0  0  0  0  0  # atno 17320 bound_to 7965
  146.0746  140.7831  142.9671 LP  0  0  0  0  0  0  0  0  0  0  0  0  # atno 17321 bound_to 7965
  139.6817  143.9844  152.2812 LP  0  0  0  0  0  0  0  0  0  0  0  0  # atno 17342 bound_to 10162
  139.9476  144.6641  150.8204 LP  0  0  0  0  0  0  0  0  0  0  0  0  # atno 17343 bound_to 10162
  157.4766  131.0898  151.0583 LP  0  0  0  0  0  0  0  0  0  0  0  0  # atno 17370 bound_to 10713
  157.1028  130.5989  149.5464 LP  0  0  0  0  0  0  0  0  0  0  0  0  # atno 17371 bound_to 10713
  140.6459  133.9776  155.7730 LP  0  0  0  0  0  0  0  0  0  0  0  0  # atno 17394 bound_to 11000
  141.0740  134.0162  157.3484 LP  0  0  0  0  0  0  0  0  0  0  0  0  # atno 17395 bound_to 11000

$$$$
