AV-unprocessed.smi:1701|AV-procd|sdf|6833|dock3
  -GOLD-   22720 8 13D 1   1.00000     0.00000
 Structure written by MMmdl.
 54 56  0  0  0  0  0  0  0  0  2 V2000
  152.1963  144.5505  159.3609 C   0  0  0  0  0  0  0  0  0  0  0  0
  151.8999  143.4270  158.3552 C   0  0  0  0  0  0  0  0  0  0  0  0
  151.6358  142.1403  158.9980 N   0  0  0  0  0  0  0  0  0  0  0  0
  152.5610  141.7182  160.0520 C   0  0  0  0  0  0  0  0  0  0  0  0
  154.0324  142.0045  159.7118 C   0  0  0  0  0  0  0  0  0  0  0  0
  151.1049  141.1579  158.1344 C   0  0  0  0  0  0  0  0  0  0  0  0
  151.2367  141.3074  156.7354 C   0  0  0  0  0  0  0  0  0  0  0  0
  150.7153  140.3116  155.8894 C   0  0  0  0  0  0  0  0  0  0  0  0
  150.0749  139.1913  156.4539 C   0  0  0  0  0  0  0  0  0  0  0  0
  149.5800  138.1999  155.5639 N   0  0  0  0  0  0  0  0  0  0  0  0
  149.0017  137.0141  155.8389 C   0  0  0  0  0  0  0  0  0  0  0  0
  148.7320  136.6060  156.9654 O   0  0  0  0  0  0  0  0  0  0  0  0
  148.7246  136.2719  154.7509 N   0  0  0  0  0  0  0  0  0  0  0  0
  148.1031  134.9455  154.6816 C   0  0  2  0  0  0  0  0  0  0  0  0
  149.0413  133.8822  154.0787 C   0  0  0  0  0  0  0  0  0  0  0  0
  148.1391  133.0317  153.1794 C   0  0  0  0  0  0  0  0  0  0  0  0
  147.1597  134.0055  152.6843 N   0  3  1  0  0  0  0  0  0  0  0  0
  145.9676  133.5068  151.9692 C   0  0  0  0  0  0  0  0  0  0  0  0
  145.2061  134.7182  151.3894 C   0  0  0  0  0  0  0  0  0  0  0  0
  144.9069  135.7894  152.4626 C   0  0  0  0  0  0  0  0  0  0  0  0
  146.1707  136.1705  153.2638 C   0  0  0  0  0  0  0  0  0  0  0  0
  146.8210  134.8879  153.8144 C   0  0  2  0  0  0  0  0  0  0  0  0
  149.9993  139.1233  157.8661 C   0  0  0  0  0  0  0  0  0  0  0  0
  150.4973  140.0771  158.6808 N   0  0  0  0  0  0  0  0  0  0  0  0
  152.3778  145.4919  158.8426 H   0  0  0  0  0  0  0  0  0  0  0  0
  153.0807  144.3284  159.9587 H   0  0  0  0  0  0  0  0  0  0  0  0
  151.3604  144.7057  160.0435 H   0  0  0  0  0  0  0  0  0  0  0  0
  151.0295  143.6986  157.7573 H   0  0  0  0  0  0  0  0  0  0  0  0
  152.7254  143.3405  157.6489 H   0  0  0  0  0  0  0  0  0  0  0  0
  152.2934  142.1968  160.9947 H   0  0  0  0  0  0  0  0  0  0  0  0
  152.4422  140.6464  160.2138 H   0  0  0  0  0  0  0  0  0  0  0  0
  154.6866  141.6317  160.4998 H   0  0  0  0  0  0  0  0  0  0  0  0
  154.2290  143.0707  159.6028 H   0  0  0  0  0  0  0  0  0  0  0  0
  154.3221  141.5142  158.7822 H   0  0  0  0  0  0  0  0  0  0  0  0
  151.7205  142.1742  156.3097 H   0  0  0  0  0  0  0  0  0  0  0  0
  150.8074  140.4113  154.8176 H   0  0  0  0  0  0  0  0  0  0  0  0
  149.6730  138.4239  154.5845 H   0  0  0  0  0  0  0  0  0  0  0  0
  149.0017  136.6695  153.8648 H   0  0  0  0  0  0  0  0  0  0  0  0
  147.8512  134.6130  155.6904 H   0  0  0  0  0  0  0  0  0  0  0  0
  149.8099  134.3577  153.4670 H   0  0  0  0  0  0  0  0  0  0  0  0
  149.5489  133.2884  154.8397 H   0  0  0  0  0  0  0  0  0  0  0  0
  148.6859  132.5525  152.3668 H   0  0  0  0  0  0  0  0  0  0  0  0
  147.6324  132.2600  153.7611 H   0  0  0  0  0  0  0  0  0  0  0  0
  146.2730  132.8347  151.1667 H   0  0  0  0  0  0  0  0  0  0  0  0
  145.3326  132.9352  152.6481 H   0  0  0  0  0  0  0  0  0  0  0  0
  145.8043  135.1690  150.5963 H   0  0  0  0  0  0  0  0  0  0  0  0
  144.2781  134.3879  150.9216 H   0  0  0  0  0  0  0  0  0  0  0  0
  144.4777  136.6769  151.9962 H   0  0  0  0  0  0  0  0  0  0  0  0
  144.1495  135.4066  153.1478 H   0  0  0  0  0  0  0  0  0  0  0  0
  146.8715  136.7093  152.6246 H   0  0  0  0  0  0  0  0  0  0  0  0
  145.8963  136.8442  154.0753 H   0  0  0  0  0  0  0  0  0  0  0  0
  146.0716  134.3713  154.4183 H   0  0  0  0  0  0  0  0  0  0  0  0
  149.5519  138.2895  158.3821 H   0  0  0  0  0  0  0  0  0  0  0  0
  147.6661  134.5810  152.0267 H   0  0  0  0  0  0  0  0  0  0  0  0
  1  2  1  0  0  0  0
  1 25  1  0  0  0  0
  1 26  1  0  0  0  0
  1 27  1  0  0  0  0
  2  3  1  0  0  0  0
  2 28  1  0  0  0  0
  2 29  1  0  0  0  0
  3  4  1  0  0  0  0
  3  6  1  0  0  0  0
  4  5  1  0  0  0  0
  4 30  1  0  0  0  0
  4 31  1  0  0  0  0
  5 32  1  0  0  0  0
  5 33  1  0  0  0  0
  5 34  1  0  0  0  0
  6 24  1  0  0  0  0
  6  7  2  0  0  0  0
  7  8  1  0  0  0  0
  7 35  1  0  0  0  0
  8  9  2  0  0  0  0
  8 36  1  0  0  0  0
  9 10  1  0  0  0  0
  9 23  1  0  0  0  0
 10 11  1  0  0  0  0
 10 37  1  0  0  0  0
 11 12  2  0  0  0  0
 11 13  1  0  0  0  0
 13 14  1  0  0  0  0
 13 38  1  0  0  0  0
 14 22  1  0  0  0  0
 14 15  1  0  0  0  0
 14 39  1  0  0  0  0
 15 16  1  0  0  0  0
 15 40  1  0  0  0  0
 15 41  1  0  0  0  0
 16 17  1  0  0  0  0
 16 42  1  0  0  0  0
 16 43  1  0  0  0  0
 17 22  1  0  0  0  0
 17 18  1  0  0  0  0
 17 54  1  0  0  0  0
 18 19  1  0  0  0  0
 18 44  1  0  0  0  0
 18 45  1  0  0  0  0
 19 20  1  0  0  0  0
 19 46  1  0  0  0  0
 19 47  1  0  0  0  0
 20 21  1  0  0  0  0
 20 48  1  0  0  0  0
 20 49  1  0  0  0  0
 21 22  1  0  0  0  0
 21 50  1  0  0  0  0
 21 51  1  0  0  0  0
 22 52  1  0  0  0  0
 23 24  2  0  0  0  0
 23 53  1  0  0  0  0
M  CHG  1  17   1
M  END
> <s_m_source_file>
AV-unprocessed.smi

> <i_m_source_file_index>
1701

> <i_lp_mmshare_version>
43012

> <i_f3d_flags>
0

> <s_epik_input>
W0NIM11bQ0gyXU4oW0NIMl1bQ0gzXSljMVtjSF1bY0hdYyhbY0hdbjEpW05IXUMoPU8pW05IXVtDQEhdKFtDSDJdW0NIMl0yKVtDQEBIXShOMjMpW0NIMl1bQ0gyXVtDSDJdW0NIMl0z

> <s_epik_cmdline>
J2VwaWtfcHl0aG9uJywgJy1waCcsICc3LjAnLCAnLXRuJywgJzgnLCAnLW1hJywgJzIwMCcsICctbWV0YWxfYmluZGluZycsICctaW1hZScsICc8aW5maWxlLm1hZT4nLCAnLW9tYWUnLCAnPG91dGZpbGUubWFlPic=

> <r_lp_tautomer_probability>
1

> <r_epik_Ionization_Penalty>
0.56662

> <r_epik_Ionization_Penalty_Charging>
0.000974069

> <r_epik_Ionization_Penalty_Neutral>
0.565646

> <r_epik_State_Penalty>
2.0247

> <r_epik_Charging_Adjusted_Penalty>
2.02568

> <i_epik_Tot_Q>
1

> <i_epik_Tot_abs_Q>
1

> <r_epik_Metal_State_Penalty>
1.51504

> <b_epik_Metal_Only>
0

> <s_lp_Force_Field>
OPLS_2005

> <r_lp_Energy>
60.4427

> <b_lp_Chiralities_Consistent>
1

> <s_lp_Variant>
AV-unprocessed.smi:1701-13

> <Gold.Version>
5.8.1

> <Gold.Id.Protein>
6NUR|6NUR_protein|mol2

> <Gold.PLP.Fitness>
43.6053

> <Gold.PLP.PLP>
-36.4497

> <Gold.PLP.part.hbond>
-2.0000

> <Gold.PLP.part.metal>
0.0000

> <Gold.PLP.part.buried>
-1.4927

> <Gold.PLP.part.nonpolar>
-32.5322

> <Gold.PLP.part.repulsive>
0.0029

> <Gold.PLP.ligand.clash>
0.0416

> <Gold.PLP.ligand.torsion>
0.7525

> <Gold.PLP.Chemscore.Hbond>
2.6080

> <Gold.PLP.Chemscore.CHOScore>
0.0000

> <Gold.PLP.Chemscore.Metal>
0.0000

> <Gold.Chemscore.Hbonds>
donor molecule, donor type, donor heavy atom, donor atom, acceptor molecule, acceptor atom, score
      L1  H    13    38       P1  7948  0.81
      L1  H    17    54       P1  7948  1.75

> <Gold.PLP.Chemscore.Internal.Correction>
0.8782

> <Gold.Rescore>
     Score         DG    S(hbond)    S(metal)    S(lipo)     H(rot)  DE(clash)    DE(int)     intcor
     15.52     -17.46       1.35        0.00      95.40       1.44       0.07       1.87       ----

> <Gold.Chemscore.Fitness>
15.5244

> <Gold.Chemscore.DG>
-17.4617

> <Gold.Chemscore.ZeroCoef>
-5.4800

> <Gold.Chemscore.Hbond>
1.3497

> <Gold.Chemscore.Metal>
0.0000

> <Gold.Chemscore.Lipo>
95.3953

> <Gold.Chemscore.Internal_Hbond>
0.0000

> <Gold.Chemscore.DEClash>
0.0710

> <Gold.Chemscore.DEInternal>
1.8662

> <Gold.Chemscore.Rot>
1.4404

> <Gold.Chemscore.Internal.Correction>
   9.000000E+99

> <Gold.Chemscore.Hbonds>
donor molecule, donor type, donor heavy atom, donor atom, acceptor molecule, acceptor atom, score
      L1  H    13    38       P1  7948  0.73
      L1  H    17    54       P1  7948  0.40

> <Gold.Chemscore.Hbond.Weighted>
-4.5079

> <Gold.Chemscore.Metal.Weighted>
-0.0000

> <Gold.Chemscore.Lipo.Weighted>
-11.1613

> <Gold.Chemscore.Internal_Hbond.Weighted>
0.0000

> <Gold.Chemscore.DEClash.Weighted>
0.0710

> <Gold.Chemscore.DEInternal.Weighted>
1.8662

> <Gold.Chemscore.Rot.Weighted>
3.6875

> <Gold.Chemscore.Internal.Correction.Weighted>
   9.000000E+99

> <Gold.Protein.RotatedTorsions>
[ 6907 6896 6895 6894 ] final   77.95 input  -60.11 | X-H torsion
[ 7974 7965 7964 7962 ] final   60.23 input  175.53 | X-H torsion
[ 8008 7997 7996 7995 ] final   95.05 input   59.86 | X-H torsion
[ 10167 10162 10161 10158 ] final -127.41 input  -65.29 | X-H torsion
[ 10718 10713 10712 10709 ] final  -80.56 input   66.30 | X-H torsion
[ 10763 10752 10751 10750 ] final   74.27 input  -60.55 | X-H torsion
[ 11005 11000 10999 10996 ] final -171.62 input  -57.11 | X-H torsion

> <Gold.Protein.ActiveResidues>
 VAL166  LYS551  ARG553  GLY616  TRP617  ASP618  TYR619  PRO620  LYS621  CYS622 
 ASP623  PHE694  ASN695  SER759  ASP760  ASP761  ALA762  ILE779  LEU786  VAL792 
 PHE793  MET794  SER795  GLU796  ALA797  LYS798  CYS799  TRP800  GLU811  SER814 

> <Gold.Protein.RotatedAtoms>
  152.5139  134.3739  159.9327 H   0  0  0  0  0  0  0  0  0  0  0  0  # atno 6907 bound_to 6896
  151.3694  133.3854  159.2706 H   0  0  0  0  0  0  0  0  0  0  0  0  # atno 6908 bound_to 6896
  150.9589  134.9000  159.7777 H   0  0  0  0  0  0  0  0  0  0  0  0  # atno 6909 bound_to 6896
  145.8983  139.3562  143.0607 H   0  0  0  0  0  0  0  0  0  0  0  0  # atno 7974 bound_to 7965
  156.0646  140.3291  155.7503 H   0  0  0  0  0  0  0  0  0  0  0  0  # atno 8008 bound_to 7997
  155.5401  140.0601  157.2889 H   0  0  0  0  0  0  0  0  0  0  0  0  # atno 8009 bound_to 7997
  154.4499  140.1912  156.0570 H   0  0  0  0  0  0  0  0  0  0  0  0  # atno 8010 bound_to 7997
  139.9612  143.5948  152.2444 H   0  0  0  0  0  0  0  0  0  0  0  0  # atno 10167 bound_to 10162
  156.0068  130.4578  150.3819 H   0  0  0  0  0  0  0  0  0  0  0  0  # atno 10718 bound_to 10713
  153.0576  135.5032  154.8017 H   0  0  0  0  0  0  0  0  0  0  0  0  # atno 10763 bound_to 10752
  154.6831  135.2971  154.9587 H   0  0  0  0  0  0  0  0  0  0  0  0  # atno 10764 bound_to 10752
  154.0366  135.6722  153.4838 H   0  0  0  0  0  0  0  0  0  0  0  0  # atno 10765 bound_to 10752
  140.5062  134.5846  157.5004 H   0  0  0  0  0  0  0  0  0  0  0  0  # atno 11005 bound_to 11000
  145.8822  140.9355  143.0595 LP  0  0  0  0  0  0  0  0  0  0  0  0  # atno 17320 bound_to 7965
  144.6734  140.0795  143.7470 LP  0  0  0  0  0  0  0  0  0  0  0  0  # atno 17321 bound_to 7965
  139.6553  144.7662  151.2068 LP  0  0  0  0  0  0  0  0  0  0  0  0  # atno 17342 bound_to 10162
  140.7552  143.6096  150.8618 LP  0  0  0  0  0  0  0  0  0  0  0  0  # atno 17343 bound_to 10162
  157.1898  131.0412  151.2706 LP  0  0  0  0  0  0  0  0  0  0  0  0  # atno 17370 bound_to 10713
  157.4071  130.7365  149.6811 LP  0  0  0  0  0  0  0  0  0  0  0  0  # atno 17371 bound_to 10713
  139.9685  134.7333  156.0089 LP  0  0  0  0  0  0  0  0  0  0  0  0  # atno 17394 bound_to 11000
  141.1410  133.6565  156.3729 LP  0  0  0  0  0  0  0  0  0  0  0  0  # atno 17395 bound_to 11000

$$$$
