AV-unprocessed.smi:160|AV-procd|sdf|1349|dock5
  -GOLD-   2262019 53D 1   1.00000     0.00000
 Structure written by MMmdl.
 29 30  0  0  0  0  0  0  0  0  1 V2000
  142.5093  135.8550  157.1265 N   0  0  0  0  0  0  0  0  0  0  0  0
  143.2824  136.3085  156.1340 C   0  0  0  0  0  0  0  0  0  0  0  0
  144.1779  137.1309  156.3198 O   0  0  0  0  0  0  0  0  0  0  0  0
  142.9944  135.7591  154.7642 C   0  0  0  0  0  0  0  0  0  0  0  0
  141.8148  135.1282  154.4894 N   0  0  0  0  0  0  0  0  0  0  0  0
  142.0308  134.8304  153.2146 C   0  0  0  0  0  0  0  0  0  0  0  0
  143.2096  135.2494  152.7428 N   0  0  0  0  0  0  0  0  0  0  0  0
  143.8090  135.0535  151.3794 C   0  0  2  0  0  0  0  0  0  0  0  0
  143.9028  133.6868  151.1354 O   0  0  0  0  0  0  0  0  0  0  0  0
  145.1395  133.1958  151.6369 C   0  0  1  0  0  0  0  0  0  0  0  0
  145.5222  131.9048  150.8970 C   0  0  0  0  0  0  0  0  0  0  0  0
  146.6486  131.3103  151.5058 O   0  0  0  0  0  0  0  0  0  0  0  0
  146.1171  134.3573  151.3820 C   0  0  2  0  0  0  0  0  0  0  0  0
  147.0188  134.4709  152.4650 O   0  0  0  0  0  0  0  0  0  0  0  0
  145.2390  135.6102  151.2885 C   0  0  1  0  0  0  0  0  0  0  0  0
  145.4471  136.2754  150.0588 O   0  0  0  0  0  0  0  0  0  0  0  0
  143.8694  135.8571  153.7624 N   0  0  0  0  0  0  0  0  0  0  0  0
  143.0980  135.5345  150.7062 H   0  0  0  0  0  0  0  0  0  0  0  0
  145.0440  133.0071  152.7077 H   0  0  0  0  0  0  0  0  0  0  0  0
  146.6742  134.2001  150.4568 H   0  0  0  0  0  0  0  0  0  0  0  0
  145.4238  136.3291  152.0884 H   0  0  0  0  0  0  0  0  0  0  0  0
  142.6521  136.1877  158.0686 H   0  0  0  0  0  0  0  0  0  0  0  0
  141.7840  135.1818  156.9249 H   0  0  0  0  0  0  0  0  0  0  0  0
  141.3147  134.2924  152.6109 H   0  0  0  0  0  0  0  0  0  0  0  0
  144.6892  131.2016  150.8682 H   0  0  0  0  0  0  0  0  0  0  0  0
  145.7915  132.1310  149.8648 H   0  0  0  0  0  0  0  0  0  0  0  0
  147.3397  131.2490  150.8641 H   0  0  0  0  0  0  0  0  0  0  0  0
  147.8328  134.8236  152.1392 H   0  0  0  0  0  0  0  0  0  0  0  0
  144.8158  136.9746  149.9852 H   0  0  0  0  0  0  0  0  0  0  0  0
  1  2  1  0  0  0  0
  1 22  1  0  0  0  0
  1 23  1  0  0  0  0
  2  3  2  0  0  0  0
  2  4  1  0  0  0  0
  4 17  2  0  0  0  0
  4  5  1  0  0  0  0
  5  6  2  0  0  0  0
  6  7  1  0  0  0  0
  6 24  1  0  0  0  0
  7  8  1  0  0  0  0
  7 17  1  0  0  0  0
  8 18  1  0  0  0  0
  8 15  1  0  0  0  0
  8  9  1  0  0  0  0
  9 10  1  0  0  0  0
 10 19  1  0  0  0  0
 10 11  1  0  0  0  0
 10 13  1  0  0  0  0
 11 12  1  0  0  0  0
 11 25  1  0  0  0  0
 11 26  1  0  0  0  0
 12 27  1  0  0  0  0
 13 20  1  0  0  0  0
 13 14  1  0  0  0  0
 13 15  1  0  0  0  0
 14 28  1  0  0  0  0
 15 21  1  0  0  0  0
 15 16  1  0  0  0  0
 16 29  1  0  0  0  0
M  END
> <s_m_source_file>
AV-unprocessed.smi

> <i_m_source_file_index>
160

> <i_lp_mmshare_version>
43012

> <i_f3d_flags>
0

> <s_epik_input>
W05IMl1DKD1PKWMxbltjSF1uKG4xKVtDQEBIXTJPW0NASF0oW0NIMl1bT0hdKVtDQEBIXShbT0hdKVtDQEhdMltPSF0=

> <s_epik_cmdline>
J2VwaWtfcHl0aG9uJywgJy1waCcsICc3LjAnLCAnLXRuJywgJzgnLCAnLW1hJywgJzIwMCcsICctbWV0YWxfYmluZGluZycsICctaW1hZScsICc8aW5maWxlLm1hZT4nLCAnLW9tYWUnLCAnPG91dGZpbGUubWFlPic=

> <r_lp_tautomer_probability>
1

> <r_epik_Ionization_Penalty>
1.06932e-05

> <r_epik_Ionization_Penalty_Charging>
0

> <r_epik_Ionization_Penalty_Neutral>
1.06932e-05

> <r_epik_State_Penalty>
-0

> <r_epik_Charging_Adjusted_Penalty>
0

> <i_epik_Tot_Q>
0

> <i_epik_Tot_abs_Q>
0

> <r_epik_Metal_State_Penalty>
0.0142097

> <b_epik_Metal_Only>
0

> <s_epik_Chemistry_Notes>
This compound contains an acetal/aminal-like group ( X-CH(R)-Y where X, Y are N, S, or O) that may be acid/base labile, releasing an aldehyde.

> <s_lp_Force_Field>
OPLS_2005

> <r_lp_Energy>
33.3091

> <b_lp_Chiralities_Consistent>
1

> <s_lp_Variant>
AV-unprocessed.smi:160-7

> <Gold.Version>
5.8.1

> <Gold.Id.Protein>
6NUR|6NUR_protein|mol2

> <Gold.PLP.Fitness>
38.0463

> <Gold.PLP.PLP>
-26.0512

> <Gold.PLP.part.hbond>
-6.0000

> <Gold.PLP.part.metal>
0.0000

> <Gold.PLP.part.buried>
-6.9375

> <Gold.PLP.part.nonpolar>
-14.2330

> <Gold.PLP.part.repulsive>
0.3200

> <Gold.PLP.ligand.clash>
0.0000

> <Gold.PLP.ligand.torsion>
0.1989

> <Gold.PLP.Chemscore.Hbond>
4.1200

> <Gold.PLP.Chemscore.CHOScore>
0.0000

> <Gold.PLP.Chemscore.Metal>
0.0000

> <Gold.Chemscore.Hbonds>
donor molecule, donor type, donor heavy atom, donor atom, acceptor molecule, acceptor atom, score
      L1  H     1    23       P1 11000  0.40
      L1  H    12    27       P1 10747  1.00
      L1  H    14    28       P1  7948  1.00
      L1  H    16    29       P1 10171  1.00
      P1  H 11000 11005       L1     5  0.65

> <Gold.PLP.Chemscore.Internal.Correction>
0.0330

> <Gold.Rescore>
     Score         DG    S(hbond)    S(metal)    S(lipo)     H(rot)  DE(clash)    DE(int)     intcor
     10.40     -10.61       3.77        0.00      24.97       4.06       0.00       0.20       ----

> <Gold.Chemscore.Fitness>
10.4041

> <Gold.Chemscore.DG>
-10.6097

> <Gold.Chemscore.ZeroCoef>
-5.4800

> <Gold.Chemscore.Hbond>
3.7731

> <Gold.Chemscore.Metal>
0.0000

> <Gold.Chemscore.Lipo>
24.9661

> <Gold.Chemscore.Internal_Hbond>
0.0000

> <Gold.Chemscore.DEClash>
0.0015

> <Gold.Chemscore.DEInternal>
0.2041

> <Gold.Chemscore.Rot>
4.0600

> <Gold.Chemscore.Internal.Correction>
   9.000000E+99

> <Gold.Chemscore.Hbonds>
donor molecule, donor type, donor heavy atom, donor atom, acceptor molecule, acceptor atom, score
      L1  H     1    23       P1 11000  0.01
      L1  H    12    27       P1 10747  0.99
      L1  H    14    28       P1  7948  0.63
      L1  H    16    29       P1 10171  1.00
      P1  H 11000 11005       L1     5  0.63

> <Gold.Chemscore.Hbond.Weighted>
-12.6022

> <Gold.Chemscore.Metal.Weighted>
-0.0000

> <Gold.Chemscore.Lipo.Weighted>
-2.9210

> <Gold.Chemscore.Internal_Hbond.Weighted>
0.0000

> <Gold.Chemscore.DEClash.Weighted>
0.0015

> <Gold.Chemscore.DEInternal.Weighted>
0.2041

> <Gold.Chemscore.Rot.Weighted>
10.3936

> <Gold.Chemscore.Internal.Correction.Weighted>
   9.000000E+99

> <Gold.Protein.RotatedTorsions>
[ 6907 6896 6895 6894 ] final  136.85 input  -60.11 | X-H torsion
[ 7974 7965 7964 7962 ] final   30.81 input  175.53 | X-H torsion
[ 8008 7997 7996 7995 ] final   13.26 input   59.86 | X-H torsion
[ 10167 10162 10161 10158 ] final   28.62 input  -65.29 | X-H torsion
[ 10718 10713 10712 10709 ] final   70.63 input   66.30 | X-H torsion
[ 10763 10752 10751 10750 ] final  -44.34 input  -60.55 | X-H torsion
[ 11005 11000 10999 10996 ] final    7.92 input  -57.11 | X-H torsion

> <Gold.Protein.ActiveResidues>
 VAL166  LYS551  ARG553  GLY616  TRP617  ASP618  TYR619  PRO620  LYS621  CYS622 
 ASP623  PHE694  ASN695  SER759  ASP760  ASP761  ALA762  ILE779  LEU786  VAL792 
 PHE793  MET794  SER795  GLU796  ALA797  LYS798  CYS799  TRP800  GLU811  SER814 

> <Gold.Protein.RotatedAtoms>
  152.2848  133.5504  159.5519 H   0  0  0  0  0  0  0  0  0  0  0  0  # atno 6907 bound_to 6896
  150.7210  134.0513  159.3808 H   0  0  0  0  0  0  0  0  0  0  0  0  # atno 6908 bound_to 6896
  151.8422  135.0586  160.0500 H   0  0  0  0  0  0  0  0  0  0  0  0  # atno 6909 bound_to 6896
  146.1589  139.6740  142.9047 H   0  0  0  0  0  0  0  0  0  0  0  0  # atno 7974 bound_to 7965
  154.8320  140.2901  155.5716 H   0  0  0  0  0  0  0  0  0  0  0  0  # atno 8008 bound_to 7997
  156.3006  140.2530  156.3178 H   0  0  0  0  0  0  0  0  0  0  0  0  # atno 8009 bound_to 7997
  154.9221  140.0385  157.1992 H   0  0  0  0  0  0  0  0  0  0  0  0  # atno 8010 bound_to 7997
  140.4837  144.0576  150.6273 H   0  0  0  0  0  0  0  0  0  0  0  0  # atno 10167 bound_to 10162
  157.6410  130.9487  150.0677 H   0  0  0  0  0  0  0  0  0  0  0  0  # atno 10718 bound_to 10713
  154.0105  135.6682  153.4765 H   0  0  0  0  0  0  0  0  0  0  0  0  # atno 10763 bound_to 10752
  153.0623  135.5021  154.8117 H   0  0  0  0  0  0  0  0  0  0  0  0  # atno 10764 bound_to 10752
  154.6998  135.3077  154.9321 H   0  0  0  0  0  0  0  0  0  0  0  0  # atno 10765 bound_to 10752
  140.5428  134.0358  155.7910 H   0  0  0  0  0  0  0  0  0  0  0  0  # atno 11005 bound_to 11000
  145.4638  141.0434  143.2737 LP  0  0  0  0  0  0  0  0  0  0  0  0  # atno 17320 bound_to 7965
  144.8000  139.6159  143.7076 LP  0  0  0  0  0  0  0  0  0  0  0  0  # atno 17321 bound_to 7965
  140.3825  143.2795  152.0154 LP  0  0  0  0  0  0  0  0  0  0  0  0  # atno 17342 bound_to 10162
  139.4838  144.6143  151.7375 LP  0  0  0  0  0  0  0  0  0  0  0  0  # atno 17343 bound_to 10162
  156.1691  130.3646  149.9191 LP  0  0  0  0  0  0  0  0  0  0  0  0  # atno 17370 bound_to 10713
  156.7171  130.8992  151.3615 LP  0  0  0  0  0  0  0  0  0  0  0  0  # atno 17371 bound_to 10713
  141.1217  133.9450  157.2716 LP  0  0  0  0  0  0  0  0  0  0  0  0  # atno 17394 bound_to 11000
  139.9495  135.0178  156.8952 LP  0  0  0  0  0  0  0  0  0  0  0  0  # atno 17395 bound_to 11000

$$$$
