AV-unprocessed.smi:1010|AV-procd|sdf|4417|dock2
  -GOLD-   22720 2363D 1   1.00000     0.00000
 Structure written by MMmdl.
 54 56  0  0  0  0  0  0  0  0  1 V2000
  149.9111  136.6040  158.1528 C   0  0  0  0  0  0  0  0  0  0  0  0
  149.0991  137.3393  157.1821 N   0  0  0  0  0  0  0  0  0  0  0  0
  148.0963  138.0915  157.9387 C   0  0  0  0  0  0  0  0  0  0  0  0
  149.8317  138.1269  156.1499 C   0  0  0  0  0  0  0  0  0  0  0  0
  150.7507  137.1424  155.3596 C   0  0  0  0  0  0  0  0  0  0  0  0
  149.9862  136.2048  154.5437 N   0  0  0  0  0  0  0  0  0  0  0  0
  149.8608  134.8978  154.8011 C   0  0  0  0  0  0  0  0  0  0  0  0
  150.3687  134.3454  155.7769 O   0  0  0  0  0  0  0  0  0  0  0  0
  149.1348  134.2880  153.8499 N   0  0  0  0  0  0  0  0  0  0  0  0
  148.8188  132.9056  153.7267 C   0  0  0  0  0  0  0  0  0  0  0  0
  149.6279  131.9020  154.3140 C   0  0  0  0  0  0  0  0  0  0  0  0
  149.2828  130.5503  154.1445 C   0  0  0  0  0  0  0  0  0  0  0  0
  148.1347  130.2472  153.3945 C   0  0  0  0  0  0  0  0  0  0  0  0
  147.3425  131.1901  152.8468 N   0  0  0  0  0  0  0  0  0  0  0  0
  147.6535  132.4996  153.0137 C   0  0  0  0  0  0  0  0  0  0  0  0
  146.7747  133.4417  152.4306 N   0  0  0  0  0  0  0  0  0  0  0  0
  146.6573  133.5480  150.9802 C   0  0  0  0  0  0  0  0  0  0  0  0
  145.3910  134.3661  150.7451 C   0  0  0  0  0  0  0  0  0  0  0  0
  144.4868  133.9012  151.8827 C   0  0  0  0  0  0  0  0  0  0  0  0
  145.4606  133.6356  153.0359 C   0  0  0  0  0  0  0  0  0  0  0  0
  148.8538  138.8437  155.1776 C   0  0  0  0  0  0  0  0  0  0  0  0
  149.5706  139.8430  154.2484 C   0  0  0  0  0  0  0  0  0  0  0  0
  150.3094  140.7909  155.0082 O   0  0  0  0  0  0  0  0  0  0  0  0
  151.3332  140.1957  155.7951 C   0  0  0  0  0  0  0  0  0  0  0  0
  150.7021  139.2346  156.8188 C   0  0  0  0  0  0  0  0  0  0  0  0
  150.5056  135.8249  157.6783 H   0  0  0  0  0  0  0  0  0  0  0  0
  149.2730  136.0884  158.8715 H   0  0  0  0  0  0  0  0  0  0  0  0
  150.5741  137.2607  158.7154 H   0  0  0  0  0  0  0  0  0  0  0  0
  147.3677  138.5818  157.2967 H   0  0  0  0  0  0  0  0  0  0  0  0
  148.5567  138.8449  158.5782 H   0  0  0  0  0  0  0  0  0  0  0  0
  147.5278  137.4196  158.5826 H   0  0  0  0  0  0  0  0  0  0  0  0
  151.4584  137.6773  154.7264 H   0  0  0  0  0  0  0  0  0  0  0  0
  151.3776  136.5601  156.0329 H   0  0  0  0  0  0  0  0  0  0  0  0
  149.5448  136.5780  153.7160 H   0  0  0  0  0  0  0  0  0  0  0  0
  148.8675  134.8616  153.0635 H   0  0  0  0  0  0  0  0  0  0  0  0
  150.5025  132.1462  154.8973 H   0  0  0  0  0  0  0  0  0  0  0  0
  149.8854  129.7657  154.5774 H   0  0  0  0  0  0  0  0  0  0  0  0
  147.8389  129.2208  153.2365 H   0  0  0  0  0  0  0  0  0  0  0  0
  147.5353  134.0256  150.5447 H   0  0  0  0  0  0  0  0  0  0  0  0
  146.5411  132.5622  150.5279 H   0  0  0  0  0  0  0  0  0  0  0  0
  145.6078  135.4299  150.8521 H   0  0  0  0  0  0  0  0  0  0  0  0
  144.9566  134.2040  149.7584 H   0  0  0  0  0  0  0  0  0  0  0  0
  143.7161  134.6284  152.1388 H   0  0  0  0  0  0  0  0  0  0  0  0
  143.9912  132.9717  151.5989 H   0  0  0  0  0  0  0  0  0  0  0  0
  145.1500  132.7752  153.6302 H   0  0  0  0  0  0  0  0  0  0  0  0
  145.5009  134.5049  153.6923 H   0  0  0  0  0  0  0  0  0  0  0  0
  148.3139  138.1218  154.5646 H   0  0  0  0  0  0  0  0  0  0  0  0
  148.0980  139.3957  155.7354 H   0  0  0  0  0  0  0  0  0  0  0  0
  150.2279  139.3332  153.5433 H   0  0  0  0  0  0  0  0  0  0  0  0
  148.8352  140.3802  153.6494 H   0  0  0  0  0  0  0  0  0  0  0  0
  152.0669  139.6998  155.1597 H   0  0  0  0  0  0  0  0  0  0  0  0
  151.8684  140.9885  156.3179 H   0  0  0  0  0  0  0  0  0  0  0  0
  150.0992  139.8713  157.4638 H   0  0  0  0  0  0  0  0  0  0  0  0
  151.4745  138.8008  157.4547 H   0  0  0  0  0  0  0  0  0  0  0  0
  1  2  1  0  0  0  0
  1 26  1  0  0  0  0
  1 27  1  0  0  0  0
  1 28  1  0  0  0  0
  2  3  1  0  0  0  0
  2  4  1  0  0  0  0
  3 29  1  0  0  0  0
  3 30  1  0  0  0  0
  3 31  1  0  0  0  0
  4 25  1  0  0  0  0
  4  5  1  0  0  0  0
  4 21  1  0  0  0  0
  5  6  1  0  0  0  0
  5 32  1  0  0  0  0
  5 33  1  0  0  0  0
  6  7  1  0  0  0  0
  6 34  1  0  0  0  0
  7  8  2  0  0  0  0
  7  9  1  0  0  0  0
  9 10  1  0  0  0  0
  9 35  1  0  0  0  0
 10 15  1  0  0  0  0
 10 11  2  0  0  0  0
 11 12  1  0  0  0  0
 11 36  1  0  0  0  0
 12 13  2  0  0  0  0
 12 37  1  0  0  0  0
 13 14  1  0  0  0  0
 13 38  1  0  0  0  0
 14 15  2  0  0  0  0
 15 16  1  0  0  0  0
 16 20  1  0  0  0  0
 16 17  1  0  0  0  0
 17 18  1  0  0  0  0
 17 39  1  0  0  0  0
 17 40  1  0  0  0  0
 18 19  1  0  0  0  0
 18 41  1  0  0  0  0
 18 42  1  0  0  0  0
 19 20  1  0  0  0  0
 19 43  1  0  0  0  0
 19 44  1  0  0  0  0
 20 45  1  0  0  0  0
 20 46  1  0  0  0  0
 21 22  1  0  0  0  0
 21 47  1  0  0  0  0
 21 48  1  0  0  0  0
 22 23  1  0  0  0  0
 22 49  1  0  0  0  0
 22 50  1  0  0  0  0
 23 24  1  0  0  0  0
 24 25  1  0  0  0  0
 24 51  1  0  0  0  0
 24 52  1  0  0  0  0
 25 53  1  0  0  0  0
 25 54  1  0  0  0  0
M  END
> <s_m_source_file>
AV-unprocessed.smi

> <i_m_source_file_index>
1010

> <i_lp_mmshare_version>
43012

> <i_f3d_flags>
0

> <s_epik_input>
W0NIMl0xW0NIMl1PW0NIMl1bQ0gyXUMxKE4oW0NIM10pW0NIM10pW0NIMl1bTkhdQyg9TylbTkhdYzJbY0hdW2NIXVtjSF1uYzJOM1tDSDJdW0NIMl1bQ0gyXVtDSDJdMw==

> <s_epik_cmdline>
J2VwaWtfcHl0aG9uJywgJy1waCcsICc3LjAnLCAnLXRuJywgJzgnLCAnLW1hJywgJzIwMCcsICctbWV0YWxfYmluZGluZycsICctaW1hZScsICc8aW5maWxlLm1hZT4nLCAnLW9tYWUnLCAnPG91dGZpbGUubWFlPic=

> <r_lp_tautomer_probability>
1

> <r_epik_Ionization_Penalty>
2.38232

> <r_epik_Ionization_Penalty_Charging>
0

> <r_epik_Ionization_Penalty_Neutral>
2.38232

> <r_epik_State_Penalty>
2.49988

> <r_epik_Charging_Adjusted_Penalty>
2.49988

> <i_epik_Tot_Q>
0

> <i_epik_Tot_abs_Q>
0

> <r_epik_Metal_State_Penalty>
2.47138

> <b_epik_Metal_Only>
0

> <s_lp_Force_Field>
OPLS_2005

> <r_lp_Energy>
56.3274

> <b_lp_Chiralities_Consistent>
1

> <s_lp_Variant>
AV-unprocessed.smi:1010-3

> <Gold.Version>
5.8.1

> <Gold.Id.Protein>
6NUR|6NUR_protein|mol2

> <Gold.PLP.Fitness>
40.1728

> <Gold.PLP.PLP>
-34.4302

> <Gold.PLP.part.hbond>
-3.0000

> <Gold.PLP.part.metal>
0.0000

> <Gold.PLP.part.buried>
-4.0087

> <Gold.PLP.part.nonpolar>
-27.8548

> <Gold.PLP.part.repulsive>
0.4139

> <Gold.PLP.ligand.clash>
0.0000

> <Gold.PLP.ligand.torsion>
0.4392

> <Gold.PLP.Chemscore.Hbond>
2.0722

> <Gold.PLP.Chemscore.CHOScore>
0.0000

> <Gold.PLP.Chemscore.Metal>
0.0000

> <Gold.Chemscore.Hbonds>
donor molecule, donor type, donor heavy atom, donor atom, acceptor molecule, acceptor atom, score
      L1  H     6    34       P1  7948  0.91
      L1  H     9    35       P1  7948  0.90
      P1  H  7989  7998       L1    23  0.13

> <Gold.PLP.Chemscore.Internal.Correction>
0.4045

> <Gold.Rescore>
     Score         DG    S(hbond)    S(metal)    S(lipo)     H(rot)  DE(clash)    DE(int)     intcor
     13.08     -14.81       1.40        0.00      73.42       1.54       0.11       1.62       ----

> <Gold.Chemscore.Fitness>
13.0794

> <Gold.Chemscore.DG>
-14.8111

> <Gold.Chemscore.ZeroCoef>
-5.4800

> <Gold.Chemscore.Hbond>
1.3991

> <Gold.Chemscore.Metal>
0.0000

> <Gold.Chemscore.Lipo>
73.4247

> <Gold.Chemscore.Internal_Hbond>
0.0000

> <Gold.Chemscore.DEClash>
0.1067

> <Gold.Chemscore.DEInternal>
1.6249

> <Gold.Chemscore.Rot>
1.5362

> <Gold.Chemscore.Internal.Correction>
   9.000000E+99

> <Gold.Chemscore.Hbonds>
donor molecule, donor type, donor heavy atom, donor atom, acceptor molecule, acceptor atom, score
      L1  H     6    34       P1  7948  0.66
      L1  H     9    35       P1  7948  0.18

> <Gold.Chemscore.Hbond.Weighted>
-4.6730

> <Gold.Chemscore.Metal.Weighted>
-0.0000

> <Gold.Chemscore.Lipo.Weighted>
-8.5907

> <Gold.Chemscore.Internal_Hbond.Weighted>
0.0000

> <Gold.Chemscore.DEClash.Weighted>
0.1067

> <Gold.Chemscore.DEInternal.Weighted>
1.6249

> <Gold.Chemscore.Rot.Weighted>
3.9326

> <Gold.Chemscore.Internal.Correction.Weighted>
   9.000000E+99

> <Gold.Protein.RotatedTorsions>
[ 6907 6896 6895 6894 ] final  -45.20 input  -60.11 | X-H torsion
[ 7974 7965 7964 7962 ] final   95.09 input  175.53 | X-H torsion
[ 8008 7997 7996 7995 ] final -134.17 input   59.86 | X-H torsion
[ 10167 10162 10161 10158 ] final  112.94 input  -65.29 | X-H torsion
[ 10718 10713 10712 10709 ] final   87.69 input   66.30 | X-H torsion
[ 10763 10752 10751 10750 ] final  -10.24 input  -60.55 | X-H torsion
[ 11005 11000 10999 10996 ] final   59.83 input  -57.11 | X-H torsion

> <Gold.Protein.ActiveResidues>
 VAL166  LYS551  ARG553  GLY616  TRP617  ASP618  TYR619  PRO620  LYS621  CYS622 
 ASP623  PHE694  ASN695  SER759  ASP760  ASP761  ALA762  ILE779  LEU786  VAL792 
 PHE793  MET794  SER795  GLU796  ALA797  LYS798  CYS799  TRP800  GLU811  SER814 

> <Gold.Protein.RotatedAtoms>
  150.9245  134.8662  159.7510 H   0  0  0  0  0  0  0  0  0  0  0  0  # atno 6907 bound_to 6896
  152.5009  134.4169  159.9477 H   0  0  0  0  0  0  0  0  0  0  0  0  # atno 6908 bound_to 6896
  151.4200  133.3661  159.2790 H   0  0  0  0  0  0  0  0  0  0  0  0  # atno 6909 bound_to 6896
  145.4569  139.2289  143.3009 H   0  0  0  0  0  0  0  0  0  0  0  0  # atno 7974 bound_to 7965
  155.3576  140.0481  157.3046 H   0  0  0  0  0  0  0  0  0  0  0  0  # atno 8008 bound_to 7997
  154.5194  140.2220  155.8967 H   0  0  0  0  0  0  0  0  0  0  0  0  # atno 8009 bound_to 7997
  156.1673  140.3103  155.8917 H   0  0  0  0  0  0  0  0  0  0  0  0  # atno 8010 bound_to 7997
  139.6498  144.7128  151.2071 H   0  0  0  0  0  0  0  0  0  0  0  0  # atno 10167 bound_to 10162
  157.6942  131.0265  150.3161 H   0  0  0  0  0  0  0  0  0  0  0  0  # atno 10718 bound_to 10713
  153.4663  135.7016  153.6020 H   0  0  0  0  0  0  0  0  0  0  0  0  # atno 10763 bound_to 10752
  153.4293  135.3806  155.2160 H   0  0  0  0  0  0  0  0  0  0  0  0  # atno 10764 bound_to 10752
  154.8726  135.3947  154.4095 H   0  0  0  0  0  0  0  0  0  0  0  0  # atno 10765 bound_to 10752
  140.0275  134.6060  155.9552 H   0  0  0  0  0  0  0  0  0  0  0  0  # atno 11005 bound_to 11000
  146.2473  140.5334  142.8908 LP  0  0  0  0  0  0  0  0  0  0  0  0  # atno 17320 bound_to 7965
  144.8027  140.6242  143.6467 LP  0  0  0  0  0  0  0  0  0  0  0  0  # atno 17321 bound_to 7965
  140.7532  143.6169  150.8551 LP  0  0  0  0  0  0  0  0  0  0  0  0  # atno 17342 bound_to 10162
  139.9816  143.5945  152.2941 LP  0  0  0  0  0  0  0  0  0  0  0  0  # atno 17343 bound_to 10162
  156.3655  130.3854  149.7217 LP  0  0  0  0  0  0  0  0  0  0  0  0  # atno 17370 bound_to 10713
  156.4649  130.7969  151.2988 LP  0  0  0  0  0  0  0  0  0  0  0  0  # atno 17371 bound_to 10713
  141.1812  133.6547  156.5026 LP  0  0  0  0  0  0  0  0  0  0  0  0  # atno 17394 bound_to 11000
  140.4281  134.7127  157.4927 LP  0  0  0  0  0  0  0  0  0  0  0  0  # atno 17395 bound_to 11000

$$$$
