AV-unprocessed.smi:2237|AV-procd|sdf|9047|dock2
  -GOLD-   2272012253D 1   1.00000     0.00000
 Structure written by MMmdl.
 55 57  0  0  0  0  0  0  0  0  3 V2000
  151.1248  144.7844  160.4460 C   0  0  0  0  0  0  0  0  0  0  0  0
  151.7701  143.4926  159.9903 C   0  0  0  0  0  0  0  0  0  0  0  0
  152.7819  142.8782  160.7540 C   0  0  0  0  0  0  0  0  0  0  0  0
  153.3400  141.6803  160.2733 C   0  0  0  0  0  0  0  0  0  0  0  0
  152.8666  141.1492  159.0580 C   0  0  0  0  0  0  0  0  0  0  0  0
  151.8471  141.8280  158.3531 C   0  0  0  0  0  0  0  0  0  0  0  0
  151.4363  141.2092  157.1422 N   0  0  0  0  0  0  0  0  0  0  0  0
  150.2079  141.1904  156.5949 C   0  0  0  0  0  0  0  0  0  0  0  0
  149.2109  141.7434  157.0603 O   0  0  0  0  0  0  0  0  0  0  0  0
  150.1922  140.4837  155.4547 N   0  0  0  0  0  0  0  0  0  0  0  0
  149.0084  140.2499  154.6323 C   0  0  2  0  0  0  0  0  0  0  0  0
  148.2846  141.5800  154.3624 C   0  0  0  0  0  0  0  0  0  0  0  0
  146.9845  141.3395  153.5729 C   0  0  0  0  0  0  0  0  0  0  0  0
  146.0591  140.4215  154.2978 N   0  3  2  0  0  0  0  0  0  0  0  0
  145.3782  140.9861  155.5132 C   0  0  2  0  0  0  0  0  0  0  0  0
  144.3079  140.0090  156.0608 C   0  0  0  0  0  0  0  0  0  0  0  0
  143.5597  140.5796  157.2777 C   0  0  0  0  0  0  0  0  0  0  0  0
  142.9259  141.8786  156.9539 N   0  3  1  0  0  0  0  0  0  0  0  0
  142.0994  142.3968  158.0656 C   0  0  0  0  0  0  0  0  0  0  0  0
  143.9250  142.8657  156.4843 C   0  0  0  0  0  0  0  0  0  0  0  0
  144.6830  142.3465  155.2506 C   0  0  0  0  0  0  0  0  0  0  0  0
  146.7340  139.1087  154.5167 C   0  0  0  0  0  0  0  0  0  0  0  0
  148.0489  139.2518  155.3102 C   0  0  0  0  0  0  0  0  0  0  0  0
  151.3162  142.9838  158.8246 N   0  0  0  0  0  0  0  0  0  0  0  0
  151.4837  145.0796  161.4324 H   0  0  0  0  0  0  0  0  0  0  0  0
  150.0417  144.6705  160.4994 H   0  0  0  0  0  0  0  0  0  0  0  0
  151.3522  145.5886  159.7457 H   0  0  0  0  0  0  0  0  0  0  0  0
  153.1229  143.3107  161.6832 H   0  0  0  0  0  0  0  0  0  0  0  0
  154.1179  141.1759  160.8271 H   0  0  0  0  0  0  0  0  0  0  0  0
  153.2843  140.2292  158.6758 H   0  0  0  0  0  0  0  0  0  0  0  0
  152.1600  140.7147  156.6424 H   0  0  0  0  0  0  0  0  0  0  0  0
  151.0559  140.0619  155.1459 H   0  0  0  0  0  0  0  0  0  0  0  0
  149.3222  139.8377  153.6709 H   0  0  0  0  0  0  0  0  0  0  0  0
  148.0640  142.0895  155.3012 H   0  0  0  0  0  0  0  0  0  0  0  0
  148.9371  142.2467  153.7972 H   0  0  0  0  0  0  0  0  0  0  0  0
  146.5058  142.2783  153.3007 H   0  0  0  0  0  0  0  0  0  0  0  0
  147.2359  140.8773  152.6170 H   0  0  0  0  0  0  0  0  0  0  0  0
  146.1264  141.1500  156.2888 H   0  0  0  0  0  0  0  0  0  0  0  0
  143.5903  139.7706  155.2741 H   0  0  0  0  0  0  0  0  0  0  0  0
  144.7521  139.0639  156.3676 H   0  0  0  0  0  0  0  0  0  0  0  0
  142.7941  139.8715  157.5983 H   0  0  0  0  0  0  0  0  0  0  0  0
  144.2463  140.7051  158.1166 H   0  0  0  0  0  0  0  0  0  0  0  0
  142.7099  142.6043  158.9455 H   0  0  0  0  0  0  0  0  0  0  0  0
  141.3318  141.6740  158.3444 H   0  0  0  0  0  0  0  0  0  0  0  0
  141.5955  143.3189  157.7735 H   0  0  0  0  0  0  0  0  0  0  0  0
  143.4230  143.8013  156.2342 H   0  0  0  0  0  0  0  0  0  0  0  0
  144.6269  143.0883  157.2900 H   0  0  0  0  0  0  0  0  0  0  0  0
  145.4123  143.1098  154.9806 H   0  0  0  0  0  0  0  0  0  0  0  0
  143.9927  142.2564  154.4105 H   0  0  0  0  0  0  0  0  0  0  0  0
  146.0788  138.3862  154.9979 H   0  0  0  0  0  0  0  0  0  0  0  0
  146.9582  138.6784  153.5398 H   0  0  0  0  0  0  0  0  0  0  0  0
  148.5268  138.2746  155.3926 H   0  0  0  0  0  0  0  0  0  0  0  0
  147.8388  139.5680  156.3321 H   0  0  0  0  0  0  0  0  0  0  0  0
  145.3099  140.2391  153.6448 H   0  0  0  0  0  0  0  0  0  0  0  0
  142.2937  141.7121  156.1836 H   0  0  0  0  0  0  0  0  0  0  0  0
  1  2  1  0  0  0  0
  1 25  1  0  0  0  0
  1 26  1  0  0  0  0
  1 27  1  0  0  0  0
  2 24  1  0  0  0  0
  2  3  2  0  0  0  0
  3  4  1  0  0  0  0
  3 28  1  0  0  0  0
  4  5  2  0  0  0  0
  4 29  1  0  0  0  0
  5  6  1  0  0  0  0
  5 30  1  0  0  0  0
  6  7  1  0  0  0  0
  6 24  2  0  0  0  0
  7  8  1  0  0  0  0
  7 31  1  0  0  0  0
  8  9  2  0  0  0  0
  8 10  1  0  0  0  0
 10 11  1  0  0  0  0
 10 32  1  0  0  0  0
 11 23  1  0  0  0  0
 11 12  1  0  0  0  0
 11 33  1  0  0  0  0
 12 13  1  0  0  0  0
 12 34  1  0  0  0  0
 12 35  1  0  0  0  0
 13 14  1  0  0  0  0
 13 36  1  0  0  0  0
 13 37  1  0  0  0  0
 14 15  1  0  0  0  0
 14 22  1  0  0  0  0
 14 54  1  0  0  0  0
 15 21  1  0  0  0  0
 15 16  1  0  0  0  0
 15 38  1  0  0  0  0
 16 17  1  0  0  0  0
 16 39  1  0  0  0  0
 16 40  1  0  0  0  0
 17 18  1  0  0  0  0
 17 41  1  0  0  0  0
 17 42  1  0  0  0  0
 18 19  1  0  0  0  0
 18 20  1  0  0  0  0
 18 55  1  0  0  0  0
 19 43  1  0  0  0  0
 19 44  1  0  0  0  0
 19 45  1  0  0  0  0
 20 21  1  0  0  0  0
 20 46  1  0  0  0  0
 20 47  1  0  0  0  0
 21 48  1  0  0  0  0
 21 49  1  0  0  0  0
 22 23  1  0  0  0  0
 22 50  1  0  0  0  0
 22 51  1  0  0  0  0
 23 52  1  0  0  0  0
 23 53  1  0  0  0  0
M  CHG  1  14   1
M  CHG  1  18   1
M  END
> <s_m_source_file>
AV-unprocessed.smi

> <i_m_source_file_index>
2237

> <i_lp_mmshare_version>
43012

> <i_f3d_flags>
0

> <s_epik_input>
W0NIM11jMVtjSF1bY0hdW2NIXWMobjEpW05IXUMoPU8pW05IXVtDSF0yW0NIMl1bQ0gyXU4oW0NIMl1bQ0gyXTIpW0NIXTNbQ0gyXVtDSDJdTihbQ0gzXSlbQ0gyXVtDSDJdMw==

> <s_epik_cmdline>
J2VwaWtfcHl0aG9uJywgJy1waCcsICc3LjAnLCAnLXRuJywgJzgnLCAnLW1hJywgJzIwMCcsICctbWV0YWxfYmluZGluZycsICctaW1hZScsICc8aW5maWxlLm1hZT4nLCAnLW9tYWUnLCAnPG91dGZpbGUubWFlPic=

> <r_epik_Ionization_Penalty>
0.180851

> <r_epik_Ionization_Penalty_Charging>
0.180787

> <r_epik_Ionization_Penalty_Neutral>
6.38624e-05

> <r_epik_State_Penalty>
0.153592

> <r_epik_Charging_Adjusted_Penalty>
0.334379

> <i_epik_Tot_Q>
2

> <i_epik_Tot_abs_Q>
2

> <r_epik_Metal_State_Penalty>
0.153595

> <b_epik_Metal_Only>
0

> <s_lp_Force_Field>
OPLS_2005

> <r_lp_Energy>
43.8269

> <b_lp_Chiralities_Consistent>
1

> <s_lp_Variant>
AV-unprocessed.smi:2237-2

> <Gold.Version>
5.8.1

> <Gold.Id.Protein>
6NUR|6NUR_protein|mol2

> <Gold.PLP.Fitness>
45.4777

> <Gold.PLP.PLP>
-40.1908

> <Gold.PLP.part.hbond>
-1.0000

> <Gold.PLP.part.metal>
0.0000

> <Gold.PLP.part.buried>
-6.6338

> <Gold.PLP.part.nonpolar>
-33.0041

> <Gold.PLP.part.repulsive>
1.1299

> <Gold.PLP.ligand.clash>
0.0000

> <Gold.PLP.ligand.torsion>
0.3809

> <Gold.PLP.Chemscore.Hbond>
2.0000

> <Gold.PLP.Chemscore.CHOScore>
0.0000

> <Gold.PLP.Chemscore.Metal>
0.0000

> <Gold.Chemscore.Hbonds>
donor molecule, donor type, donor heavy atom, donor atom, acceptor molecule, acceptor atom, score
      L1  H    14    54       P1 10175  2.00

> <Gold.PLP.Chemscore.Internal.Correction>
0.0487

> <Gold.Rescore>
     Score         DG    S(hbond)    S(metal)    S(lipo)     H(rot)  DE(clash)    DE(int)     intcor
     14.34     -17.12       0.99        0.00      98.12       1.23       0.03       2.75       ----

> <Gold.Chemscore.Fitness>
14.3365

> <Gold.Chemscore.DG>
-17.1220

> <Gold.Chemscore.ZeroCoef>
-5.4800

> <Gold.Chemscore.Hbond>
0.9909

> <Gold.Chemscore.Metal>
0.0000

> <Gold.Chemscore.Lipo>
98.1185

> <Gold.Chemscore.Internal_Hbond>
0.0000

> <Gold.Chemscore.DEClash>
0.0310

> <Gold.Chemscore.DEInternal>
2.7545

> <Gold.Chemscore.Rot>
1.2295

> <Gold.Chemscore.Internal.Correction>
   9.000000E+99

> <Gold.Chemscore.Hbonds>
donor molecule, donor type, donor heavy atom, donor atom, acceptor molecule, acceptor atom, score
      L1  H    14    54       P1 10175  0.94

> <Gold.Chemscore.Hbond.Weighted>
-3.3095

> <Gold.Chemscore.Metal.Weighted>
-0.0000

> <Gold.Chemscore.Lipo.Weighted>
-11.4799

> <Gold.Chemscore.Internal_Hbond.Weighted>
0.0000

> <Gold.Chemscore.DEClash.Weighted>
0.0310

> <Gold.Chemscore.DEInternal.Weighted>
2.7545

> <Gold.Chemscore.Rot.Weighted>
3.1474

> <Gold.Chemscore.Internal.Correction.Weighted>
   9.000000E+99

> <Gold.Protein.RotatedTorsions>
[ 6907 6896 6895 6894 ] final  121.99 input  -60.11 | X-H torsion
[ 7974 7965 7964 7962 ] final   14.03 input  175.53 | X-H torsion
[ 8008 7997 7996 7995 ] final    7.62 input   59.86 | X-H torsion
[ 10167 10162 10161 10158 ] final  114.42 input  -65.29 | X-H torsion
[ 10718 10713 10712 10709 ] final  -39.31 input   66.30 | X-H torsion
[ 10763 10752 10751 10750 ] final -127.64 input  -60.55 | X-H torsion
[ 11005 11000 10999 10996 ] final  178.32 input  -57.11 | X-H torsion

> <Gold.Protein.ActiveResidues>
 VAL166  LYS551  ARG553  GLY616  TRP617  ASP618  TYR619  PRO620  LYS621  CYS622 
 ASP623  PHE694  ASN695  SER759  ASP760  ASP761  ALA762  ILE779  LEU786  VAL792 
 PHE793  MET794  SER795  GLU796  ALA797  LYS798  CYS799  TRP800  GLU811  SER814 

> <Gold.Protein.RotatedAtoms>
  152.4278  133.7226  159.6541 H   0  0  0  0  0  0  0  0  0  0  0  0  # atno 6907 bound_to 6896
  150.8156  133.8333  159.3168 H   0  0  0  0  0  0  0  0  0  0  0  0  # atno 6908 bound_to 6896
  151.6030  135.1048  160.0116 H   0  0  0  0  0  0  0  0  0  0  0  0  # atno 6909 bound_to 6896
  146.2315  139.9101  142.8525 H   0  0  0  0  0  0  0  0  0  0  0  0  # atno 7974 bound_to 7965
  154.7562  140.2776  155.6251 H   0  0  0  0  0  0  0  0  0  0  0  0  # atno 8008 bound_to 7997
  156.2906  140.2669  156.2256 H   0  0  0  0  0  0  0  0  0  0  0  0  # atno 8009 bound_to 7997
  155.0074  140.0372  157.2375 H   0  0  0  0  0  0  0  0  0  0  0  0  # atno 8010 bound_to 7997
  139.6390  144.7122  151.2275 H   0  0  0  0  0  0  0  0  0  0  0  0  # atno 10167 bound_to 10162
  156.2939  130.4231  149.8210 H   0  0  0  0  0  0  0  0  0  0  0  0  # atno 10718 bound_to 10713
  154.8753  135.3955  154.3627 H   0  0  0  0  0  0  0  0  0  0  0  0  # atno 10763 bound_to 10752
  153.4397  135.7026  153.6182 H   0  0  0  0  0  0  0  0  0  0  0  0  # atno 10764 bound_to 10752
  153.4768  135.3778  155.2390 H   0  0  0  0  0  0  0  0  0  0  0  0  # atno 10765 bound_to 10752
  140.3938  134.6838  157.4523 H   0  0  0  0  0  0  0  0  0  0  0  0  # atno 11005 bound_to 11000
  145.2238  140.9946  143.4030 LP  0  0  0  0  0  0  0  0  0  0  0  0  # atno 17320 bound_to 7965
  144.9588  139.4002  143.6366 LP  0  0  0  0  0  0  0  0  0  0  0  0  # atno 17321 bound_to 7965
  140.7481  143.6345  150.8392 LP  0  0  0  0  0  0  0  0  0  0  0  0  # atno 17342 bound_to 10162
  139.9980  143.5775  152.2886 LP  0  0  0  0  0  0  0  0  0  0  0  0  # atno 17343 bound_to 10162
  156.5613  130.8385  151.3329 LP  0  0  0  0  0  0  0  0  0  0  0  0  # atno 17370 bound_to 10713
  157.7350  130.9755  150.2059 LP  0  0  0  0  0  0  0  0  0  0  0  0  # atno 17371 bound_to 10713
  140.0387  134.6300  155.9010 LP  0  0  0  0  0  0  0  0  0  0  0  0  # atno 17394 bound_to 11000
  141.1881  133.6561  156.5311 LP  0  0  0  0  0  0  0  0  0  0  0  0  # atno 17395 bound_to 11000

$$$$
