AV-unprocessed.smi:2033|AV-procd|sdf|8260|dock3
  -GOLD-   2272010533D 1   1.00000     0.00000
 Structure written by MMmdl.
 33 34  0  0  0  0  0  0  0  0  1 V2000
  150.3656  140.9843  155.4322 C   0  0  0  0  0  0  0  0  0  0  0  0
  149.0058  140.7765  154.8581 C   0  0  0  0  0  0  0  0  0  0  0  0
  148.1374  141.7770  154.6656 N   0  0  0  0  0  0  0  0  0  0  0  0
  146.9397  141.3363  154.1200 N   0  0  0  0  0  0  0  0  0  0  0  0
  146.9406  140.0117  153.9174 C   0  0  0  0  0  0  0  0  0  0  0  0
  145.8435  139.2960  153.3696 N   0  0  0  0  0  0  0  0  0  0  0  0
  145.7375  137.9742  153.1473 C   0  0  0  0  0  0  0  0  0  0  0  0
  146.6080  137.1382  153.3913 O   0  0  0  0  0  0  0  0  0  0  0  0
  144.5458  137.6677  152.6141 N   0  0  0  0  0  0  0  0  0  0  0  0
  144.1084  136.3313  152.2070 C   0  0  1  0  0  0  0  0  0  0  0  0
  145.1416  135.7011  151.2464 C   0  0  0  0  0  0  0  0  0  0  0  0
  144.5658  134.5923  150.3509 C   0  0  0  0  0  0  0  0  0  0  0  0
  144.0478  133.3582  151.1043 C   0  0  0  0  0  0  0  0  0  0  0  0
  142.8297  133.6467  151.9985 C   0  0  0  0  0  0  0  0  0  0  0  0
  143.1979  134.2712  153.2629 N   0  0  0  0  0  0  0  0  0  0  0  0
  143.7812  135.4667  153.4393 C   0  0  0  0  0  0  0  0  0  0  0  0
  144.0583  135.8647  154.5708 O   0  0  0  0  0  0  0  0  0  0  0  0
  148.4210  139.1886  154.3777 S   0  0  0  0  0  0  0  0  0  0  0  0
  150.4852  142.0112  155.7794 H   0  0  0  0  0  0  0  0  0  0  0  0
  151.1232  140.7803  154.6757 H   0  0  0  0  0  0  0  0  0  0  0  0
  150.5211  140.3108  156.2752 H   0  0  0  0  0  0  0  0  0  0  0  0
  145.0471  139.8585  153.1090 H   0  0  0  0  0  0  0  0  0  0  0  0
  143.8936  138.4197  152.4449 H   0  0  0  0  0  0  0  0  0  0  0  0
  143.1681  136.4583  151.6670 H   0  0  0  0  0  0  0  0  0  0  0  0
  145.5440  136.4711  150.5868 H   0  0  0  0  0  0  0  0  0  0  0  0
  145.9956  135.3219  151.8096 H   0  0  0  0  0  0  0  0  0  0  0  0
  143.7666  135.0037  149.7331 H   0  0  0  0  0  0  0  0  0  0  0  0
  145.3423  134.2721  149.6556 H   0  0  0  0  0  0  0  0  0  0  0  0
  143.7594  132.6105  150.3647 H   0  0  0  0  0  0  0  0  0  0  0  0
  144.8495  132.9048  151.6888 H   0  0  0  0  0  0  0  0  0  0  0  0
  142.0895  134.2533  151.4745 H   0  0  0  0  0  0  0  0  0  0  0  0
  142.3361  132.7055  152.2415 H   0  0  0  0  0  0  0  0  0  0  0  0
  142.9987  133.7349  154.0949 H   0  0  0  0  0  0  0  0  0  0  0  0
  1  2  1  0  0  0  0
  1 19  1  0  0  0  0
  1 20  1  0  0  0  0
  1 21  1  0  0  0  0
  2 18  1  0  0  0  0
  2  3  2  0  0  0  0
  3  4  1  0  0  0  0
  4  5  2  0  0  0  0
  5  6  1  0  0  0  0
  5 18  1  0  0  0  0
  6  7  1  0  0  0  0
  6 22  1  0  0  0  0
  7  8  2  0  0  0  0
  7  9  1  0  0  0  0
  9 10  1  0  0  0  0
  9 23  1  0  0  0  0
 10 16  1  0  0  0  0
 10 11  1  0  0  0  0
 10 24  1  0  0  0  0
 11 12  1  0  0  0  0
 11 25  1  0  0  0  0
 11 26  1  0  0  0  0
 12 13  1  0  0  0  0
 12 27  1  0  0  0  0
 12 28  1  0  0  0  0
 13 14  1  0  0  0  0
 13 29  1  0  0  0  0
 13 30  1  0  0  0  0
 14 15  1  0  0  0  0
 14 31  1  0  0  0  0
 14 32  1  0  0  0  0
 15 16  1  0  0  0  0
 15 33  1  0  0  0  0
 16 17  2  0  0  0  0
M  END
> <s_m_source_file>
AV-unprocessed.smi

> <i_m_source_file_index>
2033

> <i_lp_mmshare_version>
43012

> <i_f3d_flags>
0

> <s_epik_input>
W0NIM11jMW5uYyhzMSlbTkhdQyg9TylbTkhdW0NAQEhdMltDSDJdW0NIMl1bQ0gyXVtDSDJdW05IXUMyPU8=

> <s_epik_cmdline>
J2VwaWtfcHl0aG9uJywgJy1waCcsICc3LjAnLCAnLXRuJywgJzgnLCAnLW1hJywgJzIwMCcsICctbWV0YWxfYmluZGluZycsICctaW1hZScsICc8aW5maWxlLm1hZT4nLCAnLW9tYWUnLCAnPG91dGZpbGUubWFlPic=

> <r_lp_tautomer_probability>
1

> <r_epik_Ionization_Penalty>
0.00079266

> <r_epik_Ionization_Penalty_Charging>
0

> <r_epik_Ionization_Penalty_Neutral>
0.00079266

> <r_epik_State_Penalty>
-0

> <r_epik_Charging_Adjusted_Penalty>
0

> <i_epik_Tot_Q>
0

> <i_epik_Tot_abs_Q>
0

> <r_epik_Metal_State_Penalty>
0.265831

> <b_epik_Metal_Only>
0

> <s_lp_Force_Field>
OPLS_2005

> <r_lp_Energy>
9.00356

> <b_lp_Chiralities_Consistent>
1

> <s_lp_Variant>
AV-unprocessed.smi:2033-2

> <Gold.Version>
5.8.1

> <Gold.Id.Protein>
6NUR|6NUR_protein|mol2

> <Gold.PLP.Fitness>
32.7557

> <Gold.PLP.PLP>
-25.1034

> <Gold.PLP.part.hbond>
-4.0000

> <Gold.PLP.part.metal>
0.0000

> <Gold.PLP.part.buried>
-3.3686

> <Gold.PLP.part.nonpolar>
-20.2118

> <Gold.PLP.part.repulsive>
1.5771

> <Gold.PLP.ligand.clash>
0.0000

> <Gold.PLP.ligand.torsion>
0.1086

> <Gold.PLP.Chemscore.Hbond>
2.6140

> <Gold.PLP.Chemscore.CHOScore>
0.0000

> <Gold.PLP.Chemscore.Metal>
0.0000

> <Gold.Chemscore.Hbonds>
donor molecule, donor type, donor heavy atom, donor atom, acceptor molecule, acceptor atom, score
      L1  H     6    22       P1 10175  1.00
      L1  H     9    23       P1 10175  0.91
      L1  H    15    33       P1 10957  0.68

> <Gold.PLP.Chemscore.Internal.Correction>
0.0276

> <Gold.Rescore>
     Score         DG    S(hbond)    S(metal)    S(lipo)     H(rot)  DE(clash)    DE(int)     intcor
     13.31     -16.86       2.59        0.00      45.05       1.00       0.37       3.17       ----

> <Gold.Chemscore.Fitness>
13.3105

> <Gold.Chemscore.DG>
-16.8552

> <Gold.Chemscore.ZeroCoef>
-5.4800

> <Gold.Chemscore.Hbond>
2.5942

> <Gold.Chemscore.Metal>
0.0000

> <Gold.Chemscore.Lipo>
45.0480

> <Gold.Chemscore.Internal_Hbond>
0.0000

> <Gold.Chemscore.DEClash>
0.3718

> <Gold.Chemscore.DEInternal>
3.1729

> <Gold.Chemscore.Rot>
1.0000

> <Gold.Chemscore.Internal.Correction>
   9.000000E+99

> <Gold.Chemscore.Hbonds>
donor molecule, donor type, donor heavy atom, donor atom, acceptor molecule, acceptor atom, score
      L1  H     6    22       P1 10175  0.99
      L1  H     9    23       P1 10175  0.82
      L1  H    15    33       P1 10957  0.67

> <Gold.Chemscore.Hbond.Weighted>
-8.6646

> <Gold.Chemscore.Metal.Weighted>
-0.0000

> <Gold.Chemscore.Lipo.Weighted>
-5.2706

> <Gold.Chemscore.Internal_Hbond.Weighted>
0.0000

> <Gold.Chemscore.DEClash.Weighted>
0.3718

> <Gold.Chemscore.DEInternal.Weighted>
3.1729

> <Gold.Chemscore.Rot.Weighted>
2.5600

> <Gold.Chemscore.Internal.Correction.Weighted>
   9.000000E+99

> <Gold.Protein.RotatedTorsions>
[ 6907 6896 6895 6894 ] final   82.68 input  -60.11 | X-H torsion
[ 7974 7965 7964 7962 ] final  -96.18 input  175.53 | X-H torsion
[ 8008 7997 7996 7995 ] final  142.49 input   59.86 | X-H torsion
[ 10167 10162 10161 10158 ] final  -84.05 input  -65.29 | X-H torsion
[ 10718 10713 10712 10709 ] final -174.17 input   66.30 | X-H torsion
[ 10763 10752 10751 10750 ] final   80.62 input  -60.55 | X-H torsion
[ 11005 11000 10999 10996 ] final  169.97 input  -57.11 | X-H torsion

> <Gold.Protein.ActiveResidues>
 VAL166  LYS551  ARG553  GLY616  TRP617  ASP618  TYR619  PRO620  LYS621  CYS622 
 ASP623  PHE694  ASN695  SER759  ASP760  ASP761  ALA762  ILE779  LEU786  VAL792 
 PHE793  MET794  SER795  GLU796  ALA797  LYS798  CYS799  TRP800  GLU811  SER814 

> <Gold.Protein.RotatedAtoms>
  152.5306  134.3013  159.9079 H   0  0  0  0  0  0  0  0  0  0  0  0  # atno 6907 bound_to 6896
  151.2963  133.4136  159.2644 H   0  0  0  0  0  0  0  0  0  0  0  0  # atno 6908 bound_to 6896
  151.0157  134.9447  159.8089 H   0  0  0  0  0  0  0  0  0  0  0  0  # atno 6909 bound_to 6896
  145.3503  140.9475  143.2558 H   0  0  0  0  0  0  0  0  0  0  0  0  # atno 7974 bound_to 7965
  156.2948  140.2287  156.4735 H   0  0  0  0  0  0  0  0  0  0  0  0  # atno 8008 bound_to 7997
  154.7914  140.0454  157.1225 H   0  0  0  0  0  0  0  0  0  0  0  0  # atno 8009 bound_to 7997
  154.9640  140.3058  155.5021 H   0  0  0  0  0  0  0  0  0  0  0  0  # atno 8010 bound_to 7997
  140.4169  143.2600  151.8942 H   0  0  0  0  0  0  0  0  0  0  0  0  # atno 10167 bound_to 10162
  156.7811  130.9484  151.3120 H   0  0  0  0  0  0  0  0  0  0  0  0  # atno 10718 bound_to 10713
  153.1048  135.4796  154.8932 H   0  0  0  0  0  0  0  0  0  0  0  0  # atno 10763 bound_to 10752
  154.7418  135.3084  154.8716 H   0  0  0  0  0  0  0  0  0  0  0  0  # atno 10764 bound_to 10752
  153.9322  135.6843  153.4799 H   0  0  0  0  0  0  0  0  0  0  0  0  # atno 10765 bound_to 10752
  140.3033  134.7577  157.3934 H   0  0  0  0  0  0  0  0  0  0  0  0  # atno 11005 bound_to 11000
  144.8723  139.5021  143.6762 LP  0  0  0  0  0  0  0  0  0  0  0  0  # atno 17320 bound_to 7965
  146.2971  139.7310  142.9119 LP  0  0  0  0  0  0  0  0  0  0  0  0  # atno 17321 bound_to 7965
  139.4782  144.5478  151.8431 LP  0  0  0  0  0  0  0  0  0  0  0  0  # atno 17342 bound_to 10162
  140.4576  144.1767  150.5903 LP  0  0  0  0  0  0  0  0  0  0  0  0  # atno 17343 bound_to 10162
  157.6646  130.8996  149.9903 LP  0  0  0  0  0  0  0  0  0  0  0  0  # atno 17370 bound_to 10713
  156.1217  130.3645  149.9876 LP  0  0  0  0  0  0  0  0  0  0  0  0  # atno 17371 bound_to 10713
  140.1089  134.5372  155.8284 LP  0  0  0  0  0  0  0  0  0  0  0  0  # atno 17394 bound_to 11000
  141.2123  133.6718  156.6652 LP  0  0  0  0  0  0  0  0  0  0  0  0  # atno 17395 bound_to 11000

$$$$
