AV-unprocessed.smi:1334|AV-procd|sdf|5492|dock3
  -GOLD-   22720 5 73D 1   1.00000     0.00000
 Structure written by MMmdl.
 38 39  0  0  0  0  0  0  0  0  1 V2000
  145.0328  142.8895  157.6420 C   0  0  0  0  0  0  0  0  0  0  0  0
  146.4710  143.1752  158.1189 C   0  0  2  0  0  0  0  0  0  0  0  0
  147.4215  142.0056  157.8270 C   0  0  0  0  0  0  0  0  0  0  0  0
  147.1583  140.8738  158.2354 O   0  0  0  0  0  0  0  0  0  0  0  0
  148.5331  142.3011  157.1339 N   0  0  0  0  0  0  0  0  0  0  0  0
  149.6130  141.3683  156.8210 C   0  0  0  0  0  0  0  0  0  0  0  0
  150.9122  142.1030  156.4376 C   0  0  0  0  0  0  0  0  0  0  0  0
  151.5682  142.8658  157.5813 C   0  0  0  0  0  0  0  0  0  0  0  0
  152.0294  142.2370  158.6805 C   0  0  0  0  0  0  0  0  0  0  0  0
  152.6475  142.9419  159.8751 C   0  0  0  0  0  0  0  0  0  0  0  0
  152.4093  144.4608  159.8519 C   0  0  0  0  0  0  0  0  0  0  0  0
  152.5997  145.0338  158.4426 C   0  0  0  0  0  0  0  0  0  0  0  0
  151.6337  144.3825  157.4376 C   0  0  0  0  0  0  0  0  0  0  0  0
  146.5289  143.5215  159.5342 N   0  0  0  0  0  0  0  0  0  0  0  0
  146.9633  144.6361  160.1258 C   0  0  0  0  0  0  0  0  0  0  0  0
  146.9121  144.5993  161.4500 N   0  0  0  0  0  0  0  0  0  0  0  0
  146.4184  143.3380  161.6239 C   0  0  0  0  0  0  0  0  0  0  0  0
  146.1819  142.6452  160.5104 N   0  0  0  0  0  0  0  0  0  0  0  0
  145.0082  142.6890  156.5704 H   0  0  0  0  0  0  0  0  0  0  0  0
  144.3853  143.7468  157.8281 H   0  0  0  0  0  0  0  0  0  0  0  0
  144.5937  142.0284  158.1475 H   0  0  0  0  0  0  0  0  0  0  0  0
  146.8270  144.0449  157.5638 H   0  0  0  0  0  0  0  0  0  0  0  0
  148.6617  143.2569  156.8350 H   0  0  0  0  0  0  0  0  0  0  0  0
  149.8091  140.6923  157.6542 H   0  0  0  0  0  0  0  0  0  0  0  0
  149.2923  140.7350  155.9935 H   0  0  0  0  0  0  0  0  0  0  0  0
  151.6321  141.3917  156.0319 H   0  0  0  0  0  0  0  0  0  0  0  0
  150.6927  142.8020  155.6294 H   0  0  0  0  0  0  0  0  0  0  0  0
  151.9725  141.1602  158.7469 H   0  0  0  0  0  0  0  0  0  0  0  0
  152.2384  142.5186  160.7926 H   0  0  0  0  0  0  0  0  0  0  0  0
  153.7153  142.7267  159.8795 H   0  0  0  0  0  0  0  0  0  0  0  0
  151.3940  144.6745  160.1884 H   0  0  0  0  0  0  0  0  0  0  0  0
  153.0788  144.9536  160.5574 H   0  0  0  0  0  0  0  0  0  0  0  0
  152.4566  146.1146  158.4497 H   0  0  0  0  0  0  0  0  0  0  0  0
  153.6274  144.8613  158.1206 H   0  0  0  0  0  0  0  0  0  0  0  0
  151.9404  144.6541  156.4281 H   0  0  0  0  0  0  0  0  0  0  0  0
  150.6268  144.7777  157.5756 H   0  0  0  0  0  0  0  0  0  0  0  0
  147.3282  145.4915  159.5763 H   0  0  0  0  0  0  0  0  0  0  0  0
  146.2360  142.9148  162.6005 H   0  0  0  0  0  0  0  0  0  0  0  0
  1  2  1  0  0  0  0
  1 19  1  0  0  0  0
  1 20  1  0  0  0  0
  1 21  1  0  0  0  0
  2  3  1  0  0  0  0
  2 14  1  0  0  0  0
  2 22  1  0  0  0  0
  3  4  2  0  0  0  0
  3  5  1  0  0  0  0
  5  6  1  0  0  0  0
  5 23  1  0  0  0  0
  6  7  1  0  0  0  0
  6 24  1  0  0  0  0
  6 25  1  0  0  0  0
  7  8  1  0  0  0  0
  7 26  1  0  0  0  0
  7 27  1  0  0  0  0
  8 13  1  0  0  0  0
  8  9  2  0  0  0  0
  9 10  1  0  0  0  0
  9 28  1  0  0  0  0
 10 11  1  0  0  0  0
 10 29  1  0  0  0  0
 10 30  1  0  0  0  0
 11 12  1  0  0  0  0
 11 31  1  0  0  0  0
 11 32  1  0  0  0  0
 12 13  1  0  0  0  0
 12 33  1  0  0  0  0
 12 34  1  0  0  0  0
 13 35  1  0  0  0  0
 13 36  1  0  0  0  0
 14 18  1  0  0  0  0
 14 15  1  0  0  0  0
 15 16  2  0  0  0  0
 15 37  1  0  0  0  0
 16 17  1  0  0  0  0
 17 18  2  0  0  0  0
 17 38  1  0  0  0  0
M  END
> <s_m_source_file>
AV-unprocessed.smi

> <i_m_source_file_index>
1334

> <i_lp_mmshare_version>
43012

> <i_f3d_flags>
0

> <s_epik_input>
bjFbY0hdbltjSF1uMVtDQEhdKFtDSDNdKUMoPU8pW05IXVtDSDJdW0NIMl1DMj1bQ0hdW0NIMl1bQ0gyXVtDSDJdW0NIMl0y

> <s_epik_cmdline>
J2VwaWtfcHl0aG9uJywgJy1waCcsICc3LjAnLCAnLXRuJywgJzgnLCAnLW1hJywgJzIwMCcsICctbWV0YWxfYmluZGluZycsICctaW1hZScsICc8aW5maWxlLm1hZT4nLCAnLW9tYWUnLCAnPG91dGZpbGUubWFlPic=

> <r_lp_tautomer_probability>
1

> <r_epik_Ionization_Penalty>
1.26383e-05

> <r_epik_Ionization_Penalty_Charging>
0

> <r_epik_Ionization_Penalty_Neutral>
1.26383e-05

> <r_epik_State_Penalty>
-0

> <r_epik_Charging_Adjusted_Penalty>
0

> <i_epik_Tot_Q>
0

> <i_epik_Tot_abs_Q>
0

> <r_epik_Metal_State_Penalty>
-0

> <b_epik_Metal_Only>
0

> <s_lp_Force_Field>
OPLS_2005

> <r_lp_Energy>
12.0281

> <b_lp_Chiralities_Consistent>
1

> <s_lp_Variant>
AV-unprocessed.smi:1334-1

> <Gold.Version>
5.8.1

> <Gold.Id.Protein>
6NUR|6NUR_protein|mol2

> <Gold.PLP.Fitness>
47.1232

> <Gold.PLP.PLP>
-38.6625

> <Gold.PLP.part.hbond>
-3.0000

> <Gold.PLP.part.metal>
0.0000

> <Gold.PLP.part.buried>
-6.1693

> <Gold.PLP.part.nonpolar>
-29.1974

> <Gold.PLP.part.repulsive>
0.1545

> <Gold.PLP.ligand.clash>
0.0000

> <Gold.PLP.ligand.torsion>
0.3307

> <Gold.PLP.Chemscore.Hbond>
2.0000

> <Gold.PLP.Chemscore.CHOScore>
1.0000

> <Gold.PLP.Chemscore.Metal>
0.0000

> <Gold.Chemscore.Hbonds>
donor molecule, donor type, donor heavy atom, donor atom, acceptor molecule, acceptor atom, score
      L1  H     5    23       P1  8028  1.00
      P1  H  6934  6946       L1    18  1.00
      L1  C    15    37       P1  8029  1.00

> <Gold.PLP.Chemscore.Internal.Correction>
0.1221

> <Gold.Rescore>
     Score         DG    S(hbond)    S(metal)    S(lipo)     H(rot)  DE(clash)    DE(int)     intcor
     13.43     -14.43       1.47        0.00      87.08       2.40       0.34       0.67       ----

> <Gold.Chemscore.Fitness>
13.4275

> <Gold.Chemscore.DG>
-14.4333

> <Gold.Chemscore.ZeroCoef>
-5.4800

> <Gold.Chemscore.Hbond>
1.4707

> <Gold.Chemscore.Metal>
0.0000

> <Gold.Chemscore.Lipo>
87.0782

> <Gold.Chemscore.Internal_Hbond>
0.0000

> <Gold.Chemscore.DEClash>
0.3387

> <Gold.Chemscore.DEInternal>
0.6671

> <Gold.Chemscore.Rot>
2.4011

> <Gold.Chemscore.Internal.Correction>
   9.000000E+99

> <Gold.Chemscore.Hbonds>
donor molecule, donor type, donor heavy atom, donor atom, acceptor molecule, acceptor atom, score
      L1  H     5    23       P1  8028  0.60
      P1  H  6934  6946       L1    18  0.65

> <Gold.Chemscore.Hbond.Weighted>
-4.9121

> <Gold.Chemscore.Metal.Weighted>
-0.0000

> <Gold.Chemscore.Lipo.Weighted>
-10.1881

> <Gold.Chemscore.Internal_Hbond.Weighted>
0.0000

> <Gold.Chemscore.DEClash.Weighted>
0.3387

> <Gold.Chemscore.DEInternal.Weighted>
0.6671

> <Gold.Chemscore.Rot.Weighted>
6.1469

> <Gold.Chemscore.Internal.Correction.Weighted>
   9.000000E+99

> <Gold.Protein.RotatedTorsions>
[ 6907 6896 6895 6894 ] final   -7.75 input  -60.11 | X-H torsion
[ 7974 7965 7964 7962 ] final   79.15 input  175.53 | X-H torsion
[ 8008 7997 7996 7995 ] final  124.13 input   59.86 | X-H torsion
[ 10167 10162 10161 10158 ] final  121.61 input  -65.29 | X-H torsion
[ 10718 10713 10712 10709 ] final   30.42 input   66.30 | X-H torsion
[ 10763 10752 10751 10750 ] final  126.48 input  -60.55 | X-H torsion
[ 11005 11000 10999 10996 ] final   19.48 input  -57.11 | X-H torsion

> <Gold.Protein.ActiveResidues>
 VAL166  LYS551  ARG553  GLY616  TRP617  ASP618  TYR619  PRO620  LYS621  CYS622 
 ASP623  PHE694  ASN695  SER759  ASP760  ASP761  ALA762  ILE779  LEU786  VAL792 
 PHE793  MET794  SER795  GLU796  ALA797  LYS798  CYS799  TRP800  GLU811  SER814 

> <Gold.Protein.RotatedAtoms>
  151.4446  135.1024  159.9679 H   0  0  0  0  0  0  0  0  0  0  0  0  # atno 6907 bound_to 6896
  152.4910  133.8497  159.7205 H   0  0  0  0  0  0  0  0  0  0  0  0  # atno 6908 bound_to 6896
  150.9064  133.6993  159.2893 H   0  0  0  0  0  0  0  0  0  0  0  0  # atno 6909 bound_to 6896
  145.6679  139.2489  143.1885 H   0  0  0  0  0  0  0  0  0  0  0  0  # atno 7974 bound_to 7965
  156.2791  140.2747  156.1739 H   0  0  0  0  0  0  0  0  0  0  0  0  # atno 8008 bound_to 7997
  155.0626  140.0386  157.2600 H   0  0  0  0  0  0  0  0  0  0  0  0  # atno 8009 bound_to 7997
  154.7104  140.2667  155.6640 H   0  0  0  0  0  0  0  0  0  0  0  0  # atno 8010 bound_to 7997
  139.5909  144.7024  151.3293 H   0  0  0  0  0  0  0  0  0  0  0  0  # atno 10167 bound_to 10162
  157.2593  130.7153  149.6445 H   0  0  0  0  0  0  0  0  0  0  0  0  # atno 10718 bound_to 10713
  153.6940  135.3294  155.3209 H   0  0  0  0  0  0  0  0  0  0  0  0  # atno 10763 bound_to 10752
  154.8432  135.4438  154.1479 H   0  0  0  0  0  0  0  0  0  0  0  0  # atno 10764 bound_to 10752
  153.2528  135.6983  153.7738 H   0  0  0  0  0  0  0  0  0  0  0  0  # atno 10765 bound_to 10752
  140.4132  134.1596  155.7668 H   0  0  0  0  0  0  0  0  0  0  0  0  # atno 11005 bound_to 11000
  146.1070  140.7475  142.9521 LP  0  0  0  0  0  0  0  0  0  0  0  0  # atno 17320 bound_to 7965
  144.7067  140.3878  143.7113 LP  0  0  0  0  0  0  0  0  0  0  0  0  # atno 17321 bound_to 7965
  140.7172  143.7235  150.7678 LP  0  0  0  0  0  0  0  0  0  0  0  0  # atno 17342 bound_to 10162
  140.0790  143.4987  152.2540 LP  0  0  0  0  0  0  0  0  0  0  0  0  # atno 17343 bound_to 10162
  155.9664  130.4402  150.5292 LP  0  0  0  0  0  0  0  0  0  0  0  0  # atno 17370 bound_to 10713
  157.3193  131.0679  151.1944 LP  0  0  0  0  0  0  0  0  0  0  0  0  # atno 17371 bound_to 10713
  141.1813  133.8408  157.1248 LP  0  0  0  0  0  0  0  0  0  0  0  0  # atno 17394 bound_to 11000
  140.0253  134.9927  157.0673 LP  0  0  0  0  0  0  0  0  0  0  0  0  # atno 17395 bound_to 11000

$$$$
