AV-unprocessed.smi:2198|AV-procd|sdf|8917|dock2
  -GOLD-   2272012133D 1   1.00000     0.00000
 Structure written by MMmdl.
 43 44  0  0  0  0  0  0  0  0  1 V2000
  146.8310  138.8072  152.3352 C   0  0  0  0  0  0  0  0  0  0  0  0
  147.9312  139.3229  153.2373 C   0  0  0  0  0  0  0  0  0  0  0  0
  148.9620  138.4184  153.4307 N   0  0  0  0  0  0  0  0  0  0  0  0
  150.0184  138.8030  154.2375 C   0  0  0  0  0  0  0  0  0  0  0  0
  151.1083  137.7562  154.3903 C   0  0  0  0  0  0  0  0  0  0  0  0
  150.0430  140.0251  154.8277 C   0  0  0  0  0  0  0  0  0  0  0  0
  151.1888  140.4871  155.7259 C   0  0  0  0  0  0  0  0  0  0  0  0
  150.7627  141.1017  157.0602 C   0  0  0  0  0  0  0  0  0  0  0  0
  149.6274  140.9051  157.4927 O   0  0  0  0  0  0  0  0  0  0  0  0
  151.6833  141.8358  157.7043 N   0  0  0  0  0  0  0  0  0  0  0  0
  151.4911  142.4889  158.9951 C   0  0  2  0  0  0  0  0  0  0  0  0
  151.5608  144.0215  158.8448 C   0  0  0  0  0  0  0  0  0  0  0  0
  151.4375  144.7215  160.2068 C   0  0  0  0  0  0  0  0  0  0  0  0
  152.4990  144.2133  161.1950 C   0  0  0  0  0  0  0  0  0  0  0  0
  152.4316  142.6829  161.3587 C   0  0  2  0  0  0  0  0  0  0  0  0
  153.4945  142.1760  162.3437 C   0  0  0  0  0  0  0  0  0  0  0  0
  152.5566  141.9886  159.9883 C   0  0  0  0  0  0  0  0  0  0  0  0
  148.9056  140.9459  154.5919 C   0  0  0  0  0  0  0  0  0  0  0  0
  148.8609  142.0608  155.1102 O   0  0  0  0  0  0  0  0  0  0  0  0
  147.8635  140.5107  153.7571 N   0  0  0  0  0  0  0  0  0  0  0  0
  148.9816  137.4991  153.0131 H   0  0  0  0  0  0  0  0  0  0  0  0
  146.0978  139.5879  152.1289 H   0  0  0  0  0  0  0  0  0  0  0  0
  146.3148  137.9708  152.8073 H   0  0  0  0  0  0  0  0  0  0  0  0
  147.2435  138.4690  151.3842 H   0  0  0  0  0  0  0  0  0  0  0  0
  152.0611  138.1400  154.0255 H   0  0  0  0  0  0  0  0  0  0  0  0
  150.8770  136.8508  153.8278 H   0  0  0  0  0  0  0  0  0  0  0  0
  151.2257  137.4773  155.4376 H   0  0  0  0  0  0  0  0  0  0  0  0
  151.8207  141.2078  155.2061 H   0  0  0  0  0  0  0  0  0  0  0  0
  151.8445  139.6363  155.9147 H   0  0  0  0  0  0  0  0  0  0  0  0
  152.5895  141.9423  157.2720 H   0  0  0  0  0  0  0  0  0  0  0  0
  150.5096  142.2176  159.3893 H   0  0  0  0  0  0  0  0  0  0  0  0
  152.5044  144.3054  158.3765 H   0  0  0  0  0  0  0  0  0  0  0  0
  150.7690  144.3722  158.1818 H   0  0  0  0  0  0  0  0  0  0  0  0
  151.5337  145.8003  160.0800 H   0  0  0  0  0  0  0  0  0  0  0  0
  150.4424  144.5463  160.6173 H   0  0  0  0  0  0  0  0  0  0  0  0
  153.4904  144.5047  160.8449 H   0  0  0  0  0  0  0  0  0  0  0  0
  152.3583  144.6984  162.1615 H   0  0  0  0  0  0  0  0  0  0  0  0
  151.4542  142.4325  161.7739 H   0  0  0  0  0  0  0  0  0  0  0  0
  154.5020  142.3938  161.9877 H   0  0  0  0  0  0  0  0  0  0  0  0
  153.4170  141.0976  162.4844 H   0  0  0  0  0  0  0  0  0  0  0  0
  153.3784  142.6442  163.3215 H   0  0  0  0  0  0  0  0  0  0  0  0
  152.4636  140.9087  160.1125 H   0  0  0  0  0  0  0  0  0  0  0  0
  153.5524  142.1666  159.5793 H   0  0  0  0  0  0  0  0  0  0  0  0
  1 22  1  0  0  0  0
  1 23  1  0  0  0  0
  1 24  1  0  0  0  0
  1  2  1  0  0  0  0
  2  3  1  0  0  0  0
  2 20  2  0  0  0  0
  3  4  1  0  0  0  0
  3 21  1  0  0  0  0
  4  6  2  0  0  0  0
  4  5  1  0  0  0  0
  5 25  1  0  0  0  0
  5 26  1  0  0  0  0
  5 27  1  0  0  0  0
  6 18  1  0  0  0  0
  6  7  1  0  0  0  0
  7  8  1  0  0  0  0
  7 28  1  0  0  0  0
  7 29  1  0  0  0  0
  8  9  2  0  0  0  0
  8 10  1  0  0  0  0
 10 11  1  0  0  0  0
 10 30  1  0  0  0  0
 11 17  1  0  0  0  0
 11 12  1  0  0  0  0
 11 31  1  0  0  0  0
 12 13  1  0  0  0  0
 12 32  1  0  0  0  0
 12 33  1  0  0  0  0
 13 14  1  0  0  0  0
 13 34  1  0  0  0  0
 13 35  1  0  0  0  0
 14 15  1  0  0  0  0
 14 36  1  0  0  0  0
 14 37  1  0  0  0  0
 15 16  1  0  0  0  0
 15 17  1  0  0  0  0
 15 38  1  0  0  0  0
 16 39  1  0  0  0  0
 16 40  1  0  0  0  0
 16 41  1  0  0  0  0
 17 42  1  0  0  0  0
 17 43  1  0  0  0  0
 18 19  2  0  0  0  0
 18 20  1  0  0  0  0
M  END
> <s_m_source_file>
AV-unprocessed.smi

> <i_m_source_file_index>
2198

> <i_lp_mmshare_version>
43012

> <i_f3d_flags>
0

> <s_epik_input>
W0NIM11jMW5jKFtDSDNdKWMoYyg9TylbbkhdMSlbQ0gyXUMoPU8pW05IXVtDQEBIXTJbQ0gyXVtDSDJdW0NIMl1bQ0BASF0oW0NIM10pW0NIMl0y

> <s_epik_cmdline>
J2VwaWtfcHl0aG9uJywgJy1waCcsICc3LjAnLCAnLXRuJywgJzgnLCAnLW1hJywgJzIwMCcsICctbWV0YWxfYmluZGluZycsICctaW1hZScsICc8aW5maWxlLm1hZT4nLCAnLW9tYWUnLCAnPG91dGZpbGUubWFlPic=

> <r_lp_tautomer_probability>
0.156392

> <r_epik_Ionization_Penalty>
0.0136514

> <r_epik_Ionization_Penalty_Charging>
0.0135207

> <r_epik_Ionization_Penalty_Neutral>
0.000130657

> <r_epik_State_Penalty>
1.15342

> <r_epik_Charging_Adjusted_Penalty>
1.16694

> <i_epik_Tot_Q>
0

> <i_epik_Tot_abs_Q>
0

> <r_epik_Metal_State_Penalty>
1.31404

> <b_epik_Metal_Only>
0

> <s_lp_Force_Field>
OPLS_2005

> <r_lp_Energy>
14.0485

> <b_lp_Chiralities_Consistent>
1

> <s_lp_Variant>
AV-unprocessed.smi:2198-7

> <Gold.Version>
5.8.1

> <Gold.Id.Protein>
6NUR|6NUR_protein|mol2

> <Gold.PLP.Fitness>
45.6847

> <Gold.PLP.PLP>
-43.4383

> <Gold.PLP.part.hbond>
-2.0000

> <Gold.PLP.part.metal>
0.0000

> <Gold.PLP.part.buried>
-3.0331

> <Gold.PLP.part.nonpolar>
-40.5363

> <Gold.PLP.part.repulsive>
2.9560

> <Gold.PLP.ligand.clash>
0.0000

> <Gold.PLP.ligand.torsion>
0.3795

> <Gold.PLP.Chemscore.Hbond>
1.0000

> <Gold.PLP.Chemscore.CHOScore>
0.0000

> <Gold.PLP.Chemscore.Metal>
0.0000

> <Gold.Chemscore.Hbonds>
donor molecule, donor type, donor heavy atom, donor atom, acceptor molecule, acceptor atom, score
      L1  H     3    21       P1  7948  1.00

> <Gold.PLP.Chemscore.Internal.Correction>
0.0054

> <Gold.Rescore>
     Score         DG    S(hbond)    S(metal)    S(lipo)     H(rot)  DE(clash)    DE(int)     intcor
     12.44     -18.41       0.98        0.00     114.92       1.48       2.11       3.86       ----

> <Gold.Chemscore.Fitness>
12.4397

> <Gold.Chemscore.DG>
-18.4114

> <Gold.Chemscore.ZeroCoef>
-5.4800

> <Gold.Chemscore.Hbond>
0.9807

> <Gold.Chemscore.Metal>
0.0000

> <Gold.Chemscore.Lipo>
114.9153

> <Gold.Chemscore.Internal_Hbond>
0.0000

> <Gold.Chemscore.DEClash>
2.1095

> <Gold.Chemscore.DEInternal>
3.8621

> <Gold.Chemscore.Rot>
1.4801

> <Gold.Chemscore.Internal.Correction>
   9.000000E+99

> <Gold.Chemscore.Hbonds>
donor molecule, donor type, donor heavy atom, donor atom, acceptor molecule, acceptor atom, score
      L1  H     3    21       P1  7948  1.00

> <Gold.Chemscore.Hbond.Weighted>
-3.2754

> <Gold.Chemscore.Metal.Weighted>
-0.0000

> <Gold.Chemscore.Lipo.Weighted>
-13.4451

> <Gold.Chemscore.Internal_Hbond.Weighted>
0.0000

> <Gold.Chemscore.DEClash.Weighted>
2.1095

> <Gold.Chemscore.DEInternal.Weighted>
3.8621

> <Gold.Chemscore.Rot.Weighted>
3.7891

> <Gold.Chemscore.Internal.Correction.Weighted>
   9.000000E+99

> <Gold.Protein.RotatedTorsions>
[ 6907 6896 6895 6894 ] final  -16.79 input  -60.11 | X-H torsion
[ 7974 7965 7964 7962 ] final   77.52 input  175.53 | X-H torsion
[ 8008 7997 7996 7995 ] final -157.58 input   59.86 | X-H torsion
[ 10167 10162 10161 10158 ] final  111.10 input  -65.29 | X-H torsion
[ 10718 10713 10712 10709 ] final -123.46 input   66.30 | X-H torsion
[ 10763 10752 10751 10750 ] final  -95.88 input  -60.55 | X-H torsion
[ 11005 11000 10999 10996 ] final  101.22 input  -57.11 | X-H torsion

> <Gold.Protein.ActiveResidues>
 VAL166  LYS551  ARG553  GLY616  TRP617  ASP618  TYR619  PRO620  LYS621  CYS622 
 ASP623  PHE694  ASN695  SER759  ASP760  ASP761  ALA762  ILE779  LEU786  VAL792 
 PHE793  MET794  SER795  GLU796  ALA797  LYS798  CYS799  TRP800  GLU811  SER814 

> <Gold.Protein.RotatedAtoms>
  151.3033  135.0774  159.9245 H   0  0  0  0  0  0  0  0  0  0  0  0  # atno 6907 bound_to 6896
  152.5293  133.9811  159.7817 H   0  0  0  0  0  0  0  0  0  0  0  0  # atno 6908 bound_to 6896
  151.0102  133.5921  159.2714 H   0  0  0  0  0  0  0  0  0  0  0  0  # atno 6909 bound_to 6896
  145.6889  139.2546  143.1771 H   0  0  0  0  0  0  0  0  0  0  0  0  # atno 7974 bound_to 7965
  155.7346  140.0806  157.2273 H   0  0  0  0  0  0  0  0  0  0  0  0  # atno 8008 bound_to 7997
  154.4029  140.1589  156.2602 H   0  0  0  0  0  0  0  0  0  0  0  0  # atno 8009 bound_to 7997
  155.9077  140.3406  155.6078 H   0  0  0  0  0  0  0  0  0  0  0  0  # atno 8010 bound_to 7997
  139.6637  144.7128  151.1817 H   0  0  0  0  0  0  0  0  0  0  0  0  # atno 10167 bound_to 10162
  156.1504  130.6530  150.9905 H   0  0  0  0  0  0  0  0  0  0  0  0  # atno 10718 bound_to 10713
  154.7189  135.5104  153.8780 H   0  0  0  0  0  0  0  0  0  0  0  0  # atno 10763 bound_to 10752
  153.0844  135.6641  153.9987 H   0  0  0  0  0  0  0  0  0  0  0  0  # atno 10764 bound_to 10752
  153.9814  135.3028  155.3399 H   0  0  0  0  0  0  0  0  0  0  0  0  # atno 10765 bound_to 10752
  139.8773  134.9173  156.4873 H   0  0  0  0  0  0  0  0  0  0  0  0  # atno 11005 bound_to 11000
  146.0899  140.7668  142.9600 LP  0  0  0  0  0  0  0  0  0  0  0  0  # atno 17320 bound_to 7965
  144.7003  140.3621  143.7162 LP  0  0  0  0  0  0  0  0  0  0  0  0  # atno 17321 bound_to 7965
  140.7590  143.5953  150.8754 LP  0  0  0  0  0  0  0  0  0  0  0  0  # atno 17342 bound_to 10162
  139.9613  143.6161  152.3001 LP  0  0  0  0  0  0  0  0  0  0  0  0  # atno 17343 bound_to 10162
  157.6652  131.0873  150.7745 LP  0  0  0  0  0  0  0  0  0  0  0  0  # atno 17370 bound_to 10713
  156.7814  130.4860  149.5400 LP  0  0  0  0  0  0  0  0  0  0  0  0  # atno 17371 bound_to 10713
  140.8684  133.8007  155.9338 LP  0  0  0  0  0  0  0  0  0  0  0  0  # atno 17394 bound_to 11000
  140.8978  134.2416  157.5059 LP  0  0  0  0  0  0  0  0  0  0  0  0  # atno 17395 bound_to 11000

$$$$
