AV-unprocessed.smi:931|AV-procd|sdf|4198|dock7
  -GOLD-   22720 2103D 1   1.00000     0.00000
 Structure written by MMmdl.
 36 37  0  0  0  0  0  0  0  0  1 V2000
  153.8254  141.0284  160.6526 C   0  0  0  0  0  0  0  0  0  0  0  0
  153.4618  142.5186  160.7169 C   0  0  0  0  0  0  0  0  0  0  0  0
  152.8394  142.9298  162.0592 C   0  0  0  0  0  0  0  0  0  0  0  0
  152.6235  142.9443  159.5525 C   0  0  0  0  0  0  0  0  0  0  0  0
  152.1407  142.0990  158.6364 N   0  0  0  0  0  0  0  0  0  0  0  0
  151.3912  142.7436  157.6476 C   0  0  0  0  0  0  0  0  0  0  0  0
  150.7623  141.9472  156.5453 C   0  0  0  0  0  0  0  0  0  0  0  0
  149.9332  140.7696  157.0849 C   0  0  0  0  0  0  0  0  0  0  0  0
  150.7206  139.9066  157.9580 N   0  0  0  0  0  0  0  0  0  0  0  0
  151.9730  139.4940  157.7064 C   0  0  0  0  0  0  0  0  0  0  0  0
  152.6177  139.8309  156.7136 O   0  0  0  0  0  0  0  0  0  0  0  0
  152.4852  138.7373  158.6901 N   0  0  0  0  0  0  0  0  0  0  0  0
  151.8499  137.7502  159.5583 C   0  0  0  0  0  0  0  0  0  0  0  0
  153.2610  137.3530  159.9852 C   0  0  0  0  0  0  0  0  0  0  0  0
  153.8004  138.1142  158.7767 C   0  0  0  0  0  0  0  0  0  0  0  0
  151.3104  144.1015  157.8294 C   0  0  0  0  0  0  0  0  0  0  0  0
  152.1760  144.6198  159.2493 S   0  0  0  0  0  0  0  0  0  0  0  0
  154.3391  140.7905  159.7208 H   0  0  0  0  0  0  0  0  0  0  0  0
  152.9365  140.3997  160.7137 H   0  0  0  0  0  0  0  0  0  0  0  0
  154.4862  140.7498  161.4737 H   0  0  0  0  0  0  0  0  0  0  0  0
  154.4009  143.0670  160.6343 H   0  0  0  0  0  0  0  0  0  0  0  0
  152.6776  144.0072  162.1024 H   0  0  0  0  0  0  0  0  0  0  0  0
  153.4890  142.6599  162.8923 H   0  0  0  0  0  0  0  0  0  0  0  0
  151.8771  142.4412  162.2166 H   0  0  0  0  0  0  0  0  0  0  0  0
  150.1293  142.5964  155.9393 H   0  0  0  0  0  0  0  0  0  0  0  0
  151.5339  141.5715  155.8719 H   0  0  0  0  0  0  0  0  0  0  0  0
  149.0838  141.1440  157.6569 H   0  0  0  0  0  0  0  0  0  0  0  0
  149.5197  140.1858  156.2609 H   0  0  0  0  0  0  0  0  0  0  0  0
  150.2824  139.5988  158.8139 H   0  0  0  0  0  0  0  0  0  0  0  0
  151.2489  138.1696  160.3658 H   0  0  0  0  0  0  0  0  0  0  0  0
  151.3188  136.9650  159.0177 H   0  0  0  0  0  0  0  0  0  0  0  0
  153.5589  137.8002  160.9350 H   0  0  0  0  0  0  0  0  0  0  0  0
  153.4536  136.2798  159.9645 H   0  0  0  0  0  0  0  0  0  0  0  0
  154.0411  137.4736  157.9267 H   0  0  0  0  0  0  0  0  0  0  0  0
  154.6146  138.7995  159.0148 H   0  0  0  0  0  0  0  0  0  0  0  0
  150.7924  144.8251  157.2175 H   0  0  0  0  0  0  0  0  0  0  0  0
  1  2  1  0  0  0  0
  1 18  1  0  0  0  0
  1 19  1  0  0  0  0
  1 20  1  0  0  0  0
  2  3  1  0  0  0  0
  2  4  1  0  0  0  0
  2 21  1  0  0  0  0
  3 22  1  0  0  0  0
  3 23  1  0  0  0  0
  3 24  1  0  0  0  0
  4 17  1  0  0  0  0
  4  5  2  0  0  0  0
  5  6  1  0  0  0  0
  6  7  1  0  0  0  0
  6 16  2  0  0  0  0
  7  8  1  0  0  0  0
  7 25  1  0  0  0  0
  7 26  1  0  0  0  0
  8  9  1  0  0  0  0
  8 27  1  0  0  0  0
  8 28  1  0  0  0  0
  9 10  1  0  0  0  0
  9 29  1  0  0  0  0
 10 11  2  0  0  0  0
 10 12  1  0  0  0  0
 12 15  1  0  0  0  0
 12 13  1  0  0  0  0
 13 14  1  0  0  0  0
 13 30  1  0  0  0  0
 13 31  1  0  0  0  0
 14 15  1  0  0  0  0
 14 32  1  0  0  0  0
 14 33  1  0  0  0  0
 15 34  1  0  0  0  0
 15 35  1  0  0  0  0
 16 17  1  0  0  0  0
 16 36  1  0  0  0  0
M  END
> <s_m_source_file>
AV-unprocessed.smi

> <i_m_source_file_index>
931

> <i_lp_mmshare_version>
43012

> <i_f3d_flags>
0

> <s_epik_input>
W0NIM11bQ0hdKFtDSDNdKWMxbmMoW2NIXXMxKVtDSDJdW0NIMl1bTkhdQyg9TylOMltDSDJdW0NIMl1bQ0gyXTI=

> <s_epik_cmdline>
J2VwaWtfcHl0aG9uJywgJy1waCcsICc3LjAnLCAnLXRuJywgJzgnLCAnLW1hJywgJzIwMCcsICctbWV0YWxfYmluZGluZycsICctaW1hZScsICc8aW5maWxlLm1hZT4nLCAnLW9tYWUnLCAnPG91dGZpbGUubWFlPic=

> <r_epik_Ionization_Penalty>
0.00159927

> <r_epik_Ionization_Penalty_Charging>
0

> <r_epik_Ionization_Penalty_Neutral>
0.00159927

> <r_epik_State_Penalty>
0.00102964

> <r_epik_Charging_Adjusted_Penalty>
0.00102964

> <i_epik_Tot_Q>
0

> <i_epik_Tot_abs_Q>
0

> <r_epik_Metal_State_Penalty>
-0

> <b_epik_Metal_Only>
0

> <s_lp_Force_Field>
OPLS_2005

> <r_lp_Energy>
8.94744

> <b_lp_Chiralities_Consistent>
1

> <s_lp_Variant>
AV-unprocessed.smi:931-1

> <Gold.Version>
5.8.1

> <Gold.Id.Protein>
6NUR|6NUR_protein|mol2

> <Gold.PLP.Fitness>
44.6339

> <Gold.PLP.PLP>
-39.1503

> <Gold.PLP.part.hbond>
-1.0000

> <Gold.PLP.part.metal>
0.0000

> <Gold.PLP.part.buried>
-4.2442

> <Gold.PLP.part.nonpolar>
-33.9616

> <Gold.PLP.part.repulsive>
0.0977

> <Gold.PLP.ligand.clash>
0.0000

> <Gold.PLP.ligand.torsion>
0.4548

> <Gold.PLP.Chemscore.Hbond>
1.0000

> <Gold.PLP.Chemscore.CHOScore>
1.0000

> <Gold.PLP.Chemscore.Metal>
0.0000

> <Gold.Chemscore.Hbonds>
donor molecule, donor type, donor heavy atom, donor atom, acceptor molecule, acceptor atom, score
      P1  H  7997  8009       L1    11  1.00
      L1  C    16    36       P1  8028  1.00

> <Gold.PLP.Chemscore.Internal.Correction>
0.3932

> <Gold.Rescore>
     Score         DG    S(hbond)    S(metal)    S(lipo)     H(rot)  DE(clash)    DE(int)     intcor
     16.53     -18.16       1.00        0.00     112.47       1.48       0.08       1.55       ----

> <Gold.Chemscore.Fitness>
16.5310

> <Gold.Chemscore.DG>
-18.1619

> <Gold.Chemscore.ZeroCoef>
-5.4800

> <Gold.Chemscore.Hbond>
0.9951

> <Gold.Chemscore.Metal>
0.0000

> <Gold.Chemscore.Lipo>
112.4706

> <Gold.Chemscore.Internal_Hbond>
0.0000

> <Gold.Chemscore.DEClash>
0.0776

> <Gold.Chemscore.DEInternal>
1.5533

> <Gold.Chemscore.Rot>
1.4847

> <Gold.Chemscore.Internal.Correction>
   9.000000E+99

> <Gold.Chemscore.Hbonds>
donor molecule, donor type, donor heavy atom, donor atom, acceptor molecule, acceptor atom, score
      P1  H  7997  8009       L1    11  1.00

> <Gold.Chemscore.Hbond.Weighted>
-3.3237

> <Gold.Chemscore.Metal.Weighted>
-0.0000

> <Gold.Chemscore.Lipo.Weighted>
-13.1591

> <Gold.Chemscore.Internal_Hbond.Weighted>
0.0000

> <Gold.Chemscore.DEClash.Weighted>
0.0776

> <Gold.Chemscore.DEInternal.Weighted>
1.5533

> <Gold.Chemscore.Rot.Weighted>
3.8009

> <Gold.Chemscore.Internal.Correction.Weighted>
   9.000000E+99

> <Gold.Protein.RotatedTorsions>
[ 6907 6896 6895 6894 ] final  120.33 input  -60.11 | X-H torsion
[ 7974 7965 7964 7962 ] final   62.58 input  175.53 | X-H torsion
[ 8008 7997 7996 7995 ] final -166.32 input   59.86 | X-H torsion
[ 10167 10162 10161 10158 ] final   52.90 input  -65.29 | X-H torsion
[ 10718 10713 10712 10709 ] final  -28.64 input   66.30 | X-H torsion
[ 10763 10752 10751 10750 ] final  -34.14 input  -60.55 | X-H torsion
[ 11005 11000 10999 10996 ] final  -83.44 input  -57.11 | X-H torsion

> <Gold.Protein.ActiveResidues>
 VAL166  LYS551  ARG553  GLY616  TRP617  ASP618  TYR619  PRO620  LYS621  CYS622 
 ASP623  PHE694  ASN695  SER759  ASP760  ASP761  ALA762  ILE779  LEU786  VAL792 
 PHE793  MET794  SER795  GLU796  ALA797  LYS798  CYS799  TRP800  GLU811  SER814 

> <Gold.Protein.RotatedAtoms>
  152.4406  133.7440  159.6656 H   0  0  0  0  0  0  0  0  0  0  0  0  # atno 6907 bound_to 6896
  150.8296  133.8103  159.3110 H   0  0  0  0  0  0  0  0  0  0  0  0  # atno 6908 bound_to 6896
  151.5761  135.1063  160.0058 H   0  0  0  0  0  0  0  0  0  0  0  0  # atno 6909 bound_to 6896
  145.8717  139.3383  143.0758 H   0  0  0  0  0  0  0  0  0  0  0  0  # atno 7974 bound_to 7965
  155.8622  140.0980  157.1606 H   0  0  0  0  0  0  0  0  0  0  0  0  # atno 8008 bound_to 7997
  154.3991  140.1363  156.4037 H   0  0  0  0  0  0  0  0  0  0  0  0  # atno 8009 bound_to 7997
  155.7844  140.3457  155.5317 H   0  0  0  0  0  0  0  0  0  0  0  0  # atno 8010 bound_to 7997
  140.2464  144.3527  150.6362 H   0  0  0  0  0  0  0  0  0  0  0  0  # atno 10167 bound_to 10162
  156.4226  130.4429  149.7173 H   0  0  0  0  0  0  0  0  0  0  0  0  # atno 10718 bound_to 10713
  153.8418  135.6857  153.4802 H   0  0  0  0  0  0  0  0  0  0  0  0  # atno 10763 bound_to 10752
  153.1449  135.4642  154.9549 H   0  0  0  0  0  0  0  0  0  0  0  0  # atno 10764 bound_to 10752
  154.7841  135.3279  154.7871 H   0  0  0  0  0  0  0  0  0  0  0  0  # atno 10765 bound_to 10752
  141.1657  133.7295  156.8721 H   0  0  0  0  0  0  0  0  0  0  0  0  # atno 11005 bound_to 11000
  145.9128  140.9168  143.0445 LP  0  0  0  0  0  0  0  0  0  0  0  0  # atno 17320 bound_to 7965
  144.6726  140.1184  143.7451 LP  0  0  0  0  0  0  0  0  0  0  0  0  # atno 17321 bound_to 7965
  140.6074  143.2168  151.6954 LP  0  0  0  0  0  0  0  0  0  0  0  0  # atno 17342 bound_to 10162
  139.5060  144.3696  152.0483 LP  0  0  0  0  0  0  0  0  0  0  0  0  # atno 17343 bound_to 10162
  156.4107  130.7721  151.2733 LP  0  0  0  0  0  0  0  0  0  0  0  0  # atno 17370 bound_to 10713
  157.7508  131.0212  150.3741 LP  0  0  0  0  0  0  0  0  0  0  0  0  # atno 17371 bound_to 10713
  140.1774  134.9057  157.2907 LP  0  0  0  0  0  0  0  0  0  0  0  0  # atno 17394 bound_to 11000
  140.2433  134.3770  155.7471 LP  0  0  0  0  0  0  0  0  0  0  0  0  # atno 17395 bound_to 11000

$$$$
