AV-unprocessed.smi:1795|AV-procd|sdf|7245|dock7
  -GOLD-   22720 8493D 1   1.00000     0.00000
 Structure written by MMmdl.
 48 49  0  0  0  0  0  0  0  0  2 V2000
  150.1025  132.3816  154.3969 C   0  0  0  0  0  0  0  0  0  0  0  0
  149.5619  133.8106  154.2746 C   0  0  2  0  0  0  0  0  0  0  0  0
  150.6263  134.8624  154.6305 C   0  0  0  0  0  0  0  0  0  0  0  0
  150.0597  136.2356  154.5683 N   0  3  2  0  0  0  0  0  0  0  0  0
  151.1061  137.2968  154.7386 C   0  0  1  0  0  0  0  0  0  0  0  0
  150.5062  138.6790  154.3927 C   0  0  0  0  0  0  0  0  0  0  0  0
  151.7603  137.3148  156.1484 C   0  0  0  0  0  0  0  0  0  0  0  0
  151.0883  138.2292  157.0683 N   0  0  0  0  0  0  0  0  0  0  0  0
  151.5997  139.3775  157.5389 C   0  0  0  0  0  0  0  0  0  0  0  0
  152.7026  139.8131  157.2069 O   0  0  0  0  0  0  0  0  0  0  0  0
  150.7227  140.1465  158.5364 C   0  0  0  0  0  0  0  0  0  0  0  0
  151.1901  141.5225  158.7749 N   0  0  0  0  0  0  0  0  0  0  0  0
  151.8592  141.7740  159.9894 C   0  0  0  0  0  0  0  0  0  0  0  0
  152.3301  142.9919  160.3013 C   0  0  0  0  0  0  0  0  0  0  0  0
  152.1352  144.0632  159.3532 C   0  0  0  0  0  0  0  0  0  0  0  0
  151.4943  143.8344  158.1898 C   0  0  0  0  0  0  0  0  0  0  0  0
  150.9782  142.5049  157.8443 C   0  0  0  0  0  0  0  0  0  0  0  0
  150.3911  142.2865  156.7837 O   0  0  0  0  0  0  0  0  0  0  0  0
  148.8833  136.3225  155.4765 C   0  0  0  0  0  0  0  0  0  0  0  0
  147.8452  135.2242  155.1687 C   0  0  1  0  0  0  0  0  0  0  0  0
  147.0394  135.4854  153.8833 C   0  0  0  0  0  0  0  0  0  0  0  0
  148.4611  133.9385  155.1678 O   0  0  0  0  0  0  0  0  0  0  0  0
  150.9433  132.2201  153.7218 H   0  0  0  0  0  0  0  0  0  0  0  0
  149.3325  131.6511  154.1474 H   0  0  0  0  0  0  0  0  0  0  0  0
  150.4429  132.1719  155.4113 H   0  0  0  0  0  0  0  0  0  0  0  0
  149.2280  133.9572  153.2473 H   0  0  0  0  0  0  0  0  0  0  0  0
  151.0155  134.6763  155.6331 H   0  0  0  0  0  0  0  0  0  0  0  0
  151.4656  134.7532  153.9459 H   0  0  0  0  0  0  0  0  0  0  0  0
  151.9058  137.0858  154.0263 H   0  0  0  0  0  0  0  0  0  0  0  0
  151.2635  139.4623  154.4011 H   0  0  0  0  0  0  0  0  0  0  0  0
  149.7333  138.9605  155.1086 H   0  0  0  0  0  0  0  0  0  0  0  0
  150.0605  138.7101  153.4005 H   0  0  0  0  0  0  0  0  0  0  0  0
  151.8012  136.3057  156.5619 H   0  0  0  0  0  0  0  0  0  0  0  0
  152.7894  137.6690  156.0880 H   0  0  0  0  0  0  0  0  0  0  0  0
  150.1710  137.9562  157.3909 H   0  0  0  0  0  0  0  0  0  0  0  0
  149.6992  140.1419  158.1590 H   0  0  0  0  0  0  0  0  0  0  0  0
  150.6818  139.6060  159.4844 H   0  0  0  0  0  0  0  0  0  0  0  0
  151.9600  140.9226  160.6466 H   0  0  0  0  0  0  0  0  0  0  0  0
  152.8392  143.1666  161.2378 H   0  0  0  0  0  0  0  0  0  0  0  0
  152.5043  145.0530  159.5783 H   0  0  0  0  0  0  0  0  0  0  0  0
  151.3571  144.6481  157.4928 H   0  0  0  0  0  0  0  0  0  0  0  0
  149.2235  136.2295  156.5093 H   0  0  0  0  0  0  0  0  0  0  0  0
  148.3813  137.2854  155.3875 H   0  0  0  0  0  0  0  0  0  0  0  0
  147.1270  135.2107  155.9890 H   0  0  0  0  0  0  0  0  0  0  0  0
  146.4703  136.4119  153.9657 H   0  0  0  0  0  0  0  0  0  0  0  0
  146.3284  134.6796  153.6998 H   0  0  0  0  0  0  0  0  0  0  0  0
  147.6769  135.5765  153.0044 H   0  0  0  0  0  0  0  0  0  0  0  0
  149.6915  136.3593  153.6358 H   0  0  0  0  0  0  0  0  0  0  0  0
  1  2  1  0  0  0  0
  1 23  1  0  0  0  0
  1 24  1  0  0  0  0
  1 25  1  0  0  0  0
  2 22  1  0  0  0  0
  2  3  1  0  0  0  0
  2 26  1  0  0  0  0
  3  4  1  0  0  0  0
  3 27  1  0  0  0  0
  3 28  1  0  0  0  0
  4  5  1  0  0  0  0
  4 19  1  0  0  0  0
  4 48  1  0  0  0  0
  5  6  1  0  0  0  0
  5  7  1  0  0  0  0
  5 29  1  0  0  0  0
  6 30  1  0  0  0  0
  6 31  1  0  0  0  0
  6 32  1  0  0  0  0
  7  8  1  0  0  0  0
  7 33  1  0  0  0  0
  7 34  1  0  0  0  0
  8  9  1  0  0  0  0
  8 35  1  0  0  0  0
  9 10  2  0  0  0  0
  9 11  1  0  0  0  0
 11 12  1  0  0  0  0
 11 36  1  0  0  0  0
 11 37  1  0  0  0  0
 12 17  1  0  0  0  0
 12 13  1  0  0  0  0
 13 14  2  0  0  0  0
 13 38  1  0  0  0  0
 14 15  1  0  0  0  0
 14 39  1  0  0  0  0
 15 16  2  0  0  0  0
 15 40  1  0  0  0  0
 16 17  1  0  0  0  0
 16 41  1  0  0  0  0
 17 18  2  0  0  0  0
 19 20  1  0  0  0  0
 19 42  1  0  0  0  0
 19 43  1  0  0  0  0
 20 21  1  0  0  0  0
 20 22  1  0  0  0  0
 20 44  1  0  0  0  0
 21 45  1  0  0  0  0
 21 46  1  0  0  0  0
 21 47  1  0  0  0  0
M  CHG  1   4   1
M  END
> <s_m_source_file>
AV-unprocessed.smi

> <i_m_source_file_index>
1795

> <i_lp_mmshare_version>
43012

> <i_f3d_flags>
0

> <s_epik_input>
W0NIM11bQ0BASF0xW0NIMl1OKFtDSDJdW0NASF0oTzEpW0NIM10pW0NASF0oW0NIM10pW0NIMl1bTkhdQyg9TylbQ0gyXW4yW2NIXVtjSF1bY0hdW2NIXWMyPU8=

> <s_epik_cmdline>
J2VwaWtfcHl0aG9uJywgJy1waCcsICc3LjAnLCAnLXRuJywgJzgnLCAnLW1hJywgJzIwMCcsICctbWV0YWxfYmluZGluZycsICctaW1hZScsICc8aW5maWxlLm1hZT4nLCAnLW9tYWUnLCAnPG91dGZpbGUubWFlPic=

> <r_lp_tautomer_probability>
1

> <r_epik_Ionization_Penalty>
0.656654

> <r_epik_Ionization_Penalty_Charging>
0.656654

> <r_epik_Ionization_Penalty_Neutral>
8.90321e-08

> <r_epik_State_Penalty>
0.675641

> <r_epik_Charging_Adjusted_Penalty>
1.33229

> <i_epik_Tot_Q>
1

> <i_epik_Tot_abs_Q>
1

> <r_epik_Metal_State_Penalty>
0.675691

> <b_epik_Metal_Only>
0

> <s_lp_Force_Field>
OPLS_2005

> <r_lp_Energy>
30.7176

> <b_lp_Chiralities_Consistent>
1

> <s_lp_Variant>
AV-unprocessed.smi:1795-9

> <Gold.Version>
5.8.1

> <Gold.Id.Protein>
6NUR|6NUR_protein|mol2

> <Gold.PLP.Fitness>
47.0048

> <Gold.PLP.PLP>
-39.5673

> <Gold.PLP.part.hbond>
-2.0000

> <Gold.PLP.part.metal>
0.0000

> <Gold.PLP.part.buried>
-3.4525

> <Gold.PLP.part.nonpolar>
-34.3391

> <Gold.PLP.part.repulsive>
0.8931

> <Gold.PLP.ligand.clash>
0.0000

> <Gold.PLP.ligand.torsion>
0.8232

> <Gold.PLP.Chemscore.Hbond>
3.0000

> <Gold.PLP.Chemscore.CHOScore>
0.0000

> <Gold.PLP.Chemscore.Metal>
0.0000

> <Gold.Chemscore.Hbonds>
donor molecule, donor type, donor heavy atom, donor atom, acceptor molecule, acceptor atom, score
      L1  H     4    48       P1  7948  2.00
      P1  H  7997  8009       L1    10  1.00

> <Gold.PLP.Chemscore.Internal.Correction>
0.0839

> <Gold.Rescore>
     Score         DG    S(hbond)    S(metal)    S(lipo)     H(rot)  DE(clash)    DE(int)     intcor
     16.99     -17.75       1.96        0.00      90.20       1.89       0.00       0.76       ----

> <Gold.Chemscore.Fitness>
16.9924

> <Gold.Chemscore.DG>
-17.7546

> <Gold.Chemscore.ZeroCoef>
-5.4800

> <Gold.Chemscore.Hbond>
1.9618

> <Gold.Chemscore.Metal>
0.0000

> <Gold.Chemscore.Lipo>
90.1972

> <Gold.Chemscore.Internal_Hbond>
0.0000

> <Gold.Chemscore.DEClash>
0.0000

> <Gold.Chemscore.DEInternal>
0.7622

> <Gold.Chemscore.Rot>
1.8870

> <Gold.Chemscore.Internal.Correction>
   9.000000E+99

> <Gold.Chemscore.Hbonds>
donor molecule, donor type, donor heavy atom, donor atom, acceptor molecule, acceptor atom, score
      L1  H     4    48       P1  7948  0.45
      P1  H  7997  8009       L1    10  1.00

> <Gold.Chemscore.Hbond.Weighted>
-6.5523

> <Gold.Chemscore.Metal.Weighted>
-0.0000

> <Gold.Chemscore.Lipo.Weighted>
-10.5531

> <Gold.Chemscore.Internal_Hbond.Weighted>
0.0000

> <Gold.Chemscore.DEClash.Weighted>
0.0000

> <Gold.Chemscore.DEInternal.Weighted>
0.7622

> <Gold.Chemscore.Rot.Weighted>
4.8308

> <Gold.Chemscore.Internal.Correction.Weighted>
   9.000000E+99

> <Gold.Protein.RotatedTorsions>
[ 6907 6896 6895 6894 ] final  -71.11 input  -60.11 | X-H torsion
[ 7974 7965 7964 7962 ] final -131.61 input  175.53 | X-H torsion
[ 8008 7997 7996 7995 ] final  172.27 input   59.86 | X-H torsion
[ 10167 10162 10161 10158 ] final  166.29 input  -65.29 | X-H torsion
[ 10718 10713 10712 10709 ] final   86.98 input   66.30 | X-H torsion
[ 10763 10752 10751 10750 ] final   26.16 input  -60.55 | X-H torsion
[ 11005 11000 10999 10996 ] final   99.80 input  -57.11 | X-H torsion

> <Gold.Protein.ActiveResidues>
 VAL166  LYS551  ARG553  GLY616  TRP617  ASP618  TYR619  PRO620  LYS621  CYS622 
 ASP623  PHE694  ASN695  SER759  ASP760  ASP761  ALA762  ILE779  LEU786  VAL792 
 PHE793  MET794  SER795  GLU796  ALA797  LYS798  CYS799  TRP800  GLU811  SER814 

> <Gold.Protein.RotatedAtoms>
  150.7227  134.5356  159.5721 H   0  0  0  0  0  0  0  0  0  0  0  0  # atno 6907 bound_to 6896
  152.2879  134.7752  160.0393 H   0  0  0  0  0  0  0  0  0  0  0  0  # atno 6908 bound_to 6896
  151.8376  133.3383  159.3669 H   0  0  0  0  0  0  0  0  0  0  0  0  # atno 6909 bound_to 6896
  144.9363  140.7187  143.4874 H   0  0  0  0  0  0  0  0  0  0  0  0  # atno 7974 bound_to 7965
  156.1190  140.1490  156.9231 H   0  0  0  0  0  0  0  0  0  0  0  0  # atno 8008 bound_to 7997
  154.4822  140.0876  156.7445 H   0  0  0  0  0  0  0  0  0  0  0  0  # atno 8009 bound_to 7997
  155.4461  140.3433  155.4297 H   0  0  0  0  0  0  0  0  0  0  0  0  # atno 8010 bound_to 7997
  139.4922  144.4043  151.9373 H   0  0  0  0  0  0  0  0  0  0  0  0  # atno 10167 bound_to 10162
  157.6935  131.0237  150.3054 H   0  0  0  0  0  0  0  0  0  0  0  0  # atno 10718 bound_to 10713
  153.0642  135.6566  154.0393 H   0  0  0  0  0  0  0  0  0  0  0  0  # atno 10763 bound_to 10752
  154.0054  135.2933  155.3399 H   0  0  0  0  0  0  0  0  0  0  0  0  # atno 10764 bound_to 10752
  154.6992  135.5251  153.8571 H   0  0  0  0  0  0  0  0  0  0  0  0  # atno 10765 bound_to 10752
  139.8770  134.9112  156.4660 H   0  0  0  0  0  0  0  0  0  0  0  0  # atno 11005 bound_to 11000
  145.3061  139.1834  143.4663 LP  0  0  0  0  0  0  0  0  0  0  0  0  # atno 17320 bound_to 7965
  146.3268  140.3059  142.8623 LP  0  0  0  0  0  0  0  0  0  0  0  0  # atno 17321 bound_to 7965
  140.3483  144.3120  150.5954 LP  0  0  0  0  0  0  0  0  0  0  0  0  # atno 17342 bound_to 10162
  140.5507  143.2207  151.7932 LP  0  0  0  0  0  0  0  0  0  0  0  0  # atno 17343 bound_to 10162
  156.3563  130.3839  149.7287 LP  0  0  0  0  0  0  0  0  0  0  0  0  # atno 17370 bound_to 10713
  156.4748  130.8013  151.3030 LP  0  0  0  0  0  0  0  0  0  0  0  0  # atno 17371 bound_to 10713
  140.8830  133.7904  155.9487 LP  0  0  0  0  0  0  0  0  0  0  0  0  # atno 17394 bound_to 11000
  140.8834  134.2584  157.5132 LP  0  0  0  0  0  0  0  0  0  0  0  0  # atno 17395 bound_to 11000

$$$$
