AV-unprocessed.smi:2784|AV-procd|sdf|10729|dock1
  -GOLD-   2272015163D 1   1.00000     0.00000
 Structure written by MMmdl.
 31 32  0  0  0  0  0  0  0  0  1 V2000
  151.4711  140.4945  159.0297 C   0  0  0  0  0  0  0  0  0  0  0  0
  151.9713  141.6286  159.7200 O   0  0  0  0  0  0  0  0  0  0  0  0
  151.4198  142.8602  159.2739 C   0  0  1  0  0  0  0  0  0  0  0  0
  151.9395  144.0522  160.0896 C   0  0  0  0  0  0  0  0  0  0  0  0
  151.9474  145.2146  159.1037 C   0  0  0  0  0  0  0  0  0  0  0  0
  152.3925  144.5759  157.7897 C   0  0  0  0  0  0  0  0  0  0  0  0
  151.8440  143.1352  157.8146 C   0  0  2  0  0  0  0  0  0  0  0  0
  150.7057  142.9876  156.9105 N   0  0  0  0  0  0  0  0  0  0  0  0
  150.3875  141.8651  156.2500 C   0  0  0  0  0  0  0  0  0  0  0  0
  151.0418  140.8246  156.3237 O   0  0  0  0  0  0  0  0  0  0  0  0
  149.2792  142.0321  155.5091 N   0  0  0  0  0  0  0  0  0  0  0  0
  148.6312  141.0683  154.6962 C   0  0  0  0  0  0  0  0  0  0  0  0
  149.0529  139.8283  154.4438 N   0  0  0  0  0  0  0  0  0  0  0  0
  148.0819  139.2911  153.6113 C   0  0  0  0  0  0  0  0  0  0  0  0
  147.1194  140.2458  153.4053 C   0  0  0  0  0  0  0  0  0  0  0  0
  147.4558  141.3827  154.0902 O   0  0  0  0  0  0  0  0  0  0  0  0
  151.9494  139.5945  159.4157 H   0  0  0  0  0  0  0  0  0  0  0  0
  151.6864  140.5562  157.9625 H   0  0  0  0  0  0  0  0  0  0  0  0
  150.3949  140.3828  159.1642 H   0  0  0  0  0  0  0  0  0  0  0  0
  150.3299  142.8295  159.3403 H   0  0  0  0  0  0  0  0  0  0  0  0
  151.3331  144.2549  160.9726 H   0  0  0  0  0  0  0  0  0  0  0  0
  152.9598  143.8583  160.4236 H   0  0  0  0  0  0  0  0  0  0  0  0
  150.9388  145.6152  158.9969 H   0  0  0  0  0  0  0  0  0  0  0  0
  152.6012  146.0286  159.4177 H   0  0  0  0  0  0  0  0  0  0  0  0
  152.0694  145.1532  156.9226 H   0  0  0  0  0  0  0  0  0  0  0  0
  153.4822  144.5414  157.7605 H   0  0  0  0  0  0  0  0  0  0  0  0
  152.6356  142.4437  157.5184 H   0  0  0  0  0  0  0  0  0  0  0  0
  150.1134  143.7963  156.7912 H   0  0  0  0  0  0  0  0  0  0  0  0
  148.8469  142.9437  155.5354 H   0  0  0  0  0  0  0  0  0  0  0  0
  148.1505  138.2814  153.2343 H   0  0  0  0  0  0  0  0  0  0  0  0
  146.1993  140.2731  152.8405 H   0  0  0  0  0  0  0  0  0  0  0  0
  1  2  1  0  0  0  0
  1 17  1  0  0  0  0
  1 18  1  0  0  0  0
  1 19  1  0  0  0  0
  2  3  1  0  0  0  0
  3  7  1  0  0  0  0
  3  4  1  0  0  0  0
  3 20  1  0  0  0  0
  4  5  1  0  0  0  0
  4 21  1  0  0  0  0
  4 22  1  0  0  0  0
  5  6  1  0  0  0  0
  5 23  1  0  0  0  0
  5 24  1  0  0  0  0
  6  7  1  0  0  0  0
  6 25  1  0  0  0  0
  6 26  1  0  0  0  0
  7  8  1  0  0  0  0
  7 27  1  0  0  0  0
  8  9  1  0  0  0  0
  8 28  1  0  0  0  0
  9 10  2  0  0  0  0
  9 11  1  0  0  0  0
 11 12  1  0  0  0  0
 11 29  1  0  0  0  0
 12 16  1  0  0  0  0
 12 13  2  0  0  0  0
 13 14  1  0  0  0  0
 14 15  2  0  0  0  0
 14 30  1  0  0  0  0
 15 16  1  0  0  0  0
 15 31  1  0  0  0  0
M  END
> <s_m_source_file>
AV-unprocessed.smi

> <i_m_source_file_index>
2784

> <i_lp_mmshare_version>
43012

> <i_f3d_flags>
0

> <s_epik_input>
W0NIM11PW0NAQEhdMVtDSDJdW0NIMl1bQ0gyXVtDQEhdMVtOSF1DKD1PKVtOSF1jMm5bY0hdW2NIXW8y

> <s_epik_cmdline>
J2VwaWtfcHl0aG9uJywgJy1waCcsICc3LjAnLCAnLXRuJywgJzgnLCAnLW1hJywgJzIwMCcsICctbWV0YWxfYmluZGluZycsICctaW1hZScsICc8aW5maWxlLm1hZT4nLCAnLW9tYWUnLCAnPG91dGZpbGUubWFlPic=

> <r_lp_tautomer_probability>
0.785861

> <r_epik_Ionization_Penalty>
4.58897e-05

> <r_epik_Ionization_Penalty_Charging>
0

> <r_epik_Ionization_Penalty_Neutral>
4.58897e-05

> <r_epik_State_Penalty>
0.0380021

> <r_epik_Charging_Adjusted_Penalty>
0.0380021

> <i_epik_Tot_Q>
0

> <i_epik_Tot_abs_Q>
0

> <r_epik_Metal_State_Penalty>
0.0585611

> <b_epik_Metal_Only>
0

> <s_lp_Force_Field>
OPLS_2005

> <r_lp_Energy>
18.2903

> <b_lp_Chiralities_Consistent>
1

> <s_lp_Variant>
AV-unprocessed.smi:2784-4

> <Gold.Version>
5.8.1

> <Gold.Id.Protein>
6NUR|6NUR_protein|mol2

> <Gold.PLP.Fitness>
42.3439

> <Gold.PLP.PLP>
-31.4655

> <Gold.PLP.part.hbond>
-2.0000

> <Gold.PLP.part.metal>
0.0000

> <Gold.PLP.part.buried>
-4.5198

> <Gold.PLP.part.nonpolar>
-26.0001

> <Gold.PLP.part.repulsive>
0.5004

> <Gold.PLP.ligand.clash>
0.0000

> <Gold.PLP.ligand.torsion>
0.3808

> <Gold.PLP.Chemscore.Hbond>
1.8880

> <Gold.PLP.Chemscore.CHOScore>
1.9905

> <Gold.PLP.Chemscore.Metal>
0.0000

> <Gold.Chemscore.Hbonds>
donor molecule, donor type, donor heavy atom, donor atom, acceptor molecule, acceptor atom, score
      L1  H     8    28       P1  8028  0.96
      L1  H    11    29       P1  8028  1.00
      L1  C    14    30       P1  7948  0.88
      L1  C    15    31       P1 10175  0.96

> <Gold.PLP.Chemscore.Internal.Correction>
0.0047

> <Gold.Rescore>
     Score         DG    S(hbond)    S(metal)    S(lipo)     H(rot)  DE(clash)    DE(int)     intcor
     15.73     -17.75       1.90        0.00      79.55       1.32       0.08       1.94       ----

> <Gold.Chemscore.Fitness>
15.7304

> <Gold.Chemscore.DG>
-17.7497

> <Gold.Chemscore.ZeroCoef>
-5.4800

> <Gold.Chemscore.Hbond>
1.9014

> <Gold.Chemscore.Metal>
0.0000

> <Gold.Chemscore.Lipo>
79.5482

> <Gold.Chemscore.Internal_Hbond>
0.0000

> <Gold.Chemscore.DEClash>
0.0825

> <Gold.Chemscore.DEInternal>
1.9367

> <Gold.Chemscore.Rot>
1.3235

> <Gold.Chemscore.Internal.Correction>
   9.000000E+99

> <Gold.Chemscore.Hbonds>
donor molecule, donor type, donor heavy atom, donor atom, acceptor molecule, acceptor atom, score
      L1  H     8    28       P1  8028  0.92
      L1  H    11    29       P1  8028  0.98

> <Gold.Chemscore.Hbond.Weighted>
-6.3507

> <Gold.Chemscore.Metal.Weighted>
-0.0000

> <Gold.Chemscore.Lipo.Weighted>
-9.3071

> <Gold.Chemscore.Internal_Hbond.Weighted>
0.0000

> <Gold.Chemscore.DEClash.Weighted>
0.0825

> <Gold.Chemscore.DEInternal.Weighted>
1.9367

> <Gold.Chemscore.Rot.Weighted>
3.3882

> <Gold.Chemscore.Internal.Correction.Weighted>
   9.000000E+99

> <Gold.Protein.RotatedTorsions>
[ 6907 6896 6895 6894 ] final -177.24 input  -60.11 | X-H torsion
[ 7974 7965 7964 7962 ] final  170.16 input  175.53 | X-H torsion
[ 8008 7997 7996 7995 ] final  -99.18 input   59.86 | X-H torsion
[ 10167 10162 10161 10158 ] final   47.00 input  -65.29 | X-H torsion
[ 10718 10713 10712 10709 ] final  172.57 input   66.30 | X-H torsion
[ 10763 10752 10751 10750 ] final -116.92 input  -60.55 | X-H torsion
[ 11005 11000 10999 10996 ] final  -31.38 input  -57.11 | X-H torsion

> <Gold.Protein.ActiveResidues>
 VAL166  LYS551  ARG553  GLY616  TRP617  ASP618  TYR619  PRO620  LYS621  CYS622 
 ASP623  PHE694  ASN695  SER759  ASP760  ASP761  ALA762  ILE779  LEU786  VAL792 
 PHE793  MET794  SER795  GLU796  ALA797  LYS798  CYS799  TRP800  GLU811  SER814 

> <Gold.Protein.RotatedAtoms>
  151.6178  133.3341  159.3081 H   0  0  0  0  0  0  0  0  0  0  0  0  # atno 6907 bound_to 6896
  150.8122  134.7287  159.6709 H   0  0  0  0  0  0  0  0  0  0  0  0  # atno 6908 bound_to 6896
  152.4218  134.5946  160.0035 H   0  0  0  0  0  0  0  0  0  0  0  0  # atno 6909 bound_to 6896
  144.7332  139.9161  143.6417 H   0  0  0  0  0  0  0  0  0  0  0  0  # atno 7974 bound_to 7965
  154.8114  140.0449  157.1345 H   0  0  0  0  0  0  0  0  0  0  0  0  # atno 8008 bound_to 7997
  154.9364  140.3047  155.5122 H   0  0  0  0  0  0  0  0  0  0  0  0  # atno 8009 bound_to 7997
  156.2972  140.2313  156.4429 H   0  0  0  0  0  0  0  0  0  0  0  0  # atno 8010 bound_to 7997
  140.3081  144.2853  150.6205 H   0  0  0  0  0  0  0  0  0  0  0  0  # atno 10167 bound_to 10162
  156.9769  131.0107  151.2891 H   0  0  0  0  0  0  0  0  0  0  0  0  # atno 10718 bound_to 10713
  154.8537  135.4328  154.1898 H   0  0  0  0  0  0  0  0  0  0  0  0  # atno 10763 bound_to 10752
  153.2969  135.6966  153.7245 H   0  0  0  0  0  0  0  0  0  0  0  0  # atno 10764 bound_to 10752
  153.6391  135.3471  155.3040 H   0  0  0  0  0  0  0  0  0  0  0  0  # atno 10765 bound_to 10752
  140.9463  133.7248  156.1152 H   0  0  0  0  0  0  0  0  0  0  0  0  # atno 11005 bound_to 11000
  146.0964  139.3957  143.0374 LP  0  0  0  0  0  0  0  0  0  0  0  0  # atno 17320 bound_to 7965
  145.7639  140.9924  143.1185 LP  0  0  0  0  0  0  0  0  0  0  0  0  # atno 17321 bound_to 7965
  140.5592  143.2194  151.7795 LP  0  0  0  0  0  0  0  0  0  0  0  0  # atno 17342 bound_to 10162
  139.4900  144.4372  151.9806 LP  0  0  0  0  0  0  0  0  0  0  0  0  # atno 17343 bound_to 10162
  157.5553  130.8209  149.8197 LP  0  0  0  0  0  0  0  0  0  0  0  0  # atno 17370 bound_to 10713
  156.0260  130.3779  150.1823 LP  0  0  0  0  0  0  0  0  0  0  0  0  # atno 17371 bound_to 10713
  140.7664  134.3881  157.5516 LP  0  0  0  0  0  0  0  0  0  0  0  0  # atno 17394 bound_to 11000
  139.8834  134.8994  156.2766 LP  0  0  0  0  0  0  0  0  0  0  0  0  # atno 17395 bound_to 11000

$$$$
