AV-unprocessed.smi:2345|AV-procd|sdf|9364|dock1
  -GOLD-   2272012583D 1   1.00000     0.00000
 Structure written by MMmdl.
 37 38  0  0  0  0  0  0  0  0  1 V2000
  146.3945  142.3177  154.2470 C   0  0  0  0  0  0  0  0  0  0  0  0
  147.3172  141.2152  154.7717 C   0  0  0  0  0  0  0  0  0  0  0  0
  149.0561  141.5697  154.3947 S   0  0  0  0  0  0  0  0  0  0  0  0
  149.8545  140.0832  155.0705 C   0  0  1  0  0  0  0  0  0  0  0  0
  149.5159  138.8291  154.2602 C   0  0  0  0  0  0  0  0  0  0  0  0
  150.6809  137.8830  154.5296 C   0  0  0  0  0  0  0  0  0  0  0  0
  151.9038  138.7993  154.5758 C   0  0  0  0  0  0  0  0  0  0  0  0
  151.3963  140.1668  155.0765 C   0  0  2  0  0  0  0  0  0  0  0  0
  151.8923  140.4562  156.4200 N   0  0  0  0  0  0  0  0  0  0  0  0
  151.6020  141.5572  157.1266 C   0  0  0  0  0  0  0  0  0  0  0  0
  150.8844  142.4635  156.7041 O   0  0  0  0  0  0  0  0  0  0  0  0
  152.1778  141.5193  158.3402 N   0  0  0  0  0  0  0  0  0  0  0  0
  152.1185  142.4822  159.3847 C   0  0  0  0  0  0  0  0  0  0  0  0
  151.4394  143.7211  159.2867 C   0  0  0  0  0  0  0  0  0  0  0  0
  151.4712  144.5970  160.3905 C   0  0  0  0  0  0  0  0  0  0  0  0
  152.1238  144.3229  161.5398 N   0  0  0  0  0  0  0  0  0  0  0  0
  152.7817  143.1474  161.6245 C   0  0  0  0  0  0  0  0  0  0  0  0
  152.8129  142.2011  160.5805 C   0  0  0  0  0  0  0  0  0  0  0  0
  153.4969  141.0407  160.7302 F   0  0  0  0  0  0  0  0  0  0  0  0
  145.3531  142.0966  154.4813 H   0  0  0  0  0  0  0  0  0  0  0  0
  146.4781  142.4176  153.1645 H   0  0  0  0  0  0  0  0  0  0  0  0
  146.6395  143.2814  154.6942 H   0  0  0  0  0  0  0  0  0  0  0  0
  147.1983  141.1155  155.8506 H   0  0  0  0  0  0  0  0  0  0  0  0
  147.0444  140.2583  154.3264 H   0  0  0  0  0  0  0  0  0  0  0  0
  149.4843  139.9308  156.0859 H   0  0  0  0  0  0  0  0  0  0  0  0
  148.5532  138.3985  154.5370 H   0  0  0  0  0  0  0  0  0  0  0  0
  149.4816  139.0648  153.1954 H   0  0  0  0  0  0  0  0  0  0  0  0
  150.5454  137.3996  155.4980 H   0  0  0  0  0  0  0  0  0  0  0  0
  150.7711  137.1011  153.7751 H   0  0  0  0  0  0  0  0  0  0  0  0
  152.7010  138.3792  155.1908 H   0  0  0  0  0  0  0  0  0  0  0  0
  152.3066  138.9145  153.5687 H   0  0  0  0  0  0  0  0  0  0  0  0
  151.7300  140.9420  154.3839 H   0  0  0  0  0  0  0  0  0  0  0  0
  152.4877  139.7600  156.8443 H   0  0  0  0  0  0  0  0  0  0  0  0
  152.6723  140.6694  158.5693 H   0  0  0  0  0  0  0  0  0  0  0  0
  150.9110  144.0214  158.3953 H   0  0  0  0  0  0  0  0  0  0  0  0
  150.9620  145.5485  160.3454 H   0  0  0  0  0  0  0  0  0  0  0  0
  153.3008  142.9555  162.5519 H   0  0  0  0  0  0  0  0  0  0  0  0
  1  2  1  0  0  0  0
  1 20  1  0  0  0  0
  1 21  1  0  0  0  0
  1 22  1  0  0  0  0
  2  3  1  0  0  0  0
  2 23  1  0  0  0  0
  2 24  1  0  0  0  0
  3  4  1  0  0  0  0
  4  8  1  0  0  0  0
  4  5  1  0  0  0  0
  4 25  1  0  0  0  0
  5  6  1  0  0  0  0
  5 26  1  0  0  0  0
  5 27  1  0  0  0  0
  6  7  1  0  0  0  0
  6 28  1  0  0  0  0
  6 29  1  0  0  0  0
  7  8  1  0  0  0  0
  7 30  1  0  0  0  0
  7 31  1  0  0  0  0
  8  9  1  0  0  0  0
  8 32  1  0  0  0  0
  9 10  1  0  0  0  0
  9 33  1  0  0  0  0
 10 11  2  0  0  0  0
 10 12  1  0  0  0  0
 12 13  1  0  0  0  0
 12 34  1  0  0  0  0
 13 18  1  0  0  0  0
 13 14  2  0  0  0  0
 14 15  1  0  0  0  0
 14 35  1  0  0  0  0
 15 16  2  0  0  0  0
 15 36  1  0  0  0  0
 16 17  1  0  0  0  0
 17 18  2  0  0  0  0
 17 37  1  0  0  0  0
 18 19  1  0  0  0  0
M  END
> <s_m_source_file>
AV-unprocessed.smi

> <i_m_source_file_index>
2345

> <i_lp_mmshare_version>
43012

> <i_f3d_flags>
0

> <s_epik_input>
W0NIM11bQ0gyXVNbQ0BASF0xW0NIMl1bQ0gyXVtDSDJdW0NASF0xW05IXUMoPU8pW05IXWMyW2NIXVtjSF1uW2NIXWMyRg==

> <s_epik_cmdline>
J2VwaWtfcHl0aG9uJywgJy1waCcsICc3LjAnLCAnLXRuJywgJzgnLCAnLW1hJywgJzIwMCcsICctbWV0YWxfYmluZGluZycsICctaW1hZScsICc8aW5maWxlLm1hZT4nLCAnLW9tYWUnLCAnPG91dGZpbGUubWFlPic=

> <r_epik_Ionization_Penalty>
0.00333745

> <r_epik_Ionization_Penalty_Charging>
0

> <r_epik_Ionization_Penalty_Neutral>
0.00333745

> <r_epik_State_Penalty>
0.00233401

> <r_epik_Charging_Adjusted_Penalty>
0.00233401

> <i_epik_Tot_Q>
0

> <i_epik_Tot_abs_Q>
0

> <r_epik_Metal_State_Penalty>
-0

> <b_epik_Metal_Only>
0

> <s_lp_Force_Field>
OPLS_2005

> <r_lp_Energy>
20.2483

> <b_lp_Chiralities_Consistent>
1

> <s_lp_Variant>
AV-unprocessed.smi:2345-4

> <Gold.Version>
5.8.1

> <Gold.Id.Protein>
6NUR|6NUR_protein|mol2

> <Gold.PLP.Fitness>
43.6396

> <Gold.PLP.PLP>
-43.6984

> <Gold.PLP.part.hbond>
0.0000

> <Gold.PLP.part.metal>
0.0000

> <Gold.PLP.part.buried>
-3.2629

> <Gold.PLP.part.nonpolar>
-39.7801

> <Gold.PLP.part.repulsive>
0.5134

> <Gold.PLP.ligand.clash>
0.0000

> <Gold.PLP.ligand.torsion>
0.0382

> <Gold.PLP.Chemscore.Hbond>
0.0000

> <Gold.PLP.Chemscore.CHOScore>
0.0000

> <Gold.PLP.Chemscore.Metal>
0.0000

> <Gold.PLP.Chemscore.Internal.Correction>
0.0176

> <Gold.Rescore>
     Score         DG    S(hbond)    S(metal)    S(lipo)     H(rot)  DE(clash)    DE(int)     intcor
     12.91     -15.15       0.00        0.00     112.15       1.35       1.00       1.25       ----

> <Gold.Chemscore.Fitness>
12.9059

> <Gold.Chemscore.DG>
-15.1516

> <Gold.Chemscore.ZeroCoef>
-5.4800

> <Gold.Chemscore.Hbond>
0.0000

> <Gold.Chemscore.Metal>
0.0000

> <Gold.Chemscore.Lipo>
112.1469

> <Gold.Chemscore.Internal_Hbond>
0.0000

> <Gold.Chemscore.DEClash>
0.9973

> <Gold.Chemscore.DEInternal>
1.2484

> <Gold.Chemscore.Rot>
1.3475

> <Gold.Chemscore.Internal.Correction>
   9.000000E+99

> <Gold.Chemscore.Hbond.Weighted>
-0.0000

> <Gold.Chemscore.Metal.Weighted>
-0.0000

> <Gold.Chemscore.Lipo.Weighted>
-13.1212

> <Gold.Chemscore.Internal_Hbond.Weighted>
0.0000

> <Gold.Chemscore.DEClash.Weighted>
0.9973

> <Gold.Chemscore.DEInternal.Weighted>
1.2484

> <Gold.Chemscore.Rot.Weighted>
3.4496

> <Gold.Chemscore.Internal.Correction.Weighted>
   9.000000E+99

> <Gold.Protein.RotatedTorsions>
[ 6907 6896 6895 6894 ] final  179.05 input  -60.11 | X-H torsion
[ 7974 7965 7964 7962 ] final   81.55 input  175.53 | X-H torsion
[ 8008 7997 7996 7995 ] final -166.74 input   59.86 | X-H torsion
[ 10167 10162 10161 10158 ] final   15.74 input  -65.29 | X-H torsion
[ 10718 10713 10712 10709 ] final  169.42 input   66.30 | X-H torsion
[ 10763 10752 10751 10750 ] final   29.93 input  -60.55 | X-H torsion
[ 11005 11000 10999 10996 ] final  -94.82 input  -57.11 | X-H torsion

> <Gold.Protein.ActiveResidues>
 VAL166  LYS551  ARG553  GLY616  TRP617  ASP618  TYR619  PRO620  LYS621  CYS622 
 ASP623  PHE694  ASN695  SER759  ASP760  ASP761  ALA762  ILE779  LEU786  VAL792 
 PHE793  MET794  SER795  GLU796  ALA797  LYS798  CYS799  TRP800  GLU811  SER814 

> <Gold.Protein.RotatedAtoms>
  151.6780  133.3312  159.3212 H   0  0  0  0  0  0  0  0  0  0  0  0  # atno 6907 bound_to 6896
  150.7836  134.6805  159.6451 H   0  0  0  0  0  0  0  0  0  0  0  0  # atno 6908 bound_to 6896
  152.3900  134.6459  160.0163 H   0  0  0  0  0  0  0  0  0  0  0  0  # atno 6909 bound_to 6896
  145.6367  139.2416  143.2054 H   0  0  0  0  0  0  0  0  0  0  0  0  # atno 7974 bound_to 7965
  155.8681  140.0989  157.1569 H   0  0  0  0  0  0  0  0  0  0  0  0  # atno 8008 bound_to 7997
  154.3995  140.1352  156.4107 H   0  0  0  0  0  0  0  0  0  0  0  0  # atno 8009 bound_to 7997
  155.7781  140.3459  155.5285 H   0  0  0  0  0  0  0  0  0  0  0  0  # atno 8010 bound_to 7997
  140.5846  143.8915  150.6819 H   0  0  0  0  0  0  0  0  0  0  0  0  # atno 10167 bound_to 10162
  157.0228  131.0237  151.2769 H   0  0  0  0  0  0  0  0  0  0  0  0  # atno 10718 bound_to 10713
  153.0401  135.6476  154.0967 H   0  0  0  0  0  0  0  0  0  0  0  0  # atno 10763 bound_to 10752
  154.0675  135.2883  155.3315 H   0  0  0  0  0  0  0  0  0  0  0  0  # atno 10764 bound_to 10752
  154.6616  135.5389  153.8090 H   0  0  0  0  0  0  0  0  0  0  0  0  # atno 10765 bound_to 10752
  141.1459  133.7983  157.0351 H   0  0  0  0  0  0  0  0  0  0  0  0  # atno 11005 bound_to 11000
  146.1314  140.7180  142.9410 LP  0  0  0  0  0  0  0  0  0  0  0  0  # atno 17320 bound_to 7965
  144.7173  140.4253  143.7035 LP  0  0  0  0  0  0  0  0  0  0  0  0  # atno 17321 bound_to 7965
  140.2422  143.3655  152.1476 LP  0  0  0  0  0  0  0  0  0  0  0  0  # atno 17342 bound_to 10162
  139.5190  144.7013  151.5484 LP  0  0  0  0  0  0  0  0  0  0  0  0  # atno 17343 bound_to 10162
  157.5236  130.8014  149.7837 LP  0  0  0  0  0  0  0  0  0  0  0  0  # atno 17370 bound_to 10713
  156.0096  130.3839  150.2310 LP  0  0  0  0  0  0  0  0  0  0  0  0  # atno 17371 bound_to 10713
  140.0729  134.9692  157.1497 LP  0  0  0  0  0  0  0  0  0  0  0  0  # atno 17394 bound_to 11000
  140.3685  134.2416  155.7180 LP  0  0  0  0  0  0  0  0  0  0  0  0  # atno 17395 bound_to 11000

$$$$
