AV-unprocessed.smi:3173|AV-procd|sdf|12119|dock7
  -GOLD-   2272017553D 1   1.00000     0.00000
 Structure written by MMmdl.
 36 37  0  0  0  0  0  0  0  0  2 V2000
  150.7321  142.0925  159.0736 O   0  0  0  0  0  0  0  0  0  0  0  0
  150.6167  143.0048  158.2548 C   0  0  0  0  0  0  0  0  0  0  0  0
  151.3592  144.3297  158.4595 C   0  0  0  0  0  0  0  0  0  0  0  0
  152.3794  144.2831  159.6161 C   0  0  2  0  0  0  0  0  0  0  0  0
  153.2892  143.0850  159.5291 C   0  0  0  0  0  0  0  0  0  0  0  0
  153.3467  142.3981  160.6681 C   0  0  0  0  0  0  0  0  0  0  0  0
  152.4860  142.9973  161.7452 C   0  0  0  0  0  0  0  0  0  0  0  0
  151.7463  144.1476  161.0274 C   0  0  0  0  0  0  0  0  0  0  0  0
  149.8589  142.9093  157.1514 N   0  0  0  0  0  0  0  0  0  0  0  0
  149.0997  141.7273  156.7604 C   0  0  0  0  0  0  0  0  0  0  0  0
  149.3282  141.3752  155.2808 C   0  0  0  0  0  0  0  0  0  0  0  0
  150.2970  140.2220  155.1067 C   0  0  0  0  0  0  0  0  0  0  0  0
  151.5817  140.2287  155.6922 C   0  0  0  0  0  0  0  0  0  0  0  0
  152.4341  139.1222  155.4964 C   0  0  0  0  0  0  0  0  0  0  0  0
  151.9846  138.0334  154.7207 C   0  0  0  0  0  0  0  0  0  0  0  0
  150.6913  138.0783  154.1609 C   0  0  0  0  0  0  0  0  0  0  0  0
  149.9038  139.1559  154.3721 N   0  3  0  0  0  0  0  0  0  0  0  0
  151.8645  144.6142  157.5349 H   0  0  0  0  0  0  0  0  0  0  0  0
  150.6159  145.1034  158.6551 H   0  0  0  0  0  0  0  0  0  0  0  0
  153.0194  145.1661  159.5822 H   0  0  0  0  0  0  0  0  0  0  0  0
  153.8378  142.8437  158.6306 H   0  0  0  0  0  0  0  0  0  0  0  0
  153.9470  141.5158  160.8343 H   0  0  0  0  0  0  0  0  0  0  0  0
  151.7939  142.2563  162.1468 H   0  0  0  0  0  0  0  0  0  0  0  0
  153.1142  143.3657  162.5567 H   0  0  0  0  0  0  0  0  0  0  0  0
  151.8153  145.0811  161.5871 H   0  0  0  0  0  0  0  0  0  0  0  0
  150.6868  143.8984  160.9527 H   0  0  0  0  0  0  0  0  0  0  0  0
  149.8143  143.7087  156.5356 H   0  0  0  0  0  0  0  0  0  0  0  0
  149.3683  140.8846  157.4000 H   0  0  0  0  0  0  0  0  0  0  0  0
  148.0430  141.9279  156.9387 H   0  0  0  0  0  0  0  0  0  0  0  0
  148.3802  141.1176  154.8065 H   0  0  0  0  0  0  0  0  0  0  0  0
  149.7146  142.2411  154.7415 H   0  0  0  0  0  0  0  0  0  0  0  0
  151.9103  141.0698  156.2855 H   0  0  0  0  0  0  0  0  0  0  0  0
  153.4207  139.1090  155.9364 H   0  0  0  0  0  0  0  0  0  0  0  0
  152.6225  137.1769  154.5581 H   0  0  0  0  0  0  0  0  0  0  0  0
  150.2660  137.2909  153.5558 H   0  0  0  0  0  0  0  0  0  0  0  0
  148.9717  139.1663  153.9574 H   0  0  0  0  0  0  0  0  0  0  0  0
  1  2  2  0  0  0  0
  2  3  1  0  0  0  0
  2  9  1  0  0  0  0
  3  4  1  0  0  0  0
  3 18  1  0  0  0  0
  3 19  1  0  0  0  0
  4  8  1  0  0  0  0
  4  5  1  0  0  0  0
  4 20  1  0  0  0  0
  5  6  2  0  0  0  0
  5 21  1  0  0  0  0
  6  7  1  0  0  0  0
  6 22  1  0  0  0  0
  7  8  1  0  0  0  0
  7 23  1  0  0  0  0
  7 24  1  0  0  0  0
  8 25  1  0  0  0  0
  8 26  1  0  0  0  0
  9 10  1  0  0  0  0
  9 27  1  0  0  0  0
 10 11  1  0  0  0  0
 10 28  1  0  0  0  0
 10 29  1  0  0  0  0
 11 12  1  0  0  0  0
 11 30  1  0  0  0  0
 11 31  1  0  0  0  0
 12 17  1  0  0  0  0
 12 13  2  0  0  0  0
 13 14  1  0  0  0  0
 13 32  1  0  0  0  0
 14 15  2  0  0  0  0
 14 33  1  0  0  0  0
 15 16  1  0  0  0  0
 15 34  1  0  0  0  0
 16 17  2  0  0  0  0
 16 35  1  0  0  0  0
 17 36  1  0  0  0  0
M  CHG  1  17   1
M  END
> <s_m_source_file>
AV-unprocessed.smi

> <i_m_source_file_index>
3173

> <i_lp_mmshare_version>
43012

> <i_f3d_flags>
0

> <s_epik_input>
W0NIMl0xW0NIMl1bQ0hdPVtDSF1bQ0BIXTFbQ0gyXUMoPU8pW05IXVtDSDJdW0NIMl1jMltjSF1bY0hdW2NIXVtjSF1uMg==

> <s_epik_cmdline>
J2VwaWtfcHl0aG9uJywgJy1waCcsICc3LjAnLCAnLXRuJywgJzgnLCAnLW1hJywgJzIwMCcsICctbWV0YWxfYmluZGluZycsICctaW1hZScsICc8aW5maWxlLm1hZT4nLCAnLW9tYWUnLCAnPG91dGZpbGUubWFlPic=

> <r_epik_Ionization_Penalty>
1.86798

> <r_epik_Ionization_Penalty_Charging>
1.86798

> <r_epik_Ionization_Penalty_Neutral>
1.53848e-08

> <r_epik_State_Penalty>
1.98677

> <r_epik_Charging_Adjusted_Penalty>
3.85475

> <i_epik_Tot_Q>
1

> <i_epik_Tot_abs_Q>
1

> <r_epik_Metal_State_Penalty>
2.01174

> <b_epik_Metal_Only>
0

> <s_lp_Force_Field>
OPLS_2005

> <r_lp_Energy>
19.7802

> <b_lp_Chiralities_Consistent>
1

> <s_lp_Variant>
AV-unprocessed.smi:3173-3

> <Gold.Version>
5.8.1

> <Gold.Id.Protein>
6NUR|6NUR_protein|mol2

> <Gold.PLP.Fitness>
48.4026

> <Gold.PLP.PLP>
-46.4273

> <Gold.PLP.part.hbond>
-1.6249

> <Gold.PLP.part.metal>
0.0000

> <Gold.PLP.part.buried>
-2.6634

> <Gold.PLP.part.nonpolar>
-41.8109

> <Gold.PLP.part.repulsive>
0.1089

> <Gold.PLP.ligand.clash>
0.0000

> <Gold.PLP.ligand.torsion>
0.5264

> <Gold.PLP.Chemscore.Hbond>
1.0000

> <Gold.PLP.Chemscore.CHOScore>
0.0000

> <Gold.PLP.Chemscore.Metal>
0.0000

> <Gold.Chemscore.Hbonds>
donor molecule, donor type, donor heavy atom, donor atom, acceptor molecule, acceptor atom, score
      L1  H     9    27       P1  8028  0.96

> <Gold.PLP.Chemscore.Internal.Correction>
0.0282

> <Gold.Rescore>
     Score         DG    S(hbond)    S(metal)    S(lipo)     H(rot)  DE(clash)    DE(int)     intcor
     15.99     -19.01       0.94        0.00     124.02       1.61       0.03       2.99       ----

> <Gold.Chemscore.Fitness>
15.9919

> <Gold.Chemscore.DG>
-19.0069

> <Gold.Chemscore.ZeroCoef>
-5.4800

> <Gold.Chemscore.Hbond>
0.9411

> <Gold.Chemscore.Metal>
0.0000

> <Gold.Chemscore.Lipo>
124.0242

> <Gold.Chemscore.Internal_Hbond>
0.0000

> <Gold.Chemscore.DEClash>
0.0290

> <Gold.Chemscore.DEInternal>
2.9860

> <Gold.Chemscore.Rot>
1.6122

> <Gold.Chemscore.Internal.Correction>
   9.000000E+99

> <Gold.Chemscore.Hbonds>
donor molecule, donor type, donor heavy atom, donor atom, acceptor molecule, acceptor atom, score
      L1  H     9    27       P1  8028  0.91

> <Gold.Chemscore.Hbond.Weighted>
-3.1432

> <Gold.Chemscore.Metal.Weighted>
-0.0000

> <Gold.Chemscore.Lipo.Weighted>
-14.5108

> <Gold.Chemscore.Internal_Hbond.Weighted>
0.0000

> <Gold.Chemscore.DEClash.Weighted>
0.0290

> <Gold.Chemscore.DEInternal.Weighted>
2.9860

> <Gold.Chemscore.Rot.Weighted>
4.1271

> <Gold.Chemscore.Internal.Correction.Weighted>
   9.000000E+99

> <Gold.Protein.RotatedTorsions>
[ 6907 6896 6895 6894 ] final   62.58 input  -60.11 | X-H torsion
[ 7974 7965 7964 7962 ] final   42.95 input  175.53 | X-H torsion
[ 8008 7997 7996 7995 ] final   -2.42 input   59.86 | X-H torsion
[ 10167 10162 10161 10158 ] final -157.96 input  -65.29 | X-H torsion
[ 10718 10713 10712 10709 ] final  -23.93 input   66.30 | X-H torsion
[ 10763 10752 10751 10750 ] final  -82.75 input  -60.55 | X-H torsion
[ 11005 11000 10999 10996 ] final  129.47 input  -57.11 | X-H torsion

> <Gold.Protein.ActiveResidues>
 VAL166  LYS551  ARG553  GLY616  TRP617  ASP618  TYR619  PRO620  LYS621  CYS622 
 ASP623  PHE694  ASN695  SER759  ASP760  ASP761  ALA762  ILE779  LEU786  VAL792 
 PHE793  MET794  SER795  GLU796  ALA797  LYS798  CYS799  TRP800  GLU811  SER814 

> <Gold.Protein.RotatedAtoms>
  152.4183  134.6001  159.9997 H   0  0  0  0  0  0  0  0  0  0  0  0  # atno 6907 bound_to 6896
  151.6158  133.3337  159.3085 H   0  0  0  0  0  0  0  0  0  0  0  0  # atno 6908 bound_to 6896
  150.8071  134.7242  159.6720 H   0  0  0  0  0  0  0  0  0  0  0  0  # atno 6909 bound_to 6896
  146.0697  139.5242  142.9605 H   0  0  0  0  0  0  0  0  0  0  0  0  # atno 7974 bound_to 7965
  154.6359  140.2535  155.7379 H   0  0  0  0  0  0  0  0  0  0  0  0  # atno 8008 bound_to 7997
  156.2504  140.2897  156.0651 H   0  0  0  0  0  0  0  0  0  0  0  0  # atno 8009 bound_to 7997
  155.1672  140.0385  157.2845 H   0  0  0  0  0  0  0  0  0  0  0  0  # atno 8010 bound_to 7997
  139.6729  143.9713  152.2294 H   0  0  0  0  0  0  0  0  0  0  0  0  # atno 10167 bound_to 10162
  156.4845  130.4552  149.6792 H   0  0  0  0  0  0  0  0  0  0  0  0  # atno 10718 bound_to 10713
  154.5795  135.5580  153.7171 H   0  0  0  0  0  0  0  0  0  0  0  0  # atno 10763 bound_to 10752
  153.0076  135.6316  154.2002 H   0  0  0  0  0  0  0  0  0  0  0  0  # atno 10764 bound_to 10752
  154.1943  135.2881  155.2991 H   0  0  0  0  0  0  0  0  0  0  0  0  # atno 10765 bound_to 10752
  139.9617  134.9600  156.9153 H   0  0  0  0  0  0  0  0  0  0  0  0  # atno 11005 bound_to 11000
  145.6413  141.0283  143.1810 LP  0  0  0  0  0  0  0  0  0  0  0  0  # atno 17320 bound_to 7965
  144.7224  139.7986  143.7377 LP  0  0  0  0  0  0  0  0  0  0  0  0  # atno 17321 bound_to 7965
  139.9483  144.6637  150.8198 LP  0  0  0  0  0  0  0  0  0  0  0  0  # atno 17342 bound_to 10162
  140.7625  143.3199  151.2646 LP  0  0  0  0  0  0  0  0  0  0  0  0  # atno 17343 bound_to 10162
  156.3489  130.7421  151.2378 LP  0  0  0  0  0  0  0  0  0  0  0  0  # atno 17370 bound_to 10713
  157.7480  131.0383  150.4495 LP  0  0  0  0  0  0  0  0  0  0  0  0  # atno 17371 bound_to 10713
  140.5485  134.0650  155.7362 LP  0  0  0  0  0  0  0  0  0  0  0  0  # atno 17394 bound_to 11000
  141.1295  133.9326  157.2566 LP  0  0  0  0  0  0  0  0  0  0  0  0  # atno 17395 bound_to 11000

$$$$
