AV-unprocessed.smi:907|AV-procd|sdf|4110|dock1
  -GOLD-   22720 2 03D 1   1.00000     0.00000
 Structure written by MMmdl.
 54 57  0  0  0  0  0  0  0  0  3 V2000
  147.8363  141.7358  154.4725 O   0  0  0  0  0  0  0  0  0  0  0  0
  148.6001  140.7919  154.6785 C   0  0  0  0  0  0  0  0  0  0  0  0
  149.5780  140.8527  155.5990 N   0  0  0  0  0  0  0  0  0  0  0  0
  149.8335  141.9949  156.4695 C   0  0  0  0  0  0  0  0  0  0  0  0
  151.0035  141.7255  157.4309 C   0  0  0  0  0  0  0  0  0  0  0  0
  151.3332  142.9343  158.2844 C   0  0  0  0  0  0  0  0  0  0  0  0
  152.2253  142.8560  159.3758 C   0  0  0  0  0  0  0  0  0  0  0  0
  152.4980  144.0175  160.1280 C   0  0  0  0  0  0  0  0  0  0  0  0
  151.8746  145.2317  159.7725 C   0  0  0  0  0  0  0  0  0  0  0  0
  150.9946  145.2537  158.6711 C   0  0  0  0  0  0  0  0  0  0  0  0
  150.7589  144.1195  157.9749 N   0  3  0  0  0  0  0  0  0  0  0  0
  148.5697  139.6441  153.9568 N   0  0  0  0  0  0  0  0  0  0  0  0
  148.9224  138.3052  154.4467 C   0  0  0  0  0  0  0  0  0  0  0  0
  147.6295  137.4978  154.6682 C   0  0  0  0  0  0  0  0  0  0  0  0
  146.7960  137.4349  153.4327 N   0  3  0  0  0  0  0  0  0  0  0  0
  145.5394  136.6561  153.6288 C   0  0  2  0  0  0  0  0  0  0  0  0
  145.7590  135.1543  153.9363 C   0  0  0  0  0  0  0  0  0  0  0  0
  144.8150  134.4517  152.9420 C   0  0  2  0  0  0  0  0  0  0  0  0
  145.4463  134.5046  151.5405 C   0  0  0  0  0  0  0  0  0  0  0  0
  145.3075  135.9914  151.1686 C   0  0  0  0  0  0  0  0  0  0  0  0
  144.5966  136.5936  152.4008 C   0  0  1  0  0  0  0  0  0  0  0  0
  143.6719  135.4506  152.8057 C   0  0  0  0  0  0  0  0  0  0  0  0
  146.5647  138.7851  152.8434 C   0  0  0  0  0  0  0  0  0  0  0  0
  147.8830  139.5592  152.6661 C   0  0  0  0  0  0  0  0  0  0  0  0
  150.1868  140.0534  155.7000 H   0  0  0  0  0  0  0  0  0  0  0  0
  150.0346  142.8807  155.8643 H   0  0  0  0  0  0  0  0  0  0  0  0
  148.9251  142.2060  157.0345 H   0  0  0  0  0  0  0  0  0  0  0  0
  150.7685  140.8818  158.0815 H   0  0  0  0  0  0  0  0  0  0  0  0
  151.8964  141.4412  156.8723 H   0  0  0  0  0  0  0  0  0  0  0  0
  152.6973  141.9187  159.6332 H   0  0  0  0  0  0  0  0  0  0  0  0
  153.1780  143.9773  160.9663 H   0  0  0  0  0  0  0  0  0  0  0  0
  152.0702  146.1326  160.3358 H   0  0  0  0  0  0  0  0  0  0  0  0
  150.4763  146.1374  158.3286 H   0  0  0  0  0  0  0  0  0  0  0  0
  149.5489  137.8080  153.7046 H   0  0  0  0  0  0  0  0  0  0  0  0
  149.5092  138.3121  155.3653 H   0  0  0  0  0  0  0  0  0  0  0  0
  147.8945  136.4959  155.0036 H   0  0  0  0  0  0  0  0  0  0  0  0
  147.0473  137.9528  155.4714 H   0  0  0  0  0  0  0  0  0  0  0  0
  144.9913  137.1099  154.4570 H   0  0  0  0  0  0  0  0  0  0  0  0
  146.7884  134.8240  153.7929 H   0  0  0  0  0  0  0  0  0  0  0  0
  145.4802  134.9317  154.9672 H   0  0  0  0  0  0  0  0  0  0  0  0
  144.5190  133.4484  153.2498 H   0  0  0  0  0  0  0  0  0  0  0  0
  146.4837  134.1676  151.5363 H   0  0  0  0  0  0  0  0  0  0  0  0
  144.8903  133.8801  150.8400 H   0  0  0  0  0  0  0  0  0  0  0  0
  146.2700  136.4586  150.9602 H   0  0  0  0  0  0  0  0  0  0  0  0
  144.6891  136.1020  150.2769 H   0  0  0  0  0  0  0  0  0  0  0  0
  144.0764  137.5294  152.1942 H   0  0  0  0  0  0  0  0  0  0  0  0
  142.9513  135.1809  152.0314 H   0  0  0  0  0  0  0  0  0  0  0  0
  143.1396  135.6302  153.7417 H   0  0  0  0  0  0  0  0  0  0  0  0
  146.0822  138.7000  151.8704 H   0  0  0  0  0  0  0  0  0  0  0  0
  145.8868  139.3494  153.4862 H   0  0  0  0  0  0  0  0  0  0  0  0
  147.6854  140.5393  152.2296 H   0  0  0  0  0  0  0  0  0  0  0  0
  148.5261  139.0447  151.9504 H   0  0  0  0  0  0  0  0  0  0  0  0
  147.3403  136.9266  152.7505 H   0  0  0  0  0  0  0  0  0  0  0  0
  150.1188  144.1593  157.1817 H   0  0  0  0  0  0  0  0  0  0  0  0
  1  2  2  0  0  0  0
  2  3  1  0  0  0  0
  2 12  1  0  0  0  0
  3  4  1  0  0  0  0
  3 25  1  0  0  0  0
  4  5  1  0  0  0  0
  4 26  1  0  0  0  0
  4 27  1  0  0  0  0
  5  6  1  0  0  0  0
  5 28  1  0  0  0  0
  5 29  1  0  0  0  0
  6 11  1  0  0  0  0
  6  7  2  0  0  0  0
  7  8  1  0  0  0  0
  7 30  1  0  0  0  0
  8  9  2  0  0  0  0
  8 31  1  0  0  0  0
  9 10  1  0  0  0  0
  9 32  1  0  0  0  0
 10 11  2  0  0  0  0
 10 33  1  0  0  0  0
 11 54  1  0  0  0  0
 12 24  1  0  0  0  0
 12 13  1  0  0  0  0
 13 14  1  0  0  0  0
 13 34  1  0  0  0  0
 13 35  1  0  0  0  0
 14 15  1  0  0  0  0
 14 36  1  0  0  0  0
 14 37  1  0  0  0  0
 15 16  1  0  0  0  0
 15 23  1  0  0  0  0
 15 53  1  0  0  0  0
 16 21  1  0  0  0  0
 16 17  1  0  0  0  0
 16 38  1  0  0  0  0
 17 18  1  0  0  0  0
 17 39  1  0  0  0  0
 17 40  1  0  0  0  0
 18 22  1  0  0  0  0
 18 19  1  0  0  0  0
 18 41  1  0  0  0  0
 19 20  1  0  0  0  0
 19 42  1  0  0  0  0
 19 43  1  0  0  0  0
 20 21  1  0  0  0  0
 20 44  1  0  0  0  0
 20 45  1  0  0  0  0
 21 22  1  0  0  0  0
 21 46  1  0  0  0  0
 22 47  1  0  0  0  0
 22 48  1  0  0  0  0
 23 24  1  0  0  0  0
 23 49  1  0  0  0  0
 23 50  1  0  0  0  0
 24 51  1  0  0  0  0
 24 52  1  0  0  0  0
M  CHG  1  11   1
M  CHG  1  15   1
M  END
> <s_m_source_file>
AV-unprocessed.smi

> <i_m_source_file_index>
907

> <i_lp_mmshare_version>
43012

> <i_f3d_flags>
0

> <s_epik_input>
W0NIMl0xW0NIMl1bQ0BASF0oW0NIMl0yKVtDQEBIXShbQ0gyXVtDQEhdMTIpTihbQ0gyXVtDSDJdMylbQ0gyXVtDSDJdTjNDKD1PKVtOSF1bQ0gyXVtDSDJdYzRbY0hdW2NIXVtjSF1bY0hdbjQ=

> <s_epik_cmdline>
J2VwaWtfcHl0aG9uJywgJy1waCcsICc3LjAnLCAnLXRuJywgJzgnLCAnLW1hJywgJzIwMCcsICctbWV0YWxfYmluZGluZycsICctaW1hZScsICc8aW5maWxlLm1hZT4nLCAnLW9tYWUnLCAnPG91dGZpbGUubWFlPic=

> <r_epik_Ionization_Penalty>
1.63018

> <r_epik_Ionization_Penalty_Charging>
1.63015

> <r_epik_Ionization_Penalty_Neutral>
2.64641e-05

> <r_epik_State_Penalty>
1.72761

> <r_epik_Charging_Adjusted_Penalty>
3.35777

> <i_epik_Tot_Q>
2

> <i_epik_Tot_abs_Q>
2

> <r_epik_Metal_State_Penalty>
1.76501

> <b_epik_Metal_Only>
0

> <s_lp_Force_Field>
OPLS_2005

> <r_lp_Energy>
102.759

> <b_lp_Chiralities_Consistent>
1

> <s_lp_Variant>
AV-unprocessed.smi:907-5

> <Gold.Version>
5.8.1

> <Gold.Id.Protein>
6NUR|6NUR_protein|mol2

> <Gold.PLP.Fitness>
49.8590

> <Gold.PLP.PLP>
-38.6589

> <Gold.PLP.part.hbond>
-2.0000

> <Gold.PLP.part.metal>
0.0000

> <Gold.PLP.part.buried>
1.5065

> <Gold.PLP.part.nonpolar>
-38.5070

> <Gold.PLP.part.repulsive>
0.2864

> <Gold.PLP.ligand.clash>
0.0000

> <Gold.PLP.ligand.torsion>
0.4704

> <Gold.PLP.Chemscore.Hbond>
4.0000

> <Gold.PLP.Chemscore.CHOScore>
0.0000

> <Gold.PLP.Chemscore.Metal>
0.0000

> <Gold.Chemscore.Hbonds>
donor molecule, donor type, donor heavy atom, donor atom, acceptor molecule, acceptor atom, score
      L1  H    11    54       P1  8028  2.00
      L1  H    15    53       P1  7948  2.00

> <Gold.PLP.Chemscore.Internal.Correction>
0.1409

> <Gold.Rescore>
     Score         DG    S(hbond)    S(metal)    S(lipo)     H(rot)  DE(clash)    DE(int)     intcor
     18.72     -22.16       1.86        0.00     121.36       1.46       2.97       0.46       ----

> <Gold.Chemscore.Fitness>
18.7244

> <Gold.Chemscore.DG>
-22.1625

> <Gold.Chemscore.ZeroCoef>
-5.4800

> <Gold.Chemscore.Hbond>
1.8604

> <Gold.Chemscore.Metal>
0.0000

> <Gold.Chemscore.Lipo>
121.3619

> <Gold.Chemscore.Internal_Hbond>
0.0000

> <Gold.Chemscore.DEClash>
2.9739

> <Gold.Chemscore.DEInternal>
0.4641

> <Gold.Chemscore.Rot>
1.4572

> <Gold.Chemscore.Internal.Correction>
   9.000000E+99

> <Gold.Chemscore.Hbonds>
donor molecule, donor type, donor heavy atom, donor atom, acceptor molecule, acceptor atom, score
      L1  H    11    54       P1  8028  0.78
      L1  H    15    53       P1  7948  0.97

> <Gold.Chemscore.Hbond.Weighted>
-6.2137

> <Gold.Chemscore.Metal.Weighted>
-0.0000

> <Gold.Chemscore.Lipo.Weighted>
-14.1993

> <Gold.Chemscore.Internal_Hbond.Weighted>
0.0000

> <Gold.Chemscore.DEClash.Weighted>
2.9739

> <Gold.Chemscore.DEInternal.Weighted>
0.4641

> <Gold.Chemscore.Rot.Weighted>
3.7305

> <Gold.Chemscore.Internal.Correction.Weighted>
   9.000000E+99

> <Gold.Protein.RotatedTorsions>
[ 6907 6896 6895 6894 ] final   68.79 input  -60.11 | X-H torsion
[ 7974 7965 7964 7962 ] final  144.04 input  175.53 | X-H torsion
[ 8008 7997 7996 7995 ] final   33.26 input   59.86 | X-H torsion
[ 10167 10162 10161 10158 ] final   92.22 input  -65.29 | X-H torsion
[ 10718 10713 10712 10709 ] final  162.12 input   66.30 | X-H torsion
[ 10763 10752 10751 10750 ] final   62.56 input  -60.55 | X-H torsion
[ 11005 11000 10999 10996 ] final -104.17 input  -57.11 | X-H torsion

> <Gold.Protein.ActiveResidues>
 VAL166  LYS551  ARG553  GLY616  TRP617  ASP618  TYR619  PRO620  LYS621  CYS622 
 ASP623  PHE694  ASN695  SER759  ASP760  ASP761  ALA762  ILE779  LEU786  VAL792 
 PHE793  MET794  SER795  GLU796  ALA797  LYS798  CYS799  TRP800  GLU811  SER814 

> <Gold.Protein.RotatedAtoms>
  152.4644  134.5111  159.9753 H   0  0  0  0  0  0  0  0  0  0  0  0  # atno 6907 bound_to 6896
  151.5152  133.3471  159.2899 H   0  0  0  0  0  0  0  0  0  0  0  0  # atno 6908 bound_to 6896
  150.8621  134.8004  159.7153 H   0  0  0  0  0  0  0  0  0  0  0  0  # atno 6909 bound_to 6896
  144.8869  139.5615  143.5816 H   0  0  0  0  0  0  0  0  0  0  0  0  # atno 7974 bound_to 7965
  155.1357  140.3261  155.4463 H   0  0  0  0  0  0  0  0  0  0  0  0  # atno 8008 bound_to 7997
  156.2620  140.2002  156.6424 H   0  0  0  0  0  0  0  0  0  0  0  0  # atno 8009 bound_to 7997
  154.6579  140.0550  157.0016 H   0  0  0  0  0  0  0  0  0  0  0  0  # atno 8010 bound_to 7997
  139.8298  144.6692  150.9414 H   0  0  0  0  0  0  0  0  0  0  0  0  # atno 10167 bound_to 10162
  157.1269  131.0507  151.2389 H   0  0  0  0  0  0  0  0  0  0  0  0  # atno 10718 bound_to 10713
  152.9987  135.5461  154.6212 H   0  0  0  0  0  0  0  0  0  0  0  0  # atno 10763 bound_to 10752
  154.5511  135.2826  155.1010 H   0  0  0  0  0  0  0  0  0  0  0  0  # atno 10764 bound_to 10752
  154.2249  135.6444  153.5209 H   0  0  0  0  0  0  0  0  0  0  0  0  # atno 10765 bound_to 10752
  141.1112  133.8701  157.1578 H   0  0  0  0  0  0  0  0  0  0  0  0  # atno 11005 bound_to 11000
  146.3030  139.7487  142.9077 LP  0  0  0  0  0  0  0  0  0  0  0  0  # atno 17320 bound_to 7965
  145.3853  141.0364  143.3155 LP  0  0  0  0  0  0  0  0  0  0  0  0  # atno 17321 bound_to 7965
  140.7807  143.4012  151.1146 LP  0  0  0  0  0  0  0  0  0  0  0  0  # atno 17342 bound_to 10162
  139.7666  143.8555  152.3112 LP  0  0  0  0  0  0  0  0  0  0  0  0  # atno 17343 bound_to 10162
  157.4427  130.7553  149.7083 LP  0  0  0  0  0  0  0  0  0  0  0  0  # atno 17370 bound_to 10713
  155.9816  130.4018  150.3462 LP  0  0  0  0  0  0  0  0  0  0  0  0  # atno 17371 bound_to 10713
  140.0008  135.0028  157.0184 LP  0  0  0  0  0  0  0  0  0  0  0  0  # atno 17394 bound_to 11000
  140.4769  134.1329  155.7211 LP  0  0  0  0  0  0  0  0  0  0  0  0  # atno 17395 bound_to 11000

$$$$
