AV-unprocessed.smi:3254|AV-procd|sdf|12456|dock3
  -GOLD-   2272018353D 1   1.00000     0.00000
 Structure written by MMmdl.
 36 37  0  0  0  0  0  0  0  0  1 V2000
  152.5911  144.0033  159.6181 C   0  0  0  0  0  0  0  0  0  0  0  0
  152.9687  142.5399  159.3499 C   0  0  0  0  0  0  0  0  0  0  0  0
  152.1259  141.9446  158.3159 N   0  0  0  0  0  0  0  0  0  0  0  0
  151.0395  142.7020  157.7175 C   0  0  0  0  0  0  0  0  0  0  0  0
  150.2639  141.6969  156.8380 C   0  0  2  0  0  0  0  0  0  0  0  0
  148.8734  141.3762  157.4083 C   0  0  0  0  0  0  0  0  0  0  0  0
  148.6222  140.2478  157.8333 O   0  0  0  0  0  0  0  0  0  0  0  0
  147.9824  142.3796  157.4168 N   0  0  0  0  0  0  0  0  0  0  0  0
  146.6180  142.2802  157.9205 C   0  0  0  0  0  0  0  0  0  0  0  0
  146.1497  143.6018  158.5517 C   0  0  0  0  0  0  0  0  0  0  0  0
  146.3647  143.6108  159.9841 N   0  0  0  0  0  0  0  0  0  0  0  0
  145.7673  142.7824  160.9249 C   0  0  0  0  0  0  0  0  0  0  0  0
  146.2706  143.1545  162.1513 C   0  0  0  0  0  0  0  0  0  0  0  0
  147.1722  144.2039  161.9893 N   0  0  0  0  0  0  0  0  0  0  0  0
  147.1760  144.4189  160.6800 C   0  0  0  0  0  0  0  0  0  0  0  0
  151.1565  140.4411  156.7806 C   0  0  0  0  0  0  0  0  0  0  0  0
  152.2349  140.7084  157.8171 C   0  0  0  0  0  0  0  0  0  0  0  0
  153.0745  139.8681  158.1369 O   0  0  0  0  0  0  0  0  0  0  0  0
  153.2128  144.4238  160.4086 H   0  0  0  0  0  0  0  0  0  0  0  0
  151.5506  144.0895  159.9324 H   0  0  0  0  0  0  0  0  0  0  0  0
  152.7260  144.6201  158.7294 H   0  0  0  0  0  0  0  0  0  0  0  0
  154.0151  142.4728  159.0486 H   0  0  0  0  0  0  0  0  0  0  0  0
  152.8775  141.9638  160.2713 H   0  0  0  0  0  0  0  0  0  0  0  0
  150.4190  143.1596  158.4903 H   0  0  0  0  0  0  0  0  0  0  0  0
  151.4547  143.5074  157.1106 H   0  0  0  0  0  0  0  0  0  0  0  0
  150.1491  142.1086  155.8338 H   0  0  0  0  0  0  0  0  0  0  0  0
  148.2699  143.2748  157.0483 H   0  0  0  0  0  0  0  0  0  0  0  0
  145.9682  142.0155  157.0859 H   0  0  0  0  0  0  0  0  0  0  0  0
  146.5463  141.4635  158.6411 H   0  0  0  0  0  0  0  0  0  0  0  0
  146.6851  144.4488  158.1212 H   0  0  0  0  0  0  0  0  0  0  0  0
  145.0889  143.7642  158.3559 H   0  0  0  0  0  0  0  0  0  0  0  0
  145.0530  142.0195  160.6517 H   0  0  0  0  0  0  0  0  0  0  0  0
  146.0539  142.7515  163.1297 H   0  0  0  0  0  0  0  0  0  0  0  0
  147.7821  145.1835  160.2167 H   0  0  0  0  0  0  0  0  0  0  0  0
  150.6285  139.5139  157.0095 H   0  0  0  0  0  0  0  0  0  0  0  0
  151.6171  140.3317  155.7983 H   0  0  0  0  0  0  0  0  0  0  0  0
  1  2  1  0  0  0  0
  1 19  1  0  0  0  0
  1 20  1  0  0  0  0
  1 21  1  0  0  0  0
  2  3  1  0  0  0  0
  2 22  1  0  0  0  0
  2 23  1  0  0  0  0
  3 17  1  0  0  0  0
  3  4  1  0  0  0  0
  4  5  1  0  0  0  0
  4 24  1  0  0  0  0
  4 25  1  0  0  0  0
  5  6  1  0  0  0  0
  5 16  1  0  0  0  0
  5 26  1  0  0  0  0
  6  7  2  0  0  0  0
  6  8  1  0  0  0  0
  8  9  1  0  0  0  0
  8 27  1  0  0  0  0
  9 10  1  0  0  0  0
  9 28  1  0  0  0  0
  9 29  1  0  0  0  0
 10 11  1  0  0  0  0
 10 30  1  0  0  0  0
 10 31  1  0  0  0  0
 11 15  1  0  0  0  0
 11 12  1  0  0  0  0
 12 13  2  0  0  0  0
 12 32  1  0  0  0  0
 13 14  1  0  0  0  0
 13 33  1  0  0  0  0
 14 15  2  0  0  0  0
 15 34  1  0  0  0  0
 16 17  1  0  0  0  0
 16 35  1  0  0  0  0
 16 36  1  0  0  0  0
 17 18  2  0  0  0  0
M  END
> <s_m_source_file>
AV-unprocessed.smi

> <i_m_source_file_index>
3254

> <i_lp_mmshare_version>
43012

> <i_f3d_flags>
0

> <s_epik_input>
W0NIM11bQ0gyXU4xW0NIMl1bQ0BIXShbQ0gyXUMxPU8pQyg9TylbTkhdW0NIMl1bQ0gyXW4yW2NIXVtjSF1uW2NIXTI=

> <s_epik_cmdline>
J2VwaWtfcHl0aG9uJywgJy1waCcsICc3LjAnLCAnLXRuJywgJzgnLCAnLW1hJywgJzIwMCcsICctbWV0YWxfYmluZGluZycsICctaW1hZScsICc8aW5maWxlLm1hZT4nLCAnLW9tYWUnLCAnPG91dGZpbGUubWFlPic=

> <r_lp_tautomer_probability>
1

> <r_epik_Ionization_Penalty>
0.587394

> <r_epik_Ionization_Penalty_Charging>
0.587394

> <r_epik_Ionization_Penalty_Neutral>
3.11583e-08

> <r_epik_State_Penalty>
0.600671

> <r_epik_Charging_Adjusted_Penalty>
1.18807

> <i_epik_Tot_Q>
0

> <i_epik_Tot_abs_Q>
0

> <r_epik_Metal_State_Penalty>
0.297665

> <b_epik_Metal_Only>
0

> <s_lp_Force_Field>
OPLS_2005

> <r_lp_Energy>
13.3235

> <b_lp_Chiralities_Consistent>
1

> <s_lp_Variant>
AV-unprocessed.smi:3254-4

> <Gold.Version>
5.8.1

> <Gold.Id.Protein>
6NUR|6NUR_protein|mol2

> <Gold.PLP.Fitness>
40.6804

> <Gold.PLP.PLP>
-32.7050

> <Gold.PLP.part.hbond>
-2.2401

> <Gold.PLP.part.metal>
0.0000

> <Gold.PLP.part.buried>
-4.9073

> <Gold.PLP.part.nonpolar>
-24.5406

> <Gold.PLP.part.repulsive>
0.1840

> <Gold.PLP.ligand.clash>
0.0000

> <Gold.PLP.ligand.torsion>
0.5078

> <Gold.PLP.Chemscore.Hbond>
1.9920

> <Gold.PLP.Chemscore.CHOScore>
1.0000

> <Gold.PLP.Chemscore.Metal>
0.0000

> <Gold.Chemscore.Hbonds>
donor molecule, donor type, donor heavy atom, donor atom, acceptor molecule, acceptor atom, score
      L1  H     8    27       P1  8028  0.70
      P1  H  7997  8008       L1    18  1.00

> <Gold.PLP.Chemscore.Internal.Correction>
0.0149

> <Gold.Rescore>
     Score         DG    S(hbond)    S(metal)    S(lipo)     H(rot)  DE(clash)    DE(int)     intcor
      9.73     -10.69       1.15        0.00      59.72       2.20       0.25       0.72       ----

> <Gold.Chemscore.Fitness>
9.7272

> <Gold.Chemscore.DG>
-10.6938

> <Gold.Chemscore.ZeroCoef>
-5.4800

> <Gold.Chemscore.Hbond>
1.1515

> <Gold.Chemscore.Metal>
0.0000

> <Gold.Chemscore.Lipo>
59.7213

> <Gold.Chemscore.Internal_Hbond>
0.0000

> <Gold.Chemscore.DEClash>
0.2477

> <Gold.Chemscore.DEInternal>
0.7189

> <Gold.Chemscore.Rot>
2.1952

> <Gold.Chemscore.Internal.Correction>
   9.000000E+99

> <Gold.Chemscore.Hbonds>
donor molecule, donor type, donor heavy atom, donor atom, acceptor molecule, acceptor atom, score
      L1  H     8    27       P1  8028  0.10
      P1  H  7997  8008       L1    18  0.69

> <Gold.Chemscore.Hbond.Weighted>
-3.8461

> <Gold.Chemscore.Metal.Weighted>
-0.0000

> <Gold.Chemscore.Lipo.Weighted>
-6.9874

> <Gold.Chemscore.Internal_Hbond.Weighted>
0.0000

> <Gold.Chemscore.DEClash.Weighted>
0.2477

> <Gold.Chemscore.DEInternal.Weighted>
0.7189

> <Gold.Chemscore.Rot.Weighted>
5.6197

> <Gold.Chemscore.Internal.Correction.Weighted>
   9.000000E+99

> <Gold.Protein.RotatedTorsions>
[ 6907 6896 6895 6894 ] final    7.40 input  -60.11 | X-H torsion
[ 7974 7965 7964 7962 ] final   -0.06 input  175.53 | X-H torsion
[ 8008 7997 7996 7995 ] final  -86.36 input   59.86 | X-H torsion
[ 10167 10162 10161 10158 ] final -107.99 input  -65.29 | X-H torsion
[ 10718 10713 10712 10709 ] final -147.54 input   66.30 | X-H torsion
[ 10763 10752 10751 10750 ] final  -57.25 input  -60.55 | X-H torsion
[ 11005 11000 10999 10996 ] final  -57.14 input  -57.11 | X-H torsion

> <Gold.Protein.ActiveResidues>
 VAL166  LYS551  ARG553  GLY616  TRP617  ASP618  TYR619  PRO620  LYS621  CYS622 
 ASP623  PHE694  ASN695  SER759  ASP760  ASP761  ALA762  ILE779  LEU786  VAL792 
 PHE793  MET794  SER795  GLU796  ALA797  LYS798  CYS799  TRP800  GLU811  SER814 

> <Gold.Protein.RotatedAtoms>
  151.6892  135.0949  160.0230 H   0  0  0  0  0  0  0  0  0  0  0  0  # atno 6907 bound_to 6896
  152.3789  133.6514  159.6154 H   0  0  0  0  0  0  0  0  0  0  0  0  # atno 6908 bound_to 6896
  150.7731  133.9064  159.3398 H   0  0  0  0  0  0  0  0  0  0  0  0  # atno 6909 bound_to 6896
  146.2430  140.1212  142.8340 H   0  0  0  0  0  0  0  0  0  0  0  0  # atno 7974 bound_to 7965
  154.6510  140.0579  156.9955 H   0  0  0  0  0  0  0  0  0  0  0  0  # atno 8008 bound_to 7997
  155.1371  140.3262  155.4442 H   0  0  0  0  0  0  0  0  0  0  0  0  # atno 8009 bound_to 7997
  156.2576  140.1970  156.6488 H   0  0  0  0  0  0  0  0  0  0  0  0  # atno 8010 bound_to 7997
  140.1710  143.4042  152.1354 H   0  0  0  0  0  0  0  0  0  0  0  0  # atno 10167 bound_to 10162
  156.4088  130.7971  151.2187 H   0  0  0  0  0  0  0  0  0  0  0  0  # atno 10718 bound_to 10713
  154.2194  135.6380  153.5140 H   0  0  0  0  0  0  0  0  0  0  0  0  # atno 10763 bound_to 10752
  152.9972  135.5493  154.6130 H   0  0  0  0  0  0  0  0  0  0  0  0  # atno 10764 bound_to 10752
  154.5586  135.2907  155.0914 H   0  0  0  0  0  0  0  0  0  0  0  0  # atno 10765 bound_to 10752
  141.1152  133.6610  156.4725 H   0  0  0  0  0  0  0  0  0  0  0  0  # atno 11005 bound_to 11000
  145.0404  140.8941  143.5056 LP  0  0  0  0  0  0  0  0  0  0  0  0  # atno 17320 bound_to 7965
  145.1292  139.2643  143.5548 LP  0  0  0  0  0  0  0  0  0  0  0  0  # atno 17321 bound_to 7965
  139.5338  144.7187  151.4964 LP  0  0  0  0  0  0  0  0  0  0  0  0  # atno 17342 bound_to 10162
  140.6582  143.8555  150.6858 LP  0  0  0  0  0  0  0  0  0  0  0  0  # atno 17343 bound_to 10162
  157.7506  131.0264  150.3960 LP  0  0  0  0  0  0  0  0  0  0  0  0  # atno 17370 bound_to 10713
  156.4254  130.3961  149.6796 LP  0  0  0  0  0  0  0  0  0  0  0  0  # atno 17371 bound_to 10713
  140.4667  134.6791  157.5110 LP  0  0  0  0  0  0  0  0  0  0  0  0  # atno 17394 bound_to 11000
  140.0069  134.6750  155.9441 LP  0  0  0  0  0  0  0  0  0  0  0  0  # atno 17395 bound_to 11000

$$$$
