AV-unprocessed.smi:1956|AV-procd|sdf|7900|dock10
  -GOLD-   2272010 53D 1   1.00000     0.00000
 Structure written by MMmdl.
 46 47  0  0  0  0  0  0  0  0  2 V2000
  152.1638  141.0625  158.7177 C   0  0  0  0  0  0  0  0  0  0  0  0
  152.7197  140.3286  157.6323 O   0  0  0  0  0  0  0  0  0  0  0  0
  151.8604  139.7970  156.6928 C   0  0  0  0  0  0  0  0  0  0  0  0
  152.4068  139.0879  155.6052 C   0  0  0  0  0  0  0  0  0  0  0  0
  151.5384  138.5439  154.6399 C   0  0  0  0  0  0  0  0  0  0  0  0
  150.1424  138.7204  154.7971 C   0  0  0  0  0  0  0  0  0  0  0  0
  149.1594  138.2407  153.8882 N   0  0  0  0  0  0  0  0  0  0  0  0
  147.9280  138.7210  153.6447 C   0  0  0  0  0  0  0  0  0  0  0  0
  147.4414  139.7319  154.1489 O   0  0  0  0  0  0  0  0  0  0  0  0
  147.2742  137.9538  152.7608 N   0  0  0  0  0  0  0  0  0  0  0  0
  145.9169  138.1993  152.2776 C   0  0  0  0  0  0  0  0  0  0  0  0
  145.4617  137.1888  151.2014 C   0  0  0  0  0  0  0  0  0  0  0  0
  145.8713  135.7923  151.5002 N   0  3  1  0  0  0  0  0  0  0  0  0
  145.6574  135.4313  152.9245 C   0  0  0  0  0  0  0  0  0  0  0  0
  146.2295  134.0385  153.2307 C   0  0  0  0  0  0  0  0  0  0  0  0
  145.6204  132.9802  152.3026 C   0  0  0  0  0  0  0  0  0  0  0  0
  145.8192  133.3809  150.8307 C   0  0  1  0  0  0  0  0  0  0  0  0
  145.1871  132.3534  149.8812 C   0  0  0  0  0  0  0  0  0  0  0  0
  145.2603  134.7962  150.5810 C   0  0  0  0  0  0  0  0  0  0  0  0
  149.6985  139.4539  155.9171 C   0  0  0  0  0  0  0  0  0  0  0  0
  150.5255  139.9790  156.8452 N   0  0  0  0  0  0  0  0  0  0  0  0
  152.9672  141.4083  159.3679 H   0  0  0  0  0  0  0  0  0  0  0  0
  151.4959  140.4436  159.3184 H   0  0  0  0  0  0  0  0  0  0  0  0
  151.6200  141.9412  158.3676 H   0  0  0  0  0  0  0  0  0  0  0  0
  153.4760  138.9678  155.5099 H   0  0  0  0  0  0  0  0  0  0  0  0
  151.9651  138.0190  153.8002 H   0  0  0  0  0  0  0  0  0  0  0  0
  149.4416  137.4444  153.3353 H   0  0  0  0  0  0  0  0  0  0  0  0
  147.7547  137.1501  152.3824 H   0  0  0  0  0  0  0  0  0  0  0  0
  145.2199  138.1911  153.1169 H   0  0  0  0  0  0  0  0  0  0  0  0
  145.8878  139.2116  151.8750 H   0  0  0  0  0  0  0  0  0  0  0  0
  144.3735  137.2316  151.1409 H   0  0  0  0  0  0  0  0  0  0  0  0
  145.8268  137.4856  150.2173 H   0  0  0  0  0  0  0  0  0  0  0  0
  146.1434  136.1651  153.5686 H   0  0  0  0  0  0  0  0  0  0  0  0
  144.5910  135.4622  153.1539 H   0  0  0  0  0  0  0  0  0  0  0  0
  147.3137  134.0530  153.1109 H   0  0  0  0  0  0  0  0  0  0  0  0
  146.0366  133.7764  154.2713 H   0  0  0  0  0  0  0  0  0  0  0  0
  146.0781  132.0094  152.4962 H   0  0  0  0  0  0  0  0  0  0  0  0
  144.5565  132.8722  152.5194 H   0  0  0  0  0  0  0  0  0  0  0  0
  146.8910  133.4013  150.6275 H   0  0  0  0  0  0  0  0  0  0  0  0
  144.1101  132.2804  150.0361 H   0  0  0  0  0  0  0  0  0  0  0  0
  145.6132  131.3617  150.0356 H   0  0  0  0  0  0  0  0  0  0  0  0
  145.3553  132.6251  148.8386 H   0  0  0  0  0  0  0  0  0  0  0  0
  144.1762  134.8025  150.7076 H   0  0  0  0  0  0  0  0  0  0  0  0
  145.4584  135.0789  149.5472 H   0  0  0  0  0  0  0  0  0  0  0  0
  148.6438  139.6252  156.0769 H   0  0  0  0  0  0  0  0  0  0  0  0
  146.8699  135.7555  151.3522 H   0  0  0  0  0  0  0  0  0  0  0  0
  1  2  1  0  0  0  0
  1 22  1  0  0  0  0
  1 23  1  0  0  0  0
  1 24  1  0  0  0  0
  2  3  1  0  0  0  0
  3 21  1  0  0  0  0
  3  4  2  0  0  0  0
  4  5  1  0  0  0  0
  4 25  1  0  0  0  0
  5  6  2  0  0  0  0
  5 26  1  0  0  0  0
  6  7  1  0  0  0  0
  6 20  1  0  0  0  0
  7  8  1  0  0  0  0
  7 27  1  0  0  0  0
  8  9  2  0  0  0  0
  8 10  1  0  0  0  0
 10 11  1  0  0  0  0
 10 28  1  0  0  0  0
 11 12  1  0  0  0  0
 11 29  1  0  0  0  0
 11 30  1  0  0  0  0
 12 13  1  0  0  0  0
 12 31  1  0  0  0  0
 12 32  1  0  0  0  0
 13 19  1  0  0  0  0
 13 14  1  0  0  0  0
 13 46  1  0  0  0  0
 14 15  1  0  0  0  0
 14 33  1  0  0  0  0
 14 34  1  0  0  0  0
 15 16  1  0  0  0  0
 15 35  1  0  0  0  0
 15 36  1  0  0  0  0
 16 17  1  0  0  0  0
 16 37  1  0  0  0  0
 16 38  1  0  0  0  0
 17 18  1  0  0  0  0
 17 19  1  0  0  0  0
 17 39  1  0  0  0  0
 18 40  1  0  0  0  0
 18 41  1  0  0  0  0
 18 42  1  0  0  0  0
 19 43  1  0  0  0  0
 19 44  1  0  0  0  0
 20 21  2  0  0  0  0
 20 45  1  0  0  0  0
M  CHG  1  13   1
M  END
> <s_m_source_file>
AV-unprocessed.smi

> <i_m_source_file_index>
1956

> <i_lp_mmshare_version>
43012

> <i_f3d_flags>
0

> <s_epik_input>
W0NIM11PYzFbY0hdW2NIXWMoW2NIXW4xKVtOSF1DKD1PKVtOSF1bQ0gyXVtDSDJdTjJbQ0gyXVtDSDJdW0NIMl1bQ0BASF0oW0NIM10pW0NIMl0y

> <s_epik_cmdline>
J2VwaWtfcHl0aG9uJywgJy1waCcsICc3LjAnLCAnLXRuJywgJzgnLCAnLW1hJywgJzIwMCcsICctbWV0YWxfYmluZGluZycsICctaW1hZScsICc8aW5maWxlLm1hZT4nLCAnLW9tYWUnLCAnPG91dGZpbGUubWFlPic=

> <r_lp_tautomer_probability>
1

> <r_epik_Ionization_Penalty>
0.00179545

> <r_epik_Ionization_Penalty_Charging>
0.00171832

> <r_epik_Ionization_Penalty_Neutral>
7.7124e-05

> <r_epik_State_Penalty>
0.0011618

> <r_epik_Charging_Adjusted_Penalty>
0.00288012

> <i_epik_Tot_Q>
1

> <i_epik_Tot_abs_Q>
1

> <r_epik_Metal_State_Penalty>
-0

> <b_epik_Metal_Only>
0

> <s_lp_Force_Field>
OPLS_2005

> <r_lp_Energy>
26.1696

> <b_lp_Chiralities_Consistent>
1

> <s_lp_Variant>
AV-unprocessed.smi:1956-1

> <Gold.Version>
5.8.1

> <Gold.Id.Protein>
6NUR|6NUR_protein|mol2

> <Gold.PLP.Fitness>
44.2553

> <Gold.PLP.PLP>
-30.3063

> <Gold.PLP.part.hbond>
-3.9043

> <Gold.PLP.part.metal>
0.0000

> <Gold.PLP.part.buried>
1.5272

> <Gold.PLP.part.nonpolar>
-29.2409

> <Gold.PLP.part.repulsive>
0.2687

> <Gold.PLP.ligand.clash>
0.0000

> <Gold.PLP.ligand.torsion>
0.3214

> <Gold.PLP.Chemscore.Hbond>
4.8470

> <Gold.PLP.Chemscore.CHOScore>
0.0000

> <Gold.PLP.Chemscore.Metal>
0.0000

> <Gold.Chemscore.Hbonds>
donor molecule, donor type, donor heavy atom, donor atom, acceptor molecule, acceptor atom, score
      L1  H     7    27       P1  7948  0.93
      L1  H    10    28       P1  7948  1.00
      L1  H    13    46       P1  7948  1.40
      P1  H  7997  8008       L1     2  0.93

> <Gold.PLP.Chemscore.Internal.Correction>
0.0508

> <Gold.Rescore>
     Score         DG    S(hbond)    S(metal)    S(lipo)     H(rot)  DE(clash)    DE(int)     intcor
     18.27     -21.80       3.32        0.00      82.18       1.71       1.98       1.55       ----

> <Gold.Chemscore.Fitness>
18.2684

> <Gold.Chemscore.DG>
-21.7983

> <Gold.Chemscore.ZeroCoef>
-5.4800

> <Gold.Chemscore.Hbond>
3.3181

> <Gold.Chemscore.Metal>
0.0000

> <Gold.Chemscore.Lipo>
82.1822

> <Gold.Chemscore.Internal_Hbond>
0.0000

> <Gold.Chemscore.DEClash>
1.9787

> <Gold.Chemscore.DEInternal>
1.5512

> <Gold.Chemscore.Rot>
1.7107

> <Gold.Chemscore.Internal.Correction>
   9.000000E+99

> <Gold.Chemscore.Hbonds>
donor molecule, donor type, donor heavy atom, donor atom, acceptor molecule, acceptor atom, score
      L1  H     7    27       P1  7948  0.84
      L1  H    10    28       P1  7948  0.97
      L1  H    13    46       P1  7948  0.67
      P1  H  7997  8008       L1     2  0.40

> <Gold.Chemscore.Hbond.Weighted>
-11.0824

> <Gold.Chemscore.Metal.Weighted>
-0.0000

> <Gold.Chemscore.Lipo.Weighted>
-9.6153

> <Gold.Chemscore.Internal_Hbond.Weighted>
0.0000

> <Gold.Chemscore.DEClash.Weighted>
1.9787

> <Gold.Chemscore.DEInternal.Weighted>
1.5512

> <Gold.Chemscore.Rot.Weighted>
4.3794

> <Gold.Chemscore.Internal.Correction.Weighted>
   9.000000E+99

> <Gold.Protein.RotatedTorsions>
[ 6907 6896 6895 6894 ] final   65.65 input  -60.11 | X-H torsion
[ 7974 7965 7964 7962 ] final -172.22 input  175.53 | X-H torsion
[ 8008 7997 7996 7995 ] final  -73.64 input   59.86 | X-H torsion
[ 10167 10162 10161 10158 ] final  114.04 input  -65.29 | X-H torsion
[ 10718 10713 10712 10709 ] final  160.93 input   66.30 | X-H torsion
[ 10763 10752 10751 10750 ] final  -54.30 input  -60.55 | X-H torsion
[ 11005 11000 10999 10996 ] final  113.13 input  -57.11 | X-H torsion

> <Gold.Protein.ActiveResidues>
 VAL166  LYS551  ARG553  GLY616  TRP617  ASP618  TYR619  PRO620  LYS621  CYS622 
 ASP623  PHE694  ASN695  SER759  ASP760  ASP761  ALA762  ILE779  LEU786  VAL792 
 PHE793  MET794  SER795  GLU796  ALA797  LYS798  CYS799  TRP800  GLU811  SER814 

> <Gold.Protein.RotatedAtoms>
  152.4423  134.5566  159.9881 H   0  0  0  0  0  0  0  0  0  0  0  0  # atno 6907 bound_to 6896
  151.5660  133.3391  159.2988 H   0  0  0  0  0  0  0  0  0  0  0  0  # atno 6908 bound_to 6896
  150.8332  134.7627  159.6934 H   0  0  0  0  0  0  0  0  0  0  0  0  # atno 6909 bound_to 6896
  144.7148  140.1804  143.6359 H   0  0  0  0  0  0  0  0  0  0  0  0  # atno 7974 bound_to 7965
  154.5264  140.0775  156.8265 H   0  0  0  0  0  0  0  0  0  0  0  0  # atno 8008 bound_to 7997
  155.3467  140.3410  155.4221 H   0  0  0  0  0  0  0  0  0  0  0  0  # atno 8009 bound_to 7997
  156.1735  140.1628  156.8391 H   0  0  0  0  0  0  0  0  0  0  0  0  # atno 8010 bound_to 7997
  139.6417  144.7124  151.2223 H   0  0  0  0  0  0  0  0  0  0  0  0  # atno 10167 bound_to 10162
  157.1436  131.0546  151.2314 H   0  0  0  0  0  0  0  0  0  0  0  0  # atno 10718 bound_to 10713
  154.1727  135.6456  153.5013 H   0  0  0  0  0  0  0  0  0  0  0  0  # atno 10763 bound_to 10752
  153.0080  135.5387  154.6596 H   0  0  0  0  0  0  0  0  0  0  0  0  # atno 10764 bound_to 10752
  154.5939  135.2937  155.0578 H   0  0  0  0  0  0  0  0  0  0  0  0  # atno 10765 bound_to 10752
  139.8945  134.9544  156.6692 H   0  0  0  0  0  0  0  0  0  0  0  0  # atno 11005 bound_to 11000
  145.8861  139.2350  143.1577 LP  0  0  0  0  0  0  0  0  0  0  0  0  # atno 17320 bound_to 7965
  145.9948  140.8571  143.0048 LP  0  0  0  0  0  0  0  0  0  0  0  0  # atno 17321 bound_to 7965
  140.7494  143.6300  150.8432 LP  0  0  0  0  0  0  0  0  0  0  0  0  # atno 17342 bound_to 10162
  139.9938  143.5818  152.2901 LP  0  0  0  0  0  0  0  0  0  0  0  0  # atno 17343 bound_to 10162
  157.4284  130.7477  149.6970 LP  0  0  0  0  0  0  0  0  0  0  0  0  # atno 17370 bound_to 10713
  155.9784  130.4052  150.3653 LP  0  0  0  0  0  0  0  0  0  0  0  0  # atno 17371 bound_to 10713
  140.7386  133.8997  155.8262 LP  0  0  0  0  0  0  0  0  0  0  0  0  # atno 17394 bound_to 11000
  141.0095  134.1039  157.4235 LP  0  0  0  0  0  0  0  0  0  0  0  0  # atno 17395 bound_to 11000

$$$$
