AV-unprocessed.smi:1557|AV-procd|sdf|6271|dock1
  -GOLD-   22720 6463D 1   1.00000     0.00000
 Structure written by MMmdl.
 41 42  0  0  0  0  0  0  0  0  1 V2000
  151.8475  138.0914  154.4225 C   0  0  0  0  0  0  0  0  0  0  0  0
  150.6046  138.6769  155.0970 C   0  0  0  0  0  0  0  0  0  0  0  0
  149.4767  138.4281  154.2639 O   0  0  0  0  0  0  0  0  0  0  0  0
  148.5686  139.4480  154.0502 C   0  0  0  0  0  0  0  0  0  0  0  0
  148.8125  140.6566  154.6161 N   0  0  0  0  0  0  0  0  0  0  0  0
  147.9283  141.6530  154.4087 C   0  0  0  0  0  0  0  0  0  0  0  0
  146.7651  141.5001  153.6333 C   0  0  0  0  0  0  0  0  0  0  0  0
  146.5094  140.2475  153.0454 C   0  0  0  0  0  0  0  0  0  0  0  0
  147.4283  139.1888  153.2534 C   0  0  0  0  0  0  0  0  0  0  0  0
  147.2858  137.8764  152.7175 N   0  0  0  0  0  0  0  0  0  0  0  0
  146.1779  137.1458  152.5042 C   0  0  0  0  0  0  0  0  0  0  0  0
  145.0241  137.5016  152.7402 O   0  0  0  0  0  0  0  0  0  0  0  0
  146.4878  135.9491  151.9845 N   0  0  0  0  0  0  0  0  0  0  0  0
  145.5350  134.8913  151.6428 C   0  0  1  0  0  0  0  0  0  0  0  0
  146.2540  133.7537  150.8835 C   0  0  0  0  0  0  0  0  0  0  0  0
  145.3202  132.8903  150.0202 C   0  0  0  0  0  0  0  0  0  0  0  0
  144.2484  132.1171  150.8027 C   0  0  0  0  0  0  0  0  0  0  0  0
  143.2187  133.0224  151.5001 C   0  0  0  0  0  0  0  0  0  0  0  0
  143.7232  133.5908  152.7439 N   0  0  0  0  0  0  0  0  0  0  0  0
  144.7614  134.4279  152.8918 C   0  0  0  0  0  0  0  0  0  0  0  0
  145.0964  134.8147  154.0113 O   0  0  0  0  0  0  0  0  0  0  0  0
  152.7358  138.2559  155.0325 H   0  0  0  0  0  0  0  0  0  0  0  0
  152.0188  138.5528  153.4497 H   0  0  0  0  0  0  0  0  0  0  0  0
  151.7403  137.0173  154.2703 H   0  0  0  0  0  0  0  0  0  0  0  0
  150.4660  138.2126  156.0746 H   0  0  0  0  0  0  0  0  0  0  0  0
  150.7399  139.7492  155.2467 H   0  0  0  0  0  0  0  0  0  0  0  0
  148.1547  142.6006  154.8747 H   0  0  0  0  0  0  0  0  0  0  0  0
  146.0831  142.3256  153.4930 H   0  0  0  0  0  0  0  0  0  0  0  0
  145.6156  140.1372  152.4537 H   0  0  0  0  0  0  0  0  0  0  0  0
  148.1553  137.4310  152.4616 H   0  0  0  0  0  0  0  0  0  0  0  0
  147.4629  135.7378  151.8292 H   0  0  0  0  0  0  0  0  0  0  0  0
  144.7944  135.3371  150.9760 H   0  0  0  0  0  0  0  0  0  0  0  0
  147.0065  134.1785  150.2175 H   0  0  0  0  0  0  0  0  0  0  0  0
  146.8047  133.1245  151.5844 H   0  0  0  0  0  0  0  0  0  0  0  0
  144.8403  133.5162  149.2668 H   0  0  0  0  0  0  0  0  0  0  0  0
  145.9276  132.1741  149.4661 H   0  0  0  0  0  0  0  0  0  0  0  0
  143.7179  131.4753  150.0988 H   0  0  0  0  0  0  0  0  0  0  0  0
  144.7150  131.4452  151.5247 H   0  0  0  0  0  0  0  0  0  0  0  0
  142.8710  133.8123  150.8330 H   0  0  0  0  0  0  0  0  0  0  0  0
  142.3398  132.4303  151.7556 H   0  0  0  0  0  0  0  0  0  0  0  0
  143.2395  133.3119  153.5853 H   0  0  0  0  0  0  0  0  0  0  0  0
  1  2  1  0  0  0  0
  1 22  1  0  0  0  0
  1 23  1  0  0  0  0
  1 24  1  0  0  0  0
  2  3  1  0  0  0  0
  2 25  1  0  0  0  0
  2 26  1  0  0  0  0
  3  4  1  0  0  0  0
  4  9  1  0  0  0  0
  4  5  2  0  0  0  0
  5  6  1  0  0  0  0
  6  7  2  0  0  0  0
  6 27  1  0  0  0  0
  7  8  1  0  0  0  0
  7 28  1  0  0  0  0
  8  9  2  0  0  0  0
  8 29  1  0  0  0  0
  9 10  1  0  0  0  0
 10 11  1  0  0  0  0
 10 30  1  0  0  0  0
 11 12  2  0  0  0  0
 11 13  1  0  0  0  0
 13 14  1  0  0  0  0
 13 31  1  0  0  0  0
 14 20  1  0  0  0  0
 14 15  1  0  0  0  0
 14 32  1  0  0  0  0
 15 16  1  0  0  0  0
 15 33  1  0  0  0  0
 15 34  1  0  0  0  0
 16 17  1  0  0  0  0
 16 35  1  0  0  0  0
 16 36  1  0  0  0  0
 17 18  1  0  0  0  0
 17 37  1  0  0  0  0
 17 38  1  0  0  0  0
 18 19  1  0  0  0  0
 18 39  1  0  0  0  0
 18 40  1  0  0  0  0
 19 20  1  0  0  0  0
 19 41  1  0  0  0  0
 20 21  2  0  0  0  0
M  END
> <s_m_source_file>
AV-unprocessed.smi

> <i_m_source_file_index>
1557

> <i_lp_mmshare_version>
43012

> <i_f3d_flags>
0

> <s_epik_input>
W0NIM11bQ0gyXU9jMW5bY0hdW2NIXVtjSF1jMVtOSF1DKD1PKVtOSF1bQ0BASF0yW0NIMl1bQ0gyXVtDSDJdW0NIMl1bTkhdQzI9Tw==

> <s_epik_cmdline>
J2VwaWtfcHl0aG9uJywgJy1waCcsICc3LjAnLCAnLXRuJywgJzgnLCAnLW1hJywgJzIwMCcsICctbWV0YWxfYmluZGluZycsICctaW1hZScsICc8aW5maWxlLm1hZT4nLCAnLW9tYWUnLCAnPG91dGZpbGUubWFlPic=

> <r_lp_tautomer_probability>
1

> <r_epik_Ionization_Penalty>
0.000101084

> <r_epik_Ionization_Penalty_Charging>
0

> <r_epik_Ionization_Penalty_Neutral>
0.000101084

> <r_epik_State_Penalty>
-0

> <r_epik_Charging_Adjusted_Penalty>
0

> <i_epik_Tot_Q>
0

> <i_epik_Tot_abs_Q>
0

> <r_epik_Metal_State_Penalty>
-0

> <b_epik_Metal_Only>
0

> <s_lp_Force_Field>
OPLS_2005

> <r_lp_Energy>
12.8757

> <b_lp_Chiralities_Consistent>
1

> <s_lp_Variant>
AV-unprocessed.smi:1557-2

> <Gold.Version>
5.8.1

> <Gold.Id.Protein>
6NUR|6NUR_protein|mol2

> <Gold.PLP.Fitness>
42.6953

> <Gold.PLP.PLP>
-32.2112

> <Gold.PLP.part.hbond>
-2.5514

> <Gold.PLP.part.metal>
0.0000

> <Gold.PLP.part.buried>
-0.6478

> <Gold.PLP.part.nonpolar>
-29.9031

> <Gold.PLP.part.repulsive>
0.7490

> <Gold.PLP.ligand.clash>
0.0000

> <Gold.PLP.ligand.torsion>
0.5972

> <Gold.PLP.Chemscore.Hbond>
2.8817

> <Gold.PLP.Chemscore.CHOScore>
1.0000

> <Gold.PLP.Chemscore.Metal>
0.0000

> <Gold.Chemscore.Hbonds>
donor molecule, donor type, donor heavy atom, donor atom, acceptor molecule, acceptor atom, score
      L1  H    10    30       P1  7948  1.00
      L1  H    13    31       P1  7948  0.99
      L1  H    19    41       P1 10957  0.92
      L1  C     6    27       P1  8028  1.00

> <Gold.PLP.Chemscore.Internal.Correction>
0.0333

> <Gold.Rescore>
     Score         DG    S(hbond)    S(metal)    S(lipo)     H(rot)  DE(clash)    DE(int)     intcor
     19.30     -20.31       2.88        0.00      77.14       1.49       0.33       0.67       ----

> <Gold.Chemscore.Fitness>
19.3047

> <Gold.Chemscore.DG>
-20.3095

> <Gold.Chemscore.ZeroCoef>
-5.4800

> <Gold.Chemscore.Hbond>
2.8834

> <Gold.Chemscore.Metal>
0.0000

> <Gold.Chemscore.Lipo>
77.1420

> <Gold.Chemscore.Internal_Hbond>
0.0000

> <Gold.Chemscore.DEClash>
0.3326

> <Gold.Chemscore.DEInternal>
0.6723

> <Gold.Chemscore.Rot>
1.4948

> <Gold.Chemscore.Internal.Correction>
   9.000000E+99

> <Gold.Chemscore.Hbonds>
donor molecule, donor type, donor heavy atom, donor atom, acceptor molecule, acceptor atom, score
      L1  H    10    30       P1  7948  0.91
      L1  H    13    31       P1  7948  0.87
      L1  H    19    41       P1 10957  0.82

> <Gold.Chemscore.Hbond.Weighted>
-9.6307

> <Gold.Chemscore.Metal.Weighted>
-0.0000

> <Gold.Chemscore.Lipo.Weighted>
-9.0256

> <Gold.Chemscore.Internal_Hbond.Weighted>
0.0000

> <Gold.Chemscore.DEClash.Weighted>
0.3326

> <Gold.Chemscore.DEInternal.Weighted>
0.6723

> <Gold.Chemscore.Rot.Weighted>
3.8268

> <Gold.Chemscore.Internal.Correction.Weighted>
   9.000000E+99

> <Gold.Protein.RotatedTorsions>
[ 6907 6896 6895 6894 ] final  165.88 input  -60.11 | X-H torsion
[ 7974 7965 7964 7962 ] final  -31.78 input  175.53 | X-H torsion
[ 8008 7997 7996 7995 ] final  -66.25 input   59.86 | X-H torsion
[ 10167 10162 10161 10158 ] final   -3.71 input  -65.29 | X-H torsion
[ 10718 10713 10712 10709 ] final -100.53 input   66.30 | X-H torsion
[ 10763 10752 10751 10750 ] final  117.45 input  -60.55 | X-H torsion
[ 11005 11000 10999 10996 ] final -105.44 input  -57.11 | X-H torsion

> <Gold.Protein.ActiveResidues>
 VAL166  LYS551  ARG553  GLY616  TRP617  ASP618  TYR619  PRO620  LYS621  CYS622 
 ASP623  PHE694  ASN695  SER759  ASP760  ASP761  ALA762  ILE779  LEU786  VAL792 
 PHE793  MET794  SER795  GLU796  ALA797  LYS798  CYS799  TRP800  GLU811  SER814 

> <Gold.Protein.RotatedAtoms>
  151.8875  133.3509  159.3786 H   0  0  0  0  0  0  0  0  0  0  0  0  # atno 6907 bound_to 6896
  150.7111  134.4957  159.5546 H   0  0  0  0  0  0  0  0  0  0  0  0  # atno 6908 bound_to 6896
  152.2520  134.8123  160.0495 H   0  0  0  0  0  0  0  0  0  0  0  0  # atno 6909 bound_to 6896
  146.1041  140.5710  142.8807 H   0  0  0  0  0  0  0  0  0  0  0  0  # atno 7974 bound_to 7965
  154.4722  140.0916  156.7174 H   0  0  0  0  0  0  0  0  0  0  0  0  # atno 8008 bound_to 7997
  155.4692  140.3464  155.4305 H   0  0  0  0  0  0  0  0  0  0  0  0  # atno 8009 bound_to 7997
  156.1059  140.1434  156.9394 H   0  0  0  0  0  0  0  0  0  0  0  0  # atno 8010 bound_to 7997
  140.6900  143.6508  150.8352 H   0  0  0  0  0  0  0  0  0  0  0  0  # atno 10167 bound_to 10162
  156.0166  130.5332  150.6830 H   0  0  0  0  0  0  0  0  0  0  0  0  # atno 10718 bound_to 10713
  153.5526  135.3536  155.2766 H   0  0  0  0  0  0  0  0  0  0  0  0  # atno 10763 bound_to 10752
  154.8705  135.4117  154.2920 H   0  0  0  0  0  0  0  0  0  0  0  0  # atno 10764 bound_to 10752
  153.3649  135.7061  153.6751 H   0  0  0  0  0  0  0  0  0  0  0  0  # atno 10765 bound_to 10752
  141.1053  133.8808  157.1735 H   0  0  0  0  0  0  0  0  0  0  0  0  # atno 11005 bound_to 11000
  144.7456  140.5060  143.6838 LP  0  0  0  0  0  0  0  0  0  0  0  0  # atno 17320 bound_to 7965
  145.5796  139.1488  143.3243 LP  0  0  0  0  0  0  0  0  0  0  0  0  # atno 17321 bound_to 7965
  140.0220  143.5533  152.2796 LP  0  0  0  0  0  0  0  0  0  0  0  0  # atno 17342 bound_to 10162
  139.6294  144.7642  151.2568 LP  0  0  0  0  0  0  0  0  0  0  0  0  # atno 17343 bound_to 10162
  157.4528  131.0874  151.0828 LP  0  0  0  0  0  0  0  0  0  0  0  0  # atno 17370 bound_to 10713
  157.1338  130.6114  149.5536 LP  0  0  0  0  0  0  0  0  0  0  0  0  # atno 17371 bound_to 10713
  139.9921  135.0061  156.9998 LP  0  0  0  0  0  0  0  0  0  0  0  0  # atno 17394 bound_to 11000
  140.4918  134.1185  155.7234 LP  0  0  0  0  0  0  0  0  0  0  0  0  # atno 17395 bound_to 11000

$$$$
