AV-unprocessed.smi:1446|AV-procd|sdf|5890|dock9
  -GOLD-   22720 5573D 1   1.00000     0.00000
 Structure written by MMmdl.
 47 48  0  0  0  0  0  0  0  0  1 V2000
  153.4454  138.7775  154.1142 C   0  0  0  0  0  0  0  0  0  0  0  0
  152.0385  138.5562  154.6581 C   0  0  0  0  0  0  0  0  0  0  0  0
  151.1254  139.3183  154.3419 O   0  0  0  0  0  0  0  0  0  0  0  0
  151.8786  137.5067  155.4794 N   0  0  0  0  0  0  0  0  0  0  0  0
  150.6188  137.1030  156.1083 C   0  0  1  0  0  0  0  0  0  0  0  0
  150.3991  135.5968  155.8654 C   0  0  0  0  0  0  0  0  0  0  0  0
  151.1180  134.7708  156.4310 O   0  0  0  0  0  0  0  0  0  0  0  0
  149.3861  135.2855  155.0348 N   0  0  0  0  0  0  0  0  0  0  0  0
  148.9185  133.9988  154.6586 C   0  0  0  0  0  0  0  0  0  0  0  0
  149.8620  132.9581  154.7878 C   0  0  0  0  0  0  0  0  0  0  0  0
  149.5006  131.6466  154.4267 C   0  0  0  0  0  0  0  0  0  0  0  0
  148.2003  131.3884  153.9371 C   0  0  0  0  0  0  0  0  0  0  0  0
  147.8202  130.0810  153.5632 N   0  0  0  0  0  0  0  0  0  0  0  0
  148.8220  129.0221  153.6445 C   0  0  0  0  0  0  0  0  0  0  0  0
  148.3254  127.7576  152.9229 C   0  0  0  0  0  0  0  0  0  0  0  0
  147.0663  127.3638  153.4579 O   0  0  0  0  0  0  0  0  0  0  0  0
  146.0744  128.3674  153.2680 C   0  0  0  0  0  0  0  0  0  0  0  0
  146.4904  129.6577  153.9963 C   0  0  0  0  0  0  0  0  0  0  0  0
  147.3233  132.4973  153.8537 C   0  0  0  0  0  0  0  0  0  0  0  0
  147.6683  133.7558  154.1981 N   0  0  0  0  0  0  0  0  0  0  0  0
  150.7064  137.3892  157.6372 C   0  0  0  0  0  0  0  0  0  0  0  0
  149.4951  136.8491  158.4262 C   0  0  0  0  0  0  0  0  0  0  0  0
  150.8657  138.8942  157.9303 C   0  0  0  0  0  0  0  0  0  0  0  0
  153.7878  137.8953  153.5727 H   0  0  0  0  0  0  0  0  0  0  0  0
  154.1418  138.9755  154.9293 H   0  0  0  0  0  0  0  0  0  0  0  0
  153.4682  139.6273  153.4312 H   0  0  0  0  0  0  0  0  0  0  0  0
  152.6858  136.9327  155.6761 H   0  0  0  0  0  0  0  0  0  0  0  0
  149.7937  137.6758  155.6792 H   0  0  0  0  0  0  0  0  0  0  0  0
  148.8844  136.0644  154.6340 H   0  0  0  0  0  0  0  0  0  0  0  0
  150.8563  133.1571  155.1603 H   0  0  0  0  0  0  0  0  0  0  0  0
  150.2226  130.8518  154.5406 H   0  0  0  0  0  0  0  0  0  0  0  0
  149.7574  129.3512  153.1913 H   0  0  0  0  0  0  0  0  0  0  0  0
  149.0240  128.7950  154.6921 H   0  0  0  0  0  0  0  0  0  0  0  0
  148.2390  127.9311  151.8488 H   0  0  0  0  0  0  0  0  0  0  0  0
  149.0384  126.9442  153.0575 H   0  0  0  0  0  0  0  0  0  0  0  0
  145.9284  128.5528  152.2025 H   0  0  0  0  0  0  0  0  0  0  0  0
  145.1240  128.0054  153.6602 H   0  0  0  0  0  0  0  0  0  0  0  0
  146.5097  129.4868  155.0735 H   0  0  0  0  0  0  0  0  0  0  0  0
  145.7406  130.4256  153.8109 H   0  0  0  0  0  0  0  0  0  0  0  0
  146.3129  132.3966  153.4878 H   0  0  0  0  0  0  0  0  0  0  0  0
  151.5945  136.8918  158.0316 H   0  0  0  0  0  0  0  0  0  0  0  0
  148.5610  137.2666  158.0494 H   0  0  0  0  0  0  0  0  0  0  0  0
  149.5697  137.1075  159.4827 H   0  0  0  0  0  0  0  0  0  0  0  0
  149.4202  135.7627  158.3758 H   0  0  0  0  0  0  0  0  0  0  0  0
  150.0269  139.4644  157.5296 H   0  0  0  0  0  0  0  0  0  0  0  0
  151.7806  139.3004  157.4990 H   0  0  0  0  0  0  0  0  0  0  0  0
  150.9114  139.0834  159.0032 H   0  0  0  0  0  0  0  0  0  0  0  0
  1  2  1  0  0  0  0
  1 24  1  0  0  0  0
  1 25  1  0  0  0  0
  1 26  1  0  0  0  0
  2  3  2  0  0  0  0
  2  4  1  0  0  0  0
  4  5  1  0  0  0  0
  4 27  1  0  0  0  0
  5  6  1  0  0  0  0
  5 21  1  0  0  0  0
  5 28  1  0  0  0  0
  6  7  2  0  0  0  0
  6  8  1  0  0  0  0
  8  9  1  0  0  0  0
  8 29  1  0  0  0  0
  9 20  1  0  0  0  0
  9 10  2  0  0  0  0
 10 11  1  0  0  0  0
 10 30  1  0  0  0  0
 11 12  2  0  0  0  0
 11 31  1  0  0  0  0
 12 13  1  0  0  0  0
 12 19  1  0  0  0  0
 13 18  1  0  0  0  0
 13 14  1  0  0  0  0
 14 15  1  0  0  0  0
 14 32  1  0  0  0  0
 14 33  1  0  0  0  0
 15 16  1  0  0  0  0
 15 34  1  0  0  0  0
 15 35  1  0  0  0  0
 16 17  1  0  0  0  0
 17 18  1  0  0  0  0
 17 36  1  0  0  0  0
 17 37  1  0  0  0  0
 18 38  1  0  0  0  0
 18 39  1  0  0  0  0
 19 20  2  0  0  0  0
 19 40  1  0  0  0  0
 21 22  1  0  0  0  0
 21 23  1  0  0  0  0
 21 41  1  0  0  0  0
 22 42  1  0  0  0  0
 22 43  1  0  0  0  0
 22 44  1  0  0  0  0
 23 45  1  0  0  0  0
 23 46  1  0  0  0  0
 23 47  1  0  0  0  0
M  END
> <s_m_source_file>
AV-unprocessed.smi

> <i_m_source_file_index>
1446

> <i_lp_mmshare_version>
43012

> <i_f3d_flags>
0

> <s_epik_input>
W0NIM11DKD1PKVtOSF1bQ0BASF0oW0NIXShbQ0gzXSlbQ0gzXSlDKD1PKVtOSF1jMVtjSF1bY0hdYyhbY0hdbjEpTjJbQ0gyXVtDSDJdT1tDSDJdW0NIMl0y

> <s_epik_cmdline>
J2VwaWtfcHl0aG9uJywgJy1waCcsICc3LjAnLCAnLXRuJywgJzgnLCAnLW1hJywgJzIwMCcsICctbWV0YWxfYmluZGluZycsICctaW1hZScsICc8aW5maWxlLm1hZT4nLCAnLW9tYWUnLCAnPG91dGZpbGUubWFlPic=

> <r_lp_tautomer_probability>
1

> <r_epik_Ionization_Penalty>
0.00298315

> <r_epik_Ionization_Penalty_Charging>
0

> <r_epik_Ionization_Penalty_Neutral>
0.00298315

> <r_epik_State_Penalty>
0.0038483

> <r_epik_Charging_Adjusted_Penalty>
0.0038483

> <i_epik_Tot_Q>
0

> <i_epik_Tot_abs_Q>
0

> <r_epik_Metal_State_Penalty>
-0

> <b_epik_Metal_Only>
0

> <s_lp_Force_Field>
OPLS_2005

> <r_lp_Energy>
27.8209

> <b_lp_Chiralities_Consistent>
1

> <s_lp_Variant>
AV-unprocessed.smi:1446-2

> <Gold.Version>
5.8.1

> <Gold.Id.Protein>
6NUR|6NUR_protein|mol2

> <Gold.PLP.Fitness>
35.7901

> <Gold.PLP.PLP>
-33.7261

> <Gold.PLP.part.hbond>
-1.8899

> <Gold.PLP.part.metal>
0.0000

> <Gold.PLP.part.buried>
-5.5041

> <Gold.PLP.part.nonpolar>
-26.4995

> <Gold.PLP.part.repulsive>
1.2578

> <Gold.PLP.ligand.clash>
0.0000

> <Gold.PLP.ligand.torsion>
0.6531

> <Gold.PLP.Chemscore.Hbond>
1.0000

> <Gold.PLP.Chemscore.CHOScore>
0.0000

> <Gold.PLP.Chemscore.Metal>
0.0000

> <Gold.Chemscore.Hbonds>
donor molecule, donor type, donor heavy atom, donor atom, acceptor molecule, acceptor atom, score
      P1  H  7989  7998       L1     3  1.00

> <Gold.PLP.Chemscore.Internal.Correction>
0.3702

> <Gold.Rescore>
     Score         DG    S(hbond)    S(metal)    S(lipo)     H(rot)  DE(clash)    DE(int)     intcor
     10.12     -12.65       1.00        0.00      70.89       1.74       0.08       2.45       ----

> <Gold.Chemscore.Fitness>
10.1239

> <Gold.Chemscore.DG>
-12.6537

> <Gold.Chemscore.ZeroCoef>
-5.4800

> <Gold.Chemscore.Hbond>
0.9978

> <Gold.Chemscore.Metal>
0.0000

> <Gold.Chemscore.Lipo>
70.8866

> <Gold.Chemscore.Internal_Hbond>
0.0000

> <Gold.Chemscore.DEClash>
0.0789

> <Gold.Chemscore.DEInternal>
2.4509

> <Gold.Chemscore.Rot>
1.7394

> <Gold.Chemscore.Internal.Correction>
   9.000000E+99

> <Gold.Chemscore.Hbonds>
donor molecule, donor type, donor heavy atom, donor atom, acceptor molecule, acceptor atom, score
      P1  H  7989  7998       L1     3  0.91

> <Gold.Chemscore.Hbond.Weighted>
-3.3327

> <Gold.Chemscore.Metal.Weighted>
-0.0000

> <Gold.Chemscore.Lipo.Weighted>
-8.2937

> <Gold.Chemscore.Internal_Hbond.Weighted>
0.0000

> <Gold.Chemscore.DEClash.Weighted>
0.0789

> <Gold.Chemscore.DEInternal.Weighted>
2.4509

> <Gold.Chemscore.Rot.Weighted>
4.4528

> <Gold.Chemscore.Internal.Correction.Weighted>
   9.000000E+99

> <Gold.Protein.RotatedTorsions>
[ 6907 6896 6895 6894 ] final  -87.45 input  -60.11 | X-H torsion
[ 7974 7965 7964 7962 ] final  104.21 input  175.53 | X-H torsion
[ 8008 7997 7996 7995 ] final  -64.03 input   59.86 | X-H torsion
[ 10167 10162 10161 10158 ] final -134.99 input  -65.29 | X-H torsion
[ 10718 10713 10712 10709 ] final -171.89 input   66.30 | X-H torsion
[ 10763 10752 10751 10750 ] final  138.76 input  -60.55 | X-H torsion
[ 11005 11000 10999 10996 ] final  -93.75 input  -57.11 | X-H torsion

> <Gold.Protein.ActiveResidues>
 VAL166  LYS551  ARG553  GLY616  TRP617  ASP618  TYR619  PRO620  LYS621  CYS622 
 ASP623  PHE694  ASN695  SER759  ASP760  ASP761  ALA762  ILE779  LEU786  VAL792 
 PHE793  MET794  SER795  GLU796  ALA797  LYS798  CYS799  TRP800  GLU811  SER814 

> <Gold.Protein.RotatedAtoms>
  150.6866  134.2894  159.4660 H   0  0  0  0  0  0  0  0  0  0  0  0  # atno 6907 bound_to 6896
  152.0801  134.9474  160.0583 H   0  0  0  0  0  0  0  0  0  0  0  0  # atno 6908 bound_to 6896
  152.0830  133.4128  159.4547 H   0  0  0  0  0  0  0  0  0  0  0  0  # atno 6909 bound_to 6896
  145.3358  139.2475  143.3636 H   0  0  0  0  0  0  0  0  0  0  0  0  # atno 7974 bound_to 7965
  154.4588  140.0962  156.6834 H   0  0  0  0  0  0  0  0  0  0  0  0  # atno 8008 bound_to 7997
  155.5056  140.3475  155.4360 H   0  0  0  0  0  0  0  0  0  0  0  0  # atno 8009 bound_to 7997
  156.0830  140.1378  156.9677 H   0  0  0  0  0  0  0  0  0  0  0  0  # atno 8010 bound_to 7997
  139.8824  143.6822  152.2625 H   0  0  0  0  0  0  0  0  0  0  0  0  # atno 10167 bound_to 10162
  156.7475  130.9365  151.3113 H   0  0  0  0  0  0  0  0  0  0  0  0  # atno 10718 bound_to 10713
  153.8950  135.3028  155.3448 H   0  0  0  0  0  0  0  0  0  0  0  0  # atno 10763 bound_to 10752
  154.7698  135.4891  153.9629 H   0  0  0  0  0  0  0  0  0  0  0  0  # atno 10764 bound_to 10752
  153.1277  135.6797  153.9329 H   0  0  0  0  0  0  0  0  0  0  0  0  # atno 10765 bound_to 10752
  141.1489  133.7909  157.0203 H   0  0  0  0  0  0  0  0  0  0  0  0  # atno 11005 bound_to 11000
  146.3027  140.3945  142.8698 LP  0  0  0  0  0  0  0  0  0  0  0  0  # atno 17320 bound_to 7965
  144.8829  140.7424  143.5975 LP  0  0  0  0  0  0  0  0  0  0  0  0  # atno 17321 bound_to 7965
  139.7183  144.7607  151.0997 LP  0  0  0  0  0  0  0  0  0  0  0  0  # atno 17342 bound_to 10162
  140.7742  143.5240  150.9502 LP  0  0  0  0  0  0  0  0  0  0  0  0  # atno 17343 bound_to 10162
  157.6792  130.9123  150.0224 LP  0  0  0  0  0  0  0  0  0  0  0  0  # atno 17370 bound_to 10713
  156.1423  130.3642  149.9563 LP  0  0  0  0  0  0  0  0  0  0  0  0  # atno 17371 bound_to 10713
  140.0820  134.9642  157.1640 LP  0  0  0  0  0  0  0  0  0  0  0  0  # atno 17394 bound_to 11000
  140.3563  134.2543  155.7192 LP  0  0  0  0  0  0  0  0  0  0  0  0  # atno 17395 bound_to 11000

$$$$
