AV-unprocessed.smi:3303|AV-procd|sdf|12691|dock10
  -GOLD-   2272019 23D 1   1.00000     0.00000
 Structure written by MMmdl.
 44 45  0  0  0  0  0  0  0  0  2 V2000
  150.9457  139.0056  154.4227 C   0  0  0  0  0  0  0  0  0  0  0  0
  149.6781  139.2796  155.2591 C   0  0  2  0  0  0  0  0  0  0  0  0
  148.4058  138.8635  154.4925 C   0  0  0  0  0  0  0  0  0  0  0  0
  148.1084  139.7984  153.3762 N   0  3  1  0  0  0  0  0  0  0  0  0
  147.0298  139.3083  152.4887 C   0  0  0  0  0  0  0  0  0  0  0  0
  147.9455  141.2157  153.8112 C   0  0  1  0  0  0  0  0  0  0  0  0
  146.6446  141.4753  154.6015 C   0  0  0  0  0  0  0  0  0  0  0  0
  149.1992  141.6826  154.5781 C   0  0  0  0  0  0  0  0  0  0  0  0
  149.5424  140.7451  155.7512 C   0  0  2  0  0  0  0  0  0  0  0  0
  150.7455  141.2424  156.4104 N   0  0  0  0  0  0  0  0  0  0  0  0
  150.8658  140.7541  157.7769 C   0  0  0  0  0  0  0  0  0  0  0  0
  152.2057  141.2099  158.3697 C   0  0  0  0  0  0  0  0  0  0  0  0
  152.1003  142.5699  159.0331 C   0  0  0  0  0  0  0  0  0  0  0  0
  152.1094  143.7508  158.2599 C   0  0  0  0  0  0  0  0  0  0  0  0
  152.0194  144.9887  158.9249 C   0  0  0  0  0  0  0  0  0  0  0  0
  151.9259  144.9987  160.3299 C   0  0  0  0  0  0  0  0  0  0  0  0
  151.9263  143.7646  161.0104 C   0  0  0  0  0  0  0  0  0  0  0  0
  152.0126  142.5718  160.3826 N   0  0  0  0  0  0  0  0  0  0  0  0
  150.9739  139.6044  153.5129 H   0  0  0  0  0  0  0  0  0  0  0  0
  150.9957  137.9579  154.1256 H   0  0  0  0  0  0  0  0  0  0  0  0
  151.8532  139.2189  154.9881 H   0  0  0  0  0  0  0  0  0  0  0  0
  149.7356  138.6302  156.1327 H   0  0  0  0  0  0  0  0  0  0  0  0
  148.5302  137.8538  154.0986 H   0  0  0  0  0  0  0  0  0  0  0  0
  147.5547  138.8190  155.1724 H   0  0  0  0  0  0  0  0  0  0  0  0
  146.0972  139.1629  153.0346 H   0  0  0  0  0  0  0  0  0  0  0  0
  147.3105  138.3524  152.0458 H   0  0  0  0  0  0  0  0  0  0  0  0
  146.8487  140.0096  151.6736 H   0  0  0  0  0  0  0  0  0  0  0  0
  147.8884  141.8194  152.9044 H   0  0  0  0  0  0  0  0  0  0  0  0
  146.5791  142.5224  154.8985 H   0  0  0  0  0  0  0  0  0  0  0  0
  146.5828  140.8783  155.5108 H   0  0  0  0  0  0  0  0  0  0  0  0
  145.7585  141.2634  154.0034 H   0  0  0  0  0  0  0  0  0  0  0  0
  150.0417  141.7344  153.8872 H   0  0  0  0  0  0  0  0  0  0  0  0
  149.0515  142.7007  154.9412 H   0  0  0  0  0  0  0  0  0  0  0  0
  148.7234  140.7997  156.4698 H   0  0  0  0  0  0  0  0  0  0  0  0
  150.7217  142.2524  156.4294 H   0  0  0  0  0  0  0  0  0  0  0  0
  150.0415  141.1380  158.3796 H   0  0  0  0  0  0  0  0  0  0  0  0
  150.8110  139.6659  157.7974 H   0  0  0  0  0  0  0  0  0  0  0  0
  152.5580  140.4820  159.1021 H   0  0  0  0  0  0  0  0  0  0  0  0
  152.9680  141.2551  157.5902 H   0  0  0  0  0  0  0  0  0  0  0  0
  152.1856  143.7112  157.1832 H   0  0  0  0  0  0  0  0  0  0  0  0
  152.0234  145.9136  158.3672 H   0  0  0  0  0  0  0  0  0  0  0  0
  151.8560  145.9293  160.8733 H   0  0  0  0  0  0  0  0  0  0  0  0
  151.8568  143.7346  162.0877 H   0  0  0  0  0  0  0  0  0  0  0  0
  148.9407  139.7969  152.8036 H   0  0  0  0  0  0  0  0  0  0  0  0
  1  2  1  0  0  0  0
  1 19  1  0  0  0  0
  1 20  1  0  0  0  0
  1 21  1  0  0  0  0
  2  9  1  0  0  0  0
  2  3  1  0  0  0  0
  2 22  1  0  0  0  0
  3  4  1  0  0  0  0
  3 23  1  0  0  0  0
  3 24  1  0  0  0  0
  4  5  1  0  0  0  0
  4  6  1  0  0  0  0
  4 44  1  0  0  0  0
  5 25  1  0  0  0  0
  5 26  1  0  0  0  0
  5 27  1  0  0  0  0
  6  7  1  0  0  0  0
  6  8  1  0  0  0  0
  6 28  1  0  0  0  0
  7 29  1  0  0  0  0
  7 30  1  0  0  0  0
  7 31  1  0  0  0  0
  8  9  1  0  0  0  0
  8 32  1  0  0  0  0
  8 33  1  0  0  0  0
  9 10  1  0  0  0  0
  9 34  1  0  0  0  0
 10 11  1  0  0  0  0
 10 35  1  0  0  0  0
 11 12  1  0  0  0  0
 11 36  1  0  0  0  0
 11 37  1  0  0  0  0
 12 13  1  0  0  0  0
 12 38  1  0  0  0  0
 12 39  1  0  0  0  0
 13 18  1  0  0  0  0
 13 14  2  0  0  0  0
 14 15  1  0  0  0  0
 14 40  1  0  0  0  0
 15 16  2  0  0  0  0
 15 41  1  0  0  0  0
 16 17  1  0  0  0  0
 16 42  1  0  0  0  0
 17 18  2  0  0  0  0
 17 43  1  0  0  0  0
M  CHG  1   4   1
M  END
> <s_m_source_file>
AV-unprocessed.smi

> <i_m_source_file_index>
3303

> <i_lp_mmshare_version>
43012

> <i_f3d_flags>
0

> <s_epik_input>
W0NIM11bQ0BASF0xW0NIMl1OKFtDSDNdKVtDQEBIXShbQ0gzXSlbQ0gyXVtDQEhdMVtOSF1bQ0gyXVtDSDJdYzJbY0hdW2NIXVtjSF1bY0hdbjI=

> <s_epik_cmdline>
J2VwaWtfcHl0aG9uJywgJy1waCcsICc3LjAnLCAnLXRuJywgJzgnLCAnLW1hJywgJzIwMCcsICctbWV0YWxfYmluZGluZycsICctaW1hZScsICc8aW5maWxlLm1hZT4nLCAnLW9tYWUnLCAnPG91dGZpbGUubWFlPic=

> <r_epik_Ionization_Penalty>
2.31085

> <r_epik_Ionization_Penalty_Charging>
0.000313057

> <r_epik_Ionization_Penalty_Neutral>
2.31054

> <r_epik_State_Penalty>
2.4087

> <r_epik_Charging_Adjusted_Penalty>
2.40902

> <i_epik_Tot_Q>
1

> <i_epik_Tot_abs_Q>
1

> <r_epik_Metal_State_Penalty>
2.30979

> <b_epik_Metal_Only>
0

> <s_lp_Force_Field>
OPLS_2005

> <r_lp_Energy>
26.3276

> <b_lp_Chiralities_Consistent>
1

> <s_lp_Variant>
AV-unprocessed.smi:3303-35

> <Gold.Version>
5.8.1

> <Gold.Id.Protein>
6NUR|6NUR_protein|mol2

> <Gold.PLP.Fitness>
44.6815

> <Gold.PLP.PLP>
-43.1972

> <Gold.PLP.part.hbond>
-1.0356

> <Gold.PLP.part.metal>
0.0000

> <Gold.PLP.part.buried>
-3.1068

> <Gold.PLP.part.nonpolar>
-38.3933

> <Gold.PLP.part.repulsive>
0.1089

> <Gold.PLP.ligand.clash>
0.0000

> <Gold.PLP.ligand.torsion>
0.6288

> <Gold.PLP.Chemscore.Hbond>
0.9120

> <Gold.PLP.Chemscore.CHOScore>
0.0000

> <Gold.PLP.Chemscore.Metal>
0.0000

> <Gold.Chemscore.Hbonds>
donor molecule, donor type, donor heavy atom, donor atom, acceptor molecule, acceptor atom, score
      L1  H     4    44       P1  7957  0.91

> <Gold.PLP.Chemscore.Internal.Correction>
0.0058

> <Gold.Rescore>
     Score         DG    S(hbond)    S(metal)    S(lipo)     H(rot)  DE(clash)    DE(int)     intcor
     19.65     -20.02       0.96        0.00     125.81       1.33       0.03       0.33       ----

> <Gold.Chemscore.Fitness>
19.6497

> <Gold.Chemscore.DG>
-20.0153

> <Gold.Chemscore.ZeroCoef>
-5.4800

> <Gold.Chemscore.Hbond>
0.9621

> <Gold.Chemscore.Metal>
0.0000

> <Gold.Chemscore.Lipo>
125.8094

> <Gold.Chemscore.Internal_Hbond>
0.0000

> <Gold.Chemscore.DEClash>
0.0326

> <Gold.Chemscore.DEInternal>
0.3330

> <Gold.Chemscore.Rot>
1.3272

> <Gold.Chemscore.Internal.Correction>
   9.000000E+99

> <Gold.Chemscore.Hbonds>
donor molecule, donor type, donor heavy atom, donor atom, acceptor molecule, acceptor atom, score
      L1  H     4    44       P1  7957  0.90

> <Gold.Chemscore.Hbond.Weighted>
-3.2133

> <Gold.Chemscore.Metal.Weighted>
-0.0000

> <Gold.Chemscore.Lipo.Weighted>
-14.7197

> <Gold.Chemscore.Internal_Hbond.Weighted>
0.0000

> <Gold.Chemscore.DEClash.Weighted>
0.0326

> <Gold.Chemscore.DEInternal.Weighted>
0.3330

> <Gold.Chemscore.Rot.Weighted>
3.3976

> <Gold.Chemscore.Internal.Correction.Weighted>
   9.000000E+99

> <Gold.Protein.RotatedTorsions>
[ 6907 6896 6895 6894 ] final  175.32 input  -60.11 | X-H torsion
[ 7974 7965 7964 7962 ] final  -67.05 input  175.53 | X-H torsion
[ 8008 7997 7996 7995 ] final  -96.67 input   59.86 | X-H torsion
[ 10167 10162 10161 10158 ] final   85.22 input  -65.29 | X-H torsion
[ 10718 10713 10712 10709 ] final -174.99 input   66.30 | X-H torsion
[ 10763 10752 10751 10750 ] final   -9.53 input  -60.55 | X-H torsion
[ 11005 11000 10999 10996 ] final   -4.02 input  -57.11 | X-H torsion

> <Gold.Protein.ActiveResidues>
 VAL166  LYS551  ARG553  GLY616  TRP617  ASP618  TYR619  PRO620  LYS621  CYS622 
 ASP623  PHE694  ASN695  SER759  ASP760  ASP761  ALA762  ILE779  LEU786  VAL792 
 PHE793  MET794  SER795  GLU796  ALA797  LYS798  CYS799  TRP800  GLU811  SER814 

> <Gold.Protein.RotatedAtoms>
  151.7380  133.3320  159.3357 H   0  0  0  0  0  0  0  0  0  0  0  0  # atno 6907 bound_to 6896
  150.7585  134.6303  159.6192 H   0  0  0  0  0  0  0  0  0  0  0  0  # atno 6908 bound_to 6896
  152.3549  134.6957  160.0277 H   0  0  0  0  0  0  0  0  0  0  0  0  # atno 6909 bound_to 6896
  145.7340  140.8984  143.0565 H   0  0  0  0  0  0  0  0  0  0  0  0  # atno 7974 bound_to 7965
  154.7775  140.0469  157.1100 H   0  0  0  0  0  0  0  0  0  0  0  0  # atno 8008 bound_to 7997
  154.9745  140.3094  155.4953 H   0  0  0  0  0  0  0  0  0  0  0  0  # atno 8009 bound_to 7997
  156.2931  140.2247  156.4840 H   0  0  0  0  0  0  0  0  0  0  0  0  # atno 8010 bound_to 7997
  139.9000  144.6335  150.8647 H   0  0  0  0  0  0  0  0  0  0  0  0  # atno 10167 bound_to 10162
  156.7933  130.9526  151.3120 H   0  0  0  0  0  0  0  0  0  0  0  0  # atno 10718 bound_to 10713
  153.4560  135.7015  153.6079 H   0  0  0  0  0  0  0  0  0  0  0  0  # atno 10763 bound_to 10752
  153.4394  135.3784  155.2219 H   0  0  0  0  0  0  0  0  0  0  0  0  # atno 10764 bound_to 10752
  154.8728  135.3970  154.3979 H   0  0  0  0  0  0  0  0  0  0  0  0  # atno 10765 bound_to 10752
  140.6756  133.9198  155.8522 H   0  0  0  0  0  0  0  0  0  0  0  0  # atno 11005 bound_to 11000
  144.6886  139.9370  143.7474 LP  0  0  0  0  0  0  0  0  0  0  0  0  # atno 17320 bound_to 7965
  146.0510  139.3511  143.0639 LP  0  0  0  0  0  0  0  0  0  0  0  0  # atno 17321 bound_to 7965
  140.7709  143.3444  151.2142 LP  0  0  0  0  0  0  0  0  0  0  0  0  # atno 17342 bound_to 10162
  139.7033  143.9496  152.2915 LP  0  0  0  0  0  0  0  0  0  0  0  0  # atno 17343 bound_to 10162
  157.6590  130.8949  149.9789 LP  0  0  0  0  0  0  0  0  0  0  0  0  # atno 17370 bound_to 10713
  156.1146  130.3648  149.9991 LP  0  0  0  0  0  0  0  0  0  0  0  0  # atno 17371 bound_to 10713
  141.0357  134.0692  157.3961 LP  0  0  0  0  0  0  0  0  0  0  0  0  # atno 17394 bound_to 11000
  139.8967  135.0147  156.7067 LP  0  0  0  0  0  0  0  0  0  0  0  0  # atno 17395 bound_to 11000

$$$$
