AV-unprocessed.smi:1812|AV-procd|sdf|7338|dock7
  -GOLD-   22720 9 03D 1   1.00000     0.00000
 Structure written by MMmdl.
 33 35  0  0  0  0  0  0  0  0  2 V2000
  151.7554  139.7845  154.8018 O   0  0  0  0  0  0  0  0  0  0  0  0
  151.1831  139.9398  155.8830 C   0  0  0  0  0  0  0  0  0  0  0  0
  150.1054  140.7310  155.9596 N   0  0  0  0  0  0  0  0  0  0  0  0
  149.5148  141.4581  154.8433 C   0  0  0  0  0  0  0  0  0  0  0  0
  147.9815  141.4004  154.9012 C   0  0  2  0  0  0  0  0  0  0  0  0
  147.2708  142.2179  153.8219 C   0  0  0  0  0  0  0  0  0  0  0  0
  145.9260  142.4626  154.4666 C   0  0  0  0  0  0  0  0  0  0  0  0
  146.3148  142.6831  155.9259 C   0  0  0  0  0  0  0  0  0  0  0  0
  147.5081  141.9317  156.1361 O   0  0  0  0  0  0  0  0  0  0  0  0
  151.5318  139.3802  157.0640 N   0  5  0  0  0  0  0  0  0  0  0  0
  152.0441  140.1425  158.0441 C   0  0  0  0  0  0  0  0  0  0  0  0
  152.7991  139.6363  159.0295 N   0  0  0  0  0  0  0  0  0  0  0  0
  153.2158  140.5940  159.9427 N   0  0  0  0  0  0  0  0  0  0  0  0
  152.7613  141.8120  159.6383 C   0  0  0  0  0  0  0  0  0  0  0  0
  153.0677  143.0107  160.4729 C   0  0  0  0  0  0  0  0  0  0  0  0
  152.8228  142.9950  161.9643 C   0  0  0  0  0  0  0  0  0  0  0  0
  151.9706  143.8625  161.0732 C   0  0  0  0  0  0  0  0  0  0  0  0
  151.7755  141.8794  158.1861 S   0  0  0  0  0  0  0  0  0  0  0  0
  149.6640  140.8337  156.8615 H   0  0  0  0  0  0  0  0  0  0  0  0
  149.8455  142.4973  154.8736 H   0  0  0  0  0  0  0  0  0  0  0  0
  149.8723  141.0343  153.9037 H   0  0  0  0  0  0  0  0  0  0  0  0
  147.6464  140.3633  154.8428 H   0  0  0  0  0  0  0  0  0  0  0  0
  147.7837  143.1664  153.6558 H   0  0  0  0  0  0  0  0  0  0  0  0
  147.1992  141.6949  152.8678 H   0  0  0  0  0  0  0  0  0  0  0  0
  145.3887  143.3074  154.0351 H   0  0  0  0  0  0  0  0  0  0  0  0
  145.3001  141.5739  154.3737 H   0  0  0  0  0  0  0  0  0  0  0  0
  146.5348  143.7360  156.1064 H   0  0  0  0  0  0  0  0  0  0  0  0
  145.5263  142.3793  156.6148 H   0  0  0  0  0  0  0  0  0  0  0  0
  153.9601  143.5151  160.1075 H   0  0  0  0  0  0  0  0  0  0  0  0
  152.3595  142.1073  162.3908 H   0  0  0  0  0  0  0  0  0  0  0  0
  153.5554  143.4900  162.5983 H   0  0  0  0  0  0  0  0  0  0  0  0
  152.1356  144.9373  161.1107 H   0  0  0  0  0  0  0  0  0  0  0  0
  150.9377  143.5556  160.9213 H   0  0  0  0  0  0  0  0  0  0  0  0
  1  2  2  0  0  0  0
  2  3  1  0  0  0  0
  2 10  1  0  0  0  0
  3  4  1  0  0  0  0
  3 19  1  0  0  0  0
  4  5  1  0  0  0  0
  4 20  1  0  0  0  0
  4 21  1  0  0  0  0
  5  9  1  0  0  0  0
  5  6  1  0  0  0  0
  5 22  1  0  0  0  0
  6  7  1  0  0  0  0
  6 23  1  0  0  0  0
  6 24  1  0  0  0  0
  7  8  1  0  0  0  0
  7 25  1  0  0  0  0
  7 26  1  0  0  0  0
  8  9  1  0  0  0  0
  8 27  1  0  0  0  0
  8 28  1  0  0  0  0
 10 11  1  0  0  0  0
 11 18  1  0  0  0  0
 11 12  2  0  0  0  0
 12 13  1  0  0  0  0
 13 14  2  0  0  0  0
 14 15  1  0  0  0  0
 14 18  1  0  0  0  0
 15 17  1  0  0  0  0
 15 16  1  0  0  0  0
 15 29  1  0  0  0  0
 16 17  1  0  0  0  0
 16 30  1  0  0  0  0
 16 31  1  0  0  0  0
 17 32  1  0  0  0  0
 17 33  1  0  0  0  0
M  CHG  1  10  -1
M  END
> <s_m_source_file>
AV-unprocessed.smi

> <i_m_source_file_index>
1812

> <i_lp_mmshare_version>
43012

> <i_f3d_flags>
0

> <s_epik_input>
TzFbQ0gyXVtDSDJdW0NIMl1bQ0BIXTFbQ0gyXVtOSF1DKD1PKVtOSF1jMm5uYyhzMilbQ0hdM1tDSDJdW0NIMl0z

> <s_epik_cmdline>
J2VwaWtfcHl0aG9uJywgJy1waCcsICc3LjAnLCAnLXRuJywgJzgnLCAnLW1hJywgJzIwMCcsICctbWV0YWxfYmluZGluZycsICctaW1hZScsICc8aW5maWxlLm1hZT4nLCAnLW9tYWUnLCAnPG91dGZpbGUubWFlPic=

> <r_lp_tautomer_probability>
1

> <r_epik_Ionization_Penalty>
4.72991

> <r_epik_Ionization_Penalty_Charging>
4.58249

> <r_epik_Ionization_Penalty_Neutral>
0.147417

> <r_epik_State_Penalty>
4.58223

> <r_epik_Charging_Adjusted_Penalty>
9.16473

> <i_epik_Tot_Q>
-1

> <i_epik_Tot_abs_Q>
1

> <r_epik_Metal_State_Penalty>
0.861876

> <b_epik_Metal_Only>
1

> <s_lp_Force_Field>
OPLS_2005

> <r_lp_Energy>
13.803

> <b_lp_Chiralities_Consistent>
1

> <s_lp_Variant>
AV-unprocessed.smi:1812-3

> <Gold.Version>
5.8.1

> <Gold.Id.Protein>
6NUR|6NUR_protein|mol2

> <Gold.PLP.Fitness>
38.5719

> <Gold.PLP.PLP>
-37.4190

> <Gold.PLP.part.hbond>
-1.0000

> <Gold.PLP.part.metal>
0.0000

> <Gold.PLP.part.buried>
-6.5593

> <Gold.PLP.part.nonpolar>
-29.9828

> <Gold.PLP.part.repulsive>
0.2731

> <Gold.PLP.ligand.clash>
0.0000

> <Gold.PLP.ligand.torsion>
0.9940

> <Gold.PLP.Chemscore.Hbond>
1.0000

> <Gold.PLP.Chemscore.CHOScore>
0.0000

> <Gold.PLP.Chemscore.Metal>
0.0000

> <Gold.Chemscore.Hbonds>
donor molecule, donor type, donor heavy atom, donor atom, acceptor molecule, acceptor atom, score
      P1  H  7989  7998       L1     1  1.00

> <Gold.PLP.Chemscore.Internal.Correction>
0.1409

> <Gold.Rescore>
     Score         DG    S(hbond)    S(metal)    S(lipo)     H(rot)  DE(clash)    DE(int)     intcor
     13.14     -14.96       0.98        0.00      84.56       1.45       0.00       1.82       ----

> <Gold.Chemscore.Fitness>
13.1413

> <Gold.Chemscore.DG>
-14.9612

> <Gold.Chemscore.ZeroCoef>
-5.4800

> <Gold.Chemscore.Hbond>
0.9841

> <Gold.Chemscore.Metal>
0.0000

> <Gold.Chemscore.Lipo>
84.5644

> <Gold.Chemscore.Internal_Hbond>
0.0000

> <Gold.Chemscore.DEClash>
0.0021

> <Gold.Chemscore.DEInternal>
1.8178

> <Gold.Chemscore.Rot>
1.4451

> <Gold.Chemscore.Internal.Correction>
   9.000000E+99

> <Gold.Chemscore.Hbonds>
donor molecule, donor type, donor heavy atom, donor atom, acceptor molecule, acceptor atom, score
      P1  H  7989  7998       L1     1  0.96

> <Gold.Chemscore.Hbond.Weighted>
-3.2867

> <Gold.Chemscore.Metal.Weighted>
-0.0000

> <Gold.Chemscore.Lipo.Weighted>
-9.8940

> <Gold.Chemscore.Internal_Hbond.Weighted>
0.0000

> <Gold.Chemscore.DEClash.Weighted>
0.0021

> <Gold.Chemscore.DEInternal.Weighted>
1.8178

> <Gold.Chemscore.Rot.Weighted>
3.6995

> <Gold.Chemscore.Internal.Correction.Weighted>
   9.000000E+99

> <Gold.Protein.RotatedTorsions>
[ 6907 6896 6895 6894 ] final  111.96 input  -60.11 | X-H torsion
[ 7974 7965 7964 7962 ] final   63.14 input  175.53 | X-H torsion
[ 8008 7997 7996 7995 ] final  167.62 input   59.86 | X-H torsion
[ 10167 10162 10161 10158 ] final    5.25 input  -65.29 | X-H torsion
[ 10718 10713 10712 10709 ] final -136.52 input   66.30 | X-H torsion
[ 10763 10752 10751 10750 ] final  -16.78 input  -60.55 | X-H torsion
[ 11005 11000 10999 10996 ] final  -50.18 input  -57.11 | X-H torsion

> <Gold.Protein.ActiveResidues>
 VAL166  LYS551  ARG553  GLY616  TRP617  ASP618  TYR619  PRO620  LYS621  CYS622 
 ASP623  PHE694  ASN695  SER759  ASP760  ASP761  ALA762  ILE779  LEU786  VAL792 
 PHE793  MET794  SER795  GLU796  ALA797  LYS798  CYS799  TRP800  GLU811  SER814 

> <Gold.Protein.RotatedAtoms>
  152.4942  133.8584  159.7237 H   0  0  0  0  0  0  0  0  0  0  0  0  # atno 6907 bound_to 6896
  150.9102  133.6998  159.2863 H   0  0  0  0  0  0  0  0  0  0  0  0  # atno 6908 bound_to 6896
  151.4410  135.1024  159.9722 H   0  0  0  0  0  0  0  0  0  0  0  0  # atno 6909 bound_to 6896
  145.8652  139.3341  143.0795 H   0  0  0  0  0  0  0  0  0  0  0  0  # atno 7974 bound_to 7965
  156.1618  140.1612  156.8600 H   0  0  0  0  0  0  0  0  0  0  0  0  # atno 8008 bound_to 7997
  154.5168  140.0787  156.8131 H   0  0  0  0  0  0  0  0  0  0  0  0  # atno 8009 bound_to 7997
  155.3693  140.3399  155.4245 H   0  0  0  0  0  0  0  0  0  0  0  0  # atno 8010 bound_to 7997
  140.6492  143.7587  150.7547 H   0  0  0  0  0  0  0  0  0  0  0  0  # atno 10167 bound_to 10162
  156.2779  130.7304  151.1292 H   0  0  0  0  0  0  0  0  0  0  0  0  # atno 10718 bound_to 10713
  153.5638  135.7009  153.5535 H   0  0  0  0  0  0  0  0  0  0  0  0  # atno 10763 bound_to 10752
  153.3406  135.4022  155.1568 H   0  0  0  0  0  0  0  0  0  0  0  0  # atno 10764 bound_to 10752
  154.8644  135.3741  154.5156 H   0  0  0  0  0  0  0  0  0  0  0  0  # atno 10765 bound_to 10752
  141.0801  133.6655  156.3694 H   0  0  0  0  0  0  0  0  0  0  0  0  # atno 11005 bound_to 11000
  145.9201  140.9121  143.0409 LP  0  0  0  0  0  0  0  0  0  0  0  0  # atno 17320 bound_to 7965
  144.6726  140.1277  143.7446 LP  0  0  0  0  0  0  0  0  0  0  0  0  # atno 17321 bound_to 7965
  140.1234  143.4591  152.2299 LP  0  0  0  0  0  0  0  0  0  0  0  0  # atno 17342 bound_to 10162
  139.5705  144.7460  151.3904 LP  0  0  0  0  0  0  0  0  0  0  0  0  # atno 17343 bound_to 10162
  157.7305  131.0616  150.5723 LP  0  0  0  0  0  0  0  0  0  0  0  0  # atno 17370 bound_to 10713
  156.5825  130.4308  149.5971 LP  0  0  0  0  0  0  0  0  0  0  0  0  # atno 17371 bound_to 10713
  140.5486  134.6050  157.5401 LP  0  0  0  0  0  0  0  0  0  0  0  0  # atno 17394 bound_to 11000
  139.9615  134.7444  156.0227 LP  0  0  0  0  0  0  0  0  0  0  0  0  # atno 17395 bound_to 11000

$$$$
