AV-unprocessed.smi:259|AV-procd|sdf|1973|dock4
  -GOLD-   2262021143D 1   1.00000     0.00000
 Structure written by MMmdl.
 54 57  0  0  0  0  0  0  0  0  1 V2000
  147.6417  138.8789  153.8315 C   0  0  0  0  0  0  0  0  0  0  0  0
  148.4455  138.9708  155.0405 N   0  0  0  0  0  0  0  0  0  0  0  0
  149.7364  139.3328  155.0622 C   0  0  0  0  0  0  0  0  0  0  0  0
  150.3665  139.6223  154.0452 O   0  0  0  0  0  0  0  0  0  0  0  0
  150.4158  139.3551  156.4413 C   0  0  0  0  0  0  0  0  0  0  0  0
  151.3079  140.5903  156.7457 C   0  0  1  0  0  0  0  0  0  0  0  0
  152.3822  140.5950  155.8216 O   0  0  0  0  0  0  0  0  0  0  0  0
  150.5230  141.9258  156.6559 C   0  0  0  0  0  0  0  0  0  0  0  0
  151.3408  143.1225  157.1690 C   0  0  0  0  0  0  0  0  0  0  0  0
  151.8817  142.8525  158.5785 C   0  0  0  0  0  0  0  0  0  0  0  0
  152.6504  141.6154  158.5881 N   0  0  0  0  0  0  0  0  0  0  0  0
  153.3919  141.4551  159.7034 C   0  0  0  0  0  0  0  0  0  0  0  0
  153.1073  142.2619  160.7547 N   0  0  0  0  0  0  0  0  0  0  0  0
  153.8079  142.1535  161.8876 C   0  0  0  0  0  0  0  0  0  0  0  0
  154.8094  141.3185  162.1736 N   0  0  0  0  0  0  0  0  0  0  0  0
  155.0888  140.4985  161.1198 C   0  0  0  0  0  0  0  0  0  0  0  0
  154.4332  140.4970  159.8569 C   0  0  0  0  0  0  0  0  0  0  0  0
  154.9833  139.5173  159.0393 N   0  0  0  0  0  0  0  0  0  0  0  0
  155.9156  138.9753  159.7743 C   0  0  0  0  0  0  0  0  0  0  0  0
  156.0424  139.4980  161.0417 N   0  0  0  0  0  0  0  0  0  0  0  0
  156.9904  139.0861  162.0657 C   0  0  0  0  0  0  0  0  0  0  0  0
  156.3325  138.6872  163.3998 C   0  0  0  0  0  0  0  0  0  0  0  0
  155.2309  137.6452  163.1163 C   0  0  0  0  0  0  0  0  0  0  0  0
  154.6856  137.0978  164.3002 O   0  0  0  0  0  0  0  0  0  0  0  0
  157.2907  138.3594  164.5542 C   0  0  0  0  0  0  0  0  0  0  0  0
  156.6749  139.3357  165.4230 O   0  0  0  0  0  0  0  0  0  0  0  0
  155.9367  139.8663  164.3000 C   0  0  0  0  0  0  0  0  0  0  0  0
  151.9339  140.4188  158.1506 C   0  0  0  0  0  0  0  0  0  0  0  0
  146.6189  138.6012  154.0858 H   0  0  0  0  0  0  0  0  0  0  0  0
  148.0428  138.1223  153.1558 H   0  0  0  0  0  0  0  0  0  0  0  0
  147.6152  139.8353  153.3079 H   0  0  0  0  0  0  0  0  0  0  0  0
  147.9945  138.7412  155.9143 H   0  0  0  0  0  0  0  0  0  0  0  0
  149.6384  139.2878  157.2043 H   0  0  0  0  0  0  0  0  0  0  0  0
  151.0030  138.4409  156.5392 H   0  0  0  0  0  0  0  0  0  0  0  0
  152.0327  140.4442  154.9565 H   0  0  0  0  0  0  0  0  0  0  0  0
  150.2022  142.1221  155.6322 H   0  0  0  0  0  0  0  0  0  0  0  0
  149.6122  141.8462  157.2510 H   0  0  0  0  0  0  0  0  0  0  0  0
  152.1719  143.3191  156.4905 H   0  0  0  0  0  0  0  0  0  0  0  0
  150.7253  144.0224  157.1718 H   0  0  0  0  0  0  0  0  0  0  0  0
  152.5073  143.6861  158.9015 H   0  0  0  0  0  0  0  0  0  0  0  0
  151.0581  142.7741  159.2896 H   0  0  0  0  0  0  0  0  0  0  0  0
  153.5257  142.8333  162.6780 H   0  0  0  0  0  0  0  0  0  0  0  0
  156.5388  138.1725  159.4081 H   0  0  0  0  0  0  0  0  0  0  0  0
  157.5690  138.2545  161.6615 H   0  0  0  0  0  0  0  0  0  0  0  0
  157.7069  139.8938  162.2196 H   0  0  0  0  0  0  0  0  0  0  0  0
  154.4163  138.0884  162.5425 H   0  0  0  0  0  0  0  0  0  0  0  0
  155.6169  136.8127  162.5282 H   0  0  0  0  0  0  0  0  0  0  0  0
  153.8300  137.4743  164.4394 H   0  0  0  0  0  0  0  0  0  0  0  0
  157.2010  137.3416  164.9358 H   0  0  0  0  0  0  0  0  0  0  0  0
  158.3334  138.6067  164.3528 H   0  0  0  0  0  0  0  0  0  0  0  0
  156.3370  140.8272  163.9726 H   0  0  0  0  0  0  0  0  0  0  0  0
  154.8673  139.9444  164.4984 H   0  0  0  0  0  0  0  0  0  0  0  0
  151.1393  140.2098  158.8672 H   0  0  0  0  0  0  0  0  0  0  0  0
  152.6047  139.5578  158.1668 H   0  0  0  0  0  0  0  0  0  0  0  0
  1  2  1  0  0  0  0
  1 29  1  0  0  0  0
  1 30  1  0  0  0  0
  1 31  1  0  0  0  0
  2  3  1  0  0  0  0
  2 32  1  0  0  0  0
  3  4  2  0  0  0  0
  3  5  1  0  0  0  0
  5  6  1  0  0  0  0
  5 33  1  0  0  0  0
  5 34  1  0  0  0  0
  6 28  1  0  0  0  0
  6  7  1  0  0  0  0
  6  8  1  0  0  0  0
  7 35  1  0  0  0  0
  8  9  1  0  0  0  0
  8 36  1  0  0  0  0
  8 37  1  0  0  0  0
  9 10  1  0  0  0  0
  9 38  1  0  0  0  0
  9 39  1  0  0  0  0
 10 11  1  0  0  0  0
 10 40  1  0  0  0  0
 10 41  1  0  0  0  0
 11 12  1  0  0  0  0
 11 28  1  0  0  0  0
 12 17  1  0  0  0  0
 12 13  2  0  0  0  0
 13 14  1  0  0  0  0
 14 15  2  0  0  0  0
 14 42  1  0  0  0  0
 15 16  1  0  0  0  0
 16 20  1  0  0  0  0
 16 17  2  0  0  0  0
 17 18  1  0  0  0  0
 18 19  2  0  0  0  0
 19 20  1  0  0  0  0
 19 43  1  0  0  0  0
 20 21  1  0  0  0  0
 21 22  1  0  0  0  0
 21 44  1  0  0  0  0
 21 45  1  0  0  0  0
 22 27  1  0  0  0  0
 22 23  1  0  0  0  0
 22 25  1  0  0  0  0
 23 24  1  0  0  0  0
 23 46  1  0  0  0  0
 23 47  1  0  0  0  0
 24 48  1  0  0  0  0
 25 26  1  0  0  0  0
 25 49  1  0  0  0  0
 25 50  1  0  0  0  0
 26 27  1  0  0  0  0
 27 51  1  0  0  0  0
 27 52  1  0  0  0  0
 28 53  1  0  0  0  0
 28 54  1  0  0  0  0
M  END
> <s_m_source_file>
AV-unprocessed.smi

> <i_m_source_file_index>
259

> <i_lp_mmshare_version>
43012

> <i_f3d_flags>
0

> <s_epik_input>
W0NIM11bTkhdQyg9TylbQ0gyXVtDQEBdMShbT0hdKVtDSDJdW0NIMl1bQ0gyXU4oW0NIMl0xKWMobltjSF1uMiljKGMyMyluW2NIXW4zW0NIMl1DNChbQ0gyXVtPSF0pW0NIMl1PW0NIMl00

> <s_epik_cmdline>
J2VwaWtfcHl0aG9uJywgJy1waCcsICc3LjAnLCAnLXRuJywgJzgnLCAnLW1hJywgJzIwMCcsICctbWV0YWxfYmluZGluZycsICctaW1hZScsICc8aW5maWxlLm1hZT4nLCAnLW9tYWUnLCAnPG91dGZpbGUubWFlPic=

> <r_lp_tautomer_probability>
1

> <r_epik_Ionization_Penalty>
0.00366363

> <r_epik_Ionization_Penalty_Charging>
0

> <r_epik_Ionization_Penalty_Neutral>
0.00366363

> <r_epik_State_Penalty>
0.00243014

> <r_epik_Charging_Adjusted_Penalty>
0.00243014

> <i_epik_Tot_Q>
0

> <i_epik_Tot_abs_Q>
0

> <r_epik_Metal_State_Penalty>
-0

> <b_epik_Metal_Only>
0

> <s_lp_Force_Field>
OPLS_2005

> <r_lp_Energy>
40.2539

> <b_lp_Chiralities_Consistent>
1

> <s_lp_Variant>
AV-unprocessed.smi:259-1

> <Gold.Version>
5.8.1

> <Gold.Id.Protein>
6NUR|6NUR_protein|mol2

> <Gold.PLP.Fitness>
45.4279

> <Gold.PLP.PLP>
-37.5997

> <Gold.PLP.part.hbond>
-4.3852

> <Gold.PLP.part.metal>
0.0000

> <Gold.PLP.part.buried>
-3.4680

> <Gold.PLP.part.nonpolar>
-29.3169

> <Gold.PLP.part.repulsive>
0.6316

> <Gold.PLP.ligand.clash>
0.0000

> <Gold.PLP.ligand.torsion>
0.6246

> <Gold.PLP.Chemscore.Hbond>
2.7956

> <Gold.PLP.Chemscore.CHOScore>
0.0000

> <Gold.PLP.Chemscore.Metal>
0.0000

> <Gold.Chemscore.Hbonds>
donor molecule, donor type, donor heavy atom, donor atom, acceptor molecule, acceptor atom, score
      P1  H  7989  7998       L1     4  1.00
      P1  H  7997  8009       L1    18  1.00
      P1  H  7997  8010       L1     7  0.83

> <Gold.PLP.Chemscore.Internal.Correction>
0.6907

> <Gold.Rescore>
     Score         DG    S(hbond)    S(metal)    S(lipo)     H(rot)  DE(clash)    DE(int)     intcor
      8.52     -12.77       2.59        0.00      77.84       4.09       2.43       1.82       ----

> <Gold.Chemscore.Fitness>
8.5237

> <Gold.Chemscore.DG>
-12.7747

> <Gold.Chemscore.ZeroCoef>
-5.4800

> <Gold.Chemscore.Hbond>
2.5926

> <Gold.Chemscore.Metal>
0.0000

> <Gold.Chemscore.Lipo>
77.8420

> <Gold.Chemscore.Internal_Hbond>
0.0000

> <Gold.Chemscore.DEClash>
2.4293

> <Gold.Chemscore.DEInternal>
1.8218

> <Gold.Chemscore.Rot>
4.0906

> <Gold.Chemscore.Internal.Correction>
   9.000000E+99

> <Gold.Chemscore.Hbonds>
donor molecule, donor type, donor heavy atom, donor atom, acceptor molecule, acceptor atom, score
      P1  H  7989  7998       L1     4  0.98
      P1  H  7997  8009       L1    18  0.84
      P1  H  7997  8010       L1     7  0.71

> <Gold.Chemscore.Hbond.Weighted>
-8.6591

> <Gold.Chemscore.Metal.Weighted>
-0.0000

> <Gold.Chemscore.Lipo.Weighted>
-9.1075

> <Gold.Chemscore.Internal_Hbond.Weighted>
0.0000

> <Gold.Chemscore.DEClash.Weighted>
2.4293

> <Gold.Chemscore.DEInternal.Weighted>
1.8218

> <Gold.Chemscore.Rot.Weighted>
10.4719

> <Gold.Chemscore.Internal.Correction.Weighted>
   9.000000E+99

> <Gold.Protein.RotatedTorsions>
[ 6907 6896 6895 6894 ] final   37.90 input  -60.11 | X-H torsion
[ 7974 7965 7964 7962 ] final  128.72 input  175.53 | X-H torsion
[ 8008 7997 7996 7995 ] final   96.98 input   59.86 | X-H torsion
[ 10167 10162 10161 10158 ] final  106.78 input  -65.29 | X-H torsion
[ 10718 10713 10712 10709 ] final  -87.78 input   66.30 | X-H torsion
[ 10763 10752 10751 10750 ] final  -71.08 input  -60.55 | X-H torsion
[ 11005 11000 10999 10996 ] final   30.29 input  -57.11 | X-H torsion

> <Gold.Protein.ActiveResidues>
 VAL166  LYS551  ARG553  GLY616  TRP617  ASP618  TYR619  PRO620  LYS621  CYS622 
 ASP623  PHE694  ASN695  SER759  ASP760  ASP761  ALA762  ILE779  LEU786  VAL792 
 PHE793  MET794  SER795  GLU796  ALA797  LYS798  CYS799  TRP800  GLU811  SER814 

> <Gold.Protein.RotatedAtoms>
  152.1493  134.9001  160.0548 H   0  0  0  0  0  0  0  0  0  0  0  0  # atno 6907 bound_to 6896
  152.0038  133.3830  159.4201 H   0  0  0  0  0  0  0  0  0  0  0  0  # atno 6908 bound_to 6896
  150.6874  134.3726  159.5043 H   0  0  0  0  0  0  0  0  0  0  0  0  # atno 6909 bound_to 6896
  145.0364  139.4001  143.5124 H   0  0  0  0  0  0  0  0  0  0  0  0  # atno 7974 bound_to 7965
  156.0854  140.3265  155.7746 H   0  0  0  0  0  0  0  0  0  0  0  0  # atno 8008 bound_to 7997
  155.5085  140.0575  157.2945 H   0  0  0  0  0  0  0  0  0  0  0  0  # atno 8009 bound_to 7997
  154.4606  140.1964  156.0272 H   0  0  0  0  0  0  0  0  0  0  0  0  # atno 8010 bound_to 7997
  139.6981  144.7098  151.1232 H   0  0  0  0  0  0  0  0  0  0  0  0  # atno 10167 bound_to 10162
  155.9984  130.4812  150.4919 H   0  0  0  0  0  0  0  0  0  0  0  0  # atno 10718 bound_to 10713
  154.4267  135.5973  153.6043 H   0  0  0  0  0  0  0  0  0  0  0  0  # atno 10763 bound_to 10752
  152.9796  135.5965  154.3889 H   0  0  0  0  0  0  0  0  0  0  0  0  # atno 10764 bound_to 10752
  154.3721  135.2841  155.2239 H   0  0  0  0  0  0  0  0  0  0  0  0  # atno 10765 bound_to 10752
  140.2959  134.2811  155.7765 H   0  0  0  0  0  0  0  0  0  0  0  0  # atno 11005 bound_to 11000
  146.3504  139.9942  142.8682 LP  0  0  0  0  0  0  0  0  0  0  0  0  # atno 17320 bound_to 7965
  145.1704  140.9718  143.4325 LP  0  0  0  0  0  0  0  0  0  0  0  0  # atno 17321 bound_to 7965
  140.7702  143.5463  150.9255 LP  0  0  0  0  0  0  0  0  0  0  0  0  # atno 17342 bound_to 10162
  139.9143  143.6682  152.3109 LP  0  0  0  0  0  0  0  0  0  0  0  0  # atno 17343 bound_to 10162
  157.2913  131.0627  151.2132 LP  0  0  0  0  0  0  0  0  0  0  0  0  # atno 17370 bound_to 10713
  157.3143  130.6905  149.6233 LP  0  0  0  0  0  0  0  0  0  0  0  0  # atno 17371 bound_to 10713
  141.2137  133.7615  156.9694 LP  0  0  0  0  0  0  0  0  0  0  0  0  # atno 17394 bound_to 11000
  140.1153  134.9451  157.2125 LP  0  0  0  0  0  0  0  0  0  0  0  0  # atno 17395 bound_to 11000

$$$$
