AV-unprocessed.smi:924|AV-procd|sdf|4179|dock7
  -GOLD-   22720 2 83D 1   1.00000     0.00000
 Structure written by MMmdl.
 46 49  0  0  0  0  0  0  0  0  1 V2000
  150.0349  133.7336  157.4413 O   0  0  0  0  0  0  0  0  0  0  0  0
  148.8175  133.6059  157.3017 C   0  0  0  0  0  0  0  0  0  0  0  0
  148.2322  132.4791  156.4388 C   0  0  0  0  0  0  0  0  0  0  0  0
  147.6599  132.9589  155.1721 N   0  0  0  0  0  0  0  0  0  0  0  0
  146.4136  132.5090  154.7600 C   0  0  0  0  0  0  0  0  0  0  0  0
  145.8293  132.8892  153.5993 C   0  0  0  0  0  0  0  0  0  0  0  0
  146.5063  133.8191  152.7018 C   0  0  0  0  0  0  0  0  0  0  0  0
  146.0584  134.2248  151.6317 O   0  0  0  0  0  0  0  0  0  0  0  0
  147.7596  134.2457  153.1492 N   0  0  0  0  0  0  0  0  0  0  0  0
  148.3695  133.8544  154.3423 C   0  0  0  0  0  0  0  0  0  0  0  0
  149.4842  134.2849  154.6362 O   0  0  0  0  0  0  0  0  0  0  0  0
  147.9224  134.4140  157.8905 N   0  0  0  0  0  0  0  0  0  0  0  0
  148.2364  135.5221  158.7900 C   0  0  0  0  0  0  0  0  0  0  0  0
  147.4447  135.4755  160.1219 C   0  0  0  0  0  0  0  0  0  0  0  0
  147.8942  136.6119  161.0810 C   0  0  0  0  0  0  0  0  0  0  0  0
  147.1272  136.5226  162.4182 C   0  0  1  0  0  0  0  0  0  0  0  0
  145.6128  136.6602  162.1554 C   0  0  0  0  0  0  0  0  0  0  0  0
  145.1521  135.5180  161.2256 C   0  0  2  0  0  0  0  0  0  0  0  0
  145.4353  134.1575  161.8945 C   0  0  0  0  0  0  0  0  0  0  0  0
  146.9497  134.0280  162.1568 C   0  0  2  0  0  0  0  0  0  0  0  0
  147.4143  135.1643  163.0909 C   0  0  0  0  0  0  0  0  0  0  0  0
  147.7135  134.1152  160.8182 C   0  0  0  0  0  0  0  0  0  0  0  0
  145.9140  135.6053  159.8862 C   0  0  0  0  0  0  0  0  0  0  0  0
  148.2678  134.8874  152.5583 H   0  0  0  0  0  0  0  0  0  0  0  0
  149.0206  131.7543  156.2283 H   0  0  0  0  0  0  0  0  0  0  0  0
  147.4918  131.9323  157.0254 H   0  0  0  0  0  0  0  0  0  0  0  0
  145.8789  131.8144  155.3927 H   0  0  0  0  0  0  0  0  0  0  0  0
  144.8565  132.5022  153.3326 H   0  0  0  0  0  0  0  0  0  0  0  0
  146.9436  134.2369  157.7177 H   0  0  0  0  0  0  0  0  0  0  0  0
  149.3087  135.5631  158.9893 H   0  0  0  0  0  0  0  0  0  0  0  0
  148.0009  136.4445  158.2579 H   0  0  0  0  0  0  0  0  0  0  0  0
  148.9675  136.5483  161.2644 H   0  0  0  0  0  0  0  0  0  0  0  0
  147.7196  137.5894  160.6300 H   0  0  0  0  0  0  0  0  0  0  0  0
  147.4544  137.3279  163.0767 H   0  0  0  0  0  0  0  0  0  0  0  0
  145.0613  136.6281  163.0959 H   0  0  0  0  0  0  0  0  0  0  0  0
  145.3942  137.6282  161.7024 H   0  0  0  0  0  0  0  0  0  0  0  0
  144.0818  135.6133  161.0393 H   0  0  0  0  0  0  0  0  0  0  0  0
  144.8804  134.0730  162.8299 H   0  0  0  0  0  0  0  0  0  0  0  0
  145.0905  133.3430  161.2562 H   0  0  0  0  0  0  0  0  0  0  0  0
  147.1539  133.0661  162.6281 H   0  0  0  0  0  0  0  0  0  0  0  0
  148.4791  135.0658  163.3065 H   0  0  0  0  0  0  0  0  0  0  0  0
  146.8986  135.1005  164.0499 H   0  0  0  0  0  0  0  0  0  0  0  0
  147.4120  133.2921  160.1686 H   0  0  0  0  0  0  0  0  0  0  0  0
  148.7820  133.9859  160.9958 H   0  0  0  0  0  0  0  0  0  0  0  0
  145.6749  136.5540  159.4053 H   0  0  0  0  0  0  0  0  0  0  0  0
  145.5684  134.8237  159.2084 H   0  0  0  0  0  0  0  0  0  0  0  0
  1  2  2  0  0  0  0
  2  3  1  0  0  0  0
  2 12  1  0  0  0  0
  3  4  1  0  0  0  0
  3 25  1  0  0  0  0
  3 26  1  0  0  0  0
  4 10  1  0  0  0  0
  4  5  1  0  0  0  0
  5  6  2  0  0  0  0
  5 27  1  0  0  0  0
  6  7  1  0  0  0  0
  6 28  1  0  0  0  0
  7  8  2  0  0  0  0
  7  9  1  0  0  0  0
  9 24  1  0  0  0  0
  9 10  1  0  0  0  0
 10 11  2  0  0  0  0
 12 13  1  0  0  0  0
 12 29  1  0  0  0  0
 13 14  1  0  0  0  0
 13 30  1  0  0  0  0
 13 31  1  0  0  0  0
 14 22  1  0  0  0  0
 14 23  1  0  0  0  0
 14 15  1  0  0  0  0
 15 16  1  0  0  0  0
 15 32  1  0  0  0  0
 15 33  1  0  0  0  0
 16 21  1  0  0  0  0
 16 17  1  0  0  0  0
 16 34  1  0  0  0  0
 17 18  1  0  0  0  0
 17 35  1  0  0  0  0
 17 36  1  0  0  0  0
 18 19  1  0  0  0  0
 18 23  1  0  0  0  0
 18 37  1  0  0  0  0
 19 20  1  0  0  0  0
 19 38  1  0  0  0  0
 19 39  1  0  0  0  0
 20 21  1  0  0  0  0
 20 22  1  0  0  0  0
 20 40  1  0  0  0  0
 21 41  1  0  0  0  0
 21 42  1  0  0  0  0
 22 43  1  0  0  0  0
 22 44  1  0  0  0  0
 23 45  1  0  0  0  0
 23 46  1  0  0  0  0
M  END
> <s_m_source_file>
AV-unprocessed.smi

> <i_m_source_file_index>
924

> <i_lp_mmshare_version>
43012

> <i_f3d_flags>
0

> <s_epik_input>
Tz1jMVtuSF1jKD1PKVtjSF1bY0hdbjFbQ0gyXUMoPU8pW05IXVtDSDJdQzIzW0NIMl1bQ0BIXTRbQ0gyXVtDQEBIXShbQ0gyXTMpW0NIMl1bQ0BIXShbQ0gyXTQpW0NIMl0y

> <s_epik_cmdline>
J2VwaWtfcHl0aG9uJywgJy1waCcsICc3LjAnLCAnLXRuJywgJzgnLCAnLW1hJywgJzIwMCcsICctbWV0YWxfYmluZGluZycsICctaW1hZScsICc8aW5maWxlLm1hZT4nLCAnLW9tYWUnLCAnPG91dGZpbGUubWFlPic=

> <r_lp_tautomer_probability>
0.999537

> <r_epik_Ionization_Penalty>
0.00304541

> <r_epik_Ionization_Penalty_Charging>
0.00304539

> <r_epik_Ionization_Penalty_Neutral>
1.85865e-08

> <r_epik_State_Penalty>
0.00214042

> <r_epik_Charging_Adjusted_Penalty>
0.00518582

> <i_epik_Tot_Q>
0

> <i_epik_Tot_abs_Q>
0

> <r_epik_Metal_State_Penalty>
0.361861

> <b_epik_Metal_Only>
0

> <s_lp_Force_Field>
OPLS_2005

> <r_lp_Energy>
33.277

> <b_lp_Chiralities_Consistent>
1

> <s_lp_Variant>
AV-unprocessed.smi:924-1

> <Gold.Version>
5.8.1

> <Gold.Id.Protein>
6NUR|6NUR_protein|mol2

> <Gold.PLP.Fitness>
37.0437

> <Gold.PLP.PLP>
-31.6942

> <Gold.PLP.part.hbond>
-2.0000

> <Gold.PLP.part.metal>
0.0000

> <Gold.PLP.part.buried>
-4.1584

> <Gold.PLP.part.nonpolar>
-25.0154

> <Gold.PLP.part.repulsive>
0.3365

> <Gold.PLP.ligand.clash>
0.0000

> <Gold.PLP.ligand.torsion>
0.3298

> <Gold.PLP.Chemscore.Hbond>
2.0000

> <Gold.PLP.Chemscore.CHOScore>
0.0000

> <Gold.PLP.Chemscore.Metal>
0.0000

> <Gold.Chemscore.Hbonds>
donor molecule, donor type, donor heavy atom, donor atom, acceptor molecule, acceptor atom, score
      L1  H     9    24       P1  7948  1.00
      P1  H  6896  6908       L1     1  0.96

> <Gold.PLP.Chemscore.Internal.Correction>
0.0091

> <Gold.Rescore>
     Score         DG    S(hbond)    S(metal)    S(lipo)     H(rot)  DE(clash)    DE(int)     intcor
     14.40     -16.54       1.94        0.00      81.71       1.94       0.17       1.97       ----

> <Gold.Chemscore.Fitness>
14.4010

> <Gold.Chemscore.DG>
-16.5435

> <Gold.Chemscore.ZeroCoef>
-5.4800

> <Gold.Chemscore.Hbond>
1.9380

> <Gold.Chemscore.Metal>
0.0000

> <Gold.Chemscore.Lipo>
81.7148

> <Gold.Chemscore.Internal_Hbond>
0.0000

> <Gold.Chemscore.DEClash>
0.1733

> <Gold.Chemscore.DEInternal>
1.9691

> <Gold.Chemscore.Rot>
1.9415

> <Gold.Chemscore.Internal.Correction>
   9.000000E+99

> <Gold.Chemscore.Hbonds>
donor molecule, donor type, donor heavy atom, donor atom, acceptor molecule, acceptor atom, score
      L1  H     9    24       P1  7948  0.55
      P1  H  6896  6908       L1     1  0.89

> <Gold.Chemscore.Hbond.Weighted>
-6.4730

> <Gold.Chemscore.Metal.Weighted>
-0.0000

> <Gold.Chemscore.Lipo.Weighted>
-9.5606

> <Gold.Chemscore.Internal_Hbond.Weighted>
0.0000

> <Gold.Chemscore.DEClash.Weighted>
0.1733

> <Gold.Chemscore.DEInternal.Weighted>
1.9691

> <Gold.Chemscore.Rot.Weighted>
4.9701

> <Gold.Chemscore.Internal.Correction.Weighted>
   9.000000E+99

> <Gold.Protein.RotatedTorsions>
[ 6907 6896 6895 6894 ] final  106.65 input  -60.11 | X-H torsion
[ 7974 7965 7964 7962 ] final  125.08 input  175.53 | X-H torsion
[ 8008 7997 7996 7995 ] final  -80.13 input   59.86 | X-H torsion
[ 10167 10162 10161 10158 ] final -135.88 input  -65.29 | X-H torsion
[ 10718 10713 10712 10709 ] final   87.97 input   66.30 | X-H torsion
[ 10763 10752 10751 10750 ] final -131.69 input  -60.55 | X-H torsion
[ 11005 11000 10999 10996 ] final  -83.77 input  -57.11 | X-H torsion

> <Gold.Protein.ActiveResidues>
 VAL166  LYS551  ARG553  GLY616  TRP617  ASP618  TYR619  PRO620  LYS621  CYS622 
 ASP623  PHE694  ASN695  SER759  ASP760  ASP761  ALA762  ILE779  LEU786  VAL792 
 PHE793  MET794  SER795  GLU796  ALA797  LYS798  CYS799  TRP800  GLU811  SER814 

> <Gold.Protein.RotatedAtoms>
  152.5185  133.9350  159.7598 H   0  0  0  0  0  0  0  0  0  0  0  0  # atno 6907 bound_to 6896
  150.9693  133.6353  159.2748 H   0  0  0  0  0  0  0  0  0  0  0  0  # atno 6908 bound_to 6896
  151.3570  135.0902  159.9475 H   0  0  0  0  0  0  0  0  0  0  0  0  # atno 6909 bound_to 6896
  145.0770  139.3686  143.4928 H   0  0  0  0  0  0  0  0  0  0  0  0  # atno 7974 bound_to 7965
  154.5853  140.0667  156.9162 H   0  0  0  0  0  0  0  0  0  0  0  0  # atno 8008 bound_to 7997
  155.2391  140.3343  155.4276 H   0  0  0  0  0  0  0  0  0  0  0  0  # atno 8009 bound_to 7997
  156.2218  140.1802  156.7443 H   0  0  0  0  0  0  0  0  0  0  0  0  # atno 8010 bound_to 7997
  139.8734  143.6929  152.2637 H   0  0  0  0  0  0  0  0  0  0  0  0  # atno 10167 bound_to 10162
  157.6945  131.0276  150.3204 H   0  0  0  0  0  0  0  0  0  0  0  0  # atno 10718 bound_to 10713
  154.8749  135.3822  154.4287 H   0  0  0  0  0  0  0  0  0  0  0  0  # atno 10763 bound_to 10752
  153.4984  135.7030  153.5850 H   0  0  0  0  0  0  0  0  0  0  0  0  # atno 10764 bound_to 10752
  153.4193  135.3905  155.2068 H   0  0  0  0  0  0  0  0  0  0  0  0  # atno 10765 bound_to 10752
  141.1655  133.7311  156.8770 H   0  0  0  0  0  0  0  0  0  0  0  0  # atno 11005 bound_to 11000
  146.3530  140.0543  142.8633 LP  0  0  0  0  0  0  0  0  0  0  0  0  # atno 17320 bound_to 7965
  145.1223  140.9470  143.4593 LP  0  0  0  0  0  0  0  0  0  0  0  0  # atno 17321 bound_to 7965
  139.7263  144.7592  151.0874 LP  0  0  0  0  0  0  0  0  0  0  0  0  # atno 17342 bound_to 10162
  140.7757  143.5144  150.9612 LP  0  0  0  0  0  0  0  0  0  0  0  0  # atno 17343 bound_to 10162
  156.3692  130.3860  149.7189 LP  0  0  0  0  0  0  0  0  0  0  0  0  # atno 17370 bound_to 10713
  156.4609  130.7951  151.2971 LP  0  0  0  0  0  0  0  0  0  0  0  0  # atno 17371 bound_to 10713
  140.1742  134.9079  157.2870 LP  0  0  0  0  0  0  0  0  0  0  0  0  # atno 17394 bound_to 11000
  140.2468  134.3730  155.7458 LP  0  0  0  0  0  0  0  0  0  0  0  0  # atno 17395 bound_to 11000

$$$$
