AV-unprocessed.smi:3031|AV-procd|sdf|11548|dock1
  -GOLD-   2272016503D 1   1.00000     0.00000
 Structure written by MMmdl.
 47 48  0  0  0  0  0  0  0  0  2 V2000
  151.9049  145.5795  159.8609 C   0  0  0  0  0  0  0  0  0  0  0  0
  151.7073  144.2466  159.1989 C   0  0  0  0  0  0  0  0  0  0  0  0
  152.5018  143.0736  159.3417 C   0  0  0  0  0  0  0  0  0  0  0  0
  152.0531  142.0578  158.6230 N   0  0  0  0  0  0  0  0  0  0  0  0
  150.9569  142.5432  158.0006 N   0  0  0  0  0  0  0  0  0  0  0  0
  150.1899  141.6863  157.1147 C   0  0  0  0  0  0  0  0  0  0  0  0
  151.0103  141.0867  155.9466 C   0  0  1  0  0  0  0  0  0  0  0  0
  151.8601  139.9137  156.4546 C   0  0  0  0  0  0  0  0  0  0  0  0
  150.1557  140.6130  154.8532 N   0  0  0  0  0  0  0  0  0  0  0  0
  149.0018  139.8058  155.2595 C   0  0  0  0  0  0  0  0  0  0  0  0
  148.2483  139.2196  154.0528 C   0  0  1  0  0  0  0  0  0  0  0  0
  149.1639  138.5484  153.2101 O   0  0  0  0  0  0  0  0  0  0  0  0
  147.0895  138.2815  154.4544 C   0  0  0  0  0  0  0  0  0  0  0  0
  146.7247  137.3320  153.3736 N   0  3  0  0  0  0  0  0  0  0  0  0
  145.8281  136.2504  153.8463 C   0  0  0  0  0  0  0  0  0  0  0  0
  145.5288  135.2624  152.7062 C   0  0  0  0  0  0  0  0  0  0  0  0
  144.9595  135.9605  151.6056 O   0  0  0  0  0  0  0  0  0  0  0  0
  145.8432  136.9462  151.0862 C   0  0  0  0  0  0  0  0  0  0  0  0
  146.1505  137.9895  152.1734 C   0  0  0  0  0  0  0  0  0  0  0  0
  150.7310  143.8647  158.3227 C   0  0  0  0  0  0  0  0  0  0  0  0
  152.9308  145.7130  160.2043 H   0  0  0  0  0  0  0  0  0  0  0  0
  151.2575  145.6945  160.7304 H   0  0  0  0  0  0  0  0  0  0  0  0
  151.6841  146.4044  159.1829 H   0  0  0  0  0  0  0  0  0  0  0  0
  153.3859  142.9307  159.9454 H   0  0  0  0  0  0  0  0  0  0  0  0
  149.7786  140.8814  157.7250 H   0  0  0  0  0  0  0  0  0  0  0  0
  149.3333  142.2428  156.7299 H   0  0  0  0  0  0  0  0  0  0  0  0
  151.7012  141.8421  155.5693 H   0  0  0  0  0  0  0  0  0  0  0  0
  152.5391  140.2337  157.2452 H   0  0  0  0  0  0  0  0  0  0  0  0
  152.4685  139.4926  155.6535 H   0  0  0  0  0  0  0  0  0  0  0  0
  151.2369  139.1134  156.8557 H   0  0  0  0  0  0  0  0  0  0  0  0
  149.8308  141.4058  154.3085 H   0  0  0  0  0  0  0  0  0  0  0  0
  149.3121  138.9785  155.8922 H   0  0  0  0  0  0  0  0  0  0  0  0
  148.3230  140.4062  155.8660 H   0  0  0  0  0  0  0  0  0  0  0  0
  147.8591  140.0637  153.4848 H   0  0  0  0  0  0  0  0  0  0  0  0
  149.4769  139.1587  152.5595 H   0  0  0  0  0  0  0  0  0  0  0  0
  147.3826  137.7225  155.3445 H   0  0  0  0  0  0  0  0  0  0  0  0
  146.2088  138.8603  154.7377 H   0  0  0  0  0  0  0  0  0  0  0  0
  146.2938  135.7183  154.6767 H   0  0  0  0  0  0  0  0  0  0  0  0
  144.8989  136.6823  154.2219 H   0  0  0  0  0  0  0  0  0  0  0  0
  146.4353  134.7419  152.3933 H   0  0  0  0  0  0  0  0  0  0  0  0
  144.8253  134.5012  153.0439 H   0  0  0  0  0  0  0  0  0  0  0  0
  146.7603  136.4774  150.7257 H   0  0  0  0  0  0  0  0  0  0  0  0
  145.3722  137.4260  150.2278 H   0  0  0  0  0  0  0  0  0  0  0  0
  145.2362  138.5186  152.4476 H   0  0  0  0  0  0  0  0  0  0  0  0
  146.8401  138.7323  151.7745 H   0  0  0  0  0  0  0  0  0  0  0  0
  149.8979  144.4156  157.9116 H   0  0  0  0  0  0  0  0  0  0  0  0
  147.5838  136.8829  153.0887 H   0  0  0  0  0  0  0  0  0  0  0  0
  1  2  1  0  0  0  0
  1 21  1  0  0  0  0
  1 22  1  0  0  0  0
  1 23  1  0  0  0  0
  2 20  2  0  0  0  0
  2  3  1  0  0  0  0
  3  4  2  0  0  0  0
  3 24  1  0  0  0  0
  4  5  1  0  0  0  0
  5  6  1  0  0  0  0
  5 20  1  0  0  0  0
  6  7  1  0  0  0  0
  6 25  1  0  0  0  0
  6 26  1  0  0  0  0
  7  8  1  0  0  0  0
  7  9  1  0  0  0  0
  7 27  1  0  0  0  0
  8 28  1  0  0  0  0
  8 29  1  0  0  0  0
  8 30  1  0  0  0  0
  9 10  1  0  0  0  0
  9 31  1  0  0  0  0
 10 11  1  0  0  0  0
 10 32  1  0  0  0  0
 10 33  1  0  0  0  0
 11 12  1  0  0  0  0
 11 13  1  0  0  0  0
 11 34  1  0  0  0  0
 12 35  1  0  0  0  0
 13 14  1  0  0  0  0
 13 36  1  0  0  0  0
 13 37  1  0  0  0  0
 14 19  1  0  0  0  0
 14 15  1  0  0  0  0
 14 47  1  0  0  0  0
 15 16  1  0  0  0  0
 15 38  1  0  0  0  0
 15 39  1  0  0  0  0
 16 17  1  0  0  0  0
 16 40  1  0  0  0  0
 16 41  1  0  0  0  0
 17 18  1  0  0  0  0
 18 19  1  0  0  0  0
 18 42  1  0  0  0  0
 18 43  1  0  0  0  0
 19 44  1  0  0  0  0
 19 45  1  0  0  0  0
 20 46  1  0  0  0  0
M  CHG  1  14   1
M  END
> <s_m_source_file>
AV-unprocessed.smi

> <i_m_source_file_index>
3031

> <i_lp_mmshare_version>
43012

> <i_f3d_flags>
0

> <s_epik_input>
W0NIM11jMVtjSF1ubihbY0hdMSlbQ0gyXVtDQEhdKFtDSDNdKVtOSF1bQ0gyXVtDQEhdKFtPSF0pW0NIMl1OMltDSDJdW0NIMl1PW0NIMl1bQ0gyXTI=

> <s_epik_cmdline>
J2VwaWtfcHl0aG9uJywgJy1waCcsICc3LjAnLCAnLXRuJywgJzgnLCAnLW1hJywgJzIwMCcsICctbWV0YWxfYmluZGluZycsICctaW1hZScsICc8aW5maWxlLm1hZT4nLCAnLW9tYWUnLCAnPG91dGZpbGUubWFlPic=

> <r_epik_Ionization_Penalty>
0.467051

> <r_epik_Ionization_Penalty_Charging>
0.202493

> <r_epik_Ionization_Penalty_Neutral>
0.264558

> <r_epik_State_Penalty>
1.34287

> <r_epik_Charging_Adjusted_Penalty>
1.54537

> <i_epik_Tot_Q>
1

> <i_epik_Tot_abs_Q>
1

> <r_epik_Metal_State_Penalty>
1.34281

> <b_epik_Metal_Only>
0

> <s_lp_Force_Field>
OPLS_2005

> <r_lp_Energy>
30.2263

> <b_lp_Chiralities_Consistent>
1

> <s_lp_Variant>
AV-unprocessed.smi:3031-8

> <Gold.Version>
5.8.1

> <Gold.Id.Protein>
6NUR|6NUR_protein|mol2

> <Gold.PLP.Fitness>
49.8400

> <Gold.PLP.PLP>
-38.1857

> <Gold.PLP.part.hbond>
-3.7187

> <Gold.PLP.part.metal>
0.0000

> <Gold.PLP.part.buried>
-1.5683

> <Gold.PLP.part.nonpolar>
-33.7441

> <Gold.PLP.part.repulsive>
0.2321

> <Gold.PLP.ligand.clash>
0.0000

> <Gold.PLP.ligand.torsion>
0.6099

> <Gold.PLP.Chemscore.Hbond>
3.0000

> <Gold.PLP.Chemscore.CHOScore>
1.1313

> <Gold.PLP.Chemscore.Metal>
0.0000

> <Gold.Chemscore.Hbonds>
donor molecule, donor type, donor heavy atom, donor atom, acceptor molecule, acceptor atom, score
      L1  H    12    35       P1  7957  1.00
      L1  H    14    47       P1  7948  2.00
      L1  C    20    46       P1  8028  0.75
      L1  C    20    46       P1  8029  0.38

> <Gold.PLP.Chemscore.Internal.Correction>
0.4801

> <Gold.Rescore>
     Score         DG    S(hbond)    S(metal)    S(lipo)     H(rot)  DE(clash)    DE(int)     intcor
     15.39     -16.76       1.94        0.00      99.20       2.65       0.78       0.60       ----

> <Gold.Chemscore.Fitness>
15.3882

> <Gold.Chemscore.DG>
-16.7611

> <Gold.Chemscore.ZeroCoef>
-5.4800

> <Gold.Chemscore.Hbond>
1.9353

> <Gold.Chemscore.Metal>
0.0000

> <Gold.Chemscore.Lipo>
99.2013

> <Gold.Chemscore.Internal_Hbond>
0.0000

> <Gold.Chemscore.DEClash>
0.7773

> <Gold.Chemscore.DEInternal>
0.5956

> <Gold.Chemscore.Rot>
2.6521

> <Gold.Chemscore.Internal.Correction>
   9.000000E+99

> <Gold.Chemscore.Hbonds>
donor molecule, donor type, donor heavy atom, donor atom, acceptor molecule, acceptor atom, score
      L1  H    12    35       P1  7957  0.97
      L1  H    14    47       P1  7948  0.98

> <Gold.Chemscore.Hbond.Weighted>
-6.4639

> <Gold.Chemscore.Metal.Weighted>
-0.0000

> <Gold.Chemscore.Lipo.Weighted>
-11.6066

> <Gold.Chemscore.Internal_Hbond.Weighted>
0.0000

> <Gold.Chemscore.DEClash.Weighted>
0.7773

> <Gold.Chemscore.DEInternal.Weighted>
0.5956

> <Gold.Chemscore.Rot.Weighted>
6.7894

> <Gold.Chemscore.Internal.Correction.Weighted>
   9.000000E+99

> <Gold.Protein.RotatedTorsions>
[ 6907 6896 6895 6894 ] final  164.44 input  -60.11 | X-H torsion
[ 7974 7965 7964 7962 ] final   87.96 input  175.53 | X-H torsion
[ 8008 7997 7996 7995 ] final -120.04 input   59.86 | X-H torsion
[ 10167 10162 10161 10158 ] final   29.63 input  -65.29 | X-H torsion
[ 10718 10713 10712 10709 ] final   45.06 input   66.30 | X-H torsion
[ 10763 10752 10751 10750 ] final   66.66 input  -60.55 | X-H torsion
[ 11005 11000 10999 10996 ] final  -12.09 input  -57.11 | X-H torsion

> <Gold.Protein.ActiveResidues>
 VAL166  LYS551  ARG553  GLY616  TRP617  ASP618  TYR619  PRO620  LYS621  CYS622 
 ASP623  PHE694  ASN695  SER759  ASP760  ASP761  ALA762  ILE779  LEU786  VAL792 
 PHE793  MET794  SER795  GLU796  ALA797  LYS798  CYS799  TRP800  GLU811  SER814 

> <Gold.Protein.RotatedAtoms>
  151.9098  133.3558  159.3859 H   0  0  0  0  0  0  0  0  0  0  0  0  # atno 6907 bound_to 6896
  150.7060  134.4744  159.5450 H   0  0  0  0  0  0  0  0  0  0  0  0  # atno 6908 bound_to 6896
  152.2348  134.8287  160.0519 H   0  0  0  0  0  0  0  0  0  0  0  0  # atno 6909 bound_to 6896
  145.5520  139.2296  143.2507 H   0  0  0  0  0  0  0  0  0  0  0  0  # atno 7974 bound_to 7965
  155.1254  140.0399  157.2761 H   0  0  0  0  0  0  0  0  0  0  0  0  # atno 8008 bound_to 7997
  154.6582  140.2585  155.7112 H   0  0  0  0  0  0  0  0  0  0  0  0  # atno 8009 bound_to 7997
  156.2607  140.2822  156.1043 H   0  0  0  0  0  0  0  0  0  0  0  0  # atno 8010 bound_to 7997
  140.4749  144.0706  150.6248 H   0  0  0  0  0  0  0  0  0  0  0  0  # atno 10167 bound_to 10162
  157.4335  130.8039  149.7625 H   0  0  0  0  0  0  0  0  0  0  0  0  # atno 10718 bound_to 10713
  153.0150  135.5312  154.6858 H   0  0  0  0  0  0  0  0  0  0  0  0  # atno 10763 bound_to 10752
  154.6006  135.2868  155.0542 H   0  0  0  0  0  0  0  0  0  0  0  0  # atno 10764 bound_to 10752
  154.1600  135.6549  153.5036 H   0  0  0  0  0  0  0  0  0  0  0  0  # atno 10765 bound_to 10752
  140.7621  133.8506  155.9134 H   0  0  0  0  0  0  0  0  0  0  0  0  # atno 11005 bound_to 11000
  146.1910  140.6343  142.9145 LP  0  0  0  0  0  0  0  0  0  0  0  0  # atno 17320 bound_to 7965
  144.7524  140.5225  143.6792 LP  0  0  0  0  0  0  0  0  0  0  0  0  # atno 17321 bound_to 7965
  140.3931  143.2742  152.0037 LP  0  0  0  0  0  0  0  0  0  0  0  0  # atno 17342 bound_to 10162
  139.4824  144.6061  151.7519 LP  0  0  0  0  0  0  0  0  0  0  0  0  # atno 17343 bound_to 10162
  155.9922  130.3932  150.2953 LP  0  0  0  0  0  0  0  0  0  0  0  0  # atno 17370 bound_to 10713
  157.1112  131.0222  151.3047 LP  0  0  0  0  0  0  0  0  0  0  0  0  # atno 17371 bound_to 10713
  140.9653  134.1602  157.4621 LP  0  0  0  0  0  0  0  0  0  0  0  0  # atno 17394 bound_to 11000
  139.8769  134.9959  156.5769 LP  0  0  0  0  0  0  0  0  0  0  0  0  # atno 17395 bound_to 11000

$$$$
