AV-unprocessed.smi:1265|AV-procd|sdf|5317|dock5
  -GOLD-   22720 4443D 1   1.00000     0.00000
 Structure written by MMmdl.
 45 47  0  0  0  0  0  0  0  0  2 V2000
  145.4240  138.0683  153.8079 O   0  0  0  0  0  0  0  0  0  0  0  0
  146.4353  137.6757  153.2276 C   0  0  0  0  0  0  0  0  0  0  0  0
  146.5237  136.4854  152.6175 N   0  0  0  0  0  0  0  0  0  0  0  0
  145.4696  135.4734  152.5535 C   0  0  0  0  0  0  0  0  0  0  0  0
  146.0261  134.0470  152.2315 C   0  0  1  0  0  0  0  0  0  0  0  0
  147.3016  133.8057  152.9750 N   0  0  0  0  0  0  0  0  0  0  0  0
  147.2372  133.9588  154.4361 C   0  0  0  0  0  0  0  0  0  0  0  0
  148.6082  133.7694  155.1081 C   0  0  0  0  0  0  0  0  0  0  0  0
  149.1427  132.4983  154.7646 O   0  0  0  0  0  0  0  0  0  0  0  0
  149.2962  132.3445  153.3606 C   0  0  0  0  0  0  0  0  0  0  0  0
  147.9327  132.5141  152.6699 C   0  0  0  0  0  0  0  0  0  0  0  0
  144.9115  133.0130  152.5651 C   0  0  0  0  0  0  0  0  0  0  0  0
  143.7816  133.1383  151.5372 C   0  0  0  0  0  0  0  0  0  0  0  0
  144.5346  133.6215  149.9658 S   0  0  0  0  0  0  0  0  0  0  0  0
  146.1700  133.9207  150.6929 C   0  0  0  0  0  0  0  0  0  0  0  0
  147.5854  138.3622  153.1102 N   0  0  0  0  0  0  0  0  0  0  0  0
  147.9139  139.6633  153.5833 C   0  0  0  0  0  0  0  0  0  0  0  0
  149.2138  139.8490  154.1053 C   0  0  0  0  0  0  0  0  0  0  0  0
  149.5954  141.1142  154.5961 C   0  0  0  0  0  0  0  0  0  0  0  0
  148.7163  142.1382  154.5695 N   0  3  0  0  0  0  0  0  0  0  0  0
  147.4610  142.0090  154.0899 C   0  0  0  0  0  0  0  0  0  0  0  0
  147.0219  140.7673  153.5867 C   0  0  0  0  0  0  0  0  0  0  0  0
  147.3976  136.2441  152.1736 H   0  0  0  0  0  0  0  0  0  0  0  0
  144.8824  135.4796  153.4714 H   0  0  0  0  0  0  0  0  0  0  0  0
  144.7529  135.7933  151.7986 H   0  0  0  0  0  0  0  0  0  0  0  0
  146.8946  134.9533  154.7118 H   0  0  0  0  0  0  0  0  0  0  0  0
  146.5366  133.2450  154.8677 H   0  0  0  0  0  0  0  0  0  0  0  0
  149.2994  134.5576  154.8049 H   0  0  0  0  0  0  0  0  0  0  0  0
  148.5092  133.8311  156.1920 H   0  0  0  0  0  0  0  0  0  0  0  0
  150.0151  133.0727  152.9818 H   0  0  0  0  0  0  0  0  0  0  0  0
  149.7042  131.3550  153.1540 H   0  0  0  0  0  0  0  0  0  0  0  0
  147.2772  131.6975  152.9745 H   0  0  0  0  0  0  0  0  0  0  0  0
  148.0993  132.4010  151.6012 H   0  0  0  0  0  0  0  0  0  0  0  0
  145.2755  131.9935  152.4616 H   0  0  0  0  0  0  0  0  0  0  0  0
  144.5400  133.1021  153.5858 H   0  0  0  0  0  0  0  0  0  0  0  0
  143.2283  132.2053  151.4282 H   0  0  0  0  0  0  0  0  0  0  0  0
  143.0670  133.9048  151.8371 H   0  0  0  0  0  0  0  0  0  0  0  0
  146.6283  134.8006  150.2405 H   0  0  0  0  0  0  0  0  0  0  0  0
  146.7862  133.0667  150.4174 H   0  0  0  0  0  0  0  0  0  0  0  0
  148.3078  137.9092  152.5698 H   0  0  0  0  0  0  0  0  0  0  0  0
  149.9188  139.0304  154.1283 H   0  0  0  0  0  0  0  0  0  0  0  0
  150.5695  141.3353  155.0073 H   0  0  0  0  0  0  0  0  0  0  0  0
  146.8461  142.8965  154.1270 H   0  0  0  0  0  0  0  0  0  0  0  0
  146.0090  140.6929  153.2243 H   0  0  0  0  0  0  0  0  0  0  0  0
  149.0113  143.0462  154.9298 H   0  0  0  0  0  0  0  0  0  0  0  0
  1  2  2  0  0  0  0
  2  3  1  0  0  0  0
  2 16  1  0  0  0  0
  3  4  1  0  0  0  0
  3 23  1  0  0  0  0
  4  5  1  0  0  0  0
  4 24  1  0  0  0  0
  4 25  1  0  0  0  0
  5 15  1  0  0  0  0
  5  6  1  0  0  0  0
  5 12  1  0  0  0  0
  6 11  1  0  0  0  0
  6  7  1  0  0  0  0
  7  8  1  0  0  0  0
  7 26  1  0  0  0  0
  7 27  1  0  0  0  0
  8  9  1  0  0  0  0
  8 28  1  0  0  0  0
  8 29  1  0  0  0  0
  9 10  1  0  0  0  0
 10 11  1  0  0  0  0
 10 30  1  0  0  0  0
 10 31  1  0  0  0  0
 11 32  1  0  0  0  0
 11 33  1  0  0  0  0
 12 13  1  0  0  0  0
 12 34  1  0  0  0  0
 12 35  1  0  0  0  0
 13 14  1  0  0  0  0
 13 36  1  0  0  0  0
 13 37  1  0  0  0  0
 14 15  1  0  0  0  0
 15 38  1  0  0  0  0
 15 39  1  0  0  0  0
 16 17  1  0  0  0  0
 16 40  1  0  0  0  0
 17 22  1  0  0  0  0
 17 18  2  0  0  0  0
 18 19  1  0  0  0  0
 18 41  1  0  0  0  0
 19 20  2  0  0  0  0
 19 42  1  0  0  0  0
 20 21  1  0  0  0  0
 20 45  1  0  0  0  0
 21 22  2  0  0  0  0
 21 43  1  0  0  0  0
 22 44  1  0  0  0  0
M  CHG  1  20   1
M  END
> <s_m_source_file>
AV-unprocessed.smi

> <i_m_source_file_index>
1265

> <i_lp_mmshare_version>
43012

> <i_f3d_flags>
0

> <s_epik_input>
W2NIXTFbY0hdbltjSF1bY0hdYzFbTkhdQyg9TylbTkhdW0NIMl1bQ0BdMihbQ0gyXVtDSDJdU1tDSDJdMilOM1tDSDJdW0NIMl1PW0NIMl1bQ0gyXTM=

> <s_epik_cmdline>
J2VwaWtfcHl0aG9uJywgJy1waCcsICc3LjAnLCAnLXRuJywgJzgnLCAnLW1hJywgJzIwMCcsICctbWV0YWxfYmluZGluZycsICctaW1hZScsICc8aW5maWxlLm1hZT4nLCAnLW9tYWUnLCAnPG91dGZpbGUubWFlPic=

> <r_epik_Ionization_Penalty>
1.06168

> <r_epik_Ionization_Penalty_Charging>
1.04215

> <r_epik_Ionization_Penalty_Neutral>
0.019527

> <r_epik_State_Penalty>
1.12733

> <r_epik_Charging_Adjusted_Penalty>
2.16948

> <i_epik_Tot_Q>
1

> <i_epik_Tot_abs_Q>
1

> <r_epik_Metal_State_Penalty>
1.22116

> <b_epik_Metal_Only>
0

> <s_lp_Force_Field>
OPLS_2005

> <r_lp_Energy>
64.97

> <b_lp_Chiralities_Consistent>
1

> <s_lp_Variant>
AV-unprocessed.smi:1265-3

> <Gold.Version>
5.8.1

> <Gold.Id.Protein>
6NUR|6NUR_protein|mol2

> <Gold.PLP.Fitness>
43.7148

> <Gold.PLP.PLP>
-33.1755

> <Gold.PLP.part.hbond>
-3.0000

> <Gold.PLP.part.metal>
0.0000

> <Gold.PLP.part.buried>
-2.7882

> <Gold.PLP.part.nonpolar>
-29.0437

> <Gold.PLP.part.repulsive>
0.5723

> <Gold.PLP.ligand.clash>
0.0000

> <Gold.PLP.ligand.torsion>
0.7336

> <Gold.PLP.Chemscore.Hbond>
3.9760

> <Gold.PLP.Chemscore.CHOScore>
0.0000

> <Gold.PLP.Chemscore.Metal>
0.0000

> <Gold.Chemscore.Hbonds>
donor molecule, donor type, donor heavy atom, donor atom, acceptor molecule, acceptor atom, score
      L1  H     3    23       P1  7948  1.00
      L1  H    16    40       P1  7948  0.94
      L1  H    20    45       P1  8028  2.00

> <Gold.PLP.Chemscore.Internal.Correction>
0.0785

> <Gold.Rescore>
     Score         DG    S(hbond)    S(metal)    S(lipo)     H(rot)  DE(clash)    DE(int)     intcor
     20.75     -21.67       2.93        0.00      86.88       1.47       0.17       0.75       ----

> <Gold.Chemscore.Fitness>
20.7501

> <Gold.Chemscore.DG>
-21.6698

> <Gold.Chemscore.ZeroCoef>
-5.4800

> <Gold.Chemscore.Hbond>
2.9339

> <Gold.Chemscore.Metal>
0.0000

> <Gold.Chemscore.Lipo>
86.8800

> <Gold.Chemscore.Internal_Hbond>
0.0000

> <Gold.Chemscore.DEClash>
0.1716

> <Gold.Chemscore.DEInternal>
0.7482

> <Gold.Chemscore.Rot>
1.4743

> <Gold.Chemscore.Internal.Correction>
   9.000000E+99

> <Gold.Chemscore.Hbonds>
donor molecule, donor type, donor heavy atom, donor atom, acceptor molecule, acceptor atom, score
      L1  H     3    23       P1  7948  0.96
      L1  H    16    40       P1  7948  0.91
      L1  H    20    45       P1  8028  0.99

> <Gold.Chemscore.Hbond.Weighted>
-9.7991

> <Gold.Chemscore.Metal.Weighted>
-0.0000

> <Gold.Chemscore.Lipo.Weighted>
-10.1650

> <Gold.Chemscore.Internal_Hbond.Weighted>
0.0000

> <Gold.Chemscore.DEClash.Weighted>
0.1716

> <Gold.Chemscore.DEInternal.Weighted>
0.7482

> <Gold.Chemscore.Rot.Weighted>
3.7742

> <Gold.Chemscore.Internal.Correction.Weighted>
   9.000000E+99

> <Gold.Protein.RotatedTorsions>
[ 6907 6896 6895 6894 ] final -123.58 input  -60.11 | X-H torsion
[ 7974 7965 7964 7962 ] final   80.66 input  175.53 | X-H torsion
[ 8008 7997 7996 7995 ] final  170.21 input   59.86 | X-H torsion
[ 10167 10162 10161 10158 ] final  159.06 input  -65.29 | X-H torsion
[ 10718 10713 10712 10709 ] final -143.06 input   66.30 | X-H torsion
[ 10763 10752 10751 10750 ] final -136.49 input  -60.55 | X-H torsion
[ 11005 11000 10999 10996 ] final  118.02 input  -57.11 | X-H torsion

> <Gold.Protein.ActiveResidues>
 VAL166  LYS551  ARG553  GLY616  TRP617  ASP618  TYR619  PRO620  LYS621  CYS622 
 ASP623  PHE694  ASN695  SER759  ASP760  ASP761  ALA762  ILE779  LEU786  VAL792 
 PHE793  MET794  SER795  GLU796  ALA797  LYS798  CYS799  TRP800  GLU811  SER814 

> <Gold.Protein.RotatedAtoms>
  150.8684  133.7540  159.2968 H   0  0  0  0  0  0  0  0  0  0  0  0  # atno 6907 bound_to 6896
  151.5160  135.1064  159.9876 H   0  0  0  0  0  0  0  0  0  0  0  0  # atno 6908 bound_to 6896
  152.4678  133.7916  159.6961 H   0  0  0  0  0  0  0  0  0  0  0  0  # atno 6909 bound_to 6896
  145.6483  139.2441  143.1991 H   0  0  0  0  0  0  0  0  0  0  0  0  # atno 7974 bound_to 7965
  156.1386  140.1544  156.8956 H   0  0  0  0  0  0  0  0  0  0  0  0  # atno 8008 bound_to 7997
  154.4968  140.0836  156.7752 H   0  0  0  0  0  0  0  0  0  0  0  0  # atno 8009 bound_to 7997
  155.4121  140.3419  155.4267 H   0  0  0  0  0  0  0  0  0  0  0  0  # atno 8010 bound_to 7997
  139.4830  144.4766  151.8503 H   0  0  0  0  0  0  0  0  0  0  0  0  # atno 10167 bound_to 10162
  156.3533  130.7700  151.1856 H   0  0  0  0  0  0  0  0  0  0  0  0  # atno 10718 bound_to 10713
  154.8682  135.3671  154.5069 H   0  0  0  0  0  0  0  0  0  0  0  0  # atno 10763 bound_to 10752
  153.5707  135.7021  153.5511 H   0  0  0  0  0  0  0  0  0  0  0  0  # atno 10764 bound_to 10752
  153.3545  135.4063  155.1634 H   0  0  0  0  0  0  0  0  0  0  0  0  # atno 10765 bound_to 10752
  139.9094  134.9616  156.7439 H   0  0  0  0  0  0  0  0  0  0  0  0  # atno 11005 bound_to 11000
  146.1224  140.7291  142.9451 LP  0  0  0  0  0  0  0  0  0  0  0  0  # atno 17320 bound_to 7965
  144.7132  140.4114  143.7065 LP  0  0  0  0  0  0  0  0  0  0  0  0  # atno 17321 bound_to 7965
  140.4238  144.2207  150.5887 LP  0  0  0  0  0  0  0  0  0  0  0  0  # atno 17342 bound_to 10162
  140.4847  143.2367  151.8905 LP  0  0  0  0  0  0  0  0  0  0  0  0  # atno 17343 bound_to 10162
  157.7464  131.0421  150.4678 LP  0  0  0  0  0  0  0  0  0  0  0  0  # atno 17370 bound_to 10713
  156.4877  130.4088  149.6424 LP  0  0  0  0  0  0  0  0  0  0  0  0  # atno 17371 bound_to 10713
  140.6828  133.9460  155.7920 LP  0  0  0  0  0  0  0  0  0  0  0  0  # atno 17394 bound_to 11000
  141.0498  134.0501  157.3798 LP  0  0  0  0  0  0  0  0  0  0  0  0  # atno 17395 bound_to 11000

$$$$
