AV-unprocessed.smi:793|AV-procd|sdf|3753|dock8
  -GOLD-   22720 1183D 1   1.00000     0.00000
 Structure written by MMmdl.
 39 40  0  0  0  0  0  0  0  0  1 V2000
  150.7615  137.8261  155.1409 C   0  0  0  0  0  0  0  0  0  0  0  0
  152.1837  137.8999  155.7106 C   0  0  0  0  0  0  0  0  0  0  0  0
  152.2372  138.5780  157.0925 C   0  0  1  0  0  0  0  0  0  0  0  0
  153.5908  138.5446  157.5427 O   0  0  0  0  0  0  0  0  0  0  0  0
  154.0518  137.3032  158.0724 C   0  0  0  0  0  0  0  0  0  0  0  0
  153.3062  136.9769  159.3714 C   0  0  0  0  0  0  0  0  0  0  0  0
  154.0175  137.7731  160.4740 C   0  0  0  0  0  0  0  0  0  0  0  0
  155.3752  138.1991  159.8964 C   0  0  0  0  0  0  0  0  0  0  0  0
  155.4936  137.5016  158.5388 C   0  0  0  0  0  0  0  0  0  0  0  0
  151.7320  140.0292  157.0274 C   0  0  0  0  0  0  0  0  0  0  0  0
  151.1597  140.4246  156.0122 O   0  0  0  0  0  0  0  0  0  0  0  0
  151.9756  140.7742  158.1235 N   0  0  0  0  0  0  0  0  0  0  0  0
  151.6732  142.1224  158.3753 C   0  0  0  0  0  0  0  0  0  0  0  0
  150.7902  142.8845  157.6799 C   0  0  0  0  0  0  0  0  0  0  0  0
  150.5263  144.2165  157.9662 N   0  0  0  0  0  0  0  0  0  0  0  0
  151.1934  144.8211  159.0192 C   0  0  0  0  0  0  0  0  0  0  0  0
  152.0964  144.1795  159.7862 C   0  0  0  0  0  0  0  0  0  0  0  0
  152.4045  142.7588  159.5071 C   0  0  0  0  0  0  0  0  0  0  0  0
  153.2276  142.1439  160.1850 O   0  0  0  0  0  0  0  0  0  0  0  0
  150.7618  137.3535  154.1586 H   0  0  0  0  0  0  0  0  0  0  0  0
  150.3290  138.8209  155.0315 H   0  0  0  0  0  0  0  0  0  0  0  0
  150.1054  137.2447  155.7894 H   0  0  0  0  0  0  0  0  0  0  0  0
  152.5983  136.8926  155.7716 H   0  0  0  0  0  0  0  0  0  0  0  0
  152.8119  138.4482  155.0069 H   0  0  0  0  0  0  0  0  0  0  0  0
  151.6122  138.0042  157.7800 H   0  0  0  0  0  0  0  0  0  0  0  0
  153.9873  136.4945  157.3423 H   0  0  0  0  0  0  0  0  0  0  0  0
  152.2399  137.1972  159.3220 H   0  0  0  0  0  0  0  0  0  0  0  0
  153.4050  135.9110  159.5810 H   0  0  0  0  0  0  0  0  0  0  0  0
  153.4354  138.6539  160.7475 H   0  0  0  0  0  0  0  0  0  0  0  0
  154.1362  137.1687  161.3739 H   0  0  0  0  0  0  0  0  0  0  0  0
  155.3862  139.2804  159.7542 H   0  0  0  0  0  0  0  0  0  0  0  0
  156.2050  137.9481  160.5574 H   0  0  0  0  0  0  0  0  0  0  0  0
  155.9682  136.5285  158.6720 H   0  0  0  0  0  0  0  0  0  0  0  0
  156.0951  138.0659  157.8254 H   0  0  0  0  0  0  0  0  0  0  0  0
  152.4394  140.3019  158.8862 H   0  0  0  0  0  0  0  0  0  0  0  0
  150.2152  142.5307  156.8398 H   0  0  0  0  0  0  0  0  0  0  0  0
  150.9277  145.8566  159.1749 H   0  0  0  0  0  0  0  0  0  0  0  0
  152.6009  144.6779  160.6009 H   0  0  0  0  0  0  0  0  0  0  0  0
  149.8577  144.7361  157.4149 H   0  0  0  0  0  0  0  0  0  0  0  0
  1  2  1  0  0  0  0
  1 20  1  0  0  0  0
  1 21  1  0  0  0  0
  1 22  1  0  0  0  0
  2  3  1  0  0  0  0
  2 23  1  0  0  0  0
  2 24  1  0  0  0  0
  3  4  1  0  0  0  0
  3 10  1  0  0  0  0
  3 25  1  0  0  0  0
  4  5  1  0  0  0  0
  5  9  1  0  0  0  0
  5  6  1  0  0  0  0
  5 26  1  0  0  0  0
  6  7  1  0  0  0  0
  6 27  1  0  0  0  0
  6 28  1  0  0  0  0
  7  8  1  0  0  0  0
  7 29  1  0  0  0  0
  7 30  1  0  0  0  0
  8  9  1  0  0  0  0
  8 31  1  0  0  0  0
  8 32  1  0  0  0  0
  9 33  1  0  0  0  0
  9 34  1  0  0  0  0
 10 11  2  0  0  0  0
 10 12  1  0  0  0  0
 12 35  1  0  0  0  0
 12 13  1  0  0  0  0
 13 18  1  0  0  0  0
 13 14  2  0  0  0  0
 14 36  1  0  0  0  0
 14 15  1  0  0  0  0
 15 39  1  0  0  0  0
 15 16  1  0  0  0  0
 16 37  1  0  0  0  0
 16 17  2  0  0  0  0
 17 18  1  0  0  0  0
 17 38  1  0  0  0  0
 18 19  2  0  0  0  0
M  END
> <s_m_source_file>
AV-unprocessed.smi

> <i_m_source_file_index>
793

> <i_lp_mmshare_version>
43012

> <i_f3d_flags>
0

> <s_epik_input>
W0NIMl0xW0NIMl1bQ0gyXVtDSDJdW0NIXTFPW0NAQEhdKFtDSDJdW0NIM10pQyg9TylbTkhdYzJbY0hdbltjSF1bY0hdYzJbT0hd

> <s_epik_cmdline>
J2VwaWtfcHl0aG9uJywgJy1waCcsICc3LjAnLCAnLXRuJywgJzgnLCAnLW1hJywgJzIwMCcsICctbWV0YWxfYmluZGluZycsICctaW1hZScsICc8aW5maWxlLm1hZT4nLCAnLW9tYWUnLCAnPG91dGZpbGUubWFlPic=

> <r_lp_tautomer_probability>
1

> <r_epik_Ionization_Penalty>
0.000234492

> <r_epik_Ionization_Penalty_Charging>
0.000234447

> <r_epik_Ionization_Penalty_Neutral>
4.48517e-08

> <r_epik_State_Penalty>
-0

> <r_epik_Charging_Adjusted_Penalty>
0.000234447

> <i_epik_Tot_Q>
0

> <i_epik_Tot_abs_Q>
0

> <r_epik_Metal_State_Penalty>
0.110344

> <b_epik_Metal_Only>
0

> <s_lp_Force_Field>
OPLS_2005

> <r_lp_Energy>
26.0672

> <b_lp_Chiralities_Consistent>
1

> <s_lp_Variant>
AV-unprocessed.smi:793-2

> <Gold.Version>
5.8.1

> <Gold.Id.Protein>
6NUR|6NUR_protein|mol2

> <Gold.PLP.Fitness>
41.9030

> <Gold.PLP.PLP>
-33.9989

> <Gold.PLP.part.hbond>
-3.0495

> <Gold.PLP.part.metal>
0.0000

> <Gold.PLP.part.buried>
-4.4343

> <Gold.PLP.part.nonpolar>
-26.5120

> <Gold.PLP.part.repulsive>
0.1891

> <Gold.PLP.ligand.clash>
0.0000

> <Gold.PLP.ligand.torsion>
0.4901

> <Gold.PLP.Chemscore.Hbond>
2.2720

> <Gold.PLP.Chemscore.CHOScore>
0.6512

> <Gold.PLP.Chemscore.Metal>
0.0000

> <Gold.Chemscore.Hbonds>
donor molecule, donor type, donor heavy atom, donor atom, acceptor molecule, acceptor atom, score
      L1  H    15    39       P1  8028  0.57
      P1  H  7997  8009       L1     4  0.94
      L1  C    14    36       P1  8028  0.16

> <Gold.PLP.Chemscore.Internal.Correction>
0.1146

> <Gold.Rescore>
     Score         DG    S(hbond)    S(metal)    S(lipo)     H(rot)  DE(clash)    DE(int)     intcor
     15.43     -16.16       1.54        0.00      82.40       1.61       0.05       0.67       ----

> <Gold.Chemscore.Fitness>
15.4333

> <Gold.Chemscore.DG>
-16.1553

> <Gold.Chemscore.ZeroCoef>
-5.4800

> <Gold.Chemscore.Hbond>
1.5407

> <Gold.Chemscore.Metal>
0.0000

> <Gold.Chemscore.Lipo>
82.4025

> <Gold.Chemscore.Internal_Hbond>
0.0000

> <Gold.Chemscore.DEClash>
0.0485

> <Gold.Chemscore.DEInternal>
0.6735

> <Gold.Chemscore.Rot>
1.6061

> <Gold.Chemscore.Internal.Correction>
   9.000000E+99

> <Gold.Chemscore.Hbonds>
donor molecule, donor type, donor heavy atom, donor atom, acceptor molecule, acceptor atom, score
      L1  H    15    39       P1  8028  0.05
      P1  H  7997  8009       L1     4  0.50

> <Gold.Chemscore.Hbond.Weighted>
-5.1458

> <Gold.Chemscore.Metal.Weighted>
-0.0000

> <Gold.Chemscore.Lipo.Weighted>
-9.6411

> <Gold.Chemscore.Internal_Hbond.Weighted>
0.0000

> <Gold.Chemscore.DEClash.Weighted>
0.0485

> <Gold.Chemscore.DEInternal.Weighted>
0.6735

> <Gold.Chemscore.Rot.Weighted>
4.1116

> <Gold.Chemscore.Internal.Correction.Weighted>
   9.000000E+99

> <Gold.Protein.RotatedTorsions>
[ 6907 6896 6895 6894 ] final  -52.37 input  -60.11 | X-H torsion
[ 7974 7965 7964 7962 ] final -129.23 input  175.53 | X-H torsion
[ 8008 7997 7996 7995 ] final  174.93 input   59.86 | X-H torsion
[ 10167 10162 10161 10158 ] final   48.86 input  -65.29 | X-H torsion
[ 10718 10713 10712 10709 ] final   87.30 input   66.30 | X-H torsion
[ 10763 10752 10751 10750 ] final  -55.81 input  -60.55 | X-H torsion
[ 11005 11000 10999 10996 ] final   33.01 input  -57.11 | X-H torsion

> <Gold.Protein.ActiveResidues>
 VAL166  LYS551  ARG553  GLY616  TRP617  ASP618  TYR619  PRO620  LYS621  CYS622 
 ASP623  PHE694  ASN695  SER759  ASP760  ASP761  ALA762  ILE779  LEU786  VAL792 
 PHE793  MET794  SER795  GLU796  ALA797  LYS798  CYS799  TRP800  GLU811  SER814 

> <Gold.Protein.RotatedAtoms>
  150.8524  134.7852  159.7018 H   0  0  0  0  0  0  0  0  0  0  0  0  # atno 6907 bound_to 6896
  152.4585  134.5235  159.9799 H   0  0  0  0  0  0  0  0  0  0  0  0  # atno 6908 bound_to 6896
  151.5353  133.3404  159.2961 H   0  0  0  0  0  0  0  0  0  0  0  0  # atno 6909 bound_to 6896
  144.9592  140.7429  143.4739 H   0  0  0  0  0  0  0  0  0  0  0  0  # atno 7974 bound_to 7965
  156.0924  140.1422  156.9575 H   0  0  0  0  0  0  0  0  0  0  0  0  # atno 8008 bound_to 7997
  154.4650  140.0929  156.7042 H   0  0  0  0  0  0  0  0  0  0  0  0  # atno 8009 bound_to 7997
  155.4898  140.3447  155.4355 H   0  0  0  0  0  0  0  0  0  0  0  0  # atno 8010 bound_to 7997
  140.2889  144.3070  150.6245 H   0  0  0  0  0  0  0  0  0  0  0  0  # atno 10167 bound_to 10162
  157.6938  131.0250  150.3103 H   0  0  0  0  0  0  0  0  0  0  0  0  # atno 10718 bound_to 10713
  154.1966  135.6418  153.5075 H   0  0  0  0  0  0  0  0  0  0  0  0  # atno 10763 bound_to 10752
  153.0022  135.5441  154.6359 H   0  0  0  0  0  0  0  0  0  0  0  0  # atno 10764 bound_to 10752
  154.5761  135.2921  155.0752 H   0  0  0  0  0  0  0  0  0  0  0  0  # atno 10765 bound_to 10752
  140.2676  134.3120  155.7838 H   0  0  0  0  0  0  0  0  0  0  0  0  # atno 11005 bound_to 11000
  145.2725  139.1949  143.4834 LP  0  0  0  0  0  0  0  0  0  0  0  0  # atno 17320 bound_to 7965
  146.3347  140.2674  142.8604 LP  0  0  0  0  0  0  0  0  0  0  0  0  # atno 17321 bound_to 7965
  140.5749  143.2177  151.7533 LP  0  0  0  0  0  0  0  0  0  0  0  0  # atno 17342 bound_to 10162
  139.4943  144.4163  152.0026 LP  0  0  0  0  0  0  0  0  0  0  0  0  # atno 17343 bound_to 10162
  156.3605  130.3846  149.7255 LP  0  0  0  0  0  0  0  0  0  0  0  0  # atno 17370 bound_to 10713
  156.4702  130.7993  151.3011 LP  0  0  0  0  0  0  0  0  0  0  0  0  # atno 17371 bound_to 10713
  141.2182  133.7447  156.9284 LP  0  0  0  0  0  0  0  0  0  0  0  0  # atno 17394 bound_to 11000
  140.1404  134.9297  157.2459 LP  0  0  0  0  0  0  0  0  0  0  0  0  # atno 17395 bound_to 11000

$$$$
