AV-unprocessed.smi:2671|AV-procd|sdf|10348|dock4
  -GOLD-   2272014373D 1   1.00000     0.00000
 Structure written by MMmdl.
 29 30  0  0  0  0  0  0  0  0  1 V2000
  154.6197  136.4897  159.1456 O   0  0  0  0  0  0  0  0  0  0  0  0
  154.8781  137.2918  160.0399 C   0  0  0  0  0  0  0  0  0  0  0  0
  155.2554  136.9096  161.3999 C   0  0  0  0  0  0  0  0  0  0  0  0
  155.5291  137.8571  162.3298 C   0  0  0  0  0  0  0  0  0  0  0  0
  155.9180  137.4790  163.7500 C   0  0  0  0  0  0  0  0  0  0  0  0
  154.9402  136.7798  164.3261 F   0  0  0  0  0  0  0  0  0  0  0  0
  157.0169  136.7248  163.7404 F   0  0  0  0  0  0  0  0  0  0  0  0
  156.1574  138.5573  164.4981 F   0  0  0  0  0  0  0  0  0  0  0  0
  155.4507  139.2200  162.0060 N   0  0  0  0  0  0  0  0  0  0  0  0
  155.1166  139.5836  160.8071 C   0  0  0  0  0  0  0  0  0  0  0  0
  154.9408  141.2560  160.1226 S   0  0  0  0  0  0  0  0  0  0  0  0
  153.6130  141.9279  161.1632 C   0  0  0  0  0  0  0  0  0  0  0  0
  152.4447  142.4666  160.3263 C   0  0  2  0  0  0  0  0  0  0  0  0
  152.8530  143.4276  159.2090 C   0  0  0  0  0  0  0  0  0  0  0  0
  151.5849  144.2272  159.0191 C   0  0  0  0  0  0  0  0  0  0  0  0
  151.0948  144.3753  160.4559 C   0  0  0  0  0  0  0  0  0  0  0  0
  151.5567  143.2187  161.1499 O   0  0  0  0  0  0  0  0  0  0  0  0
  154.8314  138.6268  159.8267 N   0  0  0  0  0  0  0  0  0  0  0  0
  154.5745  138.9445  158.9035 H   0  0  0  0  0  0  0  0  0  0  0  0
  155.3151  135.8632  161.6616 H   0  0  0  0  0  0  0  0  0  0  0  0
  154.0163  142.7149  161.8016 H   0  0  0  0  0  0  0  0  0  0  0  0
  153.2560  141.1348  161.8212 H   0  0  0  0  0  0  0  0  0  0  0  0
  151.8737  141.6390  159.9024 H   0  0  0  0  0  0  0  0  0  0  0  0
  153.6611  144.0828  159.5379 H   0  0  0  0  0  0  0  0  0  0  0  0
  153.1746  142.9156  158.3016 H   0  0  0  0  0  0  0  0  0  0  0  0
  151.7484  145.1839  158.5223 H   0  0  0  0  0  0  0  0  0  0  0  0
  150.8659  143.6539  158.4325 H   0  0  0  0  0  0  0  0  0  0  0  0
  151.5386  145.2565  160.9208 H   0  0  0  0  0  0  0  0  0  0  0  0
  150.0105  144.4709  160.5168 H   0  0  0  0  0  0  0  0  0  0  0  0
  1  2  2  0  0  0  0
  2 18  1  0  0  0  0
  2  3  1  0  0  0  0
  3 20  1  0  0  0  0
  3  4  2  0  0  0  0
  4  5  1  0  0  0  0
  4  9  1  0  0  0  0
  5  6  1  0  0  0  0
  5  7  1  0  0  0  0
  5  8  1  0  0  0  0
  9 10  2  0  0  0  0
 10 11  1  0  0  0  0
 10 18  1  0  0  0  0
 11 12  1  0  0  0  0
 12 13  1  0  0  0  0
 12 21  1  0  0  0  0
 12 22  1  0  0  0  0
 13 17  1  0  0  0  0
 13 14  1  0  0  0  0
 13 23  1  0  0  0  0
 14 15  1  0  0  0  0
 14 24  1  0  0  0  0
 14 25  1  0  0  0  0
 15 16  1  0  0  0  0
 15 26  1  0  0  0  0
 15 27  1  0  0  0  0
 16 17  1  0  0  0  0
 16 28  1  0  0  0  0
 16 29  1  0  0  0  0
 18 19  1  0  0  0  0
M  END
> <s_m_source_file>
AV-unprocessed.smi

> <i_m_source_file_index>
2671

> <i_lp_mmshare_version>
43012

> <i_f3d_flags>
0

> <s_epik_input>
W09IXWMxW2NIXWMoQyhGKShGKUYpbmMobjEpU1tDSDJdW0NAQEhdMltDSDJdW0NIMl1bQ0gyXU8y

> <s_epik_cmdline>
J2VwaWtfcHl0aG9uJywgJy1waCcsICc3LjAnLCAnLXRuJywgJzgnLCAnLW1hJywgJzIwMCcsICctbWV0YWxfYmluZGluZycsICctaW1hZScsICc8aW5maWxlLm1hZT4nLCAnLW9tYWUnLCAnPG91dGZpbGUubWFlPic=

> <r_lp_tautomer_probability>
0.660323

> <r_epik_Ionization_Penalty>
0.14469

> <r_epik_Ionization_Penalty_Charging>
0.14469

> <r_epik_Ionization_Penalty_Neutral>
3.1007e-10

> <r_epik_State_Penalty>
0.804349

> <r_epik_Charging_Adjusted_Penalty>
0.949039

> <i_epik_Tot_Q>
0

> <i_epik_Tot_abs_Q>
0

> <r_epik_Metal_State_Penalty>
1.52783

> <b_epik_Metal_Only>
0

> <s_lp_Force_Field>
OPLS_2005

> <r_lp_Energy>
21.2239

> <b_lp_Chiralities_Consistent>
1

> <s_lp_Variant>
AV-unprocessed.smi:2671-3

> <Gold.Version>
5.8.1

> <Gold.Id.Protein>
6NUR|6NUR_protein|mol2

> <Gold.PLP.Fitness>
46.1558

> <Gold.PLP.PLP>
-44.0069

> <Gold.PLP.part.hbond>
-1.0000

> <Gold.PLP.part.metal>
0.0000

> <Gold.PLP.part.buried>
-5.3177

> <Gold.PLP.part.nonpolar>
-38.4922

> <Gold.PLP.part.repulsive>
0.1651

> <Gold.PLP.ligand.clash>
0.0000

> <Gold.PLP.ligand.torsion>
0.4285

> <Gold.PLP.Chemscore.Hbond>
1.0000

> <Gold.PLP.Chemscore.CHOScore>
0.0000

> <Gold.PLP.Chemscore.Metal>
0.0000

> <Gold.Chemscore.Hbonds>
donor molecule, donor type, donor heavy atom, donor atom, acceptor molecule, acceptor atom, score
      P1  H  6933  6945       L1    17  0.07

> <Gold.PLP.Chemscore.Internal.Correction>
0.0059

> <Gold.Rescore>
     Score         DG    S(hbond)    S(metal)    S(lipo)     H(rot)  DE(clash)    DE(int)     intcor
     14.90     -15.29       0.98        0.00      92.75       1.69       0.01       0.38       ----

> <Gold.Chemscore.Fitness>
14.8967

> <Gold.Chemscore.DG>
-15.2879

> <Gold.Chemscore.ZeroCoef>
-5.4800

> <Gold.Chemscore.Hbond>
0.9847

> <Gold.Chemscore.Metal>
0.0000

> <Gold.Chemscore.Lipo>
92.7466

> <Gold.Chemscore.Internal_Hbond>
0.0000

> <Gold.Chemscore.DEClash>
0.0113

> <Gold.Chemscore.DEInternal>
0.3799

> <Gold.Chemscore.Rot>
1.6924

> <Gold.Chemscore.Internal.Correction>
   9.000000E+99

> <Gold.Chemscore.Hbonds>
donor molecule, donor type, donor heavy atom, donor atom, acceptor molecule, acceptor atom, score
      P1  H  6933  6945       L1    17  0.06

> <Gold.Chemscore.Hbond.Weighted>
-3.2890

> <Gold.Chemscore.Metal.Weighted>
-0.0000

> <Gold.Chemscore.Lipo.Weighted>
-10.8514

> <Gold.Chemscore.Internal_Hbond.Weighted>
0.0000

> <Gold.Chemscore.DEClash.Weighted>
0.0113

> <Gold.Chemscore.DEInternal.Weighted>
0.3799

> <Gold.Chemscore.Rot.Weighted>
4.3324

> <Gold.Chemscore.Internal.Correction.Weighted>
   9.000000E+99

> <Gold.Protein.RotatedTorsions>
[ 6907 6896 6895 6894 ] final  -83.05 input  -60.11 | X-H torsion
[ 7974 7965 7964 7962 ] final   -2.81 input  175.53 | X-H torsion
[ 8008 7997 7996 7995 ] final   22.14 input   59.86 | X-H torsion
[ 10167 10162 10161 10158 ] final  115.69 input  -65.29 | X-H torsion
[ 10718 10713 10712 10709 ] final  -66.26 input   66.30 | X-H torsion
[ 10763 10752 10751 10750 ] final  -84.97 input  -60.55 | X-H torsion
[ 11005 11000 10999 10996 ] final  119.40 input  -57.11 | X-H torsion

> <Gold.Protein.ActiveResidues>
 VAL166  LYS551  ARG553  GLY616  TRP617  ASP618  TYR619  PRO620  LYS621  CYS622 
 ASP623  PHE694  ASN695  SER759  ASP760  ASP761  ALA762  ILE779  LEU786  VAL792 
 PHE793  MET794  SER795  GLU796  ALA797  LYS798  CYS799  TRP800  GLU811  SER814 

> <Gold.Protein.RotatedAtoms>
  150.6890  134.3570  159.4933 H   0  0  0  0  0  0  0  0  0  0  0  0  # atno 6907 bound_to 6896
  152.1404  134.9064  160.0563 H   0  0  0  0  0  0  0  0  0  0  0  0  # atno 6908 bound_to 6896
  152.0200  133.3860  159.4291 H   0  0  0  0  0  0  0  0  0  0  0  0  # atno 6909 bound_to 6896
  146.2399  140.1627  142.8332 H   0  0  0  0  0  0  0  0  0  0  0  0  # atno 7974 bound_to 7965
  154.9613  140.3078  155.5030 H   0  0  0  0  0  0  0  0  0  0  0  0  # atno 8008 bound_to 7997
  156.2977  140.2301  156.4637 H   0  0  0  0  0  0  0  0  0  0  0  0  # atno 8009 bound_to 7997
  154.7963  140.0437  157.1227 H   0  0  0  0  0  0  0  0  0  0  0  0  # atno 8010 bound_to 7997
  139.6299  144.7113  151.2453 H   0  0  0  0  0  0  0  0  0  0  0  0  # atno 10167 bound_to 10162
  156.0623  130.4259  150.1682 H   0  0  0  0  0  0  0  0  0  0  0  0  # atno 10718 bound_to 10713
  154.6057  135.5502  153.7420 H   0  0  0  0  0  0  0  0  0  0  0  0  # atno 10763 bound_to 10752
  153.0173  135.6377  154.1651 H   0  0  0  0  0  0  0  0  0  0  0  0  # atno 10764 bound_to 10752
  154.1590  135.2898  155.3094 H   0  0  0  0  0  0  0  0  0  0  0  0  # atno 10765 bound_to 10752
  139.9145  134.9628  156.7649 H   0  0  0  0  0  0  0  0  0  0  0  0  # atno 11005 bound_to 11000
  145.0076  140.8686  143.5243 LP  0  0  0  0  0  0  0  0  0  0  0  0  # atno 17320 bound_to 7965
  145.1655  139.2433  143.5369 LP  0  0  0  0  0  0  0  0  0  0  0  0  # atno 17321 bound_to 7965
  140.7433  143.6498  150.8258 LP  0  0  0  0  0  0  0  0  0  0  0  0  # atno 17342 bound_to 10162
  140.0122  143.5631  152.2834 LP  0  0  0  0  0  0  0  0  0  0  0  0  # atno 17343 bound_to 10162
  156.9749  130.9846  151.3450 LP  0  0  0  0  0  0  0  0  0  0  0  0  # atno 17370 bound_to 10713
  157.5640  130.8265  149.8303 LP  0  0  0  0  0  0  0  0  0  0  0  0  # atno 17371 bound_to 10713
  140.6667  133.9596  155.7834 LP  0  0  0  0  0  0  0  0  0  0  0  0  # atno 17394 bound_to 11000
  141.0606  134.0352  157.3664 LP  0  0  0  0  0  0  0  0  0  0  0  0  # atno 17395 bound_to 11000

$$$$
