AV-unprocessed.smi:790|AV-procd|sdf|3746|dock3
  -GOLD-   22720 1173D 1   1.00000     0.00000
 Structure written by MMmdl.
 38 40  0  0  0  0  0  0  0  0  1 V2000
  145.1577  137.2052  153.9801 O   0  0  0  0  0  0  0  0  0  0  0  0
  146.2487  137.0096  153.4456 C   0  0  0  0  0  0  0  0  0  0  0  0
  146.5191  136.0402  152.5552 N   0  0  0  0  0  0  0  0  0  0  0  0
  145.6481  135.0495  152.0267 C   0  0  0  0  0  0  0  0  0  0  0  0
  144.2991  134.8752  152.4212 C   0  0  0  0  0  0  0  0  0  0  0  0
  143.5362  133.8645  151.8048 C   0  0  0  0  0  0  0  0  0  0  0  0
  144.1460  133.0699  150.8149 C   0  0  0  0  0  0  0  0  0  0  0  0
  145.4262  133.2326  150.4206 N   0  0  0  0  0  0  0  0  0  0  0  0
  146.1509  134.2042  151.0150 C   0  0  0  0  0  0  0  0  0  0  0  0
  147.3418  137.7391  153.7094 N   0  0  0  0  0  0  0  0  0  0  0  0
  147.4018  138.8718  154.6339 C   0  0  2  0  0  0  0  0  0  0  0  0
  146.5620  140.0475  154.0899 C   0  0  1  0  0  0  0  0  0  0  0  0
  146.3170  141.0578  155.2255 C   0  0  0  0  0  0  0  0  0  0  0  0
  147.7068  141.6971  155.4084 C   0  0  0  0  0  0  0  0  0  0  0  0
  148.5628  140.9671  154.3541 C   0  0  2  0  0  0  0  0  0  0  0  0
  147.5623  140.7970  153.2181 C   0  0  0  0  0  0  0  0  0  0  0  0
  148.8135  139.5095  154.8138 C   0  0  2  0  0  0  0  0  0  0  0  0
  149.9763  138.8227  154.0610 C   0  0  0  0  0  0  0  0  0  0  0  0
  150.0154  137.4442  154.3641 O   0  0  0  0  0  0  0  0  0  0  0  0
  147.4823  135.9660  152.2619 H   0  0  0  0  0  0  0  0  0  0  0  0
  143.8308  135.4980  153.1669 H   0  0  0  0  0  0  0  0  0  0  0  0
  142.5047  133.7052  152.0819 H   0  0  0  0  0  0  0  0  0  0  0  0
  143.5890  132.2866  150.3227 H   0  0  0  0  0  0  0  0  0  0  0  0
  147.1701  134.3076  150.6719 H   0  0  0  0  0  0  0  0  0  0  0  0
  148.1981  137.5014  153.2305 H   0  0  0  0  0  0  0  0  0  0  0  0
  147.0032  138.5569  155.6002 H   0  0  0  0  0  0  0  0  0  0  0  0
  145.6453  139.7427  153.5830 H   0  0  0  0  0  0  0  0  0  0  0  0
  145.5862  141.8100  154.9255 H   0  0  0  0  0  0  0  0  0  0  0  0
  145.9522  140.5824  156.1368 H   0  0  0  0  0  0  0  0  0  0  0  0
  147.6645  142.7665  155.1991 H   0  0  0  0  0  0  0  0  0  0  0  0
  148.0945  141.5717  156.4199 H   0  0  0  0  0  0  0  0  0  0  0  0
  149.4676  141.5143  154.0881 H   0  0  0  0  0  0  0  0  0  0  0  0
  147.9425  140.2054  152.3842 H   0  0  0  0  0  0  0  0  0  0  0  0
  147.1781  141.7441  152.8346 H   0  0  0  0  0  0  0  0  0  0  0  0
  149.0672  139.5015  155.8751 H   0  0  0  0  0  0  0  0  0  0  0  0
  149.8447  138.9169  152.9831 H   0  0  0  0  0  0  0  0  0  0  0  0
  150.9378  139.2704  154.3128 H   0  0  0  0  0  0  0  0  0  0  0  0
  149.6718  136.9653  153.6254 H   0  0  0  0  0  0  0  0  0  0  0  0
  1  2  2  0  0  0  0
  2  3  1  0  0  0  0
  2 10  1  0  0  0  0
  3  4  1  0  0  0  0
  3 20  1  0  0  0  0
  4  9  1  0  0  0  0
  4  5  2  0  0  0  0
  5  6  1  0  0  0  0
  5 21  1  0  0  0  0
  6  7  2  0  0  0  0
  6 22  1  0  0  0  0
  7  8  1  0  0  0  0
  7 23  1  0  0  0  0
  8  9  2  0  0  0  0
  9 24  1  0  0  0  0
 10 11  1  0  0  0  0
 10 25  1  0  0  0  0
 11 17  1  0  0  0  0
 11 12  1  0  0  0  0
 11 26  1  0  0  0  0
 12 16  1  0  0  0  0
 12 13  1  0  0  0  0
 12 27  1  0  0  0  0
 13 14  1  0  0  0  0
 13 28  1  0  0  0  0
 13 29  1  0  0  0  0
 14 15  1  0  0  0  0
 14 30  1  0  0  0  0
 14 31  1  0  0  0  0
 15 16  1  0  0  0  0
 15 17  1  0  0  0  0
 15 32  1  0  0  0  0
 16 33  1  0  0  0  0
 16 34  1  0  0  0  0
 17 18  1  0  0  0  0
 17 35  1  0  0  0  0
 18 19  1  0  0  0  0
 18 36  1  0  0  0  0
 18 37  1  0  0  0  0
 19 38  1  0  0  0  0
M  END
> <s_m_source_file>
AV-unprocessed.smi

> <i_m_source_file_index>
790

> <i_lp_mmshare_version>
43012

> <i_f3d_flags>
0

> <s_epik_input>
W0NIMl0xW0NIMl1bQ0BASF0oW0NIMl0yKVtDQEBIXShbQ0gyXVtPSF0pW0NAQEhdKFtDQEhdMTIpW05IXUMoPU8pW05IXWMzW2NIXVtjSF1bY0hdbltjSF0z

> <s_epik_cmdline>
J2VwaWtfcHl0aG9uJywgJy1waCcsICc3LjAnLCAnLXRuJywgJzgnLCAnLW1hJywgJzIwMCcsICctbWV0YWxfYmluZGluZycsICctaW1hZScsICc8aW5maWxlLm1hZT4nLCAnLW9tYWUnLCAnPG91dGZpbGUubWFlPic=

> <r_epik_Ionization_Penalty>
0.00497582

> <r_epik_Ionization_Penalty_Charging>
0

> <r_epik_Ionization_Penalty_Neutral>
0.00497582

> <r_epik_State_Penalty>
0.00358602

> <r_epik_Charging_Adjusted_Penalty>
0.00358602

> <i_epik_Tot_Q>
0

> <i_epik_Tot_abs_Q>
0

> <r_epik_Metal_State_Penalty>
-0

> <b_epik_Metal_Only>
0

> <s_lp_Force_Field>
OPLS_2005

> <r_lp_Energy>
52.0711

> <b_lp_Chiralities_Consistent>
1

> <s_lp_Variant>
AV-unprocessed.smi:790-7

> <Gold.Version>
5.8.1

> <Gold.Id.Protein>
6NUR|6NUR_protein|mol2

> <Gold.PLP.Fitness>
36.2801

> <Gold.PLP.PLP>
-27.2979

> <Gold.PLP.part.hbond>
-2.9933

> <Gold.PLP.part.metal>
0.0000

> <Gold.PLP.part.buried>
-2.7528

> <Gold.PLP.part.nonpolar>
-21.7340

> <Gold.PLP.part.repulsive>
0.2922

> <Gold.PLP.ligand.clash>
0.0000

> <Gold.PLP.ligand.torsion>
0.0668

> <Gold.PLP.Chemscore.Hbond>
2.8640

> <Gold.PLP.Chemscore.CHOScore>
0.1704

> <Gold.PLP.Chemscore.Metal>
0.0000

> <Gold.Chemscore.Hbonds>
donor molecule, donor type, donor heavy atom, donor atom, acceptor molecule, acceptor atom, score
      L1  H     3    20       P1  7948  0.99
      L1  H    10    25       P1  7948  0.86
      L1  H    19    38       P1  7948  1.00
      L1  C     9    24       P1  7948  0.17

> <Gold.PLP.Chemscore.Internal.Correction>
0.0125

> <Gold.Rescore>
     Score         DG    S(hbond)    S(metal)    S(lipo)     H(rot)  DE(clash)    DE(int)     intcor
     15.57     -18.49       2.82        0.00      69.64       1.78       0.27       2.66       ----

> <Gold.Chemscore.Fitness>
15.5711

> <Gold.Chemscore.DG>
-18.4946

> <Gold.Chemscore.ZeroCoef>
-5.4800

> <Gold.Chemscore.Hbond>
2.8201

> <Gold.Chemscore.Metal>
0.0000

> <Gold.Chemscore.Lipo>
69.6415

> <Gold.Chemscore.Internal_Hbond>
0.0000

> <Gold.Chemscore.DEClash>
0.2665

> <Gold.Chemscore.DEInternal>
2.6570

> <Gold.Chemscore.Rot>
1.7783

> <Gold.Chemscore.Internal.Correction>
   9.000000E+99

> <Gold.Chemscore.Hbonds>
donor molecule, donor type, donor heavy atom, donor atom, acceptor molecule, acceptor atom, score
      L1  H     3    20       P1  7948  0.93
      L1  H    10    25       P1  7948  0.81
      L1  H    19    38       P1  7948  0.67

> <Gold.Chemscore.Hbond.Weighted>
-9.4191

> <Gold.Chemscore.Metal.Weighted>
-0.0000

> <Gold.Chemscore.Lipo.Weighted>
-8.1481

> <Gold.Chemscore.Internal_Hbond.Weighted>
0.0000

> <Gold.Chemscore.DEClash.Weighted>
0.2665

> <Gold.Chemscore.DEInternal.Weighted>
2.6570

> <Gold.Chemscore.Rot.Weighted>
4.5525

> <Gold.Chemscore.Internal.Correction.Weighted>
   9.000000E+99

> <Gold.Protein.RotatedTorsions>
[ 6907 6896 6895 6894 ] final -168.13 input  -60.11 | X-H torsion
[ 7974 7965 7964 7962 ] final  -73.16 input  175.53 | X-H torsion
[ 8008 7997 7996 7995 ] final -145.58 input   59.86 | X-H torsion
[ 10167 10162 10161 10158 ] final  -12.15 input  -65.29 | X-H torsion
[ 10718 10713 10712 10709 ] final   47.45 input   66.30 | X-H torsion
[ 10763 10752 10751 10750 ] final  106.84 input  -60.55 | X-H torsion
[ 11005 11000 10999 10996 ] final   99.66 input  -57.11 | X-H torsion

> <Gold.Protein.ActiveResidues>
 VAL166  LYS551  ARG553  GLY616  TRP617  ASP618  TYR619  PRO620  LYS621  CYS622 
 ASP623  PHE694  ASN695  SER759  ASP760  ASP761  ALA762  ILE779  LEU786  VAL792 
 PHE793  MET794  SER795  GLU796  ALA797  LYS798  CYS799  TRP800  GLU811  SER814 

> <Gold.Protein.RotatedAtoms>
  151.4707  133.3570  159.2822 H   0  0  0  0  0  0  0  0  0  0  0  0  # atno 6907 bound_to 6896
  150.8963  134.8373  159.7339 H   0  0  0  0  0  0  0  0  0  0  0  0  # atno 6908 bound_to 6896
  152.4853  134.4622  159.9661 H   0  0  0  0  0  0  0  0  0  0  0  0  # atno 6909 bound_to 6896
  145.6558  140.9268  143.0960 H   0  0  0  0  0  0  0  0  0  0  0  0  # atno 7974 bound_to 7965
  155.5455  140.0612  157.2861 H   0  0  0  0  0  0  0  0  0  0  0  0  # atno 8008 bound_to 7997
  154.4438  140.1911  156.0678 H   0  0  0  0  0  0  0  0  0  0  0  0  # atno 8009 bound_to 7997
  156.0554  140.3279  155.7403 H   0  0  0  0  0  0  0  0  0  0  0  0  # atno 8010 bound_to 7997
  140.7155  143.5563  150.9244 H   0  0  0  0  0  0  0  0  0  0  0  0  # atno 10167 bound_to 10162
  157.4586  130.8182  149.7862 H   0  0  0  0  0  0  0  0  0  0  0  0  # atno 10718 bound_to 10713
  153.3985  135.3864  155.1971 H   0  0  0  0  0  0  0  0  0  0  0  0  # atno 10763 bound_to 10752
  154.8727  135.3765  154.4649 H   0  0  0  0  0  0  0  0  0  0  0  0  # atno 10764 bound_to 10752
  153.5143  135.7087  153.5826 H   0  0  0  0  0  0  0  0  0  0  0  0  # atno 10765 bound_to 10752
  139.8770  134.9105  156.4639 H   0  0  0  0  0  0  0  0  0  0  0  0  # atno 11005 bound_to 11000
  144.7106  139.8385  143.7416 LP  0  0  0  0  0  0  0  0  0  0  0  0  # atno 17320 bound_to 7965
  146.1166  139.4178  143.0254 LP  0  0  0  0  0  0  0  0  0  0  0  0  # atno 17321 bound_to 7965
  139.9288  143.6517  152.3081 LP  0  0  0  0  0  0  0  0  0  0  0  0  # atno 17342 bound_to 10162
  139.6961  144.7641  151.1354 LP  0  0  0  0  0  0  0  0  0  0  0  0  # atno 17343 bound_to 10162
  156.0018  130.3876  150.2577 LP  0  0  0  0  0  0  0  0  0  0  0  0  # atno 17370 bound_to 10713
  157.0753  131.0128  151.3176 LP  0  0  0  0  0  0  0  0  0  0  0  0  # atno 17371 bound_to 10713
  140.8844  133.7894  155.9502 LP  0  0  0  0  0  0  0  0  0  0  0  0  # atno 17394 bound_to 11000
  140.8820  134.2600  157.5139 LP  0  0  0  0  0  0  0  0  0  0  0  0  # atno 17395 bound_to 11000

$$$$
