AV-unprocessed.smi:2056|AV-procd|sdf|8339|dock4
  -GOLD-   2272011 03D 1   1.00000     0.00000
 Structure written by MMmdl.
 33 33  0  0  0  0  0  0  0  0  2 V2000
  145.6656  135.7095  161.3150 C   0  0  0  0  0  0  0  0  0  0  0  0
  147.0167  135.1569  161.8169 C   0  0  0  0  0  0  0  0  0  0  0  0
  147.5954  136.1501  162.8435 C   0  0  0  0  0  0  0  0  0  0  0  0
  146.7790  133.8079  162.5286 C   0  0  0  0  0  0  0  0  0  0  0  0
  148.0418  135.0145  160.6531 C   0  0  0  0  0  0  0  0  0  0  0  0
  148.5188  136.3304  160.0142 C   0  0  0  0  0  0  0  0  0  0  0  0
  147.9573  137.3841  160.3182 O   0  0  0  0  0  0  0  0  0  0  0  0
  149.5422  136.1352  159.1477 N   0  5  0  0  0  0  0  0  0  0  0  0
  150.1612  137.1942  158.6042 C   0  0  0  0  0  0  0  0  0  0  0  0
  149.5583  138.0316  157.7534 N   0  0  0  0  0  0  0  0  0  0  0  0
  150.3800  139.0747  157.3163 C   0  0  0  0  0  0  0  0  0  0  0  0
  149.8520  140.0995  156.3515 C   0  0  0  0  0  0  0  0  0  0  0  0
  150.3585  139.8498  154.9261 C   0  0  0  0  0  0  0  0  0  0  0  0
  149.4490  139.6335  153.9705 N   0  0  0  0  0  0  0  0  0  0  0  0
  151.5633  139.8757  154.6835 O   0  0  0  0  0  0  0  0  0  0  0  0
  151.6422  139.0216  157.8500 C   0  0  0  0  0  0  0  0  0  0  0  0
  151.8294  137.6691  158.9287 S   0  0  0  0  0  0  0  0  0  0  0  0
  144.9805  135.8942  162.1429 H   0  0  0  0  0  0  0  0  0  0  0  0
  145.1685  135.0144  160.6376 H   0  0  0  0  0  0  0  0  0  0  0  0
  145.7974  136.6510  160.7807 H   0  0  0  0  0  0  0  0  0  0  0  0
  147.7666  137.1296  162.3957 H   0  0  0  0  0  0  0  0  0  0  0  0
  148.5485  135.8002  163.2413 H   0  0  0  0  0  0  0  0  0  0  0  0
  146.9201  136.2909  163.6882 H   0  0  0  0  0  0  0  0  0  0  0  0
  146.1387  133.9296  163.4027 H   0  0  0  0  0  0  0  0  0  0  0  0
  147.7172  133.3682  162.8681 H   0  0  0  0  0  0  0  0  0  0  0  0
  146.2916  133.0833  161.8759 H   0  0  0  0  0  0  0  0  0  0  0  0
  148.9057  134.4407  160.9954 H   0  0  0  0  0  0  0  0  0  0  0  0
  147.6002  134.4124  159.8578 H   0  0  0  0  0  0  0  0  0  0  0  0
  148.7617  140.0895  156.3389 H   0  0  0  0  0  0  0  0  0  0  0  0
  150.1448  141.1020  156.6667 H   0  0  0  0  0  0  0  0  0  0  0  0
  149.7467  139.4905  153.0163 H   0  0  0  0  0  0  0  0  0  0  0  0
  148.4666  139.6389  154.2028 H   0  0  0  0  0  0  0  0  0  0  0  0
  152.4686  139.6945  157.6786 H   0  0  0  0  0  0  0  0  0  0  0  0
  1  2  1  0  0  0  0
  1 18  1  0  0  0  0
  1 19  1  0  0  0  0
  1 20  1  0  0  0  0
  2  3  1  0  0  0  0
  2  4  1  0  0  0  0
  2  5  1  0  0  0  0
  3 21  1  0  0  0  0
  3 22  1  0  0  0  0
  3 23  1  0  0  0  0
  4 24  1  0  0  0  0
  4 25  1  0  0  0  0
  4 26  1  0  0  0  0
  5  6  1  0  0  0  0
  5 27  1  0  0  0  0
  5 28  1  0  0  0  0
  6  7  2  0  0  0  0
  6  8  1  0  0  0  0
  8  9  1  0  0  0  0
  9 17  1  0  0  0  0
  9 10  2  0  0  0  0
 10 11  1  0  0  0  0
 11 12  1  0  0  0  0
 11 16  2  0  0  0  0
 12 13  1  0  0  0  0
 12 29  1  0  0  0  0
 12 30  1  0  0  0  0
 13 14  1  0  0  0  0
 13 15  2  0  0  0  0
 14 31  1  0  0  0  0
 14 32  1  0  0  0  0
 16 17  1  0  0  0  0
 16 33  1  0  0  0  0
M  CHG  1   8  -1
M  END
> <s_m_source_file>
AV-unprocessed.smi

> <i_m_source_file_index>
2056

> <i_lp_mmshare_version>
43012

> <i_f3d_flags>
0

> <s_epik_input>
W0NIM11DKFtDSDNdKShbQ0gzXSlbQ0gyXUMoPU8pW05IXWMxbmMoW2NIXXMxKVtDSDJdQyg9TylbTkgyXQ==

> <s_epik_cmdline>
J2VwaWtfcHl0aG9uJywgJy1waCcsICc3LjAnLCAnLXRuJywgJzgnLCAnLW1hJywgJzIwMCcsICctbWV0YWxfYmluZGluZycsICctaW1hZScsICc8aW5maWxlLm1hZT4nLCAnLW9tYWUnLCAnPG91dGZpbGUubWFlPic=

> <r_lp_tautomer_probability>
1

> <r_epik_Ionization_Penalty>
5.16109

> <r_epik_Ionization_Penalty_Charging>
4.76142

> <r_epik_Ionization_Penalty_Neutral>
0.39967

> <r_epik_State_Penalty>
4.76123

> <r_epik_Charging_Adjusted_Penalty>
9.52265

> <i_epik_Tot_Q>
-1

> <i_epik_Tot_abs_Q>
1

> <r_epik_Metal_State_Penalty>
0.964035

> <b_epik_Metal_Only>
1

> <s_lp_Force_Field>
OPLS_2005

> <r_lp_Energy>
1.47772

> <b_lp_Chiralities_Consistent>
1

> <s_lp_Variant>
AV-unprocessed.smi:2056-2

> <Gold.Version>
5.8.1

> <Gold.Id.Protein>
6NUR|6NUR_protein|mol2

> <Gold.PLP.Fitness>
45.1570

> <Gold.PLP.PLP>
-30.9876

> <Gold.PLP.part.hbond>
-5.0000

> <Gold.PLP.part.metal>
0.0000

> <Gold.PLP.part.buried>
-3.5447

> <Gold.PLP.part.nonpolar>
-22.1854

> <Gold.PLP.part.repulsive>
0.2003

> <Gold.PLP.ligand.clash>
0.0000

> <Gold.PLP.ligand.torsion>
0.9960

> <Gold.PLP.Chemscore.Hbond>
5.3440

> <Gold.PLP.Chemscore.CHOScore>
0.0000

> <Gold.PLP.Chemscore.Metal>
0.0000

> <Gold.Chemscore.Hbonds>
donor molecule, donor type, donor heavy atom, donor atom, acceptor molecule, acceptor atom, score
      L1  H    14    31       P1  7957  0.96
      P1  H  6896  6909       L1     8  2.00
      P1  H  6931  6943       L1     7  0.53
      P1  H  6934  6947       L1     7  0.74
      P1  H  7989  7998       L1    15  1.00

> <Gold.PLP.Chemscore.Internal.Correction>
0.1295

> <Gold.Rescore>
     Score         DG    S(hbond)    S(metal)    S(lipo)     H(rot)  DE(clash)    DE(int)     intcor
     17.54     -20.04       4.08        0.00      55.14       2.16       0.03       2.48       ----

> <Gold.Chemscore.Fitness>
17.5385

> <Gold.Chemscore.DG>
-20.0441

> <Gold.Chemscore.ZeroCoef>
-5.4800

> <Gold.Chemscore.Hbond>
4.0842

> <Gold.Chemscore.Metal>
0.0000

> <Gold.Chemscore.Lipo>
55.1377

> <Gold.Chemscore.Internal_Hbond>
0.0000

> <Gold.Chemscore.DEClash>
0.0270

> <Gold.Chemscore.DEInternal>
2.4786

> <Gold.Chemscore.Rot>
2.1594

> <Gold.Chemscore.Internal.Correction>
   9.000000E+99

> <Gold.Chemscore.Hbonds>
donor molecule, donor type, donor heavy atom, donor atom, acceptor molecule, acceptor atom, score
      L1  H    14    31       P1  7957  0.92
      P1  H  6896  6909       L1     8  0.67
      P1  H  6931  6943       L1     7  0.33
      P1  H  6934  6947       L1     7  0.72
      P1  H  7989  7998       L1    15  0.37

> <Gold.Chemscore.Hbond.Weighted>
-13.6412

> <Gold.Chemscore.Metal.Weighted>
-0.0000

> <Gold.Chemscore.Lipo.Weighted>
-6.4511

> <Gold.Chemscore.Internal_Hbond.Weighted>
0.0000

> <Gold.Chemscore.DEClash.Weighted>
0.0270

> <Gold.Chemscore.DEInternal.Weighted>
2.4786

> <Gold.Chemscore.Rot.Weighted>
5.5281

> <Gold.Chemscore.Internal.Correction.Weighted>
   9.000000E+99

> <Gold.Protein.RotatedTorsions>
[ 6907 6896 6895 6894 ] final   69.36 input  -60.11 | X-H torsion
[ 7974 7965 7964 7962 ] final  162.78 input  175.53 | X-H torsion
[ 8008 7997 7996 7995 ] final  148.64 input   59.86 | X-H torsion
[ 10167 10162 10161 10158 ] final   77.76 input  -65.29 | X-H torsion
[ 10718 10713 10712 10709 ] final -142.16 input   66.30 | X-H torsion
[ 10763 10752 10751 10750 ] final  -67.45 input  -60.55 | X-H torsion
[ 11005 11000 10999 10996 ] final  -43.56 input  -57.11 | X-H torsion

> <Gold.Protein.ActiveResidues>
 VAL166  LYS551  ARG553  GLY616  TRP617  ASP618  TYR619  PRO620  LYS621  CYS622 
 ASP623  PHE694  ASN695  SER759  ASP760  ASP761  ALA762  ILE779  LEU786  VAL792 
 PHE793  MET794  SER795  GLU796  ALA797  LYS798  CYS799  TRP800  GLU811  SER814 

> <Gold.Protein.RotatedAtoms>
  152.4681  134.5028  159.9729 H   0  0  0  0  0  0  0  0  0  0  0  0  # atno 6907 bound_to 6896
  151.5061  133.3488  159.2885 H   0  0  0  0  0  0  0  0  0  0  0  0  # atno 6908 bound_to 6896
  150.8675  134.8070  159.7192 H   0  0  0  0  0  0  0  0  0  0  0  0  # atno 6909 bound_to 6896
  144.7620  139.8089  143.6329 H   0  0  0  0  0  0  0  0  0  0  0  0  # atno 7974 bound_to 7965
  156.2784  140.2123  156.5730 H   0  0  0  0  0  0  0  0  0  0  0  0  # atno 8008 bound_to 7997
  154.7120  140.0511  157.0582 H   0  0  0  0  0  0  0  0  0  0  0  0  # atno 8009 bound_to 7997
  155.0592  140.3165  155.4669 H   0  0  0  0  0  0  0  0  0  0  0  0  # atno 8010 bound_to 7997
  139.9782  144.5846  150.7924 H   0  0  0  0  0  0  0  0  0  0  0  0  # atno 10167 bound_to 10162
  156.3426  130.7646  151.1785 H   0  0  0  0  0  0  0  0  0  0  0  0  # atno 10718 bound_to 10713
  154.3747  135.6087  153.5758 H   0  0  0  0  0  0  0  0  0  0  0  0  # atno 10763 bound_to 10752
  152.9789  135.5846  154.4481 H   0  0  0  0  0  0  0  0  0  0  0  0  # atno 10764 bound_to 10752
  154.4240  135.2846  155.1934 H   0  0  0  0  0  0  0  0  0  0  0  0  # atno 10765 bound_to 10752
  141.0392  133.6787  156.2750 H   0  0  0  0  0  0  0  0  0  0  0  0  # atno 11005 bound_to 11000
  146.1692  139.4836  142.9938 LP  0  0  0  0  0  0  0  0  0  0  0  0  # atno 17320 bound_to 7965
  145.6589  141.0245  143.1720 LP  0  0  0  0  0  0  0  0  0  0  0  0  # atno 17321 bound_to 7965
  140.7498  143.2945  151.3240 LP  0  0  0  0  0  0  0  0  0  0  0  0  # atno 17342 bound_to 10162
  139.6430  144.0504  152.2569 LP  0  0  0  0  0  0  0  0  0  0  0  0  # atno 17343 bound_to 10162
  157.7449  131.0450  150.4821 LP  0  0  0  0  0  0  0  0  0  0  0  0  # atno 17370 bound_to 10713
  156.5004  130.4116  149.6356 LP  0  0  0  0  0  0  0  0  0  0  0  0  # atno 17371 bound_to 10713
  140.6266  134.5307  157.5554 LP  0  0  0  0  0  0  0  0  0  0  0  0  # atno 17394 bound_to 11000
  139.9263  134.8050  156.1059 LP  0  0  0  0  0  0  0  0  0  0  0  0  # atno 17395 bound_to 11000

$$$$
