AV-unprocessed.smi:385|AV-procd|sdf|2472|dock7
  -GOLD-   2262022413D 1   1.00000     0.00000
 Structure written by MMmdl.
 38 39  0  0  0  0  0  0  0  0  3 V2000
  147.5656  141.9029  154.2255 O   0  0  0  0  0  0  0  0  0  0  0  0
  148.1576  140.8238  154.2213 C   0  0  0  0  0  0  0  0  0  0  0  0
  149.3547  140.6401  154.7990 N   0  0  0  0  0  0  0  0  0  0  0  0
  150.1149  141.6662  155.5079 C   0  0  0  0  0  0  0  0  0  0  0  0
  150.5959  141.2136  156.9023 C   0  0  0  0  0  0  0  0  0  0  0  0
  151.3161  142.3000  157.6823 C   0  0  0  0  0  0  0  0  0  0  0  0
  152.1745  142.0037  158.7639 C   0  0  0  0  0  0  0  0  0  0  0  0
  152.8193  143.0593  159.4412 C   0  0  0  0  0  0  0  0  0  0  0  0
  152.5929  144.3871  159.0236 C   0  0  0  0  0  0  0  0  0  0  0  0
  151.7247  144.6261  157.9386 C   0  0  0  0  0  0  0  0  0  0  0  0
  151.1252  143.5877  157.3154 N   0  3  0  0  0  0  0  0  0  0  0  0
  147.5267  139.5983  153.5476 C   0  0  0  0  0  0  0  0  0  0  0  0
  147.1495  139.8994  152.0821 C   0  0  0  0  0  0  0  0  0  0  0  0
  146.4691  138.6862  151.4256 C   0  0  0  0  0  0  0  0  0  0  0  0
  145.2848  138.2649  152.2050 N   0  3  0  0  0  0  0  0  0  0  0  0
  145.6076  137.9343  153.6102 C   0  0  0  0  0  0  0  0  0  0  0  0
  146.2718  139.1303  154.3139 C   0  0  0  0  0  0  0  0  0  0  0  0
  149.7725  139.7224  154.7427 H   0  0  0  0  0  0  0  0  0  0  0  0
  150.9798  141.9085  154.8900 H   0  0  0  0  0  0  0  0  0  0  0  0
  149.5282  142.5827  155.5866 H   0  0  0  0  0  0  0  0  0  0  0  0
  149.7458  140.8604  157.4871 H   0  0  0  0  0  0  0  0  0  0  0  0
  151.2629  140.3566  156.8006 H   0  0  0  0  0  0  0  0  0  0  0  0
  152.3398  140.9805  159.0695 H   0  0  0  0  0  0  0  0  0  0  0  0
  153.4795  142.8525  160.2710 H   0  0  0  0  0  0  0  0  0  0  0  0
  153.0768  145.2100  159.5293 H   0  0  0  0  0  0  0  0  0  0  0  0
  151.4928  145.6086  157.5536 H   0  0  0  0  0  0  0  0  0  0  0  0
  148.2550  138.7852  153.5536 H   0  0  0  0  0  0  0  0  0  0  0  0
  146.4771  140.7576  152.0318 H   0  0  0  0  0  0  0  0  0  0  0  0
  148.0393  140.1712  151.5126 H   0  0  0  0  0  0  0  0  0  0  0  0
  146.1578  138.9307  150.4097 H   0  0  0  0  0  0  0  0  0  0  0  0
  147.1679  137.8517  151.3527 H   0  0  0  0  0  0  0  0  0  0  0  0
  144.6117  139.0183  152.1984 H   0  0  0  0  0  0  0  0  0  0  0  0
  144.6910  137.6514  154.1284 H   0  0  0  0  0  0  0  0  0  0  0  0
  146.2674  137.0660  153.6329 H   0  0  0  0  0  0  0  0  0  0  0  0
  146.5363  138.8524  155.3352 H   0  0  0  0  0  0  0  0  0  0  0  0
  145.5504  139.9456  154.3933 H   0  0  0  0  0  0  0  0  0  0  0  0
  144.8718  137.4556  151.7635 H   0  0  0  0  0  0  0  0  0  0  0  0
  150.5005  143.7844  156.5328 H   0  0  0  0  0  0  0  0  0  0  0  0
  1  2  2  0  0  0  0
  2  3  1  0  0  0  0
  2 12  1  0  0  0  0
  3  4  1  0  0  0  0
  3 18  1  0  0  0  0
  4  5  1  0  0  0  0
  4 19  1  0  0  0  0
  4 20  1  0  0  0  0
  5  6  1  0  0  0  0
  5 21  1  0  0  0  0
  5 22  1  0  0  0  0
  6 11  1  0  0  0  0
  6  7  2  0  0  0  0
  7  8  1  0  0  0  0
  7 23  1  0  0  0  0
  8  9  2  0  0  0  0
  8 24  1  0  0  0  0
  9 10  1  0  0  0  0
  9 25  1  0  0  0  0
 10 11  2  0  0  0  0
 10 26  1  0  0  0  0
 11 38  1  0  0  0  0
 12 17  1  0  0  0  0
 12 13  1  0  0  0  0
 12 27  1  0  0  0  0
 13 14  1  0  0  0  0
 13 28  1  0  0  0  0
 13 29  1  0  0  0  0
 14 15  1  0  0  0  0
 14 30  1  0  0  0  0
 14 31  1  0  0  0  0
 15 16  1  0  0  0  0
 15 32  1  0  0  0  0
 15 37  1  0  0  0  0
 16 17  1  0  0  0  0
 16 33  1  0  0  0  0
 16 34  1  0  0  0  0
 17 35  1  0  0  0  0
 17 36  1  0  0  0  0
M  CHG  1  11   1
M  CHG  1  15   1
M  END
> <s_m_source_file>
AV-unprocessed.smi

> <i_m_source_file_index>
385

> <i_lp_mmshare_version>
43012

> <i_f3d_flags>
0

> <s_epik_input>
W0NIMl0xW0NIMl1bTkhdW0NIMl1bQ0gyXVtDSF0xQyg9TylbTkhdW0NIMl1bQ0gyXWMyW2NIXVtjSF1bY0hdW2NIXW4y

> <s_epik_cmdline>
J2VwaWtfcHl0aG9uJywgJy1waCcsICc3LjAnLCAnLXRuJywgJzgnLCAnLW1hJywgJzIwMCcsICctbWV0YWxfYmluZGluZycsICctaW1hZScsICc8aW5maWxlLm1hZT4nLCAnLW9tYWUnLCAnPG91dGZpbGUubWFlPic=

> <r_epik_Ionization_Penalty>
1.95053

> <r_epik_Ionization_Penalty_Charging>
1.95053

> <r_epik_Ionization_Penalty_Neutral>
3.30626e-08

> <r_epik_State_Penalty>
2.07441

> <r_epik_Charging_Adjusted_Penalty>
4.02494

> <i_epik_Tot_Q>
2

> <i_epik_Tot_abs_Q>
2

> <r_epik_Metal_State_Penalty>
2.09624

> <b_epik_Metal_Only>
0

> <s_lp_Force_Field>
OPLS_2005

> <r_lp_Energy>
22.1472

> <b_lp_Chiralities_Consistent>
1

> <s_lp_Variant>
AV-unprocessed.smi:385-2

> <Gold.Version>
5.8.1

> <Gold.Id.Protein>
6NUR|6NUR_protein|mol2

> <Gold.PLP.Fitness>
47.7695

> <Gold.PLP.PLP>
-36.5953

> <Gold.PLP.part.hbond>
-3.0000

> <Gold.PLP.part.metal>
0.0000

> <Gold.PLP.part.buried>
0.2407

> <Gold.PLP.part.nonpolar>
-33.8982

> <Gold.PLP.part.repulsive>
0.3161

> <Gold.PLP.ligand.clash>
0.0000

> <Gold.PLP.ligand.torsion>
0.4185

> <Gold.PLP.Chemscore.Hbond>
4.0000

> <Gold.PLP.Chemscore.CHOScore>
0.0000

> <Gold.PLP.Chemscore.Metal>
0.0000

> <Gold.Chemscore.Hbonds>
donor molecule, donor type, donor heavy atom, donor atom, acceptor molecule, acceptor atom, score
      L1  H    11    38       P1  8028  1.92
      L1  H    15    32       P1 10175  2.00

> <Gold.PLP.Chemscore.Internal.Correction>
0.0112

> <Gold.Rescore>
     Score         DG    S(hbond)    S(metal)    S(lipo)     H(rot)  DE(clash)    DE(int)     intcor
     18.29     -20.48       1.98        0.00     108.14       1.67       1.80       0.39       ----

> <Gold.Chemscore.Fitness>
18.2858

> <Gold.Chemscore.DG>
-20.4778

> <Gold.Chemscore.ZeroCoef>
-5.4800

> <Gold.Chemscore.Hbond>
1.9829

> <Gold.Chemscore.Metal>
0.0000

> <Gold.Chemscore.Lipo>
108.1368

> <Gold.Chemscore.Internal_Hbond>
0.0000

> <Gold.Chemscore.DEClash>
1.8030

> <Gold.Chemscore.DEInternal>
0.3891

> <Gold.Chemscore.Rot>
1.6708

> <Gold.Chemscore.Internal.Correction>
   9.000000E+99

> <Gold.Chemscore.Hbonds>
donor molecule, donor type, donor heavy atom, donor atom, acceptor molecule, acceptor atom, score
      L1  H    11    38       P1  8028  0.88
      L1  H    15    32       P1 10175  1.00

> <Gold.Chemscore.Hbond.Weighted>
-6.6230

> <Gold.Chemscore.Metal.Weighted>
-0.0000

> <Gold.Chemscore.Lipo.Weighted>
-12.6520

> <Gold.Chemscore.Internal_Hbond.Weighted>
0.0000

> <Gold.Chemscore.DEClash.Weighted>
1.8030

> <Gold.Chemscore.DEInternal.Weighted>
0.3891

> <Gold.Chemscore.Rot.Weighted>
4.2772

> <Gold.Chemscore.Internal.Correction.Weighted>
   9.000000E+99

> <Gold.Protein.RotatedTorsions>
[ 6907 6896 6895 6894 ] final  -52.44 input  -60.11 | X-H torsion
[ 7974 7965 7964 7962 ] final   90.70 input  175.53 | X-H torsion
[ 8008 7997 7996 7995 ] final  -25.42 input   59.86 | X-H torsion
[ 10167 10162 10161 10158 ] final  117.86 input  -65.29 | X-H torsion
[ 10718 10713 10712 10709 ] final  -59.17 input   66.30 | X-H torsion
[ 10763 10752 10751 10750 ] final   79.27 input  -60.55 | X-H torsion
[ 11005 11000 10999 10996 ] final  178.30 input  -57.11 | X-H torsion

> <Gold.Protein.ActiveResidues>
 VAL166  LYS551  ARG553  GLY616  TRP617  ASP618  TYR619  PRO620  LYS621  CYS622 
 ASP623  PHE694  ASN695  SER759  ASP760  ASP761  ALA762  ILE779  LEU786  VAL792 
 PHE793  MET794  SER795  GLU796  ALA797  LYS798  CYS799  TRP800  GLU811  SER814 

> <Gold.Protein.RotatedAtoms>
  150.8518  134.7845  159.7014 H   0  0  0  0  0  0  0  0  0  0  0  0  # atno 6907 bound_to 6896
  152.4580  134.5244  159.9802 H   0  0  0  0  0  0  0  0  0  0  0  0  # atno 6908 bound_to 6896
  151.5364  133.3402  159.2963 H   0  0  0  0  0  0  0  0  0  0  0  0  # atno 6909 bound_to 6896
  145.5155  139.2278  143.2701 H   0  0  0  0  0  0  0  0  0  0  0  0  # atno 7974 bound_to 7965
  154.4477  140.1927  156.0616 H   0  0  0  0  0  0  0  0  0  0  0  0  # atno 8008 bound_to 7997
  156.0578  140.3300  155.7399 H   0  0  0  0  0  0  0  0  0  0  0  0  # atno 8009 bound_to 7997
  155.5458  140.0590  157.2851 H   0  0  0  0  0  0  0  0  0  0  0  0  # atno 8010 bound_to 7997
  139.6150  144.7090  151.2760 H   0  0  0  0  0  0  0  0  0  0  0  0  # atno 10167 bound_to 10162
  156.1081  130.4178  150.0678 H   0  0  0  0  0  0  0  0  0  0  0  0  # atno 10718 bound_to 10713
  153.0939  135.4846  154.8742 H   0  0  0  0  0  0  0  0  0  0  0  0  # atno 10763 bound_to 10752
  154.7301  135.3058  154.8907 H   0  0  0  0  0  0  0  0  0  0  0  0  # atno 10764 bound_to 10752
  153.9545  135.6819  153.4797 H   0  0  0  0  0  0  0  0  0  0  0  0  # atno 10765 bound_to 10752
  140.3936  134.6840  157.4522 H   0  0  0  0  0  0  0  0  0  0  0  0  # atno 11005 bound_to 11000
  146.2140  140.5964  142.9047 LP  0  0  0  0  0  0  0  0  0  0  0  0  # atno 17320 bound_to 7965
  144.7704  140.5625  143.6674 LP  0  0  0  0  0  0  0  0  0  0  0  0  # atno 17321 bound_to 7965
  140.7345  143.6765  150.8037 LP  0  0  0  0  0  0  0  0  0  0  0  0  # atno 17342 bound_to 10162
  140.0366  143.5388  152.2736 LP  0  0  0  0  0  0  0  0  0  0  0  0  # atno 17343 bound_to 10162
  156.8649  130.9504  151.3614 LP  0  0  0  0  0  0  0  0  0  0  0  0  # atno 17370 bound_to 10713
  157.6260  130.8692  149.9190 LP  0  0  0  0  0  0  0  0  0  0  0  0  # atno 17371 bound_to 10713
  140.0388  134.6297  155.9008 LP  0  0  0  0  0  0  0  0  0  0  0  0  # atno 17394 bound_to 11000
  141.1882  133.6562  156.5314 LP  0  0  0  0  0  0  0  0  0  0  0  0  # atno 17395 bound_to 11000

$$$$
