AV-unprocessed.smi:299|AV-procd|sdf|2265|dock10
  -GOLD-   2262022153D 1   1.00000     0.00000
 Structure written by MMmdl.
 42 43  0  0  0  0  0  0  0  0  2 V2000
  146.4243  129.6629  152.8026 C   0  0  0  0  0  0  0  0  0  0  0  0
  146.0579  131.1242  152.4698 C   0  0  2  0  0  0  0  0  0  0  0  0
  145.2153  131.1343  151.1748 C   0  0  0  0  0  0  0  0  0  0  0  0
  144.7974  132.5495  150.7705 C   0  0  0  0  0  0  0  0  0  0  0  0
  146.0421  133.4261  150.6415 C   0  0  0  0  0  0  0  0  0  0  0  0
  146.8556  133.4059  151.9432 C   0  0  0  0  0  0  0  0  0  0  0  0
  147.2534  132.0221  152.3368 N   0  3  1  0  0  0  0  0  0  0  0  0
  148.1498  132.0174  153.5307 C   0  0  0  0  0  0  0  0  0  0  0  0
  149.2344  133.1118  153.4945 C   0  0  0  0  0  0  0  0  0  0  0  0
  149.1893  134.0199  154.7349 C   0  0  0  0  0  0  0  0  0  0  0  0
  149.4860  135.4063  154.3935 N   0  0  0  0  0  0  0  0  0  0  0  0
  150.0683  136.2948  155.2154 C   0  0  0  0  0  0  0  0  0  0  0  0
  150.4042  136.0272  156.3687 O   0  0  0  0  0  0  0  0  0  0  0  0
  150.2921  137.7056  154.6647 C   0  0  0  0  0  0  0  0  0  0  0  0
  151.6939  138.0821  154.6944 N   0  0  0  0  0  0  0  0  0  0  0  0
  152.3003  139.1651  155.1847 C   0  0  0  0  0  0  0  0  0  0  0  0
  153.6106  139.1182  154.9997 N   0  0  0  0  0  0  0  0  0  0  0  0
  153.7933  137.9090  154.3500 N   0  0  0  0  0  0  0  0  0  0  0  0
  152.6598  137.2892  154.1669 N   0  0  0  0  0  0  0  0  0  0  0  0
  145.5520  129.0140  152.7184 H   0  0  0  0  0  0  0  0  0  0  0  0
  146.7851  129.5462  153.8240 H   0  0  0  0  0  0  0  0  0  0  0  0
  147.1845  129.2783  152.1217 H   0  0  0  0  0  0  0  0  0  0  0  0
  145.4386  131.5095  153.2818 H   0  0  0  0  0  0  0  0  0  0  0  0
  145.7828  130.6780  150.3622 H   0  0  0  0  0  0  0  0  0  0  0  0
  144.3216  130.5224  151.3046 H   0  0  0  0  0  0  0  0  0  0  0  0
  144.2513  132.5273  149.8269 H   0  0  0  0  0  0  0  0  0  0  0  0
  144.1206  132.9673  151.5169 H   0  0  0  0  0  0  0  0  0  0  0  0
  146.6600  133.0737  149.8142 H   0  0  0  0  0  0  0  0  0  0  0  0
  145.7526  134.4489  150.3985 H   0  0  0  0  0  0  0  0  0  0  0  0
  147.7317  134.0320  151.7865 H   0  0  0  0  0  0  0  0  0  0  0  0
  146.2820  133.8635  152.7508 H   0  0  0  0  0  0  0  0  0  0  0  0
  147.5544  132.1002  154.4412 H   0  0  0  0  0  0  0  0  0  0  0  0
  148.6810  131.0708  153.5943 H   0  0  0  0  0  0  0  0  0  0  0  0
  150.2195  132.6485  153.4245 H   0  0  0  0  0  0  0  0  0  0  0  0
  149.1158  133.7348  152.6089 H   0  0  0  0  0  0  0  0  0  0  0  0
  148.2163  133.9526  155.2250 H   0  0  0  0  0  0  0  0  0  0  0  0
  149.9271  133.6895  155.4665 H   0  0  0  0  0  0  0  0  0  0  0  0
  149.2397  135.7099  153.4625 H   0  0  0  0  0  0  0  0  0  0  0  0
  149.9327  137.7577  153.6363 H   0  0  0  0  0  0  0  0  0  0  0  0
  149.7192  138.4318  155.2433 H   0  0  0  0  0  0  0  0  0  0  0  0
  151.7860  139.9812  155.6705 H   0  0  0  0  0  0  0  0  0  0  0  0
  147.7975  131.6499  151.5717 H   0  0  0  0  0  0  0  0  0  0  0  0
  1  2  1  0  0  0  0
  1 20  1  0  0  0  0
  1 21  1  0  0  0  0
  1 22  1  0  0  0  0
  2  7  1  0  0  0  0
  2  3  1  0  0  0  0
  2 23  1  0  0  0  0
  3  4  1  0  0  0  0
  3 24  1  0  0  0  0
  3 25  1  0  0  0  0
  4  5  1  0  0  0  0
  4 26  1  0  0  0  0
  4 27  1  0  0  0  0
  5  6  1  0  0  0  0
  5 28  1  0  0  0  0
  5 29  1  0  0  0  0
  6  7  1  0  0  0  0
  6 30  1  0  0  0  0
  6 31  1  0  0  0  0
  7  8  1  0  0  0  0
  7 42  1  0  0  0  0
  8  9  1  0  0  0  0
  8 32  1  0  0  0  0
  8 33  1  0  0  0  0
  9 10  1  0  0  0  0
  9 34  1  0  0  0  0
  9 35  1  0  0  0  0
 10 11  1  0  0  0  0
 10 36  1  0  0  0  0
 10 37  1  0  0  0  0
 11 12  1  0  0  0  0
 11 38  1  0  0  0  0
 12 13  2  0  0  0  0
 12 14  1  0  0  0  0
 14 15  1  0  0  0  0
 14 39  1  0  0  0  0
 14 40  1  0  0  0  0
 15 19  1  0  0  0  0
 15 16  1  0  0  0  0
 16 17  2  0  0  0  0
 16 41  1  0  0  0  0
 17 18  1  0  0  0  0
 18 19  2  0  0  0  0
M  CHG  1   7   1
M  END
> <s_m_source_file>
AV-unprocessed.smi

> <i_m_source_file_index>
299

> <i_lp_mmshare_version>
43012

> <i_f3d_flags>
0

> <s_epik_input>
W0NIM11bQ0BASF0xW0NIMl1bQ0gyXVtDSDJdW0NIMl1OMVtDSDJdW0NIMl1bQ0gyXVtOSF1DKD1PKVtDSDJdbjJbY0hdbm5uMg==

> <s_epik_cmdline>
J2VwaWtfcHl0aG9uJywgJy1waCcsICc3LjAnLCAnLXRuJywgJzgnLCAnLW1hJywgJzIwMCcsICctbWV0YWxfYmluZGluZycsICctaW1hZScsICc8aW5maWxlLm1hZT4nLCAnLW9tYWUnLCAnPG91dGZpbGUubWFlPic=

> <r_lp_tautomer_probability>
1

> <r_epik_Ionization_Penalty>
0.000544863

> <r_epik_Ionization_Penalty_Charging>
0.000543475

> <r_epik_Ionization_Penalty_Neutral>
1.38784e-06

> <r_epik_State_Penalty>
0.000340025

> <r_epik_Charging_Adjusted_Penalty>
0.0008835

> <i_epik_Tot_Q>
1

> <i_epik_Tot_abs_Q>
1

> <r_epik_Metal_State_Penalty>
-0

> <b_epik_Metal_Only>
0

> <s_lp_Force_Field>
OPLS_2005

> <r_lp_Energy>
24.2757

> <b_lp_Chiralities_Consistent>
1

> <s_lp_Variant>
AV-unprocessed.smi:299-1

> <Gold.Version>
5.8.1

> <Gold.Id.Protein>
6NUR|6NUR_protein|mol2

> <Gold.PLP.Fitness>
48.9449

> <Gold.PLP.PLP>
-39.8395

> <Gold.PLP.part.hbond>
-5.0000

> <Gold.PLP.part.metal>
0.0000

> <Gold.PLP.part.buried>
-6.8943

> <Gold.PLP.part.nonpolar>
-28.5570

> <Gold.PLP.part.repulsive>
0.1883

> <Gold.PLP.ligand.clash>
0.0000

> <Gold.PLP.ligand.torsion>
0.9882

> <Gold.PLP.Chemscore.Hbond>
3.6720

> <Gold.PLP.Chemscore.CHOScore>
0.0000

> <Gold.PLP.Chemscore.Metal>
0.0000

> <Gold.Chemscore.Hbonds>
donor molecule, donor type, donor heavy atom, donor atom, acceptor molecule, acceptor atom, score
      L1  H     7    42       P1 10747  1.00
      L1  H    11    38       P1  7948  1.00
      P1  H  7997  8009       L1    17  0.96
      P1  H 10752 10765       L1    19  0.62

> <Gold.PLP.Chemscore.Internal.Correction>
0.0659

> <Gold.Rescore>
     Score         DG    S(hbond)    S(metal)    S(lipo)     H(rot)  DE(clash)    DE(int)     intcor
     15.66     -16.73       3.08        0.00      73.28       2.97       0.01       1.06       ----

> <Gold.Chemscore.Fitness>
15.6610

> <Gold.Chemscore.DG>
-16.7291

> <Gold.Chemscore.ZeroCoef>
-5.4800

> <Gold.Chemscore.Hbond>
3.0759

> <Gold.Chemscore.Metal>
0.0000

> <Gold.Chemscore.Lipo>
73.2776

> <Gold.Chemscore.Internal_Hbond>
0.0000

> <Gold.Chemscore.DEClash>
0.0077

> <Gold.Chemscore.DEInternal>
1.0604

> <Gold.Chemscore.Rot>
2.9680

> <Gold.Chemscore.Internal.Correction>
   9.000000E+99

> <Gold.Chemscore.Hbonds>
donor molecule, donor type, donor heavy atom, donor atom, acceptor molecule, acceptor atom, score
      L1  H     7    42       P1 10747  1.00
      L1  H    11    38       P1  7948  0.55
      P1  H  7997  8009       L1    17  0.76
      P1  H 10752 10765       L1    19  0.34

> <Gold.Chemscore.Hbond.Weighted>
-10.2736

> <Gold.Chemscore.Metal.Weighted>
-0.0000

> <Gold.Chemscore.Lipo.Weighted>
-8.5735

> <Gold.Chemscore.Internal_Hbond.Weighted>
0.0000

> <Gold.Chemscore.DEClash.Weighted>
0.0077

> <Gold.Chemscore.DEInternal.Weighted>
1.0604

> <Gold.Chemscore.Rot.Weighted>
7.5980

> <Gold.Chemscore.Internal.Correction.Weighted>
   9.000000E+99

> <Gold.Protein.RotatedTorsions>
[ 6907 6896 6895 6894 ] final  -77.30 input  -60.11 | X-H torsion
[ 7974 7965 7964 7962 ] final  -57.90 input  175.53 | X-H torsion
[ 8008 7997 7996 7995 ] final -145.09 input   59.86 | X-H torsion
[ 10167 10162 10161 10158 ] final  -24.86 input  -65.29 | X-H torsion
[ 10718 10713 10712 10709 ] final -175.31 input   66.30 | X-H torsion
[ 10763 10752 10751 10750 ] final  152.11 input  -60.55 | X-H torsion
[ 11005 11000 10999 10996 ] final  -33.76 input  -57.11 | X-H torsion

> <Gold.Protein.ActiveResidues>
 VAL166  LYS551  ARG553  GLY616  TRP617  ASP618  TYR619  PRO620  LYS621  CYS622 
 ASP623  PHE694  ASN695  SER759  ASP760  ASP761  ALA762  ILE779  LEU786  VAL792 
 PHE793  MET794  SER795  GLU796  ALA797  LYS798  CYS799  TRP800  GLU811  SER814 

> <Gold.Protein.RotatedAtoms>
  150.7003  134.4443  159.5306 H   0  0  0  0  0  0  0  0  0  0  0  0  # atno 6907 bound_to 6896
  152.2147  134.8466  160.0502 H   0  0  0  0  0  0  0  0  0  0  0  0  # atno 6908 bound_to 6896
  151.9338  133.3583  159.3977 H   0  0  0  0  0  0  0  0  0  0  0  0  # atno 6909 bound_to 6896
  145.8456  140.8387  143.0012 H   0  0  0  0  0  0  0  0  0  0  0  0  # atno 7974 bound_to 7965
  155.5374  140.0605  157.2877 H   0  0  0  0  0  0  0  0  0  0  0  0  # atno 8008 bound_to 7997
  154.4463  140.1925  156.0601 H   0  0  0  0  0  0  0  0  0  0  0  0  # atno 8009 bound_to 7997
  156.0609  140.3272  155.7464 H   0  0  0  0  0  0  0  0  0  0  0  0  # atno 8010 bound_to 7997
  140.7287  143.4316  151.0793 H   0  0  0  0  0  0  0  0  0  0  0  0  # atno 10167 bound_to 10162
  156.7980  130.9542  151.3119 H   0  0  0  0  0  0  0  0  0  0  0  0  # atno 10718 bound_to 10713
  154.1146  135.2837  155.3222 H   0  0  0  0  0  0  0  0  0  0  0  0  # atno 10763 bound_to 10752
  154.6466  135.5384  153.7855 H   0  0  0  0  0  0  0  0  0  0  0  0  # atno 10764 bound_to 10752
  153.0333  135.6499  154.1303 H   0  0  0  0  0  0  0  0  0  0  0  0  # atno 10765 bound_to 10752
  140.9661  133.7136  156.1448 H   0  0  0  0  0  0  0  0  0  0  0  0  # atno 11005 bound_to 11000
  144.6731  140.0877  143.7466 LP  0  0  0  0  0  0  0  0  0  0  0  0  # atno 17320 bound_to 7965
  145.9415  139.2672  143.1266 LP  0  0  0  0  0  0  0  0  0  0  0  0  # atno 17321 bound_to 7965
  139.7973  143.8133  152.3159 LP  0  0  0  0  0  0  0  0  0  0  0  0  # atno 17342 bound_to 10162
  139.8138  144.7325  150.9663 LP  0  0  0  0  0  0  0  0  0  0  0  0  # atno 17343 bound_to 10162
  157.6568  130.8931  149.9745 LP  0  0  0  0  0  0  0  0  0  0  0  0  # atno 17370 bound_to 10713
  156.1119  130.3649  150.0035 LP  0  0  0  0  0  0  0  0  0  0  0  0  # atno 17371 bound_to 10713
  140.7396  134.4164  157.5556 LP  0  0  0  0  0  0  0  0  0  0  0  0  # atno 17394 bound_to 11000
  139.8895  134.8828  156.2417 LP  0  0  0  0  0  0  0  0  0  0  0  0  # atno 17395 bound_to 11000

$$$$
