AV-unprocessed.smi:19|AV-procd|sdf|112|dock6
  -GOLD-   2262015273D 1   1.00000     0.00000
 Structure written by MMmdl.
 57 60  0  0  0  0  0  0  0  0  1 V2000
  152.5820  143.0992  161.7439 C   0  0  0  0  0  0  0  0  0  0  0  0
  151.9797  142.2566  160.7772 O   0  0  0  0  0  0  0  0  0  0  0  0
  152.9319  141.6354  159.9281 C   0  0  0  0  0  0  0  0  0  0  0  0
  152.2342  140.6387  158.9919 C   0  0  1  0  0  0  0  0  0  0  0  0
  151.4335  141.3253  157.8699 C   0  0  0  0  0  0  0  0  0  0  0  0
  150.8797  140.3249  156.9651 N   0  0  0  0  0  0  0  0  0  0  0  0
  149.9158  140.7833  156.1258 C   0  0  0  0  0  0  0  0  0  0  0  0
  150.0880  140.6942  154.7794 N   0  0  0  0  0  0  0  0  0  0  0  0
  149.1512  141.1551  153.9459 C   0  0  0  0  0  0  0  0  0  0  0  0
  147.9830  141.7278  154.2393 N   0  0  0  0  0  0  0  0  0  0  0  0
  147.7941  141.8073  155.5873 C   0  0  0  0  0  0  0  0  0  0  0  0
  148.7028  141.3663  156.5914 C   0  0  0  0  0  0  0  0  0  0  0  0
  148.1677  141.6101  157.8505 N   0  0  0  0  0  0  0  0  0  0  0  0
  147.0176  142.1747  157.6050 C   0  0  0  0  0  0  0  0  0  0  0  0
  146.7036  142.3179  156.2717 N   0  0  0  0  0  0  0  0  0  0  0  0
  145.4929  142.9134  155.7213 C   0  0  0  0  0  0  0  0  0  0  0  0
  144.1713  142.1668  156.0735 C   0  0  0  0  0  0  0  0  0  0  0  0
  144.2878  140.6537  155.7312 C   0  0  0  0  0  0  0  0  0  0  0  0
  144.9442  140.4324  154.4992 O   0  0  0  0  0  0  0  0  0  0  0  0
  143.8544  142.3328  157.5821 C   0  0  0  0  0  0  0  0  0  0  0  0
  142.4184  141.9133  157.9498 C   0  0  0  0  0  0  0  0  0  0  0  0
  141.4788  142.6266  157.1569 O   0  0  0  0  0  0  0  0  0  0  0  0
  141.6234  142.3673  155.7667 C   0  0  0  0  0  0  0  0  0  0  0  0
  143.0106  142.8347  155.2928 C   0  0  0  0  0  0  0  0  0  0  0  0
  151.8951  139.4273  156.4198 C   0  0  0  0  0  0  0  0  0  0  0  0
  152.7129  138.7715  157.5496 C   0  0  2  0  0  0  0  0  0  0  0  0
  151.9453  137.6681  158.2986 C   0  0  0  0  0  0  0  0  0  0  0  0
  153.2216  139.7702  158.4367 O   0  0  0  0  0  0  0  0  0  0  0  0
  151.8116  143.5461  162.3721 H   0  0  0  0  0  0  0  0  0  0  0  0
  153.1399  143.9076  161.2696 H   0  0  0  0  0  0  0  0  0  0  0  0
  153.2588  142.5379  162.3896 H   0  0  0  0  0  0  0  0  0  0  0  0
  153.4633  142.3864  159.3414 H   0  0  0  0  0  0  0  0  0  0  0  0
  153.6735  141.1120  160.5337 H   0  0  0  0  0  0  0  0  0  0  0  0
  151.5515  140.0480  159.6028 H   0  0  0  0  0  0  0  0  0  0  0  0
  150.6536  141.9457  158.3092 H   0  0  0  0  0  0  0  0  0  0  0  0
  152.0790  141.9908  157.2953 H   0  0  0  0  0  0  0  0  0  0  0  0
  149.3690  141.0507  152.8932 H   0  0  0  0  0  0  0  0  0  0  0  0
  146.3583  142.4988  158.3971 H   0  0  0  0  0  0  0  0  0  0  0  0
  145.4454  143.9427  156.0793 H   0  0  0  0  0  0  0  0  0  0  0  0
  145.6105  142.9876  154.6396 H   0  0  0  0  0  0  0  0  0  0  0  0
  144.8278  140.1188  156.5124 H   0  0  0  0  0  0  0  0  0  0  0  0
  143.3106  140.1784  155.6664 H   0  0  0  0  0  0  0  0  0  0  0  0
  144.3042  140.4752  153.8053 H   0  0  0  0  0  0  0  0  0  0  0  0
  144.5592  141.7630  158.1884 H   0  0  0  0  0  0  0  0  0  0  0  0
  143.9839  143.3782  157.8660 H   0  0  0  0  0  0  0  0  0  0  0  0
  142.2704  140.8394  157.8335 H   0  0  0  0  0  0  0  0  0  0  0  0
  142.2260  142.1383  158.9988 H   0  0  0  0  0  0  0  0  0  0  0  0
  141.4615  141.3094  155.5576 H   0  0  0  0  0  0  0  0  0  0  0  0
  140.8468  142.9123  155.2299 H   0  0  0  0  0  0  0  0  0  0  0  0
  143.0606  143.9167  155.4229 H   0  0  0  0  0  0  0  0  0  0  0  0
  143.1134  142.6630  154.2210 H   0  0  0  0  0  0  0  0  0  0  0  0
  151.4314  138.6562  155.8030 H   0  0  0  0  0  0  0  0  0  0  0  0
  152.5613  139.9998  155.7729 H   0  0  0  0  0  0  0  0  0  0  0  0
  153.5836  138.2971  157.0963 H   0  0  0  0  0  0  0  0  0  0  0  0
  151.6891  136.8509  157.6238 H   0  0  0  0  0  0  0  0  0  0  0  0
  151.0142  138.0328  158.7312 H   0  0  0  0  0  0  0  0  0  0  0  0
  152.5500  137.2523  159.1047 H   0  0  0  0  0  0  0  0  0  0  0  0
  1  2  1  0  0  0  0
  1 29  1  0  0  0  0
  1 30  1  0  0  0  0
  1 31  1  0  0  0  0
  2  3  1  0  0  0  0
  3  4  1  0  0  0  0
  3 32  1  0  0  0  0
  3 33  1  0  0  0  0
  4 28  1  0  0  0  0
  4  5  1  0  0  0  0
  4 34  1  0  0  0  0
  5  6  1  0  0  0  0
  5 35  1  0  0  0  0
  5 36  1  0  0  0  0
  6  7  1  0  0  0  0
  6 25  1  0  0  0  0
  7 12  1  0  0  0  0
  7  8  2  0  0  0  0
  8  9  1  0  0  0  0
  9 10  2  0  0  0  0
  9 37  1  0  0  0  0
 10 11  1  0  0  0  0
 11 15  1  0  0  0  0
 11 12  2  0  0  0  0
 12 13  1  0  0  0  0
 13 14  2  0  0  0  0
 14 15  1  0  0  0  0
 14 38  1  0  0  0  0
 15 16  1  0  0  0  0
 16 17  1  0  0  0  0
 16 39  1  0  0  0  0
 16 40  1  0  0  0  0
 17 24  1  0  0  0  0
 17 18  1  0  0  0  0
 17 20  1  0  0  0  0
 18 19  1  0  0  0  0
 18 41  1  0  0  0  0
 18 42  1  0  0  0  0
 19 43  1  0  0  0  0
 20 21  1  0  0  0  0
 20 44  1  0  0  0  0
 20 45  1  0  0  0  0
 21 22  1  0  0  0  0
 21 46  1  0  0  0  0
 21 47  1  0  0  0  0
 22 23  1  0  0  0  0
 23 24  1  0  0  0  0
 23 48  1  0  0  0  0
 23 49  1  0  0  0  0
 24 50  1  0  0  0  0
 24 51  1  0  0  0  0
 25 26  1  0  0  0  0
 25 52  1  0  0  0  0
 25 53  1  0  0  0  0
 26 27  1  0  0  0  0
 26 28  1  0  0  0  0
 26 54  1  0  0  0  0
 27 55  1  0  0  0  0
 27 56  1  0  0  0  0
 27 57  1  0  0  0  0
M  END
> <s_m_source_file>
AV-unprocessed.smi

> <i_m_source_file_index>
19

> <i_lp_mmshare_version>
43012

> <i_f3d_flags>
0

> <s_epik_input>
W0NIM11PW0NIMl1bQ0BASF0xW0NIMl1OKFtDSDJdW0NASF0oTzEpW0NIM10pYyhuW2NIXW4yKWMoYzIzKW5bY0hdbjNbQ0gyXUM0KFtDSDJdW09IXSlbQ0gyXVtDSDJdT1tDSDJdW0NIMl00

> <s_epik_cmdline>
J2VwaWtfcHl0aG9uJywgJy1waCcsICc3LjAnLCAnLXRuJywgJzgnLCAnLW1hJywgJzIwMCcsICctbWV0YWxfYmluZGluZycsICctaW1hZScsICc8aW5maWxlLm1hZT4nLCAnLW9tYWUnLCAnPG91dGZpbGUubWFlPic=

> <r_lp_tautomer_probability>
1

> <r_epik_Ionization_Penalty>
6.20357e-05

> <r_epik_Ionization_Penalty_Charging>
0

> <r_epik_Ionization_Penalty_Neutral>
6.20357e-05

> <r_epik_State_Penalty>
-0

> <r_epik_Charging_Adjusted_Penalty>
0

> <i_epik_Tot_Q>
0

> <i_epik_Tot_abs_Q>
0

> <r_epik_Metal_State_Penalty>
-0

> <b_epik_Metal_Only>
0

> <s_lp_Force_Field>
OPLS_2005

> <r_lp_Energy>
39.077

> <b_lp_Chiralities_Consistent>
1

> <s_lp_Variant>
AV-unprocessed.smi:19-4

> <Gold.Version>
5.8.1

> <Gold.Id.Protein>
6NUR|6NUR_protein|mol2

> <Gold.PLP.Fitness>
41.3470

> <Gold.PLP.PLP>
-32.8641

> <Gold.PLP.part.hbond>
-3.6119

> <Gold.PLP.part.metal>
0.0000

> <Gold.PLP.part.buried>
-4.6762

> <Gold.PLP.part.nonpolar>
-24.2269

> <Gold.PLP.part.repulsive>
0.3646

> <Gold.PLP.ligand.clash>
0.0000

> <Gold.PLP.ligand.torsion>
0.6302

> <Gold.PLP.Chemscore.Hbond>
2.1391

> <Gold.PLP.Chemscore.CHOScore>
1.0000

> <Gold.PLP.Chemscore.Metal>
0.0000

> <Gold.Chemscore.Hbonds>
donor molecule, donor type, donor heavy atom, donor atom, acceptor molecule, acceptor atom, score
      L1  H    19    43       P1 10175  0.81
      P1  H  7989  7998       L1     8  0.67
      P1  H  7997  8010       L1    28  0.45
      L1  C     9    37       P1  7957  0.95

> <Gold.PLP.Chemscore.Internal.Correction>
0.3261

> <Gold.Rescore>
     Score         DG    S(hbond)    S(metal)    S(lipo)     H(rot)  DE(clash)    DE(int)     intcor
      8.81      -9.56       1.16        0.00      64.71       2.87       0.02       0.73       ----

> <Gold.Chemscore.Fitness>
8.8107

> <Gold.Chemscore.DG>
-9.5648

> <Gold.Chemscore.ZeroCoef>
-5.4800

> <Gold.Chemscore.Hbond>
1.1582

> <Gold.Chemscore.Metal>
0.0000

> <Gold.Chemscore.Lipo>
64.7091

> <Gold.Chemscore.Internal_Hbond>
0.0000

> <Gold.Chemscore.DEClash>
0.0234

> <Gold.Chemscore.DEInternal>
0.7307

> <Gold.Chemscore.Rot>
2.8729

> <Gold.Chemscore.Internal.Correction>
   9.000000E+99

> <Gold.Chemscore.Hbonds>
donor molecule, donor type, donor heavy atom, donor atom, acceptor molecule, acceptor atom, score
      L1  H    19    43       P1 10175  0.80
      P1  H  7989  7998       L1     8  0.09
      P1  H  7997  8010       L1    28  0.01

> <Gold.Chemscore.Hbond.Weighted>
-3.8684

> <Gold.Chemscore.Metal.Weighted>
-0.0000

> <Gold.Chemscore.Lipo.Weighted>
-7.5710

> <Gold.Chemscore.Internal_Hbond.Weighted>
0.0000

> <Gold.Chemscore.DEClash.Weighted>
0.0234

> <Gold.Chemscore.DEInternal.Weighted>
0.7307

> <Gold.Chemscore.Rot.Weighted>
7.3546

> <Gold.Chemscore.Internal.Correction.Weighted>
   9.000000E+99

> <Gold.Protein.RotatedTorsions>
[ 6907 6896 6895 6894 ] final   74.53 input  -60.11 | X-H torsion
[ 7974 7965 7964 7962 ] final   72.17 input  175.53 | X-H torsion
[ 8008 7997 7996 7995 ] final   18.95 input   59.86 | X-H torsion
[ 10167 10162 10161 10158 ] final  161.58 input  -65.29 | X-H torsion
[ 10718 10713 10712 10709 ] final -108.07 input   66.30 | X-H torsion
[ 10763 10752 10751 10750 ] final   98.84 input  -60.55 | X-H torsion
[ 11005 11000 10999 10996 ] final   31.53 input  -57.11 | X-H torsion

> <Gold.Protein.ActiveResidues>
 VAL166  LYS551  ARG553  GLY616  TRP617  ASP618  TYR619  PRO620  LYS621  CYS622 
 ASP623  PHE694  ASN695  SER759  ASP760  ASP761  ALA762  ILE779  LEU786  VAL792 
 PHE793  MET794  SER795  GLU796  ALA797  LYS798  CYS799  TRP800  GLU811  SER814 

> <Gold.Protein.RotatedAtoms>
  152.4980  134.4258  159.9495 H   0  0  0  0  0  0  0  0  0  0  0  0  # atno 6907 bound_to 6896
  151.4233  133.3685  159.2767 H   0  0  0  0  0  0  0  0  0  0  0  0  # atno 6908 bound_to 6896
  150.9207  134.8647  159.7546 H   0  0  0  0  0  0  0  0  0  0  0  0  # atno 6909 bound_to 6896
  145.7567  139.2783  143.1400 H   0  0  0  0  0  0  0  0  0  0  0  0  # atno 7974 bound_to 7965
  154.9135  140.3017  155.5253 H   0  0  0  0  0  0  0  0  0  0  0  0  # atno 8008 bound_to 7997
  156.3013  140.2384  156.4113 H   0  0  0  0  0  0  0  0  0  0  0  0  # atno 8009 bound_to 7997
  154.8402  140.0414  157.1525 H   0  0  0  0  0  0  0  0  0  0  0  0  # atno 8010 bound_to 7997
  139.4851  144.4522  151.8815 H   0  0  0  0  0  0  0  0  0  0  0  0  # atno 10167 bound_to 10162
  156.0467  130.5694  150.7910 H   0  0  0  0  0  0  0  0  0  0  0  0  # atno 10718 bound_to 10713
  153.2940  135.4134  155.1193 H   0  0  0  0  0  0  0  0  0  0  0  0  # atno 10763 bound_to 10752
  154.8529  135.3525  154.5942 H   0  0  0  0  0  0  0  0  0  0  0  0  # atno 10764 bound_to 10752
  153.6365  135.7058  153.5314 H   0  0  0  0  0  0  0  0  0  0  0  0  # atno 10765 bound_to 10752
  140.2829  134.2952  155.7796 H   0  0  0  0  0  0  0  0  0  0  0  0  # atno 11005 bound_to 11000
  146.0304  140.8264  142.9879 LP  0  0  0  0  0  0  0  0  0  0  0  0  # atno 17320 bound_to 7965
  144.6838  140.2760  143.7299 LP  0  0  0  0  0  0  0  0  0  0  0  0  # atno 17321 bound_to 7965
  140.3979  144.2531  150.5895 LP  0  0  0  0  0  0  0  0  0  0  0  0  # atno 17342 bound_to 10162
  140.5085  143.2297  151.8572 LP  0  0  0  0  0  0  0  0  0  0  0  0  # atno 17343 bound_to 10162
  157.5351  131.0938  150.9903 LP  0  0  0  0  0  0  0  0  0  0  0  0  # atno 17370 bound_to 10713
  157.0200  130.5670  149.5330 LP  0  0  0  0  0  0  0  0  0  0  0  0  # atno 17371 bound_to 10713
  141.2160  133.7536  156.9508 LP  0  0  0  0  0  0  0  0  0  0  0  0  # atno 17394 bound_to 11000
  140.1267  134.9382  157.2279 LP  0  0  0  0  0  0  0  0  0  0  0  0  # atno 17395 bound_to 11000

$$$$
