AV-unprocessed.smi:1587|AV-procd|sdf|6388|dock1
  -GOLD-   22720 7 23D 1   1.00000     0.00000
 Structure written by MMmdl.
 37 38  0  0  0  0  0  0  0  0  2 V2000
  144.6392  136.6353  151.7812 O   0  0  0  0  0  0  0  0  0  0  0  0
  145.8560  136.4732  151.6833 C   0  0  0  0  0  0  0  0  0  0  0  0
  146.7471  137.4495  151.9097 N   0  0  0  0  0  0  0  0  0  0  0  0
  146.4038  138.8119  152.3015 C   0  0  0  0  0  0  0  0  0  0  0  0
  146.3967  138.9743  153.8338 C   0  0  0  0  0  0  0  0  0  0  0  0
  145.9738  140.3322  154.2574 N   0  3  0  0  0  0  0  0  0  0  0  0
  145.6597  140.3986  155.7049 C   0  0  0  0  0  0  0  0  0  0  0  0
  145.1835  141.8092  156.0900 C   0  0  0  0  0  0  0  0  0  0  0  0
  146.1788  142.7610  155.7367 O   0  0  0  0  0  0  0  0  0  0  0  0
  146.4287  142.7735  154.3369 C   0  0  0  0  0  0  0  0  0  0  0  0
  146.9432  141.3947  153.8898 C   0  0  0  0  0  0  0  0  0  0  0  0
  146.4647  135.3239  151.3412 N   0  0  0  0  0  0  0  0  0  0  0  0
  145.8656  134.0771  151.0175 C   0  0  0  0  0  0  0  0  0  0  0  0
  144.5138  134.1493  150.6113 C   0  0  0  0  0  0  0  0  0  0  0  0
  143.8286  132.9668  150.2709 C   0  0  0  0  0  0  0  0  0  0  0  0
  144.5138  131.7411  150.3455 C   0  0  0  0  0  0  0  0  0  0  0  0
  145.8585  131.7573  150.7591 C   0  0  0  0  0  0  0  0  0  0  0  0
  146.5170  132.8892  151.0861 N   0  0  0  0  0  0  0  0  0  0  0  0
  147.7286  137.2345  151.8097 H   0  0  0  0  0  0  0  0  0  0  0  0
  147.1007  139.5045  151.8286 H   0  0  0  0  0  0  0  0  0  0  0  0
  145.4169  139.0419  151.8990 H   0  0  0  0  0  0  0  0  0  0  0  0
  145.7049  138.2391  154.2479 H   0  0  0  0  0  0  0  0  0  0  0  0
  147.3753  138.7485  154.2603 H   0  0  0  0  0  0  0  0  0  0  0  0
  144.8841  139.6720  155.9507 H   0  0  0  0  0  0  0  0  0  0  0  0
  146.5449  140.1319  156.2847 H   0  0  0  0  0  0  0  0  0  0  0  0
  144.2398  142.0508  155.5981 H   0  0  0  0  0  0  0  0  0  0  0  0
  145.0063  141.8656  157.1641 H   0  0  0  0  0  0  0  0  0  0  0  0
  145.5215  143.0462  153.7950 H   0  0  0  0  0  0  0  0  0  0  0  0
  147.1723  143.5404  154.1185 H   0  0  0  0  0  0  0  0  0  0  0  0
  147.9070  141.1894  154.3587 H   0  0  0  0  0  0  0  0  0  0  0  0
  147.1090  141.4065  152.8131 H   0  0  0  0  0  0  0  0  0  0  0  0
  147.4732  135.3412  151.3064 H   0  0  0  0  0  0  0  0  0  0  0  0
  144.0020  135.0992  150.5590 H   0  0  0  0  0  0  0  0  0  0  0  0
  142.7954  133.0008  149.9583 H   0  0  0  0  0  0  0  0  0  0  0  0
  144.0223  130.8134  150.0924 H   0  0  0  0  0  0  0  0  0  0  0  0
  146.4206  130.8377  150.8300 H   0  0  0  0  0  0  0  0  0  0  0  0
  145.1118  140.5336  153.7707 H   0  0  0  0  0  0  0  0  0  0  0  0
  1  2  2  0  0  0  0
  2  3  1  0  0  0  0
  2 12  1  0  0  0  0
  3  4  1  0  0  0  0
  3 19  1  0  0  0  0
  4  5  1  0  0  0  0
  4 20  1  0  0  0  0
  4 21  1  0  0  0  0
  5  6  1  0  0  0  0
  5 22  1  0  0  0  0
  5 23  1  0  0  0  0
  6 11  1  0  0  0  0
  6  7  1  0  0  0  0
  6 37  1  0  0  0  0
  7  8  1  0  0  0  0
  7 24  1  0  0  0  0
  7 25  1  0  0  0  0
  8  9  1  0  0  0  0
  8 26  1  0  0  0  0
  8 27  1  0  0  0  0
  9 10  1  0  0  0  0
 10 11  1  0  0  0  0
 10 28  1  0  0  0  0
 10 29  1  0  0  0  0
 11 30  1  0  0  0  0
 11 31  1  0  0  0  0
 12 13  1  0  0  0  0
 12 32  1  0  0  0  0
 13 18  1  0  0  0  0
 13 14  2  0  0  0  0
 14 15  1  0  0  0  0
 14 33  1  0  0  0  0
 15 16  2  0  0  0  0
 15 34  1  0  0  0  0
 16 17  1  0  0  0  0
 16 35  1  0  0  0  0
 17 18  2  0  0  0  0
 17 36  1  0  0  0  0
M  CHG  1   6   1
M  END
> <s_m_source_file>
AV-unprocessed.smi

> <i_m_source_file_index>
1587

> <i_lp_mmshare_version>
43012

> <i_f3d_flags>
0

> <s_epik_input>
bjFbY0hdW2NIXVtjSF1bY0hdYzFbTkhdQyg9TylbTkhdW0NIMl1bQ0gyXU4yW0NIMl1bQ0gyXU9bQ0gyXVtDSDJdMg==

> <s_epik_cmdline>
J2VwaWtfcHl0aG9uJywgJy1waCcsICc3LjAnLCAnLXRuJywgJzgnLCAnLW1hJywgJzIwMCcsICctbWV0YWxfYmluZGluZycsICctaW1hZScsICc8aW5maWxlLm1hZT4nLCAnLW9tYWUnLCAnPG91dGZpbGUubWFlPic=

> <r_epik_Ionization_Penalty>
0.602565

> <r_epik_Ionization_Penalty_Charging>
0.602531

> <r_epik_Ionization_Penalty_Neutral>
3.41998e-05

> <r_epik_State_Penalty>
0.617039

> <r_epik_Charging_Adjusted_Penalty>
1.21957

> <i_epik_Tot_Q>
1

> <i_epik_Tot_abs_Q>
1

> <r_epik_Metal_State_Penalty>
0.617041

> <b_epik_Metal_Only>
0

> <s_lp_Force_Field>
OPLS_2005

> <r_lp_Energy>
15.9912

> <b_lp_Chiralities_Consistent>
1

> <s_lp_Variant>
AV-unprocessed.smi:1587-2

> <Gold.Version>
5.8.1

> <Gold.Id.Protein>
6NUR|6NUR_protein|mol2

> <Gold.PLP.Fitness>
43.6363

> <Gold.PLP.PLP>
-30.4252

> <Gold.PLP.part.hbond>
-3.0000

> <Gold.PLP.part.metal>
0.0000

> <Gold.PLP.part.buried>
-3.9225

> <Gold.PLP.part.nonpolar>
-24.5638

> <Gold.PLP.part.repulsive>
1.0649

> <Gold.PLP.ligand.clash>
0.0000

> <Gold.PLP.ligand.torsion>
0.3427

> <Gold.PLP.Chemscore.Hbond>
3.8720

> <Gold.PLP.Chemscore.CHOScore>
0.7323

> <Gold.PLP.Chemscore.Metal>
0.0000

> <Gold.Chemscore.Hbonds>
donor molecule, donor type, donor heavy atom, donor atom, acceptor molecule, acceptor atom, score
      L1  H     3    19       P1  7948  1.00
      L1  H     6    37       P1 10175  2.00
      L1  H    12    32       P1  7948  0.93
      L1  C    17    36       P1 10747  0.64

> <Gold.PLP.Chemscore.Internal.Correction>
0.0835

> <Gold.Rescore>
     Score         DG    S(hbond)    S(metal)    S(lipo)     H(rot)  DE(clash)    DE(int)     intcor
     15.97     -18.24       2.77        0.00      64.98       1.60       0.53       1.74       ----

> <Gold.Chemscore.Fitness>
15.9698

> <Gold.Chemscore.DG>
-18.2358

> <Gold.Chemscore.ZeroCoef>
-5.4800

> <Gold.Chemscore.Hbond>
2.7678

> <Gold.Chemscore.Metal>
0.0000

> <Gold.Chemscore.Lipo>
64.9794

> <Gold.Chemscore.Internal_Hbond>
0.0000

> <Gold.Chemscore.DEClash>
0.5310

> <Gold.Chemscore.DEInternal>
1.7350

> <Gold.Chemscore.Rot>
1.5981

> <Gold.Chemscore.Internal.Correction>
   9.000000E+99

> <Gold.Chemscore.Hbonds>
donor molecule, donor type, donor heavy atom, donor atom, acceptor molecule, acceptor atom, score
      L1  H     3    19       P1  7948  0.93
      L1  H     6    37       P1 10175  0.99
      L1  H    12    32       P1  7948  0.63

> <Gold.Chemscore.Hbond.Weighted>
-9.2443

> <Gold.Chemscore.Metal.Weighted>
-0.0000

> <Gold.Chemscore.Lipo.Weighted>
-7.6026

> <Gold.Chemscore.Internal_Hbond.Weighted>
0.0000

> <Gold.Chemscore.DEClash.Weighted>
0.5310

> <Gold.Chemscore.DEInternal.Weighted>
1.7350

> <Gold.Chemscore.Rot.Weighted>
4.0911

> <Gold.Chemscore.Internal.Correction.Weighted>
   9.000000E+99

> <Gold.Protein.RotatedTorsions>
[ 6907 6896 6895 6894 ] final   19.47 input  -60.11 | X-H torsion
[ 7974 7965 7964 7962 ] final -174.62 input  175.53 | X-H torsion
[ 8008 7997 7996 7995 ] final  -54.18 input   59.86 | X-H torsion
[ 10167 10162 10161 10158 ] final  -69.01 input  -65.29 | X-H torsion
[ 10718 10713 10712 10709 ] final  -28.01 input   66.30 | X-H torsion
[ 10763 10752 10751 10750 ] final   -4.65 input  -60.55 | X-H torsion
[ 11005 11000 10999 10996 ] final  -94.81 input  -57.11 | X-H torsion

> <Gold.Protein.ActiveResidues>
 VAL166  LYS551  ARG553  GLY616  TRP617  ASP618  TYR619  PRO620  LYS621  CYS622 
 ASP623  PHE694  ASN695  SER759  ASP760  ASP761  ALA762  ILE779  LEU786  VAL792 
 PHE793  MET794  SER795  GLU796  ALA797  LYS798  CYS799  TRP800  GLU811  SER814 

> <Gold.Protein.RotatedAtoms>
  151.8813  135.0452  160.0488 H   0  0  0  0  0  0  0  0  0  0  0  0  # atno 6907 bound_to 6896
  152.2510  133.5210  159.5334 H   0  0  0  0  0  0  0  0  0  0  0  0  # atno 6908 bound_to 6896
  150.7084  134.0876  159.3963 H   0  0  0  0  0  0  0  0  0  0  0  0  # atno 6909 bound_to 6896
  144.7131  140.1444  143.6389 H   0  0  0  0  0  0  0  0  0  0  0  0  # atno 7974 bound_to 7965
  154.4155  140.1182  156.5274 H   0  0  0  0  0  0  0  0  0  0  0  0  # atno 8008 bound_to 7997
  155.6640  140.3496  155.4774 H   0  0  0  0  0  0  0  0  0  0  0  0  # atno 8009 bound_to 7997
  155.9689  140.1137  157.0820 H   0  0  0  0  0  0  0  0  0  0  0  0  # atno 8010 bound_to 7997
  140.5464  143.2313  151.6994 H   0  0  0  0  0  0  0  0  0  0  0  0  # atno 10167 bound_to 10162
  156.4308  130.4445  149.7119 H   0  0  0  0  0  0  0  0  0  0  0  0  # atno 10718 bound_to 10713
  153.3878  135.7001  153.6517 H   0  0  0  0  0  0  0  0  0  0  0  0  # atno 10763 bound_to 10752
  153.5102  135.3633  155.2583 H   0  0  0  0  0  0  0  0  0  0  0  0  # atno 10764 bound_to 10752
  154.8699  135.4133  154.3188 H   0  0  0  0  0  0  0  0  0  0  0  0  # atno 10765 bound_to 10752
  141.1460  133.7982  157.0349 H   0  0  0  0  0  0  0  0  0  0  0  0  # atno 11005 bound_to 11000
  145.9173  139.2524  143.1402 LP  0  0  0  0  0  0  0  0  0  0  0  0  # atno 17320 bound_to 7965
  145.9656  140.8801  143.0188 LP  0  0  0  0  0  0  0  0  0  0  0  0  # atno 17321 bound_to 7965
  139.5009  144.3888  152.0301 LP  0  0  0  0  0  0  0  0  0  0  0  0  # atno 17342 bound_to 10162
  140.3001  144.3656  150.6062 LP  0  0  0  0  0  0  0  0  0  0  0  0  # atno 17343 bound_to 10162
  156.4022  130.7680  151.2689 LP  0  0  0  0  0  0  0  0  0  0  0  0  # atno 17370 bound_to 10713
  157.7508  131.0236  150.3842 LP  0  0  0  0  0  0  0  0  0  0  0  0  # atno 17371 bound_to 10713
  140.0730  134.9691  157.1499 LP  0  0  0  0  0  0  0  0  0  0  0  0  # atno 17394 bound_to 11000
  140.3684  134.2417  155.7180 LP  0  0  0  0  0  0  0  0  0  0  0  0  # atno 17395 bound_to 11000

$$$$
