AV-unprocessed.smi:1011|AV-procd|sdf|4419|dock4
  -GOLD-   22720 2363D 1   1.00000     0.00000
 Structure written by MMmdl.
 44 46  0  0  0  0  0  0  0  0  2 V2000
  143.9410  132.6910  150.5094 C   0  0  0  0  0  0  0  0  0  0  0  0
  144.3391  133.9124  151.2871 C   0  0  0  0  0  0  0  0  0  0  0  0
  144.1135  134.1796  152.6672 C   0  0  0  0  0  0  0  0  0  0  0  0
  144.5947  135.3514  153.0489 N   0  0  0  0  0  0  0  0  0  0  0  0
  145.1400  135.8736  151.9294 N   0  0  0  0  0  0  0  0  0  0  0  0
  145.7897  137.1721  151.9784 C   0  0  0  0  0  0  0  0  0  0  0  0
  146.1276  137.5871  153.4189 C   0  0  0  0  0  0  0  0  0  0  0  0
  147.5766  137.8114  153.5829 N   0  3  0  0  0  0  0  0  0  0  0  0
  148.0739  137.6053  154.9549 C   0  0  0  0  0  0  0  0  0  0  0  0
  148.5196  136.1753  154.9408 C   0  0  0  0  0  0  0  0  0  0  0  0
  147.7302  135.2003  154.4896 N   0  0  0  0  0  0  0  0  0  0  0  0
  148.5135  134.0740  154.6527 C   0  0  0  0  0  0  0  0  0  0  0  0
  148.2435  132.7177  154.3626 C   0  0  0  0  0  0  0  0  0  0  0  0
  149.2135  131.7260  154.6180 C   0  0  0  0  0  0  0  0  0  0  0  0
  148.8669  130.0746  154.2589 Cl  0  0  0  0  0  0  0  0  0  0  0  0
  150.4649  132.0770  155.1653 C   0  0  0  0  0  0  0  0  0  0  0  0
  150.7548  133.4230  155.4607 C   0  0  0  0  0  0  0  0  0  0  0  0
  149.7828  134.4081  155.2043 C   0  0  0  0  0  0  0  0  0  0  0  0
  149.7476  135.7886  155.3749 N   0  0  0  0  0  0  0  0  0  0  0  0
  150.8278  136.6096  155.9100 C   0  0  0  0  0  0  0  0  0  0  0  0
  151.2547  137.7243  154.9414 C   0  0  0  0  0  0  0  0  0  0  0  0
  152.0775  137.2149  153.9129 O   0  0  0  0  0  0  0  0  0  0  0  0
  145.0002  135.0257  150.8513 C   0  0  0  0  0  0  0  0  0  0  0  0
  142.9616  132.3212  150.8135 H   0  0  0  0  0  0  0  0  0  0  0  0
  144.6510  131.8761  150.6515 H   0  0  0  0  0  0  0  0  0  0  0  0
  143.8895  132.8901  149.4388 H   0  0  0  0  0  0  0  0  0  0  0  0
  143.6184  133.5586  153.3993 H   0  0  0  0  0  0  0  0  0  0  0  0
  146.7031  137.1177  151.3848 H   0  0  0  0  0  0  0  0  0  0  0  0
  145.1481  137.9131  151.4988 H   0  0  0  0  0  0  0  0  0  0  0  0
  145.5808  138.4966  153.6720 H   0  0  0  0  0  0  0  0  0  0  0  0
  145.8084  136.8166  154.1213 H   0  0  0  0  0  0  0  0  0  0  0  0
  148.0849  137.2096  152.9505 H   0  0  0  0  0  0  0  0  0  0  0  0
  148.9053  138.2690  155.1921 H   0  0  0  0  0  0  0  0  0  0  0  0
  147.2802  137.7604  155.6869 H   0  0  0  0  0  0  0  0  0  0  0  0
  147.2876  132.4400  153.9433 H   0  0  0  0  0  0  0  0  0  0  0  0
  151.2032  131.3124  155.3589 H   0  0  0  0  0  0  0  0  0  0  0  0
  151.7123  133.6932  155.8808 H   0  0  0  0  0  0  0  0  0  0  0  0
  150.4863  137.0497  156.8476 H   0  0  0  0  0  0  0  0  0  0  0  0
  151.6816  135.9837  156.1680 H   0  0  0  0  0  0  0  0  0  0  0  0
  150.3813  138.2001  154.4944 H   0  0  0  0  0  0  0  0  0  0  0  0
  151.8022  138.4990  155.4786 H   0  0  0  0  0  0  0  0  0  0  0  0
  151.5369  137.0316  153.1592 H   0  0  0  0  0  0  0  0  0  0  0  0
  145.3820  135.2800  149.8732 H   0  0  0  0  0  0  0  0  0  0  0  0
  147.7675  138.7714  153.3318 H   0  0  0  0  0  0  0  0  0  0  0  0
  1  2  1  0  0  0  0
  1 24  1  0  0  0  0
  1 25  1  0  0  0  0
  1 26  1  0  0  0  0
  2 23  2  0  0  0  0
  2  3  1  0  0  0  0
  3  4  2  0  0  0  0
  3 27  1  0  0  0  0
  4  5  1  0  0  0  0
  5  6  1  0  0  0  0
  5 23  1  0  0  0  0
  6  7  1  0  0  0  0
  6 28  1  0  0  0  0
  6 29  1  0  0  0  0
  7  8  1  0  0  0  0
  7 30  1  0  0  0  0
  7 31  1  0  0  0  0
  8  9  1  0  0  0  0
  8 32  1  0  0  0  0
  8 44  1  0  0  0  0
  9 10  1  0  0  0  0
  9 33  1  0  0  0  0
  9 34  1  0  0  0  0
 10 19  1  0  0  0  0
 10 11  2  0  0  0  0
 11 12  1  0  0  0  0
 12 18  2  0  0  0  0
 12 13  1  0  0  0  0
 13 14  2  0  0  0  0
 13 35  1  0  0  0  0
 14 15  1  0  0  0  0
 14 16  1  0  0  0  0
 16 17  2  0  0  0  0
 16 36  1  0  0  0  0
 17 18  1  0  0  0  0
 17 37  1  0  0  0  0
 18 19  1  0  0  0  0
 19 20  1  0  0  0  0
 20 21  1  0  0  0  0
 20 38  1  0  0  0  0
 20 39  1  0  0  0  0
 21 22  1  0  0  0  0
 21 40  1  0  0  0  0
 21 41  1  0  0  0  0
 22 42  1  0  0  0  0
 23 43  1  0  0  0  0
M  CHG  1   8   1
M  END
> <s_m_source_file>
AV-unprocessed.smi

> <i_m_source_file_index>
1011

> <i_lp_mmshare_version>
43012

> <i_f3d_flags>
0

> <s_epik_input>
W0NIM11jMVtjSF1ubihbY0hdMSlbQ0gyXVtDSDJdW05IXVtDSDJdYyhuMiluKFtDSDJdW0NIMl1bT0hdKWMoYzIzKVtjSF1bY0hdYyhDbClbY0hdMw==

> <s_epik_cmdline>
J2VwaWtfcHl0aG9uJywgJy1waCcsICc3LjAnLCAnLXRuJywgJzgnLCAnLW1hJywgJzIwMCcsICctbWV0YWxfYmluZGluZycsICctaW1hZScsICc8aW5maWxlLm1hZT4nLCAnLW9tYWUnLCAnPG91dGZpbGUubWFlPic=

> <r_lp_tautomer_probability>
1

> <r_epik_Ionization_Penalty>
0.234823

> <r_epik_Ionization_Penalty_Charging>
0.2345

> <r_epik_Ionization_Penalty_Neutral>
0.00032281

> <r_epik_State_Penalty>
0.238632

> <r_epik_Charging_Adjusted_Penalty>
0.473132

> <i_epik_Tot_Q>
1

> <i_epik_Tot_abs_Q>
1

> <r_epik_Metal_State_Penalty>
0.25397

> <b_epik_Metal_Only>
0

> <s_lp_Force_Field>
OPLS_2005

> <r_lp_Energy>
6.60255

> <b_lp_Chiralities_Consistent>
1

> <s_lp_Variant>
AV-unprocessed.smi:1011-1

> <Gold.Version>
5.8.1

> <Gold.Id.Protein>
6NUR|6NUR_protein|mol2

> <Gold.PLP.Fitness>
52.2479

> <Gold.PLP.PLP>
-36.4650

> <Gold.PLP.part.hbond>
-3.0000

> <Gold.PLP.part.metal>
0.0000

> <Gold.PLP.part.buried>
-4.7422

> <Gold.PLP.part.nonpolar>
-28.7094

> <Gold.PLP.part.repulsive>
0.7475

> <Gold.PLP.ligand.clash>
0.0000

> <Gold.PLP.ligand.torsion>
1.1676

> <Gold.PLP.Chemscore.Hbond>
4.0000

> <Gold.PLP.Chemscore.CHOScore>
2.0000

> <Gold.PLP.Chemscore.Metal>
0.0000

> <Gold.Chemscore.Hbonds>
donor molecule, donor type, donor heavy atom, donor atom, acceptor molecule, acceptor atom, score
      L1  H     8    32       P1  7948  2.00
      L1  H    22    42       P1  7949  1.00
      P1  H 10752 10765       L1    22  1.00
      L1  C     3    27       P1 10957  1.00
      L1  C    23    43       P1  7921  1.00

> <Gold.PLP.Chemscore.Internal.Correction>
0.1182

> <Gold.Rescore>
     Score         DG    S(hbond)    S(metal)    S(lipo)     H(rot)  DE(clash)    DE(int)     intcor
     14.89     -16.52       2.65        0.00      82.94       2.94       0.48       1.14       ----

> <Gold.Chemscore.Fitness>
14.8913

> <Gold.Chemscore.DG>
-16.5175

> <Gold.Chemscore.ZeroCoef>
-5.4800

> <Gold.Chemscore.Hbond>
2.6511

> <Gold.Chemscore.Metal>
0.0000

> <Gold.Chemscore.Lipo>
82.9377

> <Gold.Chemscore.Internal_Hbond>
0.0000

> <Gold.Chemscore.DEClash>
0.4814

> <Gold.Chemscore.DEInternal>
1.1448

> <Gold.Chemscore.Rot>
2.9378

> <Gold.Chemscore.Internal.Correction>
   9.000000E+99

> <Gold.Chemscore.Hbonds>
donor molecule, donor type, donor heavy atom, donor atom, acceptor molecule, acceptor atom, score
      L1  H     8    32       P1  7948  1.00
      L1  H    22    42       P1  7949  0.84
      P1  H 10752 10765       L1    22  0.29

> <Gold.Chemscore.Hbond.Weighted>
-8.8547

> <Gold.Chemscore.Metal.Weighted>
-0.0000

> <Gold.Chemscore.Lipo.Weighted>
-9.7037

> <Gold.Chemscore.Internal_Hbond.Weighted>
0.0000

> <Gold.Chemscore.DEClash.Weighted>
0.4814

> <Gold.Chemscore.DEInternal.Weighted>
1.1448

> <Gold.Chemscore.Rot.Weighted>
7.5209

> <Gold.Chemscore.Internal.Correction.Weighted>
   9.000000E+99

> <Gold.Protein.RotatedTorsions>
[ 6907 6896 6895 6894 ] final  102.40 input  -60.11 | X-H torsion
[ 7974 7965 7964 7962 ] final  153.20 input  175.53 | X-H torsion
[ 8008 7997 7996 7995 ] final -144.61 input   59.86 | X-H torsion
[ 10167 10162 10161 10158 ] final   95.77 input  -65.29 | X-H torsion
[ 10718 10713 10712 10709 ] final   42.51 input   66.30 | X-H torsion
[ 10763 10752 10751 10750 ] final  144.25 input  -60.55 | X-H torsion
[ 11005 11000 10999 10996 ] final  118.68 input  -57.11 | X-H torsion

> <Gold.Protein.ActiveResidues>
 VAL166  LYS551  ARG553  GLY616  TRP617  ASP618  TYR619  PRO620  LYS621  CYS622 
 ASP623  PHE694  ASN695  SER759  ASP760  ASP761  ALA762  ILE779  LEU786  VAL792 
 PHE793  MET794  SER795  GLU796  ALA797  LYS798  CYS799  TRP800  GLU811  SER814 

> <Gold.Protein.RotatedAtoms>
  152.5324  133.9981  159.7881 H   0  0  0  0  0  0  0  0  0  0  0  0  # atno 6907 bound_to 6896
  151.0204  133.5874  159.2679 H   0  0  0  0  0  0  0  0  0  0  0  0  # atno 6908 bound_to 6896
  151.2915  135.0750  159.9259 H   0  0  0  0  0  0  0  0  0  0  0  0  # atno 6909 bound_to 6896
  144.8170  139.6769  143.6117 H   0  0  0  0  0  0  0  0  0  0  0  0  # atno 7974 bound_to 7965
  155.5298  140.0598  157.2891 H   0  0  0  0  0  0  0  0  0  0  0  0  # atno 8008 bound_to 7997
  154.4488  140.1938  156.0527 H   0  0  0  0  0  0  0  0  0  0  0  0  # atno 8009 bound_to 7997
  156.0660  140.3266  155.7522 H   0  0  0  0  0  0  0  0  0  0  0  0  # atno 8010 bound_to 7997
  139.7957  144.6834  150.9833 H   0  0  0  0  0  0  0  0  0  0  0  0  # atno 10167 bound_to 10162
  157.4056  130.7885  149.7386 H   0  0  0  0  0  0  0  0  0  0  0  0  # atno 10718 bound_to 10713
  153.9858  135.2937  155.3416 H   0  0  0  0  0  0  0  0  0  0  0  0  # atno 10763 bound_to 10752
  154.7243  135.5095  153.8864 H   0  0  0  0  0  0  0  0  0  0  0  0  # atno 10764 bound_to 10752
  153.0833  135.6685  154.0116 H   0  0  0  0  0  0  0  0  0  0  0  0  # atno 10765 bound_to 10752
  139.9118  134.9622  156.7540 H   0  0  0  0  0  0  0  0  0  0  0  0  # atno 11005 bound_to 11000
  146.2474  139.6127  142.9450 LP  0  0  0  0  0  0  0  0  0  0  0  0  # atno 17320 bound_to 7965
  145.5191  141.0432  143.2445 LP  0  0  0  0  0  0  0  0  0  0  0  0  # atno 17321 bound_to 7965
  140.7820  143.4334  151.0660 LP  0  0  0  0  0  0  0  0  0  0  0  0  # atno 17342 bound_to 10162
  139.8009  143.8086  152.3162 LP  0  0  0  0  0  0  0  0  0  0  0  0  # atno 17343 bound_to 10162
  155.9836  130.3999  150.3357 LP  0  0  0  0  0  0  0  0  0  0  0  0  # atno 17370 bound_to 10713
  157.1489  131.0316  151.2894 LP  0  0  0  0  0  0  0  0  0  0  0  0  # atno 17371 bound_to 10713
  140.6751  133.9525  155.7878 LP  0  0  0  0  0  0  0  0  0  0  0  0  # atno 17394 bound_to 11000
  141.0550  134.0429  157.3734 LP  0  0  0  0  0  0  0  0  0  0  0  0  # atno 17395 bound_to 11000

$$$$
