AV-unprocessed.smi:2569|AV-procd|sdf|10104|dock6
  -GOLD-   2272014123D 1   1.00000     0.00000
 Structure written by MMmdl.
 40 42  0  0  0  0  0  0  0  0  2 V2000
  152.4104  143.8004  160.9361 C   0  0  0  0  0  0  0  0  0  0  0  0
  152.1487  142.9209  159.7251 C   0  0  0  0  0  0  0  0  0  0  0  0
  151.3385  143.4288  158.6850 C   0  0  0  0  0  0  0  0  0  0  0  0
  151.1196  142.6018  157.5896 C   0  0  0  0  0  0  0  0  0  0  0  0
  150.3791  142.8075  156.4239 N   0  3  0  0  0  0  0  0  0  0  0  0
  150.4580  141.7012  155.6342 C   0  0  0  0  0  0  0  0  0  0  0  0
  151.2400  140.7920  156.2772 N   0  0  0  0  0  0  0  0  0  0  0  0
  151.6373  139.4394  155.8598 C   0  0  0  0  0  0  0  0  0  0  0  0
  150.4418  138.5809  155.4047 C   0  0  2  0  0  0  0  0  0  0  0  0
  149.6212  138.2644  156.5136 O   0  0  0  0  0  0  0  0  0  0  0  0
  150.8989  137.2865  154.7049 C   0  0  0  0  0  0  0  0  0  0  0  0
  150.9846  136.1577  155.6170 N   0  0  0  0  0  0  0  0  0  0  0  0
  152.0430  136.0204  156.4530 N   0  0  0  0  0  0  0  0  0  0  0  0
  151.8403  134.9316  157.1375 N   0  0  0  0  0  0  0  0  0  0  0  0
  150.6516  134.3248  156.7769 N   0  0  0  0  0  0  0  0  0  0  0  0
  150.1633  135.1220  155.8357 C   0  0  0  0  0  0  0  0  0  0  0  0
  148.8772  134.9130  155.1065 C   0  0  0  0  0  0  0  0  0  0  0  0
  151.6750  141.3099  157.5036 C   0  0  0  0  0  0  0  0  0  0  0  0
  152.4740  140.7937  158.5218 C   0  0  0  0  0  0  0  0  0  0  0  0
  152.7086  141.6194  159.6447 C   0  0  0  0  0  0  0  0  0  0  0  0
  153.5765  141.0822  160.7702 C   0  0  0  0  0  0  0  0  0  0  0  0
  151.8825  144.7516  160.8599 H   0  0  0  0  0  0  0  0  0  0  0  0
  153.4751  144.0163  161.0281 H   0  0  0  0  0  0  0  0  0  0  0  0
  152.0761  143.3079  161.8493 H   0  0  0  0  0  0  0  0  0  0  0  0
  150.9081  144.4181  158.7397 H   0  0  0  0  0  0  0  0  0  0  0  0
  149.9839  141.5685  154.6723 H   0  0  0  0  0  0  0  0  0  0  0  0
  152.3428  139.5545  155.0359 H   0  0  0  0  0  0  0  0  0  0  0  0
  152.1895  138.9565  156.6661 H   0  0  0  0  0  0  0  0  0  0  0  0
  149.8383  139.1655  154.7089 H   0  0  0  0  0  0  0  0  0  0  0  0
  150.0333  138.5921  157.2981 H   0  0  0  0  0  0  0  0  0  0  0  0
  150.2006  137.0254  153.9083 H   0  0  0  0  0  0  0  0  0  0  0  0
  151.8684  137.4311  154.2275 H   0  0  0  0  0  0  0  0  0  0  0  0
  148.4094  133.9796  155.4205 H   0  0  0  0  0  0  0  0  0  0  0  0
  149.0560  134.8660  154.0324 H   0  0  0  0  0  0  0  0  0  0  0  0
  148.1899  135.7330  155.3150 H   0  0  0  0  0  0  0  0  0  0  0  0
  152.8993  139.8030  158.4661 H   0  0  0  0  0  0  0  0  0  0  0  0
  153.9359  140.0759  160.5528 H   0  0  0  0  0  0  0  0  0  0  0  0
  153.0113  141.0392  161.7014 H   0  0  0  0  0  0  0  0  0  0  0  0
  154.4470  141.7209  160.9217 H   0  0  0  0  0  0  0  0  0  0  0  0
  149.8561  143.6398  156.1831 H   0  0  0  0  0  0  0  0  0  0  0  0
  1  2  1  0  0  0  0
  1 22  1  0  0  0  0
  1 23  1  0  0  0  0
  1 24  1  0  0  0  0
  2 20  1  0  0  0  0
  2  3  2  0  0  0  0
  3  4  1  0  0  0  0
  3 25  1  0  0  0  0
  4 18  2  0  0  0  0
  4  5  1  0  0  0  0
  5  6  2  0  0  0  0
  5 40  1  0  0  0  0
  6  7  1  0  0  0  0
  6 26  1  0  0  0  0
  7  8  1  0  0  0  0
  7 18  1  0  0  0  0
  8  9  1  0  0  0  0
  8 27  1  0  0  0  0
  8 28  1  0  0  0  0
  9 10  1  0  0  0  0
  9 11  1  0  0  0  0
  9 29  1  0  0  0  0
 10 30  1  0  0  0  0
 11 12  1  0  0  0  0
 11 31  1  0  0  0  0
 11 32  1  0  0  0  0
 12 16  1  0  0  0  0
 12 13  1  0  0  0  0
 13 14  2  0  0  0  0
 14 15  1  0  0  0  0
 15 16  2  0  0  0  0
 16 17  1  0  0  0  0
 17 33  1  0  0  0  0
 17 34  1  0  0  0  0
 17 35  1  0  0  0  0
 18 19  1  0  0  0  0
 19 20  2  0  0  0  0
 19 36  1  0  0  0  0
 20 21  1  0  0  0  0
 21 37  1  0  0  0  0
 21 38  1  0  0  0  0
 21 39  1  0  0  0  0
M  CHG  1   5   1
M  END
> <s_m_source_file>
AV-unprocessed.smi

> <i_m_source_file_index>
2569

> <i_lp_mmshare_version>
43012

> <i_f3d_flags>
0

> <s_epik_input>
W0NIM11jKFtjSF0xKWMoW0NIM10pW2NIXWMoYzEyKW4oW2NIXW4yKVtDSDJdW0NASF0oW09IXSlbQ0gyXW4zbm5uYzNbQ0gzXQ==

> <s_epik_cmdline>
J2VwaWtfcHl0aG9uJywgJy1waCcsICc3LjAnLCAnLXRuJywgJzgnLCAnLW1hJywgJzIwMCcsICctbWV0YWxfYmluZGluZycsICctaW1hZScsICc8aW5maWxlLm1hZT4nLCAnLW9tYWUnLCAnPG91dGZpbGUubWFlPic=

> <r_lp_tautomer_probability>
1

> <r_epik_Ionization_Penalty>
1.13338

> <r_epik_Ionization_Penalty_Charging>
1.13335

> <r_epik_Ionization_Penalty_Neutral>
3.02334e-05

> <r_epik_State_Penalty>
1.19324

> <r_epik_Charging_Adjusted_Penalty>
2.3266

> <i_epik_Tot_Q>
1

> <i_epik_Tot_abs_Q>
1

> <r_epik_Metal_State_Penalty>
1.27602

> <b_epik_Metal_Only>
0

> <s_lp_Force_Field>
OPLS_2005

> <r_lp_Energy>
15.9129

> <b_lp_Chiralities_Consistent>
1

> <s_lp_Variant>
AV-unprocessed.smi:2569-3

> <Gold.Version>
5.8.1

> <Gold.Id.Protein>
6NUR|6NUR_protein|mol2

> <Gold.PLP.Fitness>
49.0261

> <Gold.PLP.PLP>
-41.6824

> <Gold.PLP.part.hbond>
-3.3834

> <Gold.PLP.part.metal>
0.0000

> <Gold.PLP.part.buried>
-5.4841

> <Gold.PLP.part.nonpolar>
-32.3718

> <Gold.PLP.part.repulsive>
0.0849

> <Gold.PLP.ligand.clash>
0.0000

> <Gold.PLP.ligand.torsion>
0.8320

> <Gold.PLP.Chemscore.Hbond>
3.0000

> <Gold.PLP.Chemscore.CHOScore>
0.0000

> <Gold.PLP.Chemscore.Metal>
0.0000

> <Gold.Chemscore.Hbonds>
donor molecule, donor type, donor heavy atom, donor atom, acceptor molecule, acceptor atom, score
      L1  H     5    40       P1  8028  2.00
      P1  H 10752 10763       L1    13  0.95

> <Gold.PLP.Chemscore.Internal.Correction>
0.0077

> <Gold.Rescore>
     Score         DG    S(hbond)    S(metal)    S(lipo)     H(rot)  DE(clash)    DE(int)     intcor
     14.20     -15.21       1.52        0.00      96.37       2.59       0.00       1.01       ----

> <Gold.Chemscore.Fitness>
14.2042

> <Gold.Chemscore.DG>
-15.2098

> <Gold.Chemscore.ZeroCoef>
-5.4800

> <Gold.Chemscore.Hbond>
1.5189

> <Gold.Chemscore.Metal>
0.0000

> <Gold.Chemscore.Lipo>
96.3708

> <Gold.Chemscore.Internal_Hbond>
0.0000

> <Gold.Chemscore.DEClash>
0.0000

> <Gold.Chemscore.DEInternal>
1.0056

> <Gold.Chemscore.Rot>
2.5854

> <Gold.Chemscore.Internal.Correction>
   9.000000E+99

> <Gold.Chemscore.Hbonds>
donor molecule, donor type, donor heavy atom, donor atom, acceptor molecule, acceptor atom, score
      L1  H     5    40       P1  8028  0.94
      P1  H 10752 10763       L1    13  0.06

> <Gold.Chemscore.Hbond.Weighted>
-5.0730

> <Gold.Chemscore.Metal.Weighted>
-0.0000

> <Gold.Chemscore.Lipo.Weighted>
-11.2754

> <Gold.Chemscore.Internal_Hbond.Weighted>
0.0000

> <Gold.Chemscore.DEClash.Weighted>
0.0000

> <Gold.Chemscore.DEInternal.Weighted>
1.0056

> <Gold.Chemscore.Rot.Weighted>
6.6187

> <Gold.Chemscore.Internal.Correction.Weighted>
   9.000000E+99

> <Gold.Protein.RotatedTorsions>
[ 6907 6896 6895 6894 ] final  115.95 input  -60.11 | X-H torsion
[ 7974 7965 7964 7962 ] final -166.20 input  175.53 | X-H torsion
[ 8008 7997 7996 7995 ] final  -48.38 input   59.86 | X-H torsion
[ 10167 10162 10161 10158 ] final  161.61 input  -65.29 | X-H torsion
[ 10718 10713 10712 10709 ] final   -9.51 input   66.30 | X-H torsion
[ 10763 10752 10751 10750 ] final  105.19 input  -60.55 | X-H torsion
[ 11005 11000 10999 10996 ] final  155.15 input  -57.11 | X-H torsion

> <Gold.Protein.ActiveResidues>
 VAL166  LYS551  ARG553  GLY616  TRP617  ASP618  TYR619  PRO620  LYS621  CYS622 
 ASP623  PHE694  ASN695  SER759  ASP760  ASP761  ALA762  ILE779  LEU786  VAL792 
 PHE793  MET794  SER795  GLU796  ALA797  LYS798  CYS799  TRP800  GLU811  SER814 

> <Gold.Protein.RotatedAtoms>
  152.4709  133.8028  159.6961 H   0  0  0  0  0  0  0  0  0  0  0  0  # atno 6907 bound_to 6896
  150.8698  133.7512  159.2971 H   0  0  0  0  0  0  0  0  0  0  0  0  # atno 6908 bound_to 6896
  151.5051  135.1066  159.9891 H   0  0  0  0  0  0  0  0  0  0  0  0  # atno 6909 bound_to 6896
  144.7251  140.2701  143.6252 H   0  0  0  0  0  0  0  0  0  0  0  0  # atno 7974 bound_to 7965
  154.4028  140.1323  156.4329 H   0  0  0  0  0  0  0  0  0  0  0  0  # atno 8008 bound_to 7997
  155.7533  140.3487  155.5141 H   0  0  0  0  0  0  0  0  0  0  0  0  # atno 8009 bound_to 7997
  155.8928  140.1006  157.1396 H   0  0  0  0  0  0  0  0  0  0  0  0  # atno 8010 bound_to 7997
  139.4851  144.4520  151.8818 H   0  0  0  0  0  0  0  0  0  0  0  0  # atno 10167 bound_to 10162
  156.6870  130.5053  149.5955 H   0  0  0  0  0  0  0  0  0  0  0  0  # atno 10718 bound_to 10713
  153.3760  135.3918  155.1823 H   0  0  0  0  0  0  0  0  0  0  0  0  # atno 10763 bound_to 10752
  154.8701  135.3714  154.4917 H   0  0  0  0  0  0  0  0  0  0  0  0  # atno 10764 bound_to 10752
  153.5389  135.7085  153.5707 H   0  0  0  0  0  0  0  0  0  0  0  0  # atno 10765 bound_to 10752
  140.1555  134.8645  157.2508 H   0  0  0  0  0  0  0  0  0  0  0  0  # atno 11005 bound_to 11000
  145.8051  139.1980  143.2025 LP  0  0  0  0  0  0  0  0  0  0  0  0  # atno 17320 bound_to 7965
  146.0643  140.7937  142.9719 LP  0  0  0  0  0  0  0  0  0  0  0  0  # atno 17321 bound_to 7965
  140.3977  144.2534  150.5895 LP  0  0  0  0  0  0  0  0  0  0  0  0  # atno 17342 bound_to 10162
  140.5087  143.2297  151.8569 LP  0  0  0  0  0  0  0  0  0  0  0  0  # atno 17343 bound_to 10162
  156.1826  130.6508  151.0969 LP  0  0  0  0  0  0  0  0  0  0  0  0  # atno 17370 bound_to 10713
  157.7023  131.0771  150.6781 LP  0  0  0  0  0  0  0  0  0  0  0  0  # atno 17371 bound_to 10713
  140.2553  134.3635  155.7427 LP  0  0  0  0  0  0  0  0  0  0  0  0  # atno 17394 bound_to 11000
  141.2204  133.7339  156.8997 LP  0  0  0  0  0  0  0  0  0  0  0  0  # atno 17395 bound_to 11000

$$$$
