AV-unprocessed.smi:3091|AV-procd|sdf|11780|dock8
  -GOLD-   2272017163D 1   1.00000     0.00000
 Structure written by MMmdl.
 28 29  0  0  0  0  0  0  0  0  1 V2000
  149.1827  141.3119  153.4360 N   0  0  0  0  0  0  0  0  0  0  0  0
  148.8961  140.7237  154.7285 C   0  0  0  0  0  0  0  0  0  0  0  0
  150.1558  140.4387  155.5187 C   0  0  0  0  0  0  0  0  0  0  0  0
  151.1497  139.5855  154.9998 C   0  0  0  0  0  0  0  0  0  0  0  0
  152.2982  139.3448  155.7784 C   0  0  0  0  0  0  0  0  0  0  0  0
  152.4935  139.8892  156.9982 N   0  0  0  0  0  0  0  0  0  0  0  0
  151.5335  140.7065  157.4994 C   0  0  0  0  0  0  0  0  0  0  0  0
  151.7151  141.2709  158.7464 O   0  0  0  0  0  0  0  0  0  0  0  0
  152.8014  142.1747  158.9613 C   0  0  2  0  0  0  0  0  0  0  0  0
  153.2467  142.1588  160.4180 C   0  0  0  0  0  0  0  0  0  0  0  0
  152.3244  143.1886  161.0527 C   0  0  0  0  0  0  0  0  0  0  0  0
  152.2665  144.2093  160.0710 O   0  0  0  0  0  0  0  0  0  0  0  0
  152.2700  143.6047  158.7810 C   0  0  0  0  0  0  0  0  0  0  0  0
  150.3503  141.0070  156.7940 C   0  0  0  0  0  0  0  0  0  0  0  0
  149.2289  140.5838  152.7375 H   0  0  0  0  0  0  0  0  0  0  0  0
  148.4285  141.9269  153.1659 H   0  0  0  0  0  0  0  0  0  0  0  0
  148.2493  141.3956  155.2933 H   0  0  0  0  0  0  0  0  0  0  0  0
  148.3414  139.7966  154.5812 H   0  0  0  0  0  0  0  0  0  0  0  0
  151.0359  139.1252  154.0294 H   0  0  0  0  0  0  0  0  0  0  0  0
  153.0806  138.6968  155.4121 H   0  0  0  0  0  0  0  0  0  0  0  0
  153.6246  141.9865  158.2702 H   0  0  0  0  0  0  0  0  0  0  0  0
  153.1798  141.1798  160.8924 H   0  0  0  0  0  0  0  0  0  0  0  0
  154.2803  142.4987  160.4921 H   0  0  0  0  0  0  0  0  0  0  0  0
  151.3275  142.7740  161.2104 H   0  0  0  0  0  0  0  0  0  0  0  0
  152.6989  143.5649  162.0046 H   0  0  0  0  0  0  0  0  0  0  0  0
  152.9069  144.1873  158.1152 H   0  0  0  0  0  0  0  0  0  0  0  0
  151.2621  143.6094  158.3638 H   0  0  0  0  0  0  0  0  0  0  0  0
  149.6072  141.6606  157.2269 H   0  0  0  0  0  0  0  0  0  0  0  0
  1  2  1  0  0  0  0
  1 15  1  0  0  0  0
  1 16  1  0  0  0  0
  2  3  1  0  0  0  0
  2 17  1  0  0  0  0
  2 18  1  0  0  0  0
  3 14  1  0  0  0  0
  3  4  2  0  0  0  0
  4  5  1  0  0  0  0
  4 19  1  0  0  0  0
  5  6  2  0  0  0  0
  5 20  1  0  0  0  0
  6  7  1  0  0  0  0
  7  8  1  0  0  0  0
  7 14  2  0  0  0  0
  8  9  1  0  0  0  0
  9 13  1  0  0  0  0
  9 10  1  0  0  0  0
  9 21  1  0  0  0  0
 10 11  1  0  0  0  0
 10 22  1  0  0  0  0
 10 23  1  0  0  0  0
 11 12  1  0  0  0  0
 11 24  1  0  0  0  0
 11 25  1  0  0  0  0
 12 13  1  0  0  0  0
 13 26  1  0  0  0  0
 13 27  1  0  0  0  0
 14 28  1  0  0  0  0
M  END
> <s_m_source_file>
AV-unprocessed.smi

> <i_m_source_file_index>
3091

> <i_lp_mmshare_version>
43012

> <i_f3d_flags>
0

> <s_epik_input>
W05IMl1bQ0gyXWMxW2NIXVtjSF1uYyhbY0hdMSlPW0NAQEhdMltDSDJdW0NIMl1PW0NIMl0y

> <s_epik_cmdline>
J2VwaWtfcHl0aG9uJywgJy1waCcsICc3LjAnLCAnLXRuJywgJzgnLCAnLW1hJywgJzIwMCcsICctbWV0YWxfYmluZGluZycsICctaW1hZScsICc8aW5maWxlLm1hZT4nLCAnLW9tYWUnLCAnPG91dGZpbGUubWFlPic=

> <r_lp_tautomer_probability>
1

> <r_epik_Ionization_Penalty>
1.24495

> <r_epik_Ionization_Penalty_Charging>
0

> <r_epik_Ionization_Penalty_Neutral>
1.24495

> <r_epik_State_Penalty>
1.3141

> <r_epik_Charging_Adjusted_Penalty>
1.3141

> <i_epik_Tot_Q>
0

> <i_epik_Tot_abs_Q>
0

> <r_epik_Metal_State_Penalty>
1.31398

> <b_epik_Metal_Only>
0

> <s_lp_Force_Field>
OPLS_2005

> <r_lp_Energy>
14.7712

> <b_lp_Chiralities_Consistent>
1

> <s_lp_Variant>
AV-unprocessed.smi:3091-3

> <Gold.Version>
5.8.1

> <Gold.Id.Protein>
6NUR|6NUR_protein|mol2

> <Gold.PLP.Fitness>
38.8072

> <Gold.PLP.PLP>
-34.0894

> <Gold.PLP.part.hbond>
-3.8741

> <Gold.PLP.part.metal>
0.0000

> <Gold.PLP.part.buried>
-2.4335

> <Gold.PLP.part.nonpolar>
-27.6326

> <Gold.PLP.part.repulsive>
0.0315

> <Gold.PLP.ligand.clash>
0.0000

> <Gold.PLP.ligand.torsion>
0.4140

> <Gold.PLP.Chemscore.Hbond>
1.8428

> <Gold.PLP.Chemscore.CHOScore>
0.0000

> <Gold.PLP.Chemscore.Metal>
0.0000

> <Gold.Chemscore.Hbonds>
donor molecule, donor type, donor heavy atom, donor atom, acceptor molecule, acceptor atom, score
      L1  H     1    15       P1  7957  1.00
      P1  H  7997  8008       L1     6  0.80

> <Gold.PLP.Chemscore.Internal.Correction>
0.0174

> <Gold.Rescore>
     Score         DG    S(hbond)    S(metal)    S(lipo)     H(rot)  DE(clash)    DE(int)     intcor
     14.34     -15.01       1.18        0.00      81.36       1.54       0.30       0.37       ----

> <Gold.Chemscore.Fitness>
14.3390

> <Gold.Chemscore.DG>
-15.0075

> <Gold.Chemscore.ZeroCoef>
-5.4800

> <Gold.Chemscore.Hbond>
1.1848

> <Gold.Chemscore.Metal>
0.0000

> <Gold.Chemscore.Lipo>
81.3583

> <Gold.Chemscore.Internal_Hbond>
0.0000

> <Gold.Chemscore.DEClash>
0.2994

> <Gold.Chemscore.DEInternal>
0.3691

> <Gold.Chemscore.Rot>
1.5424

> <Gold.Chemscore.Internal.Correction>
   9.000000E+99

> <Gold.Chemscore.Hbonds>
donor molecule, donor type, donor heavy atom, donor atom, acceptor molecule, acceptor atom, score
      L1  H     1    15       P1  7957  0.95
      P1  H  7997  8008       L1     6  0.11

> <Gold.Chemscore.Hbond.Weighted>
-3.9572

> <Gold.Chemscore.Metal.Weighted>
-0.0000

> <Gold.Chemscore.Lipo.Weighted>
-9.5189

> <Gold.Chemscore.Internal_Hbond.Weighted>
0.0000

> <Gold.Chemscore.DEClash.Weighted>
0.2994

> <Gold.Chemscore.DEInternal.Weighted>
0.3691

> <Gold.Chemscore.Rot.Weighted>
3.9487

> <Gold.Chemscore.Internal.Correction.Weighted>
   9.000000E+99

> <Gold.Protein.RotatedTorsions>
[ 6907 6896 6895 6894 ] final -117.35 input  -60.11 | X-H torsion
[ 7974 7965 7964 7962 ] final   14.44 input  175.53 | X-H torsion
[ 8008 7997 7996 7995 ] final  -72.42 input   59.86 | X-H torsion
[ 10167 10162 10161 10158 ] final -163.11 input  -65.29 | X-H torsion
[ 10718 10713 10712 10709 ] final  -82.85 input   66.30 | X-H torsion
[ 10763 10752 10751 10750 ] final  -56.51 input  -60.55 | X-H torsion
[ 11005 11000 10999 10996 ] final  103.24 input  -57.11 | X-H torsion

> <Gold.Protein.ActiveResidues>
 VAL166  LYS551  ARG553  GLY616  TRP617  ASP618  TYR619  PRO620  LYS621  CYS622 
 ASP623  PHE694  ASN695  SER759  ASP760  ASP761  ALA762  ILE779  LEU786  VAL792 
 PHE793  MET794  SER795  GLU796  ALA797  LYS798  CYS799  TRP800  GLU811  SER814 

> <Gold.Protein.RotatedAtoms>
  150.8129  133.8389  159.3173 H   0  0  0  0  0  0  0  0  0  0  0  0  # atno 6907 bound_to 6896
  151.6169  135.1034  160.0103 H   0  0  0  0  0  0  0  0  0  0  0  0  # atno 6908 bound_to 6896
  152.4221  133.7093  159.6526 H   0  0  0  0  0  0  0  0  0  0  0  0  # atno 6909 bound_to 6896
  146.2305  139.9041  142.8534 H   0  0  0  0  0  0  0  0  0  0  0  0  # atno 7974 bound_to 7965
  154.5165  140.0797  156.8090 H   0  0  0  0  0  0  0  0  0  0  0  0  # atno 8008 bound_to 7997
  155.3670  140.3421  155.4224 H   0  0  0  0  0  0  0  0  0  0  0  0  # atno 8009 bound_to 7997
  156.1633  140.1595  156.8562 H   0  0  0  0  0  0  0  0  0  0  0  0  # atno 8010 bound_to 7997
  139.6344  144.0378  152.2042 H   0  0  0  0  0  0  0  0  0  0  0  0  # atno 10167 bound_to 10162
  156.0027  130.4647  150.4168 H   0  0  0  0  0  0  0  0  0  0  0  0  # atno 10718 bound_to 10713
  154.2078  135.6400  153.5106 H   0  0  0  0  0  0  0  0  0  0  0  0  # atno 10763 bound_to 10752
  152.9997  135.5466  154.6247 H   0  0  0  0  0  0  0  0  0  0  0  0  # atno 10764 bound_to 10752
  154.5677  135.2914  155.0832 H   0  0  0  0  0  0  0  0  0  0  0  0  # atno 10765 bound_to 10752
  139.8782  134.9255  156.5179 H   0  0  0  0  0  0  0  0  0  0  0  0  # atno 11005 bound_to 11000
  145.2294  140.9967  143.3999 LP  0  0  0  0  0  0  0  0  0  0  0  0  # atno 17320 bound_to 7965
  144.9543  139.4048  143.6387 LP  0  0  0  0  0  0  0  0  0  0  0  0  # atno 17321 bound_to 7965
  140.0052  144.6264  150.7695 LP  0  0  0  0  0  0  0  0  0  0  0  0  # atno 17342 bound_to 10162
  140.7457  143.2879  151.3411 LP  0  0  0  0  0  0  0  0  0  0  0  0  # atno 17343 bound_to 10162
  157.2227  131.0486  151.2537 LP  0  0  0  0  0  0  0  0  0  0  0  0  # atno 17370 bound_to 10713
  157.3785  130.7219  149.6614 LP  0  0  0  0  0  0  0  0  0  0  0  0  # atno 17371 bound_to 10713
  140.8472  133.8160  155.9133 LP  0  0  0  0  0  0  0  0  0  0  0  0  # atno 17394 bound_to 11000
  140.9180  134.2178  157.4944 LP  0  0  0  0  0  0  0  0  0  0  0  0  # atno 17395 bound_to 11000

$$$$
