AV-unprocessed.smi:350|AV-procd|sdf|2398|dock6
  -GOLD-   2262022333D 1   1.00000     0.00000
 Structure written by MMmdl.
 35 36  0  0  0  0  0  0  0  0  1 V2000
  155.5426  138.4161  165.1133 C   0  0  0  0  0  0  0  0  0  0  0  0
  155.0947  137.7890  163.8208 C   0  0  0  0  0  0  0  0  0  0  0  0
  154.5031  138.5648  162.9730 N   0  0  0  0  0  0  0  0  0  0  0  0
  154.0512  138.0905  161.7565 N   0  0  0  0  0  0  0  0  0  0  0  0
  153.3861  139.1057  160.9293 C   0  0  0  0  0  0  0  0  0  0  0  0
  154.3543  140.2294  160.4986 C   0  0  2  0  0  0  0  0  0  0  0  0
  155.4122  140.3126  161.4331 O   0  0  0  0  0  0  0  0  0  0  0  0
  153.6268  141.5600  160.3773 C   0  0  0  0  0  0  0  0  0  0  0  0
  153.4594  142.1599  159.1105 C   0  0  0  0  0  0  0  0  0  0  0  0
  152.7825  143.3895  158.9908 C   0  0  0  0  0  0  0  0  0  0  0  0
  152.2670  144.0255  160.1368 C   0  0  0  0  0  0  0  0  0  0  0  0
  151.4383  145.5316  159.9897 Cl  0  0  0  0  0  0  0  0  0  0  0  0
  152.4276  143.4300  161.4028 C   0  0  0  0  0  0  0  0  0  0  0  0
  153.1042  142.2007  161.5228 C   0  0  0  0  0  0  0  0  0  0  0  0
  154.1778  136.8013  161.3305 C   0  0  0  0  0  0  0  0  0  0  0  0
  153.7623  136.4188  160.2358 O   0  0  0  0  0  0  0  0  0  0  0  0
  154.8481  135.9276  162.2965 C   0  0  0  0  0  0  0  0  0  0  0  0
  154.9990  134.5672  161.8914 C   0  0  0  0  0  0  0  0  0  0  0  0
  155.1029  133.4652  161.5521 N   0  0  0  0  0  0  0  0  0  0  0  0
  155.2936  136.3806  163.4950 C   0  0  0  0  0  0  0  0  0  0  0  0
  155.9945  135.5145  164.5329 C   0  0  0  0  0  0  0  0  0  0  0  0
  156.6142  138.2796  165.2601 H   0  0  0  0  0  0  0  0  0  0  0  0
  155.0246  137.9661  165.9602 H   0  0  0  0  0  0  0  0  0  0  0  0
  155.3427  139.4886  165.1363 H   0  0  0  0  0  0  0  0  0  0  0  0
  153.0140  138.5999  160.0359 H   0  0  0  0  0  0  0  0  0  0  0  0
  152.4942  139.5158  161.4069 H   0  0  0  0  0  0  0  0  0  0  0  0
  154.7904  139.9883  159.5281 H   0  0  0  0  0  0  0  0  0  0  0  0
  155.9565  141.0506  161.2050 H   0  0  0  0  0  0  0  0  0  0  0  0
  153.8485  141.6795  158.2248 H   0  0  0  0  0  0  0  0  0  0  0  0
  152.6591  143.8433  158.0184 H   0  0  0  0  0  0  0  0  0  0  0  0
  152.0318  143.9143  162.2834 H   0  0  0  0  0  0  0  0  0  0  0  0
  153.2198  141.7500  162.4978 H   0  0  0  0  0  0  0  0  0  0  0  0
  156.0700  134.4736  164.2195 H   0  0  0  0  0  0  0  0  0  0  0  0
  155.4501  135.5315  165.4777 H   0  0  0  0  0  0  0  0  0  0  0  0
  157.0072  135.8771  164.7123 H   0  0  0  0  0  0  0  0  0  0  0  0
  1  2  1  0  0  0  0
  1 22  1  0  0  0  0
  1 23  1  0  0  0  0
  1 24  1  0  0  0  0
  2 20  1  0  0  0  0
  2  3  2  0  0  0  0
  3  4  1  0  0  0  0
  4  5  1  0  0  0  0
  4 15  1  0  0  0  0
  5  6  1  0  0  0  0
  5 25  1  0  0  0  0
  5 26  1  0  0  0  0
  6  7  1  0  0  0  0
  6  8  1  0  0  0  0
  6 27  1  0  0  0  0
  7 28  1  0  0  0  0
  8 14  1  0  0  0  0
  8  9  2  0  0  0  0
  9 10  1  0  0  0  0
  9 29  1  0  0  0  0
 10 11  2  0  0  0  0
 10 30  1  0  0  0  0
 11 12  1  0  0  0  0
 11 13  1  0  0  0  0
 13 14  2  0  0  0  0
 13 31  1  0  0  0  0
 14 32  1  0  0  0  0
 15 16  2  0  0  0  0
 15 17  1  0  0  0  0
 17 18  1  0  0  0  0
 17 20  2  0  0  0  0
 18 19  3  0  0  0  0
 20 21  1  0  0  0  0
 21 33  1  0  0  0  0
 21 34  1  0  0  0  0
 21 35  1  0  0  0  0
M  END
> <s_m_source_file>
AV-unprocessed.smi

> <i_m_source_file_index>
350

> <i_lp_mmshare_version>
43012

> <i_f3d_flags>
0

> <s_epik_input>
TiNDYyhjMVtDSDNdKWMoPU8pbihuYzFbQ0gzXSlbQ0gyXVtDQEhdKFtPSF0pYzJbY0hdW2NIXWMoQ2wpW2NIXVtjSF0y

> <s_epik_cmdline>
J2VwaWtfcHl0aG9uJywgJy1waCcsICc3LjAnLCAnLXRuJywgJzgnLCAnLW1hJywgJzIwMCcsICctbWV0YWxfYmluZGluZycsICctaW1hZScsICc8aW5maWxlLm1hZT4nLCAnLW9tYWUnLCAnPG91dGZpbGUubWFlPic=

> <r_lp_tautomer_probability>
1

> <r_epik_Ionization_Penalty>
1.17315e-07

> <r_epik_Ionization_Penalty_Charging>
1.40848e-10

> <r_epik_Ionization_Penalty_Neutral>
1.17174e-07

> <r_epik_State_Penalty>
-0

> <r_epik_Charging_Adjusted_Penalty>
1.40848e-10

> <i_epik_Tot_Q>
0

> <i_epik_Tot_abs_Q>
0

> <r_epik_Metal_State_Penalty>
-0

> <b_epik_Metal_Only>
0

> <s_lp_Force_Field>
OPLS_2005

> <r_lp_Energy>
28.0073

> <b_lp_Chiralities_Consistent>
1

> <s_lp_Variant>
AV-unprocessed.smi:350-1

> <Gold.Version>
5.8.1

> <Gold.Id.Protein>
6NUR|6NUR_protein|mol2

> <Gold.PLP.Fitness>
43.8704

> <Gold.PLP.PLP>
-42.4839

> <Gold.PLP.part.hbond>
-1.3389

> <Gold.PLP.part.metal>
0.0000

> <Gold.PLP.part.buried>
-4.1869

> <Gold.PLP.part.nonpolar>
-36.7901

> <Gold.PLP.part.repulsive>
0.0000

> <Gold.PLP.ligand.clash>
0.0000

> <Gold.PLP.ligand.torsion>
0.5530

> <Gold.PLP.Chemscore.Hbond>
0.8288

> <Gold.PLP.Chemscore.CHOScore>
0.0000

> <Gold.PLP.Chemscore.Metal>
0.0000

> <Gold.Chemscore.Hbonds>
donor molecule, donor type, donor heavy atom, donor atom, acceptor molecule, acceptor atom, score
      P1  H  6896  6909       L1    16  0.68

> <Gold.PLP.Chemscore.Internal.Correction>
0.0063

> <Gold.Rescore>
     Score         DG    S(hbond)    S(metal)    S(lipo)     H(rot)  DE(clash)    DE(int)     intcor
     16.84     -18.66       0.99        0.00     125.98       1.90       1.34       0.48       ----

> <Gold.Chemscore.Fitness>
16.8377

> <Gold.Chemscore.DG>
-18.6631

> <Gold.Chemscore.ZeroCoef>
-5.4800

> <Gold.Chemscore.Hbond>
0.9937

> <Gold.Chemscore.Metal>
0.0000

> <Gold.Chemscore.Lipo>
125.9831

> <Gold.Chemscore.Internal_Hbond>
0.0000

> <Gold.Chemscore.DEClash>
1.3428

> <Gold.Chemscore.DEInternal>
0.4827

> <Gold.Chemscore.Rot>
1.9047

> <Gold.Chemscore.Internal.Correction>
   9.000000E+99

> <Gold.Chemscore.Hbonds>
donor molecule, donor type, donor heavy atom, donor atom, acceptor molecule, acceptor atom, score
      P1  H  6896  6909       L1    16  0.68

> <Gold.Chemscore.Hbond.Weighted>
-3.3191

> <Gold.Chemscore.Metal.Weighted>
-0.0000

> <Gold.Chemscore.Lipo.Weighted>
-14.7400

> <Gold.Chemscore.Internal_Hbond.Weighted>
0.0000

> <Gold.Chemscore.DEClash.Weighted>
1.3428

> <Gold.Chemscore.DEInternal.Weighted>
0.4827

> <Gold.Chemscore.Rot.Weighted>
4.8760

> <Gold.Chemscore.Internal.Correction.Weighted>
   9.000000E+99

> <Gold.Protein.RotatedTorsions>
[ 6907 6896 6895 6894 ] final  156.97 input  -60.11 | X-H torsion
[ 7974 7965 7964 7962 ] final  179.13 input  175.53 | X-H torsion
[ 8008 7997 7996 7995 ] final   59.34 input   59.86 | X-H torsion
[ 10167 10162 10161 10158 ] final  -60.51 input  -65.29 | X-H torsion
[ 10718 10713 10712 10709 ] final  171.72 input   66.30 | X-H torsion
[ 10763 10752 10751 10750 ] final -108.65 input  -60.55 | X-H torsion
[ 11005 11000 10999 10996 ] final  120.79 input  -57.11 | X-H torsion

> <Gold.Protein.ActiveResidues>
 VAL166  LYS551  ARG553  GLY616  TRP617  ASP618  TYR619  PRO620  LYS621  CYS622 
 ASP623  PHE694  ASN695  SER759  ASP760  ASP761  ALA762  ILE779  LEU786  VAL792 
 PHE793  MET794  SER795  GLU796  ALA797  LYS798  CYS799  TRP800  GLU811  SER814 

> <Gold.Protein.RotatedAtoms>
  152.0220  133.3902  159.4261 H   0  0  0  0  0  0  0  0  0  0  0  0  # atno 6907 bound_to 6896
  150.6889  134.3616  159.4962 H   0  0  0  0  0  0  0  0  0  0  0  0  # atno 6908 bound_to 6896
  152.1391  134.9076  160.0605 H   0  0  0  0  0  0  0  0  0  0  0  0  # atno 6909 bound_to 6896
  144.7149  140.0502  143.6435 H   0  0  0  0  0  0  0  0  0  0  0  0  # atno 7974 bound_to 7965
  155.5645  140.3489  155.4500 H   0  0  0  0  0  0  0  0  0  0  0  0  # atno 8008 bound_to 7997
  156.0489  140.1313  157.0098 H   0  0  0  0  0  0  0  0  0  0  0  0  # atno 8009 bound_to 7997
  154.4425  140.1009  156.6332 H   0  0  0  0  0  0  0  0  0  0  0  0  # atno 8010 bound_to 7997
  140.6066  143.2375  151.5806 H   0  0  0  0  0  0  0  0  0  0  0  0  # atno 10167 bound_to 10162
  156.9894  131.0143  151.2861 H   0  0  0  0  0  0  0  0  0  0  0  0  # atno 10718 bound_to 10713
  154.8147  135.4630  154.0612 H   0  0  0  0  0  0  0  0  0  0  0  0  # atno 10763 bound_to 10752
  153.2014  135.6869  153.8233 H   0  0  0  0  0  0  0  0  0  0  0  0  # atno 10764 bound_to 10752
  153.7716  135.3269  155.3330 H   0  0  0  0  0  0  0  0  0  0  0  0  # atno 10765 bound_to 10752
  139.9199  134.9636  156.7860 H   0  0  0  0  0  0  0  0  0  0  0  0  # atno 11005 bound_to 11000
  145.9950  139.3045  143.0962 LP  0  0  0  0  0  0  0  0  0  0  0  0  # atno 17320 bound_to 7965
  145.8859  140.9334  143.0577 LP  0  0  0  0  0  0  0  0  0  0  0  0  # atno 17321 bound_to 7965
  139.5330  144.2862  152.1189 LP  0  0  0  0  0  0  0  0  0  0  0  0  # atno 17342 bound_to 10162
  140.2053  144.4617  150.6411 LP  0  0  0  0  0  0  0  0  0  0  0  0  # atno 17343 bound_to 10162
  157.5469  130.8157  149.8097 LP  0  0  0  0  0  0  0  0  0  0  0  0  # atno 17370 bound_to 10713
  156.0213  130.3794  150.1954 LP  0  0  0  0  0  0  0  0  0  0  0  0  # atno 17371 bound_to 10713
  140.6505  133.9735  155.7753 LP  0  0  0  0  0  0  0  0  0  0  0  0  # atno 17394 bound_to 11000
  141.0711  134.0204  157.3525 LP  0  0  0  0  0  0  0  0  0  0  0  0  # atno 17395 bound_to 11000

$$$$
