AV-unprocessed.smi:213|AV-procd|sdf|1639|dock5
  -GOLD-   2262020 03D 1   1.00000     0.00000
 Structure written by MMmdl.
 59 62  0  0  0  0  0  0  0  0  2 V2000
  148.0703  136.2627  156.1308 C   0  0  0  0  0  0  0  0  0  0  0  0
  149.2374  135.7551  155.2683 C   0  0  2  0  0  0  0  0  0  0  0  0
  148.9689  134.3242  154.7424 C   0  0  0  0  0  0  0  0  0  0  0  0
  148.0011  134.2903  153.6163 N   0  3  0  0  0  0  0  0  0  0  0  0
  147.9840  132.9922  152.9040 C   0  0  0  0  0  0  0  0  0  0  0  0
  147.0342  133.0634  151.6966 C   0  0  0  0  0  0  0  0  0  0  0  0
  145.7318  133.4345  152.1326 O   0  0  0  0  0  0  0  0  0  0  0  0
  145.7203  134.7157  152.7505 C   0  0  0  0  0  0  0  0  0  0  0  0
  146.6248  134.6949  153.9937 C   0  0  0  0  0  0  0  0  0  0  0  0
  150.5201  135.8643  155.9799 N   0  0  0  0  0  0  0  0  0  0  0  0
  151.3692  134.6819  156.1218 C   0  0  0  0  0  0  0  0  0  0  0  0
  151.1502  137.0671  155.9126 C   0  0  0  0  0  0  0  0  0  0  0  0
  151.9226  137.3548  154.8300 N   0  0  0  0  0  0  0  0  0  0  0  0
  152.5140  138.5475  154.7180 C   0  0  0  0  0  0  0  0  0  0  0  0
  152.4621  139.5848  155.5547 N   0  0  0  0  0  0  0  0  0  0  0  0
  151.7004  139.2997  156.6492 C   0  0  0  0  0  0  0  0  0  0  0  0
  151.0169  138.0779  156.9068 C   0  0  0  0  0  0  0  0  0  0  0  0
  150.3496  138.1590  158.1237 N   0  0  0  0  0  0  0  0  0  0  0  0
  150.6218  139.3588  158.5594 C   0  0  0  0  0  0  0  0  0  0  0  0
  151.4257  140.1116  157.7349 N   0  0  0  0  0  0  0  0  0  0  0  0
  151.8881  141.4670  157.9752 C   0  0  0  0  0  0  0  0  0  0  0  0
  152.4622  141.6479  159.3943 C   0  0  1  0  0  0  0  0  0  0  0  0
  153.8344  141.3038  159.4289 O   0  0  0  0  0  0  0  0  0  0  0  0
  152.2496  143.0712  159.9488 C   0  0  1  0  0  0  0  0  0  0  0  0
  152.6619  144.2283  159.0336 C   0  0  0  0  0  0  0  0  0  0  0  0
  151.8006  145.3503  159.5681 C   0  0  0  0  0  0  0  0  0  0  0  0
  150.5028  144.6166  159.8962 C   0  0  0  0  0  0  0  0  0  0  0  0
  150.8879  143.3058  160.3013 O   0  0  0  0  0  0  0  0  0  0  0  0
  147.1461  136.2904  155.5533 H   0  0  0  0  0  0  0  0  0  0  0  0
  148.2606  137.2746  156.4902 H   0  0  0  0  0  0  0  0  0  0  0  0
  147.8915  135.6262  156.9974 H   0  0  0  0  0  0  0  0  0  0  0  0
  149.2582  136.4133  154.4025 H   0  0  0  0  0  0  0  0  0  0  0  0
  149.9152  133.8932  154.4121 H   0  0  0  0  0  0  0  0  0  0  0  0
  148.6097  133.6816  155.5475 H   0  0  0  0  0  0  0  0  0  0  0  0
  148.9893  132.7424  152.5627 H   0  0  0  0  0  0  0  0  0  0  0  0
  147.6689  132.2017  153.5871 H   0  0  0  0  0  0  0  0  0  0  0  0
  147.3994  133.7773  150.9561 H   0  0  0  0  0  0  0  0  0  0  0  0
  146.9796  132.0925  151.2038 H   0  0  0  0  0  0  0  0  0  0  0  0
  146.0486  135.4783  152.0424 H   0  0  0  0  0  0  0  0  0  0  0  0
  144.6972  134.9641  153.0330 H   0  0  0  0  0  0  0  0  0  0  0  0
  146.2269  134.0000  154.7346 H   0  0  0  0  0  0  0  0  0  0  0  0
  146.6266  135.6836  154.4514 H   0  0  0  0  0  0  0  0  0  0  0  0
  152.1334  134.8451  156.8829 H   0  0  0  0  0  0  0  0  0  0  0  0
  151.8669  134.4449  155.1809 H   0  0  0  0  0  0  0  0  0  0  0  0
  150.7903  133.8112  156.4264 H   0  0  0  0  0  0  0  0  0  0  0  0
  153.1086  138.6946  153.8282 H   0  0  0  0  0  0  0  0  0  0  0  0
  150.2442  139.7289  159.5018 H   0  0  0  0  0  0  0  0  0  0  0  0
  152.6356  141.7172  157.2213 H   0  0  0  0  0  0  0  0  0  0  0  0
  151.0496  142.1471  157.8194 H   0  0  0  0  0  0  0  0  0  0  0  0
  151.9534  140.9509  160.0616 H   0  0  0  0  0  0  0  0  0  0  0  0
  153.9130  140.4285  159.7768 H   0  0  0  0  0  0  0  0  0  0  0  0
  152.8162  143.1651  160.8767 H   0  0  0  0  0  0  0  0  0  0  0  0
  153.7287  144.4479  159.0802 H   0  0  0  0  0  0  0  0  0  0  0  0
  152.4005  144.0343  157.9929 H   0  0  0  0  0  0  0  0  0  0  0  0
  152.2415  145.7615  160.4770 H   0  0  0  0  0  0  0  0  0  0  0  0
  151.6624  146.1634  158.8551 H   0  0  0  0  0  0  0  0  0  0  0  0
  149.9223  145.1196  160.6694 H   0  0  0  0  0  0  0  0  0  0  0  0
  149.8795  144.5330  159.0051 H   0  0  0  0  0  0  0  0  0  0  0  0
  148.3304  134.9698  152.9445 H   0  0  0  0  0  0  0  0  0  0  0  0
  1  2  1  0  0  0  0
  1 29  1  0  0  0  0
  1 30  1  0  0  0  0
  1 31  1  0  0  0  0
  2  3  1  0  0  0  0
  2 10  1  0  0  0  0
  2 32  1  0  0  0  0
  3  4  1  0  0  0  0
  3 33  1  0  0  0  0
  3 34  1  0  0  0  0
  4  9  1  0  0  0  0
  4  5  1  0  0  0  0
  4 59  1  0  0  0  0
  5  6  1  0  0  0  0
  5 35  1  0  0  0  0
  5 36  1  0  0  0  0
  6  7  1  0  0  0  0
  6 37  1  0  0  0  0
  6 38  1  0  0  0  0
  7  8  1  0  0  0  0
  8  9  1  0  0  0  0
  8 39  1  0  0  0  0
  8 40  1  0  0  0  0
  9 41  1  0  0  0  0
  9 42  1  0  0  0  0
 10 11  1  0  0  0  0
 10 12  1  0  0  0  0
 11 43  1  0  0  0  0
 11 44  1  0  0  0  0
 11 45  1  0  0  0  0
 12 17  1  0  0  0  0
 12 13  2  0  0  0  0
 13 14  1  0  0  0  0
 14 15  2  0  0  0  0
 14 46  1  0  0  0  0
 15 16  1  0  0  0  0
 16 20  1  0  0  0  0
 16 17  2  0  0  0  0
 17 18  1  0  0  0  0
 18 19  2  0  0  0  0
 19 20  1  0  0  0  0
 19 47  1  0  0  0  0
 20 21  1  0  0  0  0
 21 22  1  0  0  0  0
 21 48  1  0  0  0  0
 21 49  1  0  0  0  0
 22 23  1  0  0  0  0
 22 24  1  0  0  0  0
 22 50  1  0  0  0  0
 23 51  1  0  0  0  0
 24 28  1  0  0  0  0
 24 25  1  0  0  0  0
 24 52  1  0  0  0  0
 25 26  1  0  0  0  0
 25 53  1  0  0  0  0
 25 54  1  0  0  0  0
 26 27  1  0  0  0  0
 26 55  1  0  0  0  0
 26 56  1  0  0  0  0
 27 28  1  0  0  0  0
 27 57  1  0  0  0  0
 27 58  1  0  0  0  0
M  CHG  1   4   1
M  END
> <s_m_source_file>
AV-unprocessed.smi

> <i_m_source_file_index>
213

> <i_lp_mmshare_version>
43012

> <i_f3d_flags>
0

> <s_epik_input>
W0NIMl0xW0NIMl1PW0NIMl1bQ0gyXU4xW0NIMl1bQ0BASF0oW0NIM10pTihbQ0gzXSljKG5bY0hdbjIpYyhjMjMpbltjSF1uM1tDSDJdW0NASF0oW09IXSlbQ0BASF00W0NIMl1bQ0gyXVtDSDJdTzQ=

> <s_epik_cmdline>
J2VwaWtfcHl0aG9uJywgJy1waCcsICc3LjAnLCAnLXRuJywgJzgnLCAnLW1hJywgJzIwMCcsICctbWV0YWxfYmluZGluZycsICctaW1hZScsICc8aW5maWxlLm1hZT4nLCAnLW9tYWUnLCAnPG91dGZpbGUubWFlPic=

> <r_lp_tautomer_probability>
1

> <r_epik_Ionization_Penalty>
0.399679

> <r_epik_Ionization_Penalty_Charging>
0.399433

> <r_epik_Ionization_Penalty_Neutral>
0.000246213

> <r_epik_State_Penalty>
0.286032

> <r_epik_Charging_Adjusted_Penalty>
0.685465

> <i_epik_Tot_Q>
1

> <i_epik_Tot_abs_Q>
1

> <r_epik_Metal_State_Penalty>
0.286072

> <b_epik_Metal_Only>
0

> <s_lp_Force_Field>
OPLS_2005

> <r_lp_Energy>
47.0923

> <b_lp_Chiralities_Consistent>
1

> <s_lp_Variant>
AV-unprocessed.smi:213-7

> <Gold.Version>
5.8.1

> <Gold.Id.Protein>
6NUR|6NUR_protein|mol2

> <Gold.PLP.Fitness>
55.1601

> <Gold.PLP.PLP>
-47.3842

> <Gold.PLP.part.hbond>
-4.0000

> <Gold.PLP.part.metal>
0.0000

> <Gold.PLP.part.buried>
-7.0672

> <Gold.PLP.part.nonpolar>
-37.4817

> <Gold.PLP.part.repulsive>
0.2803

> <Gold.PLP.ligand.clash>
0.0000

> <Gold.PLP.ligand.torsion>
2.6529

> <Gold.PLP.Chemscore.Hbond>
3.9280

> <Gold.PLP.Chemscore.CHOScore>
0.0000

> <Gold.PLP.Chemscore.Metal>
0.0000

> <Gold.Chemscore.Hbonds>
donor molecule, donor type, donor heavy atom, donor atom, acceptor molecule, acceptor atom, score
      L1  H     4    59       P1  7948  2.00
      P1  H  7997  8008       L1    15  0.83
      P1  H 10752 10765       L1    13  0.91

> <Gold.PLP.Chemscore.Internal.Correction>
1.2978

> <Gold.Rescore>
     Score         DG    S(hbond)    S(metal)    S(lipo)     H(rot)  DE(clash)    DE(int)     intcor
     15.74     -18.50       2.63        0.00      98.15       2.83       0.00       2.76       ----

> <Gold.Chemscore.Fitness>
15.7442

> <Gold.Chemscore.DG>
-18.5023

> <Gold.Chemscore.ZeroCoef>
-5.4800

> <Gold.Chemscore.Hbond>
2.6262

> <Gold.Chemscore.Metal>
0.0000

> <Gold.Chemscore.Lipo>
98.1509

> <Gold.Chemscore.Internal_Hbond>
0.0000

> <Gold.Chemscore.DEClash>
0.0013

> <Gold.Chemscore.DEInternal>
2.7568

> <Gold.Chemscore.Rot>
2.8254

> <Gold.Chemscore.Internal.Correction>
   9.000000E+99

> <Gold.Chemscore.Hbonds>
donor molecule, donor type, donor heavy atom, donor atom, acceptor molecule, acceptor atom, score
      L1  H     4    59       P1  7948  0.78
      P1  H  7997  8008       L1    15  0.34
      P1  H 10752 10765       L1    13  0.33

> <Gold.Chemscore.Hbond.Weighted>
-8.7716

> <Gold.Chemscore.Metal.Weighted>
-0.0000

> <Gold.Chemscore.Lipo.Weighted>
-11.4837

> <Gold.Chemscore.Internal_Hbond.Weighted>
0.0000

> <Gold.Chemscore.DEClash.Weighted>
0.0013

> <Gold.Chemscore.DEInternal.Weighted>
2.7568

> <Gold.Chemscore.Rot.Weighted>
7.2330

> <Gold.Chemscore.Internal.Correction.Weighted>
   9.000000E+99

> <Gold.Protein.RotatedTorsions>
[ 6907 6896 6895 6894 ] final   84.78 input  -60.11 | X-H torsion
[ 7974 7965 7964 7962 ] final  -77.71 input  175.53 | X-H torsion
[ 8008 7997 7996 7995 ] final  -43.98 input   59.86 | X-H torsion
[ 10167 10162 10161 10158 ] final   -8.80 input  -65.29 | X-H torsion
[ 10718 10713 10712 10709 ] final   77.67 input   66.30 | X-H torsion
[ 10763 10752 10751 10750 ] final  176.17 input  -60.55 | X-H torsion
[ 11005 11000 10999 10996 ] final  -26.91 input  -57.11 | X-H torsion

> <Gold.Protein.ActiveResidues>
 VAL166  LYS551  ARG553  GLY616  TRP617  ASP618  TYR619  PRO620  LYS621  CYS622 
 ASP623  PHE694  ASN695  SER759  ASP760  ASP761  ALA762  ILE779  LEU786  VAL792 
 PHE793  MET794  SER795  GLU796  ALA797  LYS798  CYS799  TRP800  GLU811  SER814 

> <Gold.Protein.RotatedAtoms>
  152.5360  134.2688  159.8963 H   0  0  0  0  0  0  0  0  0  0  0  0  # atno 6907 bound_to 6896
  151.2645  133.4279  159.2625 H   0  0  0  0  0  0  0  0  0  0  0  0  # atno 6908 bound_to 6896
  151.0423  134.9630  159.8224 H   0  0  0  0  0  0  0  0  0  0  0  0  # atno 6909 bound_to 6896
  145.5960  140.9419  143.1266 H   0  0  0  0  0  0  0  0  0  0  0  0  # atno 7974 bound_to 7965
  154.3997  140.1434  156.3608 H   0  0  0  0  0  0  0  0  0  0  0  0  # atno 8008 bound_to 7997
  155.8183  140.3470  155.5478 H   0  0  0  0  0  0  0  0  0  0  0  0  # atno 8009 bound_to 7997
  155.8315  140.0913  157.1780 H   0  0  0  0  0  0  0  0  0  0  0  0  # atno 8010 bound_to 7997
  140.7069  143.5928  150.8876 H   0  0  0  0  0  0  0  0  0  0  0  0  # atno 10167 bound_to 10162
  157.6719  130.9833  150.1675 H   0  0  0  0  0  0  0  0  0  0  0  0  # atno 10718 bound_to 10713
  154.4775  135.2773  155.1596 H   0  0  0  0  0  0  0  0  0  0  0  0  # atno 10763 bound_to 10752
  154.3320  135.6188  153.5559 H   0  0  0  0  0  0  0  0  0  0  0  0  # atno 10764 bound_to 10752
  152.9871  135.5768  154.5169 H   0  0  0  0  0  0  0  0  0  0  0  0  # atno 10765 bound_to 10752
  140.9072  133.7485  156.0622 H   0  0  0  0  0  0  0  0  0  0  0  0  # atno 11005 bound_to 11000
  144.7330  139.7668  143.7340 LP  0  0  0  0  0  0  0  0  0  0  0  0  # atno 17320 bound_to 7965
  146.1611  139.4726  142.9987 LP  0  0  0  0  0  0  0  0  0  0  0  0  # atno 17321 bound_to 7965
  139.9653  143.6117  152.2990 LP  0  0  0  0  0  0  0  0  0  0  0  0  # atno 17342 bound_to 10162
  139.6685  144.7661  151.1828 LP  0  0  0  0  0  0  0  0  0  0  0  0  # atno 17343 bound_to 10162
  156.2437  130.3693  149.8308 LP  0  0  0  0  0  0  0  0  0  0  0  0  # atno 17370 bound_to 10713
  156.6101  130.8583  151.3452 LP  0  0  0  0  0  0  0  0  0  0  0  0  # atno 17371 bound_to 10713
  140.8156  134.3349  157.5398 LP  0  0  0  0  0  0  0  0  0  0  0  0  # atno 17394 bound_to 11000
  139.8751  134.9279  156.3438 LP  0  0  0  0  0  0  0  0  0  0  0  0  # atno 17395 bound_to 11000

$$$$
