AV-unprocessed.smi:2245|AV-procd|sdf|9078|dock7
  -GOLD-   2272012283D 1   1.00000     0.00000
 Structure written by MMmdl.
 45 46  0  0  0  0  0  0  0  0  2 V2000
  151.9115  145.8957  160.0873 C   0  0  0  0  0  0  0  0  0  0  0  0
  151.9242  144.5256  159.4427 C   0  0  0  0  0  0  0  0  0  0  0  0
  152.7473  143.4999  159.9456 C   0  0  0  0  0  0  0  0  0  0  0  0
  152.7122  142.2454  159.3057 C   0  0  0  0  0  0  0  0  0  0  0  0
  153.5707  141.0972  159.7933 C   0  0  0  0  0  0  0  0  0  0  0  0
  151.9273  141.9847  158.2385 N   0  0  0  0  0  0  0  0  0  0  0  0
  151.1306  142.9651  157.7453 C   0  0  0  0  0  0  0  0  0  0  0  0
  150.2684  142.7926  156.6300 N   0  0  0  0  0  0  0  0  0  0  0  0
  150.1726  141.7302  155.8112 C   0  0  0  0  0  0  0  0  0  0  0  0
  150.8559  140.7083  155.8840 O   0  0  0  0  0  0  0  0  0  0  0  0
  149.2175  141.9127  154.8876 N   0  0  0  0  0  0  0  0  0  0  0  0
  148.8532  140.9476  153.8551 C   0  0  0  0  0  0  0  0  0  0  0  0
  147.4461  140.3565  154.0744 C   0  0  2  0  0  0  0  0  0  0  0  0
  147.3483  139.4042  155.2649 C   0  0  0  0  0  0  0  0  0  0  0  0
  146.1344  138.5182  154.9526 C   0  0  0  0  0  0  0  0  0  0  0  0
  145.8238  138.7050  153.5146 N   0  3  2  0  0  0  0  0  0  0  0  0
  145.4928  137.4688  152.7655 C   0  0  0  0  0  0  0  0  0  0  0  0
  144.2083  136.7937  153.2774 C   0  0  0  0  0  0  0  0  0  0  0  0
  144.4974  136.0745  154.3607 F   0  0  0  0  0  0  0  0  0  0  0  0
  143.2844  137.6971  153.6035 F   0  0  0  0  0  0  0  0  0  0  0  0
  143.7167  135.9805  152.3426 F   0  0  0  0  0  0  0  0  0  0  0  0
  146.9258  139.4915  152.9264 C   0  0  0  0  0  0  0  0  0  0  0  0
  151.1057  144.2520  158.3281 C   0  0  0  0  0  0  0  0  0  0  0  0
  152.7927  146.0443  160.7122 H   0  0  0  0  0  0  0  0  0  0  0  0
  151.0247  146.0092  160.7113 H   0  0  0  0  0  0  0  0  0  0  0  0
  151.8998  146.6766  159.3265 H   0  0  0  0  0  0  0  0  0  0  0  0
  153.3875  143.6700  160.7991 H   0  0  0  0  0  0  0  0  0  0  0  0
  154.1984  141.4000  160.6319 H   0  0  0  0  0  0  0  0  0  0  0  0
  154.2206  140.7424  158.9928 H   0  0  0  0  0  0  0  0  0  0  0  0
  152.9431  140.2674  160.1201 H   0  0  0  0  0  0  0  0  0  0  0  0
  149.6455  143.5638  156.4418 H   0  0  0  0  0  0  0  0  0  0  0  0
  148.7104  142.7858  154.8946 H   0  0  0  0  0  0  0  0  0  0  0  0
  148.9012  141.4554  152.8912 H   0  0  0  0  0  0  0  0  0  0  0  0
  149.5970  140.1498  153.8201 H   0  0  0  0  0  0  0  0  0  0  0  0
  146.7350  141.1681  154.2378 H   0  0  0  0  0  0  0  0  0  0  0  0
  148.2438  138.7837  155.3230 H   0  0  0  0  0  0  0  0  0  0  0  0
  147.2490  139.9311  156.2145 H   0  0  0  0  0  0  0  0  0  0  0  0
  146.3543  137.4778  155.1960 H   0  0  0  0  0  0  0  0  0  0  0  0
  145.2665  138.8195  155.5400 H   0  0  0  0  0  0  0  0  0  0  0  0
  145.3441  137.7350  151.7179 H   0  0  0  0  0  0  0  0  0  0  0  0
  146.3348  136.7755  152.7917 H   0  0  0  0  0  0  0  0  0  0  0  0
  146.5831  140.0830  152.0767 H   0  0  0  0  0  0  0  0  0  0  0  0
  147.7131  138.8204  152.5779 H   0  0  0  0  0  0  0  0  0  0  0  0
  150.4652  145.0244  157.9268 H   0  0  0  0  0  0  0  0  0  0  0  0
  145.0101  139.3025  153.4762 H   0  0  0  0  0  0  0  0  0  0  0  0
  1  2  1  0  0  0  0
  1 24  1  0  0  0  0
  1 25  1  0  0  0  0
  1 26  1  0  0  0  0
  2 23  1  0  0  0  0
  2  3  2  0  0  0  0
  3  4  1  0  0  0  0
  3 27  1  0  0  0  0
  4  5  1  0  0  0  0
  4  6  2  0  0  0  0
  5 28  1  0  0  0  0
  5 29  1  0  0  0  0
  5 30  1  0  0  0  0
  6  7  1  0  0  0  0
  7  8  1  0  0  0  0
  7 23  2  0  0  0  0
  8  9  1  0  0  0  0
  8 31  1  0  0  0  0
  9 10  2  0  0  0  0
  9 11  1  0  0  0  0
 11 12  1  0  0  0  0
 11 32  1  0  0  0  0
 12 13  1  0  0  0  0
 12 33  1  0  0  0  0
 12 34  1  0  0  0  0
 13 22  1  0  0  0  0
 13 14  1  0  0  0  0
 13 35  1  0  0  0  0
 14 15  1  0  0  0  0
 14 36  1  0  0  0  0
 14 37  1  0  0  0  0
 15 16  1  0  0  0  0
 15 38  1  0  0  0  0
 15 39  1  0  0  0  0
 16 17  1  0  0  0  0
 16 22  1  0  0  0  0
 16 45  1  0  0  0  0
 17 18  1  0  0  0  0
 17 40  1  0  0  0  0
 17 41  1  0  0  0  0
 18 19  1  0  0  0  0
 18 20  1  0  0  0  0
 18 21  1  0  0  0  0
 22 42  1  0  0  0  0
 22 43  1  0  0  0  0
 23 44  1  0  0  0  0
M  CHG  1  16   1
M  END
> <s_m_source_file>
AV-unprocessed.smi

> <i_m_source_file_index>
2245

> <i_lp_mmshare_version>
43012

> <i_f3d_flags>
0

> <s_epik_input>
W0NIM11jMVtjSF1jKFtDSDNdKW5jKFtjSF0xKVtOSF1DKD1PKVtOSF1bQ0gyXVtDQEBIXTJbQ0gyXVtDSDJdTihbQ0gyXTIpW0NIMl1DKEYpKEYpRg==

> <s_epik_cmdline>
J2VwaWtfcHl0aG9uJywgJy1waCcsICc3LjAnLCAnLXRuJywgJzgnLCAnLW1hJywgJzIwMCcsICctbWV0YWxfYmluZGluZycsICctaW1hZScsICc8aW5maWxlLm1hZT4nLCAnLW9tYWUnLCAnPG91dGZpbGUubWFlPic=

> <r_epik_Ionization_Penalty>
0.628315

> <r_epik_Ionization_Penalty_Charging>
0.628113

> <r_epik_Ionization_Penalty_Neutral>
0.000202271

> <r_epik_State_Penalty>
0.644725

> <r_epik_Charging_Adjusted_Penalty>
1.27284

> <i_epik_Tot_Q>
1

> <i_epik_Tot_abs_Q>
1

> <r_epik_Metal_State_Penalty>
0.644752

> <b_epik_Metal_Only>
0

> <s_lp_Force_Field>
OPLS_2005

> <r_lp_Energy>
28.9213

> <b_lp_Chiralities_Consistent>
1

> <s_lp_Variant>
AV-unprocessed.smi:2245-3

> <Gold.Version>
5.8.1

> <Gold.Id.Protein>
6NUR|6NUR_protein|mol2

> <Gold.PLP.Fitness>
54.3057

> <Gold.PLP.PLP>
-43.3579

> <Gold.PLP.part.hbond>
-3.0202

> <Gold.PLP.part.metal>
0.0000

> <Gold.PLP.part.buried>
-1.5215

> <Gold.PLP.part.nonpolar>
-38.5344

> <Gold.PLP.part.repulsive>
0.3093

> <Gold.PLP.ligand.clash>
0.0000

> <Gold.PLP.ligand.torsion>
0.4190

> <Gold.PLP.Chemscore.Hbond>
3.7691

> <Gold.PLP.Chemscore.CHOScore>
0.0000

> <Gold.PLP.Chemscore.Metal>
0.0000

> <Gold.Chemscore.Hbonds>
donor molecule, donor type, donor heavy atom, donor atom, acceptor molecule, acceptor atom, score
      L1  H     8    31       P1  8028  1.00
      L1  H    11    32       P1  8028  0.74
      L1  H    16    45       P1 10175  1.98

> <Gold.PLP.Chemscore.Internal.Correction>
0.4786

> <Gold.Rescore>
     Score         DG    S(hbond)    S(metal)    S(lipo)     H(rot)  DE(clash)    DE(int)     intcor
     19.30     -22.58       2.89        0.00      99.10       1.61       0.92       2.36       ----

> <Gold.Chemscore.Fitness>
19.2951

> <Gold.Chemscore.DG>
-22.5791

> <Gold.Chemscore.ZeroCoef>
-5.4800

> <Gold.Chemscore.Hbond>
2.8853

> <Gold.Chemscore.Metal>
0.0000

> <Gold.Chemscore.Lipo>
99.1012

> <Gold.Chemscore.Internal_Hbond>
0.0000

> <Gold.Chemscore.DEClash>
0.9208

> <Gold.Chemscore.DEInternal>
2.3631

> <Gold.Chemscore.Rot>
1.6143

> <Gold.Chemscore.Internal.Correction>
   9.000000E+99

> <Gold.Chemscore.Hbonds>
donor molecule, donor type, donor heavy atom, donor atom, acceptor molecule, acceptor atom, score
      L1  H     8    31       P1  8028  0.98
      L1  H    11    32       P1  8028  0.71
      L1  H    16    45       P1 10175  0.89

> <Gold.Chemscore.Hbond.Weighted>
-9.6368

> <Gold.Chemscore.Metal.Weighted>
-0.0000

> <Gold.Chemscore.Lipo.Weighted>
-11.5948

> <Gold.Chemscore.Internal_Hbond.Weighted>
0.0000

> <Gold.Chemscore.DEClash.Weighted>
0.9208

> <Gold.Chemscore.DEInternal.Weighted>
2.3631

> <Gold.Chemscore.Rot.Weighted>
4.1325

> <Gold.Chemscore.Internal.Correction.Weighted>
   9.000000E+99

> <Gold.Protein.RotatedTorsions>
[ 6907 6896 6895 6894 ] final   51.00 input  -60.11 | X-H torsion
[ 7974 7965 7964 7962 ] final  172.50 input  175.53 | X-H torsion
[ 8008 7997 7996 7995 ] final   15.47 input   59.86 | X-H torsion
[ 10167 10162 10161 10158 ] final   -0.68 input  -65.29 | X-H torsion
[ 10718 10713 10712 10709 ] final  -13.09 input   66.30 | X-H torsion
[ 10763 10752 10751 10750 ] final  153.49 input  -60.55 | X-H torsion
[ 11005 11000 10999 10996 ] final -167.06 input  -57.11 | X-H torsion

> <Gold.Protein.ActiveResidues>
 VAL166  LYS551  ARG553  GLY616  TRP617  ASP618  TYR619  PRO620  LYS621  CYS622 
 ASP623  PHE694  ASN695  SER759  ASP760  ASP761  ALA762  ILE779  LEU786  VAL792 
 PHE793  MET794  SER795  GLU796  ALA797  LYS798  CYS799  TRP800  GLU811  SER814 

> <Gold.Protein.RotatedAtoms>
  152.3079  134.7533  160.0342 H   0  0  0  0  0  0  0  0  0  0  0  0  # atno 6907 bound_to 6896
  151.8024  133.3366  159.3539 H   0  0  0  0  0  0  0  0  0  0  0  0  # atno 6908 bound_to 6896
  150.7305  134.5671  159.5916 H   0  0  0  0  0  0  0  0  0  0  0  0  # atno 6909 bound_to 6896
  144.7266  139.9507  143.6432 H   0  0  0  0  0  0  0  0  0  0  0  0  # atno 7974 bound_to 7965
  154.8631  140.2947  155.5527 H   0  0  0  0  0  0  0  0  0  0  0  0  # atno 8008 bound_to 7997
  156.3020  140.2474  156.3541 H   0  0  0  0  0  0  0  0  0  0  0  0  # atno 8009 bound_to 7997
  154.8897  140.0395  157.1820 H   0  0  0  0  0  0  0  0  0  0  0  0  # atno 8010 bound_to 7997
  140.6778  143.6866  150.8062 H   0  0  0  0  0  0  0  0  0  0  0  0  # atno 10167 bound_to 10162
  156.6353  130.4913  149.6114 H   0  0  0  0  0  0  0  0  0  0  0  0  # atno 10718 bound_to 10713
  154.1370  135.2823  155.3170 H   0  0  0  0  0  0  0  0  0  0  0  0  # atno 10763 bound_to 10752
  154.6314  135.5434  153.7688 H   0  0  0  0  0  0  0  0  0  0  0  0  # atno 10764 bound_to 10752
  153.0262  135.6463  154.1519 H   0  0  0  0  0  0  0  0  0  0  0  0  # atno 10765 bound_to 10752
  140.5575  134.5367  157.5136 H   0  0  0  0  0  0  0  0  0  0  0  0  # atno 11005 bound_to 11000
  146.0713  139.3702  143.0521 LP  0  0  0  0  0  0  0  0  0  0  0  0  # atno 17320 bound_to 7965
  145.7964  140.9791  143.1022 LP  0  0  0  0  0  0  0  0  0  0  0  0  # atno 17321 bound_to 7965
  140.0562  143.5201  152.2650 LP  0  0  0  0  0  0  0  0  0  0  0  0  # atno 17342 bound_to 10162
  139.6080  144.7601  151.3016 LP  0  0  0  0  0  0  0  0  0  0  0  0  # atno 17343 bound_to 10162
  156.2202  130.6732  151.1360 LP  0  0  0  0  0  0  0  0  0  0  0  0  # atno 17370 bound_to 10713
  157.7187  131.0694  150.6222 LP  0  0  0  0  0  0  0  0  0  0  0  0  # atno 17371 bound_to 10713
  139.9424  134.7762  156.0645 LP  0  0  0  0  0  0  0  0  0  0  0  0  # atno 17394 bound_to 11000
  141.1135  133.6635  156.3035 LP  0  0  0  0  0  0  0  0  0  0  0  0  # atno 17395 bound_to 11000

$$$$
