AV-unprocessed.smi:2240|AV-procd|sdf|9057|dock9
  -GOLD-   2272012263D 1   1.00000     0.00000
 Structure written by MMmdl.
 37 38  0  0  0  0  0  0  0  0  1 V2000
  152.5774  142.9815  161.3293 C   0  0  0  0  0  0  0  0  0  0  0  0
  152.9687  143.6754  160.1516 O   0  0  0  0  0  0  0  0  0  0  0  0
  151.9075  144.1569  159.3260 C   0  0  0  0  0  0  0  0  0  0  0  0
  151.0747  145.2392  160.0339 C   0  0  0  0  0  0  0  0  0  0  0  0
  149.6768  145.2017  159.6155 N   0  0  0  0  0  0  0  0  0  0  0  0
  148.6461  144.7909  160.3677 C   0  0  0  0  0  0  0  0  0  0  0  0
  148.7616  144.4132  161.5341 O   0  0  0  0  0  0  0  0  0  0  0  0
  147.4950  144.8311  159.6740 N   0  0  0  0  0  0  0  0  0  0  0  0
  146.1987  144.4270  160.0903 C   0  0  0  0  0  0  0  0  0  0  0  0
  145.0877  144.5428  159.2158 C   0  0  0  0  0  0  0  0  0  0  0  0
  143.8201  144.1070  159.6471 C   0  0  0  0  0  0  0  0  0  0  0  0
  143.6930  143.5551  160.9353 C   0  0  0  0  0  0  0  0  0  0  0  0
  142.3504  143.0744  161.4447 C   0  0  0  0  0  0  0  0  0  0  0  0
  144.8503  143.4627  161.7323 C   0  0  0  0  0  0  0  0  0  0  0  0
  146.0666  143.8780  161.3200 N   0  0  0  0  0  0  0  0  0  0  0  0
  152.4933  144.4772  157.9363 C   0  0  0  0  0  0  0  0  0  0  0  0
  151.3051  143.7459  157.3105 C   0  0  0  0  0  0  0  0  0  0  0  0
  151.1677  142.9934  158.6343 C   0  0  0  0  0  0  0  0  0  0  0  0
  153.4626  142.5638  161.8084 H   0  0  0  0  0  0  0  0  0  0  0  0
  151.8989  142.1565  161.1121 H   0  0  0  0  0  0  0  0  0  0  0  0
  152.1022  143.6461  162.0502 H   0  0  0  0  0  0  0  0  0  0  0  0
  151.1521  145.1342  161.1173 H   0  0  0  0  0  0  0  0  0  0  0  0
  151.4662  146.2330  159.8188 H   0  0  0  0  0  0  0  0  0  0  0  0
  149.4849  145.4868  158.6663 H   0  0  0  0  0  0  0  0  0  0  0  0
  147.5765  145.0716  158.6973 H   0  0  0  0  0  0  0  0  0  0  0  0
  145.1881  144.9454  158.2193 H   0  0  0  0  0  0  0  0  0  0  0  0
  142.9627  144.1914  158.9957 H   0  0  0  0  0  0  0  0  0  0  0  0
  142.4698  142.4134  162.3036 H   0  0  0  0  0  0  0  0  0  0  0  0
  141.8199  142.5261  160.6658 H   0  0  0  0  0  0  0  0  0  0  0  0
  141.7367  143.9230  161.7472 H   0  0  0  0  0  0  0  0  0  0  0  0
  144.8038  143.0425  162.7263 H   0  0  0  0  0  0  0  0  0  0  0  0
  152.5503  145.5356  157.6841 H   0  0  0  0  0  0  0  0  0  0  0  0
  153.4417  143.9730  157.7423 H   0  0  0  0  0  0  0  0  0  0  0  0
  150.4601  144.4052  157.1058 H   0  0  0  0  0  0  0  0  0  0  0  0
  151.5518  143.1212  156.4516 H   0  0  0  0  0  0  0  0  0  0  0  0
  151.7309  142.0583  158.6385 H   0  0  0  0  0  0  0  0  0  0  0  0
  150.1396  142.8428  158.9644 H   0  0  0  0  0  0  0  0  0  0  0  0
  1  2  1  0  0  0  0
  1 19  1  0  0  0  0
  1 20  1  0  0  0  0
  1 21  1  0  0  0  0
  2  3  1  0  0  0  0
  3 18  1  0  0  0  0
  3  4  1  0  0  0  0
  3 16  1  0  0  0  0
  4  5  1  0  0  0  0
  4 22  1  0  0  0  0
  4 23  1  0  0  0  0
  5  6  1  0  0  0  0
  5 24  1  0  0  0  0
  6  7  2  0  0  0  0
  6  8  1  0  0  0  0
  8  9  1  0  0  0  0
  8 25  1  0  0  0  0
  9 15  1  0  0  0  0
  9 10  2  0  0  0  0
 10 11  1  0  0  0  0
 10 26  1  0  0  0  0
 11 12  2  0  0  0  0
 11 27  1  0  0  0  0
 12 13  1  0  0  0  0
 12 14  1  0  0  0  0
 13 28  1  0  0  0  0
 13 29  1  0  0  0  0
 13 30  1  0  0  0  0
 14 15  2  0  0  0  0
 14 31  1  0  0  0  0
 16 17  1  0  0  0  0
 16 32  1  0  0  0  0
 16 33  1  0  0  0  0
 17 18  1  0  0  0  0
 17 34  1  0  0  0  0
 17 35  1  0  0  0  0
 18 36  1  0  0  0  0
 18 37  1  0  0  0  0
M  END
> <s_m_source_file>
AV-unprocessed.smi

> <i_m_source_file_index>
2240

> <i_lp_mmshare_version>
43012

> <i_f3d_flags>
0

> <s_epik_input>
W0NIMl0xW0NIMl1bQ0gyXUMxKE9bQ0gzXSlbQ0gyXVtOSF1DKD1PKVtOSF1jMltjSF1bY0hdYyhbQ0gzXSlbY0hdbjI=

> <s_epik_cmdline>
J2VwaWtfcHl0aG9uJywgJy1waCcsICc3LjAnLCAnLXRuJywgJzgnLCAnLW1hJywgJzIwMCcsICctbWV0YWxfYmluZGluZycsICctaW1hZScsICc8aW5maWxlLm1hZT4nLCAnLW9tYWUnLCAnPG91dGZpbGUubWFlPic=

> <r_lp_tautomer_probability>
1

> <r_epik_Ionization_Penalty>
5.83017e-05

> <r_epik_Ionization_Penalty_Charging>
0

> <r_epik_Ionization_Penalty_Neutral>
5.83017e-05

> <r_epik_State_Penalty>
-0

> <r_epik_Charging_Adjusted_Penalty>
0

> <i_epik_Tot_Q>
0

> <i_epik_Tot_abs_Q>
0

> <r_epik_Metal_State_Penalty>
-0

> <b_epik_Metal_Only>
0

> <s_lp_Force_Field>
OPLS_2005

> <r_lp_Energy>
21.5554

> <b_lp_Chiralities_Consistent>
1

> <s_lp_Variant>
AV-unprocessed.smi:2240-1

> <Gold.Version>
5.8.1

> <Gold.Id.Protein>
6NUR|6NUR_protein|mol2

> <Gold.PLP.Fitness>
41.2854

> <Gold.PLP.PLP>
-35.8807

> <Gold.PLP.part.hbond>
-2.9697

> <Gold.PLP.part.metal>
0.0000

> <Gold.PLP.part.buried>
-6.5681

> <Gold.PLP.part.nonpolar>
-27.9562

> <Gold.PLP.part.repulsive>
0.6451

> <Gold.PLP.ligand.clash>
0.0000

> <Gold.PLP.ligand.torsion>
0.8200

> <Gold.PLP.Chemscore.Hbond>
2.2594

> <Gold.PLP.Chemscore.CHOScore>
0.0000

> <Gold.PLP.Chemscore.Metal>
0.0000

> <Gold.Chemscore.Hbonds>
donor molecule, donor type, donor heavy atom, donor atom, acceptor molecule, acceptor atom, score
      L1  H     5    24       P1  8029  0.61
      L1  H     8    25       P1  8029  1.00
      P1  H  6933  6944       L1     7  0.66

> <Gold.PLP.Chemscore.Internal.Correction>
0.2664

> <Gold.Rescore>
     Score         DG    S(hbond)    S(metal)    S(lipo)     H(rot)  DE(clash)    DE(int)     intcor
     17.51     -21.16       2.43        0.00      96.55       1.45       1.61       2.04       ----

> <Gold.Chemscore.Fitness>
17.5141

> <Gold.Chemscore.DG>
-21.1633

> <Gold.Chemscore.ZeroCoef>
-5.4800

> <Gold.Chemscore.Hbond>
2.4267

> <Gold.Chemscore.Metal>
0.0000

> <Gold.Chemscore.Lipo>
96.5487

> <Gold.Chemscore.Internal_Hbond>
0.0000

> <Gold.Chemscore.DEClash>
1.6124

> <Gold.Chemscore.DEInternal>
2.0368

> <Gold.Chemscore.Rot>
1.4523

> <Gold.Chemscore.Internal.Correction>
   9.000000E+99

> <Gold.Chemscore.Hbonds>
donor molecule, donor type, donor heavy atom, donor atom, acceptor molecule, acceptor atom, score
      L1  H     5    24       P1  8029  0.56
      L1  H     8    25       P1  8029  1.00
      P1  H  6933  6944       L1     7  0.34

> <Gold.Chemscore.Hbond.Weighted>
-8.1050

> <Gold.Chemscore.Metal.Weighted>
-0.0000

> <Gold.Chemscore.Lipo.Weighted>
-11.2962

> <Gold.Chemscore.Internal_Hbond.Weighted>
0.0000

> <Gold.Chemscore.DEClash.Weighted>
1.6124

> <Gold.Chemscore.DEInternal.Weighted>
2.0368

> <Gold.Chemscore.Rot.Weighted>
3.7179

> <Gold.Chemscore.Internal.Correction.Weighted>
   9.000000E+99

> <Gold.Protein.RotatedTorsions>
[ 6907 6896 6895 6894 ] final -130.93 input  -60.11 | X-H torsion
[ 7974 7965 7964 7962 ] final -172.29 input  175.53 | X-H torsion
[ 8008 7997 7996 7995 ] final   47.28 input   59.86 | X-H torsion
[ 10167 10162 10161 10158 ] final  -59.61 input  -65.29 | X-H torsion
[ 10718 10713 10712 10709 ] final    8.61 input   66.30 | X-H torsion
[ 10763 10752 10751 10750 ] final   28.40 input  -60.55 | X-H torsion
[ 11005 11000 10999 10996 ] final   30.22 input  -57.11 | X-H torsion

> <Gold.Protein.ActiveResidues>
 VAL166  LYS551  ARG553  GLY616  TRP617  ASP618  TYR619  PRO620  LYS621  CYS622 
 ASP623  PHE694  ASN695  SER759  ASP760  ASP761  ALA762  ILE779  LEU786  VAL792 
 PHE793  MET794  SER795  GLU796  ALA797  LYS798  CYS799  TRP800  GLU811  SER814 

> <Gold.Protein.RotatedAtoms>
  150.9452  133.6611  159.2782 H   0  0  0  0  0  0  0  0  0  0  0  0  # atno 6907 bound_to 6896
  151.3986  135.0966  159.9558 H   0  0  0  0  0  0  0  0  0  0  0  0  # atno 6908 bound_to 6896
  152.5087  133.8951  159.7468 H   0  0  0  0  0  0  0  0  0  0  0  0  # atno 6909 bound_to 6896
  144.7148  140.1795  143.6359 H   0  0  0  0  0  0  0  0  0  0  0  0  # atno 7974 bound_to 7965
  155.3664  140.3421  155.4242 H   0  0  0  0  0  0  0  0  0  0  0  0  # atno 8008 bound_to 7997
  156.1686  140.1624  156.8522 H   0  0  0  0  0  0  0  0  0  0  0  0  # atno 8009 bound_to 7997
  154.5210  140.0767  156.8154 H   0  0  0  0  0  0  0  0  0  0  0  0  # atno 8010 bound_to 7997
  140.6124  143.2391  151.5677 H   0  0  0  0  0  0  0  0  0  0  0  0  # atno 10167 bound_to 10162
  156.9542  130.5908  149.5658 H   0  0  0  0  0  0  0  0  0  0  0  0  # atno 10718 bound_to 10713
  153.0494  135.6514  154.0733 H   0  0  0  0  0  0  0  0  0  0  0  0  # atno 10763 bound_to 10752
  154.0424  135.2902  155.3354 H   0  0  0  0  0  0  0  0  0  0  0  0  # atno 10764 bound_to 10752
  154.6773  135.5333  153.8282 H   0  0  0  0  0  0  0  0  0  0  0  0  # atno 10765 bound_to 10752
  140.2967  134.2803  155.7763 H   0  0  0  0  0  0  0  0  0  0  0  0  # atno 11005 bound_to 11000
  145.8869  139.2354  143.1572 LP  0  0  0  0  0  0  0  0  0  0  0  0  # atno 17320 bound_to 7965
  145.9941  140.8578  143.0052 LP  0  0  0  0  0  0  0  0  0  0  0  0  # atno 17321 bound_to 7965
  139.5372  144.2749  152.1275 LP  0  0  0  0  0  0  0  0  0  0  0  0  # atno 17342 bound_to 10162
  140.1951  144.4714  150.6459 LP  0  0  0  0  0  0  0  0  0  0  0  0  # atno 17343 bound_to 10162
  156.0350  130.5438  150.8630 LP  0  0  0  0  0  0  0  0  0  0  0  0  # atno 17370 bound_to 10713
  157.5701  131.0946  150.9430 LP  0  0  0  0  0  0  0  0  0  0  0  0  # atno 17371 bound_to 10713
  141.2136  133.7619  156.9705 LP  0  0  0  0  0  0  0  0  0  0  0  0  # atno 17394 bound_to 11000
  140.1146  134.9455  157.2116 LP  0  0  0  0  0  0  0  0  0  0  0  0  # atno 17395 bound_to 11000

$$$$
