AV-unprocessed.smi:287|AV-procd|sdf|2188|dock2
  -GOLD-   2262021573D 1   1.00000     0.00000
 Structure written by MMmdl.
 55 58  0  0  0  0  0  0  0  0  1 V2000
  154.4920  141.1250  161.1317 C   0  0  0  0  0  0  0  0  0  0  0  0
  153.5169  141.8644  160.2816 C   0  0  0  0  0  0  0  0  0  0  0  0
  152.9016  141.5914  159.0948 C   0  0  0  0  0  0  0  0  0  0  0  0
  152.0556  142.6994  158.7887 C   0  0  0  0  0  0  0  0  0  0  0  0
  151.1748  142.8487  157.5560 C   0  0  2  0  0  0  0  0  0  0  0  0
  151.3762  144.2442  156.9434 C   0  0  0  0  0  0  0  0  0  0  0  0
  149.7951  142.7630  157.8577 O   0  0  0  0  0  0  0  0  0  0  0  0
  151.4431  141.7586  156.4936 C   0  0  0  0  0  0  0  0  0  0  0  0
  150.8811  140.4623  156.8516 N   0  0  0  0  0  0  0  0  0  0  0  0
  151.1629  139.3593  156.1265 C   0  0  0  0  0  0  0  0  0  0  0  0
  151.7251  139.5858  154.9150 N   0  0  0  0  0  0  0  0  0  0  0  0
  152.0442  138.5612  154.1190 C   0  0  0  0  0  0  0  0  0  0  0  0
  151.8868  137.2544  154.3378 N   0  0  0  0  0  0  0  0  0  0  0  0
  151.3182  137.0189  155.5554 C   0  0  0  0  0  0  0  0  0  0  0  0
  150.9271  138.0041  156.5060 C   0  0  0  0  0  0  0  0  0  0  0  0
  150.3857  137.3710  157.6203 N   0  0  0  0  0  0  0  0  0  0  0  0
  150.4526  136.0981  157.3384 C   0  0  0  0  0  0  0  0  0  0  0  0
  150.9952  135.7989  156.1076 N   0  0  0  0  0  0  0  0  0  0  0  0
  151.2317  134.4623  155.4682 C   0  0  1  0  0  0  0  0  0  0  0  0
  151.0795  133.4735  156.4422 O   0  0  0  0  0  0  0  0  0  0  0  0
  149.7912  132.8809  156.3228 C   0  0  2  0  0  0  0  0  0  0  0  0
  149.7234  131.5249  157.0464 C   0  0  0  0  0  0  0  0  0  0  0  0
  149.9547  131.7034  158.4276 O   0  0  0  0  0  0  0  0  0  0  0  0
  149.6018  132.8310  154.8022 C   0  0  2  0  0  0  0  0  0  0  0  0
  150.2971  131.7317  154.2416 O   0  0  0  0  0  0  0  0  0  0  0  0
  150.2161  134.1479  154.3401 C   0  0  1  0  0  0  0  0  0  0  0  0
  149.1955  135.1201  154.1888 O   0  0  0  0  0  0  0  0  0  0  0  0
  152.2465  143.5817  159.8244 C   0  0  0  0  0  0  0  0  0  0  0  0
  151.7100  144.9385  160.1407 C   0  0  0  0  0  0  0  0  0  0  0  0
  153.1247  143.0804  160.7372 O   0  0  0  0  0  0  0  0  0  0  0  0
  152.2676  134.5029  155.1294 H   0  0  0  0  0  0  0  0  0  0  0  0
  149.0429  133.5607  156.7352 H   0  0  0  0  0  0  0  0  0  0  0  0
  148.5499  132.7376  154.5280 H   0  0  0  0  0  0  0  0  0  0  0  0
  150.7423  134.0482  153.3898 H   0  0  0  0  0  0  0  0  0  0  0  0
  154.6618  140.1199  160.7451 H   0  0  0  0  0  0  0  0  0  0  0  0
  154.1244  141.0356  162.1541 H   0  0  0  0  0  0  0  0  0  0  0  0
  155.4505  141.6434  161.1597 H   0  0  0  0  0  0  0  0  0  0  0  0
  153.0381  140.6926  158.5120 H   0  0  0  0  0  0  0  0  0  0  0  0
  152.4140  144.3970  156.6449 H   0  0  0  0  0  0  0  0  0  0  0  0
  151.1207  145.0304  157.6551 H   0  0  0  0  0  0  0  0  0  0  0  0
  150.7566  144.3864  156.0570 H   0  0  0  0  0  0  0  0  0  0  0  0
  149.3714  143.5470  157.5441 H   0  0  0  0  0  0  0  0  0  0  0  0
  151.0734  142.0739  155.5166 H   0  0  0  0  0  0  0  0  0  0  0  0
  152.5217  141.6281  156.3979 H   0  0  0  0  0  0  0  0  0  0  0  0
  150.2632  140.4589  157.6506 H   0  0  0  0  0  0  0  0  0  0  0  0
  152.4871  138.8272  153.1707 H   0  0  0  0  0  0  0  0  0  0  0  0
  150.1061  135.3444  158.0304 H   0  0  0  0  0  0  0  0  0  0  0  0
  148.7295  131.0898  156.9351 H   0  0  0  0  0  0  0  0  0  0  0  0
  150.4392  130.8140  156.6325 H   0  0  0  0  0  0  0  0  0  0  0  0
  150.3361  132.5578  158.5606 H   0  0  0  0  0  0  0  0  0  0  0  0
  149.6638  131.1213  153.8961 H   0  0  0  0  0  0  0  0  0  0  0  0
  149.1051  135.3147  153.2680 H   0  0  0  0  0  0  0  0  0  0  0  0
  151.7673  145.5903  159.2687 H   0  0  0  0  0  0  0  0  0  0  0  0
  152.2751  145.4082  160.9461 H   0  0  0  0  0  0  0  0  0  0  0  0
  150.6671  144.8778  160.4516 H   0  0  0  0  0  0  0  0  0  0  0  0
  1  2  1  0  0  0  0
  1 35  1  0  0  0  0
  1 36  1  0  0  0  0
  1 37  1  0  0  0  0
  2 30  1  0  0  0  0
  2  3  2  0  0  0  0
  3  4  1  0  0  0  0
  3 38  1  0  0  0  0
  4  5  1  0  0  0  0
  4 28  2  0  0  0  0
  5  6  1  0  0  0  0
  5  7  1  0  0  0  0
  5  8  1  0  0  0  0
  6 39  1  0  0  0  0
  6 40  1  0  0  0  0
  6 41  1  0  0  0  0
  7 42  1  0  0  0  0
  8  9  1  0  0  0  0
  8 43  1  0  0  0  0
  8 44  1  0  0  0  0
  9 10  1  0  0  0  0
  9 45  1  0  0  0  0
 10 15  1  0  0  0  0
 10 11  2  0  0  0  0
 11 12  1  0  0  0  0
 12 13  2  0  0  0  0
 12 46  1  0  0  0  0
 13 14  1  0  0  0  0
 14 18  1  0  0  0  0
 14 15  2  0  0  0  0
 15 16  1  0  0  0  0
 16 17  2  0  0  0  0
 17 18  1  0  0  0  0
 17 47  1  0  0  0  0
 18 19  1  0  0  0  0
 19 31  1  0  0  0  0
 19 26  1  0  0  0  0
 19 20  1  0  0  0  0
 20 21  1  0  0  0  0
 21 32  1  0  0  0  0
 21 22  1  0  0  0  0
 21 24  1  0  0  0  0
 22 23  1  0  0  0  0
 22 48  1  0  0  0  0
 22 49  1  0  0  0  0
 23 50  1  0  0  0  0
 24 33  1  0  0  0  0
 24 25  1  0  0  0  0
 24 26  1  0  0  0  0
 25 51  1  0  0  0  0
 26 34  1  0  0  0  0
 26 27  1  0  0  0  0
 27 52  1  0  0  0  0
 28 29  1  0  0  0  0
 28 30  1  0  0  0  0
 29 53  1  0  0  0  0
 29 54  1  0  0  0  0
 29 55  1  0  0  0  0
M  END
> <s_m_source_file>
AV-unprocessed.smi

> <i_m_source_file_index>
287

> <i_lp_mmshare_version>
43012

> <i_f3d_flags>
0

> <s_epik_input>
W0NIM11jMVtjSF1jKGMobzEpW0NIM10pW0NAQF0oW0NIM10pKFtPSF0pW0NIMl1bTkhdYyhuW2NIXW4yKWMoYzIzKW5bY0hdbjNbQ0BASF00T1tDQEhdKFtDSDJdW09IXSlbQ0BASF0oW09IXSlbQ0BIXTRbT0hd

> <s_epik_cmdline>
J2VwaWtfcHl0aG9uJywgJy1waCcsICc3LjAnLCAnLXRuJywgJzgnLCAnLW1hJywgJzIwMCcsICctbWV0YWxfYmluZGluZycsICctaW1hZScsICc8aW5maWxlLm1hZT4nLCAnLW9tYWUnLCAnPG91dGZpbGUubWFlPic=

> <r_lp_tautomer_probability>
1

> <r_epik_Ionization_Penalty>
0.000992612

> <r_epik_Ionization_Penalty_Charging>
0

> <r_epik_Ionization_Penalty_Neutral>
0.000992612

> <r_epik_State_Penalty>
-0

> <r_epik_Charging_Adjusted_Penalty>
0

> <i_epik_Tot_Q>
0

> <i_epik_Tot_abs_Q>
0

> <r_epik_Metal_State_Penalty>
-0

> <b_epik_Metal_Only>
0

> <s_epik_Chemistry_Notes>
This compound contains an acetal/aminal-like group ( X-CH(R)-Y where X, Y are N, S, or O) that may be acid/base labile, releasing an aldehyde.

> <s_lp_Force_Field>
OPLS_2005

> <r_lp_Energy>
43.0869

> <b_lp_Chiralities_Consistent>
1

> <s_lp_Variant>
AV-unprocessed.smi:287-12

> <Gold.Version>
5.8.1

> <Gold.Id.Protein>
6NUR|6NUR_protein|mol2

> <Gold.PLP.Fitness>
56.3050

> <Gold.PLP.PLP>
-46.0561

> <Gold.PLP.part.hbond>
-4.0000

> <Gold.PLP.part.metal>
0.0000

> <Gold.PLP.part.buried>
-7.6435

> <Gold.PLP.part.nonpolar>
-34.6581

> <Gold.PLP.part.repulsive>
0.2645

> <Gold.PLP.ligand.clash>
0.0000

> <Gold.PLP.ligand.torsion>
0.9630

> <Gold.PLP.Chemscore.Hbond>
3.9337

> <Gold.PLP.Chemscore.CHOScore>
0.0000

> <Gold.PLP.Chemscore.Metal>
0.0000

> <Gold.Chemscore.Hbonds>
donor molecule, donor type, donor heavy atom, donor atom, acceptor molecule, acceptor atom, score
      L1  H     7    42       P1  8028  0.39
      L1  H    27    52       P1  7948  1.00
      P1  H  7989  7998       L1    11  0.70
      P1  H 10752 10765       L1    13  0.75

> <Gold.PLP.Chemscore.Internal.Correction>
0.3738

> <Gold.Rescore>
     Score         DG    S(hbond)    S(metal)    S(lipo)     H(rot)  DE(clash)    DE(int)     intcor
     11.92     -15.66       3.13        0.00     113.00       5.27       3.01       0.74       ----

> <Gold.Chemscore.Fitness>
11.9179

> <Gold.Chemscore.DG>
-15.6626

> <Gold.Chemscore.ZeroCoef>
-5.4800

> <Gold.Chemscore.Hbond>
3.1272

> <Gold.Chemscore.Metal>
0.0000

> <Gold.Chemscore.Lipo>
113.0049

> <Gold.Chemscore.Internal_Hbond>
0.0000

> <Gold.Chemscore.DEClash>
3.0080

> <Gold.Chemscore.DEInternal>
0.7367

> <Gold.Chemscore.Rot>
5.2672

> <Gold.Chemscore.Internal.Correction>
   9.000000E+99

> <Gold.Chemscore.Hbonds>
donor molecule, donor type, donor heavy atom, donor atom, acceptor molecule, acceptor atom, score
      L1  H     7    42       P1  8028  0.19
      L1  H    27    52       P1  7948  0.34
      P1  H  7989  7998       L1    11  0.07
      P1  H 10752 10765       L1    13  0.09

> <Gold.Chemscore.Hbond.Weighted>
-10.4449

> <Gold.Chemscore.Metal.Weighted>
-0.0000

> <Gold.Chemscore.Lipo.Weighted>
-13.2216

> <Gold.Chemscore.Internal_Hbond.Weighted>
0.0000

> <Gold.Chemscore.DEClash.Weighted>
3.0080

> <Gold.Chemscore.DEInternal.Weighted>
0.7367

> <Gold.Chemscore.Rot.Weighted>
13.4839

> <Gold.Chemscore.Internal.Correction.Weighted>
   9.000000E+99

> <Gold.Protein.RotatedTorsions>
[ 6907 6896 6895 6894 ] final  168.55 input  -60.11 | X-H torsion
[ 7974 7965 7964 7962 ] final  -45.36 input  175.53 | X-H torsion
[ 8008 7997 7996 7995 ] final  103.91 input   59.86 | X-H torsion
[ 10167 10162 10161 10158 ] final  -81.66 input  -65.29 | X-H torsion
[ 10718 10713 10712 10709 ] final  161.45 input   66.30 | X-H torsion
[ 10763 10752 10751 10750 ] final  165.96 input  -60.55 | X-H torsion
[ 11005 11000 10999 10996 ] final  -27.27 input  -57.11 | X-H torsion

> <Gold.Protein.ActiveResidues>
 VAL166  LYS551  ARG553  GLY616  TRP617  ASP618  TYR619  PRO620  LYS621  CYS622 
 ASP623  PHE694  ASN695  SER759  ASP760  ASP761  ALA762  ILE779  LEU786  VAL792 
 PHE793  MET794  SER795  GLU796  ALA797  LYS798  CYS799  TRP800  GLU811  SER814 

> <Gold.Protein.RotatedAtoms>
  151.8458  133.3431  159.3657 H   0  0  0  0  0  0  0  0  0  0  0  0  # atno 6907 bound_to 6896
  150.7221  134.5347  159.5727 H   0  0  0  0  0  0  0  0  0  0  0  0  # atno 6908 bound_to 6896
  152.2830  134.7808  160.0444 H   0  0  0  0  0  0  0  0  0  0  0  0  # atno 6909 bound_to 6896
  145.9828  140.7265  142.9355 H   0  0  0  0  0  0  0  0  0  0  0  0  # atno 7974 bound_to 7965
  156.1526  140.3157  155.8673 H   0  0  0  0  0  0  0  0  0  0  0  0  # atno 8008 bound_to 7997
  155.3941  140.0495  157.3056 H   0  0  0  0  0  0  0  0  0  0  0  0  # atno 8009 bound_to 7997
  154.5072  140.2151  155.9239 H   0  0  0  0  0  0  0  0  0  0  0  0  # atno 8010 bound_to 7997
  140.4391  143.2521  151.8651 H   0  0  0  0  0  0  0  0  0  0  0  0  # atno 10167 bound_to 10162
  157.1363  131.0529  151.2348 H   0  0  0  0  0  0  0  0  0  0  0  0  # atno 10718 bound_to 10713
  154.3318  135.2754  155.2468 H   0  0  0  0  0  0  0  0  0  0  0  0  # atno 10763 bound_to 10752
  154.4776  135.5866  153.6370 H   0  0  0  0  0  0  0  0  0  0  0  0  # atno 10764 bound_to 10752
  152.9866  135.6103  154.3511 H   0  0  0  0  0  0  0  0  0  0  0  0  # atno 10765 bound_to 10752
  140.9104  133.7465  156.0663 H   0  0  0  0  0  0  0  0  0  0  0  0  # atno 11005 bound_to 11000
  144.6866  140.2937  143.7274 LP  0  0  0  0  0  0  0  0  0  0  0  0  # atno 17320 bound_to 7965
  145.7745  139.1869  143.2193 LP  0  0  0  0  0  0  0  0  0  0  0  0  # atno 17321 bound_to 7965
  139.4788  144.5249  151.8750 LP  0  0  0  0  0  0  0  0  0  0  0  0  # atno 17342 bound_to 10162
  140.4339  144.2079  150.5888 LP  0  0  0  0  0  0  0  0  0  0  0  0  # atno 17343 bound_to 10162
  157.4347  130.7510  149.7019 LP  0  0  0  0  0  0  0  0  0  0  0  0  # atno 17370 bound_to 10713
  155.9797  130.4037  150.3569 LP  0  0  0  0  0  0  0  0  0  0  0  0  # atno 17371 bound_to 10713
  140.8117  134.3391  157.5409 LP  0  0  0  0  0  0  0  0  0  0  0  0  # atno 17394 bound_to 11000
  139.8756  134.9258  156.3384 LP  0  0  0  0  0  0  0  0  0  0  0  0  # atno 17395 bound_to 11000

$$$$
