AV-unprocessed.smi:2401|AV-procd|sdf|9504|dock5
  -GOLD-   2272013133D 1   1.00000     0.00000
 Structure written by MMmdl.
 34 35  0  0  0  0  0  0  0  0  1 V2000
  152.1903  144.3735  160.1729 C   0  0  0  0  0  0  0  0  0  0  0  0
  151.8827  143.2421  159.2079 C   0  0  0  0  0  0  0  0  0  0  0  0
  150.7679  143.4348  158.3869 N   0  0  0  0  0  0  0  0  0  0  0  0
  150.4272  142.5219  157.5370 C   0  0  0  0  0  0  0  0  0  0  0  0
  151.1522  141.3259  157.4089 N   0  0  0  0  0  0  0  0  0  0  0  0
  150.6523  140.3628  156.4132 C   0  0  0  0  0  0  0  0  0  0  0  0
  150.1037  141.0610  155.1490 C   0  0  1  0  0  0  0  0  0  0  0  0
  150.3311  140.2219  154.0335 O   0  0  0  0  0  0  0  0  0  0  0  0
  148.6260  141.3871  155.3036 C   0  0  0  0  0  0  0  0  0  0  0  0
  147.9524  141.1277  156.5180 C   0  0  0  0  0  0  0  0  0  0  0  0
  146.5854  141.4388  156.6522 C   0  0  0  0  0  0  0  0  0  0  0  0
  145.8842  142.0140  155.5748 C   0  0  0  0  0  0  0  0  0  0  0  0
  144.2094  142.3941  155.7389 Cl  0  0  0  0  0  0  0  0  0  0  0  0
  146.5521  142.2800  154.3638 C   0  0  0  0  0  0  0  0  0  0  0  0
  147.9192  141.9690  154.2293 C   0  0  0  0  0  0  0  0  0  0  0  0
  152.2502  141.0561  158.1729 C   0  0  0  0  0  0  0  0  0  0  0  0
  152.8724  139.9979  158.0600 O   0  0  0  0  0  0  0  0  0  0  0  0
  152.6275  142.1054  159.1334 C   0  0  0  0  0  0  0  0  0  0  0  0
  153.8513  141.8400  160.0013 C   0  0  0  0  0  0  0  0  0  0  0  0
  153.1894  144.7707  159.9918 H   0  0  0  0  0  0  0  0  0  0  0  0
  152.1357  144.0211  161.2034 H   0  0  0  0  0  0  0  0  0  0  0  0
  151.4799  145.1939  160.0629 H   0  0  0  0  0  0  0  0  0  0  0  0
  149.5631  142.6208  156.8776 H   0  0  0  0  0  0  0  0  0  0  0  0
  151.3998  139.6130  156.1442 H   0  0  0  0  0  0  0  0  0  0  0  0
  149.8513  139.7860  156.8801 H   0  0  0  0  0  0  0  0  0  0  0  0
  150.6393  141.9946  154.9708 H   0  0  0  0  0  0  0  0  0  0  0  0
  149.6858  140.4221  153.3726 H   0  0  0  0  0  0  0  0  0  0  0  0
  148.4826  140.6905  157.3515 H   0  0  0  0  0  0  0  0  0  0  0  0
  146.0764  141.2360  157.5830 H   0  0  0  0  0  0  0  0  0  0  0  0
  146.0176  142.7238  153.5367 H   0  0  0  0  0  0  0  0  0  0  0  0
  148.4231  142.1803  153.2973 H   0  0  0  0  0  0  0  0  0  0  0  0
  153.6991  140.9413  160.6000 H   0  0  0  0  0  0  0  0  0  0  0  0
  154.0781  142.6554  160.6860 H   0  0  0  0  0  0  0  0  0  0  0  0
  154.7298  141.6849  159.3742 H   0  0  0  0  0  0  0  0  0  0  0  0
  1  2  1  0  0  0  0
  1 20  1  0  0  0  0
  1 21  1  0  0  0  0
  1 22  1  0  0  0  0
  2 18  2  0  0  0  0
  2  3  1  0  0  0  0
  3  4  2  0  0  0  0
  4  5  1  0  0  0  0
  4 23  1  0  0  0  0
  5  6  1  0  0  0  0
  5 16  1  0  0  0  0
  6  7  1  0  0  0  0
  6 24  1  0  0  0  0
  6 25  1  0  0  0  0
  7  8  1  0  0  0  0
  7  9  1  0  0  0  0
  7 26  1  0  0  0  0
  8 27  1  0  0  0  0
  9 15  1  0  0  0  0
  9 10  2  0  0  0  0
 10 11  1  0  0  0  0
 10 28  1  0  0  0  0
 11 12  2  0  0  0  0
 11 29  1  0  0  0  0
 12 13  1  0  0  0  0
 12 14  1  0  0  0  0
 14 15  2  0  0  0  0
 14 30  1  0  0  0  0
 15 31  1  0  0  0  0
 16 17  2  0  0  0  0
 16 18  1  0  0  0  0
 18 19  1  0  0  0  0
 19 32  1  0  0  0  0
 19 33  1  0  0  0  0
 19 34  1  0  0  0  0
M  END
> <s_m_source_file>
AV-unprocessed.smi

> <i_m_source_file_index>
2401

> <i_lp_mmshare_version>
43012

> <i_f3d_flags>
0

> <s_epik_input>
W0NIM11jMW5bY0hdbihjKD1PKWMxW0NIM10pW0NIMl1bQ0BIXShbT0hdKWMyW2NIXVtjSF1jKENsKVtjSF1bY0hdMg==

> <s_epik_cmdline>
J2VwaWtfcHl0aG9uJywgJy1waCcsICc3LjAnLCAnLXRuJywgJzgnLCAnLW1hJywgJzIwMCcsICctbWV0YWxfYmluZGluZycsICctaW1hZScsICc8aW5maWxlLm1hZT4nLCAnLW9tYWUnLCAnPG91dGZpbGUubWFlPic=

> <r_lp_tautomer_probability>
1

> <r_epik_Ionization_Penalty>
5.07713e-05

> <r_epik_Ionization_Penalty_Charging>
7.56727e-08

> <r_epik_Ionization_Penalty_Neutral>
5.06957e-05

> <r_epik_State_Penalty>
-0

> <r_epik_Charging_Adjusted_Penalty>
7.56727e-08

> <i_epik_Tot_Q>
0

> <i_epik_Tot_abs_Q>
0

> <r_epik_Metal_State_Penalty>
-0

> <b_epik_Metal_Only>
0

> <s_lp_Force_Field>
OPLS_2005

> <r_lp_Energy>
18.5783

> <b_lp_Chiralities_Consistent>
1

> <s_lp_Variant>
AV-unprocessed.smi:2401-2

> <Gold.Version>
5.8.1

> <Gold.Id.Protein>
6NUR|6NUR_protein|mol2

> <Gold.PLP.Fitness>
46.7465

> <Gold.PLP.PLP>
-38.6438

> <Gold.PLP.part.hbond>
-2.7387

> <Gold.PLP.part.metal>
0.0000

> <Gold.PLP.part.buried>
-2.9519

> <Gold.PLP.part.nonpolar>
-32.9340

> <Gold.PLP.part.repulsive>
0.1321

> <Gold.PLP.ligand.clash>
0.0000

> <Gold.PLP.ligand.torsion>
0.7458

> <Gold.PLP.Chemscore.Hbond>
2.2798

> <Gold.PLP.Chemscore.CHOScore>
0.9157

> <Gold.PLP.Chemscore.Metal>
0.0000

> <Gold.Chemscore.Hbonds>
donor molecule, donor type, donor heavy atom, donor atom, acceptor molecule, acceptor atom, score
      L1  H     8    27       P1  7957  0.30
      P1  H  7989  7998       L1     8  0.96
      P1  H  7997  8009       L1    17  1.00
      L1  C     4    23       P1  8028  0.91

> <Gold.PLP.Chemscore.Internal.Correction>
0.0077

> <Gold.Rescore>
     Score         DG    S(hbond)    S(metal)    S(lipo)     H(rot)  DE(clash)    DE(int)     intcor
     14.90     -15.79       1.63        0.00      83.65       1.93       0.10       0.80       ----

> <Gold.Chemscore.Fitness>
14.8967

> <Gold.Chemscore.DG>
-15.7922

> <Gold.Chemscore.ZeroCoef>
-5.4800

> <Gold.Chemscore.Hbond>
1.6339

> <Gold.Chemscore.Metal>
0.0000

> <Gold.Chemscore.Lipo>
83.6479

> <Gold.Chemscore.Internal_Hbond>
0.0000

> <Gold.Chemscore.DEClash>
0.1002

> <Gold.Chemscore.DEInternal>
0.7953

> <Gold.Chemscore.Rot>
1.9265

> <Gold.Chemscore.Internal.Correction>
   9.000000E+99

> <Gold.Chemscore.Hbonds>
donor molecule, donor type, donor heavy atom, donor atom, acceptor molecule, acceptor atom, score
      L1  H     8    27       P1  7957  0.31
      P1  H  7989  7998       L1     8  0.09
      P1  H  7997  8009       L1    17  0.88

> <Gold.Chemscore.Hbond.Weighted>
-5.4571

> <Gold.Chemscore.Metal.Weighted>
-0.0000

> <Gold.Chemscore.Lipo.Weighted>
-9.7868

> <Gold.Chemscore.Internal_Hbond.Weighted>
0.0000

> <Gold.Chemscore.DEClash.Weighted>
0.1002

> <Gold.Chemscore.DEInternal.Weighted>
0.7953

> <Gold.Chemscore.Rot.Weighted>
4.9317

> <Gold.Chemscore.Internal.Correction.Weighted>
   9.000000E+99

> <Gold.Protein.RotatedTorsions>
[ 6907 6896 6895 6894 ] final   -9.60 input  -60.11 | X-H torsion
[ 7974 7965 7964 7962 ] final   32.70 input  175.53 | X-H torsion
[ 8008 7997 7996 7995 ] final  159.04 input   59.86 | X-H torsion
[ 10167 10162 10161 10158 ] final  -10.43 input  -65.29 | X-H torsion
[ 10718 10713 10712 10709 ] final   80.34 input   66.30 | X-H torsion
[ 10763 10752 10751 10750 ] final -171.21 input  -60.55 | X-H torsion
[ 11005 11000 10999 10996 ] final   18.57 input  -57.11 | X-H torsion

> <Gold.Protein.ActiveResidues>
 VAL166  LYS551  ARG553  GLY616  TRP617  ASP618  TYR619  PRO620  LYS621  CYS622 
 ASP623  PHE694  ASN695  SER759  ASP760  ASP761  ALA762  ILE779  LEU786  VAL792 
 PHE793  MET794  SER795  GLU796  ALA797  LYS798  CYS799  TRP800  GLU811  SER814 

> <Gold.Protein.RotatedAtoms>
  151.4152  135.0990  159.9596 H   0  0  0  0  0  0  0  0  0  0  0  0  # atno 6907 bound_to 6896
  152.5007  133.8759  159.7332 H   0  0  0  0  0  0  0  0  0  0  0  0  # atno 6908 bound_to 6896
  150.9263  133.6763  159.2849 H   0  0  0  0  0  0  0  0  0  0  0  0  # atno 6909 bound_to 6896
  146.1469  139.6491  142.9125 H   0  0  0  0  0  0  0  0  0  0  0  0  # atno 7974 bound_to 7965
  156.2264  140.1842  156.7351 H   0  0  0  0  0  0  0  0  0  0  0  0  # atno 8008 bound_to 7997
  154.5949  140.0645  156.9317 H   0  0  0  0  0  0  0  0  0  0  0  0  # atno 8009 bound_to 7997
  155.2273  140.3312  155.4310 H   0  0  0  0  0  0  0  0  0  0  0  0  # atno 8010 bound_to 7997
  140.7114  143.5748  150.9054 H   0  0  0  0  0  0  0  0  0  0  0  0  # atno 10167 bound_to 10162
  157.6803  130.9955  150.2065 H   0  0  0  0  0  0  0  0  0  0  0  0  # atno 10718 bound_to 10713
  154.6331  135.2889  155.0193 H   0  0  0  0  0  0  0  0  0  0  0  0  # atno 10763 bound_to 10752
  154.1347  135.6528  153.4933 H   0  0  0  0  0  0  0  0  0  0  0  0  # atno 10764 bound_to 10752
  153.0289  135.5318  154.7166 H   0  0  0  0  0  0  0  0  0  0  0  0  # atno 10765 bound_to 10752
  140.4234  134.1495  155.7674 H   0  0  0  0  0  0  0  0  0  0  0  0  # atno 11005 bound_to 11000
  145.4916  141.0438  143.2590 LP  0  0  0  0  0  0  0  0  0  0  0  0  # atno 17320 bound_to 7965
  144.7857  139.6432  143.7135 LP  0  0  0  0  0  0  0  0  0  0  0  0  # atno 17321 bound_to 7965
  139.9474  143.6311  152.3038 LP  0  0  0  0  0  0  0  0  0  0  0  0  # atno 17342 bound_to 10162
  139.6818  144.7655  151.1596 LP  0  0  0  0  0  0  0  0  0  0  0  0  # atno 17343 bound_to 10162
  156.2745  130.3726  149.7998 LP  0  0  0  0  0  0  0  0  0  0  0  0  # atno 17370 bound_to 10713
  156.5705  130.8422  151.3355 LP  0  0  0  0  0  0  0  0  0  0  0  0  # atno 17371 bound_to 10713
  141.1775  133.8484  157.1372 LP  0  0  0  0  0  0  0  0  0  0  0  0  # atno 17394 bound_to 11000
  140.0184  134.9957  157.0542 LP  0  0  0  0  0  0  0  0  0  0  0  0  # atno 17395 bound_to 11000

$$$$
