AV-unprocessed.smi:101|AV-procd|sdf|920|dock9
  -GOLD-   2262017423D 1   1.00000     0.00000
 Structure written by MMmdl.
 44 46  0  0  0  0  0  0  0  0  1 V2000
  147.0744  135.8088  154.8452 C   0  0  0  0  0  0  0  0  0  0  0  0
  146.9301  137.3200  154.7660 C   0  0  0  0  0  0  0  0  0  0  0  0
  147.7600  138.1652  155.4297 C   0  0  0  0  0  0  0  0  0  0  0  0
  147.6514  139.5504  155.3802 N   0  0  0  0  0  0  0  0  0  0  0  0
  148.5828  140.4744  156.1466 C   0  0  1  0  0  0  0  0  0  0  0  0
  149.4590  139.7168  156.9276 O   0  0  0  0  0  0  0  0  0  0  0  0
  150.7537  139.7189  156.3369 C   0  0  2  0  0  0  0  0  0  0  0  0
  151.8262  139.3126  157.3555 C   0  0  0  0  0  0  0  0  0  0  0  0
  151.8131  140.2663  158.4043 O   0  0  0  0  0  0  0  0  0  0  0  0
  152.9172  140.4889  159.1399 C   0  0  0  0  0  0  0  0  0  0  0  0
  153.9565  139.8358  159.0284 O   0  0  0  0  0  0  0  0  0  0  0  0
  152.7475  141.6153  160.1032 C   0  0  0  0  0  0  0  0  0  0  0  0
  153.3504  141.5341  161.3802 C   0  0  0  0  0  0  0  0  0  0  0  0
  153.2075  142.5840  162.3084 C   0  0  0  0  0  0  0  0  0  0  0  0
  152.4590  143.7269  161.9716 C   0  0  0  0  0  0  0  0  0  0  0  0
  151.8541  143.8197  160.7047 C   0  0  0  0  0  0  0  0  0  0  0  0
  151.9968  142.7718  159.7747 C   0  0  0  0  0  0  0  0  0  0  0  0
  150.8612  141.1325  155.7626 C   0  0  2  0  0  0  0  0  0  0  0  0
  151.1878  142.0648  156.7771 O   0  0  0  0  0  0  0  0  0  0  0  0
  149.4529  141.3764  155.2308 C   0  0  1  0  0  0  0  0  0  0  0  0
  149.4024  141.0221  153.8591 O   0  0  0  0  0  0  0  0  0  0  0  0
  146.6220  140.1318  154.6116 C   0  0  0  0  0  0  0  0  0  0  0  0
  146.4655  141.3492  154.5245 O   0  0  0  0  0  0  0  0  0  0  0  0
  145.7717  139.2652  153.9280 N   0  0  0  0  0  0  0  0  0  0  0  0
  145.8494  137.8707  153.9434 C   0  0  0  0  0  0  0  0  0  0  0  0
  145.0402  137.2103  153.2942 O   0  0  0  0  0  0  0  0  0  0  0  0
  145.0359  139.6800  153.3749 H   0  0  0  0  0  0  0  0  0  0  0  0
  147.8940  135.5124  155.5008 H   0  0  0  0  0  0  0  0  0  0  0  0
  147.2698  135.3929  153.8563 H   0  0  0  0  0  0  0  0  0  0  0  0
  146.1596  135.3585  155.2318 H   0  0  0  0  0  0  0  0  0  0  0  0
  148.5382  137.7166  156.0276 H   0  0  0  0  0  0  0  0  0  0  0  0
  147.9417  141.0383  156.8268 H   0  0  0  0  0  0  0  0  0  0  0  0
  150.7663  139.0164  155.5016 H   0  0  0  0  0  0  0  0  0  0  0  0
  151.6021  138.3281  157.7679 H   0  0  0  0  0  0  0  0  0  0  0  0
  152.8088  139.2628  156.8838 H   0  0  0  0  0  0  0  0  0  0  0  0
  153.9303  140.6666  161.6610 H   0  0  0  0  0  0  0  0  0  0  0  0
  153.6732  142.5115  163.2801 H   0  0  0  0  0  0  0  0  0  0  0  0
  152.3488  144.5312  162.6841 H   0  0  0  0  0  0  0  0  0  0  0  0
  151.2788  144.6961  160.4449 H   0  0  0  0  0  0  0  0  0  0  0  0
  151.5191  142.8764  158.8115 H   0  0  0  0  0  0  0  0  0  0  0  0
  151.6238  141.2001  154.9853 H   0  0  0  0  0  0  0  0  0  0  0  0
  151.3371  141.5935  157.5826 H   0  0  0  0  0  0  0  0  0  0  0  0
  149.1423  142.4173  155.3309 H   0  0  0  0  0  0  0  0  0  0  0  0
  148.9146  140.2165  153.7781 H   0  0  0  0  0  0  0  0  0  0  0  0
  1  2  1  0  0  0  0
  1 28  1  0  0  0  0
  1 29  1  0  0  0  0
  1 30  1  0  0  0  0
  2 25  1  0  0  0  0
  2  3  2  0  0  0  0
  3  4  1  0  0  0  0
  3 31  1  0  0  0  0
  4  5  1  0  0  0  0
  4 22  1  0  0  0  0
  5 20  1  0  0  0  0
  5  6  1  0  0  0  0
  5 32  1  0  0  0  0
  6  7  1  0  0  0  0
  7  8  1  0  0  0  0
  7 18  1  0  0  0  0
  7 33  1  0  0  0  0
  8  9  1  0  0  0  0
  8 34  1  0  0  0  0
  8 35  1  0  0  0  0
  9 10  1  0  0  0  0
 10 11  2  0  0  0  0
 10 12  1  0  0  0  0
 12 17  1  0  0  0  0
 12 13  2  0  0  0  0
 13 14  1  0  0  0  0
 13 36  1  0  0  0  0
 14 15  2  0  0  0  0
 14 37  1  0  0  0  0
 15 16  1  0  0  0  0
 15 38  1  0  0  0  0
 16 17  2  0  0  0  0
 16 39  1  0  0  0  0
 17 40  1  0  0  0  0
 18 19  1  0  0  0  0
 18 20  1  0  0  0  0
 18 41  1  0  0  0  0
 19 42  1  0  0  0  0
 20 21  1  0  0  0  0
 20 43  1  0  0  0  0
 21 44  1  0  0  0  0
 22 23  2  0  0  0  0
 22 24  1  0  0  0  0
 24 27  1  0  0  0  0
 24 25  1  0  0  0  0
 25 26  2  0  0  0  0
M  END
> <s_m_source_file>
AV-unprocessed.smi

> <i_m_source_file_index>
101

> <i_lp_mmshare_version>
43012

> <i_f3d_flags>
0

> <s_epik_input>
Tz1jMVtuSF1jKD1PKW4oW2NIXWMxW0NIM10pW0NAQEhdMk9bQ0BIXShbQ0BASF0oW09IXSlbQ0BIXTJbT0hdKVtDSDJdT0MoPU8pYzNbY0hdW2NIXVtjSF1bY0hdW2NIXTM=

> <s_epik_cmdline>
J2VwaWtfcHl0aG9uJywgJy1waCcsICc3LjAnLCAnLXRuJywgJzgnLCAnLW1hJywgJzIwMCcsICctbWV0YWxfYmluZGluZycsICctaW1hZScsICc8aW5maWxlLm1hZT4nLCAnLW9tYWUnLCAnPG91dGZpbGUubWFlPic=

> <r_lp_tautomer_probability>
0.999537

> <r_epik_Ionization_Penalty>
0.00263537

> <r_epik_Ionization_Penalty_Charging>
0.00263428

> <r_epik_Ionization_Penalty_Neutral>
1.09111e-06

> <r_epik_State_Penalty>
0.00183335

> <r_epik_Charging_Adjusted_Penalty>
0.00446763

> <i_epik_Tot_Q>
0

> <i_epik_Tot_abs_Q>
0

> <r_epik_Metal_State_Penalty>
1.00528

> <b_epik_Metal_Only>
0

> <s_epik_Chemistry_Notes>
This compound has an ester and may undergo hydrolysis at high or low pH. This compound contains an acetal/aminal-like group ( X-CH(R)-Y where X, Y are N, S, or O) that may be acid/base labile, releasing an aldehyde.

> <s_lp_Force_Field>
OPLS_2005

> <r_lp_Energy>
36.6069

> <b_lp_Chiralities_Consistent>
1

> <s_lp_Variant>
AV-unprocessed.smi:101-8

> <Gold.Version>
5.8.1

> <Gold.Id.Protein>
6NUR|6NUR_protein|mol2

> <Gold.PLP.Fitness>
49.0172

> <Gold.PLP.PLP>
-40.9090

> <Gold.PLP.part.hbond>
-5.0000

> <Gold.PLP.part.metal>
0.0000

> <Gold.PLP.part.buried>
-4.3167

> <Gold.PLP.part.nonpolar>
-30.3972

> <Gold.PLP.part.repulsive>
0.3208

> <Gold.PLP.ligand.clash>
0.0000

> <Gold.PLP.ligand.torsion>
0.7570

> <Gold.PLP.Chemscore.Hbond>
3.1860

> <Gold.PLP.Chemscore.CHOScore>
0.0000

> <Gold.PLP.Chemscore.Metal>
0.0000

> <Gold.Chemscore.Hbonds>
donor molecule, donor type, donor heavy atom, donor atom, acceptor molecule, acceptor atom, score
      L1  H    24    27       P1 10175  1.00
      P1  H  7989  7998       L1    21  0.17
      P1  H  7997  8010       L1    11  0.98
      P1  H  8011  8017       L1    21  0.75

> <Gold.PLP.Chemscore.Internal.Correction>
0.0643

> <Gold.Rescore>
     Score         DG    S(hbond)    S(metal)    S(lipo)     H(rot)  DE(clash)    DE(int)     intcor
     15.01     -17.54       2.82        0.00      94.98       3.32       0.16       2.37       ----

> <Gold.Chemscore.Fitness>
15.0095

> <Gold.Chemscore.DG>
-17.5356

> <Gold.Chemscore.ZeroCoef>
-5.4800

> <Gold.Chemscore.Hbond>
2.8249

> <Gold.Chemscore.Metal>
0.0000

> <Gold.Chemscore.Lipo>
94.9773

> <Gold.Chemscore.Internal_Hbond>
0.0000

> <Gold.Chemscore.DEClash>
0.1597

> <Gold.Chemscore.DEInternal>
2.3665

> <Gold.Chemscore.Rot>
3.3172

> <Gold.Chemscore.Internal.Correction>
   9.000000E+99

> <Gold.Chemscore.Hbonds>
donor molecule, donor type, donor heavy atom, donor atom, acceptor molecule, acceptor atom, score
      L1  H    24    27       P1 10175  1.00
      P1  H  7989  7998       L1    21  0.04
      P1  H  7997  8010       L1    11  0.84
      P1  H  8011  8017       L1    21  0.72

> <Gold.Chemscore.Hbond.Weighted>
-9.4353

> <Gold.Chemscore.Metal.Weighted>
-0.0000

> <Gold.Chemscore.Lipo.Weighted>
-11.1123

> <Gold.Chemscore.Internal_Hbond.Weighted>
0.0000

> <Gold.Chemscore.DEClash.Weighted>
0.1597

> <Gold.Chemscore.DEInternal.Weighted>
2.3665

> <Gold.Chemscore.Rot.Weighted>
8.4920

> <Gold.Chemscore.Internal.Correction.Weighted>
   9.000000E+99

> <Gold.Protein.RotatedTorsions>
[ 6907 6896 6895 6894 ] final   53.16 input  -60.11 | X-H torsion
[ 7974 7965 7964 7962 ] final  -70.37 input  175.53 | X-H torsion
[ 8008 7997 7996 7995 ] final    1.21 input   59.86 | X-H torsion
[ 10167 10162 10161 10158 ] final -125.64 input  -65.29 | X-H torsion
[ 10718 10713 10712 10709 ] final  170.12 input   66.30 | X-H torsion
[ 10763 10752 10751 10750 ] final   66.75 input  -60.55 | X-H torsion
[ 11005 11000 10999 10996 ] final   17.78 input  -57.11 | X-H torsion

> <Gold.Protein.ActiveResidues>
 VAL166  LYS551  ARG553  GLY616  TRP617  ASP618  TYR619  PRO620  LYS621  CYS622 
 ASP623  PHE694  ASN695  SER759  ASP760  ASP761  ALA762  ILE779  LEU786  VAL792 
 PHE793  MET794  SER795  GLU796  ALA797  LYS798  CYS799  TRP800  GLU811  SER814 

> <Gold.Protein.RotatedAtoms>
  152.3308  134.7261  160.0289 H   0  0  0  0  0  0  0  0  0  0  0  0  # atno 6907 bound_to 6896
  151.7678  133.3333  159.3444 H   0  0  0  0  0  0  0  0  0  0  0  0  # atno 6908 bound_to 6896
  150.7422  134.5978  159.6065 H   0  0  0  0  0  0  0  0  0  0  0  0  # atno 6909 bound_to 6896
  145.6918  140.9150  143.0778 H   0  0  0  0  0  0  0  0  0  0  0  0  # atno 7974 bound_to 7965
  154.6771  140.2624  155.6946 H   0  0  0  0  0  0  0  0  0  0  0  0  # atno 8008 bound_to 7997
  156.2682  140.2817  156.1224 H   0  0  0  0  0  0  0  0  0  0  0  0  # atno 8009 bound_to 7997
  155.1085  140.0375  157.2707 H   0  0  0  0  0  0  0  0  0  0  0  0  # atno 8010 bound_to 7997
  139.9800  143.5753  152.2382 H   0  0  0  0  0  0  0  0  0  0  0  0  # atno 10167 bound_to 10162
  157.0128  131.0209  151.2798 H   0  0  0  0  0  0  0  0  0  0  0  0  # atno 10718 bound_to 10713
  153.0154  135.5309  154.6873 H   0  0  0  0  0  0  0  0  0  0  0  0  # atno 10763 bound_to 10752
  154.6017  135.2869  155.0530 H   0  0  0  0  0  0  0  0  0  0  0  0  # atno 10764 bound_to 10752
  154.1585  135.6551  153.5032 H   0  0  0  0  0  0  0  0  0  0  0  0  # atno 10765 bound_to 10752
  140.4321  134.1409  155.7681 H   0  0  0  0  0  0  0  0  0  0  0  0  # atno 11005 bound_to 11000
  144.6994  139.8831  143.7448 LP  0  0  0  0  0  0  0  0  0  0  0  0  # atno 17320 bound_to 7965
  146.0875  139.3864  143.0426 LP  0  0  0  0  0  0  0  0  0  0  0  0  # atno 17321 bound_to 7965
  139.6417  144.7655  151.2325 LP  0  0  0  0  0  0  0  0  0  0  0  0  # atno 17342 bound_to 10162
  140.7492  143.6306  150.8427 LP  0  0  0  0  0  0  0  0  0  0  0  0  # atno 17343 bound_to 10162
  157.5308  130.8057  149.7914 LP  0  0  0  0  0  0  0  0  0  0  0  0  # atno 17370 bound_to 10713
  156.0130  130.3825  150.2202 LP  0  0  0  0  0  0  0  0  0  0  0  0  # atno 17371 bound_to 10713
  141.1741  133.8550  157.1478 LP  0  0  0  0  0  0  0  0  0  0  0  0  # atno 17394 bound_to 11000
  140.0127  134.9981  157.0429 LP  0  0  0  0  0  0  0  0  0  0  0  0  # atno 17395 bound_to 11000

$$$$
