AV-unprocessed.smi:658|AV-procd|sdf|3234|dock3
  -GOLD-   22720 0183D 1   1.00000     0.00000
 Structure written by MMmdl.
 37 37  0  0  0  0  0  0  0  0  3 V2000
  146.4405  138.5433  151.4514 C   0  0  0  0  0  0  0  0  0  0  0  0
  146.2315  138.2950  152.9543 C   0  0  2  0  0  0  0  0  0  0  0  0
  147.5066  137.8534  153.5650 N   0  3  0  0  0  0  0  0  0  0  0  0
  148.5004  138.9228  153.7794 C   0  0  0  0  0  0  0  0  0  0  0  0
  149.6978  138.3974  154.5776 C   0  0  0  0  0  0  0  0  0  0  0  0
  151.0248  139.0143  154.1197 C   0  0  0  0  0  0  0  0  0  0  0  0
  152.3119  138.8394  155.4244 S   0  0  0  0  0  0  0  0  0  0  0  0
  153.5796  139.5180  154.6942 N   0  5  0  0  0  0  0  0  0  0  0  0
  151.8290  139.6263  156.5694 O   0  0  0  0  0  0  0  0  0  0  0  0
  152.4875  137.3933  155.6252 O   0  0  0  0  0  0  0  0  0  0  0  0
  145.0860  137.2897  153.2430 C   0  0  2  0  0  0  0  0  0  0  0  0
  145.0337  136.8491  154.7182 C   0  0  0  0  0  0  0  0  0  0  0  0
  145.0820  136.1456  152.3355 N   0  0  0  0  0  0  0  0  0  0  0  0
  146.1086  135.2593  152.0785 C   0  0  0  0  0  0  0  0  0  0  0  0
  145.6458  134.3457  151.1754 C   0  0  0  0  0  0  0  0  0  0  0  0
  144.3050  134.7550  150.9370 C   0  0  0  0  0  0  0  0  0  0  0  0
  143.9690  135.8272  151.6352 N   0  0  0  0  0  0  0  0  0  0  0  0
  145.5167  138.8755  150.9771 H   0  0  0  0  0  0  0  0  0  0  0  0
  146.7753  137.6436  150.9339 H   0  0  0  0  0  0  0  0  0  0  0  0
  147.1909  139.3167  151.2846 H   0  0  0  0  0  0  0  0  0  0  0  0
  145.9418  139.2492  153.3983 H   0  0  0  0  0  0  0  0  0  0  0  0
  147.2947  137.4353  154.4603 H   0  0  0  0  0  0  0  0  0  0  0  0
  148.8312  139.3054  152.8130 H   0  0  0  0  0  0  0  0  0  0  0  0
  148.0297  139.7485  154.3147 H   0  0  0  0  0  0  0  0  0  0  0  0
  149.5489  138.6068  155.6378 H   0  0  0  0  0  0  0  0  0  0  0  0
  149.7509  137.3125  154.4809 H   0  0  0  0  0  0  0  0  0  0  0  0
  151.3919  138.5254  153.2169 H   0  0  0  0  0  0  0  0  0  0  0  0
  150.9068  140.0759  153.9013 H   0  0  0  0  0  0  0  0  0  0  0  0
  153.8134  138.9527  153.8695 H   0  0  0  0  0  0  0  0  0  0  0  0
  144.1519  137.8229  153.0587 H   0  0  0  0  0  0  0  0  0  0  0  0
  144.9436  137.7104  155.3805 H   0  0  0  0  0  0  0  0  0  0  0  0
  145.9280  136.2995  155.0136 H   0  0  0  0  0  0  0  0  0  0  0  0
  144.1746  136.2032  154.9021 H   0  0  0  0  0  0  0  0  0  0  0  0
  147.0744  135.3512  152.5534 H   0  0  0  0  0  0  0  0  0  0  0  0
  146.1837  133.5116  150.7494 H   0  0  0  0  0  0  0  0  0  0  0  0
  143.5702  134.3073  150.2840 H   0  0  0  0  0  0  0  0  0  0  0  0
  147.9174  137.1442  152.9750 H   0  0  0  0  0  0  0  0  0  0  0  0
  1  2  1  0  0  0  0
  1 18  1  0  0  0  0
  1 19  1  0  0  0  0
  1 20  1  0  0  0  0
  2  3  1  0  0  0  0
  2 11  1  0  0  0  0
  2 21  1  0  0  0  0
  3  4  1  0  0  0  0
  3 22  1  0  0  0  0
  3 37  1  0  0  0  0
  4  5  1  0  0  0  0
  4 23  1  0  0  0  0
  4 24  1  0  0  0  0
  5  6  1  0  0  0  0
  5 25  1  0  0  0  0
  5 26  1  0  0  0  0
  6  7  1  0  0  0  0
  6 27  1  0  0  0  0
  6 28  1  0  0  0  0
  7  8  1  0  0  0  0
  7  9  2  0  0  0  0
  7 10  2  0  0  0  0
  8 29  1  0  0  0  0
 11 12  1  0  0  0  0
 11 13  1  0  0  0  0
 11 30  1  0  0  0  0
 12 31  1  0  0  0  0
 12 32  1  0  0  0  0
 12 33  1  0  0  0  0
 13 17  1  0  0  0  0
 13 14  1  0  0  0  0
 14 15  2  0  0  0  0
 14 34  1  0  0  0  0
 15 16  1  0  0  0  0
 15 35  1  0  0  0  0
 16 17  2  0  0  0  0
 16 36  1  0  0  0  0
M  CHG  1   3   1
M  CHG  1   8  -1
M  END
> <s_m_source_file>
AV-unprocessed.smi

> <i_m_source_file_index>
658

> <i_lp_mmshare_version>
43012

> <i_f3d_flags>
0

> <s_epik_input>
bjFbY0hdW2NIXVtjSF1uMVtDQEBIXShbQ0gzXSlbQ0BIXShbQ0gzXSlbTkhdW0NIMl1bQ0gyXVtDSDJdUyg9TykoPU8pW05IMl0=

> <s_epik_cmdline>
J2VwaWtfcHl0aG9uJywgJy1waCcsICc3LjAnLCAnLXRuJywgJzgnLCAnLW1hJywgJzIwMCcsICctbWV0YWxfYmluZGluZycsICctaW1hZScsICc8aW5maWxlLm1hZT4nLCAnLW9tYWUnLCAnPG91dGZpbGUubWFlPic=

> <r_lp_tautomer_probability>
1

> <r_epik_Ionization_Penalty>
4.63642

> <r_epik_Ionization_Penalty_Charging>
4.63641

> <r_epik_Ionization_Penalty_Neutral>
1.08396e-05

> <r_epik_State_Penalty>
4.63466

> <r_epik_Charging_Adjusted_Penalty>
9.27106

> <i_epik_Tot_Q>
0

> <i_epik_Tot_abs_Q>
2

> <r_epik_Metal_State_Penalty>
0.890424

> <b_epik_Metal_Only>
1

> <s_lp_Force_Field>
OPLS_2005

> <r_lp_Energy>
0.307927

> <b_lp_Chiralities_Consistent>
1

> <s_lp_Variant>
AV-unprocessed.smi:658-5

> <Gold.Version>
5.8.1

> <Gold.Id.Protein>
6NUR|6NUR_protein|mol2

> <Gold.PLP.Fitness>
44.6075

> <Gold.PLP.PLP>
-25.2635

> <Gold.PLP.part.hbond>
-3.0000

> <Gold.PLP.part.metal>
0.0000

> <Gold.PLP.part.buried>
-2.4967

> <Gold.PLP.part.nonpolar>
-22.2699

> <Gold.PLP.part.repulsive>
0.8718

> <Gold.PLP.ligand.clash>
0.0000

> <Gold.PLP.ligand.torsion>
0.9920

> <Gold.PLP.Chemscore.Hbond>
4.9760

> <Gold.PLP.Chemscore.CHOScore>
1.9987

> <Gold.PLP.Chemscore.Metal>
0.0000

> <Gold.Chemscore.Hbonds>
donor molecule, donor type, donor heavy atom, donor atom, acceptor molecule, acceptor atom, score
      L1  H     3    37       P1  7948  2.00
      P1  H  7997  8009       L1     8  1.92
      P1  H 10752 10765       L1    10  0.61
      L1  C    14    34       P1  7948  1.00
      L1  C    16    36       P1 10186  0.67

> <Gold.PLP.Chemscore.Internal.Correction>
0.4037

> <Gold.Rescore>
     Score         DG    S(hbond)    S(metal)    S(lipo)     H(rot)  DE(clash)    DE(int)     intcor
     12.38     -13.46       2.84        0.00      53.57       3.04       0.16       0.92       ----

> <Gold.Chemscore.Fitness>
12.3815

> <Gold.Chemscore.DG>
-13.4633

> <Gold.Chemscore.ZeroCoef>
-5.4800

> <Gold.Chemscore.Hbond>
2.8446

> <Gold.Chemscore.Metal>
0.0000

> <Gold.Chemscore.Lipo>
53.5662

> <Gold.Chemscore.Internal_Hbond>
0.0000

> <Gold.Chemscore.DEClash>
0.1587

> <Gold.Chemscore.DEInternal>
0.9231

> <Gold.Chemscore.Rot>
3.0409

> <Gold.Chemscore.Internal.Correction>
   9.000000E+99

> <Gold.Chemscore.Hbonds>
donor molecule, donor type, donor heavy atom, donor atom, acceptor molecule, acceptor atom, score
      L1  H     3    37       P1  7948  1.00
      P1  H  7997  8009       L1     8  0.32
      P1  H 10752 10765       L1    10  0.59

> <Gold.Chemscore.Hbond.Weighted>
-9.5009

> <Gold.Chemscore.Metal.Weighted>
-0.0000

> <Gold.Chemscore.Lipo.Weighted>
-6.2672

> <Gold.Chemscore.Internal_Hbond.Weighted>
0.0000

> <Gold.Chemscore.DEClash.Weighted>
0.1587

> <Gold.Chemscore.DEInternal.Weighted>
0.9231

> <Gold.Chemscore.Rot.Weighted>
7.7848

> <Gold.Chemscore.Internal.Correction.Weighted>
   9.000000E+99

> <Gold.Protein.RotatedTorsions>
[ 6907 6896 6895 6894 ] final   92.77 input  -60.11 | X-H torsion
[ 7974 7965 7964 7962 ] final   69.24 input  175.53 | X-H torsion
[ 8008 7997 7996 7995 ] final -144.27 input   59.86 | X-H torsion
[ 10167 10162 10161 10158 ] final   91.13 input  -65.29 | X-H torsion
[ 10718 10713 10712 10709 ] final  -36.85 input   66.30 | X-H torsion
[ 10763 10752 10751 10750 ] final -155.67 input  -60.55 | X-H torsion
[ 11005 11000 10999 10996 ] final -167.91 input  -57.11 | X-H torsion

> <Gold.Protein.ActiveResidues>
 VAL166  LYS551  ARG553  GLY616  TRP617  ASP618  TYR619  PRO620  LYS621  CYS622 
 ASP623  PHE694  ASN695  SER759  ASP760  ASP761  ALA762  ILE779  LEU786  VAL792 
 PHE793  MET794  SER795  GLU796  ALA797  LYS798  CYS799  TRP800  GLU811  SER814 

> <Gold.Protein.RotatedAtoms>
  152.5453  134.1451  159.8494 H   0  0  0  0  0  0  0  0  0  0  0  0  # atno 6907 bound_to 6896
  151.1484  133.4917  159.2603 H   0  0  0  0  0  0  0  0  0  0  0  0  # atno 6908 bound_to 6896
  151.1499  135.0232  159.8718 H   0  0  0  0  0  0  0  0  0  0  0  0  # atno 6909 bound_to 6896
  145.7928  139.2942  143.1200 H   0  0  0  0  0  0  0  0  0  0  0  0  # atno 7974 bound_to 7965
  155.5242  140.0594  157.2901 H   0  0  0  0  0  0  0  0  0  0  0  0  # atno 8008 bound_to 7997
  154.4507  140.1947  156.0474 H   0  0  0  0  0  0  0  0  0  0  0  0  # atno 8009 bound_to 7997
  156.0697  140.3261  155.7565 H   0  0  0  0  0  0  0  0  0  0  0  0  # atno 8010 bound_to 7997
  139.8405  144.6643  150.9289 H   0  0  0  0  0  0  0  0  0  0  0  0  # atno 10167 bound_to 10162
  156.3221  130.4267  149.7951 H   0  0  0  0  0  0  0  0  0  0  0  0  # atno 10718 bound_to 10713
  154.7769  135.3162  154.8072 H   0  0  0  0  0  0  0  0  0  0  0  0  # atno 10763 bound_to 10752
  153.8793  135.6836  153.4772 H   0  0  0  0  0  0  0  0  0  0  0  0  # atno 10764 bound_to 10752
  153.1396  135.4745  154.9411 H   0  0  0  0  0  0  0  0  0  0  0  0  # atno 10765 bound_to 10752
  140.5479  134.5458  157.5115 H   0  0  0  0  0  0  0  0  0  0  0  0  # atno 11005 bound_to 11000
  145.9959  140.8562  143.0043 LP  0  0  0  0  0  0  0  0  0  0  0  0  # atno 17320 bound_to 7965
  144.6779  140.2283  143.7358 LP  0  0  0  0  0  0  0  0  0  0  0  0  # atno 17321 bound_to 7965
  140.7798  143.3917  151.1299 LP  0  0  0  0  0  0  0  0  0  0  0  0  # atno 17342 bound_to 10162
  139.7564  143.8702  152.3089 LP  0  0  0  0  0  0  0  0  0  0  0  0  # atno 17343 bound_to 10162
  156.5255  130.8234  151.3219 LP  0  0  0  0  0  0  0  0  0  0  0  0  # atno 17370 bound_to 10713
  157.7414  130.9869  150.2441 LP  0  0  0  0  0  0  0  0  0  0  0  0  # atno 17371 bound_to 10713
  139.9470  134.7684  156.0538 LP  0  0  0  0  0  0  0  0  0  0  0  0  # atno 17394 bound_to 11000
  141.1189  133.6619  156.3164 LP  0  0  0  0  0  0  0  0  0  0  0  0  # atno 17395 bound_to 11000

$$$$
