AV-unprocessed.smi:105|AV-procd|sdf|1009|dock3
  -GOLD-   2262018 03D 1   1.00000     0.00000
 Structure written by MMmdl.
 42 45  0  0  0  0  0  0  0  0  1 V2000
  152.5321  144.6433  159.6693 C   0  0  0  0  0  0  0  0  0  0  0  0
  152.1732  143.3369  160.0540 C   0  0  0  0  0  0  0  0  0  0  0  0
  151.5389  142.4800  159.1335 C   0  0  0  0  0  0  0  0  0  0  0  0
  151.2580  142.9266  157.8253 C   0  0  0  0  0  0  0  0  0  0  0  0
  150.5788  141.9942  156.8345 C   0  0  0  0  0  0  0  0  0  0  0  0
  149.1324  142.1554  156.7267 N   0  0  0  0  0  0  0  0  0  0  0  0
  148.2992  141.4156  157.4912 C   0  0  0  0  0  0  0  0  0  0  0  0
  146.9595  141.6440  157.4926 N   0  0  0  0  0  0  0  0  0  0  0  0
  146.1561  140.9065  158.2654 C   0  0  0  0  0  0  0  0  0  0  0  0
  146.4787  139.9143  159.0982 N   0  0  0  0  0  0  0  0  0  0  0  0
  147.8236  139.6834  159.0992 C   0  0  0  0  0  0  0  0  0  0  0  0
  148.7951  140.3852  158.3313 C   0  0  0  0  0  0  0  0  0  0  0  0
  150.0635  139.8830  158.5903 N   0  0  0  0  0  0  0  0  0  0  0  0
  149.8553  138.9384  159.4670 C   0  0  0  0  0  0  0  0  0  0  0  0
  148.5396  138.7459  159.8270 N   0  0  0  0  0  0  0  0  0  0  0  0
  148.0436  137.7753  160.7888 C   0  0  2  0  0  0  0  0  0  0  0  0
  147.0871  136.7501  160.1451 C   0  0  0  0  0  0  0  0  0  0  0  0
  146.6136  135.7820  161.2359 C   0  0  0  0  0  0  0  0  0  0  0  0
  145.9680  136.5769  162.3755 C   0  0  0  0  0  0  0  0  0  0  0  0
  146.9432  137.6552  162.8766 C   0  0  0  0  0  0  0  0  0  0  0  0
  147.3611  138.4750  161.7881 O   0  0  0  0  0  0  0  0  0  0  0  0
  151.6226  144.2357  157.4426 C   0  0  0  0  0  0  0  0  0  0  0  0
  152.2569  145.0923  158.3632 C   0  0  0  0  0  0  0  0  0  0  0  0
  153.0187  145.3002  160.3750 H   0  0  0  0  0  0  0  0  0  0  0  0
  152.3847  142.9919  161.0553 H   0  0  0  0  0  0  0  0  0  0  0  0
  151.2660  141.4796  159.4365 H   0  0  0  0  0  0  0  0  0  0  0  0
  151.0112  142.1757  155.8505 H   0  0  0  0  0  0  0  0  0  0  0  0
  150.8096  140.9569  157.0808 H   0  0  0  0  0  0  0  0  0  0  0  0
  148.8181  142.9482  156.1858 H   0  0  0  0  0  0  0  0  0  0  0  0
  145.1048  141.1474  158.2099 H   0  0  0  0  0  0  0  0  0  0  0  0
  150.6648  138.3523  159.8776 H   0  0  0  0  0  0  0  0  0  0  0  0
  148.9087  137.2788  161.2329 H   0  0  0  0  0  0  0  0  0  0  0  0
  146.2391  137.2681  159.6963 H   0  0  0  0  0  0  0  0  0  0  0  0
  147.6119  136.2172  159.3518 H   0  0  0  0  0  0  0  0  0  0  0  0
  145.9013  135.0671  160.8231 H   0  0  0  0  0  0  0  0  0  0  0  0
  147.4569  135.2031  161.6144 H   0  0  0  0  0  0  0  0  0  0  0  0
  145.0509  137.0494  162.0217 H   0  0  0  0  0  0  0  0  0  0  0  0
  145.6855  135.9118  163.1919 H   0  0  0  0  0  0  0  0  0  0  0  0
  146.4576  138.2821  163.6245 H   0  0  0  0  0  0  0  0  0  0  0  0
  147.8113  137.2016  163.3575 H   0  0  0  0  0  0  0  0  0  0  0  0
  151.4167  144.5875  156.4422 H   0  0  0  0  0  0  0  0  0  0  0  0
  152.5332  146.0934  158.0669 H   0  0  0  0  0  0  0  0  0  0  0  0
  1 23  1  0  0  0  0
  1  2  2  0  0  0  0
  1 24  1  0  0  0  0
  2  3  1  0  0  0  0
  2 25  1  0  0  0  0
  3  4  2  0  0  0  0
  3 26  1  0  0  0  0
  4  5  1  0  0  0  0
  4 22  1  0  0  0  0
  5  6  1  0  0  0  0
  5 27  1  0  0  0  0
  5 28  1  0  0  0  0
  6  7  1  0  0  0  0
  6 29  1  0  0  0  0
  7 12  1  0  0  0  0
  7  8  2  0  0  0  0
  8  9  1  0  0  0  0
  9 10  2  0  0  0  0
  9 30  1  0  0  0  0
 10 11  1  0  0  0  0
 11 15  1  0  0  0  0
 11 12  2  0  0  0  0
 12 13  1  0  0  0  0
 13 14  2  0  0  0  0
 14 15  1  0  0  0  0
 14 31  1  0  0  0  0
 15 16  1  0  0  0  0
 16 21  1  0  0  0  0
 16 17  1  0  0  0  0
 16 32  1  0  0  0  0
 17 18  1  0  0  0  0
 17 33  1  0  0  0  0
 17 34  1  0  0  0  0
 18 19  1  0  0  0  0
 18 35  1  0  0  0  0
 18 36  1  0  0  0  0
 19 20  1  0  0  0  0
 19 37  1  0  0  0  0
 19 38  1  0  0  0  0
 20 21  1  0  0  0  0
 20 39  1  0  0  0  0
 20 40  1  0  0  0  0
 22 23  2  0  0  0  0
 22 41  1  0  0  0  0
 23 42  1  0  0  0  0
M  END
> <s_m_source_file>
AV-unprocessed.smi

> <i_m_source_file_index>
105

> <i_lp_mmshare_version>
43012

> <i_f3d_flags>
0

> <s_epik_input>
W2NIXTFbY0hdW2NIXVtjSF1bY0hdYzFbQ0gyXVtOSF1jKG5bY0hdbjIpYyhjMjMpbltjSF1uM1tDQEBIXTRbQ0gyXVtDSDJdW0NIMl1bQ0gyXU80

> <s_epik_cmdline>
J2VwaWtfcHl0aG9uJywgJy1waCcsICc3LjAnLCAnLXRuJywgJzgnLCAnLW1hJywgJzIwMCcsICctbWV0YWxfYmluZGluZycsICctaW1hZScsICc8aW5maWxlLm1hZT4nLCAnLW9tYWUnLCAnPG91dGZpbGUubWFlPic=

> <r_lp_tautomer_probability>
1

> <r_epik_Ionization_Penalty>
0.000653933

> <r_epik_Ionization_Penalty_Charging>
0

> <r_epik_Ionization_Penalty_Neutral>
0.000653933

> <r_epik_State_Penalty>
-0

> <r_epik_Charging_Adjusted_Penalty>
0

> <i_epik_Tot_Q>
0

> <i_epik_Tot_abs_Q>
0

> <r_epik_Metal_State_Penalty>
-0

> <b_epik_Metal_Only>
0

> <s_epik_Chemistry_Notes>
This compound contains an acetal/aminal-like group ( X-CH(R)-Y where X, Y are N, S, or O) that may be acid/base labile, releasing an aldehyde.

> <s_lp_Force_Field>
OPLS_2005

> <r_lp_Energy>
24.2362

> <b_lp_Chiralities_Consistent>
1

> <s_lp_Variant>
AV-unprocessed.smi:105-1

> <Gold.Version>
5.8.1

> <Gold.Id.Protein>
6NUR|6NUR_protein|mol2

> <Gold.PLP.Fitness>
45.9676

> <Gold.PLP.PLP>
-39.9474

> <Gold.PLP.part.hbond>
-4.0000

> <Gold.PLP.part.metal>
0.0000

> <Gold.PLP.part.buried>
-4.7164

> <Gold.PLP.part.nonpolar>
-33.0902

> <Gold.PLP.part.repulsive>
0.0906

> <Gold.PLP.ligand.clash>
0.0000

> <Gold.PLP.ligand.torsion>
0.5407

> <Gold.PLP.Chemscore.Hbond>
2.3617

> <Gold.PLP.Chemscore.CHOScore>
0.0000

> <Gold.PLP.Chemscore.Metal>
0.0000

> <Gold.Chemscore.Hbonds>
donor molecule, donor type, donor heavy atom, donor atom, acceptor molecule, acceptor atom, score
      L1  H     6    29       P1  8028  1.00

> <Gold.PLP.Chemscore.Internal.Correction>
0.0165

> <Gold.Rescore>
     Score         DG    S(hbond)    S(metal)    S(lipo)     H(rot)  DE(clash)    DE(int)     intcor
     17.25     -19.45       1.84        0.00     101.03       1.55       0.33       1.88       ----

> <Gold.Chemscore.Fitness>
17.2498

> <Gold.Chemscore.DG>
-19.4545

> <Gold.Chemscore.ZeroCoef>
-5.4800

> <Gold.Chemscore.Hbond>
1.8365

> <Gold.Chemscore.Metal>
0.0000

> <Gold.Chemscore.Lipo>
101.0306

> <Gold.Chemscore.Internal_Hbond>
0.0000

> <Gold.Chemscore.DEClash>
0.3277

> <Gold.Chemscore.DEInternal>
1.8771

> <Gold.Chemscore.Rot>
1.5547

> <Gold.Chemscore.Internal.Correction>
   9.000000E+99

> <Gold.Chemscore.Hbonds>
donor molecule, donor type, donor heavy atom, donor atom, acceptor molecule, acceptor atom, score
      L1  H     6    29       P1  8028  0.97

> <Gold.Chemscore.Hbond.Weighted>
-6.1339

> <Gold.Chemscore.Metal.Weighted>
-0.0000

> <Gold.Chemscore.Lipo.Weighted>
-11.8206

> <Gold.Chemscore.Internal_Hbond.Weighted>
0.0000

> <Gold.Chemscore.DEClash.Weighted>
0.3277

> <Gold.Chemscore.DEInternal.Weighted>
1.8771

> <Gold.Chemscore.Rot.Weighted>
3.9800

> <Gold.Chemscore.Internal.Correction.Weighted>
   9.000000E+99

> <Gold.Protein.RotatedTorsions>
[ 6907 6896 6895 6894 ] final -124.27 input  -60.11 | X-H torsion
[ 7974 7965 7964 7962 ] final -127.90 input  175.53 | X-H torsion
[ 8008 7997 7996 7995 ] final  128.74 input   59.86 | X-H torsion
[ 10167 10162 10161 10158 ] final  -80.49 input  -65.29 | X-H torsion
[ 10718 10713 10712 10709 ] final -143.10 input   66.30 | X-H torsion
[ 10763 10752 10751 10750 ] final    6.49 input  -60.55 | X-H torsion
[ 11005 11000 10999 10996 ] final  144.56 input  -57.11 | X-H torsion

> <Gold.Protein.ActiveResidues>
 VAL166  LYS551  ARG553  GLY616  TRP617  ASP618  TYR619  PRO620  LYS621  CYS622 
 ASP623  PHE694  ASN695  SER759  ASP760  ASP761  ALA762  ILE779  LEU786  VAL792 
 PHE793  MET794  SER795  GLU796  ALA797  LYS798  CYS799  TRP800  GLU811  SER814 

> <Gold.Protein.RotatedAtoms>
  150.8751  133.7450  159.2948 H   0  0  0  0  0  0  0  0  0  0  0  0  # atno 6907 bound_to 6896
  151.5049  135.1061  159.9848 H   0  0  0  0  0  0  0  0  0  0  0  0  # atno 6908 bound_to 6896
  152.4722  133.8011  159.7009 H   0  0  0  0  0  0  0  0  0  0  0  0  # atno 6909 bound_to 6896
  144.9724  140.7559  143.4662 H   0  0  0  0  0  0  0  0  0  0  0  0  # atno 7974 bound_to 7965
  156.2921  140.2637  156.2485 H   0  0  0  0  0  0  0  0  0  0  0  0  # atno 8008 bound_to 7997
  154.9906  140.0388  157.2336 H   0  0  0  0  0  0  0  0  0  0  0  0  # atno 8009 bound_to 7997
  154.7689  140.2774  155.6158 H   0  0  0  0  0  0  0  0  0  0  0  0  # atno 8010 bound_to 7997
  140.4498  143.2486  151.8505 H   0  0  0  0  0  0  0  0  0  0  0  0  # atno 10167 bound_to 10162
  156.3539  130.7702  151.1859 H   0  0  0  0  0  0  0  0  0  0  0  0  # atno 10718 bound_to 10713
  153.2472  135.6910  153.7719 H   0  0  0  0  0  0  0  0  0  0  0  0  # atno 10763 bound_to 10752
  153.6827  135.3326  155.3183 H   0  0  0  0  0  0  0  0  0  0  0  0  # atno 10764 bound_to 10752
  154.8379  135.4526  154.1415 H   0  0  0  0  0  0  0  0  0  0  0  0  # atno 10765 bound_to 10752
  140.0642  134.9188  157.1236 H   0  0  0  0  0  0  0  0  0  0  0  0  # atno 11005 bound_to 11000
  145.2539  139.2020  143.4928 LP  0  0  0  0  0  0  0  0  0  0  0  0  # atno 17320 bound_to 7965
  146.3386  140.2457  142.8597 LP  0  0  0  0  0  0  0  0  0  0  0  0  # atno 17321 bound_to 7965
  139.4796  144.5133  151.8903 LP  0  0  0  0  0  0  0  0  0  0  0  0  # atno 17342 bound_to 10162
  140.4220  144.2230  150.5887 LP  0  0  0  0  0  0  0  0  0  0  0  0  # atno 17343 bound_to 10162
  157.7465  131.0419  150.4671 LP  0  0  0  0  0  0  0  0  0  0  0  0  # atno 17370 bound_to 10713
  156.4871  130.4087  149.6428 LP  0  0  0  0  0  0  0  0  0  0  0  0  # atno 17371 bound_to 10713
  140.3724  134.2376  155.7177 LP  0  0  0  0  0  0  0  0  0  0  0  0  # atno 17394 bound_to 11000
  141.1986  133.8032  157.0575 LP  0  0  0  0  0  0  0  0  0  0  0  0  # atno 17395 bound_to 11000

$$$$
