AV-unprocessed.smi:1224|AV-procd|sdf|5132|dock9
  -GOLD-   22720 4193D 1   1.00000     0.00000
 Structure written by MMmdl.
 43 45  0  0  0  0  0  0  0  0  1 V2000
  151.5250  145.2827  160.0218 C   0  0  0  0  0  0  0  0  0  0  0  0
  151.7370  143.8838  159.4703 C   0  0  0  0  0  0  0  0  0  0  0  0
  151.2363  143.5678  158.1869 C   0  0  0  0  0  0  0  0  0  0  0  0
  151.4130  142.2789  157.6377 C   0  0  0  0  0  0  0  0  0  0  0  0
  151.0127  141.7580  156.4190 N   0  0  0  0  0  0  0  0  0  0  0  0
  151.4721  140.5122  156.4963 C   0  0  0  0  0  0  0  0  0  0  0  0
  152.1227  140.1640  157.6232 N   0  0  0  0  0  0  0  0  0  0  0  0
  152.7072  138.8722  157.9367 C   0  0  0  0  0  0  0  0  0  0  0  0
  152.0027  138.1775  159.1174 C   0  0  2  0  0  0  0  0  0  0  0  0
  152.7759  137.0645  159.5222 O   0  0  0  0  0  0  0  0  0  0  0  0
  150.6009  137.6789  158.7305 C   0  0  0  0  0  0  0  0  0  0  0  0
  150.0159  136.8681  159.7942 N   0  0  0  0  0  0  0  0  0  0  0  0
  148.5603  136.8028  159.7346 C   0  0  0  0  0  0  0  0  0  0  0  0
  147.9955  135.9937  160.8536 C   0  0  0  0  0  0  0  0  0  0  0  0
  147.7148  136.4091  162.1306 C   0  0  0  0  0  0  0  0  0  0  0  0
  147.1752  135.3753  162.9511 C   0  0  0  0  0  0  0  0  0  0  0  0
  147.0508  134.1829  162.2888 C   0  0  0  0  0  0  0  0  0  0  0  0
  147.5960  134.3080  160.6386 S   0  0  0  0  0  0  0  0  0  0  0  0
  152.1096  141.3072  158.4139 C   0  0  0  0  0  0  0  0  0  0  0  0
  152.6130  141.6092  159.6914 C   0  0  0  0  0  0  0  0  0  0  0  0
  152.4279  142.9019  160.2250 C   0  0  0  0  0  0  0  0  0  0  0  0
  152.9769  143.2190  161.6046 C   0  0  0  0  0  0  0  0  0  0  0  0
  150.9736  145.9085  159.3195 H   0  0  0  0  0  0  0  0  0  0  0  0
  152.4827  145.7648  160.2188 H   0  0  0  0  0  0  0  0  0  0  0  0
  150.9572  145.2449  160.9515 H   0  0  0  0  0  0  0  0  0  0  0  0
  150.7108  144.3153  157.6110 H   0  0  0  0  0  0  0  0  0  0  0  0
  151.3301  139.8116  155.6864 H   0  0  0  0  0  0  0  0  0  0  0  0
  152.6478  138.2498  157.0431 H   0  0  0  0  0  0  0  0  0  0  0  0
  153.7682  139.0096  158.1509 H   0  0  0  0  0  0  0  0  0  0  0  0
  151.9312  138.8793  159.9501 H   0  0  0  0  0  0  0  0  0  0  0  0
  152.6744  136.9571  160.4559 H   0  0  0  0  0  0  0  0  0  0  0  0
  149.9564  138.5409  158.5531 H   0  0  0  0  0  0  0  0  0  0  0  0
  150.6370  137.1235  157.7920 H   0  0  0  0  0  0  0  0  0  0  0  0
  150.2974  137.2462  160.6932 H   0  0  0  0  0  0  0  0  0  0  0  0
  148.1417  137.8097  159.7620 H   0  0  0  0  0  0  0  0  0  0  0  0
  148.2471  136.3659  158.7858 H   0  0  0  0  0  0  0  0  0  0  0  0
  147.8752  137.4111  162.4998 H   0  0  0  0  0  0  0  0  0  0  0  0
  146.9004  135.5403  163.9823 H   0  0  0  0  0  0  0  0  0  0  0  0
  146.6742  133.2439  162.6671 H   0  0  0  0  0  0  0  0  0  0  0  0
  153.1382  140.8518  160.2542 H   0  0  0  0  0  0  0  0  0  0  0  0
  153.4602  142.3491  162.0502 H   0  0  0  0  0  0  0  0  0  0  0  0
  152.1753  143.5347  162.2727 H   0  0  0  0  0  0  0  0  0  0  0  0
  153.7152  144.0190  161.5460 H   0  0  0  0  0  0  0  0  0  0  0  0
  1  2  1  0  0  0  0
  1 23  1  0  0  0  0
  1 24  1  0  0  0  0
  1 25  1  0  0  0  0
  2 21  1  0  0  0  0
  2  3  2  0  0  0  0
  3  4  1  0  0  0  0
  3 26  1  0  0  0  0
  4 19  2  0  0  0  0
  4  5  1  0  0  0  0
  5  6  2  0  0  0  0
  6  7  1  0  0  0  0
  6 27  1  0  0  0  0
  7  8  1  0  0  0  0
  7 19  1  0  0  0  0
  8  9  1  0  0  0  0
  8 28  1  0  0  0  0
  8 29  1  0  0  0  0
  9 10  1  0  0  0  0
  9 11  1  0  0  0  0
  9 30  1  0  0  0  0
 10 31  1  0  0  0  0
 11 12  1  0  0  0  0
 11 32  1  0  0  0  0
 11 33  1  0  0  0  0
 12 13  1  0  0  0  0
 12 34  1  0  0  0  0
 13 14  1  0  0  0  0
 13 35  1  0  0  0  0
 13 36  1  0  0  0  0
 14 18  1  0  0  0  0
 14 15  2  0  0  0  0
 15 16  1  0  0  0  0
 15 37  1  0  0  0  0
 16 17  2  0  0  0  0
 16 38  1  0  0  0  0
 17 18  1  0  0  0  0
 17 39  1  0  0  0  0
 19 20  1  0  0  0  0
 20 21  2  0  0  0  0
 20 40  1  0  0  0  0
 21 22  1  0  0  0  0
 22 41  1  0  0  0  0
 22 42  1  0  0  0  0
 22 43  1  0  0  0  0
M  END
> <s_m_source_file>
AV-unprocessed.smi

> <i_m_source_file_index>
1224

> <i_lp_mmshare_version>
43012

> <i_f3d_flags>
0

> <s_epik_input>
W0NIM11jKFtjSF0xKWMoW0NIM10pW2NIXWMoYzEyKW4oW2NIXW4yKVtDSDJdW0NASF0oW09IXSlbQ0gyXVtOSF1bQ0gyXWMzW2NIXVtjSF1bY0hdczM=

> <s_epik_cmdline>
J2VwaWtfcHl0aG9uJywgJy1waCcsICc3LjAnLCAnLXRuJywgJzgnLCAnLW1hJywgJzIwMCcsICctbWV0YWxfYmluZGluZycsICctaW1hZScsICc8aW5maWxlLm1hZT4nLCAnLW9tYWUnLCAnPG91dGZpbGUubWFlPic=

> <r_epik_Ionization_Penalty>
1.55566

> <r_epik_Ionization_Penalty_Charging>
0

> <r_epik_Ionization_Penalty_Neutral>
1.55566

> <r_epik_State_Penalty>
1.63945

> <r_epik_Charging_Adjusted_Penalty>
1.63945

> <i_epik_Tot_Q>
0

> <i_epik_Tot_abs_Q>
0

> <r_epik_Metal_State_Penalty>
1.52326

> <b_epik_Metal_Only>
0

> <s_lp_Force_Field>
OPLS_2005

> <r_lp_Energy>
13.7285

> <b_lp_Chiralities_Consistent>
1

> <s_lp_Variant>
AV-unprocessed.smi:1224-5

> <Gold.Version>
5.8.1

> <Gold.Id.Protein>
6NUR|6NUR_protein|mol2

> <Gold.PLP.Fitness>
56.0466

> <Gold.PLP.PLP>
-54.1416

> <Gold.PLP.part.hbond>
-1.6719

> <Gold.PLP.part.metal>
0.0000

> <Gold.PLP.part.buried>
-7.1584

> <Gold.PLP.part.nonpolar>
-45.2583

> <Gold.PLP.part.repulsive>
0.0634

> <Gold.PLP.ligand.clash>
0.0000

> <Gold.PLP.ligand.torsion>
0.5771

> <Gold.PLP.Chemscore.Hbond>
0.9913

> <Gold.PLP.Chemscore.CHOScore>
0.0000

> <Gold.PLP.Chemscore.Metal>
0.0000

> <Gold.Chemscore.Hbonds>
donor molecule, donor type, donor heavy atom, donor atom, acceptor molecule, acceptor atom, score
      P1  H  6896  6908       L1    12  0.81

> <Gold.PLP.Chemscore.Internal.Correction>
0.0855

> <Gold.Rescore>
     Score         DG    S(hbond)    S(metal)    S(lipo)     H(rot)  DE(clash)    DE(int)     intcor
     16.73     -17.40       0.22        0.00     146.15       2.32       0.05       0.62       ----

> <Gold.Chemscore.Fitness>
16.7256

> <Gold.Chemscore.DG>
-17.3991

> <Gold.Chemscore.ZeroCoef>
-5.4800

> <Gold.Chemscore.Hbond>
0.2250

> <Gold.Chemscore.Metal>
0.0000

> <Gold.Chemscore.Lipo>
146.1544

> <Gold.Chemscore.Internal_Hbond>
0.0000

> <Gold.Chemscore.DEClash>
0.0502

> <Gold.Chemscore.DEInternal>
0.6232

> <Gold.Chemscore.Rot>
2.3173

> <Gold.Chemscore.Internal.Correction>
   9.000000E+99

> <Gold.Chemscore.Hbonds>
donor molecule, donor type, donor heavy atom, donor atom, acceptor molecule, acceptor atom, score
      P1  H  6896  6908       L1    12  0.16

> <Gold.Chemscore.Hbond.Weighted>
-0.7514

> <Gold.Chemscore.Metal.Weighted>
-0.0000

> <Gold.Chemscore.Lipo.Weighted>
-17.1001

> <Gold.Chemscore.Internal_Hbond.Weighted>
0.0000

> <Gold.Chemscore.DEClash.Weighted>
0.0502

> <Gold.Chemscore.DEInternal.Weighted>
0.6232

> <Gold.Chemscore.Rot.Weighted>
5.9324

> <Gold.Chemscore.Internal.Correction.Weighted>
   9.000000E+99

> <Gold.Protein.RotatedTorsions>
[ 6907 6896 6895 6894 ] final -160.06 input  -60.11 | X-H torsion
[ 7974 7965 7964 7962 ] final   77.73 input  175.53 | X-H torsion
[ 8008 7997 7996 7995 ] final  -48.07 input   59.86 | X-H torsion
[ 10167 10162 10161 10158 ] final   97.69 input  -65.29 | X-H torsion
[ 10718 10713 10712 10709 ] final -113.11 input   66.30 | X-H torsion
[ 10763 10752 10751 10750 ] final  138.24 input  -60.55 | X-H torsion
[ 11005 11000 10999 10996 ] final  146.92 input  -57.11 | X-H torsion

> <Gold.Protein.ActiveResidues>
 VAL166  LYS551  ARG553  GLY616  TRP617  ASP618  TYR619  PRO620  LYS621  CYS622 
 ASP623  PHE694  ASN695  SER759  ASP760  ASP761  ALA762  ILE779  LEU786  VAL792 
 PHE793  MET794  SER795  GLU796  ALA797  LYS798  CYS799  TRP800  GLU811  SER814 

> <Gold.Protein.RotatedAtoms>
  151.3432  133.3954  159.2672 H   0  0  0  0  0  0  0  0  0  0  0  0  # atno 6907 bound_to 6896
  150.9861  134.9207  159.7883 H   0  0  0  0  0  0  0  0  0  0  0  0  # atno 6908 bound_to 6896
  152.5232  134.3396  159.9265 H   0  0  0  0  0  0  0  0  0  0  0  0  # atno 6909 bound_to 6896
  145.6863  139.2539  143.1785 H   0  0  0  0  0  0  0  0  0  0  0  0  # atno 7974 bound_to 7965
  154.4024  140.1330  156.4279 H   0  0  0  0  0  0  0  0  0  0  0  0  # atno 8008 bound_to 7997
  155.7579  140.3486  155.5163 H   0  0  0  0  0  0  0  0  0  0  0  0  # atno 8009 bound_to 7997
  155.8887  140.0999  157.1424 H   0  0  0  0  0  0  0  0  0  0  0  0  # atno 8010 bound_to 7997
  139.7777  144.6899  151.0066 H   0  0  0  0  0  0  0  0  0  0  0  0  # atno 10167 bound_to 10162
  156.0746  130.5956  150.8598 H   0  0  0  0  0  0  0  0  0  0  0  0  # atno 10718 bound_to 10713
  153.8863  135.3038  155.3446 H   0  0  0  0  0  0  0  0  0  0  0  0  # atno 10763 bound_to 10752
  154.7738  135.4872  153.9705 H   0  0  0  0  0  0  0  0  0  0  0  0  # atno 10764 bound_to 10752
  153.1323  135.6806  153.9256 H   0  0  0  0  0  0  0  0  0  0  0  0  # atno 10765 bound_to 10752
  140.0833  134.9084  157.1535 H   0  0  0  0  0  0  0  0  0  0  0  0  # atno 11005 bound_to 11000
  146.0921  140.7644  142.9590 LP  0  0  0  0  0  0  0  0  0  0  0  0  # atno 17320 bound_to 7965
  144.7010  140.3653  143.7156 LP  0  0  0  0  0  0  0  0  0  0  0  0  # atno 17321 bound_to 7965
  140.7817  143.4517  151.0403 LP  0  0  0  0  0  0  0  0  0  0  0  0  # atno 17342 bound_to 10162
  139.8199  143.7834  152.3176 LP  0  0  0  0  0  0  0  0  0  0  0  0  # atno 17343 bound_to 10162
  157.5835  131.0946  150.9233 LP  0  0  0  0  0  0  0  0  0  0  0  0  # atno 17370 bound_to 10713
  156.9423  130.5389  149.5280 LP  0  0  0  0  0  0  0  0  0  0  0  0  # atno 17371 bound_to 10713
  140.3456  134.2655  155.7205 LP  0  0  0  0  0  0  0  0  0  0  0  0  # atno 17394 bound_to 11000
  141.2054  133.7861  157.0235 LP  0  0  0  0  0  0  0  0  0  0  0  0  # atno 17395 bound_to 11000

$$$$
