AV-unprocessed.smi:3015|AV-procd|sdf|11471|dock10
  -GOLD-   2272016403D 1   1.00000     0.00000
 Structure written by MMmdl.
 24 24  0  0  0  0  0  0  0  0  2 V2000
  148.5360  142.3269  156.6743 N   0  3  0  0  0  0  0  0  0  0  0  0
  149.4771  141.3767  156.0511 C   0  0  1  0  0  0  0  0  0  0  0  0
  149.0498  141.0746  154.6044 C   0  0  0  0  0  0  0  0  0  0  0  0
  149.9595  140.1762  154.0043 O   0  0  0  0  0  0  0  0  0  0  0  0
  150.9157  141.9256  156.1106 C   0  0  0  0  0  0  0  0  0  0  0  0
  151.2893  142.4718  157.4777 C   0  0  0  0  0  0  0  0  0  0  0  0
  151.6143  143.8338  157.6479 C   0  0  0  0  0  0  0  0  0  0  0  0
  151.9582  144.2943  158.9333 C   0  0  0  0  0  0  0  0  0  0  0  0
  151.9610  143.3714  159.9983 C   0  0  0  0  0  0  0  0  0  0  0  0
  151.6506  142.0656  159.8473 N   0  0  0  0  0  0  0  0  0  0  0  0
  151.3182  141.6330  158.6126 C   0  0  0  0  0  0  0  0  0  0  0  0
  148.5143  143.1829  156.1393 H   0  0  0  0  0  0  0  0  0  0  0  0
  148.8351  142.5256  157.6183 H   0  0  0  0  0  0  0  0  0  0  0  0
  149.4395  140.4488  156.6237 H   0  0  0  0  0  0  0  0  0  0  0  0
  148.0425  140.6578  154.5676 H   0  0  0  0  0  0  0  0  0  0  0  0
  149.0416  141.9900  154.0115 H   0  0  0  0  0  0  0  0  0  0  0  0
  149.6179  139.9167  153.1615 H   0  0  0  0  0  0  0  0  0  0  0  0
  151.6242  141.1350  155.8594 H   0  0  0  0  0  0  0  0  0  0  0  0
  151.0537  142.7041  155.3587 H   0  0  0  0  0  0  0  0  0  0  0  0
  151.6031  144.5145  156.8091 H   0  0  0  0  0  0  0  0  0  0  0  0
  152.2130  145.3305  159.1001 H   0  0  0  0  0  0  0  0  0  0  0  0
  152.2201  143.6906  160.9971 H   0  0  0  0  0  0  0  0  0  0  0  0
  151.0767  140.5837  158.5272 H   0  0  0  0  0  0  0  0  0  0  0  0
  147.6130  141.9168  156.6912 H   0  0  0  0  0  0  0  0  0  0  0  0
  1  2  1  0  0  0  0
  1 12  1  0  0  0  0
  1 13  1  0  0  0  0
  1 24  1  0  0  0  0
  2  3  1  0  0  0  0
  2  5  1  0  0  0  0
  2 14  1  0  0  0  0
  3  4  1  0  0  0  0
  3 15  1  0  0  0  0
  3 16  1  0  0  0  0
  4 17  1  0  0  0  0
  5  6  1  0  0  0  0
  5 18  1  0  0  0  0
  5 19  1  0  0  0  0
  6 11  1  0  0  0  0
  6  7  2  0  0  0  0
  7  8  1  0  0  0  0
  7 20  1  0  0  0  0
  8  9  2  0  0  0  0
  8 21  1  0  0  0  0
  9 10  1  0  0  0  0
  9 22  1  0  0  0  0
 10 11  2  0  0  0  0
 11 23  1  0  0  0  0
M  CHG  1   1   1
M  END
> <s_m_source_file>
AV-unprocessed.smi

> <i_m_source_file_index>
3015

> <i_lp_mmshare_version>
43012

> <i_f3d_flags>
0

> <s_epik_input>
W09IXVtDSDJdW0NAQEhdKFtOSDJdKVtDSDJdYzFbY0hdW2NIXVtjSF1uW2NIXTE=

> <s_epik_cmdline>
J2VwaWtfcHl0aG9uJywgJy1waCcsICc3LjAnLCAnLXRuJywgJzgnLCAnLW1hJywgJzIwMCcsICctbWV0YWxfYmluZGluZycsICctaW1hZScsICc8aW5maWxlLm1hZT4nLCAnLW9tYWUnLCAnPG91dGZpbGUubWFlPic=

> <r_epik_Ionization_Penalty>
0.0193991

> <r_epik_Ionization_Penalty_Charging>
0.0188044

> <r_epik_Ionization_Penalty_Neutral>
0.000594726

> <r_epik_State_Penalty>
0.00921718

> <r_epik_Charging_Adjusted_Penalty>
0.0280216

> <i_epik_Tot_Q>
1

> <i_epik_Tot_abs_Q>
1

> <r_epik_Metal_State_Penalty>
0.00867471

> <b_epik_Metal_Only>
0

> <s_lp_Force_Field>
OPLS_2005

> <r_lp_Energy>
6.76442

> <b_lp_Chiralities_Consistent>
1

> <s_lp_Variant>
AV-unprocessed.smi:3015-2

> <Gold.Version>
5.8.1

> <Gold.Id.Protein>
6NUR|6NUR_protein|mol2

> <Gold.PLP.Fitness>
39.5314

> <Gold.PLP.PLP>
-28.2410

> <Gold.PLP.part.hbond>
-3.4340

> <Gold.PLP.part.metal>
0.0000

> <Gold.PLP.part.buried>
-4.5415

> <Gold.PLP.part.nonpolar>
-20.3089

> <Gold.PLP.part.repulsive>
0.0012

> <Gold.PLP.ligand.clash>
0.0000

> <Gold.PLP.ligand.torsion>
0.0822

> <Gold.PLP.Chemscore.Hbond>
3.8160

> <Gold.PLP.Chemscore.CHOScore>
0.0000

> <Gold.PLP.Chemscore.Metal>
0.0000

> <Gold.Chemscore.Hbonds>
donor molecule, donor type, donor heavy atom, donor atom, acceptor molecule, acceptor atom, score
      L1  H     1    12       P1  8028  2.00
      L1  H     4    17       P1  7957  1.00
      P1  H  7989  7998       L1     4  0.81

> <Gold.PLP.Chemscore.Internal.Correction>
0.0068

> <Gold.Rescore>
     Score         DG    S(hbond)    S(metal)    S(lipo)     H(rot)  DE(clash)    DE(int)     intcor
     15.97     -16.26       2.26        0.00      74.36       2.14       0.16       0.13       ----

> <Gold.Chemscore.Fitness>
15.9717

> <Gold.Chemscore.DG>
-16.2587

> <Gold.Chemscore.ZeroCoef>
-5.4800

> <Gold.Chemscore.Hbond>
2.2631

> <Gold.Chemscore.Metal>
0.0000

> <Gold.Chemscore.Lipo>
74.3563

> <Gold.Chemscore.Internal_Hbond>
0.0000

> <Gold.Chemscore.DEClash>
0.1609

> <Gold.Chemscore.DEInternal>
0.1261

> <Gold.Chemscore.Rot>
2.1405

> <Gold.Chemscore.Internal.Correction>
   9.000000E+99

> <Gold.Chemscore.Hbonds>
donor molecule, donor type, donor heavy atom, donor atom, acceptor molecule, acceptor atom, score
      L1  H     1    12       P1  8028  0.92
      L1  H     4    17       P1  7957  0.92
      P1  H  7989  7998       L1     4  0.17

> <Gold.Chemscore.Hbond.Weighted>
-7.5587

> <Gold.Chemscore.Metal.Weighted>
-0.0000

> <Gold.Chemscore.Lipo.Weighted>
-8.6997

> <Gold.Chemscore.Internal_Hbond.Weighted>
0.0000

> <Gold.Chemscore.DEClash.Weighted>
0.1609

> <Gold.Chemscore.DEInternal.Weighted>
0.1261

> <Gold.Chemscore.Rot.Weighted>
5.4797

> <Gold.Chemscore.Internal.Correction.Weighted>
   9.000000E+99

> <Gold.Protein.RotatedTorsions>
[ 6907 6896 6895 6894 ] final  -45.82 input  -60.11 | X-H torsion
[ 7974 7965 7964 7962 ] final -129.81 input  175.53 | X-H torsion
[ 8008 7997 7996 7995 ] final  -94.01 input   59.86 | X-H torsion
[ 10167 10162 10161 10158 ] final    9.27 input  -65.29 | X-H torsion
[ 10718 10713 10712 10709 ] final   59.37 input   66.30 | X-H torsion
[ 10763 10752 10751 10750 ] final  119.18 input  -60.55 | X-H torsion
[ 11005 11000 10999 10996 ] final   -3.66 input  -57.11 | X-H torsion

> <Gold.Protein.ActiveResidues>
 VAL166  LYS551  ARG553  GLY616  TRP617  ASP618  TYR619  PRO620  LYS621  CYS622 
 ASP623  PHE694  ASN695  SER759  ASP760  ASP761  ALA762  ILE779  LEU786  VAL792 
 PHE793  MET794  SER795  GLU796  ALA797  LYS798  CYS799  TRP800  GLU811  SER814 

> <Gold.Protein.RotatedAtoms>
  150.9178  134.8596  159.7468 H   0  0  0  0  0  0  0  0  0  0  0  0  # atno 6907 bound_to 6896
  152.4977  134.4263  159.9507 H   0  0  0  0  0  0  0  0  0  0  0  0  # atno 6908 bound_to 6896
  151.4300  133.3633  159.2802 H   0  0  0  0  0  0  0  0  0  0  0  0  # atno 6909 bound_to 6896
  144.9536  140.7371  143.4772 H   0  0  0  0  0  0  0  0  0  0  0  0  # atno 7974 bound_to 7965
  154.7430  140.0493  157.0827 H   0  0  0  0  0  0  0  0  0  0  0  0  # atno 8008 bound_to 7997
  155.0154  140.3141  155.4794 H   0  0  0  0  0  0  0  0  0  0  0  0  # atno 8009 bound_to 7997
  156.2868  140.2176  156.5270 H   0  0  0  0  0  0  0  0  0  0  0  0  # atno 8010 bound_to 7997
  140.6265  143.8090  150.7239 H   0  0  0  0  0  0  0  0  0  0  0  0  # atno 10167 bound_to 10162
  157.5670  130.8878  149.9203 H   0  0  0  0  0  0  0  0  0  0  0  0  # atno 10718 bound_to 10713
  153.5791  135.3487  155.2868 H   0  0  0  0  0  0  0  0  0  0  0  0  # atno 10763 bound_to 10752
  154.8670  135.4177  154.2641 H   0  0  0  0  0  0  0  0  0  0  0  0  # atno 10764 bound_to 10752
  153.3423  135.7050  153.6927 H   0  0  0  0  0  0  0  0  0  0  0  0  # atno 10765 bound_to 10752
  140.6718  133.9230  155.8499 H   0  0  0  0  0  0  0  0  0  0  0  0  # atno 11005 bound_to 11000
  145.2806  139.1919  143.4793 LP  0  0  0  0  0  0  0  0  0  0  0  0  # atno 17320 bound_to 7965
  146.3329  140.2768  142.8608 LP  0  0  0  0  0  0  0  0  0  0  0  0  # atno 17321 bound_to 7965
  140.1692  143.4209  152.2013 LP  0  0  0  0  0  0  0  0  0  0  0  0  # atno 17342 bound_to 10162
  139.5484  144.7318  151.4510 LP  0  0  0  0  0  0  0  0  0  0  0  0  # atno 17343 bound_to 10162
  156.0717  130.3684  150.0761 LP  0  0  0  0  0  0  0  0  0  0  0  0  # atno 17370 bound_to 10713
  156.8919  130.9591  151.3587 LP  0  0  0  0  0  0  0  0  0  0  0  0  # atno 17371 bound_to 10713
  141.0386  134.0653  157.3929 LP  0  0  0  0  0  0  0  0  0  0  0  0  # atno 17394 bound_to 11000
  139.8979  135.0152  156.7124 LP  0  0  0  0  0  0  0  0  0  0  0  0  # atno 17395 bound_to 11000

$$$$
