AV-unprocessed.smi:798|AV-procd|sdf|3777|dock7
  -GOLD-   22720 1213D 1   1.00000     0.00000
 Structure written by MMmdl.
 33 35  0  0  0  0  0  0  0  0  2 V2000
  149.8476  136.2422  159.1629 O   0  0  0  0  0  0  0  0  0  0  0  0
  149.1460  137.2389  159.3505 C   0  0  0  0  0  0  0  0  0  0  0  0
  148.1538  137.3606  160.2617 N   0  5  0  0  0  0  0  0  0  0  0  0
  147.8098  136.3087  161.0229 C   0  0  0  0  0  0  0  0  0  0  0  0
  147.5096  135.1089  160.5000 N   0  0  0  0  0  0  0  0  0  0  0  0
  147.1770  134.1627  161.4602 N   0  0  0  0  0  0  0  0  0  0  0  0
  147.2278  134.6784  162.6881 C   0  0  0  0  0  0  0  0  0  0  0  0
  147.6816  136.3668  162.7832 S   0  0  0  0  0  0  0  0  0  0  0  0
  149.3448  138.3434  158.6178 N   0  0  0  0  0  0  0  0  0  0  0  0
  150.3610  138.5072  157.5790 C   0  0  2  0  0  0  0  0  0  0  0  0
  151.3600  139.6586  157.8658 C   0  0  2  0  0  0  0  0  0  0  0  0
  150.6255  140.9721  158.2101 C   0  0  0  0  0  0  0  0  0  0  0  0
  149.9950  141.3668  156.8620 C   0  0  0  0  0  0  0  0  0  0  0  0
  150.4836  140.2509  155.9170 C   0  0  1  0  0  0  0  0  0  0  0  0
  151.8773  139.9729  156.4683 C   0  0  0  0  0  0  0  0  0  0  0  0
  149.7247  138.9402  156.2308 C   0  0  1  0  0  0  0  0  0  0  0  0
  149.8726  137.8878  155.1147 C   0  0  0  0  0  0  0  0  0  0  0  0
  149.3483  138.3823  153.9009 O   0  0  0  0  0  0  0  0  0  0  0  0
  146.9927  134.0623  163.5429 H   0  0  0  0  0  0  0  0  0  0  0  0
  148.7457  139.1353  158.7992 H   0  0  0  0  0  0  0  0  0  0  0  0
  150.9071  137.5697  157.4571 H   0  0  0  0  0  0  0  0  0  0  0  0
  152.1336  139.3934  158.5869 H   0  0  0  0  0  0  0  0  0  0  0  0
  149.8880  140.8649  159.0055 H   0  0  0  0  0  0  0  0  0  0  0  0
  151.3382  141.7327  158.5315 H   0  0  0  0  0  0  0  0  0  0  0  0
  148.9071  141.4224  156.9125 H   0  0  0  0  0  0  0  0  0  0  0  0
  150.3640  142.3408  156.5384 H   0  0  0  0  0  0  0  0  0  0  0  0
  150.4535  140.5373  154.8653 H   0  0  0  0  0  0  0  0  0  0  0  0
  152.5373  140.8416  156.4354 H   0  0  0  0  0  0  0  0  0  0  0  0
  152.3797  139.1293  155.9931 H   0  0  0  0  0  0  0  0  0  0  0  0
  148.6620  139.1629  156.3459 H   0  0  0  0  0  0  0  0  0  0  0  0
  150.9248  137.6492  154.9584 H   0  0  0  0  0  0  0  0  0  0  0  0
  149.3665  136.9571  155.3717 H   0  0  0  0  0  0  0  0  0  0  0  0
  149.2041  137.6545  153.3160 H   0  0  0  0  0  0  0  0  0  0  0  0
  1  2  2  0  0  0  0
  2  3  1  0  0  0  0
  2  9  1  0  0  0  0
  3  4  1  0  0  0  0
  4  8  1  0  0  0  0
  4  5  2  0  0  0  0
  5  6  1  0  0  0  0
  6  7  2  0  0  0  0
  7  8  1  0  0  0  0
  7 19  1  0  0  0  0
  9 10  1  0  0  0  0
  9 20  1  0  0  0  0
 10 16  1  0  0  0  0
 10 11  1  0  0  0  0
 10 21  1  0  0  0  0
 11 15  1  0  0  0  0
 11 12  1  0  0  0  0
 11 22  1  0  0  0  0
 12 13  1  0  0  0  0
 12 23  1  0  0  0  0
 12 24  1  0  0  0  0
 13 14  1  0  0  0  0
 13 25  1  0  0  0  0
 13 26  1  0  0  0  0
 14 15  1  0  0  0  0
 14 16  1  0  0  0  0
 14 27  1  0  0  0  0
 15 28  1  0  0  0  0
 15 29  1  0  0  0  0
 16 17  1  0  0  0  0
 16 30  1  0  0  0  0
 17 18  1  0  0  0  0
 17 31  1  0  0  0  0
 17 32  1  0  0  0  0
 18 33  1  0  0  0  0
M  CHG  1   3  -1
M  END
> <s_m_source_file>
AV-unprocessed.smi

> <i_m_source_file_index>
798

> <i_lp_mmshare_version>
43012

> <i_f3d_flags>
0

> <s_epik_input>
W0NIMl0xW0NIMl1bQ0BASF0oW0NIMl0yKVtDQEBIXShbQ0gyXVtPSF0pW0NAQEhdKFtDQEhdMTIpW05IXUMoPU8pW05IXWMzbm5bY0hdczM=

> <s_epik_cmdline>
J2VwaWtfcHl0aG9uJywgJy1waCcsICc3LjAnLCAnLXRuJywgJzgnLCAnLW1hJywgJzIwMCcsICctbWV0YWxfYmluZGluZycsICctaW1hZScsICc8aW5maWxlLm1hZT4nLCAnLW9tYWUnLCAnPG91dGZpbGUubWFlPic=

> <r_lp_tautomer_probability>
1

> <r_epik_Ionization_Penalty>
4.53732

> <r_epik_Ionization_Penalty_Charging>
4.48632

> <r_epik_Ionization_Penalty_Neutral>
0.0510007

> <r_epik_State_Penalty>
4.48602

> <r_epik_Charging_Adjusted_Penalty>
8.97234

> <i_epik_Tot_Q>
-1

> <i_epik_Tot_abs_Q>
1

> <r_epik_Metal_State_Penalty>
0.812492

> <b_epik_Metal_Only>
1

> <s_lp_Force_Field>
OPLS_2005

> <r_lp_Energy>
46.8419

> <b_lp_Chiralities_Consistent>
1

> <s_lp_Variant>
AV-unprocessed.smi:798-9

> <Gold.Version>
5.8.1

> <Gold.Id.Protein>
6NUR|6NUR_protein|mol2

> <Gold.PLP.Fitness>
40.3655

> <Gold.PLP.PLP>
-29.6604

> <Gold.PLP.part.hbond>
-4.5769

> <Gold.PLP.part.metal>
0.0000

> <Gold.PLP.part.buried>
-5.4608

> <Gold.PLP.part.nonpolar>
-21.7325

> <Gold.PLP.part.repulsive>
0.1885

> <Gold.PLP.ligand.clash>
0.0000

> <Gold.PLP.ligand.torsion>
0.4826

> <Gold.PLP.Chemscore.Hbond>
3.8776

> <Gold.PLP.Chemscore.CHOScore>
0.0000

> <Gold.PLP.Chemscore.Metal>
0.0000

> <Gold.Chemscore.Hbonds>
donor molecule, donor type, donor heavy atom, donor atom, acceptor molecule, acceptor atom, score
      L1  H    18    33       P1  7948  1.00
      P1  H  6896  6908       L1     1  1.00
      P1  H  6931  6943       L1     3  0.63
      P1  H  6934  6947       L1     3  1.28

> <Gold.PLP.Chemscore.Internal.Correction>
0.0374

> <Gold.Rescore>
     Score         DG    S(hbond)    S(metal)    S(lipo)     H(rot)  DE(clash)    DE(int)     intcor
     15.04     -15.72       2.64        0.00      54.35       1.92       0.00       0.68       ----

> <Gold.Chemscore.Fitness>
15.0414

> <Gold.Chemscore.DG>
-15.7232

> <Gold.Chemscore.ZeroCoef>
-5.4800

> <Gold.Chemscore.Hbond>
2.6352

> <Gold.Chemscore.Metal>
0.0000

> <Gold.Chemscore.Lipo>
54.3472

> <Gold.Chemscore.Internal_Hbond>
0.0000

> <Gold.Chemscore.DEClash>
0.0000

> <Gold.Chemscore.DEInternal>
0.6817

> <Gold.Chemscore.Rot>
1.9207

> <Gold.Chemscore.Internal.Correction>
   9.000000E+99

> <Gold.Chemscore.Hbonds>
donor molecule, donor type, donor heavy atom, donor atom, acceptor molecule, acceptor atom, score
      L1  H    18    33       P1  7948  0.93
      P1  H  6896  6908       L1     1  1.00
      P1  H  6931  6943       L1     3  0.01
      P1  H  6934  6947       L1     3  0.45

> <Gold.Chemscore.Hbond.Weighted>
-8.8014

> <Gold.Chemscore.Metal.Weighted>
-0.0000

> <Gold.Chemscore.Lipo.Weighted>
-6.3586

> <Gold.Chemscore.Internal_Hbond.Weighted>
0.0000

> <Gold.Chemscore.DEClash.Weighted>
0.0000

> <Gold.Chemscore.DEInternal.Weighted>
0.6817

> <Gold.Chemscore.Rot.Weighted>
4.9169

> <Gold.Chemscore.Internal.Correction.Weighted>
   9.000000E+99

> <Gold.Protein.RotatedTorsions>
[ 6907 6896 6895 6894 ] final -163.69 input  -60.11 | X-H torsion
[ 7974 7965 7964 7962 ] final -176.76 input  175.53 | X-H torsion
[ 8008 7997 7996 7995 ] final    5.97 input   59.86 | X-H torsion
[ 10167 10162 10161 10158 ] final   95.34 input  -65.29 | X-H torsion
[ 10718 10713 10712 10709 ] final  155.24 input   66.30 | X-H torsion
[ 10763 10752 10751 10750 ] final   -0.45 input  -60.55 | X-H torsion
[ 11005 11000 10999 10996 ] final -159.86 input  -57.11 | X-H torsion

> <Gold.Protein.ActiveResidues>
 VAL166  LYS551  ARG553  GLY616  TRP617  ASP618  TYR619  PRO620  LYS621  CYS622 
 ASP623  PHE694  ASN695  SER759  ASP760  ASP761  ALA762  ILE779  LEU786  VAL792 
 PHE793  MET794  SER795  GLU796  ALA797  LYS798  CYS799  TRP800  GLU811  SER814 

> <Gold.Protein.RotatedAtoms>
  151.4000  133.3760  159.2730 H   0  0  0  0  0  0  0  0  0  0  0  0  # atno 6907 bound_to 6896
  150.9441  134.8848  159.7641 H   0  0  0  0  0  0  0  0  0  0  0  0  # atno 6908 bound_to 6896
  152.5084  134.3952  159.9450 H   0  0  0  0  0  0  0  0  0  0  0  0  # atno 6909 bound_to 6896
  144.7127  140.1122  143.6410 H   0  0  0  0  0  0  0  0  0  0  0  0  # atno 7974 bound_to 7965
  154.7350  140.2738  155.6422 H   0  0  0  0  0  0  0  0  0  0  0  0  # atno 8008 bound_to 7997
  156.2859  140.2708  156.1987 H   0  0  0  0  0  0  0  0  0  0  0  0  # atno 8009 bound_to 7997
  155.0332  140.0371  157.2471 H   0  0  0  0  0  0  0  0  0  0  0  0  # atno 8010 bound_to 7997
  139.7998  144.6818  150.9780 H   0  0  0  0  0  0  0  0  0  0  0  0  # atno 10167 bound_to 10162
  157.2210  131.0718  151.1912 H   0  0  0  0  0  0  0  0  0  0  0  0  # atno 10718 bound_to 10713
  153.3320  135.6975  153.6939 H   0  0  0  0  0  0  0  0  0  0  0  0  # atno 10763 bound_to 10752
  153.5738  135.3511  155.2849 H   0  0  0  0  0  0  0  0  0  0  0  0  # atno 10764 bound_to 10752
  154.8620  135.4278  154.2512 H   0  0  0  0  0  0  0  0  0  0  0  0  # atno 10765 bound_to 10752
  140.6379  134.4582  157.5232 H   0  0  0  0  0  0  0  0  0  0  0  0  # atno 11005 bound_to 11000
  145.9445  139.2691  143.1249 LP  0  0  0  0  0  0  0  0  0  0  0  0  # atno 17320 bound_to 7965
  145.9389  140.8994  143.0318 LP  0  0  0  0  0  0  0  0  0  0  0  0  # atno 17321 bound_to 7965
  140.7820  143.4294  151.0718 LP  0  0  0  0  0  0  0  0  0  0  0  0  # atno 17342 bound_to 10162
  139.7966  143.8143  152.3158 LP  0  0  0  0  0  0  0  0  0  0  0  0  # atno 17343 bound_to 10162
  157.3576  130.7114  149.6480 LP  0  0  0  0  0  0  0  0  0  0  0  0  # atno 17370 bound_to 10713
  155.9682  130.4235  150.4564 LP  0  0  0  0  0  0  0  0  0  0  0  0  # atno 17371 bound_to 10713
  139.9091  134.8384  156.1594 LP  0  0  0  0  0  0  0  0  0  0  0  0  # atno 17394 bound_to 11000
  141.0628  133.6833  156.1986 LP  0  0  0  0  0  0  0  0  0  0  0  0  # atno 17395 bound_to 11000

$$$$
