AV-unprocessed.smi:1616|AV-procd|sdf|6482|dock3
  -GOLD-   22720 7143D 1   1.00000     0.00000
 Structure written by MMmdl.
 38 39  0  0  0  0  0  0  0  0  1 V2000
  147.4400  141.5443  154.3138 C   0  0  0  0  0  0  0  0  0  0  0  0
  148.7891  141.0287  154.7365 C   0  0  0  0  0  0  0  0  0  0  0  0
  149.5351  141.8401  155.4113 N   0  0  0  0  0  0  0  0  0  0  0  0
  150.7942  141.4700  155.8427 N   0  0  0  0  0  0  0  0  0  0  0  0
  151.5092  142.5258  156.5750 C   0  0  0  0  0  0  0  0  0  0  0  0
  151.6034  142.2708  158.0869 C   0  0  0  0  0  0  0  0  0  0  0  0
  150.6266  141.8773  158.7267 O   0  0  0  0  0  0  0  0  0  0  0  0
  152.8053  142.4915  158.6415 N   0  0  0  0  0  0  0  0  0  0  0  0
  153.1382  142.3066  160.0505 C   0  0  2  0  0  0  0  0  0  0  0  0
  153.3350  140.8111  160.3446 C   0  0  0  0  0  0  0  0  0  0  0  0
  152.0965  142.9077  160.9752 C   0  0  0  0  0  0  0  0  0  0  0  0
  151.8380  144.3951  160.9964 C   0  0  0  0  0  0  0  0  0  0  0  0
  152.5017  143.7249  162.1786 C   0  0  0  0  0  0  0  0  0  0  0  0
  151.3651  140.2513  155.6179 C   0  0  0  0  0  0  0  0  0  0  0  0
  152.4933  139.9641  156.0211 O   0  0  0  0  0  0  0  0  0  0  0  0
  150.5126  139.3356  154.8562 C   0  0  0  0  0  0  0  0  0  0  0  0
  151.0720  138.0483  154.5969 C   0  0  0  0  0  0  0  0  0  0  0  0
  151.5106  137.0008  154.3713 N   0  0  0  0  0  0  0  0  0  0  0  0
  149.2758  139.6887  154.4248 C   0  0  0  0  0  0  0  0  0  0  0  0
  148.3524  138.7771  153.6279 C   0  0  0  0  0  0  0  0  0  0  0  0
  146.6419  140.9466  154.7548 H   0  0  0  0  0  0  0  0  0  0  0  0
  147.3334  141.5054  153.2295 H   0  0  0  0  0  0  0  0  0  0  0  0
  147.2850  142.5797  154.6220 H   0  0  0  0  0  0  0  0  0  0  0  0
  152.5242  142.6289  156.1863 H   0  0  0  0  0  0  0  0  0  0  0  0
  151.0324  143.4926  156.4021 H   0  0  0  0  0  0  0  0  0  0  0  0
  153.5505  142.8109  158.0396 H   0  0  0  0  0  0  0  0  0  0  0  0
  154.0820  142.8154  160.2562 H   0  0  0  0  0  0  0  0  0  0  0  0
  153.6173  140.6505  161.3857 H   0  0  0  0  0  0  0  0  0  0  0  0
  154.1233  140.3846  159.7235 H   0  0  0  0  0  0  0  0  0  0  0  0
  152.4212  140.2461  160.1572 H   0  0  0  0  0  0  0  0  0  0  0  0
  151.2222  142.2741  161.1141 H   0  0  0  0  0  0  0  0  0  0  0  0
  152.4584  145.0272  160.3640 H   0  0  0  0  0  0  0  0  0  0  0  0
  150.8080  144.7242  161.1171 H   0  0  0  0  0  0  0  0  0  0  0  0
  151.9135  143.6075  163.0862 H   0  0  0  0  0  0  0  0  0  0  0  0
  153.5626  143.9134  162.3308 H   0  0  0  0  0  0  0  0  0  0  0  0
  148.7793  137.7859  153.4781 H   0  0  0  0  0  0  0  0  0  0  0  0
  148.1543  139.2013  152.6432 H   0  0  0  0  0  0  0  0  0  0  0  0
  147.4009  138.6467  154.1445 H   0  0  0  0  0  0  0  0  0  0  0  0
  1  2  1  0  0  0  0
  1 21  1  0  0  0  0
  1 22  1  0  0  0  0
  1 23  1  0  0  0  0
  2 19  1  0  0  0  0
  2  3  2  0  0  0  0
  3  4  1  0  0  0  0
  4  5  1  0  0  0  0
  4 14  1  0  0  0  0
  5  6  1  0  0  0  0
  5 24  1  0  0  0  0
  5 25  1  0  0  0  0
  6  7  2  0  0  0  0
  6  8  1  0  0  0  0
  8  9  1  0  0  0  0
  8 26  1  0  0  0  0
  9 10  1  0  0  0  0
  9 11  1  0  0  0  0
  9 27  1  0  0  0  0
 10 28  1  0  0  0  0
 10 29  1  0  0  0  0
 10 30  1  0  0  0  0
 11 13  1  0  0  0  0
 11 12  1  0  0  0  0
 11 31  1  0  0  0  0
 12 13  1  0  0  0  0
 12 32  1  0  0  0  0
 12 33  1  0  0  0  0
 13 34  1  0  0  0  0
 13 35  1  0  0  0  0
 14 15  2  0  0  0  0
 14 16  1  0  0  0  0
 16 17  1  0  0  0  0
 16 19  2  0  0  0  0
 17 18  3  0  0  0  0
 19 20  1  0  0  0  0
 20 36  1  0  0  0  0
 20 37  1  0  0  0  0
 20 38  1  0  0  0  0
M  END
> <s_m_source_file>
AV-unprocessed.smi

> <i_m_source_file_index>
1616

> <i_lp_mmshare_version>
43012

> <i_f3d_flags>
0

> <s_epik_input>
TiNDYyhjMVtDSDNdKWMoPU8pbihuYzFbQ0gzXSlbQ0gyXUMoPU8pW05IXVtDQEhdKFtDSDNdKVtDSF0yW0NIMl1bQ0gyXTI=

> <s_epik_cmdline>
J2VwaWtfcHl0aG9uJywgJy1waCcsICc3LjAnLCAnLXRuJywgJzgnLCAnLW1hJywgJzIwMCcsICctbWV0YWxfYmluZGluZycsICctaW1hZScsICc8aW5maWxlLm1hZT4nLCAnLW9tYWUnLCAnPG91dGZpbGUubWFlPic=

> <r_lp_tautomer_probability>
1

> <r_epik_Ionization_Penalty>
1.93246e-08

> <r_epik_Ionization_Penalty_Charging>
2.27031e-11

> <r_epik_Ionization_Penalty_Neutral>
1.93019e-08

> <r_epik_State_Penalty>
-0

> <r_epik_Charging_Adjusted_Penalty>
2.27031e-11

> <i_epik_Tot_Q>
0

> <i_epik_Tot_abs_Q>
0

> <r_epik_Metal_State_Penalty>
-0

> <b_epik_Metal_Only>
0

> <s_lp_Force_Field>
OPLS_2005

> <r_lp_Energy>
28.018

> <b_lp_Chiralities_Consistent>
1

> <s_lp_Variant>
AV-unprocessed.smi:1616-1

> <Gold.Version>
5.8.1

> <Gold.Id.Protein>
6NUR|6NUR_protein|mol2

> <Gold.PLP.Fitness>
45.7287

> <Gold.PLP.PLP>
-41.0141

> <Gold.PLP.part.hbond>
-2.0000

> <Gold.PLP.part.metal>
0.0000

> <Gold.PLP.part.buried>
-2.4785

> <Gold.PLP.part.nonpolar>
-35.9220

> <Gold.PLP.part.repulsive>
1.3044

> <Gold.PLP.ligand.clash>
0.0000

> <Gold.PLP.ligand.torsion>
1.1759

> <Gold.PLP.Chemscore.Hbond>
2.0000

> <Gold.PLP.Chemscore.CHOScore>
0.0000

> <Gold.PLP.Chemscore.Metal>
0.0000

> <Gold.Chemscore.Hbonds>
donor molecule, donor type, donor heavy atom, donor atom, acceptor molecule, acceptor atom, score
      P1  H  7997  8010       L1    15  1.00
      P1  H 10752 10763       L1    18  1.00

> <Gold.PLP.Chemscore.Internal.Correction>
1.0665

> <Gold.Rescore>
     Score         DG    S(hbond)    S(metal)    S(lipo)     H(rot)  DE(clash)    DE(int)     intcor
     14.96     -18.94       1.97        0.00      95.48       1.68       1.47       2.52       ----

> <Gold.Chemscore.Fitness>
14.9569

> <Gold.Chemscore.DG>
-18.9404

> <Gold.Chemscore.ZeroCoef>
-5.4800

> <Gold.Chemscore.Hbond>
1.9736

> <Gold.Chemscore.Metal>
0.0000

> <Gold.Chemscore.Lipo>
95.4821

> <Gold.Chemscore.Internal_Hbond>
0.0000

> <Gold.Chemscore.DEClash>
1.4658

> <Gold.Chemscore.DEInternal>
2.5176

> <Gold.Chemscore.Rot>
1.6809

> <Gold.Chemscore.Internal.Correction>
   9.000000E+99

> <Gold.Chemscore.Hbonds>
donor molecule, donor type, donor heavy atom, donor atom, acceptor molecule, acceptor atom, score
      P1  H  7997  8010       L1    15  0.99
      P1  H 10752 10763       L1    18  0.98

> <Gold.Chemscore.Hbond.Weighted>
-6.5920

> <Gold.Chemscore.Metal.Weighted>
-0.0000

> <Gold.Chemscore.Lipo.Weighted>
-11.1714

> <Gold.Chemscore.Internal_Hbond.Weighted>
0.0000

> <Gold.Chemscore.DEClash.Weighted>
1.4658

> <Gold.Chemscore.DEInternal.Weighted>
2.5176

> <Gold.Chemscore.Rot.Weighted>
4.3030

> <Gold.Chemscore.Internal.Correction.Weighted>
   9.000000E+99

> <Gold.Protein.RotatedTorsions>
[ 6907 6896 6895 6894 ] final  121.38 input  -60.11 | X-H torsion
[ 7974 7965 7964 7962 ] final   -9.29 input  175.53 | X-H torsion
[ 8008 7997 7996 7995 ] final   74.27 input   59.86 | X-H torsion
[ 10167 10162 10161 10158 ] final   11.82 input  -65.29 | X-H torsion
[ 10718 10713 10712 10709 ] final  165.82 input   66.30 | X-H torsion
[ 10763 10752 10751 10750 ] final   38.97 input  -60.55 | X-H torsion
[ 11005 11000 10999 10996 ] final  -98.43 input  -57.11 | X-H torsion

> <Gold.Protein.ActiveResidues>
 VAL166  LYS551  ARG553  GLY616  TRP617  ASP618  TYR619  PRO620  LYS621  CYS622 
 ASP623  PHE694  ASN695  SER759  ASP760  ASP761  ALA762  ILE779  LEU786  VAL792 
 PHE793  MET794  SER795  GLU796  ALA797  LYS798  CYS799  TRP800  GLU811  SER814 

> <Gold.Protein.RotatedAtoms>
  152.4326  133.7304  159.6583 H   0  0  0  0  0  0  0  0  0  0  0  0  # atno 6907 bound_to 6896
  150.8206  133.8248  159.3146 H   0  0  0  0  0  0  0  0  0  0  0  0  # atno 6908 bound_to 6896
  151.5931  135.1054  160.0095 H   0  0  0  0  0  0  0  0  0  0  0  0  # atno 6909 bound_to 6896
  146.2256  140.2595  142.8351 H   0  0  0  0  0  0  0  0  0  0  0  0  # atno 7974 bound_to 7965
  155.7959  140.3478  155.5375 H   0  0  0  0  0  0  0  0  0  0  0  0  # atno 8008 bound_to 7997
  155.8587  140.0968  157.1648 H   0  0  0  0  0  0  0  0  0  0  0  0  # atno 8009 bound_to 7997
  154.4011  140.1362  156.3921 H   0  0  0  0  0  0  0  0  0  0  0  0  # atno 8010 bound_to 7997
  140.6107  143.8413  150.7063 H   0  0  0  0  0  0  0  0  0  0  0  0  # atno 10167 bound_to 10162
  157.0747  131.0376  151.2598 H   0  0  0  0  0  0  0  0  0  0  0  0  # atno 10718 bound_to 10713
  152.9982  135.6234  154.2391 H   0  0  0  0  0  0  0  0  0  0  0  0  # atno 10763 bound_to 10752
  154.2131  135.2799  155.2953 H   0  0  0  0  0  0  0  0  0  0  0  0  # atno 10764 bound_to 10752
  154.5590  135.5711  153.7048 H   0  0  0  0  0  0  0  0  0  0  0  0  # atno 10765 bound_to 10752
  141.1345  133.8244  157.0838 H   0  0  0  0  0  0  0  0  0  0  0  0  # atno 11005 bound_to 11000
  144.9350  140.8017  143.5665 LP  0  0  0  0  0  0  0  0  0  0  0  0  # atno 17320 bound_to 7965
  145.2542  139.2019  143.4926 LP  0  0  0  0  0  0  0  0  0  0  0  0  # atno 17321 bound_to 7965
  140.1981  143.3982  152.1813 LP  0  0  0  0  0  0  0  0  0  0  0  0  # atno 17342 bound_to 10162
  139.5359  144.7209  151.4895 LP  0  0  0  0  0  0  0  0  0  0  0  0  # atno 17343 bound_to 10162
  157.4849  130.7787  149.7450 LP  0  0  0  0  0  0  0  0  0  0  0  0  # atno 17370 bound_to 10713
  155.9940  130.3920  150.2876 LP  0  0  0  0  0  0  0  0  0  0  0  0  # atno 17371 bound_to 10713
  140.0435  134.9842  157.1006 LP  0  0  0  0  0  0  0  0  0  0  0  0  # atno 17394 bound_to 11000
  140.4099  134.1993  155.7163 LP  0  0  0  0  0  0  0  0  0  0  0  0  # atno 17395 bound_to 11000

$$$$
