AV-unprocessed.smi:3338|AV-procd|sdf|12875|dock10
  -GOLD-   2272019273D 1   1.00000     0.00000
 Structure written by MMmdl.
 44 45  0  0  0  0  0  0  0  0  2 V2000
  149.8808  144.5801  159.8635 C   0  0  0  0  0  0  0  0  0  0  0  0
  151.2636  145.1017  160.2918 C   0  0  2  0  0  0  0  0  0  0  0  0
  152.1605  145.4685  159.0953 C   0  0  0  0  0  0  0  0  0  0  0  0
  152.6881  144.2112  158.3908 C   0  0  0  0  0  0  0  0  0  0  0  0
  153.3798  143.2694  159.3890 C   0  0  0  0  0  0  0  0  0  0  0  0
  152.4715  142.9103  160.5088 N   0  3  1  0  0  0  0  0  0  0  0  0
  153.0682  141.8868  161.4040 C   0  0  0  0  0  0  0  0  0  0  0  0
  153.8419  140.8059  160.6318 C   0  0  0  0  0  0  0  0  0  0  0  0
  154.5003  139.8937  161.5560 N   0  0  0  0  0  0  0  0  0  0  0  0
  155.7934  139.9729  161.9049 C   0  0  0  0  0  0  0  0  0  0  0  0
  156.5577  140.8200  161.4411 O   0  0  0  0  0  0  0  0  0  0  0  0
  156.2883  138.9356  162.9284 C   0  0  1  0  0  0  0  0  0  0  0  0
  156.8540  139.5754  164.2119 C   0  0  0  0  0  0  0  0  0  0  0  0
  155.2421  137.9641  163.2290 N   0  0  0  0  0  0  0  0  0  0  0  0
  154.7692  137.5804  164.4676 C   0  0  0  0  0  0  0  0  0  0  0  0
  153.8063  136.6338  164.2645 C   0  0  0  0  0  0  0  0  0  0  0  0
  153.7583  136.4987  162.8493 C   0  0  0  0  0  0  0  0  0  0  0  0
  154.6197  137.2911  162.2330 N   0  0  0  0  0  0  0  0  0  0  0  0
  151.9912  144.1193  161.2332 C   0  0  0  0  0  0  0  0  0  0  0  0
  149.9504  143.6383  159.3188 H   0  0  0  0  0  0  0  0  0  0  0  0
  149.3729  145.2988  159.2196 H   0  0  0  0  0  0  0  0  0  0  0  0
  149.2419  144.4107  160.7306 H   0  0  0  0  0  0  0  0  0  0  0  0
  151.0834  146.0193  160.8535 H   0  0  0  0  0  0  0  0  0  0  0  0
  151.6201  146.1008  158.3901 H   0  0  0  0  0  0  0  0  0  0  0  0
  153.0065  146.0598  159.4485 H   0  0  0  0  0  0  0  0  0  0  0  0
  151.8688  143.6879  157.8971 H   0  0  0  0  0  0  0  0  0  0  0  0
  153.3868  144.4942  157.6027 H   0  0  0  0  0  0  0  0  0  0  0  0
  153.6955  142.3669  158.8638 H   0  0  0  0  0  0  0  0  0  0  0  0
  154.2819  143.7370  159.7873 H   0  0  0  0  0  0  0  0  0  0  0  0
  153.7661  142.3729  162.0877 H   0  0  0  0  0  0  0  0  0  0  0  0
  152.2898  141.4397  162.0246 H   0  0  0  0  0  0  0  0  0  0  0  0
  153.1778  140.2279  159.9891 H   0  0  0  0  0  0  0  0  0  0  0  0
  154.5913  141.2710  159.9891 H   0  0  0  0  0  0  0  0  0  0  0  0
  153.9354  139.1700  161.9765 H   0  0  0  0  0  0  0  0  0  0  0  0
  157.1059  138.3911  162.4530 H   0  0  0  0  0  0  0  0  0  0  0  0
  157.6771  140.2537  163.9848 H   0  0  0  0  0  0  0  0  0  0  0  0
  157.2391  138.8117  164.8882 H   0  0  0  0  0  0  0  0  0  0  0  0
  156.0962  140.1430  164.7535 H   0  0  0  0  0  0  0  0  0  0  0  0
  155.1526  138.0085  165.3822 H   0  0  0  0  0  0  0  0  0  0  0  0
  153.2239  136.1166  165.0127 H   0  0  0  0  0  0  0  0  0  0  0  0
  153.1293  135.8518  162.2557 H   0  0  0  0  0  0  0  0  0  0  0  0
  152.8449  144.6177  161.6956 H   0  0  0  0  0  0  0  0  0  0  0  0
  151.3202  143.8419  162.0453 H   0  0  0  0  0  0  0  0  0  0  0  0
  151.6613  142.4809  160.0851 H   0  0  0  0  0  0  0  0  0  0  0  0
  1  2  1  0  0  0  0
  1 20  1  0  0  0  0
  1 21  1  0  0  0  0
  1 22  1  0  0  0  0
  2 19  1  0  0  0  0
  2  3  1  0  0  0  0
  2 23  1  0  0  0  0
  3  4  1  0  0  0  0
  3 24  1  0  0  0  0
  3 25  1  0  0  0  0
  4  5  1  0  0  0  0
  4 26  1  0  0  0  0
  4 27  1  0  0  0  0
  5  6  1  0  0  0  0
  5 28  1  0  0  0  0
  5 29  1  0  0  0  0
  6  7  1  0  0  0  0
  6 19  1  0  0  0  0
  6 44  1  0  0  0  0
  7  8  1  0  0  0  0
  7 30  1  0  0  0  0
  7 31  1  0  0  0  0
  8  9  1  0  0  0  0
  8 32  1  0  0  0  0
  8 33  1  0  0  0  0
  9 10  1  0  0  0  0
  9 34  1  0  0  0  0
 10 11  2  0  0  0  0
 10 12  1  0  0  0  0
 12 13  1  0  0  0  0
 12 14  1  0  0  0  0
 12 35  1  0  0  0  0
 13 36  1  0  0  0  0
 13 37  1  0  0  0  0
 13 38  1  0  0  0  0
 14 18  1  0  0  0  0
 14 15  1  0  0  0  0
 15 16  2  0  0  0  0
 15 39  1  0  0  0  0
 16 17  1  0  0  0  0
 16 40  1  0  0  0  0
 17 18  2  0  0  0  0
 17 41  1  0  0  0  0
 19 42  1  0  0  0  0
 19 43  1  0  0  0  0
M  CHG  1   6   1
M  END
> <s_m_source_file>
AV-unprocessed.smi

> <i_m_source_file_index>
3338

> <i_lp_mmshare_version>
43012

> <i_f3d_flags>
0

> <s_epik_input>
W0NIM11bQ0BASF0xW0NIMl1bQ0gyXVtDSDJdTihbQ0gyXTEpW0NIMl1bQ0gyXVtOSF1DKD1PKVtDQEhdKFtDSDNdKW4yW2NIXVtjSF1bY0hdbjI=

> <s_epik_cmdline>
J2VwaWtfcHl0aG9uJywgJy1waCcsICc3LjAnLCAnLXRuJywgJzgnLCAnLW1hJywgJzIwMCcsICctbWV0YWxfYmluZGluZycsICctaW1hZScsICc8aW5maWxlLm1hZT4nLCAnLW9tYWUnLCAnPG91dGZpbGUubWFlPic=

> <r_lp_tautomer_probability>
1

> <r_epik_Ionization_Penalty>
0.00225707

> <r_epik_Ionization_Penalty_Charging>
0.00223709

> <r_epik_Ionization_Penalty_Neutral>
1.99775e-05

> <r_epik_State_Penalty>
0.00153978

> <r_epik_Charging_Adjusted_Penalty>
0.00377687

> <i_epik_Tot_Q>
1

> <i_epik_Tot_abs_Q>
1

> <r_epik_Metal_State_Penalty>
-0

> <b_epik_Metal_Only>
0

> <s_lp_Force_Field>
OPLS_2005

> <r_lp_Energy>
23.0994

> <b_lp_Chiralities_Consistent>
1

> <s_lp_Variant>
AV-unprocessed.smi:3338-7

> <Gold.Version>
5.8.1

> <Gold.Id.Protein>
6NUR|6NUR_protein|mol2

> <Gold.PLP.Fitness>
45.9963

> <Gold.PLP.PLP>
-46.6367

> <Gold.PLP.part.hbond>
-1.0000

> <Gold.PLP.part.metal>
0.0000

> <Gold.PLP.part.buried>
-7.1308

> <Gold.PLP.part.nonpolar>
-39.2031

> <Gold.PLP.part.repulsive>
0.0619

> <Gold.PLP.ligand.clash>
0.0000

> <Gold.PLP.ligand.torsion>
0.3853

> <Gold.PLP.Chemscore.Hbond>
0.0000

> <Gold.PLP.Chemscore.CHOScore>
0.0000

> <Gold.PLP.Chemscore.Metal>
0.0000

> <Gold.PLP.Chemscore.Internal.Correction>
0.1302

> <Gold.Rescore>
     Score         DG    S(hbond)    S(metal)    S(lipo)     H(rot)  DE(clash)    DE(int)     intcor
     13.77     -15.40       0.00        0.00     123.20       1.76       0.01       1.61       ----

> <Gold.Chemscore.Fitness>
13.7747

> <Gold.Chemscore.DG>
-15.3969

> <Gold.Chemscore.ZeroCoef>
-5.4800

> <Gold.Chemscore.Hbond>
0.0000

> <Gold.Chemscore.Metal>
0.0000

> <Gold.Chemscore.Lipo>
123.2036

> <Gold.Chemscore.Internal_Hbond>
0.0000

> <Gold.Chemscore.DEClash>
0.0077

> <Gold.Chemscore.DEInternal>
1.6145

> <Gold.Chemscore.Rot>
1.7570

> <Gold.Chemscore.Internal.Correction>
   9.000000E+99

> <Gold.Chemscore.Hbond.Weighted>
-0.0000

> <Gold.Chemscore.Metal.Weighted>
-0.0000

> <Gold.Chemscore.Lipo.Weighted>
-14.4148

> <Gold.Chemscore.Internal_Hbond.Weighted>
0.0000

> <Gold.Chemscore.DEClash.Weighted>
0.0077

> <Gold.Chemscore.DEInternal.Weighted>
1.6145

> <Gold.Chemscore.Rot.Weighted>
4.4979

> <Gold.Chemscore.Internal.Correction.Weighted>
   9.000000E+99

> <Gold.Protein.RotatedTorsions>
[ 6907 6896 6895 6894 ] final  -14.90 input  -60.11 | X-H torsion
[ 7974 7965 7964 7962 ] final -147.91 input  175.53 | X-H torsion
[ 8008 7997 7996 7995 ] final   86.93 input   59.86 | X-H torsion
[ 10167 10162 10161 10158 ] final   61.12 input  -65.29 | X-H torsion
[ 10718 10713 10712 10709 ] final   90.92 input   66.30 | X-H torsion
[ 10763 10752 10751 10750 ] final -152.41 input  -60.55 | X-H torsion
[ 11005 11000 10999 10996 ] final -140.35 input  -57.11 | X-H torsion

> <Gold.Protein.ActiveResidues>
 VAL166  LYS551  ARG553  GLY616  TRP617  ASP618  TYR619  PRO620  LYS621  CYS622 
 ASP623  PHE694  ASN695  SER759  ASP760  ASP761  ALA762  ILE779  LEU786  VAL792 
 PHE793  MET794  SER795  GLU796  ALA797  LYS798  CYS799  TRP800  GLU811  SER814 

> <Gold.Protein.RotatedAtoms>
  151.3323  135.0844  159.9342 H   0  0  0  0  0  0  0  0  0  0  0  0  # atno 6907 bound_to 6896
  152.5231  133.9530  159.7691 H   0  0  0  0  0  0  0  0  0  0  0  0  # atno 6908 bound_to 6896
  150.9871  133.6133  159.2743 H   0  0  0  0  0  0  0  0  0  0  0  0  # atno 6909 bound_to 6896
  144.8063  140.5265  143.5673 H   0  0  0  0  0  0  0  0  0  0  0  0  # atno 7974 bound_to 7965
  155.9690  140.3387  155.6558 H   0  0  0  0  0  0  0  0  0  0  0  0  # atno 8008 bound_to 7997
  155.6699  140.0725  157.2542 H   0  0  0  0  0  0  0  0  0  0  0  0  # atno 8009 bound_to 7997
  154.4162  140.1693  156.1855 H   0  0  0  0  0  0  0  0  0  0  0  0  # atno 8010 bound_to 7997
  140.1582  144.4396  150.6723 H   0  0  0  0  0  0  0  0  0  0  0  0  # atno 10167 bound_to 10162
  157.6960  131.0388  150.3650 H   0  0  0  0  0  0  0  0  0  0  0  0  # atno 10718 bound_to 10713
  154.7996  135.3237  154.7583 H   0  0  0  0  0  0  0  0  0  0  0  0  # atno 10763 bound_to 10752
  153.8254  135.6884  153.4826 H   0  0  0  0  0  0  0  0  0  0  0  0  # atno 10764 bound_to 10752
  153.1705  135.4625  154.9839 H   0  0  0  0  0  0  0  0  0  0  0  0  # atno 10765 bound_to 10752
  140.8431  134.2377  157.4800 H   0  0  0  0  0  0  0  0  0  0  0  0  # atno 11005 bound_to 11000
  145.5431  139.1475  143.3436 LP  0  0  0  0  0  0  0  0  0  0  0  0  # atno 17320 bound_to 7965
  146.2354  140.5570  142.8957 LP  0  0  0  0  0  0  0  0  0  0  0  0  # atno 17321 bound_to 7965
  140.6660  143.2268  151.5742 LP  0  0  0  0  0  0  0  0  0  0  0  0  # atno 17342 bound_to 10162
  139.5394  144.2691  152.1319 LP  0  0  0  0  0  0  0  0  0  0  0  0  # atno 17343 bound_to 10162
  156.4082  130.3929  149.6910 LP  0  0  0  0  0  0  0  0  0  0  0  0  # atno 17370 bound_to 10713
  156.4204  130.7766  151.2782 LP  0  0  0  0  0  0  0  0  0  0  0  0  # atno 17371 bound_to 10713
  139.8703  134.9645  156.4499 LP  0  0  0  0  0  0  0  0  0  0  0  0  # atno 17394 bound_to 11000
  140.8873  133.7874  155.9533 LP  0  0  0  0  0  0  0  0  0  0  0  0  # atno 17395 bound_to 11000

$$$$
