AV-unprocessed.smi:709|AV-procd|sdf|3459|dock8
  -GOLD-   22720 0443D 1   1.00000     0.00000
 Structure written by MMmdl.
 48 50  0  0  0  0  0  0  0  0  1 V2000
  148.5151  135.8125  159.7806 C   0  0  0  0  0  0  0  0  0  0  0  0
  149.7510  136.6919  159.5793 C   0  0  0  0  0  0  0  0  0  0  0  0
  149.7610  137.1647  158.2433 O   0  0  0  0  0  0  0  0  0  0  0  0
  150.4086  136.2761  157.3473 C   0  0  1  0  0  0  0  0  0  0  0  0
  149.5477  135.0937  156.8893 C   0  0  0  0  0  0  0  0  0  0  0  0
  150.2315  135.2705  155.5328 C   0  0  1  0  0  0  0  0  0  0  0  0
  149.3405  135.0034  154.4091 N   0  0  0  0  0  0  0  0  0  0  0  0
  148.6413  133.8719  154.2516 C   0  0  0  0  0  0  0  0  0  0  0  0
  148.6563  132.9516  155.0687 O   0  0  0  0  0  0  0  0  0  0  0  0
  147.9389  133.8964  153.1044 N   0  0  0  0  0  0  0  0  0  0  0  0
  147.1243  132.8994  152.5402 C   0  0  0  0  0  0  0  0  0  0  0  0
  147.1837  131.5831  152.8646 C   0  0  0  0  0  0  0  0  0  0  0  0
  146.3165  130.6218  152.2269 C   0  0  0  0  0  0  0  0  0  0  0  0
  145.4575  131.0584  151.2954 C   0  0  0  0  0  0  0  0  0  0  0  0
  145.3881  132.4147  150.9340 N   0  0  0  0  0  0  0  0  0  0  0  0
  144.4179  132.7928  149.9031 C   0  0  0  0  0  0  0  0  0  0  0  0
  146.1808  133.3689  151.5069 C   0  0  0  0  0  0  0  0  0  0  0  0
  146.0998  134.5526  151.1688 O   0  0  0  0  0  0  0  0  0  0  0  0
  150.4181  136.7733  155.8814 C   0  0  0  0  0  0  0  0  0  0  0  0
  151.6822  137.4559  155.3691 C   0  0  0  0  0  0  0  0  0  0  0  0
  151.3098  138.2261  154.0974 C   0  0  0  0  0  0  0  0  0  0  0  0
  149.7898  138.4074  154.1388 C   0  0  0  0  0  0  0  0  0  0  0  0
  149.3316  137.7719  155.4536 C   0  0  0  0  0  0  0  0  0  0  0  0
  148.4679  135.4343  160.8019 H   0  0  0  0  0  0  0  0  0  0  0  0
  148.5312  134.9561  159.1063 H   0  0  0  0  0  0  0  0  0  0  0  0
  147.6001  136.3734  159.5885 H   0  0  0  0  0  0  0  0  0  0  0  0
  149.7275  137.5319  160.2750 H   0  0  0  0  0  0  0  0  0  0  0  0
  150.6545  136.1164  159.7859 H   0  0  0  0  0  0  0  0  0  0  0  0
  151.4034  135.9734  157.6838 H   0  0  0  0  0  0  0  0  0  0  0  0
  149.7629  134.1502  157.3916 H   0  0  0  0  0  0  0  0  0  0  0  0
  148.4792  135.3176  156.8809 H   0  0  0  0  0  0  0  0  0  0  0  0
  151.1775  134.7243  155.4911 H   0  0  0  0  0  0  0  0  0  0  0  0
  149.2708  135.7161  153.6976 H   0  0  0  0  0  0  0  0  0  0  0  0
  147.9720  134.7570  152.5772 H   0  0  0  0  0  0  0  0  0  0  0  0
  147.8861  131.2072  153.5909 H   0  0  0  0  0  0  0  0  0  0  0  0
  146.3579  129.5764  152.4953 H   0  0  0  0  0  0  0  0  0  0  0  0
  144.7755  130.4023  150.7743 H   0  0  0  0  0  0  0  0  0  0  0  0
  144.9208  133.2596  149.0546 H   0  0  0  0  0  0  0  0  0  0  0  0
  143.6932  133.5039  150.3025 H   0  0  0  0  0  0  0  0  0  0  0  0
  143.8578  131.9399  149.5183 H   0  0  0  0  0  0  0  0  0  0  0  0
  152.0529  138.1553  156.1196 H   0  0  0  0  0  0  0  0  0  0  0  0
  152.4880  136.7467  155.1772 H   0  0  0  0  0  0  0  0  0  0  0  0
  151.8317  139.1823  154.0479 H   0  0  0  0  0  0  0  0  0  0  0  0
  151.5910  137.6556  153.2115 H   0  0  0  0  0  0  0  0  0  0  0  0
  149.5006  139.4571  154.0798 H   0  0  0  0  0  0  0  0  0  0  0  0
  149.3320  137.8957  153.2917 H   0  0  0  0  0  0  0  0  0  0  0  0
  148.3444  137.3196  155.3569 H   0  0  0  0  0  0  0  0  0  0  0  0
  149.2343  138.5608  156.2002 H   0  0  0  0  0  0  0  0  0  0  0  0
  1  2  1  0  0  0  0
  1 24  1  0  0  0  0
  1 25  1  0  0  0  0
  1 26  1  0  0  0  0
  2  3  1  0  0  0  0
  2 27  1  0  0  0  0
  2 28  1  0  0  0  0
  3  4  1  0  0  0  0
  4 19  1  0  0  0  0
  4  5  1  0  0  0  0
  4 29  1  0  0  0  0
  5  6  1  0  0  0  0
  5 30  1  0  0  0  0
  5 31  1  0  0  0  0
  6  7  1  0  0  0  0
  6 19  1  0  0  0  0
  6 32  1  0  0  0  0
  7  8  1  0  0  0  0
  7 33  1  0  0  0  0
  8  9  2  0  0  0  0
  8 10  1  0  0  0  0
 10 11  1  0  0  0  0
 10 34  1  0  0  0  0
 11 17  1  0  0  0  0
 11 12  2  0  0  0  0
 12 13  1  0  0  0  0
 12 35  1  0  0  0  0
 13 14  2  0  0  0  0
 13 36  1  0  0  0  0
 14 15  1  0  0  0  0
 14 37  1  0  0  0  0
 15 16  1  0  0  0  0
 15 17  1  0  0  0  0
 16 38  1  0  0  0  0
 16 39  1  0  0  0  0
 16 40  1  0  0  0  0
 17 18  2  0  0  0  0
 19 23  1  0  0  0  0
 19 20  1  0  0  0  0
 20 21  1  0  0  0  0
 20 41  1  0  0  0  0
 20 42  1  0  0  0  0
 21 22  1  0  0  0  0
 21 43  1  0  0  0  0
 21 44  1  0  0  0  0
 22 23  1  0  0  0  0
 22 45  1  0  0  0  0
 22 46  1  0  0  0  0
 23 47  1  0  0  0  0
 23 48  1  0  0  0  0
M  END
> <s_m_source_file>
AV-unprocessed.smi

> <i_m_source_file_index>
709

> <i_lp_mmshare_version>
43012

> <i_f3d_flags>
0

> <s_epik_input>
W0NIMl0xW0NIMl1bQ0gyXVtDSDJdQzEyW0NASF0oT1tDSDJdW0NIM10pW0NIMl1bQ0BIXTJbTkhdQyg9TylbTkhdYzNbY0hdW2NIXVtjSF1uKFtDSDNdKWMzPU8=

> <s_epik_cmdline>
J2VwaWtfcHl0aG9uJywgJy1waCcsICc3LjAnLCAnLXRuJywgJzgnLCAnLW1hJywgJzIwMCcsICctbWV0YWxfYmluZGluZycsICctaW1hZScsICc8aW5maWxlLm1hZT4nLCAnLW9tYWUnLCAnPG91dGZpbGUubWFlPic=

> <r_lp_tautomer_probability>
1

> <r_epik_Ionization_Penalty>
2.50859e-05

> <r_epik_Ionization_Penalty_Charging>
5.10493e-06

> <r_epik_Ionization_Penalty_Neutral>
1.9981e-05

> <r_epik_State_Penalty>
-0

> <r_epik_Charging_Adjusted_Penalty>
5.10493e-06

> <i_epik_Tot_Q>
0

> <i_epik_Tot_abs_Q>
0

> <r_epik_Metal_State_Penalty>
-0

> <b_epik_Metal_Only>
0

> <s_lp_Force_Field>
OPLS_2005

> <r_lp_Energy>
49.4881

> <b_lp_Chiralities_Consistent>
1

> <s_lp_Variant>
AV-unprocessed.smi:709-2

> <Gold.Version>
5.8.1

> <Gold.Id.Protein>
6NUR|6NUR_protein|mol2

> <Gold.PLP.Fitness>
41.0780

> <Gold.PLP.PLP>
-35.8139

> <Gold.PLP.part.hbond>
-2.0000

> <Gold.PLP.part.metal>
0.0000

> <Gold.PLP.part.buried>
-5.9379

> <Gold.PLP.part.nonpolar>
-27.9286

> <Gold.PLP.part.repulsive>
0.2370

> <Gold.PLP.ligand.clash>
0.0000

> <Gold.PLP.ligand.torsion>
0.5378

> <Gold.PLP.Chemscore.Hbond>
2.0000

> <Gold.PLP.Chemscore.CHOScore>
0.0000

> <Gold.PLP.Chemscore.Metal>
0.0000

> <Gold.Chemscore.Hbonds>
donor molecule, donor type, donor heavy atom, donor atom, acceptor molecule, acceptor atom, score
      L1  H     7    33       P1  7948  0.99
      L1  H    10    34       P1  7948  0.99

> <Gold.PLP.Chemscore.Internal.Correction>
0.3397

> <Gold.Rescore>
     Score         DG    S(hbond)    S(metal)    S(lipo)     H(rot)  DE(clash)    DE(int)     intcor
     14.58     -17.32       1.62        0.00      84.75       1.36       0.00       2.73       ----

> <Gold.Chemscore.Fitness>
14.5844

> <Gold.Chemscore.DG>
-17.3160

> <Gold.Chemscore.ZeroCoef>
-5.4800

> <Gold.Chemscore.Hbond>
1.6171

> <Gold.Chemscore.Metal>
0.0000

> <Gold.Chemscore.Lipo>
84.7536

> <Gold.Chemscore.Internal_Hbond>
0.0000

> <Gold.Chemscore.DEClash>
0.0004

> <Gold.Chemscore.DEInternal>
2.7313

> <Gold.Chemscore.Rot>
1.3599

> <Gold.Chemscore.Internal.Correction>
   9.000000E+99

> <Gold.Chemscore.Hbonds>
donor molecule, donor type, donor heavy atom, donor atom, acceptor molecule, acceptor atom, score
      L1  H     7    33       P1  7948  0.57
      L1  H    10    34       P1  7948  0.70

> <Gold.Chemscore.Hbond.Weighted>
-5.4011

> <Gold.Chemscore.Metal.Weighted>
-0.0000

> <Gold.Chemscore.Lipo.Weighted>
-9.9162

> <Gold.Chemscore.Internal_Hbond.Weighted>
0.0000

> <Gold.Chemscore.DEClash.Weighted>
0.0004

> <Gold.Chemscore.DEInternal.Weighted>
2.7313

> <Gold.Chemscore.Rot.Weighted>
3.4813

> <Gold.Chemscore.Internal.Correction.Weighted>
   9.000000E+99

> <Gold.Protein.RotatedTorsions>
[ 6907 6896 6895 6894 ] final  -48.60 input  -60.11 | X-H torsion
[ 7974 7965 7964 7962 ] final  -26.31 input  175.53 | X-H torsion
[ 8008 7997 7996 7995 ] final  161.32 input   59.86 | X-H torsion
[ 10167 10162 10161 10158 ] final -165.19 input  -65.29 | X-H torsion
[ 10718 10713 10712 10709 ] final -128.02 input   66.30 | X-H torsion
[ 10763 10752 10751 10750 ] final   70.93 input  -60.55 | X-H torsion
[ 11005 11000 10999 10996 ] final  -24.96 input  -57.11 | X-H torsion

> <Gold.Protein.ActiveResidues>
 VAL166  LYS551  ARG553  GLY616  TRP617  ASP618  TYR619  PRO620  LYS621  CYS622 
 ASP623  PHE694  ASN695  SER759  ASP760  ASP761  ALA762  ILE779  LEU786  VAL792 
 PHE793  MET794  SER795  GLU796  ALA797  LYS798  CYS799  TRP800  GLU811  SER814 

> <Gold.Protein.RotatedAtoms>
  150.8889  134.8290  159.7278 H   0  0  0  0  0  0  0  0  0  0  0  0  # atno 6907 bound_to 6896
  152.4825  134.4679  159.9636 H   0  0  0  0  0  0  0  0  0  0  0  0  # atno 6908 bound_to 6896
  151.4744  133.3522  159.2864 H   0  0  0  0  0  0  0  0  0  0  0  0  # atno 6909 bound_to 6896
  146.1433  140.5003  142.8642 H   0  0  0  0  0  0  0  0  0  0  0  0  # atno 7974 bound_to 7965
  156.2111  140.1780  156.7693 H   0  0  0  0  0  0  0  0  0  0  0  0  # atno 8008 bound_to 7997
  154.5724  140.0680  156.9013 H   0  0  0  0  0  0  0  0  0  0  0  0  # atno 8009 bound_to 7997
  155.2649  140.3338  155.4272 H   0  0  0  0  0  0  0  0  0  0  0  0  # atno 8010 bound_to 7997
  139.6199  144.0645  152.1923 H   0  0  0  0  0  0  0  0  0  0  0  0  # atno 10167 bound_to 10162
  156.1912  130.6796  151.0426 H   0  0  0  0  0  0  0  0  0  0  0  0  # atno 10718 bound_to 10713
  153.0369  135.5155  154.7516 H   0  0  0  0  0  0  0  0  0  0  0  0  # atno 10763 bound_to 10752
  154.6485  135.2922  155.0019 H   0  0  0  0  0  0  0  0  0  0  0  0  # atno 10764 bound_to 10752
  154.0911  135.6650  153.4905 H   0  0  0  0  0  0  0  0  0  0  0  0  # atno 10765 bound_to 10752
  140.8894  133.7599  156.0401 H   0  0  0  0  0  0  0  0  0  0  0  0  # atno 11005 bound_to 11000
  144.7818  140.5855  143.6600 LP  0  0  0  0  0  0  0  0  0  0  0  0  # atno 17320 bound_to 7965
  145.4995  139.1484  143.3665 LP  0  0  0  0  0  0  0  0  0  0  0  0  # atno 17321 bound_to 7965
  140.0284  144.6099  150.7508 LP  0  0  0  0  0  0  0  0  0  0  0  0  # atno 17342 bound_to 10162
  140.7375  143.2766  151.3722 LP  0  0  0  0  0  0  0  0  0  0  0  0  # atno 17343 bound_to 10162
  157.6930  131.0803  150.7052 LP  0  0  0  0  0  0  0  0  0  0  0  0  # atno 17370 bound_to 10713
  156.7109  130.4651  149.5547 LP  0  0  0  0  0  0  0  0  0  0  0  0  # atno 17371 bound_to 10713
  140.8366  134.3116  157.5329 LP  0  0  0  0  0  0  0  0  0  0  0  0  # atno 17394 bound_to 11000
  139.8728  134.9393  156.3737 LP  0  0  0  0  0  0  0  0  0  0  0  0  # atno 17395 bound_to 11000

$$$$
