AV-unprocessed.smi:1301|AV-procd|sdf|5424|dock5
  -GOLD-   22720 4583D 1   1.00000     0.00000
 Structure written by MMmdl.
 44 45  0  0  0  0  0  0  0  0  3 V2000
  149.0282  140.7614  154.4653 C   0  0  0  0  0  0  0  0  0  0  0  0
  149.9344  139.5849  154.5881 C   0  0  0  0  0  0  0  0  0  0  0  0
  149.7309  138.2395  154.4674 C   0  0  0  0  0  0  0  0  0  0  0  0
  151.0223  137.6938  154.7029 C   0  0  0  0  0  0  0  0  0  0  0  0
  151.3417  136.3905  154.7055 N   0  5  0  0  0  0  0  0  0  0  0  0
  150.5586  135.4994  155.3547 C   0  0  0  0  0  0  0  0  0  0  0  0
  150.7330  135.0631  156.4947 O   0  0  0  0  0  0  0  0  0  0  0  0
  149.5007  135.0955  154.6375 N   0  0  0  0  0  0  0  0  0  0  0  0
  148.4582  134.1682  155.0763 C   0  0  2  0  0  0  0  0  0  0  0  0
  148.6910  132.7789  154.4591 C   0  0  0  0  0  0  0  0  0  0  0  0
  148.4277  132.7741  152.9415 C   0  0  0  0  0  0  0  0  0  0  0  0
  147.0613  133.2651  152.6258 N   0  3  2  0  0  0  0  0  0  0  0  0
  146.7433  133.1469  151.1792 C   0  0  0  0  0  0  0  0  0  0  0  0
  145.3069  132.6459  150.9115 C   0  0  0  0  0  0  0  0  0  0  0  0
  145.0031  131.3419  151.6683 C   0  0  0  0  0  0  0  0  0  0  0  0
  145.0729  132.4575  149.4051 C   0  0  0  0  0  0  0  0  0  0  0  0
  146.8305  134.6303  153.1688 C   0  0  0  0  0  0  0  0  0  0  0  0
  147.0514  134.6661  154.6908 C   0  0  0  0  0  0  0  0  0  0  0  0
  151.9258  138.6245  154.9603 N   0  0  0  0  0  0  0  0  0  0  0  0
  151.2373  139.8409  154.8831 O   0  0  0  0  0  0  0  0  0  0  0  0
  148.4556  140.9030  155.3817 H   0  0  0  0  0  0  0  0  0  0  0  0
  148.3250  140.6237  153.6437 H   0  0  0  0  0  0  0  0  0  0  0  0
  149.5940  141.6737  154.2749 H   0  0  0  0  0  0  0  0  0  0  0  0
  148.8076  137.7272  154.2419 H   0  0  0  0  0  0  0  0  0  0  0  0
  149.4113  135.4746  153.7061 H   0  0  0  0  0  0  0  0  0  0  0  0
  148.5214  134.0773  156.1621 H   0  0  0  0  0  0  0  0  0  0  0  0
  149.7071  132.4394  154.6641 H   0  0  0  0  0  0  0  0  0  0  0  0
  148.0281  132.0575  154.9387 H   0  0  0  0  0  0  0  0  0  0  0  0
  149.1652  133.3901  152.4244 H   0  0  0  0  0  0  0  0  0  0  0  0
  148.5485  131.7573  152.5659 H   0  0  0  0  0  0  0  0  0  0  0  0
  146.9123  134.1110  150.6967 H   0  0  0  0  0  0  0  0  0  0  0  0
  147.4382  132.4494  150.7090 H   0  0  0  0  0  0  0  0  0  0  0  0
  144.5948  133.4000  151.2450 H   0  0  0  0  0  0  0  0  0  0  0  0
  145.6873  130.5447  151.3765 H   0  0  0  0  0  0  0  0  0  0  0  0
  143.9883  130.9984  151.4645 H   0  0  0  0  0  0  0  0  0  0  0  0
  145.0877  131.4762  152.7469 H   0  0  0  0  0  0  0  0  0  0  0  0
  145.7415  131.7028  148.9897 H   0  0  0  0  0  0  0  0  0  0  0  0
  145.2415  133.3874  148.8612 H   0  0  0  0  0  0  0  0  0  0  0  0
  144.0492  132.1415  149.2023 H   0  0  0  0  0  0  0  0  0  0  0  0
  147.4957  135.3397  152.6736 H   0  0  0  0  0  0  0  0  0  0  0  0
  145.8136  134.9575  152.9572 H   0  0  0  0  0  0  0  0  0  0  0  0
  146.3037  134.0366  155.1750 H   0  0  0  0  0  0  0  0  0  0  0  0
  146.8812  135.6751  155.0676 H   0  0  0  0  0  0  0  0  0  0  0  0
  146.4252  132.6463  153.1076 H   0  0  0  0  0  0  0  0  0  0  0  0
  1  2  1  0  0  0  0
  1 21  1  0  0  0  0
  1 22  1  0  0  0  0
  1 23  1  0  0  0  0
  2 20  1  0  0  0  0
  2  3  2  0  0  0  0
  3  4  1  0  0  0  0
  3 24  1  0  0  0  0
  4  5  1  0  0  0  0
  4 19  2  0  0  0  0
  5  6  1  0  0  0  0
  6  7  2  0  0  0  0
  6  8  1  0  0  0  0
  8  9  1  0  0  0  0
  8 25  1  0  0  0  0
  9 18  1  0  0  0  0
  9 10  1  0  0  0  0
  9 26  1  0  0  0  0
 10 11  1  0  0  0  0
 10 27  1  0  0  0  0
 10 28  1  0  0  0  0
 11 12  1  0  0  0  0
 11 29  1  0  0  0  0
 11 30  1  0  0  0  0
 12 13  1  0  0  0  0
 12 17  1  0  0  0  0
 12 44  1  0  0  0  0
 13 14  1  0  0  0  0
 13 31  1  0  0  0  0
 13 32  1  0  0  0  0
 14 15  1  0  0  0  0
 14 16  1  0  0  0  0
 14 33  1  0  0  0  0
 15 34  1  0  0  0  0
 15 35  1  0  0  0  0
 15 36  1  0  0  0  0
 16 37  1  0  0  0  0
 16 38  1  0  0  0  0
 16 39  1  0  0  0  0
 17 18  1  0  0  0  0
 17 40  1  0  0  0  0
 17 41  1  0  0  0  0
 18 42  1  0  0  0  0
 18 43  1  0  0  0  0
 19 20  1  0  0  0  0
M  CHG  1   5  -1
M  CHG  1  12   1
M  END
> <s_m_source_file>
AV-unprocessed.smi

> <i_m_source_file_index>
1301

> <i_lp_mmshare_version>
43012

> <i_f3d_flags>
0

> <s_epik_input>
W0NIM11jMVtjSF1jKG5vMSlbTkhdQyg9TylbTkhdW0NIXTJbQ0gyXVtDSDJdTihbQ0gyXVtDSDJdMilbQ0gyXVtDSF0oW0NIM10pW0NIM10=

> <s_epik_cmdline>
J2VwaWtfcHl0aG9uJywgJy1waCcsICc3LjAnLCAnLXRuJywgJzgnLCAnLW1hJywgJzIwMCcsICctbWV0YWxfYmluZGluZycsICctaW1hZScsICc8aW5maWxlLm1hZT4nLCAnLW9tYWUnLCAnPG91dGZpbGUubWFlPic=

> <r_epik_Ionization_Penalty>
6.28597

> <r_epik_Ionization_Penalty_Charging>
6.28587

> <r_epik_Ionization_Penalty_Neutral>
9.69304e-05

> <r_epik_State_Penalty>
6.28524

> <r_epik_Charging_Adjusted_Penalty>
12.5711

> <i_epik_Tot_Q>
0

> <i_epik_Tot_abs_Q>
2

> <r_epik_Metal_State_Penalty>
2.21973

> <b_epik_Metal_Only>
1

> <s_lp_Force_Field>
OPLS_2005

> <r_lp_Energy>
6.70583

> <b_lp_Chiralities_Consistent>
1

> <s_lp_Variant>
AV-unprocessed.smi:1301-4

> <Gold.Version>
5.8.1

> <Gold.Id.Protein>
6NUR|6NUR_protein|mol2

> <Gold.PLP.Fitness>
42.7046

> <Gold.PLP.PLP>
-34.2642

> <Gold.PLP.part.hbond>
-3.0000

> <Gold.PLP.part.metal>
0.0000

> <Gold.PLP.part.buried>
-4.2609

> <Gold.PLP.part.nonpolar>
-28.4933

> <Gold.PLP.part.repulsive>
0.3245

> <Gold.PLP.ligand.clash>
0.0000

> <Gold.PLP.ligand.torsion>
1.8936

> <Gold.PLP.Chemscore.Hbond>
4.0000

> <Gold.PLP.Chemscore.CHOScore>
0.0000

> <Gold.PLP.Chemscore.Metal>
0.0000

> <Gold.Chemscore.Hbonds>
donor molecule, donor type, donor heavy atom, donor atom, acceptor molecule, acceptor atom, score
      L1  H     8    25       P1  7948  1.00
      P1  H  7989  7998       L1    20  0.95
      P1  H 10752 10764       L1     5  2.00

> <Gold.PLP.Chemscore.Internal.Correction>
0.2275

> <Gold.Rescore>
     Score         DG    S(hbond)    S(metal)    S(lipo)     H(rot)  DE(clash)    DE(int)     intcor
     13.63     -15.55       1.51        0.00      73.62       1.41       0.04       1.88       ----

> <Gold.Chemscore.Fitness>
13.6285

> <Gold.Chemscore.DG>
-15.5470

> <Gold.Chemscore.ZeroCoef>
-5.4800

> <Gold.Chemscore.Hbond>
1.5131

> <Gold.Chemscore.Metal>
0.0000

> <Gold.Chemscore.Lipo>
73.6195

> <Gold.Chemscore.Internal_Hbond>
0.0000

> <Gold.Chemscore.DEClash>
0.0431

> <Gold.Chemscore.DEInternal>
1.8754

> <Gold.Chemscore.Rot>
1.4063

> <Gold.Chemscore.Internal.Correction>
   9.000000E+99

> <Gold.Chemscore.Hbonds>
donor molecule, donor type, donor heavy atom, donor atom, acceptor molecule, acceptor atom, score
      L1  H     8    25       P1  7948  0.29
      P1  H  7989  7998       L1    20  0.20
      P1  H 10752 10764       L1     5  0.34

> <Gold.Chemscore.Hbond.Weighted>
-5.0537

> <Gold.Chemscore.Metal.Weighted>
-0.0000

> <Gold.Chemscore.Lipo.Weighted>
-8.6135

> <Gold.Chemscore.Internal_Hbond.Weighted>
0.0000

> <Gold.Chemscore.DEClash.Weighted>
0.0431

> <Gold.Chemscore.DEInternal.Weighted>
1.8754

> <Gold.Chemscore.Rot.Weighted>
3.6002

> <Gold.Chemscore.Internal.Correction.Weighted>
   9.000000E+99

> <Gold.Protein.RotatedTorsions>
[ 6907 6896 6895 6894 ] final  -76.68 input  -60.11 | X-H torsion
[ 7974 7965 7964 7962 ] final  -37.62 input  175.53 | X-H torsion
[ 8008 7997 7996 7995 ] final   81.66 input   59.86 | X-H torsion
[ 10167 10162 10161 10158 ] final  -68.16 input  -65.29 | X-H torsion
[ 10718 10713 10712 10709 ] final -165.24 input   66.30 | X-H torsion
[ 10763 10752 10751 10750 ] final  -48.49 input  -60.55 | X-H torsion
[ 11005 11000 10999 10996 ] final -109.88 input  -57.11 | X-H torsion

> <Gold.Protein.ActiveResidues>
 VAL166  LYS551  ARG553  GLY616  TRP617  ASP618  TYR619  PRO620  LYS621  CYS622 
 ASP623  PHE694  ASN695  SER759  ASP760  ASP761  ALA762  ILE779  LEU786  VAL792 
 PHE793  MET794  SER795  GLU796  ALA797  LYS798  CYS799  TRP800  GLU811  SER814 

> <Gold.Protein.RotatedAtoms>
  150.7020  134.4536  159.5347 H   0  0  0  0  0  0  0  0  0  0  0  0  # atno 6907 bound_to 6896
  152.2224  134.8397  160.0493 H   0  0  0  0  0  0  0  0  0  0  0  0  # atno 6908 bound_to 6896
  151.9243  133.3559  159.3945 H   0  0  0  0  0  0  0  0  0  0  0  0  # atno 6909 bound_to 6896
  146.0559  140.6416  142.9020 H   0  0  0  0  0  0  0  0  0  0  0  0  # atno 7974 bound_to 7965
  155.9001  140.3434  155.6020 H   0  0  0  0  0  0  0  0  0  0  0  0  # atno 8008 bound_to 7997
  155.7510  140.0820  157.2220 H   0  0  0  0  0  0  0  0  0  0  0  0  # atno 8009 bound_to 7997
  154.4043  140.1553  156.2711 H   0  0  0  0  0  0  0  0  0  0  0  0  # atno 8010 bound_to 7997
  140.5528  143.2312  151.6878 H   0  0  0  0  0  0  0  0  0  0  0  0  # atno 10167 bound_to 10162
  156.6506  130.9006  151.3012 H   0  0  0  0  0  0  0  0  0  0  0  0  # atno 10718 bound_to 10713
  154.0786  135.6594  153.4834 H   0  0  0  0  0  0  0  0  0  0  0  0  # atno 10763 bound_to 10752
  153.0364  135.5174  154.7496 H   0  0  0  0  0  0  0  0  0  0  0  0  # atno 10764 bound_to 10752
  154.6584  135.3011  154.9866 H   0  0  0  0  0  0  0  0  0  0  0  0  # atno 10765 bound_to 10752
  141.0823  133.9199  157.2262 H   0  0  0  0  0  0  0  0  0  0  0  0  # atno 11005 bound_to 11000
  144.7148  140.4169  143.7053 LP  0  0  0  0  0  0  0  0  0  0  0  0  # atno 17320 bound_to 7965
  145.6644  139.1587  143.2790 LP  0  0  0  0  0  0  0  0  0  0  0  0  # atno 17321 bound_to 7965
  139.5035  144.3790  152.0395 LP  0  0  0  0  0  0  0  0  0  0  0  0  # atno 17342 bound_to 10162
  140.2908  144.3755  150.6089 LP  0  0  0  0  0  0  0  0  0  0  0  0  # atno 17343 bound_to 10162
  157.7142  130.9477  150.1195 LP  0  0  0  0  0  0  0  0  0  0  0  0  # atno 17370 bound_to 10713
  156.2087  130.3665  149.8697 LP  0  0  0  0  0  0  0  0  0  0  0  0  # atno 17371 bound_to 10713
  139.9637  135.0147  156.9331 LP  0  0  0  0  0  0  0  0  0  0  0  0  # atno 17394 bound_to 11000
  140.5442  134.0691  155.7350 LP  0  0  0  0  0  0  0  0  0  0  0  0  # atno 17395 bound_to 11000

$$$$
