AV-unprocessed.smi:2085|AV-procd|sdf|8516|dock4
  -GOLD-   2272011233D 1   1.00000     0.00000
 Structure written by MMmdl.
 30 31  0  0  0  0  0  0  0  0  1 V2000
  152.7671  138.2361  155.7494 C   0  0  0  0  0  0  0  0  0  0  0  0
  152.6169  139.6101  156.0906 O   0  0  0  0  0  0  0  0  0  0  0  0
  151.4339  140.2458  155.7639 C   0  0  0  0  0  0  0  0  0  0  0  0
  150.7554  139.8213  154.6683 N   0  0  0  0  0  0  0  0  0  0  0  0
  149.6038  140.4438  154.3440 C   0  0  0  0  0  0  0  0  0  0  0  0
  149.0741  141.5169  155.0832 C   0  0  0  0  0  0  0  0  0  0  0  0
  149.7757  141.9594  156.2198 C   0  0  0  0  0  0  0  0  0  0  0  0
  150.9793  141.3068  156.5820 C   0  0  0  0  0  0  0  0  0  0  0  0
  151.7791  141.6843  157.6966 N   0  0  0  0  0  0  0  0  0  0  0  0
  151.4379  142.4037  158.7820 C   0  0  0  0  0  0  0  0  0  0  0  0
  150.3034  142.8227  159.0104 O   0  0  0  0  0  0  0  0  0  0  0  0
  152.5544  142.6532  159.8069 C   0  0  2  0  0  0  0  0  0  0  0  0
  153.1539  141.3719  160.4025 C   0  0  0  0  0  0  0  0  0  0  0  0
  153.5322  141.8139  161.7983 C   0  0  0  0  0  0  0  0  0  0  0  0
  152.3856  142.7553  162.1424 C   0  0  0  0  0  0  0  0  0  0  0  0
  152.0510  143.4000  160.9184 O   0  0  0  0  0  0  0  0  0  0  0  0
  153.7478  137.8896  156.0746 H   0  0  0  0  0  0  0  0  0  0  0  0
  152.7035  138.0829  154.6712 H   0  0  0  0  0  0  0  0  0  0  0  0
  152.0169  137.6175  156.2444 H   0  0  0  0  0  0  0  0  0  0  0  0
  149.0928  140.0804  153.4648 H   0  0  0  0  0  0  0  0  0  0  0  0
  148.1533  141.9941  154.7819 H   0  0  0  0  0  0  0  0  0  0  0  0
  149.3850  142.7964  156.7769 H   0  0  0  0  0  0  0  0  0  0  0  0
  152.7227  141.3234  157.6916 H   0  0  0  0  0  0  0  0  0  0  0  0
  153.3406  143.2462  159.3381 H   0  0  0  0  0  0  0  0  0  0  0  0
  152.4129  140.5722  160.4573 H   0  0  0  0  0  0  0  0  0  0  0  0
  154.0093  141.0041  159.8350 H   0  0  0  0  0  0  0  0  0  0  0  0
  153.6311  140.9854  162.5002 H   0  0  0  0  0  0  0  0  0  0  0  0
  154.4755  142.3614  161.7764 H   0  0  0  0  0  0  0  0  0  0  0  0
  151.5196  142.1891  162.4878 H   0  0  0  0  0  0  0  0  0  0  0  0
  152.6508  143.4768  162.9152 H   0  0  0  0  0  0  0  0  0  0  0  0
  1  2  1  0  0  0  0
  1 17  1  0  0  0  0
  1 18  1  0  0  0  0
  1 19  1  0  0  0  0
  2  3  1  0  0  0  0
  3  8  1  0  0  0  0
  3  4  2  0  0  0  0
  4  5  1  0  0  0  0
  5  6  2  0  0  0  0
  5 20  1  0  0  0  0
  6  7  1  0  0  0  0
  6 21  1  0  0  0  0
  7  8  2  0  0  0  0
  7 22  1  0  0  0  0
  8  9  1  0  0  0  0
  9 10  1  0  0  0  0
  9 23  1  0  0  0  0
 10 11  2  0  0  0  0
 10 12  1  0  0  0  0
 12 16  1  0  0  0  0
 12 13  1  0  0  0  0
 12 24  1  0  0  0  0
 13 14  1  0  0  0  0
 13 25  1  0  0  0  0
 13 26  1  0  0  0  0
 14 15  1  0  0  0  0
 14 27  1  0  0  0  0
 14 28  1  0  0  0  0
 15 16  1  0  0  0  0
 15 29  1  0  0  0  0
 15 30  1  0  0  0  0
M  END
> <s_m_source_file>
AV-unprocessed.smi

> <i_m_source_file_index>
2085

> <i_lp_mmshare_version>
43012

> <i_f3d_flags>
0

> <s_epik_input>
W0NIM11PYzFuW2NIXVtjSF1bY0hdYzFbTkhdQyg9TylbQ0BASF0yW0NIMl1bQ0gyXVtDSDJdTzI=

> <s_epik_cmdline>
J2VwaWtfcHl0aG9uJywgJy1waCcsICc3LjAnLCAnLXRuJywgJzgnLCAnLW1hJywgJzIwMCcsICctbWV0YWxfYmluZGluZycsICctaW1hZScsICc8aW5maWxlLm1hZT4nLCAnLW9tYWUnLCAnPG91dGZpbGUubWFlPic=

> <r_lp_tautomer_probability>
1

> <r_epik_Ionization_Penalty>
2.59253e-05

> <r_epik_Ionization_Penalty_Charging>
0

> <r_epik_Ionization_Penalty_Neutral>
2.59253e-05

> <r_epik_State_Penalty>
-0

> <r_epik_Charging_Adjusted_Penalty>
0

> <i_epik_Tot_Q>
0

> <i_epik_Tot_abs_Q>
0

> <r_epik_Metal_State_Penalty>
-0

> <b_epik_Metal_Only>
0

> <s_lp_Force_Field>
OPLS_2005

> <r_lp_Energy>
24.0215

> <b_lp_Chiralities_Consistent>
1

> <s_lp_Variant>
AV-unprocessed.smi:2085-1

> <Gold.Version>
5.8.1

> <Gold.Id.Protein>
6NUR|6NUR_protein|mol2

> <Gold.PLP.Fitness>
42.3267

> <Gold.PLP.PLP>
-35.9743

> <Gold.PLP.part.hbond>
-2.7961

> <Gold.PLP.part.metal>
0.0000

> <Gold.PLP.part.buried>
-2.1409

> <Gold.PLP.part.nonpolar>
-30.9369

> <Gold.PLP.part.repulsive>
0.3082

> <Gold.PLP.ligand.clash>
0.0000

> <Gold.PLP.ligand.torsion>
0.4582

> <Gold.PLP.Chemscore.Hbond>
1.4375

> <Gold.PLP.Chemscore.CHOScore>
0.9830

> <Gold.PLP.Chemscore.Metal>
0.0000

> <Gold.Chemscore.Hbonds>
donor molecule, donor type, donor heavy atom, donor atom, acceptor molecule, acceptor atom, score
      P1  H  7989  7998       L1     4  0.36
      P1  H  7997  8010       L1     2  1.00
      L1  C     5    20       P1  7957  1.00

> <Gold.PLP.Chemscore.Internal.Correction>
0.0072

> <Gold.Rescore>
     Score         DG    S(hbond)    S(metal)    S(lipo)     H(rot)  DE(clash)    DE(int)     intcor
     12.82     -14.55       0.84        0.00      80.48       1.24       0.14       1.59       ----

> <Gold.Chemscore.Fitness>
12.8193

> <Gold.Chemscore.DG>
-14.5467

> <Gold.Chemscore.ZeroCoef>
-5.4800

> <Gold.Chemscore.Hbond>
0.8443

> <Gold.Chemscore.Metal>
0.0000

> <Gold.Chemscore.Lipo>
80.4798

> <Gold.Chemscore.Internal_Hbond>
0.0000

> <Gold.Chemscore.DEClash>
0.1391

> <Gold.Chemscore.DEInternal>
1.5883

> <Gold.Chemscore.Rot>
1.2381

> <Gold.Chemscore.Internal.Correction>
   9.000000E+99

> <Gold.Chemscore.Hbonds>
donor molecule, donor type, donor heavy atom, donor atom, acceptor molecule, acceptor atom, score
      P1  H  7997  8010       L1     2  0.35

> <Gold.Chemscore.Hbond.Weighted>
-2.8200

> <Gold.Chemscore.Metal.Weighted>
-0.0000

> <Gold.Chemscore.Lipo.Weighted>
-9.4161

> <Gold.Chemscore.Internal_Hbond.Weighted>
0.0000

> <Gold.Chemscore.DEClash.Weighted>
0.1391

> <Gold.Chemscore.DEInternal.Weighted>
1.5883

> <Gold.Chemscore.Rot.Weighted>
3.1694

> <Gold.Chemscore.Internal.Correction.Weighted>
   9.000000E+99

> <Gold.Protein.RotatedTorsions>
[ 6907 6896 6895 6894 ] final   74.22 input  -60.11 | X-H torsion
[ 7974 7965 7964 7962 ] final   11.64 input  175.53 | X-H torsion
[ 8008 7997 7996 7995 ] final   84.07 input   59.86 | X-H torsion
[ 10167 10162 10161 10158 ] final -176.18 input  -65.29 | X-H torsion
[ 10718 10713 10712 10709 ] final   -4.54 input   66.30 | X-H torsion
[ 10763 10752 10751 10750 ] final   96.65 input  -60.55 | X-H torsion
[ 11005 11000 10999 10996 ] final   93.81 input  -57.11 | X-H torsion

> <Gold.Protein.ActiveResidues>
 VAL166  LYS551  ARG553  GLY616  TRP617  ASP618  TYR619  PRO620  LYS621  CYS622 
 ASP623  PHE694  ASN695  SER759  ASP760  ASP761  ALA762  ILE779  LEU786  VAL792 
 PHE793  MET794  SER795  GLU796  ALA797  LYS798  CYS799  TRP800  GLU811  SER814 

> <Gold.Protein.RotatedAtoms>
  152.4964  134.4305  159.9510 H   0  0  0  0  0  0  0  0  0  0  0  0  # atno 6907 bound_to 6896
  151.4283  133.3672  159.2773 H   0  0  0  0  0  0  0  0  0  0  0  0  # atno 6908 bound_to 6896
  150.9173  134.8613  159.7525 H   0  0  0  0  0  0  0  0  0  0  0  0  # atno 6909 bound_to 6896
  146.2367  139.9455  142.8477 H   0  0  0  0  0  0  0  0  0  0  0  0  # atno 7974 bound_to 7965
  155.9323  140.3414  155.6259 H   0  0  0  0  0  0  0  0  0  0  0  0  # atno 8008 bound_to 7997
  155.7142  140.0775  157.2377 H   0  0  0  0  0  0  0  0  0  0  0  0  # atno 8009 bound_to 7997
  154.4087  140.1617  156.2317 H   0  0  0  0  0  0  0  0  0  0  0  0  # atno 8010 bound_to 7997
  139.5543  144.2029  152.1132 H   0  0  0  0  0  0  0  0  0  0  0  0  # atno 10167 bound_to 10162
  156.7597  130.5266  149.5787 H   0  0  0  0  0  0  0  0  0  0  0  0  # atno 10718 bound_to 10713
  153.2675  135.4211  155.0955 H   0  0  0  0  0  0  0  0  0  0  0  0  # atno 10763 bound_to 10752
  154.8443  135.3464  154.6291 H   0  0  0  0  0  0  0  0  0  0  0  0  # atno 10764 bound_to 10752
  153.6710  135.7043  153.5204 H   0  0  0  0  0  0  0  0  0  0  0  0  # atno 10765 bound_to 10752
  139.8805  134.8811  156.3773 H   0  0  0  0  0  0  0  0  0  0  0  0  # atno 11005 bound_to 11000
  145.1911  140.9812  143.4210 LP  0  0  0  0  0  0  0  0  0  0  0  0  # atno 17320 bound_to 7965
  144.9856  139.3739  143.6240 LP  0  0  0  0  0  0  0  0  0  0  0  0  # atno 17321 bound_to 7965
  140.1530  144.5096  150.6676 LP  0  0  0  0  0  0  0  0  0  0  0  0  # atno 17342 bound_to 10162
  140.6812  143.2328  151.5378 LP  0  0  0  0  0  0  0  0  0  0  0  0  # atno 17343 bound_to 10162
  156.1347  130.6202  151.0383 LP  0  0  0  0  0  0  0  0  0  0  0  0  # atno 17370 bound_to 10713
  157.6740  131.0855  150.7542 LP  0  0  0  0  0  0  0  0  0  0  0  0  # atno 17371 bound_to 10713
  140.9423  133.7506  156.0162 LP  0  0  0  0  0  0  0  0  0  0  0  0  # atno 17394 bound_to 11000
  140.8205  134.3295  157.5383 LP  0  0  0  0  0  0  0  0  0  0  0  0  # atno 17395 bound_to 11000

$$$$
