AV-unprocessed.smi:3347|AV-procd|sdf|12911|dock1
  -GOLD-   2272019323D 1   1.00000     0.00000
 Structure written by MMmdl.
 40 42  0  0  0  0  0  0  0  0  2 V2000
  150.3083  140.5003  156.4383 O   0  0  0  0  0  0  0  0  0  0  0  0
  150.0407  141.6588  156.1219 C   0  0  0  0  0  0  0  0  0  0  0  0
  149.2792  141.9751  155.0646 N   0  0  0  0  0  0  0  0  0  0  0  0
  148.6322  141.0197  154.1701 C   0  0  0  0  0  0  0  0  0  0  0  0
  147.1735  141.4071  153.8604 C   0  0  2  0  0  0  0  0  0  0  0  0
  146.9063  142.9083  153.9494 C   0  0  0  0  0  0  0  0  0  0  0  0
  145.3900  143.0128  154.1528 C   0  0  0  0  0  0  0  0  0  0  0  0
  144.9336  141.6935  154.6492 N   0  3  2  0  0  0  0  0  0  0  0  0
  144.0642  141.7622  155.8428 C   0  0  0  0  0  0  0  0  0  0  0  0
  143.1969  140.5403  156.0287 C   0  0  0  0  0  0  0  0  0  0  0  0
  142.5919  141.8292  155.5147 C   0  0  0  0  0  0  0  0  0  0  0  0
  146.1293  140.8445  154.8277 C   0  0  0  0  0  0  0  0  0  0  0  0
  150.4542  142.7642  156.7654 N   0  0  0  0  0  0  0  0  0  0  0  0
  151.2389  142.8840  157.9460 C   0  0  0  0  0  0  0  0  0  0  0  0
  151.7724  141.7969  158.6817 C   0  0  0  0  0  0  0  0  0  0  0  0
  152.5373  142.0652  159.8335 C   0  0  0  0  0  0  0  0  0  0  0  0
  152.7452  143.4067  160.2072 C   0  0  0  0  0  0  0  0  0  0  0  0
  152.2497  144.4524  159.5133 N   0  0  0  0  0  0  0  0  0  0  0  0
  151.5175  144.1875  158.4107 C   0  0  0  0  0  0  0  0  0  0  0  0
  149.1105  142.9534  154.8804 H   0  0  0  0  0  0  0  0  0  0  0  0
  149.2050  140.9044  153.2482 H   0  0  0  0  0  0  0  0  0  0  0  0
  148.6511  140.0466  154.6617 H   0  0  0  0  0  0  0  0  0  0  0  0
  146.9229  141.0768  152.8506 H   0  0  0  0  0  0  0  0  0  0  0  0
  147.4179  143.3270  154.8177 H   0  0  0  0  0  0  0  0  0  0  0  0
  147.2504  143.4513  153.0684 H   0  0  0  0  0  0  0  0  0  0  0  0
  145.1426  143.8242  154.8391 H   0  0  0  0  0  0  0  0  0  0  0  0
  144.8861  143.2164  153.2075 H   0  0  0  0  0  0  0  0  0  0  0  0
  144.4631  142.2938  156.7051 H   0  0  0  0  0  0  0  0  0  0  0  0
  143.3053  139.7190  155.3226 H   0  0  0  0  0  0  0  0  0  0  0  0
  142.9550  140.2478  157.0485 H   0  0  0  0  0  0  0  0  0  0  0  0
  141.9509  142.3850  156.1960 H   0  0  0  0  0  0  0  0  0  0  0  0
  142.2982  141.8646  154.4671 H   0  0  0  0  0  0  0  0  0  0  0  0
  145.9016  139.7950  154.6389 H   0  0  0  0  0  0  0  0  0  0  0  0
  146.4896  140.9308  155.8544 H   0  0  0  0  0  0  0  0  0  0  0  0
  150.1251  143.6396  156.3855 H   0  0  0  0  0  0  0  0  0  0  0  0
  151.6230  140.7691  158.3933 H   0  0  0  0  0  0  0  0  0  0  0  0
  152.9570  141.2592  160.4171 H   0  0  0  0  0  0  0  0  0  0  0  0
  153.3268  143.6463  161.0852 H   0  0  0  0  0  0  0  0  0  0  0  0
  151.1385  145.0494  157.8809 H   0  0  0  0  0  0  0  0  0  0  0  0
  144.3937  141.2805  153.9023 H   0  0  0  0  0  0  0  0  0  0  0  0
  1  2  2  0  0  0  0
  2  3  1  0  0  0  0
  2 13  1  0  0  0  0
  3  4  1  0  0  0  0
  3 20  1  0  0  0  0
  4  5  1  0  0  0  0
  4 21  1  0  0  0  0
  4 22  1  0  0  0  0
  5 12  1  0  0  0  0
  5  6  1  0  0  0  0
  5 23  1  0  0  0  0
  6  7  1  0  0  0  0
  6 24  1  0  0  0  0
  6 25  1  0  0  0  0
  7  8  1  0  0  0  0
  7 26  1  0  0  0  0
  7 27  1  0  0  0  0
  8  9  1  0  0  0  0
  8 12  1  0  0  0  0
  8 40  1  0  0  0  0
  9 11  1  0  0  0  0
  9 10  1  0  0  0  0
  9 28  1  0  0  0  0
 10 11  1  0  0  0  0
 10 29  1  0  0  0  0
 10 30  1  0  0  0  0
 11 31  1  0  0  0  0
 11 32  1  0  0  0  0
 12 33  1  0  0  0  0
 12 34  1  0  0  0  0
 13 14  1  0  0  0  0
 13 35  1  0  0  0  0
 14 19  1  0  0  0  0
 14 15  2  0  0  0  0
 15 16  1  0  0  0  0
 15 36  1  0  0  0  0
 16 17  2  0  0  0  0
 16 37  1  0  0  0  0
 17 18  1  0  0  0  0
 17 38  1  0  0  0  0
 18 19  2  0  0  0  0
 19 39  1  0  0  0  0
M  CHG  1   8   1
M  END
> <s_m_source_file>
AV-unprocessed.smi

> <i_m_source_file_index>
3347

> <i_lp_mmshare_version>
43012

> <i_f3d_flags>
0

> <s_epik_input>
W2NIXTFuW2NIXVtjSF1bY0hdYzFbTkhdQyg9TylbTkhdW0NIMl1bQ0BASF0yW0NIMl1bQ0gyXU4oW0NIMl0yKVtDSF0zW0NIMl1bQ0gyXTM=

> <s_epik_cmdline>
J2VwaWtfcHl0aG9uJywgJy1waCcsICc3LjAnLCAnLXRuJywgJzgnLCAnLW1hJywgJzIwMCcsICctbWV0YWxfYmluZGluZycsICctaW1hZScsICc8aW5maWxlLm1hZT4nLCAnLW9tYWUnLCAnPG91dGZpbGUubWFlPic=

> <r_epik_Ionization_Penalty>
0.00442629

> <r_epik_Ionization_Penalty_Charging>
0.000203384

> <r_epik_Ionization_Penalty_Neutral>
0.00422291

> <r_epik_State_Penalty>
0.00301008

> <r_epik_Charging_Adjusted_Penalty>
0.00321347

> <i_epik_Tot_Q>
1

> <i_epik_Tot_abs_Q>
1

> <r_epik_Metal_State_Penalty>
-0

> <b_epik_Metal_Only>
0

> <s_lp_Force_Field>
OPLS_2005

> <r_lp_Energy>
39.8414

> <b_lp_Chiralities_Consistent>
1

> <s_lp_Variant>
AV-unprocessed.smi:3347-1

> <Gold.Version>
5.8.1

> <Gold.Id.Protein>
6NUR|6NUR_protein|mol2

> <Gold.PLP.Fitness>
48.9747

> <Gold.PLP.PLP>
-38.0020

> <Gold.PLP.part.hbond>
-3.0000

> <Gold.PLP.part.metal>
0.0000

> <Gold.PLP.part.buried>
-5.4105

> <Gold.PLP.part.nonpolar>
-30.2790

> <Gold.PLP.part.repulsive>
0.2998

> <Gold.PLP.ligand.clash>
0.0000

> <Gold.PLP.ligand.torsion>
1.1311

> <Gold.PLP.Chemscore.Hbond>
3.9920

> <Gold.PLP.Chemscore.CHOScore>
0.0000

> <Gold.PLP.Chemscore.Metal>
0.0000

> <Gold.Chemscore.Hbonds>
donor molecule, donor type, donor heavy atom, donor atom, acceptor molecule, acceptor atom, score
      L1  H     3    20       P1  8028  0.94
      L1  H     8    40       P1 10175  2.00
      L1  H    13    35       P1  8028  1.00

> <Gold.PLP.Chemscore.Internal.Correction>
1.2589

> <Gold.Rescore>
     Score         DG    S(hbond)    S(metal)    S(lipo)     H(rot)  DE(clash)    DE(int)     intcor
     20.09     -22.42       2.93        0.00      92.13       1.42       0.08       2.25       ----

> <Gold.Chemscore.Fitness>
20.0905

> <Gold.Chemscore.DG>
-22.4198

> <Gold.Chemscore.ZeroCoef>
-5.4800

> <Gold.Chemscore.Hbond>
2.9345

> <Gold.Chemscore.Metal>
0.0000

> <Gold.Chemscore.Lipo>
92.1251

> <Gold.Chemscore.Internal_Hbond>
0.0000

> <Gold.Chemscore.DEClash>
0.0779

> <Gold.Chemscore.DEInternal>
2.2514

> <Gold.Chemscore.Rot>
1.4219

> <Gold.Chemscore.Internal.Correction>
   9.000000E+99

> <Gold.Chemscore.Hbonds>
donor molecule, donor type, donor heavy atom, donor atom, acceptor molecule, acceptor atom, score
      L1  H     3    20       P1  8028  0.91
      L1  H     8    40       P1 10175  0.40
      L1  H    13    35       P1  8028  0.98

> <Gold.Chemscore.Hbond.Weighted>
-9.8012

> <Gold.Chemscore.Metal.Weighted>
-0.0000

> <Gold.Chemscore.Lipo.Weighted>
-10.7786

> <Gold.Chemscore.Internal_Hbond.Weighted>
0.0000

> <Gold.Chemscore.DEClash.Weighted>
0.0779

> <Gold.Chemscore.DEInternal.Weighted>
2.2514

> <Gold.Chemscore.Rot.Weighted>
3.6401

> <Gold.Chemscore.Internal.Correction.Weighted>
   9.000000E+99

> <Gold.Protein.RotatedTorsions>
[ 6907 6896 6895 6894 ] final  -47.52 input  -60.11 | X-H torsion
[ 7974 7965 7964 7962 ] final  -98.20 input  175.53 | X-H torsion
[ 8008 7997 7996 7995 ] final   38.01 input   59.86 | X-H torsion
[ 10167 10162 10161 10158 ] final  128.47 input  -65.29 | X-H torsion
[ 10718 10713 10712 10709 ] final  104.15 input   66.30 | X-H torsion
[ 10763 10752 10751 10750 ] final   -0.02 input  -60.55 | X-H torsion
[ 11005 11000 10999 10996 ] final  -46.82 input  -57.11 | X-H torsion

> <Gold.Protein.ActiveResidues>
 VAL166  LYS551  ARG553  GLY616  TRP617  ASP618  TYR619  PRO620  LYS621  CYS622 
 ASP623  PHE694  ASN695  SER759  ASP760  ASP761  ALA762  ILE779  LEU786  VAL792 
 PHE793  MET794  SER795  GLU796  ALA797  LYS798  CYS799  TRP800  GLU811  SER814 

> <Gold.Protein.RotatedAtoms>
  150.9000  134.8411  159.7352 H   0  0  0  0  0  0  0  0  0  0  0  0  # atno 6907 bound_to 6896
  152.4887  134.4518  159.9586 H   0  0  0  0  0  0  0  0  0  0  0  0  # atno 6908 bound_to 6896
  151.4571  133.3563  159.2839 H   0  0  0  0  0  0  0  0  0  0  0  0  # atno 6909 bound_to 6896
  145.3238  140.9427  143.2701 H   0  0  0  0  0  0  0  0  0  0  0  0  # atno 7974 bound_to 7965
  155.2131  140.3325  155.4326 H   0  0  0  0  0  0  0  0  0  0  0  0  # atno 8008 bound_to 7997
  156.2362  140.1873  156.7160 H   0  0  0  0  0  0  0  0  0  0  0  0  # atno 8009 bound_to 7997
  154.6064  140.0615  156.9422 H   0  0  0  0  0  0  0  0  0  0  0  0  # atno 8010 bound_to 7997
  139.5525  144.6824  151.4279 H   0  0  0  0  0  0  0  0  0  0  0  0  # atno 10167 bound_to 10162
  157.6749  131.0797  150.5663 H   0  0  0  0  0  0  0  0  0  0  0  0  # atno 10718 bound_to 10713
  153.3265  135.6972  153.6985 H   0  0  0  0  0  0  0  0  0  0  0  0  # atno 10763 bound_to 10752
  153.5804  135.3499  155.2873 H   0  0  0  0  0  0  0  0  0  0  0  0  # atno 10764 bound_to 10752
  154.8609  135.4293  154.2443 H   0  0  0  0  0  0  0  0  0  0  0  0  # atno 10765 bound_to 10752
  141.0603  133.6711  156.3210 H   0  0  0  0  0  0  0  0  0  0  0  0  # atno 11005 bound_to 11000
  144.8918  139.4764  143.6674 LP  0  0  0  0  0  0  0  0  0  0  0  0  # atno 17320 bound_to 7965
  146.3072  139.7621  142.9047 LP  0  0  0  0  0  0  0  0  0  0  0  0  # atno 17321 bound_to 7965
  140.6791  143.8122  150.7098 LP  0  0  0  0  0  0  0  0  0  0  0  0  # atno 17342 bound_to 10162
  140.1570  143.4308  152.2093 LP  0  0  0  0  0  0  0  0  0  0  0  0  # atno 17343 bound_to 10162
  156.5965  130.4343  149.5915 LP  0  0  0  0  0  0  0  0  0  0  0  0  # atno 17370 bound_to 10713
  156.2541  130.6924  151.1671 LP  0  0  0  0  0  0  0  0  0  0  0  0  # atno 17371 bound_to 10713
  140.5882  134.5677  157.5494 LP  0  0  0  0  0  0  0  0  0  0  0  0  # atno 17394 bound_to 11000
  139.9426  134.7759  156.0640 LP  0  0  0  0  0  0  0  0  0  0  0  0  # atno 17395 bound_to 11000

$$$$
