AV-unprocessed.smi:1103|AV-procd|sdf|4771|dock3
  -GOLD-   22720 3313D 1   1.00000     0.00000
 Structure written by MMmdl.
 44 45  0  0  0  0  0  0  0  0  2 V2000
  145.8304  135.0736  151.8290 C   0  0  0  0  0  0  0  0  0  0  0  0
  145.8644  135.8483  153.1545 C   0  0  0  0  0  0  0  0  0  0  0  0
  146.6162  137.1245  153.0494 N   0  3  1  0  0  0  0  0  0  0  0  0
  146.1001  137.9890  151.9572 C   0  0  0  0  0  0  0  0  0  0  0  0
  146.9825  139.2331  151.7757 C   0  0  0  0  0  0  0  0  0  0  0  0
  147.0893  140.0227  153.0856 C   0  0  0  0  0  0  0  0  0  0  0  0
  147.5990  139.1160  154.2192 C   0  0  1  0  0  0  0  0  0  0  0  0
  147.7010  139.9009  155.5457 C   0  0  0  0  0  0  0  0  0  0  0  0
  148.7839  140.8800  155.5448 N   0  0  0  0  0  0  0  0  0  0  0  0
  149.8169  140.8869  156.4012 C   0  0  0  0  0  0  0  0  0  0  0  0
  149.9525  140.0508  157.2958 O   0  0  0  0  0  0  0  0  0  0  0  0
  150.8419  142.0106  156.2080 C   0  0  0  0  0  0  0  0  0  0  0  0
  151.1916  142.6651  157.4581 N   0  0  0  0  0  0  0  0  0  0  0  0
  151.1778  144.0124  157.7547 C   0  0  0  0  0  0  0  0  0  0  0  0
  151.5812  144.1521  159.0523 C   0  0  0  0  0  0  0  0  0  0  0  0
  151.7320  145.4107  159.8568 C   0  0  0  0  0  0  0  0  0  0  0  0
  151.8269  142.8126  159.4684 C   0  0  0  0  0  0  0  0  0  0  0  0
  151.5957  141.9267  158.5136 N   0  0  0  0  0  0  0  0  0  0  0  0
  146.7017  137.8632  154.3383 C   0  0  0  0  0  0  0  0  0  0  0  0
  145.1954  134.1917  151.9187 H   0  0  0  0  0  0  0  0  0  0  0  0
  146.8188  134.7279  151.5278 H   0  0  0  0  0  0  0  0  0  0  0  0
  145.4280  135.6886  151.0234 H   0  0  0  0  0  0  0  0  0  0  0  0
  144.8328  136.0608  153.4375 H   0  0  0  0  0  0  0  0  0  0  0  0
  146.2813  135.2316  153.9521 H   0  0  0  0  0  0  0  0  0  0  0  0
  146.0774  137.4296  151.0210 H   0  0  0  0  0  0  0  0  0  0  0  0
  145.0724  138.2829  152.1767 H   0  0  0  0  0  0  0  0  0  0  0  0
  147.9779  138.9323  151.4457 H   0  0  0  0  0  0  0  0  0  0  0  0
  146.5747  139.8687  150.9892 H   0  0  0  0  0  0  0  0  0  0  0  0
  147.7602  140.8718  152.9500 H   0  0  0  0  0  0  0  0  0  0  0  0
  146.1133  140.4345  153.3465 H   0  0  0  0  0  0  0  0  0  0  0  0
  148.6018  138.7843  153.9452 H   0  0  0  0  0  0  0  0  0  0  0  0
  146.7582  140.4069  155.7603 H   0  0  0  0  0  0  0  0  0  0  0  0
  147.8718  139.2122  156.3736 H   0  0  0  0  0  0  0  0  0  0  0  0
  148.7537  141.5953  154.8325 H   0  0  0  0  0  0  0  0  0  0  0  0
  151.7419  141.6010  155.7464 H   0  0  0  0  0  0  0  0  0  0  0  0
  150.4449  142.7650  155.5277 H   0  0  0  0  0  0  0  0  0  0  0  0
  150.8807  144.7518  157.0257 H   0  0  0  0  0  0  0  0  0  0  0  0
  151.9986  145.2002  160.8927 H   0  0  0  0  0  0  0  0  0  0  0  0
  150.8081  145.9893  159.8748 H   0  0  0  0  0  0  0  0  0  0  0  0
  152.5098  146.0572  159.4501 H   0  0  0  0  0  0  0  0  0  0  0  0
  152.1645  142.4596  160.4317 H   0  0  0  0  0  0  0  0  0  0  0  0
  145.6989  138.1475  154.6617 H   0  0  0  0  0  0  0  0  0  0  0  0
  147.1040  137.2046  155.1068 H   0  0  0  0  0  0  0  0  0  0  0  0
  147.5602  136.8783  152.7877 H   0  0  0  0  0  0  0  0  0  0  0  0
  1  2  1  0  0  0  0
  1 20  1  0  0  0  0
  1 21  1  0  0  0  0
  1 22  1  0  0  0  0
  2  3  1  0  0  0  0
  2 23  1  0  0  0  0
  2 24  1  0  0  0  0
  3 19  1  0  0  0  0
  3  4  1  0  0  0  0
  3 44  1  0  0  0  0
  4  5  1  0  0  0  0
  4 25  1  0  0  0  0
  4 26  1  0  0  0  0
  5  6  1  0  0  0  0
  5 27  1  0  0  0  0
  5 28  1  0  0  0  0
  6  7  1  0  0  0  0
  6 29  1  0  0  0  0
  6 30  1  0  0  0  0
  7  8  1  0  0  0  0
  7 19  1  0  0  0  0
  7 31  1  0  0  0  0
  8  9  1  0  0  0  0
  8 32  1  0  0  0  0
  8 33  1  0  0  0  0
  9 10  1  0  0  0  0
  9 34  1  0  0  0  0
 10 11  2  0  0  0  0
 10 12  1  0  0  0  0
 12 13  1  0  0  0  0
 12 35  1  0  0  0  0
 12 36  1  0  0  0  0
 13 18  1  0  0  0  0
 13 14  1  0  0  0  0
 14 15  2  0  0  0  0
 14 37  1  0  0  0  0
 15 16  1  0  0  0  0
 15 17  1  0  0  0  0
 16 38  1  0  0  0  0
 16 39  1  0  0  0  0
 16 40  1  0  0  0  0
 17 18  2  0  0  0  0
 17 41  1  0  0  0  0
 19 42  1  0  0  0  0
 19 43  1  0  0  0  0
M  CHG  1   3   1
M  END
> <s_m_source_file>
AV-unprocessed.smi

> <i_m_source_file_index>
1103

> <i_lp_mmshare_version>
43012

> <i_f3d_flags>
0

> <s_epik_input>
W0NIM11bQ0gyXU4xW0NIMl1bQ0gyXVtDSDJdW0NASF0oW0NIMl0xKVtDSDJdW05IXUMoPU8pW0NIMl1uMltjSF1jKFtDSDNdKVtjSF1uMg==

> <s_epik_cmdline>
J2VwaWtfcHl0aG9uJywgJy1waCcsICc3LjAnLCAnLXRuJywgJzgnLCAnLW1hJywgJzIwMCcsICctbWV0YWxfYmluZGluZycsICctaW1hZScsICc8aW5maWxlLm1hZT4nLCAnLW9tYWUnLCAnPG91dGZpbGUubWFlPic=

> <r_lp_tautomer_probability>
1

> <r_epik_Ionization_Penalty>
0.000672456

> <r_epik_Ionization_Penalty_Charging>
0.000647327

> <r_epik_Ionization_Penalty_Neutral>
2.51297e-05

> <r_epik_State_Penalty>
0.000409793

> <r_epik_Charging_Adjusted_Penalty>
0.00105712

> <i_epik_Tot_Q>
1

> <i_epik_Tot_abs_Q>
1

> <r_epik_Metal_State_Penalty>
-0

> <b_epik_Metal_Only>
0

> <s_lp_Force_Field>
OPLS_2005

> <r_lp_Energy>
19.0507

> <b_lp_Chiralities_Consistent>
1

> <s_lp_Variant>
AV-unprocessed.smi:1103-1

> <Gold.Version>
5.8.1

> <Gold.Id.Protein>
6NUR|6NUR_protein|mol2

> <Gold.PLP.Fitness>
42.6734

> <Gold.PLP.PLP>
-34.1917

> <Gold.PLP.part.hbond>
-1.0000

> <Gold.PLP.part.metal>
0.0000

> <Gold.PLP.part.buried>
-0.5648

> <Gold.PLP.part.nonpolar>
-32.4518

> <Gold.PLP.part.repulsive>
0.0843

> <Gold.PLP.ligand.clash>
0.0000

> <Gold.PLP.ligand.torsion>
0.2937

> <Gold.PLP.Chemscore.Hbond>
2.0000

> <Gold.PLP.Chemscore.CHOScore>
0.9937

> <Gold.PLP.Chemscore.Metal>
0.0000

> <Gold.Chemscore.Hbonds>
donor molecule, donor type, donor heavy atom, donor atom, acceptor molecule, acceptor atom, score
      L1  H     3    44       P1  7948  2.00
      L1  C    14    37       P1  8028  0.96

> <Gold.PLP.Chemscore.Internal.Correction>
0.0881

> <Gold.Rescore>
     Score         DG    S(hbond)    S(metal)    S(lipo)     H(rot)  DE(clash)    DE(int)     intcor
     13.49     -15.45       1.00        0.00      93.49       1.68       0.62       1.34       ----

> <Gold.Chemscore.Fitness>
13.4891

> <Gold.Chemscore.DG>
-15.4484

> <Gold.Chemscore.ZeroCoef>
-5.4800

> <Gold.Chemscore.Hbond>
0.9990

> <Gold.Chemscore.Metal>
0.0000

> <Gold.Chemscore.Lipo>
93.4890

> <Gold.Chemscore.Internal_Hbond>
0.0000

> <Gold.Chemscore.DEClash>
0.6233

> <Gold.Chemscore.DEInternal>
1.3360

> <Gold.Chemscore.Rot>
1.6823

> <Gold.Chemscore.Internal.Correction>
   9.000000E+99

> <Gold.Chemscore.Hbonds>
donor molecule, donor type, donor heavy atom, donor atom, acceptor molecule, acceptor atom, score
      L1  H     3    44       P1  7948  1.00

> <Gold.Chemscore.Hbond.Weighted>
-3.3367

> <Gold.Chemscore.Metal.Weighted>
-0.0000

> <Gold.Chemscore.Lipo.Weighted>
-10.9382

> <Gold.Chemscore.Internal_Hbond.Weighted>
0.0000

> <Gold.Chemscore.DEClash.Weighted>
0.6233

> <Gold.Chemscore.DEInternal.Weighted>
1.3360

> <Gold.Chemscore.Rot.Weighted>
4.3066

> <Gold.Chemscore.Internal.Correction.Weighted>
   9.000000E+99

> <Gold.Protein.RotatedTorsions>
[ 6907 6896 6895 6894 ] final  120.71 input  -60.11 | X-H torsion
[ 7974 7965 7964 7962 ] final  114.26 input  175.53 | X-H torsion
[ 8008 7997 7996 7995 ] final -109.75 input   59.86 | X-H torsion
[ 10167 10162 10161 10158 ] final   25.29 input  -65.29 | X-H torsion
[ 10718 10713 10712 10709 ] final  152.02 input   66.30 | X-H torsion
[ 10763 10752 10751 10750 ] final   79.21 input  -60.55 | X-H torsion
[ 11005 11000 10999 10996 ] final   73.98 input  -57.11 | X-H torsion

> <Gold.Protein.ActiveResidues>
 VAL166  LYS551  ARG553  GLY616  TRP617  ASP618  TYR619  PRO620  LYS621  CYS622 
 ASP623  PHE694  ASN695  SER759  ASP760  ASP761  ALA762  ILE779  LEU786  VAL792 
 PHE793  MET794  SER795  GLU796  ALA797  LYS798  CYS799  TRP800  GLU811  SER814 

> <Gold.Protein.RotatedAtoms>
  152.4377  133.7391  159.6630 H   0  0  0  0  0  0  0  0  0  0  0  0  # atno 6907 bound_to 6896
  150.8263  133.8156  159.3123 H   0  0  0  0  0  0  0  0  0  0  0  0  # atno 6908 bound_to 6896
  151.5823  135.1060  160.0071 H   0  0  0  0  0  0  0  0  0  0  0  0  # atno 6909 bound_to 6896
  145.2066  139.2926  143.4290 H   0  0  0  0  0  0  0  0  0  0  0  0  # atno 7974 bound_to 7965
  154.9641  140.0398  157.2204 H   0  0  0  0  0  0  0  0  0  0  0  0  # atno 8008 bound_to 7997
  154.7862  140.2827  155.6004 H   0  0  0  0  0  0  0  0  0  0  0  0  # atno 8009 bound_to 7997
  156.2943  140.2582  156.2698 H   0  0  0  0  0  0  0  0  0  0  0  0  # atno 8010 bound_to 7997
  140.5118  144.0148  150.6376 H   0  0  0  0  0  0  0  0  0  0  0  0  # atno 10167 bound_to 10162
  157.2632  131.0802  151.1651 H   0  0  0  0  0  0  0  0  0  0  0  0  # atno 10718 bound_to 10713
  153.0934  135.4848  154.8733 H   0  0  0  0  0  0  0  0  0  0  0  0  # atno 10763 bound_to 10752
  154.7296  135.3057  154.8915 H   0  0  0  0  0  0  0  0  0  0  0  0  # atno 10764 bound_to 10752
  153.9555  135.6818  153.4798 H   0  0  0  0  0  0  0  0  0  0  0  0  # atno 10765 bound_to 10752
  139.9413  134.7393  156.1092 H   0  0  0  0  0  0  0  0  0  0  0  0  # atno 11005 bound_to 11000
  146.3406  140.2328  142.8593 LP  0  0  0  0  0  0  0  0  0  0  0  0  # atno 17320 bound_to 7965
  144.9896  140.8535  143.5347 LP  0  0  0  0  0  0  0  0  0  0  0  0  # atno 17321 bound_to 7965
  140.3473  143.2984  152.0525 LP  0  0  0  0  0  0  0  0  0  0  0  0  # atno 17342 bound_to 10162
  139.4898  144.6400  151.6897 LP  0  0  0  0  0  0  0  0  0  0  0  0  # atno 17343 bound_to 10162
  157.3153  130.6910  149.6238 LP  0  0  0  0  0  0  0  0  0  0  0  0  # atno 17370 bound_to 10713
  155.9664  130.4351  150.5079 LP  0  0  0  0  0  0  0  0  0  0  0  0  # atno 17371 bound_to 10713
  141.1049  133.6664  156.2840 LP  0  0  0  0  0  0  0  0  0  0  0  0  # atno 17394 bound_to 11000
  140.5944  134.5618  157.5506 LP  0  0  0  0  0  0  0  0  0  0  0  0  # atno 17395 bound_to 11000

$$$$
