AV-unprocessed.smi:2249|AV-procd|sdf|9098|dock10
  -GOLD-   2272012293D 1   1.00000     0.00000
 Structure written by MMmdl.
 38 39  0  0  0  0  0  0  0  0  1 V2000
  149.2955  141.1711  154.3761 C   0  0  0  0  0  0  0  0  0  0  0  0
  149.8194  140.7023  155.7463 C   0  0  2  0  0  0  0  0  0  0  0  0
  150.6541  141.7601  156.3155 N   0  0  0  0  0  0  0  0  0  0  0  0
  150.5085  142.3006  157.5342 C   0  0  0  0  0  0  0  0  0  0  0  0
  149.6276  141.9647  158.3262 O   0  0  0  0  0  0  0  0  0  0  0  0
  151.4408  143.2431  157.7584 N   0  0  0  0  0  0  0  0  0  0  0  0
  151.6310  144.0036  158.8692 C   0  0  0  0  0  0  0  0  0  0  0  0
  151.3590  145.3308  159.0609 C   0  0  0  0  0  0  0  0  0  0  0  0
  151.7704  145.5378  160.4086 C   0  0  0  0  0  0  0  0  0  0  0  0
  152.2466  144.4396  160.9819 N   0  0  0  0  0  0  0  0  0  0  0  0
  152.1608  143.4844  160.0305 N   0  0  0  0  0  0  0  0  0  0  0  0
  152.6039  142.1336  160.3164 C   0  0  0  0  0  0  0  0  0  0  0  0
  150.6173  139.3738  155.6777 C   0  0  0  0  0  0  0  0  0  0  0  0
  152.0977  139.5864  155.3007 C   0  0  0  0  0  0  0  0  0  0  0  0
  152.8376  138.2456  155.1640 C   0  0  0  0  0  0  0  0  0  0  0  0
  152.1887  137.4262  154.1999 O   0  0  0  0  0  0  0  0  0  0  0  0
  150.8563  137.0952  154.5702 C   0  0  0  0  0  0  0  0  0  0  0  0
  150.0069  138.3719  154.6736 C   0  0  0  0  0  0  0  0  0  0  0  0
  148.5627  140.4779  153.9645 H   0  0  0  0  0  0  0  0  0  0  0  0
  150.1061  141.2721  153.6537 H   0  0  0  0  0  0  0  0  0  0  0  0
  148.8004  142.1397  154.4550 H   0  0  0  0  0  0  0  0  0  0  0  0
  148.9601  140.5399  156.3996 H   0  0  0  0  0  0  0  0  0  0  0  0
  151.4051  142.1021  155.7339 H   0  0  0  0  0  0  0  0  0  0  0  0
  152.0901  143.4137  157.0047 H   0  0  0  0  0  0  0  0  0  0  0  0
  150.9390  146.0477  158.3716 H   0  0  0  0  0  0  0  0  0  0  0  0
  151.7372  146.4499  160.9861 H   0  0  0  0  0  0  0  0  0  0  0  0
  153.4770  141.8996  159.7074 H   0  0  0  0  0  0  0  0  0  0  0  0
  151.8060  141.4282  160.0834 H   0  0  0  0  0  0  0  0  0  0  0  0
  152.8690  142.0306  161.3698 H   0  0  0  0  0  0  0  0  0  0  0  0
  150.5890  138.9119  156.6660 H   0  0  0  0  0  0  0  0  0  0  0  0
  152.1657  140.1342  154.3598 H   0  0  0  0  0  0  0  0  0  0  0  0
  152.6059  140.1899  156.0518 H   0  0  0  0  0  0  0  0  0  0  0  0
  153.8656  138.4170  154.8442 H   0  0  0  0  0  0  0  0  0  0  0  0
  152.8861  137.7287  156.1237 H   0  0  0  0  0  0  0  0  0  0  0  0
  150.4383  136.4284  153.8161 H   0  0  0  0  0  0  0  0  0  0  0  0
  150.8535  136.5484  155.5145 H   0  0  0  0  0  0  0  0  0  0  0  0
  148.9924  138.0984  154.9640 H   0  0  0  0  0  0  0  0  0  0  0  0
  149.9330  138.8361  153.6892 H   0  0  0  0  0  0  0  0  0  0  0  0
  1  2  1  0  0  0  0
  1 19  1  0  0  0  0
  1 20  1  0  0  0  0
  1 21  1  0  0  0  0
  2  3  1  0  0  0  0
  2 13  1  0  0  0  0
  2 22  1  0  0  0  0
  3  4  1  0  0  0  0
  3 23  1  0  0  0  0
  4  5  2  0  0  0  0
  4  6  1  0  0  0  0
  6  7  1  0  0  0  0
  6 24  1  0  0  0  0
  7 11  1  0  0  0  0
  7  8  2  0  0  0  0
  8  9  1  0  0  0  0
  8 25  1  0  0  0  0
  9 10  2  0  0  0  0
  9 26  1  0  0  0  0
 10 11  1  0  0  0  0
 11 12  1  0  0  0  0
 12 27  1  0  0  0  0
 12 28  1  0  0  0  0
 12 29  1  0  0  0  0
 13 18  1  0  0  0  0
 13 14  1  0  0  0  0
 13 30  1  0  0  0  0
 14 15  1  0  0  0  0
 14 31  1  0  0  0  0
 14 32  1  0  0  0  0
 15 16  1  0  0  0  0
 15 33  1  0  0  0  0
 15 34  1  0  0  0  0
 16 17  1  0  0  0  0
 17 18  1  0  0  0  0
 17 35  1  0  0  0  0
 17 36  1  0  0  0  0
 18 37  1  0  0  0  0
 18 38  1  0  0  0  0
M  END
> <s_m_source_file>
AV-unprocessed.smi

> <i_m_source_file_index>
2249

> <i_lp_mmshare_version>
43012

> <i_f3d_flags>
0

> <s_epik_input>
W0NIMl0xW0NIMl1PW0NIMl1bQ0gyXVtDSF0xW0NASF0oW0NIM10pW05IXUMoPU8pW05IXWMyW2NIXVtjSF1ubjJbQ0gzXQ==

> <s_epik_cmdline>
J2VwaWtfcHl0aG9uJywgJy1waCcsICc3LjAnLCAnLXRuJywgJzgnLCAnLW1hJywgJzIwMCcsICctbWV0YWxfYmluZGluZycsICctaW1hZScsICc8aW5maWxlLm1hZT4nLCAnLW9tYWUnLCAnPG91dGZpbGUubWFlPic=

> <r_lp_tautomer_probability>
1

> <r_epik_Ionization_Penalty>
4.67687e-05

> <r_epik_Ionization_Penalty_Charging>
0

> <r_epik_Ionization_Penalty_Neutral>
4.67687e-05

> <r_epik_State_Penalty>
-0

> <r_epik_Charging_Adjusted_Penalty>
0

> <i_epik_Tot_Q>
0

> <i_epik_Tot_abs_Q>
0

> <r_epik_Metal_State_Penalty>
-0

> <b_epik_Metal_Only>
0

> <s_lp_Force_Field>
OPLS_2005

> <r_lp_Energy>
12.7763

> <b_lp_Chiralities_Consistent>
1

> <s_lp_Variant>
AV-unprocessed.smi:2249-1

> <Gold.Version>
5.8.1

> <Gold.Id.Protein>
6NUR|6NUR_protein|mol2

> <Gold.PLP.Fitness>
39.7199

> <Gold.PLP.PLP>
-39.5360

> <Gold.PLP.part.hbond>
-1.0000

> <Gold.PLP.part.metal>
0.0000

> <Gold.PLP.part.buried>
-3.2775

> <Gold.PLP.part.nonpolar>
-37.4883

> <Gold.PLP.part.repulsive>
0.4720

> <Gold.PLP.ligand.clash>
0.0000

> <Gold.PLP.ligand.torsion>
1.2132

> <Gold.PLP.Chemscore.Hbond>
0.8640

> <Gold.PLP.Chemscore.CHOScore>
0.0000

> <Gold.PLP.Chemscore.Metal>
0.0000

> <Gold.Chemscore.Hbonds>
donor molecule, donor type, donor heavy atom, donor atom, acceptor molecule, acceptor atom, score
      P1  H 10752 10765       L1    16  0.85

> <Gold.PLP.Chemscore.Internal.Correction>
0.0182

> <Gold.Rescore>
     Score         DG    S(hbond)    S(metal)    S(lipo)     H(rot)  DE(clash)    DE(int)     intcor
     12.44     -13.64       0.55        0.00      81.64       1.26       0.12       1.08       ----

> <Gold.Chemscore.Fitness>
12.4396

> <Gold.Chemscore.DG>
-13.6417

> <Gold.Chemscore.ZeroCoef>
-5.4800

> <Gold.Chemscore.Hbond>
0.5487

> <Gold.Chemscore.Metal>
0.0000

> <Gold.Chemscore.Lipo>
81.6366

> <Gold.Chemscore.Internal_Hbond>
0.0000

> <Gold.Chemscore.DEClash>
0.1198

> <Gold.Chemscore.DEInternal>
1.0823

> <Gold.Chemscore.Rot>
1.2588

> <Gold.Chemscore.Internal.Correction>
   9.000000E+99

> <Gold.Chemscore.Hbonds>
donor molecule, donor type, donor heavy atom, donor atom, acceptor molecule, acceptor atom, score
      P1  H 10752 10765       L1    16  0.19

> <Gold.Chemscore.Hbond.Weighted>
-1.8326

> <Gold.Chemscore.Metal.Weighted>
-0.0000

> <Gold.Chemscore.Lipo.Weighted>
-9.5515

> <Gold.Chemscore.Internal_Hbond.Weighted>
0.0000

> <Gold.Chemscore.DEClash.Weighted>
0.1198

> <Gold.Chemscore.DEInternal.Weighted>
1.0823

> <Gold.Chemscore.Rot.Weighted>
3.2224

> <Gold.Chemscore.Internal.Correction.Weighted>
   9.000000E+99

> <Gold.Protein.RotatedTorsions>
[ 6907 6896 6895 6894 ] final  -12.44 input  -60.11 | X-H torsion
[ 7974 7965 7964 7962 ] final   35.58 input  175.53 | X-H torsion
[ 8008 7997 7996 7995 ] final   97.37 input   59.86 | X-H torsion
[ 10167 10162 10161 10158 ] final   47.49 input  -65.29 | X-H torsion
[ 10718 10713 10712 10709 ] final  136.00 input   66.30 | X-H torsion
[ 10763 10752 10751 10750 ] final  155.83 input  -60.55 | X-H torsion
[ 11005 11000 10999 10996 ] final  -41.96 input  -57.11 | X-H torsion

> <Gold.Protein.ActiveResidues>
 VAL166  LYS551  ARG553  GLY616  TRP617  ASP618  TYR619  PRO620  LYS621  CYS622 
 ASP623  PHE694  ASN695  SER759  ASP760  ASP761  ALA762  ILE779  LEU786  VAL792 
 PHE793  MET794  SER795  GLU796  ALA797  LYS798  CYS799  TRP800  GLU811  SER814 

> <Gold.Protein.RotatedAtoms>
  151.3704  135.0921  159.9463 H   0  0  0  0  0  0  0  0  0  0  0  0  # atno 6907 bound_to 6896
  152.5137  133.9170  159.7526 H   0  0  0  0  0  0  0  0  0  0  0  0  # atno 6908 bound_to 6896
  150.9583  133.6419  159.2788 H   0  0  0  0  0  0  0  0  0  0  0  0  # atno 6909 bound_to 6896
  146.1273  139.6125  142.9250 H   0  0  0  0  0  0  0  0  0  0  0  0  # atno 7974 bound_to 7965
  156.0894  140.3259  155.7796 H   0  0  0  0  0  0  0  0  0  0  0  0  # atno 8008 bound_to 7997
  155.5022  140.0570  157.2954 H   0  0  0  0  0  0  0  0  0  0  0  0  # atno 8009 bound_to 7997
  154.4628  140.1975  156.0213 H   0  0  0  0  0  0  0  0  0  0  0  0  # atno 8010 bound_to 7997
  140.3031  144.2910  150.6215 H   0  0  0  0  0  0  0  0  0  0  0  0  # atno 10167 bound_to 10162
  157.4512  131.1066  151.0031 H   0  0  0  0  0  0  0  0  0  0  0  0  # atno 10718 bound_to 10713
  154.1747  135.2802  155.3070 H   0  0  0  0  0  0  0  0  0  0  0  0  # atno 10763 bound_to 10752
  154.6049  135.5518  153.7415 H   0  0  0  0  0  0  0  0  0  0  0  0  # atno 10764 bound_to 10752
  153.0155  135.6401  154.1886 H   0  0  0  0  0  0  0  0  0  0  0  0  # atno 10765 bound_to 10752
  141.0282  133.6832  156.2529 H   0  0  0  0  0  0  0  0  0  0  0  0  # atno 11005 bound_to 11000
  145.5337  141.0425  143.2368 LP  0  0  0  0  0  0  0  0  0  0  0  0  # atno 17320 bound_to 7965
  144.7655  139.6855  143.7216 LP  0  0  0  0  0  0  0  0  0  0  0  0  # atno 17321 bound_to 7965
  140.5634  143.2189  151.7726 LP  0  0  0  0  0  0  0  0  0  0  0  0  # atno 17342 bound_to 10162
  139.4910  144.4317  151.9864 LP  0  0  0  0  0  0  0  0  0  0  0  0  # atno 17343 bound_to 10162
  157.0860  130.5922  149.5430 LP  0  0  0  0  0  0  0  0  0  0  0  0  # atno 17370 bound_to 10713
  155.9988  130.5063  150.7584 LP  0  0  0  0  0  0  0  0  0  0  0  0  # atno 17371 bound_to 10713
  140.6453  134.5123  157.5573 LP  0  0  0  0  0  0  0  0  0  0  0  0  # atno 17394 bound_to 11000
  139.9190  134.8187  156.1272 LP  0  0  0  0  0  0  0  0  0  0  0  0  # atno 17395 bound_to 11000

$$$$
