AV-unprocessed.smi:2252|AV-procd|sdf|9104|dock8
  -GOLD-   2272012303D 1   1.00000     0.00000
 Structure written by MMmdl.
 46 48  0  0  0  0  0  0  0  0  3 V2000
  147.0763  133.3221  151.4333 C   0  0  0  0  0  0  0  0  0  0  0  0
  145.7299  133.2066  150.8687 N   0  0  0  0  0  0  0  0  0  0  0  0
  145.1214  132.0522  150.4469 C   0  0  0  0  0  0  0  0  0  0  0  0
  143.8798  132.4071  149.9889 C   0  0  0  0  0  0  0  0  0  0  0  0
  143.7810  133.7622  150.1512 N   0  3  0  0  0  0  0  0  0  0  0  0
  144.9046  134.2521  150.6883 C   0  0  0  0  0  0  0  0  0  0  0  0
  145.1561  135.6992  150.9957 C   0  0  0  0  0  0  0  0  0  0  0  0
  145.4516  135.9721  152.4797 C   0  0  0  0  0  0  0  0  0  0  0  0
  146.5559  136.9129  152.6451 N   0  0  0  0  0  0  0  0  0  0  0  0
  146.5179  138.0195  153.4036 C   0  0  0  0  0  0  0  0  0  0  0  0
  145.5270  138.3619  154.0493 O   0  0  0  0  0  0  0  0  0  0  0  0
  147.7860  138.8883  153.4210 C   0  0  1  0  0  0  0  0  0  0  0  0
  147.5208  140.1223  154.3116 C   0  0  0  0  0  0  0  0  0  0  0  0
  146.9804  141.4067  153.7192 C   0  0  0  0  0  0  0  0  0  0  0  0
  148.3948  141.3560  154.2345 C   0  0  0  0  0  0  0  0  0  0  0  0
  148.9759  138.1250  153.8961 N   0  3  0  0  0  0  0  0  0  0  0  0
  150.2059  138.9223  154.0970 C   0  0  0  0  0  0  0  0  0  0  0  0
  151.1025  138.0410  154.9586 C   0  0  0  0  0  0  0  0  0  0  0  0
  150.1202  137.3331  155.8882 C   0  0  0  0  0  0  0  0  0  0  0  0
  148.7769  137.3468  155.1434 C   0  0  0  0  0  0  0  0  0  0  0  0
  147.5902  132.3638  151.3504 H   0  0  0  0  0  0  0  0  0  0  0  0
  147.0021  133.6035  152.4841 H   0  0  0  0  0  0  0  0  0  0  0  0
  147.6388  134.0782  150.8847 H   0  0  0  0  0  0  0  0  0  0  0  0
  145.6041  131.0870  150.5011 H   0  0  0  0  0  0  0  0  0  0  0  0
  143.0802  131.8127  149.5709 H   0  0  0  0  0  0  0  0  0  0  0  0
  145.9996  136.0087  150.3780 H   0  0  0  0  0  0  0  0  0  0  0  0
  144.2930  136.2746  150.6610 H   0  0  0  0  0  0  0  0  0  0  0  0
  144.5476  136.3573  152.9549 H   0  0  0  0  0  0  0  0  0  0  0  0
  145.7009  135.0405  152.9883 H   0  0  0  0  0  0  0  0  0  0  0  0
  147.4107  136.7051  152.1493 H   0  0  0  0  0  0  0  0  0  0  0  0
  147.9885  139.2231  152.4016 H   0  0  0  0  0  0  0  0  0  0  0  0
  147.1357  139.8724  155.2992 H   0  0  0  0  0  0  0  0  0  0  0  0
  146.8500  141.4570  152.6412 H   0  0  0  0  0  0  0  0  0  0  0  0
  146.2494  141.9616  154.3038 H   0  0  0  0  0  0  0  0  0  0  0  0
  148.6104  141.8765  155.1653 H   0  0  0  0  0  0  0  0  0  0  0  0
  149.1943  141.3719  153.4961 H   0  0  0  0  0  0  0  0  0  0  0  0
  150.6841  139.1917  153.1547 H   0  0  0  0  0  0  0  0  0  0  0  0
  149.9663  139.8426  154.6326 H   0  0  0  0  0  0  0  0  0  0  0  0
  151.6103  137.3074  154.3307 H   0  0  0  0  0  0  0  0  0  0  0  0
  151.8640  138.6073  155.4960 H   0  0  0  0  0  0  0  0  0  0  0  0
  150.4486  136.3226  156.1340 H   0  0  0  0  0  0  0  0  0  0  0  0
  150.0286  137.8861  156.8239 H   0  0  0  0  0  0  0  0  0  0  0  0
  148.0214  137.8115  155.7781 H   0  0  0  0  0  0  0  0  0  0  0  0
  148.4366  136.3391  154.9026 H   0  0  0  0  0  0  0  0  0  0  0  0
  149.1989  137.4495  153.1785 H   0  0  0  0  0  0  0  0  0  0  0  0
  142.9719  134.3178  149.9022 H   0  0  0  0  0  0  0  0  0  0  0  0
  1  2  1  0  0  0  0
  1 21  1  0  0  0  0
  1 22  1  0  0  0  0
  1 23  1  0  0  0  0
  2  6  1  0  0  0  0
  2  3  1  0  0  0  0
  3  4  2  0  0  0  0
  3 24  1  0  0  0  0
  4  5  1  0  0  0  0
  4 25  1  0  0  0  0
  5  6  2  0  0  0  0
  5 46  1  0  0  0  0
  6  7  1  0  0  0  0
  7  8  1  0  0  0  0
  7 26  1  0  0  0  0
  7 27  1  0  0  0  0
  8  9  1  0  0  0  0
  8 28  1  0  0  0  0
  8 29  1  0  0  0  0
  9 10  1  0  0  0  0
  9 30  1  0  0  0  0
 10 11  2  0  0  0  0
 10 12  1  0  0  0  0
 12 13  1  0  0  0  0
 12 16  1  0  0  0  0
 12 31  1  0  0  0  0
 13 15  1  0  0  0  0
 13 14  1  0  0  0  0
 13 32  1  0  0  0  0
 14 15  1  0  0  0  0
 14 33  1  0  0  0  0
 14 34  1  0  0  0  0
 15 35  1  0  0  0  0
 15 36  1  0  0  0  0
 16 20  1  0  0  0  0
 16 17  1  0  0  0  0
 16 45  1  0  0  0  0
 17 18  1  0  0  0  0
 17 37  1  0  0  0  0
 17 38  1  0  0  0  0
 18 19  1  0  0  0  0
 18 39  1  0  0  0  0
 18 40  1  0  0  0  0
 19 20  1  0  0  0  0
 19 41  1  0  0  0  0
 19 42  1  0  0  0  0
 20 43  1  0  0  0  0
 20 44  1  0  0  0  0
M  CHG  1   5   1
M  CHG  1  16   1
M  END
> <s_m_source_file>
AV-unprocessed.smi

> <i_m_source_file_index>
2252

> <i_lp_mmshare_version>
43012

> <i_f3d_flags>
0

> <s_epik_input>
W0NIM11uMVtjSF1bY0hdbmMxW0NIMl1bQ0gyXVtOSF1DKD1PKVtDQEhdKFtDSF0yW0NIMl1bQ0gyXTIpTjNbQ0gyXVtDSDJdW0NIMl1bQ0gyXTM=

> <s_epik_cmdline>
J2VwaWtfcHl0aG9uJywgJy1waCcsICc3LjAnLCAnLXRuJywgJzgnLCAnLW1hJywgJzIwMCcsICctbWV0YWxfYmluZGluZycsICctaW1hZScsICc8aW5maWxlLm1hZT4nLCAnLW9tYWUnLCAnPG91dGZpbGUubWFlPic=

> <r_lp_tautomer_probability>
1

> <r_epik_Ionization_Penalty>
0.116886

> <r_epik_Ionization_Penalty_Charging>
0.00955009

> <r_epik_Ionization_Penalty_Neutral>
0.107336

> <r_epik_State_Penalty>
0.0956868

> <r_epik_Charging_Adjusted_Penalty>
0.105237

> <i_epik_Tot_Q>
2

> <i_epik_Tot_abs_Q>
2

> <r_epik_Metal_State_Penalty>
0.438836

> <b_epik_Metal_Only>
0

> <s_lp_Force_Field>
OPLS_2005

> <r_lp_Energy>
43.7014

> <b_lp_Chiralities_Consistent>
1

> <s_lp_Variant>
AV-unprocessed.smi:2252-2

> <Gold.Version>
5.8.1

> <Gold.Id.Protein>
6NUR|6NUR_protein|mol2

> <Gold.PLP.Fitness>
51.8944

> <Gold.PLP.PLP>
-37.7727

> <Gold.PLP.part.hbond>
-3.0000

> <Gold.PLP.part.metal>
0.0000

> <Gold.PLP.part.buried>
-5.9036

> <Gold.PLP.part.nonpolar>
-29.8242

> <Gold.PLP.part.repulsive>
0.2125

> <Gold.PLP.ligand.clash>
0.0000

> <Gold.PLP.ligand.torsion>
1.0092

> <Gold.PLP.Chemscore.Hbond>
5.0000

> <Gold.PLP.Chemscore.CHOScore>
0.0000

> <Gold.PLP.Chemscore.Metal>
0.0000

> <Gold.Chemscore.Hbonds>
donor molecule, donor type, donor heavy atom, donor atom, acceptor molecule, acceptor atom, score
      L1  H     5    46       P1 10186  1.98
      L1  H     9    30       P1  7948  1.00
      L1  H    16    45       P1  7948  2.00

> <Gold.PLP.Chemscore.Internal.Correction>
1.1402

> <Gold.Rescore>
     Score         DG    S(hbond)    S(metal)    S(lipo)     H(rot)  DE(clash)    DE(int)     intcor
     19.00     -20.10       2.93        0.00      86.01       2.05       0.17       0.93       ----

> <Gold.Chemscore.Fitness>
19.0002

> <Gold.Chemscore.DG>
-20.0979

> <Gold.Chemscore.ZeroCoef>
-5.4800

> <Gold.Chemscore.Hbond>
2.9317

> <Gold.Chemscore.Metal>
0.0000

> <Gold.Chemscore.Lipo>
86.0085

> <Gold.Chemscore.Internal_Hbond>
0.0000

> <Gold.Chemscore.DEClash>
0.1653

> <Gold.Chemscore.DEInternal>
0.9324

> <Gold.Chemscore.Rot>
2.0456

> <Gold.Chemscore.Internal.Correction>
   9.000000E+99

> <Gold.Chemscore.Hbonds>
donor molecule, donor type, donor heavy atom, donor atom, acceptor molecule, acceptor atom, score
      L1  H     5    46       P1 10186  0.89
      L1  H     9    30       P1  7948  0.99
      L1  H    16    45       P1  7948  0.99

> <Gold.Chemscore.Hbond.Weighted>
-9.7917

> <Gold.Chemscore.Metal.Weighted>
-0.0000

> <Gold.Chemscore.Lipo.Weighted>
-10.0630

> <Gold.Chemscore.Internal_Hbond.Weighted>
0.0000

> <Gold.Chemscore.DEClash.Weighted>
0.1653

> <Gold.Chemscore.DEInternal.Weighted>
0.9324

> <Gold.Chemscore.Rot.Weighted>
5.2368

> <Gold.Chemscore.Internal.Correction.Weighted>
   9.000000E+99

> <Gold.Protein.RotatedTorsions>
[ 6907 6896 6895 6894 ] final  176.42 input  -60.11 | X-H torsion
[ 7974 7965 7964 7962 ] final   33.73 input  175.53 | X-H torsion
[ 8008 7997 7996 7995 ] final  120.92 input   59.86 | X-H torsion
[ 10167 10162 10161 10158 ] final -108.30 input  -65.29 | X-H torsion
[ 10718 10713 10712 10709 ] final  -17.92 input   66.30 | X-H torsion
[ 10763 10752 10751 10750 ] final  135.55 input  -60.55 | X-H torsion
[ 11005 11000 10999 10996 ] final  -77.53 input  -57.11 | X-H torsion

> <Gold.Protein.ActiveResidues>
 VAL166  LYS551  ARG553  GLY616  TRP617  ASP618  TYR619  PRO620  LYS621  CYS622 
 ASP623  PHE694  ASN695  SER759  ASP760  ASP761  ALA762  ILE779  LEU786  VAL792 
 PHE793  MET794  SER795  GLU796  ALA797  LYS798  CYS799  TRP800  GLU811  SER814 

> <Gold.Protein.RotatedAtoms>
  151.7204  133.3314  159.3313 H   0  0  0  0  0  0  0  0  0  0  0  0  # atno 6907 bound_to 6896
  150.7655  134.6453  159.6268 H   0  0  0  0  0  0  0  0  0  0  0  0  # atno 6908 bound_to 6896
  152.3655  134.6812  160.0245 H   0  0  0  0  0  0  0  0  0  0  0  0  # atno 6909 bound_to 6896
  146.1401  139.6359  142.9169 H   0  0  0  0  0  0  0  0  0  0  0  0  # atno 7974 bound_to 7965
  156.2664  140.2820  156.1227 H   0  0  0  0  0  0  0  0  0  0  0  0  # atno 8008 bound_to 7997
  155.1139  140.0391  157.2749 H   0  0  0  0  0  0  0  0  0  0  0  0  # atno 8009 bound_to 7997
  154.6722  140.2590  155.7001 H   0  0  0  0  0  0  0  0  0  0  0  0  # atno 8010 bound_to 7997
  140.1676  143.4069  152.1378 H   0  0  0  0  0  0  0  0  0  0  0  0  # atno 10167 bound_to 10162
  156.5667  130.4739  149.6381 H   0  0  0  0  0  0  0  0  0  0  0  0  # atno 10718 bound_to 10713
  153.8419  135.3090  155.3427 H   0  0  0  0  0  0  0  0  0  0  0  0  # atno 10763 bound_to 10752
  154.7929  135.4772  154.0096 H   0  0  0  0  0  0  0  0  0  0  0  0  # atno 10764 bound_to 10752
  153.1570  135.6854  153.8890 H   0  0  0  0  0  0  0  0  0  0  0  0  # atno 10765 bound_to 10752
  141.1661  133.7026  156.7834 H   0  0  0  0  0  0  0  0  0  0  0  0  # atno 11005 bound_to 11000
  145.5067  141.0436  143.2510 LP  0  0  0  0  0  0  0  0  0  0  0  0  # atno 17320 bound_to 7965
  144.7783  139.6582  143.7165 LP  0  0  0  0  0  0  0  0  0  0  0  0  # atno 17321 bound_to 7965
  139.5352  144.7202  151.4917 LP  0  0  0  0  0  0  0  0  0  0  0  0  # atno 17342 bound_to 10162
  140.6603  143.8513  150.6880 LP  0  0  0  0  0  0  0  0  0  0  0  0  # atno 17343 bound_to 10162
  156.2750  130.7039  151.1847 LP  0  0  0  0  0  0  0  0  0  0  0  0  # atno 17370 bound_to 10713
  157.7357  131.0570  150.5456 LP  0  0  0  0  0  0  0  0  0  0  0  0  # atno 17371 bound_to 10713
  140.2378  134.8637  157.3543 LP  0  0  0  0  0  0  0  0  0  0  0  0  # atno 17394 bound_to 11000
  140.1826  134.4471  155.7763 LP  0  0  0  0  0  0  0  0  0  0  0  0  # atno 17395 bound_to 11000

$$$$
