AV-unprocessed.smi:2078|AV-procd|sdf|8469|dock1
  -GOLD-   2272011173D 1   1.00000     0.00000
 Structure written by MMmdl.
 41 42  0  0  0  0  0  0  0  0  3 V2000
  151.9194  140.1478  158.7810 C   0  0  0  0  0  0  0  0  0  0  0  0
  151.5084  140.2901  157.3556 C   0  0  0  0  0  0  0  0  0  0  0  0
  150.3612  140.7319  156.7600 C   0  0  0  0  0  0  0  0  0  0  0  0
  150.6435  140.5988  155.3731 C   0  0  0  0  0  0  0  0  0  0  0  0
  149.8203  140.9223  154.3639 N   0  5  0  0  0  0  0  0  0  0  0  0
  148.5209  140.5500  154.3982 C   0  0  0  0  0  0  0  0  0  0  0  0
  147.7382  140.7052  155.3387 O   0  0  0  0  0  0  0  0  0  0  0  0
  148.1018  139.9549  153.2723 N   0  0  0  0  0  0  0  0  0  0  0  0
  146.7598  139.4380  153.0342 C   0  0  0  0  0  0  0  0  0  0  0  0
  146.7638  138.3532  151.9406 C   0  0  0  0  0  0  0  0  0  0  0  0
  145.5263  137.5348  151.9542 N   0  3  1  0  0  0  0  0  0  0  0  0
  145.6622  136.2999  151.1398 C   0  0  0  0  0  0  0  0  0  0  0  0
  144.3241  135.5509  151.0411 C   0  0  0  0  0  0  0  0  0  0  0  0
  143.7671  135.2319  152.4358 C   0  0  0  0  0  0  0  0  0  0  0  0
  143.6825  136.4990  153.3067 C   0  0  2  0  0  0  0  0  0  0  0  0
  142.5260  137.4282  152.8982 C   0  0  0  0  0  0  0  0  0  0  0  0
  145.0397  137.2326  153.3283 C   0  0  0  0  0  0  0  0  0  0  0  0
  151.8599  140.1322  155.1470 N   0  0  0  0  0  0  0  0  0  0  0  0
  152.4201  139.9275  156.4137 O   0  0  0  0  0  0  0  0  0  0  0  0
  152.2484  141.1057  159.1840 H   0  0  0  0  0  0  0  0  0  0  0  0
  152.7397  139.4369  158.8834 H   0  0  0  0  0  0  0  0  0  0  0  0
  151.0877  139.7919  159.3890 H   0  0  0  0  0  0  0  0  0  0  0  0
  149.4624  141.0905  157.2386 H   0  0  0  0  0  0  0  0  0  0  0  0
  148.7741  139.8499  152.5263 H   0  0  0  0  0  0  0  0  0  0  0  0
  146.3500  139.0661  153.9734 H   0  0  0  0  0  0  0  0  0  0  0  0
  146.1265  140.2708  152.7280 H   0  0  0  0  0  0  0  0  0  0  0  0
  146.8567  138.8535  150.9753 H   0  0  0  0  0  0  0  0  0  0  0  0
  147.6330  137.7000  152.0310 H   0  0  0  0  0  0  0  0  0  0  0  0
  146.0011  136.5537  150.1347 H   0  0  0  0  0  0  0  0  0  0  0  0
  146.4256  135.6556  151.5790 H   0  0  0  0  0  0  0  0  0  0  0  0
  143.6068  136.1511  150.4804 H   0  0  0  0  0  0  0  0  0  0  0  0
  144.4566  134.6278  150.4761 H   0  0  0  0  0  0  0  0  0  0  0  0
  142.7897  134.7551  152.3547 H   0  0  0  0  0  0  0  0  0  0  0  0
  144.4206  134.5059  152.9215 H   0  0  0  0  0  0  0  0  0  0  0  0
  143.4701  136.1764  154.3268 H   0  0  0  0  0  0  0  0  0  0  0  0
  142.6616  137.8323  151.8952 H   0  0  0  0  0  0  0  0  0  0  0  0
  142.4438  138.2724  153.5835 H   0  0  0  0  0  0  0  0  0  0  0  0
  141.5726  136.8992  152.9170 H   0  0  0  0  0  0  0  0  0  0  0  0
  145.7822  136.6179  153.8397 H   0  0  0  0  0  0  0  0  0  0  0  0
  144.9434  138.1461  153.9138 H   0  0  0  0  0  0  0  0  0  0  0  0
  144.8138  138.0915  151.5045 H   0  0  0  0  0  0  0  0  0  0  0  0
  1  2  1  0  0  0  0
  1 20  1  0  0  0  0
  1 21  1  0  0  0  0
  1 22  1  0  0  0  0
  2 19  1  0  0  0  0
  2  3  2  0  0  0  0
  3  4  1  0  0  0  0
  3 23  1  0  0  0  0
  4  5  1  0  0  0  0
  4 18  2  0  0  0  0
  5  6  1  0  0  0  0
  6  7  2  0  0  0  0
  6  8  1  0  0  0  0
  8  9  1  0  0  0  0
  8 24  1  0  0  0  0
  9 10  1  0  0  0  0
  9 25  1  0  0  0  0
  9 26  1  0  0  0  0
 10 11  1  0  0  0  0
 10 27  1  0  0  0  0
 10 28  1  0  0  0  0
 11 17  1  0  0  0  0
 11 12  1  0  0  0  0
 11 41  1  0  0  0  0
 12 13  1  0  0  0  0
 12 29  1  0  0  0  0
 12 30  1  0  0  0  0
 13 14  1  0  0  0  0
 13 31  1  0  0  0  0
 13 32  1  0  0  0  0
 14 15  1  0  0  0  0
 14 33  1  0  0  0  0
 14 34  1  0  0  0  0
 15 16  1  0  0  0  0
 15 17  1  0  0  0  0
 15 35  1  0  0  0  0
 16 36  1  0  0  0  0
 16 37  1  0  0  0  0
 16 38  1  0  0  0  0
 17 39  1  0  0  0  0
 17 40  1  0  0  0  0
 18 19  1  0  0  0  0
M  CHG  1   5  -1
M  CHG  1  11   1
M  END
> <s_m_source_file>
AV-unprocessed.smi

> <i_m_source_file_index>
2078

> <i_lp_mmshare_version>
43012

> <i_f3d_flags>
0

> <s_epik_input>
W0NIM11jMVtjSF1jKG5vMSlbTkhdQyg9TylbTkhdW0NIMl1bQ0gyXU4yW0NIMl1bQ0gyXVtDSDJdW0NAQEhdKFtDSDNdKVtDSDJdMg==

> <s_epik_cmdline>
J2VwaWtfcHl0aG9uJywgJy1waCcsICc3LjAnLCAnLXRuJywgJzgnLCAnLW1hJywgJzIwMCcsICctbWV0YWxfYmluZGluZycsICctaW1hZScsICc8aW5maWxlLm1hZT4nLCAnLW9tYWUnLCAnPG91dGZpbGUubWFlPic=

> <r_epik_Ionization_Penalty>
6.22434

> <r_epik_Ionization_Penalty_Charging>
6.22425

> <r_epik_Ionization_Penalty_Neutral>
9.37855e-05

> <r_epik_State_Penalty>
6.22423

> <r_epik_Charging_Adjusted_Penalty>
12.4485

> <i_epik_Tot_Q>
0

> <i_epik_Tot_abs_Q>
2

> <r_epik_Metal_State_Penalty>
2.16764

> <b_epik_Metal_Only>
1

> <s_lp_Force_Field>
OPLS_2005

> <r_lp_Energy>
5.82233

> <b_lp_Chiralities_Consistent>
1

> <s_lp_Variant>
AV-unprocessed.smi:2078-7

> <Gold.Version>
5.8.1

> <Gold.Id.Protein>
6NUR|6NUR_protein|mol2

> <Gold.PLP.Fitness>
40.2358

> <Gold.PLP.PLP>
-32.7883

> <Gold.PLP.part.hbond>
-5.0000

> <Gold.PLP.part.metal>
0.0000

> <Gold.PLP.part.buried>
-2.1921

> <Gold.PLP.part.nonpolar>
-26.0815

> <Gold.PLP.part.repulsive>
0.3589

> <Gold.PLP.ligand.clash>
0.0000

> <Gold.PLP.ligand.torsion>
1.1924

> <Gold.PLP.Chemscore.Hbond>
3.2192

> <Gold.PLP.Chemscore.CHOScore>
0.0000

> <Gold.PLP.Chemscore.Metal>
0.0000

> <Gold.Chemscore.Hbonds>
donor molecule, donor type, donor heavy atom, donor atom, acceptor molecule, acceptor atom, score
      L1  H     8    24       P1  7957  1.00
      L1  H    11    41       P1 10171  0.96
      P1  H  7989  7998       L1    18  0.22
      P1  H  7997  8008       L1    19  1.00

> <Gold.PLP.Chemscore.Internal.Correction>
0.1747

> <Gold.Rescore>
     Score         DG    S(hbond)    S(metal)    S(lipo)     H(rot)  DE(clash)    DE(int)     intcor
     16.36     -18.73       2.99        0.00      61.51       1.54       0.94       1.43       ----

> <Gold.Chemscore.Fitness>
16.3611

> <Gold.Chemscore.DG>
-18.7274

> <Gold.Chemscore.ZeroCoef>
-5.4800

> <Gold.Chemscore.Hbond>
2.9925

> <Gold.Chemscore.Metal>
0.0000

> <Gold.Chemscore.Lipo>
61.5147

> <Gold.Chemscore.Internal_Hbond>
0.0000

> <Gold.Chemscore.DEClash>
0.9401

> <Gold.Chemscore.DEInternal>
1.4262

> <Gold.Chemscore.Rot>
1.5409

> <Gold.Chemscore.Internal.Correction>
   9.000000E+99

> <Gold.Chemscore.Hbonds>
donor molecule, donor type, donor heavy atom, donor atom, acceptor molecule, acceptor atom, score
      L1  H     8    24       P1  7957  0.99
      L1  H    11    41       P1 10171  0.89
      P1  H  7997  8008       L1    19  0.74

> <Gold.Chemscore.Hbond.Weighted>
-9.9949

> <Gold.Chemscore.Metal.Weighted>
-0.0000

> <Gold.Chemscore.Lipo.Weighted>
-7.1972

> <Gold.Chemscore.Internal_Hbond.Weighted>
0.0000

> <Gold.Chemscore.DEClash.Weighted>
0.9401

> <Gold.Chemscore.DEInternal.Weighted>
1.4262

> <Gold.Chemscore.Rot.Weighted>
3.9446

> <Gold.Chemscore.Internal.Correction.Weighted>
   9.000000E+99

> <Gold.Protein.RotatedTorsions>
[ 6907 6896 6895 6894 ] final -160.37 input  -60.11 | X-H torsion
[ 7974 7965 7964 7962 ] final   39.60 input  175.53 | X-H torsion
[ 8008 7997 7996 7995 ] final  -41.15 input   59.86 | X-H torsion
[ 10167 10162 10161 10158 ] final   49.56 input  -65.29 | X-H torsion
[ 10718 10713 10712 10709 ] final   -8.23 input   66.30 | X-H torsion
[ 10763 10752 10751 10750 ] final  -89.52 input  -60.55 | X-H torsion
[ 11005 11000 10999 10996 ] final    7.77 input  -57.11 | X-H torsion

> <Gold.Protein.ActiveResidues>
 VAL166  LYS551  ARG553  GLY616  TRP617  ASP618  TYR619  PRO620  LYS621  CYS622 
 ASP623  PHE694  ASN695  SER759  ASP760  ASP761  ALA762  ILE779  LEU786  VAL792 
 PHE793  MET794  SER795  GLU796  ALA797  LYS798  CYS799  TRP800  GLU811  SER814 

> <Gold.Protein.RotatedAtoms>
  151.3481  133.3936  159.2677 H   0  0  0  0  0  0  0  0  0  0  0  0  # atno 6907 bound_to 6896
  150.9823  134.9177  159.7862 H   0  0  0  0  0  0  0  0  0  0  0  0  # atno 6908 bound_to 6896
  152.5221  134.3445  159.9281 H   0  0  0  0  0  0  0  0  0  0  0  0  # atno 6909 bound_to 6896
  146.0972  139.5633  142.9438 H   0  0  0  0  0  0  0  0  0  0  0  0  # atno 7974 bound_to 7965
  154.4006  140.1507  156.3143 H   0  0  0  0  0  0  0  0  0  0  0  0  # atno 8008 bound_to 7997
  155.8587  140.3454  155.5720 H   0  0  0  0  0  0  0  0  0  0  0  0  # atno 8009 bound_to 7997
  155.7904  140.0856  157.2002 H   0  0  0  0  0  0  0  0  0  0  0  0  # atno 8010 bound_to 7997
  140.2815  144.3150  150.6263 H   0  0  0  0  0  0  0  0  0  0  0  0  # atno 10167 bound_to 10162
  156.7056  130.5106  149.5905 H   0  0  0  0  0  0  0  0  0  0  0  0  # atno 10718 bound_to 10713
  154.6562  135.5337  153.7961 H   0  0  0  0  0  0  0  0  0  0  0  0  # atno 10763 bound_to 10752
  153.0414  135.6494  154.0942 H   0  0  0  0  0  0  0  0  0  0  0  0  # atno 10764 bound_to 10752
  154.0855  135.2944  155.3262 H   0  0  0  0  0  0  0  0  0  0  0  0  # atno 10765 bound_to 10752
  140.5445  134.0342  155.7915 H   0  0  0  0  0  0  0  0  0  0  0  0  # atno 11005 bound_to 11000
  145.5926  141.0367  143.2062 LP  0  0  0  0  0  0  0  0  0  0  0  0  # atno 17320 bound_to 7965
  144.7404  139.7465  143.7313 LP  0  0  0  0  0  0  0  0  0  0  0  0  # atno 17321 bound_to 7965
  140.5807  143.2173  151.7433 LP  0  0  0  0  0  0  0  0  0  0  0  0  # atno 17342 bound_to 10162
  139.4961  144.4084  152.0107 LP  0  0  0  0  0  0  0  0  0  0  0  0  # atno 17343 bound_to 10162
  156.1697  130.6429  151.0822 LP  0  0  0  0  0  0  0  0  0  0  0  0  # atno 17370 bound_to 10713
  157.6956  131.0795  150.6978 LP  0  0  0  0  0  0  0  0  0  0  0  0  # atno 17371 bound_to 10713
  141.1208  133.9465  157.2734 LP  0  0  0  0  0  0  0  0  0  0  0  0  # atno 17394 bound_to 11000
  139.9487  135.0179  156.8929 LP  0  0  0  0  0  0  0  0  0  0  0  0  # atno 17395 bound_to 11000

$$$$
