AV-unprocessed.smi:151|AV-procd|sdf|1244|dock2
  -GOLD-   2262018463D 1   1.00000     0.00000
 Structure written by MMmdl.
 56 59  0  0  0  0  0  0  0  0  1 V2000
  148.1880  131.0488  158.9504 C   0  0  0  0  0  0  0  0  0  0  0  0
  148.9018  131.5632  157.6889 C   0  0  0  0  0  0  0  0  0  0  0  0
  149.7170  130.4974  156.9100 C   0  0  2  0  0  0  0  0  0  0  0  0
  150.7008  129.7578  157.8428 C   0  0  0  0  0  0  0  0  0  0  0  0
  151.4748  128.8051  157.1191 O   0  0  0  0  0  0  0  0  0  0  0  0
  152.2297  129.3404  156.0296 C   0  0  0  0  0  0  0  0  0  0  0  0
  153.3459  130.2882  156.5194 C   0  0  0  0  0  0  0  0  0  0  0  0
  152.8650  128.1263  155.3343 C   0  0  0  0  0  0  0  0  0  0  0  0
  151.2590  130.0468  155.0627 C   0  0  0  0  0  0  0  0  0  0  0  0
  150.4390  131.0380  155.7518 N   0  0  0  0  0  0  0  0  0  0  0  0
  149.7419  131.7679  154.8492 C   0  0  0  0  0  0  0  0  0  0  0  0
  149.9327  133.1103  154.7520 N   0  0  0  0  0  0  0  0  0  0  0  0
  149.2223  133.8226  153.8725 C   0  0  0  0  0  0  0  0  0  0  0  0
  148.2843  133.4021  153.0214 N   0  0  0  0  0  0  0  0  0  0  0  0
  148.0793  132.0572  153.1278 C   0  0  0  0  0  0  0  0  0  0  0  0
  148.7604  131.1749  154.0120 C   0  0  0  0  0  0  0  0  0  0  0  0
  148.2937  129.8775  153.8484 N   0  0  0  0  0  0  0  0  0  0  0  0
  147.3868  129.9851  152.9162 C   0  0  0  0  0  0  0  0  0  0  0  0
  147.1905  131.2577  152.4259 N   0  0  0  0  0  0  0  0  0  0  0  0
  146.2616  131.6400  151.3988 C   0  0  0  0  0  0  0  0  0  0  0  0
  146.1886  133.0848  150.8950 C   0  0  0  0  0  0  0  0  0  0  0  0
  144.6525  132.9641  150.7558 C   0  0  0  0  0  0  0  0  0  0  0  0
  143.8236  134.1443  151.2976 C   0  0  0  0  0  0  0  0  0  0  0  0
  142.5540  133.7498  151.7783 O   0  0  0  0  0  0  0  0  0  0  0  0
  144.1156  132.7193  149.3300 C   0  0  0  0  0  0  0  0  0  0  0  0
  142.8131  132.1707  149.3058 O   0  0  0  0  0  0  0  0  0  0  0  0
  144.7549  131.7190  151.6688 C   0  0  0  0  0  0  0  0  0  0  0  0
  147.6674  131.8643  159.4526 H   0  0  0  0  0  0  0  0  0  0  0  0
  148.8925  130.6226  159.6649 H   0  0  0  0  0  0  0  0  0  0  0  0
  147.4448  130.2877  158.7161 H   0  0  0  0  0  0  0  0  0  0  0  0
  148.1594  131.9974  157.0187 H   0  0  0  0  0  0  0  0  0  0  0  0
  149.5464  132.3951  157.9709 H   0  0  0  0  0  0  0  0  0  0  0  0
  149.0144  129.7521  156.5339 H   0  0  0  0  0  0  0  0  0  0  0  0
  151.3622  130.4477  158.3643 H   0  0  0  0  0  0  0  0  0  0  0  0
  150.1478  129.2266  158.6178 H   0  0  0  0  0  0  0  0  0  0  0  0
  153.9840  130.5972  155.6910 H   0  0  0  0  0  0  0  0  0  0  0  0
  153.9797  129.8003  157.2602 H   0  0  0  0  0  0  0  0  0  0  0  0
  152.9527  131.2000  156.9686 H   0  0  0  0  0  0  0  0  0  0  0  0
  153.4441  128.4270  154.4606 H   0  0  0  0  0  0  0  0  0  0  0  0
  152.1049  127.4196  154.9995 H   0  0  0  0  0  0  0  0  0  0  0  0
  153.5351  127.5917  156.0086 H   0  0  0  0  0  0  0  0  0  0  0  0
  151.8220  130.5151  154.2533 H   0  0  0  0  0  0  0  0  0  0  0  0
  150.5973  129.3120  154.6008 H   0  0  0  0  0  0  0  0  0  0  0  0
  149.4349  134.8811  153.8478 H   0  0  0  0  0  0  0  0  0  0  0  0
  146.8327  129.1294  152.5582 H   0  0  0  0  0  0  0  0  0  0  0  0
  146.4462  130.9686  150.5591 H   0  0  0  0  0  0  0  0  0  0  0  0
  146.5047  133.8072  151.6481 H   0  0  0  0  0  0  0  0  0  0  0  0
  146.7192  133.2549  149.9577 H   0  0  0  0  0  0  0  0  0  0  0  0
  144.3473  134.6419  152.1147 H   0  0  0  0  0  0  0  0  0  0  0  0
  143.6657  134.8952  150.5227 H   0  0  0  0  0  0  0  0  0  0  0  0
  141.9527  133.7176  151.0500 H   0  0  0  0  0  0  0  0  0  0  0  0
  144.0903  133.6502  148.7624 H   0  0  0  0  0  0  0  0  0  0  0  0
  144.7694  132.0389  148.7833 H   0  0  0  0  0  0  0  0  0  0  0  0
  142.1898  132.8702  149.4291 H   0  0  0  0  0  0  0  0  0  0  0  0
  144.1963  130.8510  151.3176 H   0  0  0  0  0  0  0  0  0  0  0  0
  144.5221  131.9225  152.7141 H   0  0  0  0  0  0  0  0  0  0  0  0
  1  2  1  0  0  0  0
  1 28  1  0  0  0  0
  1 29  1  0  0  0  0
  1 30  1  0  0  0  0
  2  3  1  0  0  0  0
  2 31  1  0  0  0  0
  2 32  1  0  0  0  0
  3 10  1  0  0  0  0
  3  4  1  0  0  0  0
  3 33  1  0  0  0  0
  4  5  1  0  0  0  0
  4 34  1  0  0  0  0
  4 35  1  0  0  0  0
  5  6  1  0  0  0  0
  6  7  1  0  0  0  0
  6  8  1  0  0  0  0
  6  9  1  0  0  0  0
  7 36  1  0  0  0  0
  7 37  1  0  0  0  0
  7 38  1  0  0  0  0
  8 39  1  0  0  0  0
  8 40  1  0  0  0  0
  8 41  1  0  0  0  0
  9 10  1  0  0  0  0
  9 42  1  0  0  0  0
  9 43  1  0  0  0  0
 10 11  1  0  0  0  0
 11 16  1  0  0  0  0
 11 12  2  0  0  0  0
 12 13  1  0  0  0  0
 13 14  2  0  0  0  0
 13 44  1  0  0  0  0
 14 15  1  0  0  0  0
 15 19  1  0  0  0  0
 15 16  2  0  0  0  0
 16 17  1  0  0  0  0
 17 18  2  0  0  0  0
 18 19  1  0  0  0  0
 18 45  1  0  0  0  0
 19 20  1  0  0  0  0
 20 27  1  0  0  0  0
 20 21  1  0  0  0  0
 20 46  1  0  0  0  0
 21 22  1  0  0  0  0
 21 47  1  0  0  0  0
 21 48  1  0  0  0  0
 22 23  1  0  0  0  0
 22 25  1  0  0  0  0
 22 27  1  0  0  0  0
 23 24  1  0  0  0  0
 23 49  1  0  0  0  0
 23 50  1  0  0  0  0
 24 51  1  0  0  0  0
 25 26  1  0  0  0  0
 25 52  1  0  0  0  0
 25 53  1  0  0  0  0
 26 54  1  0  0  0  0
 27 55  1  0  0  0  0
 27 56  1  0  0  0  0
M  END
> <s_m_source_file>
AV-unprocessed.smi

> <i_m_source_file_index>
151

> <i_lp_mmshare_version>
43012

> <i_f3d_flags>
0

> <s_epik_input>
W0NIM11DMShbQ0gzXSlPW0NIMl1bQ0BASF0oW0NIMl1bQ0gzXSlOKFtDSDJdMSljKG5bY0hdbjIpYyhjMjMpbltjSF1uM1tDSF0oW0NIMl00KVtDSDJdQzQoW0NIMl1bT0hdKVtDSDJdW09IXQ==

> <s_epik_cmdline>
J2VwaWtfcHl0aG9uJywgJy1waCcsICc3LjAnLCAnLXRuJywgJzgnLCAnLW1hJywgJzIwMCcsICctbWV0YWxfYmluZGluZycsICctaW1hZScsICc8aW5maWxlLm1hZT4nLCAnLW9tYWUnLCAnPG91dGZpbGUubWFlPic=

> <r_lp_tautomer_probability>
1

> <r_epik_Ionization_Penalty>
0.000102837

> <r_epik_Ionization_Penalty_Charging>
0

> <r_epik_Ionization_Penalty_Neutral>
0.000102837

> <r_epik_State_Penalty>
-0

> <r_epik_Charging_Adjusted_Penalty>
0

> <i_epik_Tot_Q>
0

> <i_epik_Tot_abs_Q>
0

> <r_epik_Metal_State_Penalty>
-0

> <b_epik_Metal_Only>
0

> <s_lp_Force_Field>
OPLS_2005

> <r_lp_Energy>
52.7657

> <b_lp_Chiralities_Consistent>
1

> <s_lp_Variant>
AV-unprocessed.smi:151-1

> <Gold.Version>
5.8.1

> <Gold.Id.Protein>
6NUR|6NUR_protein|mol2

> <Gold.PLP.Fitness>
47.3820

> <Gold.PLP.PLP>
-37.2026

> <Gold.PLP.part.hbond>
-3.9640

> <Gold.PLP.part.metal>
0.0000

> <Gold.PLP.part.buried>
-0.8493

> <Gold.PLP.part.nonpolar>
-31.2378

> <Gold.PLP.part.repulsive>
0.3166

> <Gold.PLP.ligand.clash>
0.0000

> <Gold.PLP.ligand.torsion>
0.7381

> <Gold.PLP.Chemscore.Hbond>
2.9425

> <Gold.PLP.Chemscore.CHOScore>
0.7555

> <Gold.PLP.Chemscore.Metal>
0.0000

> <Gold.Chemscore.Hbonds>
donor molecule, donor type, donor heavy atom, donor atom, acceptor molecule, acceptor atom, score
      L1  H    24    51       P1 10186  1.00
      L1  H    26    54       P1 10186  1.00
      P1  H 10785 10796       L1    26  0.73
      L1  C    13    44       P1  7948  0.63

> <Gold.PLP.Chemscore.Internal.Correction>
0.5614

> <Gold.Rescore>
     Score         DG    S(hbond)    S(metal)    S(lipo)     H(rot)  DE(clash)    DE(int)     intcor
     10.40     -13.63       2.28        0.00      76.00       3.26       1.56       1.67       ----

> <Gold.Chemscore.Fitness>
10.4004

> <Gold.Chemscore.DG>
-13.6320

> <Gold.Chemscore.ZeroCoef>
-5.4800

> <Gold.Chemscore.Hbond>
2.2768

> <Gold.Chemscore.Metal>
0.0000

> <Gold.Chemscore.Lipo>
76.0027

> <Gold.Chemscore.Internal_Hbond>
0.0000

> <Gold.Chemscore.DEClash>
1.5613

> <Gold.Chemscore.DEInternal>
1.6703

> <Gold.Chemscore.Rot>
3.2596

> <Gold.Chemscore.Internal.Correction>
   9.000000E+99

> <Gold.Chemscore.Hbonds>
donor molecule, donor type, donor heavy atom, donor atom, acceptor molecule, acceptor atom, score
      L1  H    24    51       P1 10186  0.34
      L1  H    26    54       P1 10186  0.99
      P1  H 10785 10796       L1    26  0.25

> <Gold.Chemscore.Hbond.Weighted>
-7.6044

> <Gold.Chemscore.Metal.Weighted>
-0.0000

> <Gold.Chemscore.Lipo.Weighted>
-8.8923

> <Gold.Chemscore.Internal_Hbond.Weighted>
0.0000

> <Gold.Chemscore.DEClash.Weighted>
1.5613

> <Gold.Chemscore.DEInternal.Weighted>
1.6703

> <Gold.Chemscore.Rot.Weighted>
8.3447

> <Gold.Chemscore.Internal.Correction.Weighted>
   9.000000E+99

> <Gold.Protein.RotatedTorsions>
[ 6907 6896 6895 6894 ] final   91.93 input  -60.11 | X-H torsion
[ 7974 7965 7964 7962 ] final -102.82 input  175.53 | X-H torsion
[ 8008 7997 7996 7995 ] final -140.79 input   59.86 | X-H torsion
[ 10167 10162 10161 10158 ] final  -41.32 input  -65.29 | X-H torsion
[ 10718 10713 10712 10709 ] final -159.17 input   66.30 | X-H torsion
[ 10763 10752 10751 10750 ] final -103.41 input  -60.55 | X-H torsion
[ 11005 11000 10999 10996 ] final   52.04 input  -57.11 | X-H torsion

> <Gold.Protein.ActiveResidues>
 VAL166  LYS551  ARG553  GLY616  TRP617  ASP618  TYR619  PRO620  LYS621  CYS622 
 ASP623  PHE694  ASN695  SER759  ASP760  ASP761  ALA762  ILE779  LEU786  VAL792 
 PHE793  MET794  SER795  GLU796  ALA797  LYS798  CYS799  TRP800  GLU811  SER814 

> <Gold.Protein.RotatedAtoms>
  152.5451  134.1581  159.8546 H   0  0  0  0  0  0  0  0  0  0  0  0  # atno 6907 bound_to 6896
  151.1602  133.4843  159.2602 H   0  0  0  0  0  0  0  0  0  0  0  0  # atno 6908 bound_to 6896
  151.1381  135.0176  159.8668 H   0  0  0  0  0  0  0  0  0  0  0  0  # atno 6909 bound_to 6896
  145.2638  140.9277  143.3025 H   0  0  0  0  0  0  0  0  0  0  0  0  # atno 7974 bound_to 7965
  155.4671  140.0550  157.2984 H   0  0  0  0  0  0  0  0  0  0  0  0  # atno 8008 bound_to 7997
  154.4713  140.2041  155.9941 H   0  0  0  0  0  0  0  0  0  0  0  0  # atno 8009 bound_to 7997
  156.1061  140.3211  155.8012 H   0  0  0  0  0  0  0  0  0  0  0  0  # atno 8010 bound_to 7997
  140.7006  143.3101  151.3050 H   0  0  0  0  0  0  0  0  0  0  0  0  # atno 10167 bound_to 10162
  156.5643  130.8661  151.2819 H   0  0  0  0  0  0  0  0  0  0  0  0  # atno 10718 bound_to 10713
  154.7805  135.4824  153.9834 H   0  0  0  0  0  0  0  0  0  0  0  0  # atno 10763 bound_to 10752
  153.1487  135.6787  153.8922 H   0  0  0  0  0  0  0  0  0  0  0  0  # atno 10764 bound_to 10752
  153.8573  135.3159  155.3414 H   0  0  0  0  0  0  0  0  0  0  0  0  # atno 10765 bound_to 10752
  140.0882  134.5245  155.8878 H   0  0  0  0  0  0  0  0  0  0  0  0  # atno 11005 bound_to 11000
  144.9395  139.4205  143.6456 LP  0  0  0  0  0  0  0  0  0  0  0  0  # atno 17320 bound_to 7965
  146.3267  139.8347  142.8901 LP  0  0  0  0  0  0  0  0  0  0  0  0  # atno 17321 bound_to 7965
  139.6521  144.0343  152.2633 LP  0  0  0  0  0  0  0  0  0  0  0  0  # atno 17342 bound_to 10162
  139.9883  144.6380  150.7837 LP  0  0  0  0  0  0  0  0  0  0  0  0  # atno 17343 bound_to 10162
  157.7362  130.9774  150.2122 LP  0  0  0  0  0  0  0  0  0  0  0  0  # atno 17370 bound_to 10713
  156.2771  130.3729  149.7972 LP  0  0  0  0  0  0  0  0  0  0  0  0  # atno 17371 bound_to 10713
  141.2069  133.6659  156.6273 LP  0  0  0  0  0  0  0  0  0  0  0  0  # atno 17394 bound_to 11000
  140.3390  134.7865  157.4383 LP  0  0  0  0  0  0  0  0  0  0  0  0  # atno 17395 bound_to 11000

$$$$
