AV-unprocessed.smi:1677|AV-procd|sdf|6723|dock5
  -GOLD-   22720 7463D 1   1.00000     0.00000
 Structure written by MMmdl.
 37 38  0  0  0  0  0  0  0  0  2 V2000
  148.9202  138.5449  156.6866 C   0  0  0  0  0  0  0  0  0  0  0  0
  150.0355  139.3595  156.0116 C   0  0  1  0  0  0  0  0  0  0  0  0
  149.6985  139.7655  154.5605 C   0  0  0  0  0  0  0  0  0  0  0  0
  148.3990  140.4342  154.4438 N   0  0  0  0  0  0  0  0  0  0  0  0
  148.0329  141.6337  154.9984 C   0  0  0  0  0  0  0  0  0  0  0  0
  146.7328  141.8568  154.6243 C   0  0  0  0  0  0  0  0  0  0  0  0
  146.3595  140.7833  153.8606 N   0  3  0  0  0  0  0  0  0  0  0  0
  147.3729  139.9175  153.7548 C   0  0  0  0  0  0  0  0  0  0  0  0
  150.3125  140.5461  156.8153 N   0  0  0  0  0  0  0  0  0  0  0  0
  151.3706  140.7066  157.6260 C   0  0  0  0  0  0  0  0  0  0  0  0
  152.2505  139.8559  157.7625 O   0  0  0  0  0  0  0  0  0  0  0  0
  151.4452  142.0308  158.3973 C   0  0  1  0  0  0  0  0  0  0  0  0
  152.6814  142.0641  159.3246 C   0  0  0  0  0  0  0  0  0  0  0  0
  152.9163  143.4434  159.9144 C   0  0  0  0  0  0  0  0  0  0  0  0
  152.3495  144.5610  159.4282 C   0  0  0  0  0  0  0  0  0  0  0  0
  151.4154  144.5716  158.2306 C   0  0  0  0  0  0  0  0  0  0  0  0
  151.4542  143.2454  157.4472 C   0  0  0  0  0  0  0  0  0  0  0  0
  148.7380  137.6046  156.1659 H   0  0  0  0  0  0  0  0  0  0  0  0
  147.9822  139.1010  156.7107 H   0  0  0  0  0  0  0  0  0  0  0  0
  149.1858  138.2969  157.7151 H   0  0  0  0  0  0  0  0  0  0  0  0
  150.9306  138.7345  155.9987 H   0  0  0  0  0  0  0  0  0  0  0  0
  150.4657  140.4293  154.1583 H   0  0  0  0  0  0  0  0  0  0  0  0
  149.6689  138.8891  153.9116 H   0  0  0  0  0  0  0  0  0  0  0  0
  148.7083  142.2243  155.6010 H   0  0  0  0  0  0  0  0  0  0  0  0
  146.0629  142.6767  154.8393 H   0  0  0  0  0  0  0  0  0  0  0  0
  147.3645  138.9874  153.2146 H   0  0  0  0  0  0  0  0  0  0  0  0
  149.6407  141.2985  156.7645 H   0  0  0  0  0  0  0  0  0  0  0  0
  150.5526  142.1104  159.0212 H   0  0  0  0  0  0  0  0  0  0  0  0
  152.5485  141.3546  160.1420 H   0  0  0  0  0  0  0  0  0  0  0  0
  153.5860  141.7679  158.7911 H   0  0  0  0  0  0  0  0  0  0  0  0
  153.5855  143.5044  160.7601 H   0  0  0  0  0  0  0  0  0  0  0  0
  152.5453  145.5117  159.9019 H   0  0  0  0  0  0  0  0  0  0  0  0
  150.4055  144.7661  158.5926 H   0  0  0  0  0  0  0  0  0  0  0  0
  151.6824  145.3993  157.5732 H   0  0  0  0  0  0  0  0  0  0  0  0
  152.3570  143.2216  156.8345 H   0  0  0  0  0  0  0  0  0  0  0  0
  150.6124  143.2035  156.7545 H   0  0  0  0  0  0  0  0  0  0  0  0
  145.4483  140.6597  153.4367 H   0  0  0  0  0  0  0  0  0  0  0  0
  1  2  1  0  0  0  0
  1 18  1  0  0  0  0
  1 19  1  0  0  0  0
  1 20  1  0  0  0  0
  2  3  1  0  0  0  0
  2  9  1  0  0  0  0
  2 21  1  0  0  0  0
  3  4  1  0  0  0  0
  3 22  1  0  0  0  0
  3 23  1  0  0  0  0
  4  8  1  0  0  0  0
  4  5  1  0  0  0  0
  5  6  2  0  0  0  0
  5 24  1  0  0  0  0
  6  7  1  0  0  0  0
  6 25  1  0  0  0  0
  7  8  2  0  0  0  0
  7 37  1  0  0  0  0
  8 26  1  0  0  0  0
  9 10  1  0  0  0  0
  9 27  1  0  0  0  0
 10 11  2  0  0  0  0
 10 12  1  0  0  0  0
 12 17  1  0  0  0  0
 12 13  1  0  0  0  0
 12 28  1  0  0  0  0
 13 14  1  0  0  0  0
 13 29  1  0  0  0  0
 13 30  1  0  0  0  0
 14 15  2  0  0  0  0
 14 31  1  0  0  0  0
 15 16  1  0  0  0  0
 15 32  1  0  0  0  0
 16 17  1  0  0  0  0
 16 33  1  0  0  0  0
 16 34  1  0  0  0  0
 17 35  1  0  0  0  0
 17 36  1  0  0  0  0
M  CHG  1   7   1
M  END
> <s_m_source_file>
AV-unprocessed.smi

> <i_m_source_file_index>
1677

> <i_lp_mmshare_version>
43012

> <i_f3d_flags>
0

> <s_epik_input>
W2NIXTFuW2NIXVtjSF1uMVtDSDJdW0NAQEhdKFtDSDNdKVtOSF1DKD1PKVtDQEBIXTJbQ0gyXVtDSF09W0NIXVtDSDJdW0NIMl0y

> <s_epik_cmdline>
J2VwaWtfcHl0aG9uJywgJy1waCcsICc3LjAnLCAnLXRuJywgJzgnLCAnLW1hJywgJzIwMCcsICctbWV0YWxfYmluZGluZycsICctaW1hZScsICc8aW5maWxlLm1hZT4nLCAnLW9tYWUnLCAnPG91dGZpbGUubWFlPic=

> <r_lp_tautomer_probability>
1

> <r_epik_Ionization_Penalty>
0.245541

> <r_epik_Ionization_Penalty_Charging>
0

> <r_epik_Ionization_Penalty_Neutral>
0.245541

> <r_epik_State_Penalty>
0.236686

> <r_epik_Charging_Adjusted_Penalty>
0.236686

> <i_epik_Tot_Q>
1

> <i_epik_Tot_abs_Q>
1

> <r_epik_Metal_State_Penalty>
0.529594

> <b_epik_Metal_Only>
0

> <s_lp_Force_Field>
OPLS_2005

> <r_lp_Energy>
11.602

> <b_lp_Chiralities_Consistent>
1

> <s_lp_Variant>
AV-unprocessed.smi:1677-4

> <Gold.Version>
5.8.1

> <Gold.Id.Protein>
6NUR|6NUR_protein|mol2

> <Gold.PLP.Fitness>
48.2110

> <Gold.PLP.PLP>
-36.2510

> <Gold.PLP.part.hbond>
-2.0000

> <Gold.PLP.part.metal>
0.0000

> <Gold.PLP.part.buried>
0.2014

> <Gold.PLP.part.nonpolar>
-34.2355

> <Gold.PLP.part.repulsive>
0.0687

> <Gold.PLP.ligand.clash>
0.0000

> <Gold.PLP.ligand.torsion>
0.2327

> <Gold.PLP.Chemscore.Hbond>
3.0000

> <Gold.PLP.Chemscore.CHOScore>
1.1224

> <Gold.PLP.Chemscore.Metal>
0.0000

> <Gold.Chemscore.Hbonds>
donor molecule, donor type, donor heavy atom, donor atom, acceptor molecule, acceptor atom, score
      L1  H     7    37       P1 10175  2.00
      P1  H  7997  8008       L1    11  0.02
      L1  C     5    24       P1  8028  0.93

> <Gold.PLP.Chemscore.Internal.Correction>
0.0583

> <Gold.Rescore>
     Score         DG    S(hbond)    S(metal)    S(lipo)     H(rot)  DE(clash)    DE(int)     intcor
     17.66     -18.44       1.97        0.00      94.23       1.81       0.49       0.29       ----

> <Gold.Chemscore.Fitness>
17.6629

> <Gold.Chemscore.DG>
-18.4421

> <Gold.Chemscore.ZeroCoef>
-5.4800

> <Gold.Chemscore.Hbond>
1.9710

> <Gold.Chemscore.Metal>
0.0000

> <Gold.Chemscore.Lipo>
94.2272

> <Gold.Chemscore.Internal_Hbond>
0.0000

> <Gold.Chemscore.DEClash>
0.4913

> <Gold.Chemscore.DEInternal>
0.2879

> <Gold.Chemscore.Rot>
1.8147

> <Gold.Chemscore.Internal.Correction>
   9.000000E+99

> <Gold.Chemscore.Hbonds>
donor molecule, donor type, donor heavy atom, donor atom, acceptor molecule, acceptor atom, score
      L1  H     7    37       P1 10175  0.86
      P1  H  7997  8008       L1    11  0.07

> <Gold.Chemscore.Hbond.Weighted>
-6.5831

> <Gold.Chemscore.Metal.Weighted>
-0.0000

> <Gold.Chemscore.Lipo.Weighted>
-11.0246

> <Gold.Chemscore.Internal_Hbond.Weighted>
0.0000

> <Gold.Chemscore.DEClash.Weighted>
0.4913

> <Gold.Chemscore.DEInternal.Weighted>
0.2879

> <Gold.Chemscore.Rot.Weighted>
4.6456

> <Gold.Chemscore.Internal.Correction.Weighted>
   9.000000E+99

> <Gold.Protein.RotatedTorsions>
[ 6907 6896 6895 6894 ] final  -83.68 input  -60.11 | X-H torsion
[ 7974 7965 7964 7962 ] final  -99.58 input  175.53 | X-H torsion
[ 8008 7997 7996 7995 ] final  -56.01 input   59.86 | X-H torsion
[ 10167 10162 10161 10158 ] final    8.57 input  -65.29 | X-H torsion
[ 10718 10713 10712 10709 ] final   69.86 input   66.30 | X-H torsion
[ 10763 10752 10751 10750 ] final  116.96 input  -60.55 | X-H torsion
[ 11005 11000 10999 10996 ] final  -67.82 input  -57.11 | X-H torsion

> <Gold.Protein.ActiveResidues>
 VAL166  LYS551  ARG553  GLY616  TRP617  ASP618  TYR619  PRO620  LYS621  CYS622 
 ASP623  PHE694  ASN695  SER759  ASP760  ASP761  ALA762  ILE779  LEU786  VAL792 
 PHE793  MET794  SER795  GLU796  ALA797  LYS798  CYS799  TRP800  GLU811  SER814 

> <Gold.Protein.RotatedAtoms>
  150.6883  134.3475  159.4894 H   0  0  0  0  0  0  0  0  0  0  0  0  # atno 6907 bound_to 6896
  152.1320  134.9125  160.0567 H   0  0  0  0  0  0  0  0  0  0  0  0  # atno 6908 bound_to 6896
  152.0291  133.3895  159.4326 H   0  0  0  0  0  0  0  0  0  0  0  0  # atno 6909 bound_to 6896
  145.3057  140.9388  143.2798 H   0  0  0  0  0  0  0  0  0  0  0  0  # atno 7974 bound_to 7965
  154.4215  140.1140  156.5568 H   0  0  0  0  0  0  0  0  0  0  0  0  # atno 8008 bound_to 7997
  155.6353  140.3496  155.4677 H   0  0  0  0  0  0  0  0  0  0  0  0  # atno 8009 bound_to 7997
  155.9915  140.1180  157.0623 H   0  0  0  0  0  0  0  0  0  0  0  0  # atno 8010 bound_to 7997
  140.6306  143.8002  150.7290 H   0  0  0  0  0  0  0  0  0  0  0  0  # atno 10167 bound_to 10162
  157.6369  130.9447  150.0571 H   0  0  0  0  0  0  0  0  0  0  0  0  # atno 10718 bound_to 10713
  153.5451  135.3551  155.2735 H   0  0  0  0  0  0  0  0  0  0  0  0  # atno 10763 bound_to 10752
  154.8713  135.4100  154.3000 H   0  0  0  0  0  0  0  0  0  0  0  0  # atno 10764 bound_to 10752
  153.3715  135.7064  153.6702 H   0  0  0  0  0  0  0  0  0  0  0  0  # atno 10765 bound_to 10752
  141.1517  133.6727  156.6350 H   0  0  0  0  0  0  0  0  0  0  0  0  # atno 11005 bound_to 11000
  144.9056  139.4593  143.6611 LP  0  0  0  0  0  0  0  0  0  0  0  0  # atno 17320 bound_to 7965
  146.3136  139.7836  142.9001 LP  0  0  0  0  0  0  0  0  0  0  0  0  # atno 17321 bound_to 7965
  140.1612  143.4274  152.2065 LP  0  0  0  0  0  0  0  0  0  0  0  0  # atno 17342 bound_to 10162
  139.5521  144.7345  151.4404 LP  0  0  0  0  0  0  0  0  0  0  0  0  # atno 17343 bound_to 10162
  156.1615  130.3644  149.9292 LP  0  0  0  0  0  0  0  0  0  0  0  0  # atno 17370 bound_to 10713
  156.7289  130.9036  151.3624 LP  0  0  0  0  0  0  0  0  0  0  0  0  # atno 17371 bound_to 10713
  140.3437  134.7827  157.4416 LP  0  0  0  0  0  0  0  0  0  0  0  0  # atno 17394 bound_to 11000
  140.0917  134.5592  155.8438 LP  0  0  0  0  0  0  0  0  0  0  0  0  # atno 17395 bound_to 11000

$$$$
