AV-unprocessed.smi:942|AV-procd|sdf|4228|dock3
  -GOLD-   22720 2133D 1   1.00000     0.00000
 Structure written by MMmdl.
 42 44  0  0  0  0  0  0  0  0  1 V2000
  150.5863  140.7264  158.2303 O   0  0  0  0  0  0  0  0  0  0  0  0
  150.4150  141.8623  157.7875 C   0  0  0  0  0  0  0  0  0  0  0  0
  149.6308  142.1303  156.7325 N   0  0  0  0  0  0  0  0  0  0  0  0
  148.8928  141.1388  155.9553 C   0  0  1  0  0  0  0  0  0  0  0  0
  147.5600  141.7098  155.4266 C   0  0  0  0  0  0  0  0  0  0  0  0
  147.7092  141.8150  153.9073 C   0  0  0  0  0  0  0  0  0  0  0  0
  148.6928  140.7061  153.5473 C   0  0  0  0  0  0  0  0  0  0  0  0
  149.6982  140.7239  154.7040 C   0  0  2  0  0  0  0  0  0  0  0  0
  150.4125  139.4672  154.8663 N   0  0  0  0  0  0  0  0  0  0  0  0
  150.3116  138.3227  154.0833 C   0  0  0  0  0  0  0  0  0  0  0  0
  151.1718  137.3952  154.6257 C   0  0  0  0  0  0  0  0  0  0  0  0
  151.8076  137.9407  155.7380 N   0  0  0  0  0  0  0  0  0  0  0  0
  151.3069  139.1668  155.8186 C   0  0  0  0  0  0  0  0  0  0  0  0
  151.1105  143.0641  158.4405 C   0  0  0  0  0  0  0  0  0  0  0  0
  151.9882  142.6215  159.6306 C   0  0  0  0  0  0  0  0  0  0  0  0
  152.6863  143.8248  160.2858 C   0  0  0  0  0  0  0  0  0  0  0  0
  151.6682  144.8896  160.7247 C   0  0  0  0  0  0  0  0  0  0  0  0
  150.7767  145.3263  159.5512 C   0  0  0  0  0  0  0  0  0  0  0  0
  150.0820  144.1195  158.8989 C   0  0  0  0  0  0  0  0  0  0  0  0
  149.5444  143.0932  156.4410 H   0  0  0  0  0  0  0  0  0  0  0  0
  148.6813  140.2707  156.5829 H   0  0  0  0  0  0  0  0  0  0  0  0
  146.7555  141.0118  155.6615 H   0  0  0  0  0  0  0  0  0  0  0  0
  147.2890  142.6677  155.8727 H   0  0  0  0  0  0  0  0  0  0  0  0
  146.7572  141.7189  153.3843 H   0  0  0  0  0  0  0  0  0  0  0  0
  148.1374  142.7839  153.6466 H   0  0  0  0  0  0  0  0  0  0  0  0
  148.1619  139.7541  153.5052 H   0  0  0  0  0  0  0  0  0  0  0  0
  149.1673  140.8656  152.5786 H   0  0  0  0  0  0  0  0  0  0  0  0
  150.4320  141.5001  154.4769 H   0  0  0  0  0  0  0  0  0  0  0  0
  149.6534  138.2636  153.2289 H   0  0  0  0  0  0  0  0  0  0  0  0
  151.3792  136.3851  154.3045 H   0  0  0  0  0  0  0  0  0  0  0  0
  151.5994  139.8635  156.5907 H   0  0  0  0  0  0  0  0  0  0  0  0
  151.7607  143.5270  157.6958 H   0  0  0  0  0  0  0  0  0  0  0  0
  151.3800  142.1096  160.3783 H   0  0  0  0  0  0  0  0  0  0  0  0
  152.7377  141.9024  159.2980 H   0  0  0  0  0  0  0  0  0  0  0  0
  153.2706  143.4932  161.1445 H   0  0  0  0  0  0  0  0  0  0  0  0
  153.3939  144.2641  159.5815 H   0  0  0  0  0  0  0  0  0  0  0  0
  151.0461  144.4908  161.5270 H   0  0  0  0  0  0  0  0  0  0  0  0
  152.1888  145.7540  161.1376 H   0  0  0  0  0  0  0  0  0  0  0  0
  150.0313  146.0428  159.8974 H   0  0  0  0  0  0  0  0  0  0  0  0
  151.3814  145.8456  158.8066 H   0  0  0  0  0  0  0  0  0  0  0  0
  149.4866  144.4576  158.0497 H   0  0  0  0  0  0  0  0  0  0  0  0
  149.3817  143.6797  159.6113 H   0  0  0  0  0  0  0  0  0  0  0  0
  1  2  2  0  0  0  0
  2  3  1  0  0  0  0
  2 14  1  0  0  0  0
  3  4  1  0  0  0  0
  3 20  1  0  0  0  0
  4  8  1  0  0  0  0
  4  5  1  0  0  0  0
  4 21  1  0  0  0  0
  5  6  1  0  0  0  0
  5 22  1  0  0  0  0
  5 23  1  0  0  0  0
  6  7  1  0  0  0  0
  6 24  1  0  0  0  0
  6 25  1  0  0  0  0
  7  8  1  0  0  0  0
  7 26  1  0  0  0  0
  7 27  1  0  0  0  0
  8  9  1  0  0  0  0
  8 28  1  0  0  0  0
  9 13  1  0  0  0  0
  9 10  1  0  0  0  0
 10 11  2  0  0  0  0
 10 29  1  0  0  0  0
 11 12  1  0  0  0  0
 11 30  1  0  0  0  0
 12 13  2  0  0  0  0
 13 31  1  0  0  0  0
 14 19  1  0  0  0  0
 14 15  1  0  0  0  0
 14 32  1  0  0  0  0
 15 16  1  0  0  0  0
 15 33  1  0  0  0  0
 15 34  1  0  0  0  0
 16 17  1  0  0  0  0
 16 35  1  0  0  0  0
 16 36  1  0  0  0  0
 17 18  1  0  0  0  0
 17 37  1  0  0  0  0
 17 38  1  0  0  0  0
 18 19  1  0  0  0  0
 18 39  1  0  0  0  0
 18 40  1  0  0  0  0
 19 41  1  0  0  0  0
 19 42  1  0  0  0  0
M  END
> <s_m_source_file>
AV-unprocessed.smi

> <i_m_source_file_index>
942

> <i_lp_mmshare_version>
43012

> <i_f3d_flags>
0

> <s_epik_input>
W0NIMl0xW0NIMl1bQ0gyXVtDSDJdW0NIMl1bQ0hdMUMoPU8pW05IXVtDQEBIXTJbQ0gyXVtDSDJdW0NIMl1bQ0BIXTJuM1tjSF1bY0hdbltjSF0z

> <s_epik_cmdline>
J2VwaWtfcHl0aG9uJywgJy1waCcsICc3LjAnLCAnLXRuJywgJzgnLCAnLW1hJywgJzIwMCcsICctbWV0YWxfYmluZGluZycsICctaW1hZScsICc8aW5maWxlLm1hZT4nLCAnLW9tYWUnLCAnPG91dGZpbGUubWFlPic=

> <r_lp_tautomer_probability>
1

> <r_epik_Ionization_Penalty>
0.778458

> <r_epik_Ionization_Penalty_Charging>
0.778458

> <r_epik_Ionization_Penalty_Neutral>
2.79355e-08

> <r_epik_State_Penalty>
0.807804

> <r_epik_Charging_Adjusted_Penalty>
1.58626

> <i_epik_Tot_Q>
0

> <i_epik_Tot_abs_Q>
0

> <r_epik_Metal_State_Penalty>
0.343007

> <b_epik_Metal_Only>
0

> <s_lp_Force_Field>
OPLS_2005

> <r_lp_Energy>
31.6658

> <b_lp_Chiralities_Consistent>
1

> <s_lp_Variant>
AV-unprocessed.smi:942-8

> <Gold.Version>
5.8.1

> <Gold.Id.Protein>
6NUR|6NUR_protein|mol2

> <Gold.PLP.Fitness>
50.1623

> <Gold.PLP.PLP>
-40.2496

> <Gold.PLP.part.hbond>
-1.0000

> <Gold.PLP.part.metal>
0.0000

> <Gold.PLP.part.buried>
0.3060

> <Gold.PLP.part.nonpolar>
-39.5162

> <Gold.PLP.part.repulsive>
0.0512

> <Gold.PLP.ligand.clash>
0.0000

> <Gold.PLP.ligand.torsion>
0.3784

> <Gold.PLP.Chemscore.Hbond>
1.0000

> <Gold.PLP.Chemscore.CHOScore>
2.5514

> <Gold.PLP.Chemscore.Metal>
0.0000

> <Gold.Chemscore.Hbonds>
donor molecule, donor type, donor heavy atom, donor atom, acceptor molecule, acceptor atom, score
      L1  H     3    20       P1  8028  1.00
      L1  C    10    29       P1  7948  0.99
      L1  C    10    29       P1  7957  0.50
      L1  C    11    30       P1  7949  0.15

> <Gold.PLP.Chemscore.Internal.Correction>
0.0155

> <Gold.Rescore>
     Score         DG    S(hbond)    S(metal)    S(lipo)     H(rot)  DE(clash)    DE(int)     intcor
     15.47     -17.93       0.99        0.00     109.80       1.44       0.48       1.99       ----

> <Gold.Chemscore.Fitness>
15.4660

> <Gold.Chemscore.DG>
-17.9334

> <Gold.Chemscore.ZeroCoef>
-5.4800

> <Gold.Chemscore.Hbond>
0.9858

> <Gold.Chemscore.Metal>
0.0000

> <Gold.Chemscore.Lipo>
109.7955

> <Gold.Chemscore.Internal_Hbond>
0.0000

> <Gold.Chemscore.DEClash>
0.4793

> <Gold.Chemscore.DEInternal>
1.9881

> <Gold.Chemscore.Rot>
1.4395

> <Gold.Chemscore.Internal.Correction>
   9.000000E+99

> <Gold.Chemscore.Hbonds>
donor molecule, donor type, donor heavy atom, donor atom, acceptor molecule, acceptor atom, score
      L1  H     3    20       P1  8028  1.00

> <Gold.Chemscore.Hbond.Weighted>
-3.2925

> <Gold.Chemscore.Metal.Weighted>
-0.0000

> <Gold.Chemscore.Lipo.Weighted>
-12.8461

> <Gold.Chemscore.Internal_Hbond.Weighted>
0.0000

> <Gold.Chemscore.DEClash.Weighted>
0.4793

> <Gold.Chemscore.DEInternal.Weighted>
1.9881

> <Gold.Chemscore.Rot.Weighted>
3.6852

> <Gold.Chemscore.Internal.Correction.Weighted>
   9.000000E+99

> <Gold.Protein.RotatedTorsions>
[ 6907 6896 6895 6894 ] final  -67.11 input  -60.11 | X-H torsion
[ 7974 7965 7964 7962 ] final  -54.23 input  175.53 | X-H torsion
[ 8008 7997 7996 7995 ] final   73.23 input   59.86 | X-H torsion
[ 10167 10162 10161 10158 ] final  163.14 input  -65.29 | X-H torsion
[ 10718 10713 10712 10709 ] final -118.37 input   66.30 | X-H torsion
[ 10763 10752 10751 10750 ] final  150.87 input  -60.55 | X-H torsion
[ 11005 11000 10999 10996 ] final  -48.49 input  -57.11 | X-H torsion

> <Gold.Protein.ActiveResidues>
 VAL166  LYS551  ARG553  GLY616  TRP617  ASP618  TYR619  PRO620  LYS621  CYS622 
 ASP623  PHE694  ASN695  SER759  ASP760  ASP761  ALA762  ILE779  LEU786  VAL792 
 PHE793  MET794  SER795  GLU796  ALA797  LYS798  CYS799  TRP800  GLU811  SER814 

> <Gold.Protein.RotatedAtoms>
  150.7428  134.5927  159.5995 H   0  0  0  0  0  0  0  0  0  0  0  0  # atno 6907 bound_to 6896
  152.3310  134.7256  160.0298 H   0  0  0  0  0  0  0  0  0  0  0  0  # atno 6908 bound_to 6896
  151.7739  133.3308  159.3489 H   0  0  0  0  0  0  0  0  0  0  0  0  # atno 6909 bound_to 6896
  145.8879  140.8093  142.9806 H   0  0  0  0  0  0  0  0  0  0  0  0  # atno 7974 bound_to 7965
  155.7805  140.3482  155.5295 H   0  0  0  0  0  0  0  0  0  0  0  0  # atno 8008 bound_to 7997
  155.8733  140.0990  157.1556 H   0  0  0  0  0  0  0  0  0  0  0  0  # atno 8009 bound_to 7997
  154.4019  140.1336  156.4092 H   0  0  0  0  0  0  0  0  0  0  0  0  # atno 8010 bound_to 7997
  139.4870  144.4367  151.9003 H   0  0  0  0  0  0  0  0  0  0  0  0  # atno 10167 bound_to 10162
  156.1101  130.6242  150.9282 H   0  0  0  0  0  0  0  0  0  0  0  0  # atno 10718 bound_to 10713
  154.0946  135.2850  155.3264 H   0  0  0  0  0  0  0  0  0  0  0  0  # atno 10763 bound_to 10752
  154.6597  135.5339  153.8005 H   0  0  0  0  0  0  0  0  0  0  0  0  # atno 10764 bound_to 10752
  153.0401  135.6530  154.1113 H   0  0  0  0  0  0  0  0  0  0  0  0  # atno 10765 bound_to 10752
  141.0704  133.6681  156.3449 H   0  0  0  0  0  0  0  0  0  0  0  0  # atno 11005 bound_to 11000
  144.6729  140.1485  143.7432 LP  0  0  0  0  0  0  0  0  0  0  0  0  # atno 17320 bound_to 7965
  145.8944  139.2394  143.1531 LP  0  0  0  0  0  0  0  0  0  0  0  0  # atno 17321 bound_to 7965
  140.3817  144.2727  150.5908 LP  0  0  0  0  0  0  0  0  0  0  0  0  # atno 17342 bound_to 10162
  140.5227  143.2262  151.8363 LP  0  0  0  0  0  0  0  0  0  0  0  0  # atno 17343 bound_to 10162
  157.6281  131.0923  150.8494 LP  0  0  0  0  0  0  0  0  0  0  0  0  # atno 17370 bound_to 10713
  156.8606  130.5112  149.5304 LP  0  0  0  0  0  0  0  0  0  0  0  0  # atno 17371 bound_to 10713
  140.5686  134.5863  157.5452 LP  0  0  0  0  0  0  0  0  0  0  0  0  # atno 17394 bound_to 11000
  139.9517  134.7604  156.0432 LP  0  0  0  0  0  0  0  0  0  0  0  0  # atno 17395 bound_to 11000

$$$$
