AV-unprocessed.smi:833|AV-procd|sdf|3883|dock4
  -GOLD-   22720 1343D 1   1.00000     0.00000
 Structure written by MMmdl.
 40 41  0  0  0  0  0  0  0  0  2 V2000
  152.4981  138.8296  155.5390 C   0  0  0  0  0  0  0  0  0  0  0  0
  151.5583  138.0819  154.5843 C   0  0  1  0  0  0  0  0  0  0  0  0
  152.3441  137.1667  153.8485 O   0  0  0  0  0  0  0  0  0  0  0  0
  150.4665  137.3037  155.3443 C   0  0  0  0  0  0  0  0  0  0  0  0
  149.8571  136.2693  154.5140 N   0  0  0  0  0  0  0  0  0  0  0  0
  149.8109  134.9653  154.8199 C   0  0  0  0  0  0  0  0  0  0  0  0
  150.2823  134.4890  155.8525 O   0  0  0  0  0  0  0  0  0  0  0  0
  149.1691  134.2627  153.8719 N   0  0  0  0  0  0  0  0  0  0  0  0
  148.8909  132.8673  153.8676 C   0  0  0  0  0  0  0  0  0  0  0  0
  149.7778  131.9466  154.4823 C   0  0  0  0  0  0  0  0  0  0  0  0
  149.5233  130.5646  154.4023 C   0  0  0  0  0  0  0  0  0  0  0  0
  148.3927  130.1219  153.6947 C   0  0  0  0  0  0  0  0  0  0  0  0
  147.5745  131.0218  153.1110 N   0  3  0  0  0  0  0  0  0  0  0  0
  147.7575  132.3650  153.1644 C   0  0  0  0  0  0  0  0  0  0  0  0
  146.8087  133.1871  152.5142 N   0  0  0  0  0  0  0  0  0  0  0  0
  146.7942  133.2881  151.0593 C   0  0  0  0  0  0  0  0  0  0  0  0
  145.4581  133.9431  150.7208 C   0  0  0  0  0  0  0  0  0  0  0  0
  144.5320  133.3699  151.7891 C   0  0  0  0  0  0  0  0  0  0  0  0
  145.4383  133.2213  153.0160 C   0  0  0  0  0  0  0  0  0  0  0  0
  151.9526  139.5722  156.1218 H   0  0  0  0  0  0  0  0  0  0  0  0
  153.2809  139.3547  154.9903 H   0  0  0  0  0  0  0  0  0  0  0  0
  152.9814  138.1468  156.2391 H   0  0  0  0  0  0  0  0  0  0  0  0
  151.1132  138.8013  153.8957 H   0  0  0  0  0  0  0  0  0  0  0  0
  151.9528  137.0524  152.9962 H   0  0  0  0  0  0  0  0  0  0  0  0
  150.8727  136.8478  156.2481 H   0  0  0  0  0  0  0  0  0  0  0  0
  149.6850  137.9883  155.6788 H   0  0  0  0  0  0  0  0  0  0  0  0
  149.4442  136.5728  153.6442 H   0  0  0  0  0  0  0  0  0  0  0  0
  148.7438  134.7975  153.1287 H   0  0  0  0  0  0  0  0  0  0  0  0
  150.6665  132.2810  154.9963 H   0  0  0  0  0  0  0  0  0  0  0  0
  150.1934  129.8553  154.8657 H   0  0  0  0  0  0  0  0  0  0  0  0
  148.1213  129.0831  153.5742 H   0  0  0  0  0  0  0  0  0  0  0  0
  147.6368  133.8742  150.6917 H   0  0  0  0  0  0  0  0  0  0  0  0
  146.8400  132.2964  150.6072 H   0  0  0  0  0  0  0  0  0  0  0  0
  145.5327  135.0257  150.8343 H   0  0  0  0  0  0  0  0  0  0  0  0
  145.1246  133.7295  149.7049 H   0  0  0  0  0  0  0  0  0  0  0  0
  143.6607  133.9973  151.9788 H   0  0  0  0  0  0  0  0  0  0  0  0
  144.1757  132.3879  151.4749 H   0  0  0  0  0  0  0  0  0  0  0  0
  145.1861  132.3276  153.5885 H   0  0  0  0  0  0  0  0  0  0  0  0
  145.3251  134.0867  153.6695 H   0  0  0  0  0  0  0  0  0  0  0  0
  146.7628  130.6688  152.6038 H   0  0  0  0  0  0  0  0  0  0  0  0
  1  2  1  0  0  0  0
  1 20  1  0  0  0  0
  1 21  1  0  0  0  0
  1 22  1  0  0  0  0
  2  3  1  0  0  0  0
  2  4  1  0  0  0  0
  2 23  1  0  0  0  0
  3 24  1  0  0  0  0
  4  5  1  0  0  0  0
  4 25  1  0  0  0  0
  4 26  1  0  0  0  0
  5  6  1  0  0  0  0
  5 27  1  0  0  0  0
  6  7  2  0  0  0  0
  6  8  1  0  0  0  0
  8  9  1  0  0  0  0
  8 28  1  0  0  0  0
  9 14  1  0  0  0  0
  9 10  2  0  0  0  0
 10 11  1  0  0  0  0
 10 29  1  0  0  0  0
 11 12  2  0  0  0  0
 11 30  1  0  0  0  0
 12 13  1  0  0  0  0
 12 31  1  0  0  0  0
 13 14  2  0  0  0  0
 13 40  1  0  0  0  0
 14 15  1  0  0  0  0
 15 19  1  0  0  0  0
 15 16  1  0  0  0  0
 16 17  1  0  0  0  0
 16 32  1  0  0  0  0
 16 33  1  0  0  0  0
 17 18  1  0  0  0  0
 17 34  1  0  0  0  0
 17 35  1  0  0  0  0
 18 19  1  0  0  0  0
 18 36  1  0  0  0  0
 18 37  1  0  0  0  0
 19 38  1  0  0  0  0
 19 39  1  0  0  0  0
M  CHG  1  13   1
M  END
> <s_m_source_file>
AV-unprocessed.smi

> <i_m_source_file_index>
833

> <i_lp_mmshare_version>
43012

> <i_f3d_flags>
0

> <s_epik_input>
W0NIM11bQ0BIXShbT0hdKVtDSDJdW05IXUMoPU8pW05IXWMxW2NIXVtjSF1bY0hdbmMxTjJbQ0gyXVtDSDJdW0NIMl1bQ0gyXTI=

> <s_epik_cmdline>
J2VwaWtfcHl0aG9uJywgJy1waCcsICc3LjAnLCAnLXRuJywgJzgnLCAnLW1hJywgJzIwMCcsICctbWV0YWxfYmluZGluZycsICctaW1hZScsICc8aW5maWxlLm1hZT4nLCAnLW9tYWUnLCAnPG91dGZpbGUubWFlPic=

> <r_lp_tautomer_probability>
0.999994

> <r_epik_Ionization_Penalty>
1.11387

> <r_epik_Ionization_Penalty_Charging>
1.11385

> <r_epik_Ionization_Penalty_Neutral>
1.95796e-05

> <r_epik_State_Penalty>
1.17209

> <r_epik_Charging_Adjusted_Penalty>
2.28594

> <i_epik_Tot_Q>
1

> <i_epik_Tot_abs_Q>
1

> <r_epik_Metal_State_Penalty>
1.25763

> <b_epik_Metal_Only>
0

> <s_lp_Force_Field>
OPLS_2005

> <r_lp_Energy>
38.2358

> <b_lp_Chiralities_Consistent>
1

> <s_lp_Variant>
AV-unprocessed.smi:833-4

> <Gold.Version>
5.8.1

> <Gold.Id.Protein>
6NUR|6NUR_protein|mol2

> <Gold.PLP.Fitness>
45.4113

> <Gold.PLP.PLP>
-34.6836

> <Gold.PLP.part.hbond>
-5.0859

> <Gold.PLP.part.metal>
0.0000

> <Gold.PLP.part.buried>
-4.4948

> <Gold.PLP.part.nonpolar>
-25.5865

> <Gold.PLP.part.repulsive>
0.2266

> <Gold.PLP.ligand.clash>
0.0000

> <Gold.PLP.ligand.torsion>
0.5518

> <Gold.PLP.Chemscore.Hbond>
3.8160

> <Gold.PLP.Chemscore.CHOScore>
0.0000

> <Gold.PLP.Chemscore.Metal>
0.0000

> <Gold.Chemscore.Hbonds>
donor molecule, donor type, donor heavy atom, donor atom, acceptor molecule, acceptor atom, score
      L1  H     3    24       P1  7949  1.00
      L1  H     5    27       P1  7948  0.99
      L1  H     8    28       P1  7948  0.91
      P1  H 10752 10765       L1     3  0.82

> <Gold.PLP.Chemscore.Internal.Correction>
0.3832

> <Gold.Rescore>
     Score         DG    S(hbond)    S(metal)    S(lipo)     H(rot)  DE(clash)    DE(int)     intcor
     15.16     -17.25       2.84        0.00      64.77       2.06       0.28       1.81       ----

> <Gold.Chemscore.Fitness>
15.1593

> <Gold.Chemscore.DG>
-17.2537

> <Gold.Chemscore.ZeroCoef>
-5.4800

> <Gold.Chemscore.Hbond>
2.8380

> <Gold.Chemscore.Metal>
0.0000

> <Gold.Chemscore.Lipo>
64.7684

> <Gold.Chemscore.Internal_Hbond>
0.0000

> <Gold.Chemscore.DEClash>
0.2812

> <Gold.Chemscore.DEInternal>
1.8133

> <Gold.Chemscore.Rot>
2.0637

> <Gold.Chemscore.Internal.Correction>
   9.000000E+99

> <Gold.Chemscore.Hbonds>
donor molecule, donor type, donor heavy atom, donor atom, acceptor molecule, acceptor atom, score
      L1  H     3    24       P1  7949  0.94
      L1  H     5    27       P1  7948  0.78
      L1  H     8    28       P1  7948  0.27
      P1  H 10752 10765       L1     3  0.16

> <Gold.Chemscore.Hbond.Weighted>
-9.4790

> <Gold.Chemscore.Metal.Weighted>
-0.0000

> <Gold.Chemscore.Lipo.Weighted>
-7.5779

> <Gold.Chemscore.Internal_Hbond.Weighted>
0.0000

> <Gold.Chemscore.DEClash.Weighted>
0.2812

> <Gold.Chemscore.DEInternal.Weighted>
1.8133

> <Gold.Chemscore.Rot.Weighted>
5.2832

> <Gold.Chemscore.Internal.Correction.Weighted>
   9.000000E+99

> <Gold.Protein.RotatedTorsions>
[ 6907 6896 6895 6894 ] final   57.53 input  -60.11 | X-H torsion
[ 7974 7965 7964 7962 ] final -179.09 input  175.53 | X-H torsion
[ 8008 7997 7996 7995 ] final  133.73 input   59.86 | X-H torsion
[ 10167 10162 10161 10158 ] final  106.77 input  -65.29 | X-H torsion
[ 10718 10713 10712 10709 ] final  -15.65 input   66.30 | X-H torsion
[ 10763 10752 10751 10750 ] final  139.37 input  -60.55 | X-H torsion
[ 11005 11000 10999 10996 ] final    7.54 input  -57.11 | X-H torsion

> <Gold.Protein.ActiveResidues>
 VAL166  LYS551  ARG553  GLY616  TRP617  ASP618  TYR619  PRO620  LYS621  CYS622 
 ASP623  PHE694  ASN695  SER759  ASP760  ASP761  ALA762  ILE779  LEU786  VAL792 
 PHE793  MET794  SER795  GLU796  ALA797  LYS798  CYS799  TRP800  GLU811  SER814 

> <Gold.Protein.RotatedAtoms>
  152.3740  134.6692  160.0166 H   0  0  0  0  0  0  0  0  0  0  0  0  # atno 6907 bound_to 6896
  151.6976  133.3305  159.3266 H   0  0  0  0  0  0  0  0  0  0  0  0  # atno 6908 bound_to 6896
  150.7695  134.6579  159.6368 H   0  0  0  0  0  0  0  0  0  0  0  0  # atno 6909 bound_to 6896
  144.7134  140.0770  143.6427 H   0  0  0  0  0  0  0  0  0  0  0  0  # atno 7974 bound_to 7965
  156.2994  140.2514  156.3301 H   0  0  0  0  0  0  0  0  0  0  0  0  # atno 8008 bound_to 7997
  154.9153  140.0402  157.1988 H   0  0  0  0  0  0  0  0  0  0  0  0  # atno 8009 bound_to 7997
  154.8364  140.2884  155.5692 H   0  0  0  0  0  0  0  0  0  0  0  0  # atno 8010 bound_to 7997
  139.6982  144.7098  151.1231 H   0  0  0  0  0  0  0  0  0  0  0  0  # atno 10167 bound_to 10162
  156.5988  130.4818  149.6248 H   0  0  0  0  0  0  0  0  0  0  0  0  # atno 10718 bound_to 10713
  153.9051  135.3017  155.3448 H   0  0  0  0  0  0  0  0  0  0  0  0  # atno 10763 bound_to 10752
  154.7651  135.4914  153.9542 H   0  0  0  0  0  0  0  0  0  0  0  0  # atno 10764 bound_to 10752
  153.1223  135.6785  153.9415 H   0  0  0  0  0  0  0  0  0  0  0  0  # atno 10765 bound_to 10752
  140.5471  134.0319  155.7924 H   0  0  0  0  0  0  0  0  0  0  0  0  # atno 11005 bound_to 11000
  145.9734  139.2887  143.1085 LP  0  0  0  0  0  0  0  0  0  0  0  0  # atno 17320 bound_to 7965
  145.9091  140.9192  143.0463 LP  0  0  0  0  0  0  0  0  0  0  0  0  # atno 17321 bound_to 7965
  140.7702  143.5462  150.9256 LP  0  0  0  0  0  0  0  0  0  0  0  0  # atno 17342 bound_to 10162
  139.9142  143.6683  152.3109 LP  0  0  0  0  0  0  0  0  0  0  0  0  # atno 17343 bound_to 10162
  156.2487  130.6894  151.1624 LP  0  0  0  0  0  0  0  0  0  0  0  0  # atno 17370 bound_to 10713
  157.7285  131.0631  150.5818 LP  0  0  0  0  0  0  0  0  0  0  0  0  # atno 17371 bound_to 10713
  141.1194  133.9487  157.2760 LP  0  0  0  0  0  0  0  0  0  0  0  0  # atno 17394 bound_to 11000
  139.9474  135.0181  156.8893 LP  0  0  0  0  0  0  0  0  0  0  0  0  # atno 17395 bound_to 11000

$$$$
