AV-unprocessed.smi:2667|AV-procd|sdf|10334|dock2
  -GOLD-   2272014353D 1   1.00000     0.00000
 Structure written by MMmdl.
 44 46  0  0  0  0  0  0  0  0  1 V2000
  142.3521  146.3352  154.3233 C   0  0  0  0  0  0  0  0  0  0  0  0
  143.5821  145.4381  154.1119 C   0  0  0  0  0  0  0  0  0  0  0  0
  143.8753  144.4936  155.2879 C   0  0  0  0  0  0  0  0  0  0  0  0
  143.1444  144.5065  156.2796 O   0  0  0  0  0  0  0  0  0  0  0  0
  145.0553  143.5893  155.1641 C   0  0  0  0  0  0  0  0  0  0  0  0
  145.5667  143.1927  153.9063 C   0  0  0  0  0  0  0  0  0  0  0  0
  146.6791  142.3335  153.8261 C   0  0  0  0  0  0  0  0  0  0  0  0
  147.3076  141.8504  154.9906 C   0  0  0  0  0  0  0  0  0  0  0  0
  148.3862  141.0100  154.8188 O   0  0  0  0  0  0  0  0  0  0  0  0
  149.1352  140.6285  155.9661 C   0  0  0  0  0  0  0  0  0  0  0  0
  150.6368  140.6230  155.6341 C   0  0  2  0  0  0  0  0  0  0  0  0
  150.8813  139.6443  154.6403 O   0  0  0  0  0  0  0  0  0  0  0  0
  151.5587  140.5228  156.8790 C   0  0  0  0  0  0  0  0  0  0  0  0
  151.6718  141.7535  157.6447 N   0  0  0  0  0  0  0  0  0  0  0  0
  151.0682  142.9293  157.3837 C   0  0  0  0  0  0  0  0  0  0  0  0
  151.3183  143.9403  158.2104 N   0  0  0  0  0  0  0  0  0  0  0  0
  152.1812  143.3507  159.1185 C   0  0  0  0  0  0  0  0  0  0  0  0
  152.8227  143.8900  160.2567 C   0  0  0  0  0  0  0  0  0  0  0  0
  153.6712  143.0865  161.0467 C   0  0  0  0  0  0  0  0  0  0  0  0
  153.8880  141.7335  160.7141 C   0  0  0  0  0  0  0  0  0  0  0  0
  153.2584  141.1741  159.5861 C   0  0  0  0  0  0  0  0  0  0  0  0
  152.4179  141.9801  158.7964 C   0  0  0  0  0  0  0  0  0  0  0  0
  146.7999  142.2492  156.2511 C   0  0  0  0  0  0  0  0  0  0  0  0
  145.6867  143.1080  156.3333 C   0  0  0  0  0  0  0  0  0  0  0  0
  142.1968  146.9820  153.4597 H   0  0  0  0  0  0  0  0  0  0  0  0
  142.4723  146.9771  155.1969 H   0  0  0  0  0  0  0  0  0  0  0  0
  141.4458  145.7440  154.4583 H   0  0  0  0  0  0  0  0  0  0  0  0
  143.4382  144.8388  153.2125 H   0  0  0  0  0  0  0  0  0  0  0  0
  144.4581  146.0648  153.9429 H   0  0  0  0  0  0  0  0  0  0  0  0
  145.1212  143.5344  152.9842 H   0  0  0  0  0  0  0  0  0  0  0  0
  147.0539  142.0430  152.8557 H   0  0  0  0  0  0  0  0  0  0  0  0
  148.9343  141.3003  156.8027 H   0  0  0  0  0  0  0  0  0  0  0  0
  148.8405  139.6226  156.2691 H   0  0  0  0  0  0  0  0  0  0  0  0
  150.8563  141.5738  155.1467 H   0  0  0  0  0  0  0  0  0  0  0  0
  150.0540  139.3795  154.2688 H   0  0  0  0  0  0  0  0  0  0  0  0
  151.1811  139.7485  157.5481 H   0  0  0  0  0  0  0  0  0  0  0  0
  152.5617  140.1986  156.5996 H   0  0  0  0  0  0  0  0  0  0  0  0
  150.4126  143.0510  156.5337 H   0  0  0  0  0  0  0  0  0  0  0  0
  152.6618  144.9243  160.5221 H   0  0  0  0  0  0  0  0  0  0  0  0
  154.1570  143.5101  161.9133 H   0  0  0  0  0  0  0  0  0  0  0  0
  154.5376  141.1247  161.3257 H   0  0  0  0  0  0  0  0  0  0  0  0
  153.4184  140.1378  159.3317 H   0  0  0  0  0  0  0  0  0  0  0  0
  147.2456  141.9090  157.1732 H   0  0  0  0  0  0  0  0  0  0  0  0
  145.3231  143.3919  157.3106 H   0  0  0  0  0  0  0  0  0  0  0  0
  1  2  1  0  0  0  0
  1 25  1  0  0  0  0
  1 26  1  0  0  0  0
  1 27  1  0  0  0  0
  2  3  1  0  0  0  0
  2 28  1  0  0  0  0
  2 29  1  0  0  0  0
  3  4  2  0  0  0  0
  3  5  1  0  0  0  0
  5 24  1  0  0  0  0
  5  6  2  0  0  0  0
  6  7  1  0  0  0  0
  6 30  1  0  0  0  0
  7  8  2  0  0  0  0
  7 31  1  0  0  0  0
  8  9  1  0  0  0  0
  8 23  1  0  0  0  0
  9 10  1  0  0  0  0
 10 11  1  0  0  0  0
 10 32  1  0  0  0  0
 10 33  1  0  0  0  0
 11 12  1  0  0  0  0
 11 13  1  0  0  0  0
 11 34  1  0  0  0  0
 12 35  1  0  0  0  0
 13 14  1  0  0  0  0
 13 36  1  0  0  0  0
 13 37  1  0  0  0  0
 14 22  1  0  0  0  0
 14 15  1  0  0  0  0
 15 16  2  0  0  0  0
 15 38  1  0  0  0  0
 16 17  1  0  0  0  0
 17 22  2  0  0  0  0
 17 18  1  0  0  0  0
 18 19  2  0  0  0  0
 18 39  1  0  0  0  0
 19 20  1  0  0  0  0
 19 40  1  0  0  0  0
 20 21  2  0  0  0  0
 20 41  1  0  0  0  0
 21 22  1  0  0  0  0
 21 42  1  0  0  0  0
 23 24  2  0  0  0  0
 23 43  1  0  0  0  0
 24 44  1  0  0  0  0
M  END
> <s_m_source_file>
AV-unprocessed.smi

> <i_m_source_file_index>
2667

> <i_lp_mmshare_version>
43012

> <i_f3d_flags>
0

> <s_epik_input>
W0NIM11bQ0gyXUMoPU8pYzFbY0hdW2NIXWMoW2NIXVtjSF0xKU9bQ0gyXVtDQEhdKFtPSF0pW0NIMl1uKFtjSF1uMiljKGMyMylbY0hdW2NIXVtjSF1bY0hdMw==

> <s_epik_cmdline>
J2VwaWtfcHl0aG9uJywgJy1waCcsICc3LjAnLCAnLXRuJywgJzgnLCAnLW1hJywgJzIwMCcsICctbWV0YWxfYmluZGluZycsICctaW1hZScsICc8aW5maWxlLm1hZT4nLCAnLW9tYWUnLCAnPG91dGZpbGUubWFlPic=

> <r_lp_tautomer_probability>
0.9999

> <r_epik_Ionization_Penalty>
0.0583018

> <r_epik_Ionization_Penalty_Charging>
0

> <r_epik_Ionization_Penalty_Neutral>
0.0583018

> <r_epik_State_Penalty>
0.0504087

> <r_epik_Charging_Adjusted_Penalty>
0.0504087

> <i_epik_Tot_Q>
0

> <i_epik_Tot_abs_Q>
0

> <r_epik_Metal_State_Penalty>
5.26129e-05

> <b_epik_Metal_Only>
0

> <s_lp_Force_Field>
OPLS_2005

> <r_lp_Energy>
26.5089

> <b_lp_Chiralities_Consistent>
1

> <s_lp_Variant>
AV-unprocessed.smi:2667-1

> <Gold.Version>
5.8.1

> <Gold.Id.Protein>
6NUR|6NUR_protein|mol2

> <Gold.PLP.Fitness>
56.2269

> <Gold.PLP.PLP>
-51.6650

> <Gold.PLP.part.hbond>
-1.0000

> <Gold.PLP.part.metal>
0.0000

> <Gold.PLP.part.buried>
-7.4126

> <Gold.PLP.part.nonpolar>
-42.0967

> <Gold.PLP.part.repulsive>
0.2584

> <Gold.PLP.ligand.clash>
0.0000

> <Gold.PLP.ligand.torsion>
0.8067

> <Gold.PLP.Chemscore.Hbond>
1.0000

> <Gold.PLP.Chemscore.CHOScore>
1.0000

> <Gold.PLP.Chemscore.Metal>
0.0000

> <Gold.Chemscore.Hbonds>
donor molecule, donor type, donor heavy atom, donor atom, acceptor molecule, acceptor atom, score
      P1  H  7989  7998       L1    12  0.65
      L1  C    15    38       P1  8028  1.00

> <Gold.PLP.Chemscore.Internal.Correction>
0.1752

> <Gold.Rescore>
     Score         DG    S(hbond)    S(metal)    S(lipo)     H(rot)  DE(clash)    DE(int)     intcor
     13.61     -15.04       0.46        0.00     123.21       2.49       0.28       1.15       ----

> <Gold.Chemscore.Fitness>
13.6102

> <Gold.Chemscore.DG>
-15.0361

> <Gold.Chemscore.ZeroCoef>
-5.4800

> <Gold.Chemscore.Hbond>
0.4561

> <Gold.Chemscore.Metal>
0.0000

> <Gold.Chemscore.Lipo>
123.2088

> <Gold.Chemscore.Internal_Hbond>
0.0000

> <Gold.Chemscore.DEClash>
0.2801

> <Gold.Chemscore.DEInternal>
1.1458

> <Gold.Chemscore.Rot>
2.4932

> <Gold.Chemscore.Internal.Correction>
   9.000000E+99

> <Gold.Chemscore.Hbonds>
donor molecule, donor type, donor heavy atom, donor atom, acceptor molecule, acceptor atom, score
      P1  H  7989  7998       L1    12  0.03

> <Gold.Chemscore.Hbond.Weighted>
-1.5233

> <Gold.Chemscore.Metal.Weighted>
-0.0000

> <Gold.Chemscore.Lipo.Weighted>
-14.4154

> <Gold.Chemscore.Internal_Hbond.Weighted>
0.0000

> <Gold.Chemscore.DEClash.Weighted>
0.2801

> <Gold.Chemscore.DEInternal.Weighted>
1.1458

> <Gold.Chemscore.Rot.Weighted>
6.3826

> <Gold.Chemscore.Internal.Correction.Weighted>
   9.000000E+99

> <Gold.Protein.RotatedTorsions>
[ 6907 6896 6895 6894 ] final -146.55 input  -60.11 | X-H torsion
[ 7974 7965 7964 7962 ] final   55.50 input  175.53 | X-H torsion
[ 8008 7997 7996 7995 ] final  171.80 input   59.86 | X-H torsion
[ 10167 10162 10161 10158 ] final  155.67 input  -65.29 | X-H torsion
[ 10718 10713 10712 10709 ] final  175.22 input   66.30 | X-H torsion
[ 10763 10752 10751 10750 ] final -161.50 input  -60.55 | X-H torsion
[ 11005 11000 10999 10996 ] final -125.71 input  -57.11 | X-H torsion

> <Gold.Protein.ActiveResidues>
 VAL166  LYS551  ARG553  GLY616  TRP617  ASP618  TYR619  PRO620  LYS621  CYS622 
 ASP623  PHE694  ASN695  SER759  ASP760  ASP761  ALA762  ILE779  LEU786  VAL792 
 PHE793  MET794  SER795  GLU796  ALA797  LYS798  CYS799  TRP800  GLU811  SER814 

> <Gold.Protein.RotatedAtoms>
  151.1432  133.4957  159.2596 H   0  0  0  0  0  0  0  0  0  0  0  0  # atno 6907 bound_to 6896
  151.1633  135.0283  159.8730 H   0  0  0  0  0  0  0  0  0  0  0  0  # atno 6908 bound_to 6896
  152.5462  134.1303  159.8489 H   0  0  0  0  0  0  0  0  0  0  0  0  # atno 6909 bound_to 6896
  145.9497  139.3961  143.0313 H   0  0  0  0  0  0  0  0  0  0  0  0  # atno 7974 bound_to 7965
  156.1236  140.1502  156.9169 H   0  0  0  0  0  0  0  0  0  0  0  0  # atno 8008 bound_to 7997
  154.4854  140.0867  156.7516 H   0  0  0  0  0  0  0  0  0  0  0  0  # atno 8009 bound_to 7997
  155.4384  140.3430  155.4289 H   0  0  0  0  0  0  0  0  0  0  0  0  # atno 8010 bound_to 7997
  139.4821  144.5078  151.8071 H   0  0  0  0  0  0  0  0  0  0  0  0  # atno 10167 bound_to 10162
  156.9380  130.9992  151.2974 H   0  0  0  0  0  0  0  0  0  0  0  0  # atno 10718 bound_to 10713
  154.7298  135.3044  154.8911 H   0  0  0  0  0  0  0  0  0  0  0  0  # atno 10763 bound_to 10752
  153.9757  135.6736  153.4752 H   0  0  0  0  0  0  0  0  0  0  0  0  # atno 10764 bound_to 10752
  153.0908  135.4960  154.8606 H   0  0  0  0  0  0  0  0  0  0  0  0  # atno 10765 bound_to 10752
  140.9740  134.0766  157.3838 H   0  0  0  0  0  0  0  0  0  0  0  0  # atno 11005 bound_to 11000
  145.8188  140.9690  143.0910 LP  0  0  0  0  0  0  0  0  0  0  0  0  # atno 17320 bound_to 7965
  144.6793  140.0014  143.7484 LP  0  0  0  0  0  0  0  0  0  0  0  0  # atno 17321 bound_to 7965
  140.4577  144.1765  150.5903 LP  0  0  0  0  0  0  0  0  0  0  0  0  # atno 17342 bound_to 10162
  140.4517  143.2484  151.9338 LP  0  0  0  0  0  0  0  0  0  0  0  0  # atno 17343 bound_to 10162
  157.5803  130.8372  149.8514 LP  0  0  0  0  0  0  0  0  0  0  0  0  # atno 17370 bound_to 10713
  156.0417  130.3737  150.1419 LP  0  0  0  0  0  0  0  0  0  0  0  0  # atno 17371 bound_to 10713
  139.8923  135.0124  156.6840 LP  0  0  0  0  0  0  0  0  0  0  0  0  # atno 17394 bound_to 11000
  140.7286  133.9078  155.8196 LP  0  0  0  0  0  0  0  0  0  0  0  0  # atno 17395 bound_to 11000

$$$$
