AV-unprocessed.smi:2482|AV-procd|sdf|9778|dock3
  -GOLD-   2272013423D 1   1.00000     0.00000
 Structure written by MMmdl.
 35 36  0  0  0  0  0  0  0  0  2 V2000
  153.2224  143.1927  160.2827 C   0  0  0  0  0  0  0  0  0  0  0  0
  152.8618  141.9694  159.4605 C   0  0  0  0  0  0  0  0  0  0  0  0
  153.4313  140.8101  159.8558 N   0  0  0  0  0  0  0  0  0  0  0  0
  153.1485  139.6925  159.1560 C   0  0  0  0  0  0  0  0  0  0  0  0
  152.2880  139.6731  158.0416 C   0  0  0  0  0  0  0  0  0  0  0  0
  151.6770  140.8833  157.6342 C   0  0  0  0  0  0  0  0  0  0  0  0
  150.8091  140.9850  156.5120 N   0  0  0  0  0  0  0  0  0  0  0  0
  150.5612  140.0810  155.5455 C   0  0  0  0  0  0  0  0  0  0  0  0
  151.0916  138.9722  155.4787 O   0  0  0  0  0  0  0  0  0  0  0  0
  149.5437  140.5090  154.4763 C   0  0  1  0  0  0  0  0  0  0  0  0
  148.6876  139.3294  153.9582 C   0  0  0  0  0  0  0  0  0  0  0  0
  147.6751  139.8055  152.9877 N   0  3  1  0  0  0  0  0  0  0  0  0
  146.8554  138.7066  152.4342 C   0  0  0  0  0  0  0  0  0  0  0  0
  146.8555  140.8927  153.5677 C   0  0  0  0  0  0  0  0  0  0  0  0
  147.7606  142.0216  154.0849 C   0  0  0  0  0  0  0  0  0  0  0  0
  148.6785  141.4967  155.0359 O   0  0  0  0  0  0  0  0  0  0  0  0
  151.9835  142.0611  158.3552 C   0  0  0  0  0  0  0  0  0  0  0  0
  151.2924  143.5828  157.8990 Cl  0  0  0  0  0  0  0  0  0  0  0  0
  152.3257  143.6327  160.7195 H   0  0  0  0  0  0  0  0  0  0  0  0
  153.7060  143.9427  159.6563 H   0  0  0  0  0  0  0  0  0  0  0  0
  153.9047  142.9425  161.0963 H   0  0  0  0  0  0  0  0  0  0  0  0
  153.6289  138.7849  159.4901 H   0  0  0  0  0  0  0  0  0  0  0  0
  152.1284  138.7418  157.5211 H   0  0  0  0  0  0  0  0  0  0  0  0
  150.2418  141.8202  156.4853 H   0  0  0  0  0  0  0  0  0  0  0  0
  150.1046  140.9497  153.6503 H   0  0  0  0  0  0  0  0  0  0  0  0
  149.3221  138.5865  153.4725 H   0  0  0  0  0  0  0  0  0  0  0  0
  148.1858  138.8300  154.7893 H   0  0  0  0  0  0  0  0  0  0  0  0
  146.2759  138.2164  153.2176 H   0  0  0  0  0  0  0  0  0  0  0  0
  147.4888  137.9576  151.9579 H   0  0  0  0  0  0  0  0  0  0  0  0
  146.1630  139.0846  151.6813 H   0  0  0  0  0  0  0  0  0  0  0  0
  146.1714  141.2817  152.8128 H   0  0  0  0  0  0  0  0  0  0  0  0
  146.2456  140.4993  154.3827 H   0  0  0  0  0  0  0  0  0  0  0  0
  148.2998  142.4977  153.2645 H   0  0  0  0  0  0  0  0  0  0  0  0
  147.1603  142.7955  154.5633 H   0  0  0  0  0  0  0  0  0  0  0  0
  148.1823  140.2072  152.2117 H   0  0  0  0  0  0  0  0  0  0  0  0
  1  2  1  0  0  0  0
  1 19  1  0  0  0  0
  1 20  1  0  0  0  0
  1 21  1  0  0  0  0
  2 17  1  0  0  0  0
  2  3  2  0  0  0  0
  3  4  1  0  0  0  0
  4  5  2  0  0  0  0
  4 22  1  0  0  0  0
  5  6  1  0  0  0  0
  5 23  1  0  0  0  0
  6  7  1  0  0  0  0
  6 17  2  0  0  0  0
  7  8  1  0  0  0  0
  7 24  1  0  0  0  0
  8  9  2  0  0  0  0
  8 10  1  0  0  0  0
 10 16  1  0  0  0  0
 10 11  1  0  0  0  0
 10 25  1  0  0  0  0
 11 12  1  0  0  0  0
 11 26  1  0  0  0  0
 11 27  1  0  0  0  0
 12 13  1  0  0  0  0
 12 14  1  0  0  0  0
 12 35  1  0  0  0  0
 13 28  1  0  0  0  0
 13 29  1  0  0  0  0
 13 30  1  0  0  0  0
 14 15  1  0  0  0  0
 14 31  1  0  0  0  0
 14 32  1  0  0  0  0
 15 16  1  0  0  0  0
 15 33  1  0  0  0  0
 15 34  1  0  0  0  0
 17 18  1  0  0  0  0
M  CHG  1  12   1
M  END
> <s_m_source_file>
AV-unprocessed.smi

> <i_m_source_file_index>
2482

> <i_lp_mmshare_version>
43012

> <i_f3d_flags>
0

> <s_epik_input>
W0NIM11jMW5bY0hdW2NIXWMoYzFDbClbTkhdQyg9TylbQ0BASF0yW0NIMl1OKFtDSDNdKVtDSDJdW0NIMl1PMg==

> <s_epik_cmdline>
J2VwaWtfcHl0aG9uJywgJy1waCcsICc3LjAnLCAnLXRuJywgJzgnLCAnLW1hJywgJzIwMCcsICctbWV0YWxfYmluZGluZycsICctaW1hZScsICc8aW5maWxlLm1hZT4nLCAnLW9tYWUnLCAnPG91dGZpbGUubWFlPic=

> <r_epik_Ionization_Penalty>
0.314226

> <r_epik_Ionization_Penalty_Charging>
0.314023

> <r_epik_Ionization_Penalty_Neutral>
0.00020299

> <r_epik_State_Penalty>
0.308208

> <r_epik_Charging_Adjusted_Penalty>
0.62223

> <i_epik_Tot_Q>
1

> <i_epik_Tot_abs_Q>
1

> <r_epik_Metal_State_Penalty>
0.314444

> <b_epik_Metal_Only>
0

> <s_lp_Force_Field>
OPLS_2005

> <r_lp_Energy>
22.3096

> <b_lp_Chiralities_Consistent>
1

> <s_lp_Variant>
AV-unprocessed.smi:2482-4

> <Gold.Version>
5.8.1

> <Gold.Id.Protein>
6NUR|6NUR_protein|mol2

> <Gold.PLP.Fitness>
36.4336

> <Gold.PLP.PLP>
-34.9053

> <Gold.PLP.part.hbond>
-1.0000

> <Gold.PLP.part.metal>
0.0000

> <Gold.PLP.part.buried>
-4.5979

> <Gold.PLP.part.nonpolar>
-29.9502

> <Gold.PLP.part.repulsive>
0.2746

> <Gold.PLP.ligand.clash>
0.0000

> <Gold.PLP.ligand.torsion>
0.7366

> <Gold.PLP.Chemscore.Hbond>
1.0000

> <Gold.PLP.Chemscore.CHOScore>
0.0000

> <Gold.PLP.Chemscore.Metal>
0.0000

> <Gold.Chemscore.Hbonds>
donor molecule, donor type, donor heavy atom, donor atom, acceptor molecule, acceptor atom, score
      L1  H    12    35       P1  7957  0.91

> <Gold.PLP.Chemscore.Internal.Correction>
0.0014

> <Gold.Rescore>
     Score         DG    S(hbond)    S(metal)    S(lipo)     H(rot)  DE(clash)    DE(int)     intcor
     15.71     -17.76       0.99        0.00      98.55       1.00       0.09       1.95       ----

> <Gold.Chemscore.Fitness>
15.7109

> <Gold.Chemscore.DG>
-17.7577

> <Gold.Chemscore.ZeroCoef>
-5.4800

> <Gold.Chemscore.Hbond>
0.9903

> <Gold.Chemscore.Metal>
0.0000

> <Gold.Chemscore.Lipo>
98.5475

> <Gold.Chemscore.Internal_Hbond>
0.0000

> <Gold.Chemscore.DEClash>
0.0930

> <Gold.Chemscore.DEInternal>
1.9537

> <Gold.Chemscore.Rot>
1.0000

> <Gold.Chemscore.Internal.Correction>
   9.000000E+99

> <Gold.Chemscore.Hbonds>
donor molecule, donor type, donor heavy atom, donor atom, acceptor molecule, acceptor atom, score
      L1  H    12    35       P1  7957  0.90

> <Gold.Chemscore.Hbond.Weighted>
-3.3076

> <Gold.Chemscore.Metal.Weighted>
-0.0000

> <Gold.Chemscore.Lipo.Weighted>
-11.5301

> <Gold.Chemscore.Internal_Hbond.Weighted>
0.0000

> <Gold.Chemscore.DEClash.Weighted>
0.0930

> <Gold.Chemscore.DEInternal.Weighted>
1.9537

> <Gold.Chemscore.Rot.Weighted>
2.5600

> <Gold.Chemscore.Internal.Correction.Weighted>
   9.000000E+99

> <Gold.Protein.RotatedTorsions>
[ 6907 6896 6895 6894 ] final  -52.18 input  -60.11 | X-H torsion
[ 7974 7965 7964 7962 ] final   48.57 input  175.53 | X-H torsion
[ 8008 7997 7996 7995 ] final   42.54 input   59.86 | X-H torsion
[ 10167 10162 10161 10158 ] final -167.51 input  -65.29 | X-H torsion
[ 10718 10713 10712 10709 ] final -116.69 input   66.30 | X-H torsion
[ 10763 10752 10751 10750 ] final  -27.46 input  -60.55 | X-H torsion
[ 11005 11000 10999 10996 ] final -113.79 input  -57.11 | X-H torsion

> <Gold.Protein.ActiveResidues>
 VAL166  LYS551  ARG553  GLY616  TRP617  ASP618  TYR619  PRO620  LYS621  CYS622 
 ASP623  PHE694  ASN695  SER759  ASP760  ASP761  ALA762  ILE779  LEU786  VAL792 
 PHE793  MET794  SER795  GLU796  ALA797  LYS798  CYS799  TRP800  GLU811  SER814 

> <Gold.Protein.RotatedAtoms>
  150.8542  134.7876  159.7032 H   0  0  0  0  0  0  0  0  0  0  0  0  # atno 6907 bound_to 6896
  152.4598  134.5206  159.9791 H   0  0  0  0  0  0  0  0  0  0  0  0  # atno 6908 bound_to 6896
  151.5321  133.3409  159.2956 H   0  0  0  0  0  0  0  0  0  0  0  0  # atno 6909 bound_to 6896
  146.0191  139.4631  142.9908 H   0  0  0  0  0  0  0  0  0  0  0  0  # atno 7974 bound_to 7965
  155.2878  140.3377  155.4254 H   0  0  0  0  0  0  0  0  0  0  0  0  # atno 8008 bound_to 7997
  156.2060  140.1751  156.7839 H   0  0  0  0  0  0  0  0  0  0  0  0  # atno 8009 bound_to 7997
  154.5621  140.0685  156.8819 H   0  0  0  0  0  0  0  0  0  0  0  0  # atno 8010 bound_to 7997
  139.6045  144.0942  152.1778 H   0  0  0  0  0  0  0  0  0  0  0  0  # atno 10167 bound_to 10162
  156.0981  130.6149  150.9069 H   0  0  0  0  0  0  0  0  0  0  0  0  # atno 10718 bound_to 10713
  153.7324  135.6938  153.4986 H   0  0  0  0  0  0  0  0  0  0  0  0  # atno 10763 bound_to 10752
  153.2126  135.4397  155.0397 H   0  0  0  0  0  0  0  0  0  0  0  0  # atno 10764 bound_to 10752
  154.8248  135.3440  154.6853 H   0  0  0  0  0  0  0  0  0  0  0  0  # atno 10765 bound_to 10752
  141.0592  133.9562  157.2697 H   0  0  0  0  0  0  0  0  0  0  0  0  # atno 11005 bound_to 11000
  145.7221  141.0071  143.1397 LP  0  0  0  0  0  0  0  0  0  0  0  0  # atno 17320 bound_to 7965
  144.6983  139.8883  143.7451 LP  0  0  0  0  0  0  0  0  0  0  0  0  # atno 17321 bound_to 7965
  140.0546  144.5905  150.7309 LP  0  0  0  0  0  0  0  0  0  0  0  0  # atno 17342 bound_to 10162
  140.7274  143.2651  151.4072 LP  0  0  0  0  0  0  0  0  0  0  0  0  # atno 17343 bound_to 10162
  157.6146  131.0934  150.8733 LP  0  0  0  0  0  0  0  0  0  0  0  0  # atno 17370 bound_to 10713
  156.8866  130.5198  149.5288 LP  0  0  0  0  0  0  0  0  0  0  0  0  # atno 17371 bound_to 10713
  139.9418  135.0190  156.8730 LP  0  0  0  0  0  0  0  0  0  0  0  0  # atno 17394 bound_to 11000
  140.5902  134.0269  155.7497 LP  0  0  0  0  0  0  0  0  0  0  0  0  # atno 17395 bound_to 11000

$$$$
