AV-unprocessed.smi:1659|AV-procd|sdf|6651|dock6
  -GOLD-   22720 7353D 1   1.00000     0.00000
 Structure written by MMmdl.
 42 43  0  0  0  0  0  0  0  0  2 V2000
  146.6531  132.6533  161.9089 C   0  0  0  0  0  0  0  0  0  0  0  0
  146.9733  134.0936  161.6989 C   0  0  0  0  0  0  0  0  0  0  0  0
  147.3567  134.8080  160.5995 C   0  0  0  0  0  0  0  0  0  0  0  0
  147.4832  136.1327  161.1006 C   0  0  0  0  0  0  0  0  0  0  0  0
  147.8554  137.2116  160.3949 N   0  5  0  0  0  0  0  0  0  0  0  0
  148.7160  137.0848  159.3584 C   0  0  0  0  0  0  0  0  0  0  0  0
  149.2452  136.0403  158.9708 O   0  0  0  0  0  0  0  0  0  0  0  0
  148.9815  138.2385  158.7309 N   0  0  0  0  0  0  0  0  0  0  0  0
  149.8687  138.3852  157.5830 C   0  0  0  0  0  0  0  0  0  0  0  0
  150.9270  139.4721  157.8250 C   0  0  0  0  0  0  0  0  0  0  0  0
  150.3393  140.8943  157.8994 C   0  0  0  0  0  0  0  0  0  0  0  0
  151.3468  141.8724  158.3273 N   0  0  0  0  0  0  0  0  0  0  0  0
  151.5233  143.0406  157.4503 C   0  0  0  0  0  0  0  0  0  0  0  0
  150.9904  144.3593  158.0564 C   0  0  0  0  0  0  0  0  0  0  0  0
  151.0594  144.4786  159.5920 C   0  0  0  0  0  0  0  0  0  0  0  0
  152.4393  144.1717  160.2111 C   0  0  0  0  0  0  0  0  0  0  0  0
  153.0713  142.8045  159.8537 C   0  0  0  0  0  0  0  0  0  0  0  0
  152.0586  141.7127  159.4701 C   0  0  0  0  0  0  0  0  0  0  0  0
  151.9313  140.7371  160.2100 O   0  0  0  0  0  0  0  0  0  0  0  0
  147.2183  136.2111  162.3941 N   0  0  0  0  0  0  0  0  0  0  0  0
  146.8833  134.9089  162.7839 O   0  0  0  0  0  0  0  0  0  0  0  0
  147.4034  132.0187  161.4374 H   0  0  0  0  0  0  0  0  0  0  0  0
  145.6828  132.4086  161.4773 H   0  0  0  0  0  0  0  0  0  0  0  0
  146.6232  132.4077  162.9706 H   0  0  0  0  0  0  0  0  0  0  0  0
  147.5158  134.4448  159.5953 H   0  0  0  0  0  0  0  0  0  0  0  0
  148.5314  139.0739  159.0757 H   0  0  0  0  0  0  0  0  0  0  0  0
  150.3596  137.4299  157.3923 H   0  0  0  0  0  0  0  0  0  0  0  0
  149.2844  138.6271  156.6937 H   0  0  0  0  0  0  0  0  0  0  0  0
  151.4737  139.2451  158.7411 H   0  0  0  0  0  0  0  0  0  0  0  0
  151.6590  139.4308  157.0175 H   0  0  0  0  0  0  0  0  0  0  0  0
  149.9297  141.1759  156.9285 H   0  0  0  0  0  0  0  0  0  0  0  0
  149.4890  140.9180  158.5833 H   0  0  0  0  0  0  0  0  0  0  0  0
  152.5803  143.1485  157.2072 H   0  0  0  0  0  0  0  0  0  0  0  0
  151.0496  142.8745  156.4818 H   0  0  0  0  0  0  0  0  0  0  0  0
  151.5210  145.1957  157.6000 H   0  0  0  0  0  0  0  0  0  0  0  0
  149.9470  144.4784  157.7621 H   0  0  0  0  0  0  0  0  0  0  0  0
  150.7617  145.4878  159.8787 H   0  0  0  0  0  0  0  0  0  0  0  0
  150.3079  143.8263  160.0392 H   0  0  0  0  0  0  0  0  0  0  0  0
  153.1369  144.9603  159.9274 H   0  0  0  0  0  0  0  0  0  0  0  0
  152.3475  144.2411  161.2956 H   0  0  0  0  0  0  0  0  0  0  0  0
  153.7858  142.9237  159.0392 H   0  0  0  0  0  0  0  0  0  0  0  0
  153.6687  142.4560  160.6972 H   0  0  0  0  0  0  0  0  0  0  0  0
  1  2  1  0  0  0  0
  1 22  1  0  0  0  0
  1 23  1  0  0  0  0
  1 24  1  0  0  0  0
  2 21  1  0  0  0  0
  2  3  2  0  0  0  0
  3  4  1  0  0  0  0
  3 25  1  0  0  0  0
  4  5  1  0  0  0  0
  4 20  2  0  0  0  0
  5  6  1  0  0  0  0
  6  7  2  0  0  0  0
  6  8  1  0  0  0  0
  8  9  1  0  0  0  0
  8 26  1  0  0  0  0
  9 10  1  0  0  0  0
  9 27  1  0  0  0  0
  9 28  1  0  0  0  0
 10 11  1  0  0  0  0
 10 29  1  0  0  0  0
 10 30  1  0  0  0  0
 11 12  1  0  0  0  0
 11 31  1  0  0  0  0
 11 32  1  0  0  0  0
 12 18  1  0  0  0  0
 12 13  1  0  0  0  0
 13 14  1  0  0  0  0
 13 33  1  0  0  0  0
 13 34  1  0  0  0  0
 14 15  1  0  0  0  0
 14 35  1  0  0  0  0
 14 36  1  0  0  0  0
 15 16  1  0  0  0  0
 15 37  1  0  0  0  0
 15 38  1  0  0  0  0
 16 17  1  0  0  0  0
 16 39  1  0  0  0  0
 16 40  1  0  0  0  0
 17 18  1  0  0  0  0
 17 41  1  0  0  0  0
 17 42  1  0  0  0  0
 18 19  2  0  0  0  0
 20 21  1  0  0  0  0
M  CHG  1   5  -1
M  END
> <s_m_source_file>
AV-unprocessed.smi

> <i_m_source_file_index>
1659

> <i_lp_mmshare_version>
43012

> <i_f3d_flags>
0

> <s_epik_input>
W0NIM11jMVtjSF1jKG5vMSlbTkhdQyg9TylbTkhdW0NIMl1bQ0gyXVtDSDJdTjJbQ0gyXVtDSDJdW0NIMl1bQ0gyXVtDSDJdQzI9Tw==

> <s_epik_cmdline>
J2VwaWtfcHl0aG9uJywgJy1waCcsICc3LjAnLCAnLXRuJywgJzgnLCAnLW1hJywgJzIwMCcsICctbWV0YWxfYmluZGluZycsICctaW1hZScsICc8aW5maWxlLm1hZT4nLCAnLW9tYWUnLCAnPG91dGZpbGUubWFlPic=

> <r_lp_tautomer_probability>
1

> <r_epik_Ionization_Penalty>
6.59786

> <r_epik_Ionization_Penalty_Charging>
6.59773

> <r_epik_Ionization_Penalty_Neutral>
0.00012688

> <r_epik_State_Penalty>
6.59772

> <r_epik_Charging_Adjusted_Penalty>
13.1954

> <i_epik_Tot_Q>
-1

> <i_epik_Tot_abs_Q>
1

> <r_epik_Metal_State_Penalty>
2.522

> <b_epik_Metal_Only>
1

> <s_lp_Force_Field>
OPLS_2005

> <r_lp_Energy>
19.1909

> <b_lp_Chiralities_Consistent>
1

> <s_lp_Variant>
AV-unprocessed.smi:1659-2

> <Gold.Version>
5.8.1

> <Gold.Id.Protein>
6NUR|6NUR_protein|mol2

> <Gold.PLP.Fitness>
47.8916

> <Gold.PLP.PLP>
-36.1283

> <Gold.PLP.part.hbond>
-3.0439

> <Gold.PLP.part.metal>
0.0000

> <Gold.PLP.part.buried>
-5.0043

> <Gold.PLP.part.nonpolar>
-29.3022

> <Gold.PLP.part.repulsive>
0.2269

> <Gold.PLP.ligand.clash>
0.0000

> <Gold.PLP.ligand.torsion>
0.3079

> <Gold.PLP.Chemscore.Hbond>
4.1040

> <Gold.PLP.Chemscore.CHOScore>
0.0000

> <Gold.PLP.Chemscore.Metal>
0.0000

> <Gold.Chemscore.Hbonds>
donor molecule, donor type, donor heavy atom, donor atom, acceptor molecule, acceptor atom, score
      P1  H  6896  6908       L1     7  0.84
      P1  H  6931  6943       L1     5  0.94
      P1  H  6934  6947       L1     5  1.66

> <Gold.PLP.Chemscore.Internal.Correction>
0.0671

> <Gold.Rescore>
     Score         DG    S(hbond)    S(metal)    S(lipo)     H(rot)  DE(clash)    DE(int)     intcor
     14.40     -17.46       1.88        0.00      88.96       1.84       0.08       2.99       ----

> <Gold.Chemscore.Fitness>
14.3953

> <Gold.Chemscore.DG>
-17.4557

> <Gold.Chemscore.ZeroCoef>
-5.4800

> <Gold.Chemscore.Hbond>
1.8791

> <Gold.Chemscore.Metal>
0.0000

> <Gold.Chemscore.Lipo>
88.9553

> <Gold.Chemscore.Internal_Hbond>
0.0000

> <Gold.Chemscore.DEClash>
0.0753

> <Gold.Chemscore.DEInternal>
2.9851

> <Gold.Chemscore.Rot>
1.8391

> <Gold.Chemscore.Internal.Correction>
   9.000000E+99

> <Gold.Chemscore.Hbonds>
donor molecule, donor type, donor heavy atom, donor atom, acceptor molecule, acceptor atom, score
      P1  H  6896  6908       L1     7  0.82
      P1  H  6931  6943       L1     5  0.05
      P1  H  6934  6947       L1     5  0.74

> <Gold.Chemscore.Hbond.Weighted>
-6.2761

> <Gold.Chemscore.Metal.Weighted>
-0.0000

> <Gold.Chemscore.Lipo.Weighted>
-10.4078

> <Gold.Chemscore.Internal_Hbond.Weighted>
0.0000

> <Gold.Chemscore.DEClash.Weighted>
0.0753

> <Gold.Chemscore.DEInternal.Weighted>
2.9851

> <Gold.Chemscore.Rot.Weighted>
4.7082

> <Gold.Chemscore.Internal.Correction.Weighted>
   9.000000E+99

> <Gold.Protein.RotatedTorsions>
[ 6907 6896 6895 6894 ] final  176.49 input  -60.11 | X-H torsion
[ 7974 7965 7964 7962 ] final -157.53 input  175.53 | X-H torsion
[ 8008 7997 7996 7995 ] final  161.19 input   59.86 | X-H torsion
[ 10167 10162 10161 10158 ] final -174.45 input  -65.29 | X-H torsion
[ 10718 10713 10712 10709 ] final  145.72 input   66.30 | X-H torsion
[ 10763 10752 10751 10750 ] final   -4.04 input  -60.55 | X-H torsion
[ 11005 11000 10999 10996 ] final  -78.77 input  -57.11 | X-H torsion

> <Gold.Protein.ActiveResidues>
 VAL166  LYS551  ARG553  GLY616  TRP617  ASP618  TYR619  PRO620  LYS621  CYS622 
 ASP623  PHE694  ASN695  SER759  ASP760  ASP761  ALA762  ILE779  LEU786  VAL792 
 PHE793  MET794  SER795  GLU796  ALA797  LYS798  CYS799  TRP800  GLU811  SER814 

> <Gold.Protein.RotatedAtoms>
  151.7193  133.3314  159.3310 H   0  0  0  0  0  0  0  0  0  0  0  0  # atno 6907 bound_to 6896
  150.7660  134.6462  159.6273 H   0  0  0  0  0  0  0  0  0  0  0  0  # atno 6908 bound_to 6896
  152.3662  134.6803  160.0243 H   0  0  0  0  0  0  0  0  0  0  0  0  # atno 6909 bound_to 6896
  144.7544  140.3956  143.6023 H   0  0  0  0  0  0  0  0  0  0  0  0  # atno 7974 bound_to 7965
  156.2120  140.1784  156.7673 H   0  0  0  0  0  0  0  0  0  0  0  0  # atno 8008 bound_to 7997
  154.5737  140.0678  156.9031 H   0  0  0  0  0  0  0  0  0  0  0  0  # atno 8009 bound_to 7997
  155.2627  140.3337  155.4274 H   0  0  0  0  0  0  0  0  0  0  0  0  # atno 8010 bound_to 7997
  139.5633  144.1817  152.1273 H   0  0  0  0  0  0  0  0  0  0  0  0  # atno 10167 bound_to 10162
  157.3419  131.0937  151.1075 H   0  0  0  0  0  0  0  0  0  0  0  0  # atno 10718 bound_to 10713
  153.3794  135.6998  153.6577 H   0  0  0  0  0  0  0  0  0  0  0  0  # atno 10763 bound_to 10752
  153.5194  135.3615  155.2625 H   0  0  0  0  0  0  0  0  0  0  0  0  # atno 10764 bound_to 10752
  154.8691  135.4154  154.3089 H   0  0  0  0  0  0  0  0  0  0  0  0  # atno 10765 bound_to 10752
  141.1666  133.7077  156.8023 H   0  0  0  0  0  0  0  0  0  0  0  0  # atno 11005 bound_to 11000
  145.6830  139.1622  143.2690 LP  0  0  0  0  0  0  0  0  0  0  0  0  # atno 17320 bound_to 7965
  146.1536  140.6889  142.9310 LP  0  0  0  0  0  0  0  0  0  0  0  0  # atno 17321 bound_to 7965
  140.1335  144.5267  150.6788 LP  0  0  0  0  0  0  0  0  0  0  0  0  # atno 17342 bound_to 10162
  140.6915  143.2378  151.5119 LP  0  0  0  0  0  0  0  0  0  0  0  0  # atno 17343 bound_to 10162
  157.2283  130.6513  149.5839 LP  0  0  0  0  0  0  0  0  0  0  0  0  # atno 17370 bound_to 10713
  155.9709  130.4607  150.6081 LP  0  0  0  0  0  0  0  0  0  0  0  0  # atno 17371 bound_to 10713
  140.2248  134.8730  157.3415 LP  0  0  0  0  0  0  0  0  0  0  0  0  # atno 17394 bound_to 11000
  140.1951  134.4323  155.7693 LP  0  0  0  0  0  0  0  0  0  0  0  0  # atno 17395 bound_to 11000

$$$$
