AV-unprocessed.smi:2660|AV-procd|sdf|10315|dock6
  -GOLD-   2272014333D 1   1.00000     0.00000
 Structure written by MMmdl.
 36 37  0  0  0  0  0  0  0  0  1 V2000
  148.1319  138.8784  152.3539 N   0  0  0  0  0  0  0  0  0  0  0  0
  148.1715  139.7467  153.3722 C   0  0  0  0  0  0  0  0  0  0  0  0
  147.4790  140.7626  153.3125 O   0  0  0  0  0  0  0  0  0  0  0  0
  149.0777  139.3505  154.4736 C   0  0  0  0  0  0  0  0  0  0  0  0
  149.8798  138.2639  154.4062 C   0  0  0  0  0  0  0  0  0  0  0  0
  150.7316  137.9144  155.5096 C   0  0  0  0  0  0  0  0  0  0  0  0
  150.8073  138.7186  156.5864 C   0  0  0  0  0  0  0  0  0  0  0  0
  151.6150  138.3002  157.8217 C   0  0  0  0  0  0  0  0  0  0  0  0
  152.1381  137.0830  157.6687 F   0  0  0  0  0  0  0  0  0  0  0  0
  152.6317  139.1319  158.0402 F   0  0  0  0  0  0  0  0  0  0  0  0
  150.8437  138.2488  158.9088 F   0  0  0  0  0  0  0  0  0  0  0  0
  150.0373  139.9229  156.6278 N   0  0  0  0  0  0  0  0  0  0  0  0
  150.2632  140.9295  157.6974 C   0  0  0  0  0  0  0  0  0  0  0  0
  151.2180  142.0758  157.2717 C   0  0  1  0  0  0  0  0  0  0  0  0
  150.6462  142.7441  156.1648 O   0  0  0  0  0  0  0  0  0  0  0  0
  151.5733  143.0223  158.4132 C   0  0  0  0  0  0  0  0  0  0  0  0
  152.0780  142.5272  159.6367 C   0  0  0  0  0  0  0  0  0  0  0  0
  152.4148  143.4132  160.6783 C   0  0  0  0  0  0  0  0  0  0  0  0
  152.2477  144.8001  160.5056 C   0  0  0  0  0  0  0  0  0  0  0  0
  151.7420  145.3006  159.2909 C   0  0  0  0  0  0  0  0  0  0  0  0
  151.4041  144.4147  158.2497 C   0  0  0  0  0  0  0  0  0  0  0  0
  149.0927  140.2251  155.6739 C   0  0  0  0  0  0  0  0  0  0  0  0
  148.3402  141.1912  155.8317 O   0  0  0  0  0  0  0  0  0  0  0  0
  147.5371  139.0673  151.5601 H   0  0  0  0  0  0  0  0  0  0  0  0
  148.6914  138.0389  152.3821 H   0  0  0  0  0  0  0  0  0  0  0  0
  149.9030  137.6194  153.5402 H   0  0  0  0  0  0  0  0  0  0  0  0
  151.2733  136.9812  155.4709 H   0  0  0  0  0  0  0  0  0  0  0  0
  149.3015  141.3478  158.0012 H   0  0  0  0  0  0  0  0  0  0  0  0
  150.6540  140.5067  158.6160 H   0  0  0  0  0  0  0  0  0  0  0  0
  152.1523  141.6574  156.8974 H   0  0  0  0  0  0  0  0  0  0  0  0
  150.2643  143.5536  156.4673 H   0  0  0  0  0  0  0  0  0  0  0  0
  152.2201  141.4662  159.7803 H   0  0  0  0  0  0  0  0  0  0  0  0
  152.8040  143.0282  161.6093 H   0  0  0  0  0  0  0  0  0  0  0  0
  152.5066  145.4793  161.3044 H   0  0  0  0  0  0  0  0  0  0  0  0
  151.6137  146.3646  159.1574 H   0  0  0  0  0  0  0  0  0  0  0  0
  151.0191  144.8091  157.3206 H   0  0  0  0  0  0  0  0  0  0  0  0
  1  2  1  0  0  0  0
  1 24  1  0  0  0  0
  1 25  1  0  0  0  0
  2  3  2  0  0  0  0
  2  4  1  0  0  0  0
  4 22  1  0  0  0  0
  4  5  2  0  0  0  0
  5  6  1  0  0  0  0
  5 26  1  0  0  0  0
  6  7  2  0  0  0  0
  6 27  1  0  0  0  0
  7  8  1  0  0  0  0
  7 12  1  0  0  0  0
  8  9  1  0  0  0  0
  8 10  1  0  0  0  0
  8 11  1  0  0  0  0
 12 13  1  0  0  0  0
 12 22  1  0  0  0  0
 13 14  1  0  0  0  0
 13 28  1  0  0  0  0
 13 29  1  0  0  0  0
 14 15  1  0  0  0  0
 14 16  1  0  0  0  0
 14 30  1  0  0  0  0
 15 31  1  0  0  0  0
 16 21  1  0  0  0  0
 16 17  2  0  0  0  0
 17 18  1  0  0  0  0
 17 32  1  0  0  0  0
 18 19  2  0  0  0  0
 18 33  1  0  0  0  0
 19 20  1  0  0  0  0
 19 34  1  0  0  0  0
 20 21  2  0  0  0  0
 20 35  1  0  0  0  0
 21 36  1  0  0  0  0
 22 23  2  0  0  0  0
M  END
> <s_m_source_file>
AV-unprocessed.smi

> <i_m_source_file_index>
2660

> <i_lp_mmshare_version>
43012

> <i_f3d_flags>
0

> <s_epik_input>
W05IMl1DKD1PKWMxW2NIXVtjSF1jKEMoRikoRilGKW4oYzE9TylbQ0gyXVtDQEhdKFtPSF0pYzJbY0hdW2NIXVtjSF1bY0hdW2NIXTI=

> <s_epik_cmdline>
J2VwaWtfcHl0aG9uJywgJy1waCcsICc3LjAnLCAnLXRuJywgJzgnLCAnLW1hJywgJzIwMCcsICctbWV0YWxfYmluZGluZycsICctaW1hZScsICc8aW5maWxlLm1hZT4nLCAnLW9tYWUnLCAnPG91dGZpbGUubWFlPic=

> <r_lp_tautomer_probability>
1

> <r_epik_Ionization_Penalty>
1.58596e-06

> <r_epik_Ionization_Penalty_Charging>
5.13453e-09

> <r_epik_Ionization_Penalty_Neutral>
1.58083e-06

> <r_epik_State_Penalty>
-0

> <r_epik_Charging_Adjusted_Penalty>
5.13453e-09

> <i_epik_Tot_Q>
0

> <i_epik_Tot_abs_Q>
0

> <r_epik_Metal_State_Penalty>
-0

> <b_epik_Metal_Only>
0

> <s_lp_Force_Field>
OPLS_2005

> <r_lp_Energy>
32.13

> <b_lp_Chiralities_Consistent>
1

> <s_lp_Variant>
AV-unprocessed.smi:2660-2

> <Gold.Version>
5.8.1

> <Gold.Id.Protein>
6NUR|6NUR_protein|mol2

> <Gold.PLP.Fitness>
43.2800

> <Gold.PLP.PLP>
-39.3321

> <Gold.PLP.part.hbond>
-2.5520

> <Gold.PLP.part.metal>
0.0000

> <Gold.PLP.part.buried>
-4.6517

> <Gold.PLP.part.nonpolar>
-32.2907

> <Gold.PLP.part.repulsive>
0.3056

> <Gold.PLP.ligand.clash>
1.8156

> <Gold.PLP.ligand.torsion>
0.5180

> <Gold.PLP.Chemscore.Hbond>
1.5840

> <Gold.PLP.Chemscore.CHOScore>
0.0000

> <Gold.PLP.Chemscore.Metal>
0.0000

> <Gold.Chemscore.Hbonds>
donor molecule, donor type, donor heavy atom, donor atom, acceptor molecule, acceptor atom, score
      L1  H     1    25       P1  7948  0.99
      L1  H    15    31       P1  8028  0.64

> <Gold.PLP.Chemscore.Internal.Correction>
2.0474

> <Gold.Rescore>
     Score         DG    S(hbond)    S(metal)    S(lipo)     H(rot)  DE(clash)    DE(int)     intcor
     12.22     -18.23       1.70        0.00     108.76       2.21       0.61       5.40       ----

> <Gold.Chemscore.Fitness>
12.2174

> <Gold.Chemscore.DG>
-18.2267

> <Gold.Chemscore.ZeroCoef>
-5.4800

> <Gold.Chemscore.Hbond>
1.6993

> <Gold.Chemscore.Metal>
0.0000

> <Gold.Chemscore.Lipo>
108.7619

> <Gold.Chemscore.Internal_Hbond>
0.0000

> <Gold.Chemscore.DEClash>
0.6129

> <Gold.Chemscore.DEInternal>
5.3964

> <Gold.Chemscore.Rot>
2.2086

> <Gold.Chemscore.Internal.Correction>
   9.000000E+99

> <Gold.Chemscore.Hbonds>
donor molecule, donor type, donor heavy atom, donor atom, acceptor molecule, acceptor atom, score
      L1  H     1    25       P1  7948  0.94
      L1  H    15    31       P1  8028  0.63

> <Gold.Chemscore.Hbond.Weighted>
-5.6755

> <Gold.Chemscore.Metal.Weighted>
-0.0000

> <Gold.Chemscore.Lipo.Weighted>
-12.7251

> <Gold.Chemscore.Internal_Hbond.Weighted>
0.0000

> <Gold.Chemscore.DEClash.Weighted>
0.6129

> <Gold.Chemscore.DEInternal.Weighted>
5.3964

> <Gold.Chemscore.Rot.Weighted>
5.6540

> <Gold.Chemscore.Internal.Correction.Weighted>
   9.000000E+99

> <Gold.Protein.RotatedTorsions>
[ 6907 6896 6895 6894 ] final  123.03 input  -60.11 | X-H torsion
[ 7974 7965 7964 7962 ] final  -81.95 input  175.53 | X-H torsion
[ 8008 7997 7996 7995 ] final   15.86 input   59.86 | X-H torsion
[ 10167 10162 10161 10158 ] final   28.47 input  -65.29 | X-H torsion
[ 10718 10713 10712 10709 ] final -179.76 input   66.30 | X-H torsion
[ 10763 10752 10751 10750 ] final  159.84 input  -60.55 | X-H torsion
[ 11005 11000 10999 10996 ] final   32.82 input  -57.11 | X-H torsion

> <Gold.Protein.ActiveResidues>
 VAL166  LYS551  ARG553  GLY616  TRP617  ASP618  TYR619  PRO620  LYS621  CYS622 
 ASP623  PHE694  ASN695  SER759  ASP760  ASP761  ALA762  ILE779  LEU786  VAL792 
 PHE793  MET794  SER795  GLU796  ALA797  LYS798  CYS799  TRP800  GLU811  SER814 

> <Gold.Protein.RotatedAtoms>
  152.4195  133.7093  159.6468 H   0  0  0  0  0  0  0  0  0  0  0  0  # atno 6907 bound_to 6896
  150.8071  133.8479  159.3206 H   0  0  0  0  0  0  0  0  0  0  0  0  # atno 6908 bound_to 6896
  151.6200  135.1035  160.0151 H   0  0  0  0  0  0  0  0  0  0  0  0  # atno 6909 bound_to 6896
  145.5398  140.9511  143.1557 H   0  0  0  0  0  0  0  0  0  0  0  0  # atno 7974 bound_to 7965
  154.8686  140.2955  155.5495 H   0  0  0  0  0  0  0  0  0  0  0  0  # atno 8008 bound_to 7997
  156.3021  140.2464  156.3605 H   0  0  0  0  0  0  0  0  0  0  0  0  # atno 8009 bound_to 7997
  154.8841  140.0397  157.1789 H   0  0  0  0  0  0  0  0  0  0  0  0  # atno 8010 bound_to 7997
  140.4850  144.0557  150.6277 H   0  0  0  0  0  0  0  0  0  0  0  0  # atno 10167 bound_to 10162
  156.8639  130.9761  151.3080 H   0  0  0  0  0  0  0  0  0  0  0  0  # atno 10718 bound_to 10713
  154.2381  135.2776  155.2864 H   0  0  0  0  0  0  0  0  0  0  0  0  # atno 10763 bound_to 10752
  154.5568  135.5659  153.6975 H   0  0  0  0  0  0  0  0  0  0  0  0  # atno 10764 bound_to 10752
  153.0006  135.6288  154.2524 H   0  0  0  0  0  0  0  0  0  0  0  0  # atno 10765 bound_to 10752
  140.2695  134.3099  155.7832 H   0  0  0  0  0  0  0  0  0  0  0  0  # atno 11005 bound_to 11000
  144.7583  139.7020  143.7245 LP  0  0  0  0  0  0  0  0  0  0  0  0  # atno 17320 bound_to 7965
  146.1988  139.5271  142.9757 LP  0  0  0  0  0  0  0  0  0  0  0  0  # atno 17321 bound_to 7965
  140.3810  143.2803  152.0171 LP  0  0  0  0  0  0  0  0  0  0  0  0  # atno 17342 bound_to 10162
  139.4840  144.6155  151.7354 LP  0  0  0  0  0  0  0  0  0  0  0  0  # atno 17343 bound_to 10162
  157.6234  130.8673  149.9148 LP  0  0  0  0  0  0  0  0  0  0  0  0  # atno 17370 bound_to 10713
  156.0762  130.3678  150.0673 LP  0  0  0  0  0  0  0  0  0  0  0  0  # atno 17371 bound_to 10713
  141.2179  133.7458  156.9312 LP  0  0  0  0  0  0  0  0  0  0  0  0  # atno 17394 bound_to 11000
  140.1387  134.9308  157.2437 LP  0  0  0  0  0  0  0  0  0  0  0  0  # atno 17395 bound_to 11000

$$$$
