AV-unprocessed.smi:258|AV-procd|sdf|1970|dock5
  -GOLD-   2262021133D 1   1.00000     0.00000
 Structure written by MMmdl.
 57 60  0  0  0  0  0  0  0  0  1 V2000
  149.8805  144.4298  158.6220 O   0  0  0  0  0  0  0  0  0  0  0  0
  150.6027  145.2513  159.5137 C   0  0  0  0  0  0  0  0  0  0  0  0
  152.1041  144.9433  159.4052 C   0  0  0  0  0  0  0  0  0  0  0  0
  152.4969  143.9729  160.3677 O   0  0  0  0  0  0  0  0  0  0  0  0
  153.0561  142.7784  159.8345 C   0  0  1  0  0  0  0  0  0  0  0  0
  153.7300  142.0202  160.9895 C   0  0  0  0  0  0  0  0  0  0  0  0
  154.2640  140.6663  160.4988 C   0  0  0  0  0  0  0  0  0  0  0  0
  153.1464  139.8413  159.8406 C   0  0  0  0  0  0  0  0  0  0  0  0
  152.4862  140.6068  158.7834 N   0  0  0  0  0  0  0  0  0  0  0  0
  151.7334  139.8619  157.9344 C   0  0  0  0  0  0  0  0  0  0  0  0
  151.6597  138.5133  158.0964 N   0  0  0  0  0  0  0  0  0  0  0  0
  150.9310  137.7706  157.2581 C   0  0  0  0  0  0  0  0  0  0  0  0
  150.2042  138.1648  156.2113 N   0  0  0  0  0  0  0  0  0  0  0  0
  150.2638  139.5173  156.0491 C   0  0  0  0  0  0  0  0  0  0  0  0
  151.0000  140.4314  156.8552 C   0  0  0  0  0  0  0  0  0  0  0  0
  150.8155  141.7275  156.3875 N   0  0  0  0  0  0  0  0  0  0  0  0
  150.0246  141.5867  155.3591 C   0  0  0  0  0  0  0  0  0  0  0  0
  149.6276  140.2946  155.0970 N   0  0  0  0  0  0  0  0  0  0  0  0
  148.7593  139.8553  154.0188 C   0  0  0  0  0  0  0  0  0  0  0  0
  147.3239  139.4485  154.4558 C   0  0  2  0  0  0  0  0  0  0  0  0
  146.5595  138.8923  153.2296 C   0  0  0  0  0  0  0  0  0  0  0  0
  146.6278  139.7802  152.1328 O   0  0  0  0  0  0  0  0  0  0  0  0
  146.5400  140.6096  155.1387 C   0  0  1  0  0  0  0  0  0  0  0  0
  146.3504  141.8540  154.2829 C   0  0  0  0  0  0  0  0  0  0  0  0
  145.2053  142.5632  154.9893 C   0  0  0  0  0  0  0  0  0  0  0  0
  144.3370  141.5133  155.3818 O   0  0  0  0  0  0  0  0  0  0  0  0
  145.0774  140.3027  155.5083 C   0  0  0  0  0  0  0  0  0  0  0  0
  151.9546  141.9076  159.1962 C   0  0  0  0  0  0  0  0  0  0  0  0
  149.4824  144.9786  157.9638 H   0  0  0  0  0  0  0  0  0  0  0  0
  150.3909  146.2942  159.2804 H   0  0  0  0  0  0  0  0  0  0  0  0
  150.2494  145.0658  160.5281 H   0  0  0  0  0  0  0  0  0  0  0  0
  152.3092  144.5212  158.4209 H   0  0  0  0  0  0  0  0  0  0  0  0
  152.7012  145.8524  159.4812 H   0  0  0  0  0  0  0  0  0  0  0  0
  153.8173  143.0089  159.0880 H   0  0  0  0  0  0  0  0  0  0  0  0
  154.5426  142.6154  161.4071 H   0  0  0  0  0  0  0  0  0  0  0  0
  153.0127  141.8602  161.7957 H   0  0  0  0  0  0  0  0  0  0  0  0
  155.0686  140.8285  159.7806 H   0  0  0  0  0  0  0  0  0  0  0  0
  154.6970  140.1106  161.3306 H   0  0  0  0  0  0  0  0  0  0  0  0
  153.5644  138.9108  159.4583 H   0  0  0  0  0  0  0  0  0  0  0  0
  152.4014  139.5643  160.5875 H   0  0  0  0  0  0  0  0  0  0  0  0
  150.9299  136.7085  157.4549 H   0  0  0  0  0  0  0  0  0  0  0  0
  149.6957  142.4296  154.7686 H   0  0  0  0  0  0  0  0  0  0  0  0
  148.7064  140.6491  153.2727 H   0  0  0  0  0  0  0  0  0  0  0  0
  149.2634  139.0188  153.5344 H   0  0  0  0  0  0  0  0  0  0  0  0
  147.3984  138.6337  155.1771 H   0  0  0  0  0  0  0  0  0  0  0  0
  146.9842  137.9500  152.8863 H   0  0  0  0  0  0  0  0  0  0  0  0
  145.5145  138.7026  153.4766 H   0  0  0  0  0  0  0  0  0  0  0  0
  145.7593  140.1085  151.9562 H   0  0  0  0  0  0  0  0  0  0  0  0
  147.0690  140.9107  156.0443 H   0  0  0  0  0  0  0  0  0  0  0  0
  147.2428  142.4776  154.2241 H   0  0  0  0  0  0  0  0  0  0  0  0
  146.0516  141.5816  153.2695 H   0  0  0  0  0  0  0  0  0  0  0  0
  145.5651  143.0802  155.8799 H   0  0  0  0  0  0  0  0  0  0  0  0
  144.6987  143.2880  154.3520 H   0  0  0  0  0  0  0  0  0  0  0  0
  144.6391  139.5709  154.8291 H   0  0  0  0  0  0  0  0  0  0  0  0
  144.9846  139.9201  156.5238 H   0  0  0  0  0  0  0  0  0  0  0  0
  151.1443  141.7526  159.9100 H   0  0  0  0  0  0  0  0  0  0  0  0
  151.5296  142.4192  158.3322 H   0  0  0  0  0  0  0  0  0  0  0  0
  1  2  1  0  0  0  0
  1 29  1  0  0  0  0
  2  3  1  0  0  0  0
  2 30  1  0  0  0  0
  2 31  1  0  0  0  0
  3  4  1  0  0  0  0
  3 32  1  0  0  0  0
  3 33  1  0  0  0  0
  4  5  1  0  0  0  0
  5 28  1  0  0  0  0
  5  6  1  0  0  0  0
  5 34  1  0  0  0  0
  6  7  1  0  0  0  0
  6 35  1  0  0  0  0
  6 36  1  0  0  0  0
  7  8  1  0  0  0  0
  7 37  1  0  0  0  0
  7 38  1  0  0  0  0
  8  9  1  0  0  0  0
  8 39  1  0  0  0  0
  8 40  1  0  0  0  0
  9 10  1  0  0  0  0
  9 28  1  0  0  0  0
 10 15  1  0  0  0  0
 10 11  2  0  0  0  0
 11 12  1  0  0  0  0
 12 13  2  0  0  0  0
 12 41  1  0  0  0  0
 13 14  1  0  0  0  0
 14 18  1  0  0  0  0
 14 15  2  0  0  0  0
 15 16  1  0  0  0  0
 16 17  2  0  0  0  0
 17 18  1  0  0  0  0
 17 42  1  0  0  0  0
 18 19  1  0  0  0  0
 19 20  1  0  0  0  0
 19 43  1  0  0  0  0
 19 44  1  0  0  0  0
 20 21  1  0  0  0  0
 20 23  1  0  0  0  0
 20 45  1  0  0  0  0
 21 22  1  0  0  0  0
 21 46  1  0  0  0  0
 21 47  1  0  0  0  0
 22 48  1  0  0  0  0
 23 27  1  0  0  0  0
 23 24  1  0  0  0  0
 23 49  1  0  0  0  0
 24 25  1  0  0  0  0
 24 50  1  0  0  0  0
 24 51  1  0  0  0  0
 25 26  1  0  0  0  0
 25 52  1  0  0  0  0
 25 53  1  0  0  0  0
 26 27  1  0  0  0  0
 27 54  1  0  0  0  0
 27 55  1  0  0  0  0
 28 56  1  0  0  0  0
 28 57  1  0  0  0  0
M  END
> <s_m_source_file>
AV-unprocessed.smi

> <i_m_source_file_index>
258

> <i_lp_mmshare_version>
43012

> <i_f3d_flags>
0

> <s_epik_input>
W09IXVtDSDJdW0NIMl1PW0NAQEhdMVtDSDJdW0NIMl1bQ0gyXU4oW0NIMl0xKWMobltjSF1uMiljKGMyMyluW2NIXW4zW0NIMl1bQ0BIXShbQ0gyXVtPSF0pW0NAQEhdNFtDSDJdW0NIMl1PW0NIMl00

> <s_epik_cmdline>
J2VwaWtfcHl0aG9uJywgJy1waCcsICc3LjAnLCAnLXRuJywgJzgnLCAnLW1hJywgJzIwMCcsICctbWV0YWxfYmluZGluZycsICctaW1hZScsICc8aW5maWxlLm1hZT4nLCAnLW9tYWUnLCAnPG91dGZpbGUubWFlPic=

> <r_lp_tautomer_probability>
1

> <r_epik_Ionization_Penalty>
0.00349036

> <r_epik_Ionization_Penalty_Charging>
0

> <r_epik_Ionization_Penalty_Neutral>
0.00349036

> <r_epik_State_Penalty>
0.00229798

> <r_epik_Charging_Adjusted_Penalty>
0.00229798

> <i_epik_Tot_Q>
0

> <i_epik_Tot_abs_Q>
0

> <r_epik_Metal_State_Penalty>
-0

> <b_epik_Metal_Only>
0

> <s_lp_Force_Field>
OPLS_2005

> <r_lp_Energy>
44.143

> <b_lp_Chiralities_Consistent>
1

> <s_lp_Variant>
AV-unprocessed.smi:258-6

> <Gold.Version>
5.8.1

> <Gold.Id.Protein>
6NUR|6NUR_protein|mol2

> <Gold.PLP.Fitness>
52.1977

> <Gold.PLP.PLP>
-45.1668

> <Gold.PLP.part.hbond>
-2.9092

> <Gold.PLP.part.metal>
0.0000

> <Gold.PLP.part.buried>
-6.2971

> <Gold.PLP.part.nonpolar>
-37.6204

> <Gold.PLP.part.repulsive>
0.2886

> <Gold.PLP.ligand.clash>
0.0000

> <Gold.PLP.ligand.torsion>
1.2556

> <Gold.PLP.Chemscore.Hbond>
2.0000

> <Gold.PLP.Chemscore.CHOScore>
0.9873

> <Gold.PLP.Chemscore.Metal>
0.0000

> <Gold.Chemscore.Hbonds>
donor molecule, donor type, donor heavy atom, donor atom, acceptor molecule, acceptor atom, score
      L1  H     1    29       P1  8029  0.80
      L1  H    22    48       P1 10175  0.68
      L1  C    17    42       P1  8028  0.84

> <Gold.PLP.Chemscore.Internal.Correction>
0.5801

> <Gold.Rescore>
     Score         DG    S(hbond)    S(metal)    S(lipo)     H(rot)  DE(clash)    DE(int)     intcor
     11.23     -12.39       1.90        0.00      97.26       4.22       0.05       1.12       ----

> <Gold.Chemscore.Fitness>
11.2262

> <Gold.Chemscore.DG>
-12.3937

> <Gold.Chemscore.ZeroCoef>
-5.4800

> <Gold.Chemscore.Hbond>
1.9010

> <Gold.Chemscore.Metal>
0.0000

> <Gold.Chemscore.Lipo>
97.2592

> <Gold.Chemscore.Internal_Hbond>
0.0000

> <Gold.Chemscore.DEClash>
0.0502

> <Gold.Chemscore.DEInternal>
1.1173

> <Gold.Chemscore.Rot>
4.2246

> <Gold.Chemscore.Internal.Correction>
   9.000000E+99

> <Gold.Chemscore.Hbonds>
donor molecule, donor type, donor heavy atom, donor atom, acceptor molecule, acceptor atom, score
      L1  H     1    29       P1  8029  0.11
      L1  H    22    48       P1 10175  0.30

> <Gold.Chemscore.Hbond.Weighted>
-6.3493

> <Gold.Chemscore.Metal.Weighted>
-0.0000

> <Gold.Chemscore.Lipo.Weighted>
-11.3793

> <Gold.Chemscore.Internal_Hbond.Weighted>
0.0000

> <Gold.Chemscore.DEClash.Weighted>
0.0502

> <Gold.Chemscore.DEInternal.Weighted>
1.1173

> <Gold.Chemscore.Rot.Weighted>
10.8149

> <Gold.Chemscore.Internal.Correction.Weighted>
   9.000000E+99

> <Gold.Protein.RotatedTorsions>
[ 6907 6896 6895 6894 ] final   16.47 input  -60.11 | X-H torsion
[ 7974 7965 7964 7962 ] final   41.32 input  175.53 | X-H torsion
[ 8008 7997 7996 7995 ] final   14.34 input   59.86 | X-H torsion
[ 10167 10162 10161 10158 ] final   17.84 input  -65.29 | X-H torsion
[ 10718 10713 10712 10709 ] final  174.00 input   66.30 | X-H torsion
[ 10763 10752 10751 10750 ] final    8.57 input  -60.55 | X-H torsion
[ 11005 11000 10999 10996 ] final  159.96 input  -57.11 | X-H torsion

> <Gold.Protein.ActiveResidues>
 VAL166  LYS551  ARG553  GLY616  TRP617  ASP618  TYR619  PRO620  LYS621  CYS622 
 ASP623  PHE694  ASN695  SER759  ASP760  ASP761  ALA762  ILE779  LEU786  VAL792 
 PHE793  MET794  SER795  GLU796  ALA797  LYS798  CYS799  TRP800  GLU811  SER814 

> <Gold.Protein.RotatedAtoms>
  151.8344  135.0611  160.0440 H   0  0  0  0  0  0  0  0  0  0  0  0  # atno 6907 bound_to 6896
  152.2856  133.5508  159.5533 H   0  0  0  0  0  0  0  0  0  0  0  0  # atno 6908 bound_to 6896
  150.7208  134.0417  159.3810 H   0  0  0  0  0  0  0  0  0  0  0  0  # atno 6909 bound_to 6896
  146.0833  139.5430  142.9523 H   0  0  0  0  0  0  0  0  0  0  0  0  # atno 7974 bound_to 7965
  154.8471  140.2924  155.5622 H   0  0  0  0  0  0  0  0  0  0  0  0  # atno 8008 bound_to 7997
  156.3015  140.2503  156.3355 H   0  0  0  0  0  0  0  0  0  0  0  0  # atno 8009 bound_to 7997
  154.9062  140.0390  157.1910 H   0  0  0  0  0  0  0  0  0  0  0  0  # atno 8010 bound_to 7997
  140.5696  143.9185  150.6703 H   0  0  0  0  0  0  0  0  0  0  0  0  # atno 10167 bound_to 10162
  156.9561  131.0046  151.2938 H   0  0  0  0  0  0  0  0  0  0  0  0  # atno 10718 bound_to 10713
  153.2235  135.6884  153.7972 H   0  0  0  0  0  0  0  0  0  0  0  0  # atno 10763 bound_to 10752
  153.7162  135.3274  155.3258 H   0  0  0  0  0  0  0  0  0  0  0  0  # atno 10764 bound_to 10752
  154.8281  135.4602  154.1093 H   0  0  0  0  0  0  0  0  0  0  0  0  # atno 10765 bound_to 10752
  140.2013  134.8336  157.3021 H   0  0  0  0  0  0  0  0  0  0  0  0  # atno 11005 bound_to 11000
  145.6176  141.0328  143.1932 LP  0  0  0  0  0  0  0  0  0  0  0  0  # atno 17320 bound_to 7965
  144.7308  139.7731  143.7348 LP  0  0  0  0  0  0  0  0  0  0  0  0  # atno 17321 bound_to 7965
  140.2657  143.3492  152.1283 LP  0  0  0  0  0  0  0  0  0  0  0  0  # atno 17342 bound_to 10162
  139.5111  144.6895  151.5799 LP  0  0  0  0  0  0  0  0  0  0  0  0  # atno 17343 bound_to 10162
  157.5689  130.8297  149.8365 LP  0  0  0  0  0  0  0  0  0  0  0  0  # atno 17370 bound_to 10713
  156.0342  130.3756  150.1605 LP  0  0  0  0  0  0  0  0  0  0  0  0  # atno 17371 bound_to 10713
  140.2051  134.4207  155.7642 LP  0  0  0  0  0  0  0  0  0  0  0  0  # atno 17394 bound_to 11000
  141.2227  133.7091  156.8247 LP  0  0  0  0  0  0  0  0  0  0  0  0  # atno 17395 bound_to 11000

$$$$
