AV-unprocessed.smi:3343|AV-procd|sdf|12893|dock5
  -GOLD-   2272019303D 1   1.00000     0.00000
 Structure written by MMmdl.
 41 42  0  0  0  0  0  0  0  0  1 V2000
  148.8655  140.8126  154.1001 C   0  0  0  0  0  0  0  0  0  0  0  0
  148.9918  139.2842  153.9363 C   0  0  2  0  0  0  0  0  0  0  0  0
  147.8804  138.5066  154.6603 C   0  0  0  0  0  0  0  0  0  0  0  0
  147.4377  138.8946  155.7420 O   0  0  0  0  0  0  0  0  0  0  0  0
  147.4602  137.3856  154.0543 N   0  0  0  0  0  0  0  0  0  0  0  0
  146.5631  136.3969  154.6388 C   0  0  0  0  0  0  0  0  0  0  0  0
  145.3255  136.1907  153.7464 C   0  0  0  0  0  0  0  0  0  0  0  0
  145.5384  135.3681  152.5542 N   0  0  0  0  0  0  0  0  0  0  0  0
  146.0543  134.0480  152.9213 C   0  0  0  0  0  0  0  0  0  0  0  0
  146.2999  133.1658  151.6832 C   0  0  0  0  0  0  0  0  0  0  0  0
  145.0734  132.9824  150.9111 N   0  0  0  0  0  0  0  0  0  0  0  0
  145.2946  132.1394  149.7464 C   0  0  0  0  0  0  0  0  0  0  0  0
  144.5537  134.2941  150.5335 C   0  0  0  0  0  0  0  0  0  0  0  0
  144.3140  135.1816  151.7682 C   0  0  0  0  0  0  0  0  0  0  0  0
  150.2987  138.7937  154.3615 N   0  0  0  0  0  0  0  0  0  0  0  0
  150.7788  137.5484  154.3949 C   0  0  0  0  0  0  0  0  0  0  0  0
  151.9984  137.4541  154.9058 N   0  0  0  0  0  0  0  0  0  0  0  0
  152.2268  138.7694  155.1949 C   0  0  0  0  0  0  0  0  0  0  0  0
  151.2380  139.6125  154.8986 N   0  0  0  0  0  0  0  0  0  0  0  0
  147.9079  141.1709  153.7216 H   0  0  0  0  0  0  0  0  0  0  0  0
  149.6490  141.3282  153.5441 H   0  0  0  0  0  0  0  0  0  0  0  0
  148.9447  141.1211  155.1435 H   0  0  0  0  0  0  0  0  0  0  0  0
  148.8964  139.0630  152.8719 H   0  0  0  0  0  0  0  0  0  0  0  0
  147.8662  137.1528  153.1600 H   0  0  0  0  0  0  0  0  0  0  0  0
  147.0596  135.4437  154.8292 H   0  0  0  0  0  0  0  0  0  0  0  0
  146.2486  136.7831  155.6089 H   0  0  0  0  0  0  0  0  0  0  0  0
  144.5734  135.6964  154.3628 H   0  0  0  0  0  0  0  0  0  0  0  0
  144.8899  137.1531  153.4719 H   0  0  0  0  0  0  0  0  0  0  0  0
  146.9894  134.1578  153.4716 H   0  0  0  0  0  0  0  0  0  0  0  0
  145.3549  133.5470  153.5924 H   0  0  0  0  0  0  0  0  0  0  0  0
  147.0726  133.6171  151.0585 H   0  0  0  0  0  0  0  0  0  0  0  0
  146.6829  132.1956  152.0016 H   0  0  0  0  0  0  0  0  0  0  0  0
  144.3658  131.9946  149.1938 H   0  0  0  0  0  0  0  0  0  0  0  0
  145.6603  131.1565  150.0450 H   0  0  0  0  0  0  0  0  0  0  0  0
  146.0265  132.5839  149.0707 H   0  0  0  0  0  0  0  0  0  0  0  0
  145.2489  134.7918  149.8554 H   0  0  0  0  0  0  0  0  0  0  0  0
  143.6166  134.1760  149.9882 H   0  0  0  0  0  0  0  0  0  0  0  0
  143.5314  134.7443  152.3901 H   0  0  0  0  0  0  0  0  0  0  0  0
  143.9410  136.1439  151.4215 H   0  0  0  0  0  0  0  0  0  0  0  0
  150.2199  136.6912  154.0487 H   0  0  0  0  0  0  0  0  0  0  0  0
  153.1460  139.1152  155.6446 H   0  0  0  0  0  0  0  0  0  0  0  0
  1  2  1  0  0  0  0
  1 20  1  0  0  0  0
  1 21  1  0  0  0  0
  1 22  1  0  0  0  0
  2  3  1  0  0  0  0
  2 15  1  0  0  0  0
  2 23  1  0  0  0  0
  3  4  2  0  0  0  0
  3  5  1  0  0  0  0
  5  6  1  0  0  0  0
  5 24  1  0  0  0  0
  6  7  1  0  0  0  0
  6 25  1  0  0  0  0
  6 26  1  0  0  0  0
  7  8  1  0  0  0  0
  7 27  1  0  0  0  0
  7 28  1  0  0  0  0
  8 14  1  0  0  0  0
  8  9  1  0  0  0  0
  9 10  1  0  0  0  0
  9 29  1  0  0  0  0
  9 30  1  0  0  0  0
 10 11  1  0  0  0  0
 10 31  1  0  0  0  0
 10 32  1  0  0  0  0
 11 12  1  0  0  0  0
 11 13  1  0  0  0  0
 12 33  1  0  0  0  0
 12 34  1  0  0  0  0
 12 35  1  0  0  0  0
 13 14  1  0  0  0  0
 13 36  1  0  0  0  0
 13 37  1  0  0  0  0
 14 38  1  0  0  0  0
 14 39  1  0  0  0  0
 15 19  1  0  0  0  0
 15 16  1  0  0  0  0
 16 17  2  0  0  0  0
 16 40  1  0  0  0  0
 17 18  1  0  0  0  0
 18 19  2  0  0  0  0
 18 41  1  0  0  0  0
M  END
> <s_m_source_file>
AV-unprocessed.smi

> <i_m_source_file_index>
3343

> <i_lp_mmshare_version>
43012

> <i_f3d_flags>
0

> <s_epik_input>
bjFbY0hdbltjSF1uMVtDQEhdKFtDSDNdKUMoPU8pW05IXVtDSDJdW0NIMl1OMltDSDJdW0NIMl1OKFtDSDNdKVtDSDJdW0NIMl0y

> <s_epik_cmdline>
J2VwaWtfcHl0aG9uJywgJy1waCcsICc3LjAnLCAnLXRuJywgJzgnLCAnLW1hJywgJzIwMCcsICctbWV0YWxfYmluZGluZycsICctaW1hZScsICc8aW5maWxlLm1hZT4nLCAnLW9tYWUnLCAnPG91dGZpbGUubWFlPic=

> <r_lp_tautomer_probability>
1

> <r_epik_Ionization_Penalty>
1.97295

> <r_epik_Ionization_Penalty_Charging>
0

> <r_epik_Ionization_Penalty_Neutral>
1.97295

> <r_epik_State_Penalty>
1.8027

> <r_epik_Charging_Adjusted_Penalty>
1.8027

> <i_epik_Tot_Q>
0

> <i_epik_Tot_abs_Q>
0

> <r_epik_Metal_State_Penalty>
1.8027

> <b_epik_Metal_Only>
0

> <s_lp_Force_Field>
OPLS_2005

> <r_lp_Energy>
39.2202

> <b_lp_Chiralities_Consistent>
1

> <s_lp_Variant>
AV-unprocessed.smi:3343-3

> <Gold.Version>
5.8.1

> <Gold.Id.Protein>
6NUR|6NUR_protein|mol2

> <Gold.PLP.Fitness>
40.1605

> <Gold.PLP.PLP>
-30.7689

> <Gold.PLP.part.hbond>
-3.0000

> <Gold.PLP.part.metal>
0.0000

> <Gold.PLP.part.buried>
-4.8062

> <Gold.PLP.part.nonpolar>
-24.7888

> <Gold.PLP.part.repulsive>
0.3496

> <Gold.PLP.ligand.clash>
0.0000

> <Gold.PLP.ligand.torsion>
0.8410

> <Gold.PLP.Chemscore.Hbond>
2.7360

> <Gold.PLP.Chemscore.CHOScore>
0.9126

> <Gold.PLP.Chemscore.Metal>
0.0000

> <Gold.Chemscore.Hbonds>
donor molecule, donor type, donor heavy atom, donor atom, acceptor molecule, acceptor atom, score
      L1  H     5    24       P1  7948  1.00
      P1  H  7989  7998       L1    19  1.00
      P1  H 10752 10765       L1    17  0.70
      L1  C    16    40       P1  7948  0.93
      L1  C    16    40       P1  7949  0.05

> <Gold.PLP.Chemscore.Internal.Correction>
0.1277

> <Gold.Rescore>
     Score         DG    S(hbond)    S(metal)    S(lipo)     H(rot)  DE(clash)    DE(int)     intcor
     12.52     -13.87       2.75        0.00      49.06       2.56       0.25       1.10       ----

> <Gold.Chemscore.Fitness>
12.5206

> <Gold.Chemscore.DG>
-13.8719

> <Gold.Chemscore.ZeroCoef>
-5.4800

> <Gold.Chemscore.Hbond>
2.7543

> <Gold.Chemscore.Metal>
0.0000

> <Gold.Chemscore.Lipo>
49.0632

> <Gold.Chemscore.Internal_Hbond>
0.0000

> <Gold.Chemscore.DEClash>
0.2489

> <Gold.Chemscore.DEInternal>
1.1024

> <Gold.Chemscore.Rot>
2.5577

> <Gold.Chemscore.Internal.Correction>
   9.000000E+99

> <Gold.Chemscore.Hbonds>
donor molecule, donor type, donor heavy atom, donor atom, acceptor molecule, acceptor atom, score
      L1  H     5    24       P1  7948  0.99
      P1  H  7989  7998       L1    19  0.44
      P1  H 10752 10765       L1    17  0.56

> <Gold.Chemscore.Hbond.Weighted>
-9.1992

> <Gold.Chemscore.Metal.Weighted>
-0.0000

> <Gold.Chemscore.Lipo.Weighted>
-5.7404

> <Gold.Chemscore.Internal_Hbond.Weighted>
0.0000

> <Gold.Chemscore.DEClash.Weighted>
0.2489

> <Gold.Chemscore.DEInternal.Weighted>
1.1024

> <Gold.Chemscore.Rot.Weighted>
6.5477

> <Gold.Chemscore.Internal.Correction.Weighted>
   9.000000E+99

> <Gold.Protein.RotatedTorsions>
[ 6907 6896 6895 6894 ] final   54.87 input  -60.11 | X-H torsion
[ 7974 7965 7964 7962 ] final -110.47 input  175.53 | X-H torsion
[ 8008 7997 7996 7995 ] final   37.66 input   59.86 | X-H torsion
[ 10167 10162 10161 10158 ] final   53.37 input  -65.29 | X-H torsion
[ 10718 10713 10712 10709 ] final   88.59 input   66.30 | X-H torsion
[ 10763 10752 10751 10750 ] final  165.51 input  -60.55 | X-H torsion
[ 11005 11000 10999 10996 ] final  163.70 input  -57.11 | X-H torsion

> <Gold.Protein.ActiveResidues>
 VAL166  LYS551  ARG553  GLY616  TRP617  ASP618  TYR619  PRO620  LYS621  CYS622 
 ASP623  PHE694  ASN695  SER759  ASP760  ASP761  ALA762  ILE779  LEU786  VAL792 
 PHE793  MET794  SER795  GLU796  ALA797  LYS798  CYS799  TRP800  GLU811  SER814 

> <Gold.Protein.RotatedAtoms>
  152.3482  134.7042  160.0243 H   0  0  0  0  0  0  0  0  0  0  0  0  # atno 6907 bound_to 6896
  151.7405  133.3316  159.3372 H   0  0  0  0  0  0  0  0  0  0  0  0  # atno 6908 bound_to 6896
  150.7523  134.6216  159.6183 H   0  0  0  0  0  0  0  0  0  0  0  0  # atno 6909 bound_to 6896
  145.1678  140.8911  143.3553 H   0  0  0  0  0  0  0  0  0  0  0  0  # atno 7974 bound_to 7965
  155.2074  140.3320  155.4334 H   0  0  0  0  0  0  0  0  0  0  0  0  # atno 8008 bound_to 7997
  156.2383  140.1883  156.7107 H   0  0  0  0  0  0  0  0  0  0  0  0  # atno 8009 bound_to 7997
  154.6101  140.0610  156.9468 H   0  0  0  0  0  0  0  0  0  0  0  0  # atno 8010 bound_to 7997
  140.2415  144.3579  150.6379 H   0  0  0  0  0  0  0  0  0  0  0  0  # atno 10167 bound_to 10162
  157.6950  131.0300  150.3297 H   0  0  0  0  0  0  0  0  0  0  0  0  # atno 10718 bound_to 10713
  154.3251  135.2755  155.2500 H   0  0  0  0  0  0  0  0  0  0  0  0  # atno 10763 bound_to 10752
  154.4836  135.5852  153.6411 H   0  0  0  0  0  0  0  0  0  0  0  0  # atno 10764 bound_to 10752
  152.9872  135.6117  154.3439 H   0  0  0  0  0  0  0  0  0  0  0  0  # atno 10765 bound_to 10752
  140.2385  134.8069  157.3387 H   0  0  0  0  0  0  0  0  0  0  0  0  # atno 11005 bound_to 11000
  145.0264  139.3379  143.6047 LP  0  0  0  0  0  0  0  0  0  0  0  0  # atno 17320 bound_to 7965
  146.3473  139.9584  142.8720 LP  0  0  0  0  0  0  0  0  0  0  0  0  # atno 17321 bound_to 7965
  140.6110  143.2169  151.6886 LP  0  0  0  0  0  0  0  0  0  0  0  0  # atno 17342 bound_to 10162
  139.5076  144.3641  152.0534 LP  0  0  0  0  0  0  0  0  0  0  0  0  # atno 17343 bound_to 10162
  156.3773  130.3874  149.7129 LP  0  0  0  0  0  0  0  0  0  0  0  0  # atno 17370 bound_to 10713
  156.4523  130.7912  151.2934 LP  0  0  0  0  0  0  0  0  0  0  0  0  # atno 17371 bound_to 10713
  140.1678  134.4647  155.7852 LP  0  0  0  0  0  0  0  0  0  0  0  0  # atno 17394 bound_to 11000
  141.2212  133.6928  156.7655 LP  0  0  0  0  0  0  0  0  0  0  0  0  # atno 17395 bound_to 11000

$$$$
