AV-unprocessed.smi:559|AV-procd|sdf|2924|dock4
  -GOLD-   2262023413D 1   1.00000     0.00000
 Structure written by MMmdl.
 41 42  0  0  0  0  0  0  0  0  1 V2000
  151.4392  145.5155  160.0485 C   0  0  0  0  0  0  0  0  0  0  0  0
  152.0646  144.1503  160.0735 C   0  0  0  0  0  0  0  0  0  0  0  0
  152.6631  143.7311  161.1759 N   0  0  0  0  0  0  0  0  0  0  0  0
  153.1217  142.5004  160.8722 N   0  0  0  0  0  0  0  0  0  0  0  0
  153.8522  141.7458  161.8716 C   0  0  0  0  0  0  0  0  0  0  0  0
  152.8091  142.1399  159.5764 C   0  0  0  0  0  0  0  0  0  0  0  0
  153.2168  140.8241  158.9966 C   0  0  0  0  0  0  0  0  0  0  0  0
  152.1275  143.1904  159.0210 C   0  0  0  0  0  0  0  0  0  0  0  0
  151.5861  143.3285  157.6185 C   0  0  0  0  0  0  0  0  0  0  0  0
  150.9443  142.0086  157.1899 C   0  0  0  0  0  0  0  0  0  0  0  0
  150.4577  141.2581  158.0351 O   0  0  0  0  0  0  0  0  0  0  0  0
  150.9857  141.7235  155.8785 N   0  0  0  0  0  0  0  0  0  0  0  0
  150.6124  140.4484  155.2765 C   0  0  0  0  0  0  0  0  0  0  0  0
  149.4294  140.6203  154.3039 C   0  0  2  0  0  0  0  0  0  0  0  0
  148.4592  141.7336  154.7433 C   0  0  0  0  0  0  0  0  0  0  0  0
  147.2020  141.6593  153.8705 C   0  0  0  0  0  0  0  0  0  0  0  0
  146.9523  139.8803  153.5140 S   0  0  0  0  0  0  0  0  0  0  0  0
  145.9283  139.3366  154.4190 O   0  0  0  0  0  0  0  0  0  0  0  0
  146.8546  139.6914  152.0589 O   0  0  0  0  0  0  0  0  0  0  0  0
  148.6036  139.3385  154.0919 C   0  0  0  0  0  0  0  0  0  0  0  0
  151.9993  146.1870  159.3979 H   0  0  0  0  0  0  0  0  0  0  0  0
  151.4069  145.9647  161.0419 H   0  0  0  0  0  0  0  0  0  0  0  0
  150.4158  145.4686  159.6761 H   0  0  0  0  0  0  0  0  0  0  0  0
  153.3664  140.7837  162.0340 H   0  0  0  0  0  0  0  0  0  0  0  0
  153.8841  142.2879  162.8176 H   0  0  0  0  0  0  0  0  0  0  0  0
  154.8725  141.5774  161.5273 H   0  0  0  0  0  0  0  0  0  0  0  0
  152.8476  140.7089  157.9778 H   0  0  0  0  0  0  0  0  0  0  0  0
  152.8221  139.9989  159.5894 H   0  0  0  0  0  0  0  0  0  0  0  0
  154.3030  140.7339  158.9700 H   0  0  0  0  0  0  0  0  0  0  0  0
  150.8451  144.1266  157.5585 H   0  0  0  0  0  0  0  0  0  0  0  0
  152.3688  143.5866  156.9050 H   0  0  0  0  0  0  0  0  0  0  0  0
  151.3989  142.4099  155.2638 H   0  0  0  0  0  0  0  0  0  0  0  0
  151.4616  139.9872  154.7697 H   0  0  0  0  0  0  0  0  0  0  0  0
  150.3314  139.7678  156.0804 H   0  0  0  0  0  0  0  0  0  0  0  0
  149.8284  140.9107  153.3307 H   0  0  0  0  0  0  0  0  0  0  0  0
  148.1754  141.5721  155.7841 H   0  0  0  0  0  0  0  0  0  0  0  0
  148.9226  142.7190  154.6885 H   0  0  0  0  0  0  0  0  0  0  0  0
  146.3188  142.0765  154.3544 H   0  0  0  0  0  0  0  0  0  0  0  0
  147.3582  142.1742  152.9225 H   0  0  0  0  0  0  0  0  0  0  0  0
  149.0494  138.6614  153.3633 H   0  0  0  0  0  0  0  0  0  0  0  0
  148.4674  138.7986  155.0294 H   0  0  0  0  0  0  0  0  0  0  0  0
  1  2  1  0  0  0  0
  1 21  1  0  0  0  0
  1 22  1  0  0  0  0
  1 23  1  0  0  0  0
  2  8  1  0  0  0  0
  2  3  2  0  0  0  0
  3  4  1  0  0  0  0
  4  5  1  0  0  0  0
  4  6  1  0  0  0  0
  5 24  1  0  0  0  0
  5 25  1  0  0  0  0
  5 26  1  0  0  0  0
  6  7  1  0  0  0  0
  6  8  2  0  0  0  0
  7 27  1  0  0  0  0
  7 28  1  0  0  0  0
  7 29  1  0  0  0  0
  8  9  1  0  0  0  0
  9 10  1  0  0  0  0
  9 30  1  0  0  0  0
  9 31  1  0  0  0  0
 10 11  2  0  0  0  0
 10 12  1  0  0  0  0
 12 13  1  0  0  0  0
 12 32  1  0  0  0  0
 13 14  1  0  0  0  0
 13 33  1  0  0  0  0
 13 34  1  0  0  0  0
 14 20  1  0  0  0  0
 14 15  1  0  0  0  0
 14 35  1  0  0  0  0
 15 16  1  0  0  0  0
 15 36  1  0  0  0  0
 15 37  1  0  0  0  0
 16 17  1  0  0  0  0
 16 38  1  0  0  0  0
 16 39  1  0  0  0  0
 17 18  2  0  0  0  0
 17 19  2  0  0  0  0
 17 20  1  0  0  0  0
 20 40  1  0  0  0  0
 20 41  1  0  0  0  0
M  END
> <s_m_source_file>
AV-unprocessed.smi

> <i_m_source_file_index>
559

> <i_lp_mmshare_version>
43012

> <i_f3d_flags>
0

> <s_epik_input>
W0NIM11jMW5uKFtDSDNdKWMoW0NIM10pYzFbQ0gyXUMoPU8pW05IXVtDSDJdW0NAQEhdKFtDSDJdMilbQ0gyXVtDSDJdUzIoPU8pPU8=

> <s_epik_cmdline>
J2VwaWtfcHl0aG9uJywgJy1waCcsICc3LjAnLCAnLXRuJywgJzgnLCAnLW1hJywgJzIwMCcsICctbWV0YWxfYmluZGluZycsICctaW1hZScsICc8aW5maWxlLm1hZT4nLCAnLW9tYWUnLCAnPG91dGZpbGUubWFlPic=

> <r_lp_tautomer_probability>
1

> <r_epik_Ionization_Penalty>
0.00301269

> <r_epik_Ionization_Penalty_Charging>
0

> <r_epik_Ionization_Penalty_Neutral>
0.00301269

> <r_epik_State_Penalty>
0.00211587

> <r_epik_Charging_Adjusted_Penalty>
0.00211587

> <i_epik_Tot_Q>
0

> <i_epik_Tot_abs_Q>
0

> <r_epik_Metal_State_Penalty>
-0

> <b_epik_Metal_Only>
0

> <s_lp_Force_Field>
OPLS_2005

> <r_lp_Energy>
-3.01738

> <b_lp_Chiralities_Consistent>
1

> <s_lp_Variant>
AV-unprocessed.smi:559-1

> <Gold.Version>
5.8.1

> <Gold.Id.Protein>
6NUR|6NUR_protein|mol2

> <Gold.PLP.Fitness>
43.3879

> <Gold.PLP.PLP>
-45.2258

> <Gold.PLP.part.hbond>
0.0000

> <Gold.PLP.part.metal>
0.0000

> <Gold.PLP.part.buried>
-3.5522

> <Gold.PLP.part.nonpolar>
-42.2035

> <Gold.PLP.part.repulsive>
1.8165

> <Gold.PLP.ligand.clash>
0.0000

> <Gold.PLP.ligand.torsion>
0.9269

> <Gold.PLP.Chemscore.Hbond>
0.0000

> <Gold.PLP.Chemscore.CHOScore>
0.0000

> <Gold.PLP.Chemscore.Metal>
0.0000

> <Gold.PLP.Chemscore.Internal.Correction>
0.0158

> <Gold.Rescore>
     Score         DG    S(hbond)    S(metal)    S(lipo)     H(rot)  DE(clash)    DE(int)     intcor
     12.50     -13.56       0.00        0.00     104.95       1.64       0.22       0.84       ----

> <Gold.Chemscore.Fitness>
12.5000

> <Gold.Chemscore.DG>
-13.5621

> <Gold.Chemscore.ZeroCoef>
-5.4800

> <Gold.Chemscore.Hbond>
0.0000

> <Gold.Chemscore.Metal>
0.0000

> <Gold.Chemscore.Lipo>
104.9533

> <Gold.Chemscore.Internal_Hbond>
0.0000

> <Gold.Chemscore.DEClash>
0.2191

> <Gold.Chemscore.DEInternal>
0.8431

> <Gold.Chemscore.Rot>
1.6396

> <Gold.Chemscore.Internal.Correction>
   9.000000E+99

> <Gold.Chemscore.Hbond.Weighted>
-0.0000

> <Gold.Chemscore.Metal.Weighted>
-0.0000

> <Gold.Chemscore.Lipo.Weighted>
-12.2795

> <Gold.Chemscore.Internal_Hbond.Weighted>
0.0000

> <Gold.Chemscore.DEClash.Weighted>
0.2191

> <Gold.Chemscore.DEInternal.Weighted>
0.8431

> <Gold.Chemscore.Rot.Weighted>
4.1974

> <Gold.Chemscore.Internal.Correction.Weighted>
   9.000000E+99

> <Gold.Protein.RotatedTorsions>
[ 6907 6896 6895 6894 ] final -139.45 input  -60.11 | X-H torsion
[ 7974 7965 7964 7962 ] final -161.85 input  175.53 | X-H torsion
[ 8008 7997 7996 7995 ] final -110.76 input   59.86 | X-H torsion
[ 10167 10162 10161 10158 ] final  -60.55 input  -65.29 | X-H torsion
[ 10718 10713 10712 10709 ] final  -15.72 input   66.30 | X-H torsion
[ 10763 10752 10751 10750 ] final  142.30 input  -60.55 | X-H torsion
[ 11005 11000 10999 10996 ] final   -1.56 input  -57.11 | X-H torsion

> <Gold.Protein.ActiveResidues>
 VAL166  LYS551  ARG553  GLY616  TRP617  ASP618  TYR619  PRO620  LYS621  CYS622 
 ASP623  PHE694  ASN695  SER759  ASP760  ASP761  ALA762  ILE779  LEU786  VAL792 
 PHE793  MET794  SER795  GLU796  ALA797  LYS798  CYS799  TRP800  GLU811  SER814 

> <Gold.Protein.RotatedAtoms>
  151.0480  133.5648  159.2644 H   0  0  0  0  0  0  0  0  0  0  0  0  # atno 6907 bound_to 6896
  151.2670  135.0671  159.9129 H   0  0  0  0  0  0  0  0  0  0  0  0  # atno 6908 bound_to 6896
  152.5376  134.0216  159.8038 H   0  0  0  0  0  0  0  0  0  0  0  0  # atno 6909 bound_to 6896
  144.7377  140.3338  143.6148 H   0  0  0  0  0  0  0  0  0  0  0  0  # atno 7974 bound_to 7965
  154.9794  140.0396  157.2271 H   0  0  0  0  0  0  0  0  0  0  0  0  # atno 8008 bound_to 7997
  154.7728  140.2805  155.6102 H   0  0  0  0  0  0  0  0  0  0  0  0  # atno 8009 bound_to 7997
  156.2924  140.2606  156.2535 H   0  0  0  0  0  0  0  0  0  0  0  0  # atno 8010 bound_to 7997
  140.6064  143.2374  151.5812 H   0  0  0  0  0  0  0  0  0  0  0  0  # atno 10167 bound_to 10162
  156.5977  130.4816  149.6253 H   0  0  0  0  0  0  0  0  0  0  0  0  # atno 10718 bound_to 10713
  153.9535  135.2967  155.3437 H   0  0  0  0  0  0  0  0  0  0  0  0  # atno 10763 bound_to 10752
  154.7413  135.5023  153.9131 H   0  0  0  0  0  0  0  0  0  0  0  0  # atno 10764 bound_to 10752
  153.0982  135.6727  153.9832 H   0  0  0  0  0  0  0  0  0  0  0  0  # atno 10765 bound_to 10752
  140.6487  133.9424  155.8367 H   0  0  0  0  0  0  0  0  0  0  0  0  # atno 11005 bound_to 11000
  145.7444  139.1774  143.2357 LP  0  0  0  0  0  0  0  0  0  0  0  0  # atno 17320 bound_to 7965
  146.1109  140.7429  142.9504 LP  0  0  0  0  0  0  0  0  0  0  0  0  # atno 17321 bound_to 7965
  139.5328  144.2867  152.1185 LP  0  0  0  0  0  0  0  0  0  0  0  0  # atno 17342 bound_to 10162
  140.2058  144.4613  150.6409 LP  0  0  0  0  0  0  0  0  0  0  0  0  # atno 17343 bound_to 10162
  156.2495  130.6899  151.1632 LP  0  0  0  0  0  0  0  0  0  0  0  0  # atno 17370 bound_to 10713
  157.7287  131.0629  150.5806 LP  0  0  0  0  0  0  0  0  0  0  0  0  # atno 17371 bound_to 10713
  141.0553  134.0426  157.3731 LP  0  0  0  0  0  0  0  0  0  0  0  0  # atno 17394 bound_to 11000
  139.9053  135.0178  156.7459 LP  0  0  0  0  0  0  0  0  0  0  0  0  # atno 17395 bound_to 11000

$$$$
