AV-unprocessed.smi:1154|AV-procd|sdf|4903|dock2
  -GOLD-   22720 3483D 1   1.00000     0.00000
 Structure written by MMmdl.
 42 43  0  0  0  0  0  0  0  0  2 V2000
  147.8513  132.8830  152.8513 C   0  0  0  0  0  0  0  0  0  0  0  0
  146.6553  133.1713  151.9328 C   0  0  1  0  0  0  0  0  0  0  0  0
  145.5258  132.1471  152.1458 C   0  0  0  0  0  0  0  0  0  0  0  0
  144.2957  132.4659  151.2762 C   0  0  2  0  0  0  0  0  0  0  0  0
  144.5088  132.1288  149.7898 C   0  0  0  0  0  0  0  0  0  0  0  0
  143.8507  133.9271  151.4848 C   0  0  0  0  0  0  0  0  0  0  0  0
  144.9651  134.8805  151.2433 N   0  3  1  0  0  0  0  0  0  0  0  0
  144.5158  136.2949  151.2899 C   0  0  0  0  0  0  0  0  0  0  0  0
  144.2985  136.7909  152.7288 C   0  0  0  0  0  0  0  0  0  0  0  0
  143.2148  137.7623  152.7747 N   0  0  0  0  0  0  0  0  0  0  0  0
  141.9523  137.4727  153.1256 C   0  0  0  0  0  0  0  0  0  0  0  0
  141.5794  136.3372  153.4169 O   0  0  0  0  0  0  0  0  0  0  0  0
  140.9523  138.6325  153.1426 C   0  0  0  0  0  0  0  0  0  0  0  0
  139.6361  138.2037  153.5809 N   0  0  0  0  0  0  0  0  0  0  0  0
  138.8095  137.2763  153.0934 C   0  0  0  0  0  0  0  0  0  0  0  0
  137.6841  137.2107  153.7878 N   0  0  0  0  0  0  0  0  0  0  0  0
  137.8627  138.1723  154.7683 N   0  0  0  0  0  0  0  0  0  0  0  0
  139.0196  138.7644  154.6512 N   0  0  0  0  0  0  0  0  0  0  0  0
  146.1232  134.6033  152.1341 C   0  0  0  0  0  0  0  0  0  0  0  0
  147.5714  132.9538  153.9029 H   0  0  0  0  0  0  0  0  0  0  0  0
  148.6624  133.5899  152.6742 H   0  0  0  0  0  0  0  0  0  0  0  0
  148.2456  131.8811  152.6786 H   0  0  0  0  0  0  0  0  0  0  0  0
  147.0111  133.0844  150.9056 H   0  0  0  0  0  0  0  0  0  0  0  0
  145.8831  131.1376  151.9380 H   0  0  0  0  0  0  0  0  0  0  0  0
  145.2289  132.1537  153.1957 H   0  0  0  0  0  0  0  0  0  0  0  0
  143.4826  131.8252  151.6202 H   0  0  0  0  0  0  0  0  0  0  0  0
  145.2857  132.7453  149.3378 H   0  0  0  0  0  0  0  0  0  0  0  0
  143.5929  132.2856  149.2193 H   0  0  0  0  0  0  0  0  0  0  0  0
  144.7974  131.0851  149.6621 H   0  0  0  0  0  0  0  0  0  0  0  0
  143.0155  134.1492  150.8189 H   0  0  0  0  0  0  0  0  0  0  0  0
  143.4816  134.0621  152.5029 H   0  0  0  0  0  0  0  0  0  0  0  0
  145.2751  136.9287  150.8292 H   0  0  0  0  0  0  0  0  0  0  0  0
  143.6103  136.4163  150.6930 H   0  0  0  0  0  0  0  0  0  0  0  0
  144.0498  135.9681  153.3987 H   0  0  0  0  0  0  0  0  0  0  0  0
  145.2161  137.2475  153.1039 H   0  0  0  0  0  0  0  0  0  0  0  0
  143.4401  138.7187  152.5427 H   0  0  0  0  0  0  0  0  0  0  0  0
  141.3119  139.4150  153.8118 H   0  0  0  0  0  0  0  0  0  0  0  0
  140.8667  139.0721  152.1476 H   0  0  0  0  0  0  0  0  0  0  0  0
  139.0265  136.6608  152.2329 H   0  0  0  0  0  0  0  0  0  0  0  0
  145.8261  134.7546  153.1732 H   0  0  0  0  0  0  0  0  0  0  0  0
  146.9282  135.3094  151.9330 H   0  0  0  0  0  0  0  0  0  0  0  0
  145.2741  134.7121  150.2964 H   0  0  0  0  0  0  0  0  0  0  0  0
  1  2  1  0  0  0  0
  1 20  1  0  0  0  0
  1 21  1  0  0  0  0
  1 22  1  0  0  0  0
  2 19  1  0  0  0  0
  2  3  1  0  0  0  0
  2 23  1  0  0  0  0
  3  4  1  0  0  0  0
  3 24  1  0  0  0  0
  3 25  1  0  0  0  0
  4  5  1  0  0  0  0
  4  6  1  0  0  0  0
  4 26  1  0  0  0  0
  5 27  1  0  0  0  0
  5 28  1  0  0  0  0
  5 29  1  0  0  0  0
  6  7  1  0  0  0  0
  6 30  1  0  0  0  0
  6 31  1  0  0  0  0
  7  8  1  0  0  0  0
  7 19  1  0  0  0  0
  7 42  1  0  0  0  0
  8  9  1  0  0  0  0
  8 32  1  0  0  0  0
  8 33  1  0  0  0  0
  9 10  1  0  0  0  0
  9 34  1  0  0  0  0
  9 35  1  0  0  0  0
 10 11  1  0  0  0  0
 10 36  1  0  0  0  0
 11 12  2  0  0  0  0
 11 13  1  0  0  0  0
 13 14  1  0  0  0  0
 13 37  1  0  0  0  0
 13 38  1  0  0  0  0
 14 18  1  0  0  0  0
 14 15  1  0  0  0  0
 15 16  2  0  0  0  0
 15 39  1  0  0  0  0
 16 17  1  0  0  0  0
 17 18  2  0  0  0  0
 19 40  1  0  0  0  0
 19 41  1  0  0  0  0
M  CHG  1   7   1
M  END
> <s_m_source_file>
AV-unprocessed.smi

> <i_m_source_file_index>
1154

> <i_lp_mmshare_version>
43012

> <i_f3d_flags>
0

> <s_epik_input>
W0NIM11bQ0BASF0xW0NIMl1bQ0BASF0oW0NIM10pW0NIMl1OKFtDSDJdMSlbQ0gyXVtDSDJdW05IXUMoPU8pW0NIMl1uMltjSF1ubm4y

> <s_epik_cmdline>
J2VwaWtfcHl0aG9uJywgJy1waCcsICc3LjAnLCAnLXRuJywgJzgnLCAnLW1hJywgJzIwMCcsICctbWV0YWxfYmluZGluZycsICctaW1hZScsICc8aW5maWxlLm1hZT4nLCAnLW9tYWUnLCAnPG91dGZpbGUubWFlPic=

> <r_lp_tautomer_probability>
1

> <r_epik_Ionization_Penalty>
0.00217773

> <r_epik_Ionization_Penalty_Charging>
0.00217329

> <r_epik_Ionization_Penalty_Neutral>
4.43997e-06

> <r_epik_State_Penalty>
0.00149294

> <r_epik_Charging_Adjusted_Penalty>
0.00366623

> <i_epik_Tot_Q>
1

> <i_epik_Tot_abs_Q>
1

> <r_epik_Metal_State_Penalty>
-0

> <b_epik_Metal_Only>
0

> <s_lp_Force_Field>
OPLS_2005

> <r_lp_Energy>
22.3383

> <b_lp_Chiralities_Consistent>
1

> <s_lp_Variant>
AV-unprocessed.smi:1154-4

> <Gold.Version>
5.8.1

> <Gold.Id.Protein>
6NUR|6NUR_protein|mol2

> <Gold.PLP.Fitness>
36.7887

> <Gold.PLP.PLP>
-31.6859

> <Gold.PLP.part.hbond>
-1.5864

> <Gold.PLP.part.metal>
0.0000

> <Gold.PLP.part.buried>
-2.1129

> <Gold.PLP.part.nonpolar>
-27.6553

> <Gold.PLP.part.repulsive>
0.2531

> <Gold.PLP.ligand.clash>
0.0000

> <Gold.PLP.ligand.torsion>
0.4700

> <Gold.PLP.Chemscore.Hbond>
1.0000

> <Gold.PLP.Chemscore.CHOScore>
1.0000

> <Gold.PLP.Chemscore.Metal>
0.0000

> <Gold.Chemscore.Hbonds>
donor molecule, donor type, donor heavy atom, donor atom, acceptor molecule, acceptor atom, score
      L1  H    10    36       P1 10175  1.00
      L1  C    15    39       P1 10187  1.00

> <Gold.PLP.Chemscore.Internal.Correction>
0.0428

> <Gold.Rescore>
     Score         DG    S(hbond)    S(metal)    S(lipo)     H(rot)  DE(clash)    DE(int)     intcor
      6.45      -9.44       1.00        0.00      63.65       2.67       1.29       1.69       ----

> <Gold.Chemscore.Fitness>
6.4516

> <Gold.Chemscore.DG>
-9.4365

> <Gold.Chemscore.ZeroCoef>
-5.4800

> <Gold.Chemscore.Hbond>
0.9994

> <Gold.Chemscore.Metal>
0.0000

> <Gold.Chemscore.Lipo>
63.6488

> <Gold.Chemscore.Internal_Hbond>
0.0000

> <Gold.Chemscore.DEClash>
1.2921

> <Gold.Chemscore.DEInternal>
1.6927

> <Gold.Chemscore.Rot>
2.6674

> <Gold.Chemscore.Internal.Correction>
   9.000000E+99

> <Gold.Chemscore.Hbonds>
donor molecule, donor type, donor heavy atom, donor atom, acceptor molecule, acceptor atom, score
      L1  H    10    36       P1 10175  1.00

> <Gold.Chemscore.Hbond.Weighted>
-3.3381

> <Gold.Chemscore.Metal.Weighted>
-0.0000

> <Gold.Chemscore.Lipo.Weighted>
-7.4469

> <Gold.Chemscore.Internal_Hbond.Weighted>
0.0000

> <Gold.Chemscore.DEClash.Weighted>
1.2921

> <Gold.Chemscore.DEInternal.Weighted>
1.6927

> <Gold.Chemscore.Rot.Weighted>
6.8286

> <Gold.Chemscore.Internal.Correction.Weighted>
   9.000000E+99

> <Gold.Protein.RotatedTorsions>
[ 6907 6896 6895 6894 ] final  -80.72 input  -60.11 | X-H torsion
[ 7974 7965 7964 7962 ] final  -75.69 input  175.53 | X-H torsion
[ 8008 7997 7996 7995 ] final -162.81 input   59.86 | X-H torsion
[ 10167 10162 10161 10158 ] final   -0.87 input  -65.29 | X-H torsion
[ 10718 10713 10712 10709 ] final  122.79 input   66.30 | X-H torsion
[ 10763 10752 10751 10750 ] final  142.73 input  -60.55 | X-H torsion
[ 11005 11000 10999 10996 ] final   62.38 input  -57.11 | X-H torsion

> <Gold.Protein.ActiveResidues>
 VAL166  LYS551  ARG553  GLY616  TRP617  ASP618  TYR619  PRO620  LYS621  CYS622 
 ASP623  PHE694  ASN695  SER759  ASP760  ASP761  ALA762  ILE779  LEU786  VAL792 
 PHE793  MET794  SER795  GLU796  ALA797  LYS798  CYS799  TRP800  GLU811  SER814 

> <Gold.Protein.RotatedAtoms>
  150.6924  134.3927  159.5083 H   0  0  0  0  0  0  0  0  0  0  0  0  # atno 6907 bound_to 6896
  152.1713  134.8829  160.0543 H   0  0  0  0  0  0  0  0  0  0  0  0  # atno 6908 bound_to 6896
  151.9854  133.3737  159.4161 H   0  0  0  0  0  0  0  0  0  0  0  0  # atno 6909 bound_to 6896
  145.6227  140.9359  143.1129 H   0  0  0  0  0  0  0  0  0  0  0  0  # atno 7974 bound_to 7965
  155.8123  140.0907  157.1897 H   0  0  0  0  0  0  0  0  0  0  0  0  # atno 8008 bound_to 7997
  154.3980  140.1452  156.3461 H   0  0  0  0  0  0  0  0  0  0  0  0  # atno 8009 bound_to 7997
  155.8352  140.3441  155.5600 H   0  0  0  0  0  0  0  0  0  0  0  0  # atno 8010 bound_to 7997
  140.6786  143.6843  150.8080 H   0  0  0  0  0  0  0  0  0  0  0  0  # atno 10167 bound_to 10162
  157.5715  131.1083  150.8357 H   0  0  0  0  0  0  0  0  0  0  0  0  # atno 10718 bound_to 10713
  153.9607  135.2960  155.3433 H   0  0  0  0  0  0  0  0  0  0  0  0  # atno 10763 bound_to 10752
  154.7376  135.5039  153.9072 H   0  0  0  0  0  0  0  0  0  0  0  0  # atno 10764 bound_to 10752
  153.0948  135.6718  153.9894 H   0  0  0  0  0  0  0  0  0  0  0  0  # atno 10765 bound_to 10752
  140.0096  134.6317  155.9801 H   0  0  0  0  0  0  0  0  0  0  0  0  # atno 11005 bound_to 11000
  144.7225  139.7984  143.7377 LP  0  0  0  0  0  0  0  0  0  0  0  0  # atno 17320 bound_to 7965
  146.1418  139.4477  143.0104 LP  0  0  0  0  0  0  0  0  0  0  0  0  # atno 17321 bound_to 7965
  140.0540  143.5222  152.2660 LP  0  0  0  0  0  0  0  0  0  0  0  0  # atno 17342 bound_to 10162
  139.6094  144.7604  151.2988 LP  0  0  0  0  0  0  0  0  0  0  0  0  # atno 17343 bound_to 10162
  156.8828  130.5185  149.5290 LP  0  0  0  0  0  0  0  0  0  0  0  0  # atno 17370 bound_to 10713
  156.0761  130.5782  150.9475 LP  0  0  0  0  0  0  0  0  0  0  0  0  # atno 17371 bound_to 10713
  141.1701  133.6537  156.4622 LP  0  0  0  0  0  0  0  0  0  0  0  0  # atno 17394 bound_to 11000
  140.4579  134.6869  157.5071 LP  0  0  0  0  0  0  0  0  0  0  0  0  # atno 17395 bound_to 11000

$$$$
