AV-unprocessed.smi:1250|AV-procd|sdf|5255|dock1
  -GOLD-   22720 4363D 1   1.00000     0.00000
 Structure written by MMmdl.
 41 42  0  0  0  0  0  0  0  0  1 V2000
  152.3742  143.9707  158.4598 C   0  0  0  0  0  0  0  0  0  0  0  0
  152.1541  142.4453  158.4352 C   0  0  0  0  0  0  0  0  0  0  0  0
  150.7114  142.1296  158.8707 C   0  0  0  0  0  0  0  0  0  0  0  0
  153.2061  141.6845  159.2856 C   0  0  1  0  0  0  0  0  0  0  0  0
  153.3809  142.2662  160.7012 C   0  0  0  0  0  0  0  0  0  0  0  0
  152.8408  140.2730  159.4011 N   0  0  0  0  0  0  0  0  0  0  0  0
  152.6079  139.4396  158.3745 C   0  0  0  0  0  0  0  0  0  0  0  0
  152.6737  139.7797  157.1933 O   0  0  0  0  0  0  0  0  0  0  0  0
  152.2489  137.9973  158.7339 C   0  0  0  0  0  0  0  0  0  0  0  0
  150.7591  137.8426  158.8425 C   0  0  0  0  0  0  0  0  0  0  0  0
  149.8038  138.5639  158.1677 C   0  0  0  0  0  0  0  0  0  0  0  0
  148.1890  138.0659  158.5888 S   0  0  0  0  0  0  0  0  0  0  0  0
  148.8810  136.8766  159.6964 C   0  0  0  0  0  0  0  0  0  0  0  0
  148.1535  135.9753  160.5297 N   0  0  0  0  0  0  0  0  0  0  0  0
  147.9375  134.5820  160.1515 C   0  0  0  0  0  0  0  0  0  0  0  0
  147.3407  133.8985  161.3863 C   0  0  0  0  0  0  0  0  0  0  0  0
  146.8884  135.0365  162.2990 C   0  0  0  0  0  0  0  0  0  0  0  0
  147.5703  136.2594  161.7078 C   0  0  0  0  0  0  0  0  0  0  0  0
  147.5476  137.3472  162.2818 O   0  0  0  0  0  0  0  0  0  0  0  0
  150.2185  136.8883  159.7115 N   0  0  0  0  0  0  0  0  0  0  0  0
  152.3351  144.3584  159.4782 H   0  0  0  0  0  0  0  0  0  0  0  0
  151.6090  144.4874  157.8798 H   0  0  0  0  0  0  0  0  0  0  0  0
  153.3371  144.2513  158.0330 H   0  0  0  0  0  0  0  0  0  0  0  0
  152.2585  142.1221  157.3984 H   0  0  0  0  0  0  0  0  0  0  0  0
  150.5559  142.3630  159.9243 H   0  0  0  0  0  0  0  0  0  0  0  0
  150.4611  141.0804  158.7181 H   0  0  0  0  0  0  0  0  0  0  0  0
  149.9910  142.7108  158.2943 H   0  0  0  0  0  0  0  0  0  0  0  0
  154.1648  141.7568  158.7682 H   0  0  0  0  0  0  0  0  0  0  0  0
  153.7690  143.2839  160.6763 H   0  0  0  0  0  0  0  0  0  0  0  0
  154.0879  141.6755  161.2848 H   0  0  0  0  0  0  0  0  0  0  0  0
  152.4354  142.2799  161.2443 H   0  0  0  0  0  0  0  0  0  0  0  0
  152.7639  139.9004  160.3366 H   0  0  0  0  0  0  0  0  0  0  0  0
  152.6625  137.3246  157.9810 H   0  0  0  0  0  0  0  0  0  0  0  0
  152.7280  137.7328  159.6773 H   0  0  0  0  0  0  0  0  0  0  0  0
  149.9541  139.3533  157.4461 H   0  0  0  0  0  0  0  0  0  0  0  0
  147.2408  134.5419  159.3126 H   0  0  0  0  0  0  0  0  0  0  0  0
  148.8668  134.0999  159.8449 H   0  0  0  0  0  0  0  0  0  0  0  0
  146.5197  133.2308  161.1236 H   0  0  0  0  0  0  0  0  0  0  0  0
  148.1023  133.3013  161.8897 H   0  0  0  0  0  0  0  0  0  0  0  0
  145.8072  135.1717  162.2606 H   0  0  0  0  0  0  0  0  0  0  0  0
  147.1851  134.8757  163.3360 H   0  0  0  0  0  0  0  0  0  0  0  0
  1  2  1  0  0  0  0
  1 21  1  0  0  0  0
  1 22  1  0  0  0  0
  1 23  1  0  0  0  0
  2  3  1  0  0  0  0
  2  4  1  0  0  0  0
  2 24  1  0  0  0  0
  3 25  1  0  0  0  0
  3 26  1  0  0  0  0
  3 27  1  0  0  0  0
  4  5  1  0  0  0  0
  4  6  1  0  0  0  0
  4 28  1  0  0  0  0
  5 29  1  0  0  0  0
  5 30  1  0  0  0  0
  5 31  1  0  0  0  0
  6  7  1  0  0  0  0
  6 32  1  0  0  0  0
  7  8  2  0  0  0  0
  7  9  1  0  0  0  0
  9 10  1  0  0  0  0
  9 33  1  0  0  0  0
  9 34  1  0  0  0  0
 10 20  1  0  0  0  0
 10 11  2  0  0  0  0
 11 12  1  0  0  0  0
 11 35  1  0  0  0  0
 12 13  1  0  0  0  0
 13 14  1  0  0  0  0
 13 20  2  0  0  0  0
 14 18  1  0  0  0  0
 14 15  1  0  0  0  0
 15 16  1  0  0  0  0
 15 36  1  0  0  0  0
 15 37  1  0  0  0  0
 16 17  1  0  0  0  0
 16 38  1  0  0  0  0
 16 39  1  0  0  0  0
 17 18  1  0  0  0  0
 17 40  1  0  0  0  0
 17 41  1  0  0  0  0
 18 19  2  0  0  0  0
M  END
> <s_m_source_file>
AV-unprocessed.smi

> <i_m_source_file_index>
1250

> <i_lp_mmshare_version>
43012

> <i_f3d_flags>
0

> <s_epik_input>
W0NIM11bQ0hdKFtDSDNdKVtDQEhdKFtDSDNdKVtOSF1DKD1PKVtDSDJdYzFbY0hdc2MobjEpTjJbQ0gyXVtDSDJdW0NIMl1DMj1P

> <s_epik_cmdline>
J2VwaWtfcHl0aG9uJywgJy1waCcsICc3LjAnLCAnLXRuJywgJzgnLCAnLW1hJywgJzIwMCcsICctbWV0YWxfYmluZGluZycsICctaW1hZScsICc8aW5maWxlLm1hZT4nLCAnLW9tYWUnLCAnPG91dGZpbGUubWFlPic=

> <r_lp_tautomer_probability>
1

> <r_epik_Ionization_Penalty>
3.03552e-05

> <r_epik_Ionization_Penalty_Charging>
0

> <r_epik_Ionization_Penalty_Neutral>
3.03552e-05

> <r_epik_State_Penalty>
-0

> <r_epik_Charging_Adjusted_Penalty>
0

> <i_epik_Tot_Q>
0

> <i_epik_Tot_abs_Q>
0

> <r_epik_Metal_State_Penalty>
-0

> <b_epik_Metal_Only>
0

> <s_lp_Force_Field>
OPLS_2005

> <r_lp_Energy>
19.4329

> <b_lp_Chiralities_Consistent>
1

> <s_lp_Variant>
AV-unprocessed.smi:1250-2

> <Gold.Version>
5.8.1

> <Gold.Id.Protein>
6NUR|6NUR_protein|mol2

> <Gold.PLP.Fitness>
46.4850

> <Gold.PLP.PLP>
-40.6960

> <Gold.PLP.part.hbond>
-4.1644

> <Gold.PLP.part.metal>
0.0000

> <Gold.PLP.part.buried>
-5.4453

> <Gold.PLP.part.nonpolar>
-31.5842

> <Gold.PLP.part.repulsive>
0.1247

> <Gold.PLP.ligand.clash>
0.0000

> <Gold.PLP.ligand.torsion>
2.3543

> <Gold.PLP.Chemscore.Hbond>
3.4793

> <Gold.PLP.Chemscore.CHOScore>
0.0000

> <Gold.PLP.Chemscore.Metal>
0.0000

> <Gold.Chemscore.Hbonds>
donor molecule, donor type, donor heavy atom, donor atom, acceptor molecule, acceptor atom, score
      P1  H  6896  6907       L1    20  0.93
      P1  H  6931  6943       L1    19  0.82
      P1  H  6934  6947       L1    19  0.35
      P1  H  7997  8008       L1     8  1.00

> <Gold.PLP.Chemscore.Internal.Correction>
0.0598

> <Gold.Rescore>
     Score         DG    S(hbond)    S(metal)    S(lipo)     H(rot)  DE(clash)    DE(int)     intcor
     19.86     -22.12       3.43        0.00      78.91       1.58       0.00       2.27       ----

> <Gold.Chemscore.Fitness>
19.8555

> <Gold.Chemscore.DG>
-22.1248

> <Gold.Chemscore.ZeroCoef>
-5.4800

> <Gold.Chemscore.Hbond>
3.4283

> <Gold.Chemscore.Metal>
0.0000

> <Gold.Chemscore.Lipo>
78.9134

> <Gold.Chemscore.Internal_Hbond>
0.0000

> <Gold.Chemscore.DEClash>
0.0038

> <Gold.Chemscore.DEInternal>
2.2656

> <Gold.Chemscore.Rot>
1.5775

> <Gold.Chemscore.Internal.Correction>
   9.000000E+99

> <Gold.Chemscore.Hbonds>
donor molecule, donor type, donor heavy atom, donor atom, acceptor molecule, acceptor atom, score
      P1  H  6896  6907       L1    20  0.61
      P1  H  6931  6943       L1    19  0.64
      P1  H  6934  6947       L1    19  0.32
      P1  H  7997  8008       L1     8  0.78

> <Gold.Chemscore.Hbond.Weighted>
-11.4505

> <Gold.Chemscore.Metal.Weighted>
-0.0000

> <Gold.Chemscore.Lipo.Weighted>
-9.2329

> <Gold.Chemscore.Internal_Hbond.Weighted>
0.0000

> <Gold.Chemscore.DEClash.Weighted>
0.0038

> <Gold.Chemscore.DEInternal.Weighted>
2.2656

> <Gold.Chemscore.Rot.Weighted>
4.0385

> <Gold.Chemscore.Internal.Correction.Weighted>
   9.000000E+99

> <Gold.Protein.RotatedTorsions>
[ 6907 6896 6895 6894 ] final  -43.31 input  -60.11 | X-H torsion
[ 7974 7965 7964 7962 ] final   70.58 input  175.53 | X-H torsion
[ 8008 7997 7996 7995 ] final  -64.55 input   59.86 | X-H torsion
[ 10167 10162 10161 10158 ] final  -99.92 input  -65.29 | X-H torsion
[ 10718 10713 10712 10709 ] final  150.78 input   66.30 | X-H torsion
[ 10763 10752 10751 10750 ] final  177.78 input  -60.55 | X-H torsion
[ 11005 11000 10999 10996 ] final   -1.82 input  -57.11 | X-H torsion

> <Gold.Protein.ActiveResidues>
 VAL166  LYS551  ARG553  GLY616  TRP617  ASP618  TYR619  PRO620  LYS621  CYS622 
 ASP623  PHE694  ASN695  SER759  ASP760  ASP761  ALA762  ILE779  LEU786  VAL792 
 PHE793  MET794  SER795  GLU796  ALA797  LYS798  CYS799  TRP800  GLU811  SER814 

> <Gold.Protein.RotatedAtoms>
  150.9454  134.8859  159.7638 H   0  0  0  0  0  0  0  0  0  0  0  0  # atno 6907 bound_to 6896
  152.5097  134.3882  159.9385 H   0  0  0  0  0  0  0  0  0  0  0  0  # atno 6908 bound_to 6896
  151.3901  133.3751  159.2755 H   0  0  0  0  0  0  0  0  0  0  0  0  # atno 6909 bound_to 6896
  145.7764  139.2867  143.1291 H   0  0  0  0  0  0  0  0  0  0  0  0  # atno 7974 bound_to 7965
  154.4618  140.0951  156.6914 H   0  0  0  0  0  0  0  0  0  0  0  0  # atno 8008 bound_to 7997
  155.4972  140.3472  155.4346 H   0  0  0  0  0  0  0  0  0  0  0  0  # atno 8009 bound_to 7997
  156.0884  140.1391  156.9612 H   0  0  0  0  0  0  0  0  0  0  0  0  # atno 8010 bound_to 7997
  140.2573  143.3431  152.0659 H   0  0  0  0  0  0  0  0  0  0  0  0  # atno 10167 bound_to 10162
  157.2791  131.0832  151.1545 H   0  0  0  0  0  0  0  0  0  0  0  0  # atno 10718 bound_to 10713
  154.4989  135.2782  155.1436 H   0  0  0  0  0  0  0  0  0  0  0  0  # atno 10763 bound_to 10752
  154.3078  135.6235  153.5456 H   0  0  0  0  0  0  0  0  0  0  0  0  # atno 10764 bound_to 10752
  152.9899  135.5712  154.5428 H   0  0  0  0  0  0  0  0  0  0  0  0  # atno 10765 bound_to 10752
  140.6515  133.9400  155.8383 H   0  0  0  0  0  0  0  0  0  0  0  0  # atno 11005 bound_to 11000
  146.0119  140.8428  142.9967 LP  0  0  0  0  0  0  0  0  0  0  0  0  # atno 17320 bound_to 7965
  144.6804  140.2502  143.7332 LP  0  0  0  0  0  0  0  0  0  0  0  0  # atno 17321 bound_to 7965
  139.5027  144.6741  151.6171 LP  0  0  0  0  0  0  0  0  0  0  0  0  # atno 17342 bound_to 10162
  140.5993  143.9638  150.6376 LP  0  0  0  0  0  0  0  0  0  0  0  0  # atno 17343 bound_to 10162
  157.2986  130.6831  149.6152 LP  0  0  0  0  0  0  0  0  0  0  0  0  # atno 17370 bound_to 10713
  155.9664  130.4399  150.5277 LP  0  0  0  0  0  0  0  0  0  0  0  0  # atno 17371 bound_to 10713
  141.0533  134.0453  157.3755 LP  0  0  0  0  0  0  0  0  0  0  0  0  # atno 17394 bound_to 11000
  139.9044  135.0175  156.7419 LP  0  0  0  0  0  0  0  0  0  0  0  0  # atno 17395 bound_to 11000

$$$$
