AV-unprocessed.smi:3149|AV-procd|sdf|12005|dock7
  -GOLD-   2272017413D 1   1.00000     0.00000
 Structure written by MMmdl.
 37 38  0  0  0  0  0  0  0  0  1 V2000
  152.0853  139.4163  155.3661 C   0  0  0  0  0  0  0  0  0  0  0  0
  150.9014  140.4070  155.3148 C   0  0  2  0  0  0  0  0  0  0  0  0
  150.4085  140.6472  156.6690 N   0  0  0  0  0  0  0  0  0  0  0  0
  151.1780  141.6622  157.4015 C   0  0  0  0  0  0  0  0  0  0  0  0
  152.1971  141.0238  158.3509 C   0  0  0  0  0  0  0  0  0  0  0  0
  152.9171  140.1061  157.9585 O   0  0  0  0  0  0  0  0  0  0  0  0
  152.3395  141.5767  159.6275 N   0  0  0  0  0  0  0  0  0  0  0  0
  153.5865  141.4584  160.3669 C   0  0  0  0  0  0  0  0  0  0  0  0
  153.1879  142.7810  161.0307 C   0  0  0  0  0  0  0  0  0  0  0  0
  152.2207  143.0074  159.8643 C   0  0  0  0  0  0  0  0  0  0  0  0
  149.7161  139.8945  154.4512 C   0  0  1  0  0  0  0  0  0  0  0  0
  149.3120  138.4469  154.7951 C   0  0  0  0  0  0  0  0  0  0  0  0
  148.5528  140.7692  154.5403 N   0  0  0  0  0  0  0  0  0  0  0  0
  147.8809  141.4016  153.5144 C   0  0  0  0  0  0  0  0  0  0  0  0
  146.8611  142.1175  154.0728 C   0  0  0  0  0  0  0  0  0  0  0  0
  146.9871  141.8554  155.4652 C   0  0  0  0  0  0  0  0  0  0  0  0
  147.9982  141.0486  155.7422 N   0  0  0  0  0  0  0  0  0  0  0  0
  152.4985  139.2321  154.3745 H   0  0  0  0  0  0  0  0  0  0  0  0
  151.7797  138.4548  155.7793 H   0  0  0  0  0  0  0  0  0  0  0  0
  152.9079  139.7929  155.9727 H   0  0  0  0  0  0  0  0  0  0  0  0
  151.2495  141.3477  154.8848 H   0  0  0  0  0  0  0  0  0  0  0  0
  150.3524  139.7760  157.1769 H   0  0  0  0  0  0  0  0  0  0  0  0
  151.7079  142.3058  156.6996 H   0  0  0  0  0  0  0  0  0  0  0  0
  150.5095  142.3035  157.9765 H   0  0  0  0  0  0  0  0  0  0  0  0
  153.6241  140.6024  161.0411 H   0  0  0  0  0  0  0  0  0  0  0  0
  154.4765  141.5431  159.7399 H   0  0  0  0  0  0  0  0  0  0  0  0
  152.6848  142.6495  161.9905 H   0  0  0  0  0  0  0  0  0  0  0  0
  153.9943  143.5125  161.0922 H   0  0  0  0  0  0  0  0  0  0  0  0
  152.6486  143.6217  159.0696 H   0  0  0  0  0  0  0  0  0  0  0  0
  151.2216  143.3303  160.1575 H   0  0  0  0  0  0  0  0  0  0  0  0
  150.0302  139.9071  153.4059 H   0  0  0  0  0  0  0  0  0  0  0  0
  150.1240  137.7476  154.5962 H   0  0  0  0  0  0  0  0  0  0  0  0
  148.4582  138.1265  154.1975 H   0  0  0  0  0  0  0  0  0  0  0  0
  149.0390  138.3455  155.8460 H   0  0  0  0  0  0  0  0  0  0  0  0
  148.1827  141.2928  152.4831 H   0  0  0  0  0  0  0  0  0  0  0  0
  146.1349  142.7341  153.5642 H   0  0  0  0  0  0  0  0  0  0  0  0
  146.3780  142.2246  156.2770 H   0  0  0  0  0  0  0  0  0  0  0  0
  1  2  1  0  0  0  0
  1 18  1  0  0  0  0
  1 19  1  0  0  0  0
  1 20  1  0  0  0  0
  2  3  1  0  0  0  0
  2 11  1  0  0  0  0
  2 21  1  0  0  0  0
  3  4  1  0  0  0  0
  3 22  1  0  0  0  0
  4  5  1  0  0  0  0
  4 23  1  0  0  0  0
  4 24  1  0  0  0  0
  5  6  2  0  0  0  0
  5  7  1  0  0  0  0
  7 10  1  0  0  0  0
  7  8  1  0  0  0  0
  8  9  1  0  0  0  0
  8 25  1  0  0  0  0
  8 26  1  0  0  0  0
  9 10  1  0  0  0  0
  9 27  1  0  0  0  0
  9 28  1  0  0  0  0
 10 29  1  0  0  0  0
 10 30  1  0  0  0  0
 11 12  1  0  0  0  0
 11 13  1  0  0  0  0
 11 31  1  0  0  0  0
 12 32  1  0  0  0  0
 12 33  1  0  0  0  0
 12 34  1  0  0  0  0
 13 17  1  0  0  0  0
 13 14  1  0  0  0  0
 14 15  2  0  0  0  0
 14 35  1  0  0  0  0
 15 16  1  0  0  0  0
 15 36  1  0  0  0  0
 16 17  2  0  0  0  0
 16 37  1  0  0  0  0
M  END
> <s_m_source_file>
AV-unprocessed.smi

> <i_m_source_file_index>
3149

> <i_lp_mmshare_version>
43012

> <i_f3d_flags>
0

> <s_epik_input>
bjFbY0hdW2NIXVtjSF1uMVtDQEBIXShbQ0gzXSlbQ0BIXShbQ0gzXSlbTkhdW0NIMl1DKD1PKU4yW0NIMl1bQ0gyXVtDSDJdMg==

> <s_epik_cmdline>
J2VwaWtfcHl0aG9uJywgJy1waCcsICc3LjAnLCAnLXRuJywgJzgnLCAnLW1hJywgJzIwMCcsICctbWV0YWxfYmluZGluZycsICctaW1hZScsICc8aW5maWxlLm1hZT4nLCAnLW9tYWUnLCAnPG91dGZpbGUubWFlPic=

> <r_lp_tautomer_probability>
1

> <r_epik_Ionization_Penalty>
0.918674

> <r_epik_Ionization_Penalty_Charging>
0

> <r_epik_Ionization_Penalty_Neutral>
0.918674

> <r_epik_State_Penalty>
0.958258

> <r_epik_Charging_Adjusted_Penalty>
0.958258

> <i_epik_Tot_Q>
0

> <i_epik_Tot_abs_Q>
0

> <r_epik_Metal_State_Penalty>
0.956881

> <b_epik_Metal_Only>
0

> <s_lp_Force_Field>
OPLS_2005

> <r_lp_Energy>
23.4504

> <b_lp_Chiralities_Consistent>
1

> <s_lp_Variant>
AV-unprocessed.smi:3149-7

> <Gold.Version>
5.8.1

> <Gold.Id.Protein>
6NUR|6NUR_protein|mol2

> <Gold.PLP.Fitness>
42.4033

> <Gold.PLP.PLP>
-38.2115

> <Gold.PLP.part.hbond>
-1.0000

> <Gold.PLP.part.metal>
0.0000

> <Gold.PLP.part.buried>
-1.8868

> <Gold.PLP.part.nonpolar>
-34.8922

> <Gold.PLP.part.repulsive>
0.0629

> <Gold.PLP.ligand.clash>
0.0000

> <Gold.PLP.ligand.torsion>
1.3500

> <Gold.PLP.Chemscore.Hbond>
1.0000

> <Gold.PLP.Chemscore.CHOScore>
1.0000

> <Gold.PLP.Chemscore.Metal>
0.0000

> <Gold.Chemscore.Hbonds>
donor molecule, donor type, donor heavy atom, donor atom, acceptor molecule, acceptor atom, score
      P1  H  7997  8010       L1     6  1.00
      L1  C    14    35       P1  7957  1.00

> <Gold.PLP.Chemscore.Internal.Correction>
0.8919

> <Gold.Rescore>
     Score         DG    S(hbond)    S(metal)    S(lipo)     H(rot)  DE(clash)    DE(int)     intcor
      9.70     -13.99       0.97        0.00      84.15       1.79       0.14       4.15       ----

> <Gold.Chemscore.Fitness>
9.6969

> <Gold.Chemscore.DG>
-13.9860

> <Gold.Chemscore.ZeroCoef>
-5.4800

> <Gold.Chemscore.Hbond>
0.9688

> <Gold.Chemscore.Metal>
0.0000

> <Gold.Chemscore.Lipo>
84.1542

> <Gold.Chemscore.Internal_Hbond>
0.0000

> <Gold.Chemscore.DEClash>
0.1415

> <Gold.Chemscore.DEInternal>
4.1476

> <Gold.Chemscore.Rot>
1.7874

> <Gold.Chemscore.Internal.Correction>
   9.000000E+99

> <Gold.Chemscore.Hbonds>
donor molecule, donor type, donor heavy atom, donor atom, acceptor molecule, acceptor atom, score
      P1  H  7997  8010       L1     6  0.96

> <Gold.Chemscore.Hbond.Weighted>
-3.2358

> <Gold.Chemscore.Metal.Weighted>
-0.0000

> <Gold.Chemscore.Lipo.Weighted>
-9.8460

> <Gold.Chemscore.Internal_Hbond.Weighted>
0.0000

> <Gold.Chemscore.DEClash.Weighted>
0.1415

> <Gold.Chemscore.DEInternal.Weighted>
4.1476

> <Gold.Chemscore.Rot.Weighted>
4.5758

> <Gold.Chemscore.Internal.Correction.Weighted>
   9.000000E+99

> <Gold.Protein.RotatedTorsions>
[ 6907 6896 6895 6894 ] final -107.28 input  -60.11 | X-H torsion
[ 7974 7965 7964 7962 ] final  -57.26 input  175.53 | X-H torsion
[ 8008 7997 7996 7995 ] final   40.72 input   59.86 | X-H torsion
[ 10167 10162 10161 10158 ] final  -11.83 input  -65.29 | X-H torsion
[ 10718 10713 10712 10709 ] final  102.23 input   66.30 | X-H torsion
[ 10763 10752 10751 10750 ] final  -31.22 input  -60.55 | X-H torsion
[ 11005 11000 10999 10996 ] final   23.04 input  -57.11 | X-H torsion

> <Gold.Protein.ActiveResidues>
 VAL166  LYS551  ARG553  GLY616  TRP617  ASP618  TYR619  PRO620  LYS621  CYS622 
 ASP623  PHE694  ASN695  SER759  ASP760  ASP761  ALA762  ILE779  LEU786  VAL792 
 PHE793  MET794  SER795  GLU796  ALA797  LYS798  CYS799  TRP800  GLU811  SER814 

> <Gold.Protein.RotatedAtoms>
  150.7435  133.9851  159.3588 H   0  0  0  0  0  0  0  0  0  0  0  0  # atno 6907 bound_to 6896
  151.7794  135.0763  160.0381 H   0  0  0  0  0  0  0  0  0  0  0  0  # atno 6908 bound_to 6896
  152.3284  133.5894  159.5829 H   0  0  0  0  0  0  0  0  0  0  0  0  # atno 6909 bound_to 6896
  145.8531  140.8338  142.9975 H   0  0  0  0  0  0  0  0  0  0  0  0  # atno 7974 bound_to 7965
  155.2578  140.3357  155.4276 H   0  0  0  0  0  0  0  0  0  0  0  0  # atno 8008 bound_to 7997
  156.2188  140.1800  156.7569 H   0  0  0  0  0  0  0  0  0  0  0  0  # atno 8009 bound_to 7997
  154.5793  140.0656  156.9065 H   0  0  0  0  0  0  0  0  0  0  0  0  # atno 8010 bound_to 7997
  140.7147  143.5597  150.9209 H   0  0  0  0  0  0  0  0  0  0  0  0  # atno 10167 bound_to 10162
  157.6808  131.0747  150.5372 H   0  0  0  0  0  0  0  0  0  0  0  0  # atno 10718 bound_to 10713
  153.7938  135.6895  153.4867 H   0  0  0  0  0  0  0  0  0  0  0  0  # atno 10763 bound_to 10752
  153.1732  135.4534  154.9929 H   0  0  0  0  0  0  0  0  0  0  0  0  # atno 10764 bound_to 10752
  154.8034  135.3347  154.7432 H   0  0  0  0  0  0  0  0  0  0  0  0  # atno 10765 bound_to 10752
  140.3740  134.1992  155.7665 H   0  0  0  0  0  0  0  0  0  0  0  0  # atno 11005 bound_to 11000
  144.6728  140.0984  143.7462 LP  0  0  0  0  0  0  0  0  0  0  0  0  # atno 17320 bound_to 7965
  145.9334  139.2621  143.1311 LP  0  0  0  0  0  0  0  0  0  0  0  0  # atno 17321 bound_to 7965
  139.9323  143.6479  152.3073 LP  0  0  0  0  0  0  0  0  0  0  0  0  # atno 17342 bound_to 10162
  139.6934  144.7644  151.1399 LP  0  0  0  0  0  0  0  0  0  0  0  0  # atno 17343 bound_to 10162
  156.5680  130.4272  149.6032 LP  0  0  0  0  0  0  0  0  0  0  0  0  # atno 17370 bound_to 10713
  156.2764  130.7046  151.1858 LP  0  0  0  0  0  0  0  0  0  0  0  0  # atno 17371 bound_to 10713
  141.1945  133.8126  157.0753 LP  0  0  0  0  0  0  0  0  0  0  0  0  # atno 17394 bound_to 11000
  140.0530  134.9795  157.1170 LP  0  0  0  0  0  0  0  0  0  0  0  0  # atno 17395 bound_to 11000

$$$$
