AV-unprocessed.smi:40|AV-procd|sdf|377|dock6
  -GOLD-   2262016223D 1   1.00000     0.00000
 Structure written by MMmdl.
 47 48  0  0  0  0  0  0  0  0  1 V2000
  146.3659  133.1866  150.6949 C   0  0  0  0  0  0  0  0  0  0  0  0
  146.7882  132.5890  152.0415 C   0  0  0  0  0  0  0  0  0  0  0  0
  148.0530  133.2497  152.6084 C   0  0  0  0  0  0  0  0  0  0  0  0
  148.4179  132.7252  154.0036 C   0  0  0  0  0  0  0  0  0  0  0  0
  149.6428  133.4420  154.5927 C   0  0  0  0  0  0  0  0  0  0  0  0
  149.2603  134.6436  155.2480 O   0  0  0  0  0  0  0  0  0  0  0  0
  150.1141  135.6869  155.3383 C   0  0  0  0  0  0  0  0  0  0  0  0
  151.2292  135.7132  154.8176 O   0  0  0  0  0  0  0  0  0  0  0  0
  149.5721  136.7513  156.1651 N   0  0  0  0  0  0  0  0  0  0  0  0
  150.1294  137.9436  156.4859 C   0  0  0  0  0  0  0  0  0  0  0  0
  151.0246  138.5389  155.7128 N   0  0  0  0  0  0  0  0  0  0  0  0
  151.6198  139.7350  156.0131 C   0  0  0  0  0  0  0  0  0  0  0  0
  152.4269  140.2469  155.2388 O   0  0  0  0  0  0  0  0  0  0  0  0
  151.2570  140.3503  157.2344 N   0  0  0  0  0  0  0  0  0  0  0  0
  151.8783  141.6742  157.6222 C   0  0  2  0  0  0  0  0  0  0  0  0
  151.9716  141.7120  159.0155 O   0  0  0  0  0  0  0  0  0  0  0  0
  151.5899  142.9957  159.4918 C   0  0  1  0  0  0  0  0  0  0  0  0
  152.8513  143.8764  159.5797 C   0  0  0  0  0  0  0  0  0  0  0  0
  150.5325  143.4528  158.4773 C   0  0  1  0  0  0  0  0  0  0  0  0
  150.3989  144.8602  158.4370 O   0  0  0  0  0  0  0  0  0  0  0  0
  151.0459  142.8926  157.1573 C   0  0  2  0  0  0  0  0  0  0  0  0
  149.9727  142.5767  156.2874 O   0  0  0  0  0  0  0  0  0  0  0  0
  150.3332  139.7359  158.0657 C   0  0  0  0  0  0  0  0  0  0  0  0
  149.7600  138.5570  157.7434 C   0  0  0  0  0  0  0  0  0  0  0  0
  148.8684  137.9791  158.5668 F   0  0  0  0  0  0  0  0  0  0  0  0
  152.8911  141.6847  157.2180 H   0  0  0  0  0  0  0  0  0  0  0  0
  151.1541  142.9007  160.4868 H   0  0  0  0  0  0  0  0  0  0  0  0
  149.5734  143.0001  158.7342 H   0  0  0  0  0  0  0  0  0  0  0  0
  151.7232  143.5959  156.6705 H   0  0  0  0  0  0  0  0  0  0  0  0
  145.4691  132.6954  150.3165 H   0  0  0  0  0  0  0  0  0  0  0  0
  147.1512  133.0668  149.9479 H   0  0  0  0  0  0  0  0  0  0  0  0
  146.1489  134.2511  150.7869 H   0  0  0  0  0  0  0  0  0  0  0  0
  145.9690  132.6933  152.7538 H   0  0  0  0  0  0  0  0  0  0  0  0
  146.9572  131.5185  151.9204 H   0  0  0  0  0  0  0  0  0  0  0  0
  148.8878  133.0767  151.9281 H   0  0  0  0  0  0  0  0  0  0  0  0
  147.9101  134.3300  152.6540 H   0  0  0  0  0  0  0  0  0  0  0  0
  147.5675  132.8520  154.6746 H   0  0  0  0  0  0  0  0  0  0  0  0
  148.6106  131.6532  153.9472 H   0  0  0  0  0  0  0  0  0  0  0  0
  150.1885  132.7858  155.2726 H   0  0  0  0  0  0  0  0  0  0  0  0
  150.3341  133.7020  153.7910 H   0  0  0  0  0  0  0  0  0  0  0  0
  148.6375  136.5760  156.5045 H   0  0  0  0  0  0  0  0  0  0  0  0
  152.6175  144.8663  159.9720 H   0  0  0  0  0  0  0  0  0  0  0  0
  153.3248  144.0068  158.6063 H   0  0  0  0  0  0  0  0  0  0  0  0
  153.5873  143.4286  160.2476 H   0  0  0  0  0  0  0  0  0  0  0  0
  149.5443  145.0711  158.0930 H   0  0  0  0  0  0  0  0  0  0  0  0
  149.6562  143.3777  155.8993 H   0  0  0  0  0  0  0  0  0  0  0  0
  150.0541  140.2047  158.9982 H   0  0  0  0  0  0  0  0  0  0  0  0
  1  2  1  0  0  0  0
  1 30  1  0  0  0  0
  1 31  1  0  0  0  0
  1 32  1  0  0  0  0
  2  3  1  0  0  0  0
  2 33  1  0  0  0  0
  2 34  1  0  0  0  0
  3  4  1  0  0  0  0
  3 35  1  0  0  0  0
  3 36  1  0  0  0  0
  4  5  1  0  0  0  0
  4 37  1  0  0  0  0
  4 38  1  0  0  0  0
  5  6  1  0  0  0  0
  5 39  1  0  0  0  0
  5 40  1  0  0  0  0
  6  7  1  0  0  0  0
  7  8  2  0  0  0  0
  7  9  1  0  0  0  0
  9 10  1  0  0  0  0
  9 41  1  0  0  0  0
 10 24  1  0  0  0  0
 10 11  2  0  0  0  0
 11 12  1  0  0  0  0
 12 13  2  0  0  0  0
 12 14  1  0  0  0  0
 14 15  1  0  0  0  0
 14 23  1  0  0  0  0
 15 26  1  0  0  0  0
 15 21  1  0  0  0  0
 15 16  1  0  0  0  0
 16 17  1  0  0  0  0
 17 27  1  0  0  0  0
 17 18  1  0  0  0  0
 17 19  1  0  0  0  0
 18 42  1  0  0  0  0
 18 43  1  0  0  0  0
 18 44  1  0  0  0  0
 19 28  1  0  0  0  0
 19 20  1  0  0  0  0
 19 21  1  0  0  0  0
 20 45  1  0  0  0  0
 21 29  1  0  0  0  0
 21 22  1  0  0  0  0
 22 46  1  0  0  0  0
 23 24  2  0  0  0  0
 23 47  1  0  0  0  0
 24 25  1  0  0  0  0
M  END
> <s_m_source_file>
AV-unprocessed.smi

> <i_m_source_file_index>
40

> <i_lp_mmshare_version>
43012

> <i_f3d_flags>
0

> <s_epik_input>
W0NIM11bQ0gyXVtDSDJdW0NIMl1bQ0gyXU9DKD1PKVtOSF1jMW5jKD1PKW4oW2NIXWMxRilbQ0BASF0yT1tDQEhdKFtDSDNdKVtDQEBIXShbT0hdKVtDQEhdMltPSF0=

> <s_epik_cmdline>
J2VwaWtfcHl0aG9uJywgJy1waCcsICc3LjAnLCAnLXRuJywgJzgnLCAnLW1hJywgJzIwMCcsICctbWV0YWxfYmluZGluZycsICctaW1hZScsICc8aW5maWxlLm1hZT4nLCAnLW9tYWUnLCAnPG91dGZpbGUubWFlPic=

> <r_lp_tautomer_probability>
1

> <r_epik_Ionization_Penalty>
2.29506e-06

> <r_epik_Ionization_Penalty_Charging>
8.26867e-09

> <r_epik_Ionization_Penalty_Neutral>
2.2868e-06

> <r_epik_State_Penalty>
-0

> <r_epik_Charging_Adjusted_Penalty>
8.26867e-09

> <i_epik_Tot_Q>
0

> <i_epik_Tot_abs_Q>
0

> <r_epik_Metal_State_Penalty>
-0

> <b_epik_Metal_Only>
0

> <s_epik_Chemistry_Notes>
This compound has an ester and may undergo hydrolysis at high or low pH. This compound contains an acetal/aminal-like group ( X-CH(R)-Y where X, Y are N, S, or O) that may be acid/base labile, releasing an aldehyde.

> <s_lp_Force_Field>
OPLS_2005

> <r_lp_Energy>
38.4453

> <b_lp_Chiralities_Consistent>
1

> <s_lp_Variant>
AV-unprocessed.smi:40-11

> <Gold.Version>
5.8.1

> <Gold.Id.Protein>
6NUR|6NUR_protein|mol2

> <Gold.PLP.Fitness>
48.1532

> <Gold.PLP.PLP>
-37.2143

> <Gold.PLP.part.hbond>
-5.6919

> <Gold.PLP.part.metal>
0.0000

> <Gold.PLP.part.buried>
-3.1512

> <Gold.PLP.part.nonpolar>
-29.1305

> <Gold.PLP.part.repulsive>
0.2257

> <Gold.PLP.ligand.clash>
0.0000

> <Gold.PLP.ligand.torsion>
1.2503

> <Gold.PLP.Chemscore.Hbond>
4.4300

> <Gold.PLP.Chemscore.CHOScore>
0.0000

> <Gold.PLP.Chemscore.Metal>
0.0000

> <Gold.Chemscore.Hbonds>
donor molecule, donor type, donor heavy atom, donor atom, acceptor molecule, acceptor atom, score
      L1  H    20    45       P1  8029  0.95
      L1  H    22    46       P1  8028  1.00
      P1  H  7989  7998       L1    13  0.56
      P1  H  7997  8009       L1    13  0.80
      P1  H 10752 10763       L1     8  0.91

> <Gold.PLP.Chemscore.Internal.Correction>
0.1495

> <Gold.Rescore>
     Score         DG    S(hbond)    S(metal)    S(lipo)     H(rot)  DE(clash)    DE(int)     intcor
     14.07     -17.20       3.73        0.00      74.59       3.70       0.92       2.21       ----

> <Gold.Chemscore.Fitness>
14.0694

> <Gold.Chemscore.DG>
-17.2007

> <Gold.Chemscore.ZeroCoef>
-5.4800

> <Gold.Chemscore.Hbond>
3.7288

> <Gold.Chemscore.Metal>
0.0000

> <Gold.Chemscore.Lipo>
74.5928

> <Gold.Chemscore.Internal_Hbond>
0.0000

> <Gold.Chemscore.DEClash>
0.9169

> <Gold.Chemscore.DEInternal>
2.2144

> <Gold.Chemscore.Rot>
3.6957

> <Gold.Chemscore.Internal.Correction>
   9.000000E+99

> <Gold.Chemscore.Hbonds>
donor molecule, donor type, donor heavy atom, donor atom, acceptor molecule, acceptor atom, score
      L1  H    20    45       P1  8029  0.20
      L1  H    22    46       P1  8028  0.97
      P1  H  7989  7998       L1    13  0.51
      P1  H  7997  8009       L1    13  0.61
      P1  H 10752 10763       L1     8  0.90

> <Gold.Chemscore.Hbond.Weighted>
-12.4543

> <Gold.Chemscore.Metal.Weighted>
-0.0000

> <Gold.Chemscore.Lipo.Weighted>
-8.7274

> <Gold.Chemscore.Internal_Hbond.Weighted>
0.0000

> <Gold.Chemscore.DEClash.Weighted>
0.9169

> <Gold.Chemscore.DEInternal.Weighted>
2.2144

> <Gold.Chemscore.Rot.Weighted>
9.4610

> <Gold.Chemscore.Internal.Correction.Weighted>
   9.000000E+99

> <Gold.Protein.RotatedTorsions>
[ 6907 6896 6895 6894 ] final   92.02 input  -60.11 | X-H torsion
[ 7974 7965 7964 7962 ] final  -41.52 input  175.53 | X-H torsion
[ 8008 7997 7996 7995 ] final -144.86 input   59.86 | X-H torsion
[ 10167 10162 10161 10158 ] final  -59.51 input  -65.29 | X-H torsion
[ 10718 10713 10712 10709 ] final  -43.12 input   66.30 | X-H torsion
[ 10763 10752 10751 10750 ] final   77.75 input  -60.55 | X-H torsion
[ 11005 11000 10999 10996 ] final  -57.70 input  -57.11 | X-H torsion

> <Gold.Protein.ActiveResidues>
 VAL166  LYS551  ARG553  GLY616  TRP617  ASP618  TYR619  PRO620  LYS621  CYS622 
 ASP623  PHE694  ASN695  SER759  ASP760  ASP761  ALA762  ILE779  LEU786  VAL792 
 PHE793  MET794  SER795  GLU796  ALA797  LYS798  CYS799  TRP800  GLU811  SER814 

> <Gold.Protein.RotatedAtoms>
  152.5452  134.1567  159.8540 H   0  0  0  0  0  0  0  0  0  0  0  0  # atno 6907 bound_to 6896
  151.1589  133.4851  159.2602 H   0  0  0  0  0  0  0  0  0  0  0  0  # atno 6908 bound_to 6896
  151.1394  135.0182  159.8674 H   0  0  0  0  0  0  0  0  0  0  0  0  # atno 6909 bound_to 6896
  146.0203  140.6858  142.9182 H   0  0  0  0  0  0  0  0  0  0  0  0  # atno 7974 bound_to 7965
  155.5337  140.0602  157.2884 H   0  0  0  0  0  0  0  0  0  0  0  0  # atno 8008 bound_to 7997
  154.4475  140.1931  156.0565 H   0  0  0  0  0  0  0  0  0  0  0  0  # atno 8009 bound_to 7997
  156.0634  140.3269  155.7492 H   0  0  0  0  0  0  0  0  0  0  0  0  # atno 8010 bound_to 7997
  140.6130  143.2393  151.5664 H   0  0  0  0  0  0  0  0  0  0  0  0  # atno 10167 bound_to 10162
  156.2524  130.4189  149.8635 H   0  0  0  0  0  0  0  0  0  0  0  0  # atno 10718 bound_to 10713
  153.0822  135.4902  154.8525 H   0  0  0  0  0  0  0  0  0  0  0  0  # atno 10763 bound_to 10752
  154.7165  135.3030  154.9117 H   0  0  0  0  0  0  0  0  0  0  0  0  # atno 10764 bound_to 10752
  153.9795  135.6791  153.4802 H   0  0  0  0  0  0  0  0  0  0  0  0  # atno 10765 bound_to 10752
  141.1176  133.6611  156.4810 H   0  0  0  0  0  0  0  0  0  0  0  0  # atno 11005 bound_to 11000
  144.6987  140.3554  143.7174 LP  0  0  0  0  0  0  0  0  0  0  0  0  # atno 17320 bound_to 7965
  145.7204  139.1708  143.2488 LP  0  0  0  0  0  0  0  0  0  0  0  0  # atno 17321 bound_to 7965
  139.5376  144.2737  152.1284 LP  0  0  0  0  0  0  0  0  0  0  0  0  # atno 17342 bound_to 10162
  140.1940  144.4724  150.6464 LP  0  0  0  0  0  0  0  0  0  0  0  0  # atno 17343 bound_to 10162
  156.6179  130.8614  151.3469 LP  0  0  0  0  0  0  0  0  0  0  0  0  # atno 17370 bound_to 10713
  157.7219  130.9570  150.1475 LP  0  0  0  0  0  0  0  0  0  0  0  0  # atno 17371 bound_to 10713
  140.4601  134.6849  157.5081 LP  0  0  0  0  0  0  0  0  0  0  0  0  # atno 17394 bound_to 11000
  140.0109  134.6692  155.9382 LP  0  0  0  0  0  0  0  0  0  0  0  0  # atno 17395 bound_to 11000

$$$$
