AV-unprocessed.smi:438|AV-procd|sdf|2569|dock4
  -GOLD-   2262022543D 1   1.00000     0.00000
 Structure written by MMmdl.
 48 49  0  0  0  0  0  0  0  0  1 V2000
  149.4933  134.2763  157.1909 C   0  0  0  0  0  0  0  0  0  0  0  0
  149.3843  135.5315  158.0390 C   0  0  0  0  0  0  0  0  0  0  0  0
  150.0595  136.6266  157.5303 N   0  0  0  0  0  0  0  0  0  0  0  0
  150.0334  137.8194  158.2366 C   0  0  0  0  0  0  0  0  0  0  0  0
  151.0067  139.0816  157.3656 S   0  0  0  0  0  0  0  0  0  0  0  0
  149.7578  140.3671  157.0752 C   0  0  0  0  0  0  0  0  0  0  0  0
  149.7387  141.4100  158.1875 C   0  0  0  0  0  0  0  0  0  0  0  0
  148.6678  141.8187  158.6352 O   0  0  0  0  0  0  0  0  0  0  0  0
  150.9361  141.8315  158.6212 N   0  0  0  0  0  0  0  0  0  0  0  0
  151.1663  142.8160  159.6777 C   0  0  2  0  0  0  0  0  0  0  0  0
  150.3268  144.0889  159.4354 C   0  0  0  0  0  0  0  0  0  0  0  0
  150.8241  144.8879  158.2187 C   0  0  0  0  0  0  0  0  0  0  0  0
  152.3161  145.2283  158.3511 C   0  0  0  0  0  0  0  0  0  0  0  0
  153.1619  143.9641  158.5739 C   0  0  0  0  0  0  0  0  0  0  0  0
  152.6719  143.1600  159.7965 C   0  0  2  0  0  0  0  0  0  0  0  0
  153.5499  141.9213  160.0462 C   0  0  0  0  0  0  0  0  0  0  0  0
  149.3936  137.9788  159.3571 N   0  0  0  0  0  0  0  0  0  0  0  0
  148.6774  136.9099  159.9155 C   0  0  0  0  0  0  0  0  0  0  0  0
  148.0537  137.0593  160.9653 O   0  0  0  0  0  0  0  0  0  0  0  0
  148.6998  135.6125  159.2063 C   0  0  0  0  0  0  0  0  0  0  0  0
  147.9302  134.4388  159.8124 C   0  0  0  0  0  0  0  0  0  0  0  0
  148.2443  134.2072  161.3008 C   0  0  0  0  0  0  0  0  0  0  0  0
  147.4732  133.1431  161.8175 O   0  0  0  0  0  0  0  0  0  0  0  0
  149.9124  133.4568  157.7753 H   0  0  0  0  0  0  0  0  0  0  0  0
  150.1358  134.4303  156.3231 H   0  0  0  0  0  0  0  0  0  0  0  0
  148.5100  133.9753  156.8286 H   0  0  0  0  0  0  0  0  0  0  0  0
  148.7751  139.9016  156.9919 H   0  0  0  0  0  0  0  0  0  0  0  0
  149.9605  140.8627  156.1247 H   0  0  0  0  0  0  0  0  0  0  0  0
  151.7579  141.4361  158.1880 H   0  0  0  0  0  0  0  0  0  0  0  0
  150.8508  142.3750  160.6252 H   0  0  0  0  0  0  0  0  0  0  0  0
  149.2738  143.8342  159.3092 H   0  0  0  0  0  0  0  0  0  0  0  0
  150.3773  144.7229  160.3214 H   0  0  0  0  0  0  0  0  0  0  0  0
  150.6580  144.3142  157.3059 H   0  0  0  0  0  0  0  0  0  0  0  0
  150.2427  145.8044  158.1146 H   0  0  0  0  0  0  0  0  0  0  0  0
  152.6585  145.7513  157.4580 H   0  0  0  0  0  0  0  0  0  0  0  0
  152.4607  145.9156  159.1855 H   0  0  0  0  0  0  0  0  0  0  0  0
  153.1283  143.3408  157.6793 H   0  0  0  0  0  0  0  0  0  0  0  0
  154.2064  144.2470  158.7091 H   0  0  0  0  0  0  0  0  0  0  0  0
  152.7841  143.8036  160.6703 H   0  0  0  0  0  0  0  0  0  0  0  0
  153.5409  141.2393  159.1954 H   0  0  0  0  0  0  0  0  0  0  0  0
  153.2069  141.3678  160.9207 H   0  0  0  0  0  0  0  0  0  0  0  0
  154.5864  142.2081  160.2255 H   0  0  0  0  0  0  0  0  0  0  0  0
  150.5606  136.5148  156.6606 H   0  0  0  0  0  0  0  0  0  0  0  0
  148.1223  133.5218  159.2566 H   0  0  0  0  0  0  0  0  0  0  0  0
  146.8619  134.6233  159.6915 H   0  0  0  0  0  0  0  0  0  0  0  0
  149.3017  133.9898  161.4520 H   0  0  0  0  0  0  0  0  0  0  0  0
  148.0200  135.1074  161.8731 H   0  0  0  0  0  0  0  0  0  0  0  0
  147.8137  132.3312  161.4737 H   0  0  0  0  0  0  0  0  0  0  0  0
  1 24  1  0  0  0  0
  1 25  1  0  0  0  0
  1 26  1  0  0  0  0
  1  2  1  0  0  0  0
  2 20  2  0  0  0  0
  2  3  1  0  0  0  0
  3  4  1  0  0  0  0
  3 43  1  0  0  0  0
  4  5  1  0  0  0  0
  4 17  2  0  0  0  0
  5  6  1  0  0  0  0
  6  7  1  0  0  0  0
  6 27  1  0  0  0  0
  6 28  1  0  0  0  0
  7  8  2  0  0  0  0
  7  9  1  0  0  0  0
  9 10  1  0  0  0  0
  9 29  1  0  0  0  0
 10 15  1  0  0  0  0
 10 11  1  0  0  0  0
 10 30  1  0  0  0  0
 11 12  1  0  0  0  0
 11 31  1  0  0  0  0
 11 32  1  0  0  0  0
 12 13  1  0  0  0  0
 12 33  1  0  0  0  0
 12 34  1  0  0  0  0
 13 14  1  0  0  0  0
 13 35  1  0  0  0  0
 13 36  1  0  0  0  0
 14 15  1  0  0  0  0
 14 37  1  0  0  0  0
 14 38  1  0  0  0  0
 15 16  1  0  0  0  0
 15 39  1  0  0  0  0
 16 40  1  0  0  0  0
 16 41  1  0  0  0  0
 16 42  1  0  0  0  0
 17 18  1  0  0  0  0
 18 19  2  0  0  0  0
 18 20  1  0  0  0  0
 20 21  1  0  0  0  0
 21 22  1  0  0  0  0
 21 44  1  0  0  0  0
 21 45  1  0  0  0  0
 22 23  1  0  0  0  0
 22 46  1  0  0  0  0
 22 47  1  0  0  0  0
 23 48  1  0  0  0  0
M  END
> <s_m_source_file>
AV-unprocessed.smi

> <i_m_source_file_index>
438

> <i_lp_mmshare_version>
43012

> <i_f3d_flags>
0

> <s_epik_input>
W09IXVtDSDJdW0NIMl1jMWMoW09IXSluYyhuYzFbQ0gzXSlTW0NIMl1DKD1PKVtOSF1bQ0BASF0yW0NIMl1bQ0gyXVtDSDJdW0NIMl1bQ0BIXTJbQ0gzXQ==

> <s_epik_cmdline>
J2VwaWtfcHl0aG9uJywgJy1waCcsICc3LjAnLCAnLXRuJywgJzgnLCAnLW1hJywgJzIwMCcsICctbWV0YWxfYmluZGluZycsICctaW1hZScsICc8aW5maWxlLm1hZT4nLCAnLW9tYWUnLCAnPG91dGZpbGUubWFlPic=

> <r_lp_tautomer_probability>
0.273662

> <r_epik_Ionization_Penalty>
0.0875285

> <r_epik_Ionization_Penalty_Charging>
0.0875254

> <r_epik_Ionization_Penalty_Neutral>
3.01536e-06

> <r_epik_State_Penalty>
0.985796

> <r_epik_Charging_Adjusted_Penalty>
1.07332

> <i_epik_Tot_Q>
0

> <i_epik_Tot_abs_Q>
0

> <r_epik_Metal_State_Penalty>
1.58101

> <b_epik_Metal_Only>
0

> <s_lp_Force_Field>
OPLS_2005

> <r_lp_Energy>
19.296

> <b_lp_Chiralities_Consistent>
1

> <s_lp_Variant>
AV-unprocessed.smi:438-7

> <Gold.Version>
5.8.1

> <Gold.Id.Protein>
6NUR|6NUR_protein|mol2

> <Gold.PLP.Fitness>
39.1868

> <Gold.PLP.PLP>
-35.0806

> <Gold.PLP.part.hbond>
-4.7168

> <Gold.PLP.part.metal>
0.0000

> <Gold.PLP.part.buried>
-3.7195

> <Gold.PLP.part.nonpolar>
-27.3233

> <Gold.PLP.part.repulsive>
0.2762

> <Gold.PLP.ligand.clash>
0.0000

> <Gold.PLP.ligand.torsion>
0.6079

> <Gold.PLP.Chemscore.Hbond>
1.7567

> <Gold.PLP.Chemscore.CHOScore>
0.0000

> <Gold.PLP.Chemscore.Metal>
0.0000

> <Gold.Chemscore.Hbonds>
donor molecule, donor type, donor heavy atom, donor atom, acceptor molecule, acceptor atom, score
      P1  H  6931  6943       L1    19  0.99
      P1  H  6934  6947       L1    19  0.53

> <Gold.PLP.Chemscore.Internal.Correction>
0.0520

> <Gold.Rescore>
     Score         DG    S(hbond)    S(metal)    S(lipo)     H(rot)  DE(clash)    DE(int)     intcor
     10.43     -13.67       0.88        0.00     107.47       2.86       0.62       2.63       ----

> <Gold.Chemscore.Fitness>
10.4292

> <Gold.Chemscore.DG>
-13.6741

> <Gold.Chemscore.ZeroCoef>
-5.4800

> <Gold.Chemscore.Hbond>
0.8843

> <Gold.Chemscore.Metal>
0.0000

> <Gold.Chemscore.Lipo>
107.4670

> <Gold.Chemscore.Internal_Hbond>
0.0000

> <Gold.Chemscore.DEClash>
0.6163

> <Gold.Chemscore.DEInternal>
2.6286

> <Gold.Chemscore.Rot>
2.8645

> <Gold.Chemscore.Internal.Correction>
   9.000000E+99

> <Gold.Chemscore.Hbonds>
donor molecule, donor type, donor heavy atom, donor atom, acceptor molecule, acceptor atom, score
      P1  H  6931  6943       L1    19  0.42
      P1  H  6934  6947       L1    19  0.32

> <Gold.Chemscore.Hbond.Weighted>
-2.9535

> <Gold.Chemscore.Metal.Weighted>
-0.0000

> <Gold.Chemscore.Lipo.Weighted>
-12.5736

> <Gold.Chemscore.Internal_Hbond.Weighted>
0.0000

> <Gold.Chemscore.DEClash.Weighted>
0.6163

> <Gold.Chemscore.DEInternal.Weighted>
2.6286

> <Gold.Chemscore.Rot.Weighted>
7.3331

> <Gold.Chemscore.Internal.Correction.Weighted>
   9.000000E+99

> <Gold.Protein.RotatedTorsions>
[ 6907 6896 6895 6894 ] final  -27.78 input  -60.11 | X-H torsion
[ 7974 7965 7964 7962 ] final  136.39 input  175.53 | X-H torsion
[ 8008 7997 7996 7995 ] final   48.87 input   59.86 | X-H torsion
[ 10167 10162 10161 10158 ] final  157.97 input  -65.29 | X-H torsion
[ 10718 10713 10712 10709 ] final -166.71 input   66.30 | X-H torsion
[ 10763 10752 10751 10750 ] final   37.57 input  -60.55 | X-H torsion
[ 11005 11000 10999 10996 ] final   78.15 input  -57.11 | X-H torsion

> <Gold.Protein.ActiveResidues>
 VAL166  LYS551  ARG553  GLY616  TRP617  ASP618  TYR619  PRO620  LYS621  CYS622 
 ASP623  PHE694  ASN695  SER759  ASP760  ASP761  ALA762  ILE779  LEU786  VAL792 
 PHE793  MET794  SER795  GLU796  ALA797  LYS798  CYS799  TRP800  GLU811  SER814 

> <Gold.Protein.RotatedAtoms>
  151.1421  135.0185  159.8629 H   0  0  0  0  0  0  0  0  0  0  0  0  # atno 6907 bound_to 6896
  152.5452  134.1487  159.8519 H   0  0  0  0  0  0  0  0  0  0  0  0  # atno 6908 bound_to 6896
  151.1564  133.4828  159.2627 H   0  0  0  0  0  0  0  0  0  0  0  0  # atno 6909 bound_to 6896
  144.9570  139.4754  143.5498 H   0  0  0  0  0  0  0  0  0  0  0  0  # atno 7974 bound_to 7965
  155.3928  140.3434  155.4252 H   0  0  0  0  0  0  0  0  0  0  0  0  # atno 8008 bound_to 7997
  156.1548  140.1582  156.8744 H   0  0  0  0  0  0  0  0  0  0  0  0  # atno 8009 bound_to 7997
  154.5084  140.0796  156.7923 H   0  0  0  0  0  0  0  0  0  0  0  0  # atno 8010 bound_to 7997
  139.4825  144.4868  151.8366 H   0  0  0  0  0  0  0  0  0  0  0  0  # atno 10167 bound_to 10162
  156.6718  130.9087  151.3045 H   0  0  0  0  0  0  0  0  0  0  0  0  # atno 10718 bound_to 10713
  153.0032  135.6274  154.2166 H   0  0  0  0  0  0  0  0  0  0  0  0  # atno 10763 bound_to 10752
  154.1909  135.2808  155.3024 H   0  0  0  0  0  0  0  0  0  0  0  0  # atno 10764 bound_to 10752
  154.5760  135.5662  153.7199 H   0  0  0  0  0  0  0  0  0  0  0  0  # atno 10765 bound_to 10752
  139.9224  134.7741  156.1613 H   0  0  0  0  0  0  0  0  0  0  0  0  # atno 11005 bound_to 11000
  146.3340  139.8694  142.8842 LP  0  0  0  0  0  0  0  0  0  0  0  0  # atno 17320 bound_to 7965
  145.2758  141.0123  143.3746 LP  0  0  0  0  0  0  0  0  0  0  0  0  # atno 17321 bound_to 7965
  140.4349  144.2066  150.5889 LP  0  0  0  0  0  0  0  0  0  0  0  0  # atno 17342 bound_to 10162
  140.4742  143.2402  151.9046 LP  0  0  0  0  0  0  0  0  0  0  0  0  # atno 17343 bound_to 10162
  157.7074  130.9401  150.0977 LP  0  0  0  0  0  0  0  0  0  0  0  0  # atno 17370 bound_to 10713
  156.1933  130.3656  149.8882 LP  0  0  0  0  0  0  0  0  0  0  0  0  # atno 17371 bound_to 10713
  141.0756  133.6777  156.2229 LP  0  0  0  0  0  0  0  0  0  0  0  0  # atno 17394 bound_to 11000
  140.6434  134.5142  157.5571 LP  0  0  0  0  0  0  0  0  0  0  0  0  # atno 17395 bound_to 11000

$$$$
