AV-unprocessed.smi:2993|AV-procd|sdf|11402|dock2
  -GOLD-   2272016323D 1   1.00000     0.00000
 Structure written by MMmdl.
 34 35  0  0  0  0  0  0  0  0  1 V2000
  152.0900  138.9930  155.2972 C   0  0  0  0  0  0  0  0  0  0  0  0
  150.8386  139.8234  155.3173 C   0  0  0  0  0  0  0  0  0  0  0  0
  150.3052  140.2175  154.1732 N   0  0  0  0  0  0  0  0  0  0  0  0
  149.1699  140.9586  154.5143 O   0  0  0  0  0  0  0  0  0  0  0  0
  149.0636  140.9836  155.8671 C   0  0  0  0  0  0  0  0  0  0  0  0
  147.9017  141.7319  156.4280 C   0  0  0  0  0  0  0  0  0  0  0  0
  150.0915  140.2848  156.4396 C   0  0  0  0  0  0  0  0  0  0  0  0
  150.3729  140.0509  157.9017 C   0  0  0  0  0  0  0  0  0  0  0  0
  151.7121  140.6866  158.2742 C   0  0  0  0  0  0  0  0  0  0  0  0
  152.7581  140.2366  157.8073 O   0  0  0  0  0  0  0  0  0  0  0  0
  151.6624  141.7265  159.1213 N   0  0  0  0  0  0  0  0  0  0  0  0
  152.8129  142.4661  159.6279 C   0  0  2  0  0  0  0  0  0  0  0  0
  152.8734  142.2896  161.1514 C   0  0  0  0  0  0  0  0  0  0  0  0
  152.7985  143.9387  159.2535 C   0  0  0  0  0  0  0  0  0  0  0  0
  151.5215  144.7460  159.2799 C   0  0  0  0  0  0  0  0  0  0  0  0
  152.1738  144.4054  157.9600 C   0  0  0  0  0  0  0  0  0  0  0  0
  152.2116  138.4350  156.2255 H   0  0  0  0  0  0  0  0  0  0  0  0
  152.9722  139.6203  155.1695 H   0  0  0  0  0  0  0  0  0  0  0  0
  152.0739  138.2699  154.4811 H   0  0  0  0  0  0  0  0  0  0  0  0
  147.7344  141.4728  157.4733 H   0  0  0  0  0  0  0  0  0  0  0  0
  146.9902  141.5024  155.8760 H   0  0  0  0  0  0  0  0  0  0  0  0
  148.0722  142.8067  156.3700 H   0  0  0  0  0  0  0  0  0  0  0  0
  149.5908  140.4778  158.5304 H   0  0  0  0  0  0  0  0  0  0  0  0
  150.3993  138.9865  158.1383 H   0  0  0  0  0  0  0  0  0  0  0  0
  150.7545  142.0227  159.4489 H   0  0  0  0  0  0  0  0  0  0  0  0
  153.7194  142.0203  159.2134 H   0  0  0  0  0  0  0  0  0  0  0  0
  153.7544  142.7776  161.5692 H   0  0  0  0  0  0  0  0  0  0  0  0
  152.9236  141.2349  161.4248 H   0  0  0  0  0  0  0  0  0  0  0  0
  151.9954  142.7181  161.6360 H   0  0  0  0  0  0  0  0  0  0  0  0
  153.7014  144.4693  159.5509 H   0  0  0  0  0  0  0  0  0  0  0  0
  150.5966  144.2292  159.5279 H   0  0  0  0  0  0  0  0  0  0  0  0
  151.5860  145.7762  159.6237 H   0  0  0  0  0  0  0  0  0  0  0  0
  152.6736  145.2087  157.4230 H   0  0  0  0  0  0  0  0  0  0  0  0
  151.6824  143.6618  157.3355 H   0  0  0  0  0  0  0  0  0  0  0  0
  1  2  1  0  0  0  0
  1 17  1  0  0  0  0
  1 18  1  0  0  0  0
  1 19  1  0  0  0  0
  2  7  1  0  0  0  0
  2  3  2  0  0  0  0
  3  4  1  0  0  0  0
  4  5  1  0  0  0  0
  5  6  1  0  0  0  0
  5  7  2  0  0  0  0
  6 20  1  0  0  0  0
  6 21  1  0  0  0  0
  6 22  1  0  0  0  0
  7  8  1  0  0  0  0
  8  9  1  0  0  0  0
  8 23  1  0  0  0  0
  8 24  1  0  0  0  0
  9 10  2  0  0  0  0
  9 11  1  0  0  0  0
 11 12  1  0  0  0  0
 11 25  1  0  0  0  0
 12 13  1  0  0  0  0
 12 14  1  0  0  0  0
 12 26  1  0  0  0  0
 13 27  1  0  0  0  0
 13 28  1  0  0  0  0
 13 29  1  0  0  0  0
 14 16  1  0  0  0  0
 14 15  1  0  0  0  0
 14 30  1  0  0  0  0
 15 16  1  0  0  0  0
 15 31  1  0  0  0  0
 15 32  1  0  0  0  0
 16 33  1  0  0  0  0
 16 34  1  0  0  0  0
M  END
> <s_m_source_file>
AV-unprocessed.smi

> <i_m_source_file_index>
2993

> <i_lp_mmshare_version>
43012

> <i_f3d_flags>
0

> <s_epik_input>
W0NIM11jMW5vYyhbQ0gzXSljMVtDSDJdQyg9TylbTkhdW0NASF0oW0NIM10pW0NIXTJbQ0gyXVtDSDJdMg==

> <s_epik_cmdline>
J2VwaWtfcHl0aG9uJywgJy1waCcsICc3LjAnLCAnLXRuJywgJzgnLCAnLW1hJywgJzIwMCcsICctbWV0YWxfYmluZGluZycsICctaW1hZScsICc8aW5maWxlLm1hZT4nLCAnLW9tYWUnLCAnPG91dGZpbGUubWFlPic=

> <r_lp_tautomer_probability>
1

> <r_epik_Ionization_Penalty>
1.92533e-08

> <r_epik_Ionization_Penalty_Charging>
0

> <r_epik_Ionization_Penalty_Neutral>
1.92533e-08

> <r_epik_State_Penalty>
-0

> <r_epik_Charging_Adjusted_Penalty>
0

> <i_epik_Tot_Q>
0

> <i_epik_Tot_abs_Q>
0

> <r_epik_Metal_State_Penalty>
-0

> <b_epik_Metal_Only>
0

> <s_lp_Force_Field>
OPLS_2005

> <r_lp_Energy>
6.61094

> <b_lp_Chiralities_Consistent>
1

> <s_lp_Variant>
AV-unprocessed.smi:2993-1

> <Gold.Version>
5.8.1

> <Gold.Id.Protein>
6NUR|6NUR_protein|mol2

> <Gold.PLP.Fitness>
42.6763

> <Gold.PLP.PLP>
-36.8504

> <Gold.PLP.part.hbond>
-2.0513

> <Gold.PLP.part.metal>
0.0000

> <Gold.PLP.part.buried>
-3.6987

> <Gold.PLP.part.nonpolar>
-30.8477

> <Gold.PLP.part.repulsive>
0.5976

> <Gold.PLP.ligand.clash>
0.0000

> <Gold.PLP.ligand.torsion>
0.5862

> <Gold.PLP.Chemscore.Hbond>
1.9760

> <Gold.PLP.Chemscore.CHOScore>
0.0000

> <Gold.PLP.Chemscore.Metal>
0.0000

> <Gold.Chemscore.Hbonds>
donor molecule, donor type, donor heavy atom, donor atom, acceptor molecule, acceptor atom, score
      P1  H  7989  7998       L1     3  1.00
      P1  H  7997  8010       L1    10  0.98

> <Gold.PLP.Chemscore.Internal.Correction>
1.0704

> <Gold.Rescore>
     Score         DG    S(hbond)    S(metal)    S(lipo)     H(rot)  DE(clash)    DE(int)     intcor
     16.82     -18.56       1.78        0.00      92.91       1.46       0.01       1.73       ----

> <Gold.Chemscore.Fitness>
16.8193

> <Gold.Chemscore.DG>
-18.5586

> <Gold.Chemscore.ZeroCoef>
-5.4800

> <Gold.Chemscore.Hbond>
1.7790

> <Gold.Chemscore.Metal>
0.0000

> <Gold.Chemscore.Lipo>
92.9086

> <Gold.Chemscore.Internal_Hbond>
0.0000

> <Gold.Chemscore.DEClash>
0.0120

> <Gold.Chemscore.DEInternal>
1.7273

> <Gold.Chemscore.Rot>
1.4584

> <Gold.Chemscore.Internal.Correction>
   9.000000E+99

> <Gold.Chemscore.Hbonds>
donor molecule, donor type, donor heavy atom, donor atom, acceptor molecule, acceptor atom, score
      P1  H  7989  7998       L1     3  0.24
      P1  H  7997  8010       L1    10  0.92

> <Gold.Chemscore.Hbond.Weighted>
-5.9417

> <Gold.Chemscore.Metal.Weighted>
-0.0000

> <Gold.Chemscore.Lipo.Weighted>
-10.8703

> <Gold.Chemscore.Internal_Hbond.Weighted>
0.0000

> <Gold.Chemscore.DEClash.Weighted>
0.0120

> <Gold.Chemscore.DEInternal.Weighted>
1.7273

> <Gold.Chemscore.Rot.Weighted>
3.7334

> <Gold.Chemscore.Internal.Correction.Weighted>
   9.000000E+99

> <Gold.Protein.RotatedTorsions>
[ 6907 6896 6895 6894 ] final -172.83 input  -60.11 | X-H torsion
[ 7974 7965 7964 7962 ] final  -93.40 input  175.53 | X-H torsion
[ 8008 7997 7996 7995 ] final   50.17 input   59.86 | X-H torsion
[ 10167 10162 10161 10158 ] final   51.03 input  -65.29 | X-H torsion
[ 10718 10713 10712 10709 ] final  142.85 input   66.30 | X-H torsion
[ 10763 10752 10751 10750 ] final -105.52 input  -60.55 | X-H torsion
[ 11005 11000 10999 10996 ] final   94.06 input  -57.11 | X-H torsion

> <Gold.Protein.ActiveResidues>
 VAL166  LYS551  ARG553  GLY616  TRP617  ASP618  TYR619  PRO620  LYS621  CYS622 
 ASP623  PHE694  ASN695  SER759  ASP760  ASP761  ALA762  ILE779  LEU786  VAL792 
 PHE793  MET794  SER795  GLU796  ALA797  LYS798  CYS799  TRP800  GLU811  SER814 

> <Gold.Protein.RotatedAtoms>
  151.5463  133.3424  159.2944 H   0  0  0  0  0  0  0  0  0  0  0  0  # atno 6907 bound_to 6896
  150.8505  134.7831  159.7016 H   0  0  0  0  0  0  0  0  0  0  0  0  # atno 6908 bound_to 6896
  152.4553  134.5314  159.9863 H   0  0  0  0  0  0  0  0  0  0  0  0  # atno 6909 bound_to 6896
  145.3870  140.9524  143.2361 H   0  0  0  0  0  0  0  0  0  0  0  0  # atno 7974 bound_to 7965
  155.4144  140.3443  155.4266 H   0  0  0  0  0  0  0  0  0  0  0  0  # atno 8008 bound_to 7997
  156.1430  140.1548  156.8922 H   0  0  0  0  0  0  0  0  0  0  0  0  # atno 8009 bound_to 7997
  154.4987  140.0821  156.7732 H   0  0  0  0  0  0  0  0  0  0  0  0  # atno 8010 bound_to 7997
  140.2662  144.3317  150.6303 H   0  0  0  0  0  0  0  0  0  0  0  0  # atno 10167 bound_to 10162
  157.3757  131.0985  151.0786 H   0  0  0  0  0  0  0  0  0  0  0  0  # atno 10718 bound_to 10713
  154.7952  135.4746  154.0144 H   0  0  0  0  0  0  0  0  0  0  0  0  # atno 10763 bound_to 10752
  153.1692  135.6822  153.8639 H   0  0  0  0  0  0  0  0  0  0  0  0  # atno 10764 bound_to 10752
  153.8227  135.3202  155.3389 H   0  0  0  0  0  0  0  0  0  0  0  0  # atno 10765 bound_to 10752
  139.8802  134.8825  156.3810 H   0  0  0  0  0  0  0  0  0  0  0  0  # atno 11005 bound_to 11000
  144.8467  139.5386  143.6875 LP  0  0  0  0  0  0  0  0  0  0  0  0  # atno 17320 bound_to 7965
  146.2815  139.6890  142.9225 LP  0  0  0  0  0  0  0  0  0  0  0  0  # atno 17321 bound_to 7965
  140.5926  143.2167  151.7224 LP  0  0  0  0  0  0  0  0  0  0  0  0  # atno 17342 bound_to 10162
  139.5002  144.3915  152.0274 LP  0  0  0  0  0  0  0  0  0  0  0  0  # atno 17343 bound_to 10162
  157.1873  130.6336  149.5692 LP  0  0  0  0  0  0  0  0  0  0  0  0  # atno 17370 bound_to 10713
  155.9765  130.4733  150.6531 LP  0  0  0  0  0  0  0  0  0  0  0  0  # atno 17371 bound_to 10713
  140.9399  133.7522  156.0133 LP  0  0  0  0  0  0  0  0  0  0  0  0  # atno 17394 bound_to 11000
  140.8232  134.3265  157.5374 LP  0  0  0  0  0  0  0  0  0  0  0  0  # atno 17395 bound_to 11000

$$$$
