AV-unprocessed.smi:2563|AV-procd|sdf|10058|dock3
  -GOLD-   2272014 93D 1   1.00000     0.00000
 Structure written by MMmdl.
 36 37  0  0  0  0  0  0  0  0  3 V2000
  152.0515  139.4360  155.6800 C   0  0  0  0  0  0  0  0  0  0  0  0
  151.0115  139.8041  156.7465 C   0  0  0  0  0  0  0  0  0  0  0  0
  150.5642  141.1902  156.6282 N   0  0  0  0  0  0  0  0  0  0  0  0
  149.7294  141.5661  155.4857 C   0  0  0  0  0  0  0  0  0  0  0  0
  148.7456  140.4528  155.0805 C   0  0  2  0  0  0  0  0  0  0  0  0
  149.4312  139.3765  154.2150 C   0  0  0  0  0  0  0  0  0  0  0  0
  148.4466  138.3680  153.7751 N   0  3  0  0  0  0  0  0  0  0  0  0
  147.3037  138.9907  153.0797 C   0  0  0  0  0  0  0  0  0  0  0  0
  146.6847  140.0881  153.9609 C   0  0  0  0  0  0  0  0  0  0  0  0
  147.6895  141.0321  154.3174 O   0  0  0  0  0  0  0  0  0  0  0  0
  150.9530  142.1558  157.5878 C   0  0  0  0  0  0  0  0  0  0  0  0
  151.8108  141.8646  158.6772 C   0  0  0  0  0  0  0  0  0  0  0  0
  152.1350  142.8916  159.5797 C   0  0  0  0  0  0  0  0  0  0  0  0
  151.5836  144.1620  159.3460 C   0  0  0  0  0  0  0  0  0  0  0  0
  150.7674  144.4308  158.3046 N   0  0  0  0  0  0  0  0  0  0  0  0
  150.4795  143.4261  157.4600 N   0  3  0  0  0  0  0  0  0  0  0  0
  152.3510  138.3926  155.7787 H   0  0  0  0  0  0  0  0  0  0  0  0
  152.9499  140.0472  155.7683 H   0  0  0  0  0  0  0  0  0  0  0  0
  151.6531  139.5713  154.6740 H   0  0  0  0  0  0  0  0  0  0  0  0
  150.1475  139.1489  156.6325 H   0  0  0  0  0  0  0  0  0  0  0  0
  151.3937  139.6036  157.7472 H   0  0  0  0  0  0  0  0  0  0  0  0
  149.2029  142.5046  155.6600 H   0  0  0  0  0  0  0  0  0  0  0  0
  150.3985  141.7651  154.6479 H   0  0  0  0  0  0  0  0  0  0  0  0
  148.3357  139.9856  155.9779 H   0  0  0  0  0  0  0  0  0  0  0  0
  149.8937  139.8303  153.3371 H   0  0  0  0  0  0  0  0  0  0  0  0
  150.2234  138.8784  154.7746 H   0  0  0  0  0  0  0  0  0  0  0  0
  148.8942  137.7061  153.1566 H   0  0  0  0  0  0  0  0  0  0  0  0
  147.6468  139.4146  152.1351 H   0  0  0  0  0  0  0  0  0  0  0  0
  146.5645  138.2259  152.8407 H   0  0  0  0  0  0  0  0  0  0  0  0
  145.8914  140.6028  153.4185 H   0  0  0  0  0  0  0  0  0  0  0  0
  146.2332  139.6628  154.8586 H   0  0  0  0  0  0  0  0  0  0  0  0
  152.2297  140.8825  158.8339 H   0  0  0  0  0  0  0  0  0  0  0  0
  152.7863  142.7121  160.4225 H   0  0  0  0  0  0  0  0  0  0  0  0
  151.8022  144.9854  160.0103 H   0  0  0  0  0  0  0  0  0  0  0  0
  148.1017  137.8761  154.5872 H   0  0  0  0  0  0  0  0  0  0  0  0
  149.8617  143.6264  156.6734 H   0  0  0  0  0  0  0  0  0  0  0  0
  1  2  1  0  0  0  0
  1 17  1  0  0  0  0
  1 18  1  0  0  0  0
  1 19  1  0  0  0  0
  2  3  1  0  0  0  0
  2 20  1  0  0  0  0
  2 21  1  0  0  0  0
  3  4  1  0  0  0  0
  3 11  1  0  0  0  0
  4  5  1  0  0  0  0
  4 22  1  0  0  0  0
  4 23  1  0  0  0  0
  5 10  1  0  0  0  0
  5  6  1  0  0  0  0
  5 24  1  0  0  0  0
  6  7  1  0  0  0  0
  6 25  1  0  0  0  0
  6 26  1  0  0  0  0
  7  8  1  0  0  0  0
  7 27  1  0  0  0  0
  7 35  1  0  0  0  0
  8  9  1  0  0  0  0
  8 28  1  0  0  0  0
  8 29  1  0  0  0  0
  9 10  1  0  0  0  0
  9 30  1  0  0  0  0
  9 31  1  0  0  0  0
 11 16  1  0  0  0  0
 11 12  2  0  0  0  0
 12 13  1  0  0  0  0
 12 32  1  0  0  0  0
 13 14  2  0  0  0  0
 13 33  1  0  0  0  0
 14 15  1  0  0  0  0
 14 34  1  0  0  0  0
 15 16  2  0  0  0  0
 16 36  1  0  0  0  0
M  CHG  1   7   1
M  CHG  1  16   1
M  END
> <s_m_source_file>
AV-unprocessed.smi

> <i_m_source_file_index>
2563

> <i_lp_mmshare_version>
43012

> <i_f3d_flags>
0

> <s_epik_input>
bjFuW2NIXVtjSF1bY0hdYzFOKFtDSDJdW0NIM10pW0NIMl1bQ0BASF0yW0NIMl1bTkhdW0NIMl1bQ0gyXU8y

> <s_epik_cmdline>
J2VwaWtfcHl0aG9uJywgJy1waCcsICc3LjAnLCAnLXRuJywgJzgnLCAnLW1hJywgJzIwMCcsICctbWV0YWxfYmluZGluZycsICctaW1hZScsICc8aW5maWxlLm1hZT4nLCAnLW9tYWUnLCAnPG91dGZpbGUubWFlPic=

> <r_lp_tautomer_probability>
0.966961

> <r_epik_Ionization_Penalty>
1.93862

> <r_epik_Ionization_Penalty_Charging>
1.93862

> <r_epik_Ionization_Penalty_Neutral>
1.19718e-14

> <r_epik_State_Penalty>
1.51688

> <r_epik_Charging_Adjusted_Penalty>
3.4555

> <i_epik_Tot_Q>
2

> <i_epik_Tot_abs_Q>
2

> <r_epik_Metal_State_Penalty>
1.53359

> <b_epik_Metal_Only>
0

> <s_lp_Force_Field>
OPLS_2005

> <r_lp_Energy>
32.8906

> <b_lp_Chiralities_Consistent>
1

> <s_lp_Variant>
AV-unprocessed.smi:2563-3

> <Gold.Version>
5.8.1

> <Gold.Id.Protein>
6NUR|6NUR_protein|mol2

> <Gold.PLP.Fitness>
43.4171

> <Gold.PLP.PLP>
-32.6914

> <Gold.PLP.part.hbond>
-2.3797

> <Gold.PLP.part.metal>
0.0000

> <Gold.PLP.part.buried>
-2.2709

> <Gold.PLP.part.nonpolar>
-28.3977

> <Gold.PLP.part.repulsive>
0.3314

> <Gold.PLP.ligand.clash>
0.0000

> <Gold.PLP.ligand.torsion>
0.6495

> <Gold.PLP.Chemscore.Hbond>
4.0000

> <Gold.PLP.Chemscore.CHOScore>
0.0000

> <Gold.PLP.Chemscore.Metal>
0.0000

> <Gold.Chemscore.Hbonds>
donor molecule, donor type, donor heavy atom, donor atom, acceptor molecule, acceptor atom, score
      L1  H     7    27       P1  7948  2.00
      L1  H    16    36       P1  8028  2.00

> <Gold.PLP.Chemscore.Internal.Correction>
0.0248

> <Gold.Rescore>
     Score         DG    S(hbond)    S(metal)    S(lipo)     H(rot)  DE(clash)    DE(int)     intcor
     15.71     -17.20       1.93        0.00      76.43       1.44       0.23       1.25       ----

> <Gold.Chemscore.Fitness>
15.7145

> <Gold.Chemscore.DG>
-17.1985

> <Gold.Chemscore.ZeroCoef>
-5.4800

> <Gold.Chemscore.Hbond>
1.9335

> <Gold.Chemscore.Metal>
0.0000

> <Gold.Chemscore.Lipo>
76.4347

> <Gold.Chemscore.Internal_Hbond>
0.0000

> <Gold.Chemscore.DEClash>
0.2343

> <Gold.Chemscore.DEInternal>
1.2498

> <Gold.Chemscore.Rot>
1.4384

> <Gold.Chemscore.Internal.Correction>
   9.000000E+99

> <Gold.Chemscore.Hbonds>
donor molecule, donor type, donor heavy atom, donor atom, acceptor molecule, acceptor atom, score
      L1  H     7    27       P1  7948  0.98
      L1  H    16    36       P1  8028  0.96

> <Gold.Chemscore.Hbond.Weighted>
-6.4579

> <Gold.Chemscore.Metal.Weighted>
-0.0000

> <Gold.Chemscore.Lipo.Weighted>
-8.9429

> <Gold.Chemscore.Internal_Hbond.Weighted>
0.0000

> <Gold.Chemscore.DEClash.Weighted>
0.2343

> <Gold.Chemscore.DEInternal.Weighted>
1.2498

> <Gold.Chemscore.Rot.Weighted>
3.6822

> <Gold.Chemscore.Internal.Correction.Weighted>
   9.000000E+99

> <Gold.Protein.RotatedTorsions>
[ 6907 6896 6895 6894 ] final -129.15 input  -60.11 | X-H torsion
[ 7974 7965 7964 7962 ] final  -27.73 input  175.53 | X-H torsion
[ 8008 7997 7996 7995 ] final  100.03 input   59.86 | X-H torsion
[ 10167 10162 10161 10158 ] final -152.89 input  -65.29 | X-H torsion
[ 10718 10713 10712 10709 ] final -169.64 input   66.30 | X-H torsion
[ 10763 10752 10751 10750 ] final   53.85 input  -60.55 | X-H torsion
[ 11005 11000 10999 10996 ] final  169.88 input  -57.11 | X-H torsion

> <Gold.Protein.ActiveResidues>
 VAL166  LYS551  ARG553  GLY616  TRP617  ASP618  TYR619  PRO620  LYS621  CYS622 
 ASP623  PHE694  ASN695  SER759  ASP760  ASP761  ALA762  ILE779  LEU786  VAL792 
 PHE793  MET794  SER795  GLU796  ALA797  LYS798  CYS799  TRP800  GLU811  SER814 

> <Gold.Protein.RotatedAtoms>
  150.9256  133.6828  159.2821 H   0  0  0  0  0  0  0  0  0  0  0  0  # atno 6907 bound_to 6896
  151.4267  135.1003  159.9640 H   0  0  0  0  0  0  0  0  0  0  0  0  # atno 6908 bound_to 6896
  152.5001  133.8695  159.7346 H   0  0  0  0  0  0  0  0  0  0  0  0  # atno 6909 bound_to 6896
  146.1338  140.5190  142.8682 H   0  0  0  0  0  0  0  0  0  0  0  0  # atno 7974 bound_to 7965
  156.1163  140.3219  155.8144 H   0  0  0  0  0  0  0  0  0  0  0  0  # atno 8008 bound_to 7997
  155.4584  140.0537  157.3011 H   0  0  0  0  0  0  0  0  0  0  0  0  # atno 8009 bound_to 7997
  154.4795  140.2047  155.9811 H   0  0  0  0  0  0  0  0  0  0  0  0  # atno 8010 bound_to 7997
  139.7143  143.9059  152.2480 H   0  0  0  0  0  0  0  0  0  0  0  0  # atno 10167 bound_to 10162
  156.7144  130.9246  151.3092 H   0  0  0  0  0  0  0  0  0  0  0  0  # atno 10718 bound_to 10713
  152.9799  135.5765  154.4808 H   0  0  0  0  0  0  0  0  0  0  0  0  # atno 10763 bound_to 10752
  154.4357  135.2774  155.1884 H   0  0  0  0  0  0  0  0  0  0  0  0  # atno 10764 bound_to 10752
  154.3573  135.6196  153.5727 H   0  0  0  0  0  0  0  0  0  0  0  0  # atno 10765 bound_to 10752
  140.3025  134.7584  157.3927 H   0  0  0  0  0  0  0  0  0  0  0  0  # atno 11005 bound_to 11000
  144.7718  140.5653  143.6665 LP  0  0  0  0  0  0  0  0  0  0  0  0  # atno 17320 bound_to 7965
  145.5202  139.1477  143.3556 LP  0  0  0  0  0  0  0  0  0  0  0  0  # atno 17321 bound_to 7965
  139.8937  144.6951  150.8742 LP  0  0  0  0  0  0  0  0  0  0  0  0  # atno 17342 bound_to 10162
  140.7740  143.3567  151.1908 LP  0  0  0  0  0  0  0  0  0  0  0  0  # atno 17343 bound_to 10162
  157.6923  130.9246  150.0547 LP  0  0  0  0  0  0  0  0  0  0  0  0  # atno 17370 bound_to 10713
  156.1638  130.3644  149.9261 LP  0  0  0  0  0  0  0  0  0  0  0  0  # atno 17371 bound_to 10713
  140.1097  134.5362  155.8277 LP  0  0  0  0  0  0  0  0  0  0  0  0  # atno 17394 bound_to 11000
  141.2125  133.6720  156.6665 LP  0  0  0  0  0  0  0  0  0  0  0  0  # atno 17395 bound_to 11000

$$$$
