AV-unprocessed.smi:72|AV-procd|sdf|672|dock8
  -GOLD-   2262016573D 1   1.00000     0.00000
 Structure written by MMmdl.
 29 30  0  0  0  0  0  0  0  0  1 V2000
  148.5343  136.7611  160.8376 N   0  0  0  0  0  0  0  0  0  0  0  0
  148.7512  136.9045  159.5787 C   0  0  0  0  0  0  0  0  0  0  0  0
  148.8391  138.1313  158.9053 N   0  0  0  0  0  0  0  0  0  0  0  0
  149.0966  138.1263  157.6340 C   0  0  0  0  0  0  0  0  0  0  0  0
  149.3451  136.8965  156.8894 N   0  0  0  0  0  0  0  0  0  0  0  0
  149.5976  136.8755  155.3864 C   0  0  1  0  0  0  0  0  0  0  0  0
  148.4817  137.4075  154.7461 O   0  0  0  0  0  0  0  0  0  0  0  0
  148.7026  138.7921  154.5252 C   0  0  2  0  0  0  0  0  0  0  0  0
  147.7599  139.3261  153.4313 C   0  0  0  0  0  0  0  0  0  0  0  0
  147.6972  138.4638  152.3136 O   0  0  0  0  0  0  0  0  0  0  0  0
  150.2156  138.9347  154.2723 C   0  0  1  0  0  0  0  0  0  0  0  0
  150.6992  140.1054  154.9004 O   0  0  0  0  0  0  0  0  0  0  0  0
  150.8276  137.6858  154.9201 C   0  0  2  0  0  0  0  0  0  0  0  0
  151.5768  136.9599  153.9664 O   0  0  0  0  0  0  0  0  0  0  0  0
  149.1670  135.6494  157.5425 C   0  0  0  0  0  0  0  0  0  0  0  0
  149.2596  134.5720  156.9545 O   0  0  0  0  0  0  0  0  0  0  0  0
  148.8966  135.7094  158.8644 N   0  0  0  0  0  0  0  0  0  0  0  0
  149.7077  135.8199  155.1334 H   0  0  0  0  0  0  0  0  0  0  0  0
  148.4401  139.2894  155.4607 H   0  0  0  0  0  0  0  0  0  0  0  0
  150.4493  138.9766  153.2080 H   0  0  0  0  0  0  0  0  0  0  0  0
  151.5027  137.9019  155.7477 H   0  0  0  0  0  0  0  0  0  0  0  0
  148.5084  135.7825  161.0848 H   0  0  0  0  0  0  0  0  0  0  0  0
  149.1331  139.0446  157.0500 H   0  0  0  0  0  0  0  0  0  0  0  0
  146.7571  139.4774  153.8313 H   0  0  0  0  0  0  0  0  0  0  0  0
  148.1146  140.2972  153.0847 H   0  0  0  0  0  0  0  0  0  0  0  0
  148.2175  137.6962  152.4959 H   0  0  0  0  0  0  0  0  0  0  0  0
  151.0274  139.8707  155.7551 H   0  0  0  0  0  0  0  0  0  0  0  0
  151.0612  136.8765  153.1788 H   0  0  0  0  0  0  0  0  0  0  0  0
  148.7851  134.8347  159.3557 H   0  0  0  0  0  0  0  0  0  0  0  0
  1  2  2  0  0  0  0
  1 22  1  0  0  0  0
  2 17  1  0  0  0  0
  2  3  1  0  0  0  0
  3  4  2  0  0  0  0
  4  5  1  0  0  0  0
  4 23  1  0  0  0  0
  5  6  1  0  0  0  0
  5 15  1  0  0  0  0
  6 18  1  0  0  0  0
  6 13  1  0  0  0  0
  6  7  1  0  0  0  0
  7  8  1  0  0  0  0
  8 19  1  0  0  0  0
  8  9  1  0  0  0  0
  8 11  1  0  0  0  0
  9 10  1  0  0  0  0
  9 24  1  0  0  0  0
  9 25  1  0  0  0  0
 10 26  1  0  0  0  0
 11 20  1  0  0  0  0
 11 12  1  0  0  0  0
 11 13  1  0  0  0  0
 12 27  1  0  0  0  0
 13 21  1  0  0  0  0
 13 14  1  0  0  0  0
 14 28  1  0  0  0  0
 15 16  2  0  0  0  0
 15 17  1  0  0  0  0
 17 29  1  0  0  0  0
M  END
> <s_m_source_file>
AV-unprocessed.smi

> <i_m_source_file_index>
72

> <i_lp_mmshare_version>
43012

> <i_f3d_flags>
0

> <s_epik_input>
W05IMl1jMW5bY0hdbihjKD1PKW4xKVtDQEBIXTJPW0NASF0oW0NIMl1bT0hdKVtDQEBIXShbT0hdKVtDQEhdMltPSF0=

> <s_epik_cmdline>
J2VwaWtfcHl0aG9uJywgJy1waCcsICc3LjAnLCAnLXRuJywgJzgnLCAnLW1hJywgJzIwMCcsICctbWV0YWxfYmluZGluZycsICctaW1hZScsICc8aW5maWxlLm1hZT4nLCAnLW9tYWUnLCAnPG91dGZpbGUubWFlPic=

> <r_lp_tautomer_probability>
7.17554e-07

> <r_epik_Ionization_Penalty>
0.0066451

> <r_epik_Ionization_Penalty_Charging>
0.00663793

> <r_epik_Ionization_Penalty_Neutral>
7.17052e-06

> <r_epik_State_Penalty>
0.419231

> <r_epik_Charging_Adjusted_Penalty>
0.425868

> <i_epik_Tot_Q>
0

> <i_epik_Tot_abs_Q>
0

> <r_epik_Metal_State_Penalty>
1.44144

> <b_epik_Metal_Only>
0

> <s_epik_Chemistry_Notes>
This compound contains an acetal/aminal-like group ( X-CH(R)-Y where X, Y are N, S, or O) that may be acid/base labile, releasing an aldehyde.

> <s_lp_Force_Field>
OPLS_2005

> <r_lp_Energy>
39.4446

> <b_lp_Chiralities_Consistent>
1

> <s_lp_Variant>
AV-unprocessed.smi:72-10

> <Gold.Version>
5.8.1

> <Gold.Id.Protein>
6NUR|6NUR_protein|mol2

> <Gold.PLP.Fitness>
35.1818

> <Gold.PLP.PLP>
-21.3498

> <Gold.PLP.part.hbond>
-6.8300

> <Gold.PLP.part.metal>
0.0000

> <Gold.PLP.part.buried>
-4.4856

> <Gold.PLP.part.nonpolar>
-10.9823

> <Gold.PLP.part.repulsive>
0.2558

> <Gold.PLP.ligand.clash>
0.0000

> <Gold.PLP.ligand.torsion>
0.1911

> <Gold.PLP.Chemscore.Hbond>
4.7120

> <Gold.PLP.Chemscore.CHOScore>
0.0000

> <Gold.PLP.Chemscore.Metal>
0.0000

> <Gold.Chemscore.Hbonds>
donor molecule, donor type, donor heavy atom, donor atom, acceptor molecule, acceptor atom, score
      L1  H    10    26       P1  7948  0.91
      L1  H    14    28       P1  7949  0.77
      P1  H  6931  6943       L1     1  1.00
      P1  H  7989  7998       L1    12  1.00
      P1  H 10752 10764       L1    14  1.00

> <Gold.PLP.Chemscore.Internal.Correction>
0.0781

> <Gold.Rescore>
     Score         DG    S(hbond)    S(metal)    S(lipo)     H(rot)  DE(clash)    DE(int)     intcor
     10.17     -10.55       3.74        0.00      25.29       4.06       0.18       0.21       ----

> <Gold.Chemscore.Fitness>
10.1671

> <Gold.Chemscore.DG>
-10.5489

> <Gold.Chemscore.ZeroCoef>
-5.4800

> <Gold.Chemscore.Hbond>
3.7436

> <Gold.Chemscore.Metal>
0.0000

> <Gold.Chemscore.Lipo>
25.2884

> <Gold.Chemscore.Internal_Hbond>
0.0000

> <Gold.Chemscore.DEClash>
0.1762

> <Gold.Chemscore.DEInternal>
0.2056

> <Gold.Chemscore.Rot>
4.0600

> <Gold.Chemscore.Internal.Correction>
   9.000000E+99

> <Gold.Chemscore.Hbonds>
donor molecule, donor type, donor heavy atom, donor atom, acceptor molecule, acceptor atom, score
      L1  H    10    26       P1  7948  0.90
      L1  H    14    28       P1  7949  0.26
      P1  H  6931  6943       L1     1  0.85
      P1  H  7989  7998       L1    12  0.26
      P1  H 10752 10764       L1    14  0.77

> <Gold.Chemscore.Hbond.Weighted>
-12.5037

> <Gold.Chemscore.Metal.Weighted>
-0.0000

> <Gold.Chemscore.Lipo.Weighted>
-2.9587

> <Gold.Chemscore.Internal_Hbond.Weighted>
0.0000

> <Gold.Chemscore.DEClash.Weighted>
0.1762

> <Gold.Chemscore.DEInternal.Weighted>
0.2056

> <Gold.Chemscore.Rot.Weighted>
10.3936

> <Gold.Chemscore.Internal.Correction.Weighted>
   9.000000E+99

> <Gold.Protein.RotatedTorsions>
[ 6907 6896 6895 6894 ] final  119.28 input  -60.11 | X-H torsion
[ 7974 7965 7964 7962 ] final  -80.47 input  175.53 | X-H torsion
[ 8008 7997 7996 7995 ] final  -35.69 input   59.86 | X-H torsion
[ 10167 10162 10161 10158 ] final  152.71 input  -65.29 | X-H torsion
[ 10718 10713 10712 10709 ] final -169.10 input   66.30 | X-H torsion
[ 10763 10752 10751 10750 ] final  -97.81 input  -60.55 | X-H torsion
[ 11005 11000 10999 10996 ] final   34.85 input  -57.11 | X-H torsion

> <Gold.Protein.ActiveResidues>
 VAL166  LYS551  ARG553  GLY616  TRP617  ASP618  TYR619  PRO620  LYS621  CYS622 
 ASP623  PHE694  ASN695  SER759  ASP760  ASP761  ALA762  ILE779  LEU786  VAL792 
 PHE793  MET794  SER795  GLU796  ALA797  LYS798  CYS799  TRP800  GLU811  SER814 

> <Gold.Protein.RotatedAtoms>
  152.4483  133.7579  159.6729 H   0  0  0  0  0  0  0  0  0  0  0  0  # atno 6907 bound_to 6896
  150.8388  133.7959  159.3075 H   0  0  0  0  0  0  0  0  0  0  0  0  # atno 6908 bound_to 6896
  151.5591  135.1068  160.0020 H   0  0  0  0  0  0  0  0  0  0  0  0  # atno 6909 bound_to 6896
  145.5594  140.9484  143.1455 H   0  0  0  0  0  0  0  0  0  0  0  0  # atno 7974 bound_to 7965
  154.4090  140.1650  156.2252 H   0  0  0  0  0  0  0  0  0  0  0  0  # atno 8008 bound_to 7997
  155.9330  140.3413  155.6241 H   0  0  0  0  0  0  0  0  0  0  0  0  # atno 8009 bound_to 7997
  155.7083  140.0753  157.2372 H   0  0  0  0  0  0  0  0  0  0  0  0  # atno 8010 bound_to 7997
  139.4831  144.5335  151.7684 H   0  0  0  0  0  0  0  0  0  0  0  0  # atno 10167 bound_to 10162
  156.7066  130.9217  151.3085 H   0  0  0  0  0  0  0  0  0  0  0  0  # atno 10718 bound_to 10713
  154.7361  135.5032  153.9043 H   0  0  0  0  0  0  0  0  0  0  0  0  # atno 10763 bound_to 10752
  153.0996  135.6681  153.9706 H   0  0  0  0  0  0  0  0  0  0  0  0  # atno 10764 bound_to 10752
  153.9495  135.3059  155.3418 H   0  0  0  0  0  0  0  0  0  0  0  0  # atno 10765 bound_to 10752
  140.2486  134.3330  155.7898 H   0  0  0  0  0  0  0  0  0  0  0  0  # atno 11005 bound_to 11000
  144.7490  139.7243  143.7281 LP  0  0  0  0  0  0  0  0  0  0  0  0  # atno 17320 bound_to 7965
  146.1861  139.5078  142.9835 LP  0  0  0  0  0  0  0  0  0  0  0  0  # atno 17321 bound_to 7965
  140.4864  144.1374  150.5942 LP  0  0  0  0  0  0  0  0  0  0  0  0  # atno 17342 bound_to 10162
  140.4220  143.2607  151.9703 LP  0  0  0  0  0  0  0  0  0  0  0  0  # atno 17343 bound_to 10162
  157.6952  130.9275  150.0625 LP  0  0  0  0  0  0  0  0  0  0  0  0  # atno 17370 bound_to 10713
  156.1690  130.3646  149.9191 LP  0  0  0  0  0  0  0  0  0  0  0  0  # atno 17371 bound_to 10713
  141.2203  133.7340  156.9000 LP  0  0  0  0  0  0  0  0  0  0  0  0  # atno 17394 bound_to 11000
  140.1581  134.9184  157.2679 LP  0  0  0  0  0  0  0  0  0  0  0  0  # atno 17395 bound_to 11000

$$$$
