AV-unprocessed.smi:2183|AV-procd|sdf|8865|dock5
  -GOLD-   2272012 63D 1   1.00000     0.00000
 Structure written by MMmdl.
 40 42  0  0  0  0  0  0  0  0  1 V2000
  150.1081  140.3330  154.0924 O   0  0  0  0  0  0  0  0  0  0  0  0
  150.5890  139.5616  155.1716 C   0  0  0  0  0  0  0  0  0  0  0  0
  151.0600  140.3983  156.3222 C   0  0  0  0  0  0  0  0  0  0  0  0
  150.9880  141.7297  156.2919 N   0  0  0  0  0  0  0  0  0  0  0  0
  151.4928  142.0913  157.5251 C   0  0  0  0  0  0  0  0  0  0  0  0
  151.6749  143.3674  158.1044 C   0  0  0  0  0  0  0  0  0  0  0  0
  152.2100  143.4917  159.4035 C   0  0  0  0  0  0  0  0  0  0  0  0
  152.5690  142.3445  160.1401 C   0  0  0  0  0  0  0  0  0  0  0  0
  152.3972  141.0637  159.5806 C   0  0  0  0  0  0  0  0  0  0  0  0
  151.8654  140.9451  158.2823 C   0  0  0  0  0  0  0  0  0  0  0  0
  151.5794  139.8614  157.4569 N   0  0  0  0  0  0  0  0  0  0  0  0
  151.7896  138.4581  157.7929 C   0  0  0  0  0  0  0  0  0  0  0  0
  152.8320  137.7758  156.8835 C   0  0  2  0  0  0  0  0  0  0  0  0
  152.3057  136.5717  156.3639 O   0  0  0  0  0  0  0  0  0  0  0  0
  154.1353  137.4545  157.6285 C   0  0  0  0  0  0  0  0  0  0  0  0
  154.3914  138.4888  158.5692 O   0  0  0  0  0  0  0  0  0  0  0  0
  154.3843  138.1695  159.9095 C   0  0  0  0  0  0  0  0  0  0  0  0
  154.7713  139.1841  160.8093 C   0  0  0  0  0  0  0  0  0  0  0  0
  154.7952  138.9467  162.1970 C   0  0  0  0  0  0  0  0  0  0  0  0
  154.4292  137.6846  162.7006 C   0  0  0  0  0  0  0  0  0  0  0  0
  154.4569  137.3904  164.4002 Cl  0  0  0  0  0  0  0  0  0  0  0  0
  154.0408  136.6628  161.8141 C   0  0  0  0  0  0  0  0  0  0  0  0
  154.0171  136.9009  160.4260 C   0  0  0  0  0  0  0  0  0  0  0  0
  149.4635  140.9404  154.4210 H   0  0  0  0  0  0  0  0  0  0  0  0
  149.7860  138.9056  155.5095 H   0  0  0  0  0  0  0  0  0  0  0  0
  151.3948  138.9112  154.8313 H   0  0  0  0  0  0  0  0  0  0  0  0
  151.4006  144.2520  157.5493 H   0  0  0  0  0  0  0  0  0  0  0  0
  152.3443  144.4719  159.8370 H   0  0  0  0  0  0  0  0  0  0  0  0
  152.9761  142.4482  161.1352 H   0  0  0  0  0  0  0  0  0  0  0  0
  152.6704  140.1835  160.1433 H   0  0  0  0  0  0  0  0  0  0  0  0
  152.1170  138.4134  158.8322 H   0  0  0  0  0  0  0  0  0  0  0  0
  150.8452  137.9174  157.7520 H   0  0  0  0  0  0  0  0  0  0  0  0
  153.0629  138.4207  156.0352 H   0  0  0  0  0  0  0  0  0  0  0  0
  151.5195  136.7727  155.8792 H   0  0  0  0  0  0  0  0  0  0  0  0
  154.0524  136.4874  158.1273 H   0  0  0  0  0  0  0  0  0  0  0  0
  154.9617  137.4003  156.9174 H   0  0  0  0  0  0  0  0  0  0  0  0
  155.0535  140.1558  160.4309 H   0  0  0  0  0  0  0  0  0  0  0  0
  155.0945  139.7344  162.8727 H   0  0  0  0  0  0  0  0  0  0  0  0
  153.7595  135.6931  162.1975 H   0  0  0  0  0  0  0  0  0  0  0  0
  153.7139  136.0926  159.7783 H   0  0  0  0  0  0  0  0  0  0  0  0
  1  2  1  0  0  0  0
  1 24  1  0  0  0  0
  2  3  1  0  0  0  0
  2 25  1  0  0  0  0
  2 26  1  0  0  0  0
  3 11  1  0  0  0  0
  3  4  2  0  0  0  0
  4  5  1  0  0  0  0
  5 10  2  0  0  0  0
  5  6  1  0  0  0  0
  6  7  2  0  0  0  0
  6 27  1  0  0  0  0
  7  8  1  0  0  0  0
  7 28  1  0  0  0  0
  8  9  2  0  0  0  0
  8 29  1  0  0  0  0
  9 10  1  0  0  0  0
  9 30  1  0  0  0  0
 10 11  1  0  0  0  0
 11 12  1  0  0  0  0
 12 13  1  0  0  0  0
 12 31  1  0  0  0  0
 12 32  1  0  0  0  0
 13 14  1  0  0  0  0
 13 15  1  0  0  0  0
 13 33  1  0  0  0  0
 14 34  1  0  0  0  0
 15 16  1  0  0  0  0
 15 35  1  0  0  0  0
 15 36  1  0  0  0  0
 16 17  1  0  0  0  0
 17 23  1  0  0  0  0
 17 18  2  0  0  0  0
 18 19  1  0  0  0  0
 18 37  1  0  0  0  0
 19 20  2  0  0  0  0
 19 38  1  0  0  0  0
 20 21  1  0  0  0  0
 20 22  1  0  0  0  0
 22 23  2  0  0  0  0
 22 39  1  0  0  0  0
 23 40  1  0  0  0  0
M  END
> <s_m_source_file>
AV-unprocessed.smi

> <i_m_source_file_index>
2183

> <i_lp_mmshare_version>
43012

> <i_f3d_flags>
0

> <s_epik_input>
W2NIXTFbY0hdW2NIXVtjSF1jKGMxMiluKGMobjIpW0NIMl1bT0hdKVtDSDJdW0NASF0oW09IXSlbQ0gyXU9jM1tjSF1bY0hdYyhDbClbY0hdW2NIXTM=

> <s_epik_cmdline>
J2VwaWtfcHl0aG9uJywgJy1waCcsICc3LjAnLCAnLXRuJywgJzgnLCAnLW1hJywgJzIwMCcsICctbWV0YWxfYmluZGluZycsICctaW1hZScsICc8aW5maWxlLm1hZT4nLCAnLW9tYWUnLCAnPG91dGZpbGUubWFlPic=

> <r_lp_tautomer_probability>
1

> <r_epik_Ionization_Penalty>
0.0586933

> <r_epik_Ionization_Penalty_Charging>
0

> <r_epik_Ionization_Penalty_Neutral>
0.0586933

> <r_epik_State_Penalty>
0.0507031

> <r_epik_Charging_Adjusted_Penalty>
0.0507031

> <i_epik_Tot_Q>
0

> <i_epik_Tot_abs_Q>
0

> <r_epik_Metal_State_Penalty>
5.29335e-05

> <b_epik_Metal_Only>
0

> <s_lp_Force_Field>
OPLS_2005

> <r_lp_Energy>
13.44

> <b_lp_Chiralities_Consistent>
1

> <s_lp_Variant>
AV-unprocessed.smi:2183-1

> <Gold.Version>
5.8.1

> <Gold.Id.Protein>
6NUR|6NUR_protein|mol2

> <Gold.PLP.Fitness>
48.8524

> <Gold.PLP.PLP>
-42.7042

> <Gold.PLP.part.hbond>
-4.0000

> <Gold.PLP.part.metal>
0.0000

> <Gold.PLP.part.buried>
-5.8762

> <Gold.PLP.part.nonpolar>
-33.4811

> <Gold.PLP.part.repulsive>
0.0655

> <Gold.PLP.ligand.clash>
0.0000

> <Gold.PLP.ligand.torsion>
1.3822

> <Gold.PLP.Chemscore.Hbond>
2.9120

> <Gold.PLP.Chemscore.CHOScore>
0.0000

> <Gold.PLP.Chemscore.Metal>
0.0000

> <Gold.Chemscore.Hbonds>
donor molecule, donor type, donor heavy atom, donor atom, acceptor molecule, acceptor atom, score
      P1  H  7989  7998       L1     1  0.82
      P1  H  7997  8009       L1    16  0.88
      P1  H 10752 10765       L1    14  0.98

> <Gold.PLP.Chemscore.Internal.Correction>
0.1766

> <Gold.Rescore>
     Score         DG    S(hbond)    S(metal)    S(lipo)     H(rot)  DE(clash)    DE(int)     intcor
     18.50     -19.62       2.60        0.00     113.02       3.04       0.00       1.12       ----

> <Gold.Chemscore.Fitness>
18.5019

> <Gold.Chemscore.DG>
-19.6231

> <Gold.Chemscore.ZeroCoef>
-5.4800

> <Gold.Chemscore.Hbond>
2.6022

> <Gold.Chemscore.Metal>
0.0000

> <Gold.Chemscore.Lipo>
113.0189

> <Gold.Chemscore.Internal_Hbond>
0.0000

> <Gold.Chemscore.DEClash>
0.0038

> <Gold.Chemscore.DEInternal>
1.1174

> <Gold.Chemscore.Rot>
3.0358

> <Gold.Chemscore.Internal.Correction>
   9.000000E+99

> <Gold.Chemscore.Hbonds>
donor molecule, donor type, donor heavy atom, donor atom, acceptor molecule, acceptor atom, score
      P1  H  7989  7998       L1     1  0.18
      P1  H  7997  8009       L1    16  0.26
      P1  H 10752 10765       L1    14  0.63

> <Gold.Chemscore.Hbond.Weighted>
-8.6914

> <Gold.Chemscore.Metal.Weighted>
-0.0000

> <Gold.Chemscore.Lipo.Weighted>
-13.2232

> <Gold.Chemscore.Internal_Hbond.Weighted>
0.0000

> <Gold.Chemscore.DEClash.Weighted>
0.0038

> <Gold.Chemscore.DEInternal.Weighted>
1.1174

> <Gold.Chemscore.Rot.Weighted>
7.7716

> <Gold.Chemscore.Internal.Correction.Weighted>
   9.000000E+99

> <Gold.Protein.RotatedTorsions>
[ 6907 6896 6895 6894 ] final  153.42 input  -60.11 | X-H torsion
[ 7974 7965 7964 7962 ] final  -54.31 input  175.53 | X-H torsion
[ 8008 7997 7996 7995 ] final  120.45 input   59.86 | X-H torsion
[ 10167 10162 10161 10158 ] final   79.53 input  -65.29 | X-H torsion
[ 10718 10713 10712 10709 ] final   38.69 input   66.30 | X-H torsion
[ 10763 10752 10751 10750 ] final -127.61 input  -60.55 | X-H torsion
[ 11005 11000 10999 10996 ] final  120.04 input  -57.11 | X-H torsion

> <Gold.Protein.ActiveResidues>
 VAL166  LYS551  ARG553  GLY616  TRP617  ASP618  TYR619  PRO620  LYS621  CYS622 
 ASP623  PHE694  ASN695  SER759  ASP760  ASP761  ALA762  ILE779  LEU786  VAL792 
 PHE793  MET794  SER795  GLU796  ALA797  LYS798  CYS799  TRP800  GLU811  SER814 

> <Gold.Protein.RotatedAtoms>
  152.0729  133.4115  159.4466 H   0  0  0  0  0  0  0  0  0  0  0  0  # atno 6907 bound_to 6896
  150.6863  134.3071  159.4740 H   0  0  0  0  0  0  0  0  0  0  0  0  # atno 6908 bound_to 6896
  152.0904  134.9410  160.0622 H   0  0  0  0  0  0  0  0  0  0  0  0  # atno 6909 bound_to 6896
  145.8870  140.8100  142.9810 H   0  0  0  0  0  0  0  0  0  0  0  0  # atno 7974 bound_to 7965
  156.2643  140.2830  156.1151 H   0  0  0  0  0  0  0  0  0  0  0  0  # atno 8008 bound_to 7997
  155.1216  140.0392  157.2769 H   0  0  0  0  0  0  0  0  0  0  0  0  # atno 8009 bound_to 7997
  154.6666  140.2578  155.7057 H   0  0  0  0  0  0  0  0  0  0  0  0  # atno 8010 bound_to 7997
  139.9593  144.5972  150.8087 H   0  0  0  0  0  0  0  0  0  0  0  0  # atno 10167 bound_to 10162
  157.3617  130.7653  149.7053 H   0  0  0  0  0  0  0  0  0  0  0  0  # atno 10718 bound_to 10713
  154.8753  135.3956  154.3621 H   0  0  0  0  0  0  0  0  0  0  0  0  # atno 10763 bound_to 10752
  153.4392  135.7026  153.6185 H   0  0  0  0  0  0  0  0  0  0  0  0  # atno 10764 bound_to 10752
  153.4773  135.3777  155.2392 H   0  0  0  0  0  0  0  0  0  0  0  0  # atno 10765 bound_to 10752
  139.9170  134.9632  156.7747 H   0  0  0  0  0  0  0  0  0  0  0  0  # atno 11005 bound_to 11000
  144.6729  140.1472  143.7433 LP  0  0  0  0  0  0  0  0  0  0  0  0  # atno 17320 bound_to 7965
  145.8954  139.2399  143.1525 LP  0  0  0  0  0  0  0  0  0  0  0  0  # atno 17321 bound_to 7965
  140.7558  143.3053  151.2976 LP  0  0  0  0  0  0  0  0  0  0  0  0  # atno 17342 bound_to 10162
  139.6566  144.0264  152.2664 LP  0  0  0  0  0  0  0  0  0  0  0  0  # atno 17343 bound_to 10162
  155.9739  130.4112  150.3968 LP  0  0  0  0  0  0  0  0  0  0  0  0  # atno 17370 bound_to 10713
  157.2046  131.0446  151.2632 LP  0  0  0  0  0  0  0  0  0  0  0  0  # atno 17371 bound_to 10713
  140.6592  133.9660  155.7796 LP  0  0  0  0  0  0  0  0  0  0  0  0  # atno 17394 bound_to 11000
  141.0655  134.0283  157.3600 LP  0  0  0  0  0  0  0  0  0  0  0  0  # atno 17395 bound_to 11000

$$$$
