AV-unprocessed.smi:848|AV-procd|sdf|3942|dock5
  -GOLD-   22720 1413D 1   1.00000     0.00000
 Structure written by MMmdl.
 47 49  0  0  0  0  0  0  0  0  2 V2000
  151.3487  145.0146  160.2598 C   0  0  0  0  0  0  0  0  0  0  0  0
  151.7639  143.6236  159.8266 C   0  0  0  0  0  0  0  0  0  0  0  0
  152.6099  142.8477  160.6437 C   0  0  0  0  0  0  0  0  0  0  0  0
  152.9945  141.5559  160.2361 C   0  0  0  0  0  0  0  0  0  0  0  0
  153.9052  140.7261  161.1176 C   0  0  0  0  0  0  0  0  0  0  0  0
  152.5316  141.0436  159.0069 C   0  0  0  0  0  0  0  0  0  0  0  0
  151.6841  141.8063  158.1777 C   0  0  0  0  0  0  0  0  0  0  0  0
  151.2792  141.2234  156.9961 O   0  0  0  0  0  0  0  0  0  0  0  0
  150.6003  142.0296  156.0423 C   0  0  0  0  0  0  0  0  0  0  0  0
  149.7834  141.1138  155.1173 C   0  0  1  0  0  0  0  0  0  0  0  0
  150.6710  140.2140  154.4833 O   0  0  0  0  0  0  0  0  0  0  0  0
  148.7161  140.3155  155.8930 C   0  0  0  0  0  0  0  0  0  0  0  0
  147.3416  140.6259  155.4635 N   0  0  0  0  0  0  0  0  0  0  0  0
  146.7123  140.3707  154.2794 C   0  0  0  0  0  0  0  0  0  0  0  0
  147.2873  139.6849  153.0837 C   0  0  0  0  0  0  0  0  0  0  0  0
  146.9220  140.3136  151.8754 O   0  0  0  0  0  0  0  0  0  0  0  0
  145.4422  140.8532  154.3848 N   0  3  0  0  0  0  0  0  0  0  0  0
  145.2553  141.4228  155.6443 C   0  0  0  0  0  0  0  0  0  0  0  0
  144.1411  142.0355  156.2098 C   0  0  0  0  0  0  0  0  0  0  0  0
  144.2818  142.5100  157.5304 C   0  0  0  0  0  0  0  0  0  0  0  0
  145.4937  142.3666  158.2364 C   0  0  0  0  0  0  0  0  0  0  0  0
  146.6165  141.7445  157.6520 C   0  0  0  0  0  0  0  0  0  0  0  0
  146.4707  141.2795  156.3447 C   0  0  0  0  0  0  0  0  0  0  0  0
  151.3038  143.1057  158.5986 C   0  0  0  0  0  0  0  0  0  0  0  0
  151.6377  145.2118  161.2924 H   0  0  0  0  0  0  0  0  0  0  0  0
  150.2673  145.1300  160.1833 H   0  0  0  0  0  0  0  0  0  0  0  0
  151.8207  145.7633  159.6234 H   0  0  0  0  0  0  0  0  0  0  0  0
  152.9659  143.2420  161.5846 H   0  0  0  0  0  0  0  0  0  0  0  0
  153.9447  139.6891  160.7825 H   0  0  0  0  0  0  0  0  0  0  0  0
  153.5489  140.7353  162.1483 H   0  0  0  0  0  0  0  0  0  0  0  0
  154.9174  141.1304  161.0998 H   0  0  0  0  0  0  0  0  0  0  0  0
  152.8277  140.0537  158.6918 H   0  0  0  0  0  0  0  0  0  0  0  0
  149.9565  142.7701  156.5209 H   0  0  0  0  0  0  0  0  0  0  0  0
  151.3468  142.5661  155.4541 H   0  0  0  0  0  0  0  0  0  0  0  0
  149.2900  141.7156  154.3538 H   0  0  0  0  0  0  0  0  0  0  0  0
  150.8879  139.5289  155.0976 H   0  0  0  0  0  0  0  0  0  0  0  0
  148.8875  139.2422  155.8113 H   0  0  0  0  0  0  0  0  0  0  0  0
  148.7811  140.5470  156.9563 H   0  0  0  0  0  0  0  0  0  0  0  0
  148.3750  139.6732  153.1604 H   0  0  0  0  0  0  0  0  0  0  0  0
  146.9580  138.6461  153.0622 H   0  0  0  0  0  0  0  0  0  0  0  0
  147.7089  140.5790  151.4240 H   0  0  0  0  0  0  0  0  0  0  0  0
  143.2108  142.1444  155.6718 H   0  0  0  0  0  0  0  0  0  0  0  0
  143.4428  142.9912  158.0122 H   0  0  0  0  0  0  0  0  0  0  0  0
  145.5635  142.7396  159.2480 H   0  0  0  0  0  0  0  0  0  0  0  0
  147.5365  141.6332  158.2064 H   0  0  0  0  0  0  0  0  0  0  0  0
  150.6587  143.7253  157.9943 H   0  0  0  0  0  0  0  0  0  0  0  0
  144.7526  140.7906  153.6469 H   0  0  0  0  0  0  0  0  0  0  0  0
  1  2  1  0  0  0  0
  1 25  1  0  0  0  0
  1 26  1  0  0  0  0
  1 27  1  0  0  0  0
  2 24  1  0  0  0  0
  2  3  2  0  0  0  0
  3  4  1  0  0  0  0
  3 28  1  0  0  0  0
  4  5  1  0  0  0  0
  4  6  2  0  0  0  0
  5 29  1  0  0  0  0
  5 30  1  0  0  0  0
  5 31  1  0  0  0  0
  6  7  1  0  0  0  0
  6 32  1  0  0  0  0
  7  8  1  0  0  0  0
  7 24  2  0  0  0  0
  8  9  1  0  0  0  0
  9 10  1  0  0  0  0
  9 33  1  0  0  0  0
  9 34  1  0  0  0  0
 10 11  1  0  0  0  0
 10 12  1  0  0  0  0
 10 35  1  0  0  0  0
 11 36  1  0  0  0  0
 12 13  1  0  0  0  0
 12 37  1  0  0  0  0
 12 38  1  0  0  0  0
 13 23  1  0  0  0  0
 13 14  1  0  0  0  0
 14 15  1  0  0  0  0
 14 17  2  0  0  0  0
 15 16  1  0  0  0  0
 15 39  1  0  0  0  0
 15 40  1  0  0  0  0
 16 41  1  0  0  0  0
 17 18  1  0  0  0  0
 17 47  1  0  0  0  0
 18 23  2  0  0  0  0
 18 19  1  0  0  0  0
 19 20  2  0  0  0  0
 19 42  1  0  0  0  0
 20 21  1  0  0  0  0
 20 43  1  0  0  0  0
 21 22  2  0  0  0  0
 21 44  1  0  0  0  0
 22 23  1  0  0  0  0
 22 45  1  0  0  0  0
 24 46  1  0  0  0  0
M  CHG  1  17   1
M  END
> <s_m_source_file>
AV-unprocessed.smi

> <i_m_source_file_index>
848

> <i_lp_mmshare_version>
43012

> <i_f3d_flags>
0

> <s_epik_input>
W0NIM11jMVtjSF1jKFtDSDNdKVtjSF1jKFtjSF0xKU9bQ0gyXVtDQEhdKFtPSF0pW0NIMl1uKGMobjIpW0NIMl1bT0hdKWMoYzIzKVtjSF1bY0hdW2NIXVtjSF0z

> <s_epik_cmdline>
J2VwaWtfcHl0aG9uJywgJy1waCcsICc3LjAnLCAnLXRuJywgJzgnLCAnLW1hJywgJzIwMCcsICctbWV0YWxfYmluZGluZycsICctaW1hZScsICc8aW5maWxlLm1hZT4nLCAnLW9tYWUnLCAnPG91dGZpbGUubWFlPic=

> <r_lp_tautomer_probability>
1

> <r_epik_Ionization_Penalty>
1.43292

> <r_epik_Ionization_Penalty_Charging>
1.43206

> <r_epik_Ionization_Penalty_Neutral>
0.000858184

> <r_epik_State_Penalty>
1.51673

> <r_epik_Charging_Adjusted_Penalty>
2.94879

> <i_epik_Tot_Q>
1

> <i_epik_Tot_abs_Q>
1

> <r_epik_Metal_State_Penalty>
5.56186

> <b_epik_Metal_Only>
0

> <s_lp_Force_Field>
OPLS_2005

> <r_lp_Energy>
19.6511

> <b_lp_Chiralities_Consistent>
1

> <s_lp_Variant>
AV-unprocessed.smi:848-4

> <Gold.Version>
5.8.1

> <Gold.Id.Protein>
6NUR|6NUR_protein|mol2

> <Gold.PLP.Fitness>
57.9543

> <Gold.PLP.PLP>
-48.4124

> <Gold.PLP.part.hbond>
-3.5243

> <Gold.PLP.part.metal>
0.0000

> <Gold.PLP.part.buried>
-6.8679

> <Gold.PLP.part.nonpolar>
-37.7539

> <Gold.PLP.part.repulsive>
0.0321

> <Gold.PLP.ligand.clash>
0.0000

> <Gold.PLP.ligand.torsion>
1.2440

> <Gold.PLP.Chemscore.Hbond>
4.0000

> <Gold.PLP.Chemscore.CHOScore>
0.0000

> <Gold.PLP.Chemscore.Metal>
0.0000

> <Gold.Chemscore.Hbonds>
donor molecule, donor type, donor heavy atom, donor atom, acceptor molecule, acceptor atom, score
      L1  H    16    41       P1  7957  0.85
      L1  H    17    47       P1 10175  2.00
      P1  H  7989  7998       L1    11  0.98

> <Gold.PLP.Chemscore.Internal.Correction>
0.0299

> <Gold.Rescore>
     Score         DG    S(hbond)    S(metal)    S(lipo)     H(rot)  DE(clash)    DE(int)     intcor
     19.67     -21.31       2.71        0.00     124.51       3.05       0.54       1.09       ----

> <Gold.Chemscore.Fitness>
19.6726

> <Gold.Chemscore.DG>
-21.3091

> <Gold.Chemscore.ZeroCoef>
-5.4800

> <Gold.Chemscore.Hbond>
2.7135

> <Gold.Chemscore.Metal>
0.0000

> <Gold.Chemscore.Lipo>
124.5112

> <Gold.Chemscore.Internal_Hbond>
0.0000

> <Gold.Chemscore.DEClash>
0.5442

> <Gold.Chemscore.DEInternal>
1.0923

> <Gold.Chemscore.Rot>
3.0476

> <Gold.Chemscore.Internal.Correction>
   9.000000E+99

> <Gold.Chemscore.Hbonds>
donor molecule, donor type, donor heavy atom, donor atom, acceptor molecule, acceptor atom, score
      L1  H    16    41       P1  7957  0.84
      L1  H    17    47       P1 10175  0.91
      P1  H  7989  7998       L1    11  0.81

> <Gold.Chemscore.Hbond.Weighted>
-9.0631

> <Gold.Chemscore.Metal.Weighted>
-0.0000

> <Gold.Chemscore.Lipo.Weighted>
-14.5678

> <Gold.Chemscore.Internal_Hbond.Weighted>
0.0000

> <Gold.Chemscore.DEClash.Weighted>
0.5442

> <Gold.Chemscore.DEInternal.Weighted>
1.0923

> <Gold.Chemscore.Rot.Weighted>
7.8018

> <Gold.Chemscore.Internal.Correction.Weighted>
   9.000000E+99

> <Gold.Protein.RotatedTorsions>
[ 6907 6896 6895 6894 ] final  -54.02 input  -60.11 | X-H torsion
[ 7974 7965 7964 7962 ] final  139.75 input  175.53 | X-H torsion
[ 8008 7997 7996 7995 ] final -179.34 input   59.86 | X-H torsion
[ 10167 10162 10161 10158 ] final  110.34 input  -65.29 | X-H torsion
[ 10718 10713 10712 10709 ] final  -65.09 input   66.30 | X-H torsion
[ 10763 10752 10751 10750 ] final -113.29 input  -60.55 | X-H torsion
[ 11005 11000 10999 10996 ] final  143.43 input  -57.11 | X-H torsion

> <Gold.Protein.ActiveResidues>
 VAL166  LYS551  ARG553  GLY616  TRP617  ASP618  TYR619  PRO620  LYS621  CYS622 
 ASP623  PHE694  ASN695  SER759  ASP760  ASP761  ALA762  ILE779  LEU786  VAL792 
 PHE793  MET794  SER795  GLU796  ALA797  LYS798  CYS799  TRP800  GLU811  SER814 

> <Gold.Protein.RotatedAtoms>
  150.8375  134.7654  159.6904 H   0  0  0  0  0  0  0  0  0  0  0  0  # atno 6907 bound_to 6896
  152.4469  134.5472  159.9866 H   0  0  0  0  0  0  0  0  0  0  0  0  # atno 6908 bound_to 6896
  151.5619  133.3364  159.3008 H   0  0  0  0  0  0  0  0  0  0  0  0  # atno 6909 bound_to 6896
  144.9250  139.5120  143.5645 H   0  0  0  0  0  0  0  0  0  0  0  0  # atno 7974 bound_to 7965
  156.0294  140.1278  157.0274 H   0  0  0  0  0  0  0  0  0  0  0  0  # atno 8008 bound_to 7997
  154.4343  140.1052  156.6147 H   0  0  0  0  0  0  0  0  0  0  0  0  # atno 8009 bound_to 7997
  155.5829  140.3468  155.4547 H   0  0  0  0  0  0  0  0  0  0  0  0  # atno 8010 bound_to 7997
  139.6695  144.7126  151.1713 H   0  0  0  0  0  0  0  0  0  0  0  0  # atno 10167 bound_to 10162
  156.0690  130.4242  150.1514 H   0  0  0  0  0  0  0  0  0  0  0  0  # atno 10718 bound_to 10713
  154.8389  135.4459  154.1326 H   0  0  0  0  0  0  0  0  0  0  0  0  # atno 10763 bound_to 10752
  153.2532  135.6929  153.7663 H   0  0  0  0  0  0  0  0  0  0  0  0  # atno 10764 bound_to 10752
  153.6967  135.3378  155.3191 H   0  0  0  0  0  0  0  0  0  0  0  0  # atno 10765 bound_to 10752
  140.0554  134.9233  157.1090 H   0  0  0  0  0  0  0  0  0  0  0  0  # atno 11005 bound_to 11000
  146.3222  139.8157  142.8937 LP  0  0  0  0  0  0  0  0  0  0  0  0  # atno 17320 bound_to 7965
  145.3235  141.0249  143.3487 LP  0  0  0  0  0  0  0  0  0  0  0  0  # atno 17321 bound_to 7965
  140.7613  143.5866  150.8840 LP  0  0  0  0  0  0  0  0  0  0  0  0  # atno 17342 bound_to 10162
  139.9530  143.6250  152.3024 LP  0  0  0  0  0  0  0  0  0  0  0  0  # atno 17343 bound_to 10162
  156.9569  130.9792  151.3487 LP  0  0  0  0  0  0  0  0  0  0  0  0  # atno 17370 bound_to 10713
  157.5749  130.8336  149.8442 LP  0  0  0  0  0  0  0  0  0  0  0  0  # atno 17371 bound_to 10713
  140.3853  134.2243  155.7168 LP  0  0  0  0  0  0  0  0  0  0  0  0  # atno 17394 bound_to 11000
  141.1949  133.8117  157.0736 LP  0  0  0  0  0  0  0  0  0  0  0  0  # atno 17395 bound_to 11000

$$$$
