AV-unprocessed.smi:1194|AV-procd|sdf|4993|dock7
  -GOLD-   22720 3593D 1   1.00000     0.00000
 Structure written by MMmdl.
 48 49  0  0  0  0  0  0  0  0  2 V2000
  152.7070  143.3653  161.4870 C   0  0  0  0  0  0  0  0  0  0  0  0
  153.2869  142.1483  160.7578 C   0  0  0  0  0  0  0  0  0  0  0  0
  152.6241  141.9139  159.3866 C   0  0  0  0  0  0  0  0  0  0  0  0
  152.9625  140.5532  158.7493 C   0  0  0  0  0  0  0  0  0  0  0  0
  154.0915  140.0899  158.9198 O   0  0  0  0  0  0  0  0  0  0  0  0
  152.0105  139.8969  158.0341 N   0  0  0  0  0  0  0  0  0  0  0  0
  150.6653  140.4410  157.7534 C   0  0  0  0  0  0  0  0  0  0  0  0
  150.5195  140.7081  156.2450 C   0  0  0  0  0  0  0  0  0  0  0  0
  150.8215  139.4415  155.4269 C   0  0  0  0  0  0  0  0  0  0  0  0
  152.1861  138.8506  155.8233 C   0  0  0  0  0  0  0  0  0  0  0  0
  152.2982  138.6126  157.3498 C   0  0  2  0  0  0  0  0  0  0  0  0
  151.4653  137.4224  157.8738 C   0  0  0  0  0  0  0  0  0  0  0  0
  151.6197  137.0132  159.0247 O   0  0  0  0  0  0  0  0  0  0  0  0
  150.5765  136.8766  157.0286 N   0  0  0  0  0  0  0  0  0  0  0  0
  149.7103  135.7542  157.3552 C   0  0  0  0  0  0  0  0  0  0  0  0
  150.4164  134.4246  157.0613 C   0  0  0  0  0  0  0  0  0  0  0  0
  149.8607  133.7465  155.8241 C   0  0  0  0  0  0  0  0  0  0  0  0
  149.9741  132.3481  155.6602 C   0  0  0  0  0  0  0  0  0  0  0  0
  149.4556  131.7439  154.4958 C   0  0  0  0  0  0  0  0  0  0  0  0
  148.8360  132.5523  153.5211 C   0  0  0  0  0  0  0  0  0  0  0  0
  148.7464  133.8870  153.7121 N   0  3  0  0  0  0  0  0  0  0  0  0
  149.2301  134.5035  154.8130 C   0  0  0  0  0  0  0  0  0  0  0  0
  153.1977  143.5110  162.4496 H   0  0  0  0  0  0  0  0  0  0  0  0
  151.6398  143.2411  161.6732 H   0  0  0  0  0  0  0  0  0  0  0  0
  152.8426  144.2762  160.9034 H   0  0  0  0  0  0  0  0  0  0  0  0
  154.3613  142.2903  160.6317 H   0  0  0  0  0  0  0  0  0  0  0  0
  153.1615  141.2664  161.3878 H   0  0  0  0  0  0  0  0  0  0  0  0
  151.5419  141.9855  159.5029 H   0  0  0  0  0  0  0  0  0  0  0  0
  152.9339  142.7069  158.7046 H   0  0  0  0  0  0  0  0  0  0  0  0
  149.9066  139.7251  158.0699 H   0  0  0  0  0  0  0  0  0  0  0  0
  150.4266  141.3521  158.2980 H   0  0  0  0  0  0  0  0  0  0  0  0
  149.5133  141.0641  156.0227 H   0  0  0  0  0  0  0  0  0  0  0  0
  151.2028  141.5054  155.9496 H   0  0  0  0  0  0  0  0  0  0  0  0
  150.0359  138.7032  155.5918 H   0  0  0  0  0  0  0  0  0  0  0  0
  150.8086  139.6715  154.3612 H   0  0  0  0  0  0  0  0  0  0  0  0
  152.3681  137.9282  155.2705 H   0  0  0  0  0  0  0  0  0  0  0  0
  152.9736  139.5393  155.5138 H   0  0  0  0  0  0  0  0  0  0  0  0
  153.3275  138.2966  157.5223 H   0  0  0  0  0  0  0  0  0  0  0  0
  150.4978  137.2694  156.1016 H   0  0  0  0  0  0  0  0  0  0  0  0
  149.4328  135.8093  158.4091 H   0  0  0  0  0  0  0  0  0  0  0  0
  148.7898  135.8263  156.7732 H   0  0  0  0  0  0  0  0  0  0  0  0
  151.4858  134.5913  156.9237 H   0  0  0  0  0  0  0  0  0  0  0  0
  150.3167  133.7506  157.9133 H   0  0  0  0  0  0  0  0  0  0  0  0
  150.4553  131.7444  156.4162 H   0  0  0  0  0  0  0  0  0  0  0  0
  149.5338  130.6761  154.3523 H   0  0  0  0  0  0  0  0  0  0  0  0
  148.4133  132.1749  152.6012 H   0  0  0  0  0  0  0  0  0  0  0  0
  149.1006  135.5755  154.8493 H   0  0  0  0  0  0  0  0  0  0  0  0
  148.2949  134.4539  152.9937 H   0  0  0  0  0  0  0  0  0  0  0  0
  1  2  1  0  0  0  0
  1 23  1  0  0  0  0
  1 24  1  0  0  0  0
  1 25  1  0  0  0  0
  2  3  1  0  0  0  0
  2 26  1  0  0  0  0
  2 27  1  0  0  0  0
  3  4  1  0  0  0  0
  3 28  1  0  0  0  0
  3 29  1  0  0  0  0
  4  5  2  0  0  0  0
  4  6  1  0  0  0  0
  6 11  1  0  0  0  0
  6  7  1  0  0  0  0
  7  8  1  0  0  0  0
  7 30  1  0  0  0  0
  7 31  1  0  0  0  0
  8  9  1  0  0  0  0
  8 32  1  0  0  0  0
  8 33  1  0  0  0  0
  9 10  1  0  0  0  0
  9 34  1  0  0  0  0
  9 35  1  0  0  0  0
 10 11  1  0  0  0  0
 10 36  1  0  0  0  0
 10 37  1  0  0  0  0
 11 12  1  0  0  0  0
 11 38  1  0  0  0  0
 12 13  2  0  0  0  0
 12 14  1  0  0  0  0
 14 15  1  0  0  0  0
 14 39  1  0  0  0  0
 15 16  1  0  0  0  0
 15 40  1  0  0  0  0
 15 41  1  0  0  0  0
 16 17  1  0  0  0  0
 16 42  1  0  0  0  0
 16 43  1  0  0  0  0
 17 22  1  0  0  0  0
 17 18  2  0  0  0  0
 18 19  1  0  0  0  0
 18 44  1  0  0  0  0
 19 20  2  0  0  0  0
 19 45  1  0  0  0  0
 20 21  1  0  0  0  0
 20 46  1  0  0  0  0
 21 22  2  0  0  0  0
 21 48  1  0  0  0  0
 22 47  1  0  0  0  0
M  CHG  1  21   1
M  END
> <s_m_source_file>
AV-unprocessed.smi

> <i_m_source_file_index>
1194

> <i_lp_mmshare_version>
43012

> <i_f3d_flags>
0

> <s_epik_input>
W0NIM11bQ0gyXVtDSDJdQyg9TylOMVtDSDJdW0NIMl1bQ0gyXVtDSDJdW0NASF0xQyg9TylbTkhdW0NIMl1bQ0gyXWMyW2NIXVtjSF1bY0hdbltjSF0y

> <s_epik_cmdline>
J2VwaWtfcHl0aG9uJywgJy1waCcsICc3LjAnLCAnLXRuJywgJzgnLCAnLW1hJywgJzIwMCcsICctbWV0YWxfYmluZGluZycsICctaW1hZScsICc8aW5maWxlLm1hZT4nLCAnLW9tYWUnLCAnPG91dGZpbGUubWFlPic=

> <r_epik_Ionization_Penalty>
2.26523

> <r_epik_Ionization_Penalty_Charging>
2.26523

> <r_epik_Ionization_Penalty_Neutral>
5.33649e-08

> <r_epik_State_Penalty>
2.41338

> <r_epik_Charging_Adjusted_Penalty>
4.67861

> <i_epik_Tot_Q>
1

> <i_epik_Tot_abs_Q>
1

> <r_epik_Metal_State_Penalty>
2.42628

> <b_epik_Metal_Only>
0

> <s_lp_Force_Field>
OPLS_2005

> <r_lp_Energy>
33.0292

> <b_lp_Chiralities_Consistent>
1

> <s_lp_Variant>
AV-unprocessed.smi:1194-4

> <Gold.Version>
5.8.1

> <Gold.Id.Protein>
6NUR|6NUR_protein|mol2

> <Gold.PLP.Fitness>
46.4665

> <Gold.PLP.PLP>
-39.1331

> <Gold.PLP.part.hbond>
-3.0000

> <Gold.PLP.part.metal>
0.0000

> <Gold.PLP.part.buried>
-2.8477

> <Gold.PLP.part.nonpolar>
-33.6462

> <Gold.PLP.part.repulsive>
0.0673

> <Gold.PLP.ligand.clash>
0.0000

> <Gold.PLP.ligand.torsion>
1.3872

> <Gold.PLP.Chemscore.Hbond>
3.3440

> <Gold.PLP.Chemscore.CHOScore>
0.0000

> <Gold.PLP.Chemscore.Metal>
0.0000

> <Gold.Chemscore.Hbonds>
donor molecule, donor type, donor heavy atom, donor atom, acceptor molecule, acceptor atom, score
      L1  H    21    48       P1  7948  0.85
      P1  H  6896  6908       L1    13  0.89
      P1  H  7997  8008       L1     5  0.98

> <Gold.PLP.Chemscore.Internal.Correction>
0.0758

> <Gold.Rescore>
     Score         DG    S(hbond)    S(metal)    S(lipo)     H(rot)  DE(clash)    DE(int)     intcor
     16.61     -18.76       2.10        0.00      92.99       1.80       0.04       2.12       ----

> <Gold.Chemscore.Fitness>
16.6104

> <Gold.Chemscore.DG>
-18.7633

> <Gold.Chemscore.ZeroCoef>
-5.4800

> <Gold.Chemscore.Hbond>
2.0979

> <Gold.Chemscore.Metal>
0.0000

> <Gold.Chemscore.Lipo>
92.9949

> <Gold.Chemscore.Internal_Hbond>
0.0000

> <Gold.Chemscore.DEClash>
0.0354

> <Gold.Chemscore.DEInternal>
2.1175

> <Gold.Chemscore.Rot>
1.7985

> <Gold.Chemscore.Internal.Correction>
   9.000000E+99

> <Gold.Chemscore.Hbonds>
donor molecule, donor type, donor heavy atom, donor atom, acceptor molecule, acceptor atom, score
      L1  H    21    48       P1  7948  0.17
      P1  H  6896  6908       L1    13  0.83
      P1  H  7997  8008       L1     5  0.42

> <Gold.Chemscore.Hbond.Weighted>
-7.0070

> <Gold.Chemscore.Metal.Weighted>
-0.0000

> <Gold.Chemscore.Lipo.Weighted>
-10.8804

> <Gold.Chemscore.Internal_Hbond.Weighted>
0.0000

> <Gold.Chemscore.DEClash.Weighted>
0.0354

> <Gold.Chemscore.DEInternal.Weighted>
2.1175

> <Gold.Chemscore.Rot.Weighted>
4.6041

> <Gold.Chemscore.Internal.Correction.Weighted>
   9.000000E+99

> <Gold.Protein.RotatedTorsions>
[ 6907 6896 6895 6894 ] final -131.25 input  -60.11 | X-H torsion
[ 7974 7965 7964 7962 ] final  114.64 input  175.53 | X-H torsion
[ 8008 7997 7996 7995 ] final -102.10 input   59.86 | X-H torsion
[ 10167 10162 10161 10158 ] final   84.26 input  -65.29 | X-H torsion
[ 10718 10713 10712 10709 ] final  136.08 input   66.30 | X-H torsion
[ 10763 10752 10751 10750 ] final -127.31 input  -60.55 | X-H torsion
[ 11005 11000 10999 10996 ] final   43.79 input  -57.11 | X-H torsion

> <Gold.Protein.ActiveResidues>
 VAL166  LYS551  ARG553  GLY616  TRP617  ASP618  TYR619  PRO620  LYS621  CYS622 
 ASP623  PHE694  ASN695  SER759  ASP760  ASP761  ALA762  ILE779  LEU786  VAL792 
 PHE793  MET794  SER795  GLU796  ALA797  LYS798  CYS799  TRP800  GLU811  SER814 

> <Gold.Protein.RotatedAtoms>
  150.9489  133.6572  159.2775 H   0  0  0  0  0  0  0  0  0  0  0  0  # atno 6907 bound_to 6896
  151.3935  135.0958  159.9543 H   0  0  0  0  0  0  0  0  0  0  0  0  # atno 6908 bound_to 6896
  152.5101  133.8998  159.7490 H   0  0  0  0  0  0  0  0  0  0  0  0  # atno 6909 bound_to 6896
  145.2020  139.2948  143.4313 H   0  0  0  0  0  0  0  0  0  0  0  0  # atno 7974 bound_to 7965
  154.8519  140.0430  157.1609 H   0  0  0  0  0  0  0  0  0  0  0  0  # atno 8008 bound_to 7997
  154.8934  140.2989  155.5337 H   0  0  0  0  0  0  0  0  0  0  0  0  # atno 8009 bound_to 7997
  156.2996  140.2389  156.3952 H   0  0  0  0  0  0  0  0  0  0  0  0  # atno 8010 bound_to 7997
  139.9099  144.6278  150.8548 H   0  0  0  0  0  0  0  0  0  0  0  0  # atno 10167 bound_to 10162
  157.4504  131.1065  151.0040 H   0  0  0  0  0  0  0  0  0  0  0  0  # atno 10718 bound_to 10713
  154.8751  135.3966  154.3572 H   0  0  0  0  0  0  0  0  0  0  0  0  # atno 10763 bound_to 10752
  153.4350  135.7026  153.6211 H   0  0  0  0  0  0  0  0  0  0  0  0  # atno 10764 bound_to 10752
  153.4817  135.3768  155.2415 H   0  0  0  0  0  0  0  0  0  0  0  0  # atno 10765 bound_to 10752
  140.1612  134.4339  155.8316 H   0  0  0  0  0  0  0  0  0  0  0  0  # atno 11005 bound_to 11000
  146.3416  140.2267  142.8592 LP  0  0  0  0  0  0  0  0  0  0  0  0  # atno 17320 bound_to 7965
  144.9939  140.8572  143.5323 LP  0  0  0  0  0  0  0  0  0  0  0  0  # atno 17321 bound_to 7965
  140.7688  143.3373  151.2281 LP  0  0  0  0  0  0  0  0  0  0  0  0  # atno 17342 bound_to 10162
  139.6952  143.9626  152.2879 LP  0  0  0  0  0  0  0  0  0  0  0  0  # atno 17343 bound_to 10162
  157.0871  130.5927  149.5432 LP  0  0  0  0  0  0  0  0  0  0  0  0  # atno 17370 bound_to 10713
  155.9985  130.5059  150.7572 LP  0  0  0  0  0  0  0  0  0  0  0  0  # atno 17371 bound_to 10713
  141.2209  133.6914  156.7597 LP  0  0  0  0  0  0  0  0  0  0  0  0  # atno 17394 bound_to 11000
  140.2488  134.8557  157.3646 LP  0  0  0  0  0  0  0  0  0  0  0  0  # atno 17395 bound_to 11000

$$$$
