AV-unprocessed.smi:3287|AV-procd|sdf|12594|dock9
  -GOLD-   2272018513D 1   1.00000     0.00000
 Structure written by MMmdl.
 43 44  0  0  0  0  0  0  0  0  2 V2000
  150.2715  141.5718  155.9266 C   0  0  0  0  0  0  0  0  0  0  0  0
  149.4844  141.0716  154.7022 C   0  0  2  0  0  0  0  0  0  0  0  0
  148.1140  141.7758  154.6403 C   0  0  0  0  0  0  0  0  0  0  0  0
  147.2876  141.3204  153.4306 C   0  0  0  0  0  0  0  0  0  0  0  0
  147.0841  139.7978  153.4423 C   0  0  1  0  0  0  0  0  0  0  0  0
  146.2833  139.3915  152.2662 N   0  3  0  0  0  0  0  0  0  0  0  0
  146.2802  137.9416  151.9732 C   0  0  0  0  0  0  0  0  0  0  0  0
  145.1002  137.2303  152.6579 C   0  0  1  0  0  0  0  0  0  0  0  0
  143.9049  137.9146  152.3359 O   0  0  0  0  0  0  0  0  0  0  0  0
  145.0386  135.7648  152.2559 C   0  0  0  0  0  0  0  0  0  0  0  0
  144.9203  134.7440  153.2244 C   0  0  0  0  0  0  0  0  0  0  0  0
  144.8589  133.4052  152.7889 C   0  0  0  0  0  0  0  0  0  0  0  0
  144.9042  133.0464  151.4882 N   0  0  0  0  0  0  0  0  0  0  0  0
  145.0145  134.0263  150.5661 C   0  0  0  0  0  0  0  0  0  0  0  0
  145.0840  135.3948  150.8955 C   0  0  0  0  0  0  0  0  0  0  0  0
  148.4528  139.0887  153.4769 C   0  0  0  0  0  0  0  0  0  0  0  0
  149.3097  139.5297  154.6829 C   0  0  1  0  0  0  0  0  0  0  0  0
  150.6514  138.7755  154.6722 C   0  0  0  0  0  0  0  0  0  0  0  0
  149.8046  141.2498  156.8579 H   0  0  0  0  0  0  0  0  0  0  0  0
  150.3209  142.6610  155.9413 H   0  0  0  0  0  0  0  0  0  0  0  0
  151.2993  141.2103  155.9230 H   0  0  0  0  0  0  0  0  0  0  0  0
  150.0447  141.3606  153.8115 H   0  0  0  0  0  0  0  0  0  0  0  0
  147.5550  141.5769  155.5559 H   0  0  0  0  0  0  0  0  0  0  0  0
  148.2524  142.8568  154.5949 H   0  0  0  0  0  0  0  0  0  0  0  0
  146.3223  141.8281  153.4375 H   0  0  0  0  0  0  0  0  0  0  0  0
  147.7911  141.6244  152.5115 H   0  0  0  0  0  0  0  0  0  0  0  0
  146.5235  139.5385  154.3419 H   0  0  0  0  0  0  0  0  0  0  0  0
  145.3265  139.6637  152.4404 H   0  0  0  0  0  0  0  0  0  0  0  0
  146.2436  137.7752  150.8965 H   0  0  0  0  0  0  0  0  0  0  0  0
  147.2175  137.5133  152.3317 H   0  0  0  0  0  0  0  0  0  0  0  0
  145.2253  137.2851  153.7404 H   0  0  0  0  0  0  0  0  0  0  0  0
  144.0093  138.8254  152.5683 H   0  0  0  0  0  0  0  0  0  0  0  0
  144.8761  134.9761  154.2783 H   0  0  0  0  0  0  0  0  0  0  0  0
  144.7695  132.6016  153.5048 H   0  0  0  0  0  0  0  0  0  0  0  0
  145.0475  133.7108  149.5338 H   0  0  0  0  0  0  0  0  0  0  0  0
  145.1695  136.1382  150.1169 H   0  0  0  0  0  0  0  0  0  0  0  0
  148.3147  138.0083  153.5186 H   0  0  0  0  0  0  0  0  0  0  0  0
  148.9939  139.2929  152.5516 H   0  0  0  0  0  0  0  0  0  0  0  0
  148.7778  139.2378  155.5900 H   0  0  0  0  0  0  0  0  0  0  0  0
  151.2674  139.0746  153.8236 H   0  0  0  0  0  0  0  0  0  0  0  0
  150.4953  137.6986  154.6035 H   0  0  0  0  0  0  0  0  0  0  0  0
  151.2242  138.9525  155.5820 H   0  0  0  0  0  0  0  0  0  0  0  0
  146.6128  139.8912  151.4523 H   0  0  0  0  0  0  0  0  0  0  0  0
  1  2  1  0  0  0  0
  1 19  1  0  0  0  0
  1 20  1  0  0  0  0
  1 21  1  0  0  0  0
  2 17  1  0  0  0  0
  2  3  1  0  0  0  0
  2 22  1  0  0  0  0
  3  4  1  0  0  0  0
  3 23  1  0  0  0  0
  3 24  1  0  0  0  0
  4  5  1  0  0  0  0
  4 25  1  0  0  0  0
  4 26  1  0  0  0  0
  5  6  1  0  0  0  0
  5 16  1  0  0  0  0
  5 27  1  0  0  0  0
  6  7  1  0  0  0  0
  6 28  1  0  0  0  0
  6 43  1  0  0  0  0
  7  8  1  0  0  0  0
  7 29  1  0  0  0  0
  7 30  1  0  0  0  0
  8  9  1  0  0  0  0
  8 10  1  0  0  0  0
  8 31  1  0  0  0  0
  9 32  1  0  0  0  0
 10 15  1  0  0  0  0
 10 11  2  0  0  0  0
 11 12  1  0  0  0  0
 11 33  1  0  0  0  0
 12 13  2  0  0  0  0
 12 34  1  0  0  0  0
 13 14  1  0  0  0  0
 14 15  2  0  0  0  0
 14 35  1  0  0  0  0
 15 36  1  0  0  0  0
 16 17  1  0  0  0  0
 16 37  1  0  0  0  0
 16 38  1  0  0  0  0
 17 18  1  0  0  0  0
 17 39  1  0  0  0  0
 18 40  1  0  0  0  0
 18 41  1  0  0  0  0
 18 42  1  0  0  0  0
M  CHG  1   6   1
M  END
> <s_m_source_file>
AV-unprocessed.smi

> <i_m_source_file_index>
3287

> <i_lp_mmshare_version>
43012

> <i_f3d_flags>
0

> <s_epik_input>
W0NIM11bQ0BASF0xW0NIMl1bQ0gyXVtDQEhdKFtDSDJdW0NASF0xW0NIM10pW05IXVtDSDJdW0NASF0oW09IXSljMltjSF1bY0hdbltjSF1bY0hdMg==

> <s_epik_cmdline>
J2VwaWtfcHl0aG9uJywgJy1waCcsICc3LjAnLCAnLXRuJywgJzgnLCAnLW1hJywgJzIwMCcsICctbWV0YWxfYmluZGluZycsICctaW1hZScsICc8aW5maWxlLm1hZT4nLCAnLW9tYWUnLCAnPG91dGZpbGUubWFlPic=

> <r_lp_tautomer_probability>
1

> <r_epik_Ionization_Penalty>
0.00537262

> <r_epik_Ionization_Penalty_Charging>
0.00321624

> <r_epik_Ionization_Penalty_Neutral>
0.00215638

> <r_epik_State_Penalty>
-0

> <r_epik_Charging_Adjusted_Penalty>
0.00321624

> <i_epik_Tot_Q>
1

> <i_epik_Tot_abs_Q>
1

> <r_epik_Metal_State_Penalty>
-0

> <b_epik_Metal_Only>
0

> <s_lp_Force_Field>
OPLS_2005

> <r_lp_Energy>
16.1009

> <b_lp_Chiralities_Consistent>
1

> <s_lp_Variant>
AV-unprocessed.smi:3287-5

> <Gold.Version>
5.8.1

> <Gold.Id.Protein>
6NUR|6NUR_protein|mol2

> <Gold.PLP.Fitness>
47.8135

> <Gold.PLP.PLP>
-34.0568

> <Gold.PLP.part.hbond>
-2.7629

> <Gold.PLP.part.metal>
0.0000

> <Gold.PLP.part.buried>
-0.1673

> <Gold.PLP.part.nonpolar>
-31.8312

> <Gold.PLP.part.repulsive>
0.1419

> <Gold.PLP.ligand.clash>
0.0000

> <Gold.PLP.ligand.torsion>
0.5614

> <Gold.PLP.Chemscore.Hbond>
3.0000

> <Gold.PLP.Chemscore.CHOScore>
1.9557

> <Gold.PLP.Chemscore.Metal>
0.0000

> <Gold.Chemscore.Hbonds>
donor molecule, donor type, donor heavy atom, donor atom, acceptor molecule, acceptor atom, score
      L1  H     6    28       P1 10175  2.00
      L1  H     9    32       P1 10175  1.00
      L1  C    12    34       P1 10957  0.86
      L1  C    14    35       P1  7921  0.98

> <Gold.PLP.Chemscore.Internal.Correction>
0.0124

> <Gold.Rescore>
     Score         DG    S(hbond)    S(metal)    S(lipo)     H(rot)  DE(clash)    DE(int)     intcor
     16.55     -17.78       1.99        0.00      89.98       1.90       0.81       0.41       ----

> <Gold.Chemscore.Fitness>
16.5538

> <Gold.Chemscore.DG>
-17.7762

> <Gold.Chemscore.ZeroCoef>
-5.4800

> <Gold.Chemscore.Hbond>
1.9884

> <Gold.Chemscore.Metal>
0.0000

> <Gold.Chemscore.Lipo>
89.9809

> <Gold.Chemscore.Internal_Hbond>
0.0000

> <Gold.Chemscore.DEClash>
0.8078

> <Gold.Chemscore.DEInternal>
0.4146

> <Gold.Chemscore.Rot>
1.9035

> <Gold.Chemscore.Internal.Correction>
   9.000000E+99

> <Gold.Chemscore.Hbonds>
donor molecule, donor type, donor heavy atom, donor atom, acceptor molecule, acceptor atom, score
      L1  H     6    28       P1 10175  1.00
      L1  H     9    32       P1 10175  0.97

> <Gold.Chemscore.Hbond.Weighted>
-6.6413

> <Gold.Chemscore.Metal.Weighted>
-0.0000

> <Gold.Chemscore.Lipo.Weighted>
-10.5278

> <Gold.Chemscore.Internal_Hbond.Weighted>
0.0000

> <Gold.Chemscore.DEClash.Weighted>
0.8078

> <Gold.Chemscore.DEInternal.Weighted>
0.4146

> <Gold.Chemscore.Rot.Weighted>
4.8729

> <Gold.Chemscore.Internal.Correction.Weighted>
   9.000000E+99

> <Gold.Protein.RotatedTorsions>
[ 6907 6896 6895 6894 ] final   70.26 input  -60.11 | X-H torsion
[ 7974 7965 7964 7962 ] final  -22.13 input  175.53 | X-H torsion
[ 8008 7997 7996 7995 ] final -176.01 input   59.86 | X-H torsion
[ 10167 10162 10161 10158 ] final  -42.87 input  -65.29 | X-H torsion
[ 10718 10713 10712 10709 ] final -179.90 input   66.30 | X-H torsion
[ 10763 10752 10751 10750 ] final  -45.34 input  -60.55 | X-H torsion
[ 11005 11000 10999 10996 ] final   72.21 input  -57.11 | X-H torsion

> <Gold.Protein.ActiveResidues>
 VAL166  LYS551  ARG553  GLY616  TRP617  ASP618  TYR619  PRO620  LYS621  CYS622 
 ASP623  PHE694  ASN695  SER759  ASP760  ASP761  ALA762  ILE779  LEU786  VAL792 
 PHE793  MET794  SER795  GLU796  ALA797  LYS798  CYS799  TRP800  GLU811  SER814 

> <Gold.Protein.RotatedAtoms>
  152.4738  134.4895  159.9690 H   0  0  0  0  0  0  0  0  0  0  0  0  # atno 6907 bound_to 6896
  151.4915  133.3518  159.2862 H   0  0  0  0  0  0  0  0  0  0  0  0  # atno 6908 bound_to 6896
  150.8764  134.8175  159.7254 H   0  0  0  0  0  0  0  0  0  0  0  0  # atno 6909 bound_to 6896
  146.1693  140.4437  142.8539 H   0  0  0  0  0  0  0  0  0  0  0  0  # atno 7974 bound_to 7965
  155.9896  140.1198  157.0650 H   0  0  0  0  0  0  0  0  0  0  0  0  # atno 8008 bound_to 7997
  154.4207  140.1128  156.5615 H   0  0  0  0  0  0  0  0  0  0  0  0  # atno 8009 bound_to 7997
  155.6361  140.3473  155.4701 H   0  0  0  0  0  0  0  0  0  0  0  0  # atno 8010 bound_to 7997
  140.6954  143.3014  151.3271 H   0  0  0  0  0  0  0  0  0  0  0  0  # atno 10167 bound_to 10162
  156.8659  130.9767  151.3078 H   0  0  0  0  0  0  0  0  0  0  0  0  # atno 10718 bound_to 10713
  154.0269  135.6662  153.4777 H   0  0  0  0  0  0  0  0  0  0  0  0  # atno 10763 bound_to 10752
  153.0556  135.5058  154.7970 H   0  0  0  0  0  0  0  0  0  0  0  0  # atno 10764 bound_to 10752
  154.6902  135.3060  154.9455 H   0  0  0  0  0  0  0  0  0  0  0  0  # atno 10765 bound_to 10752
  139.9503  134.7239  156.0879 H   0  0  0  0  0  0  0  0  0  0  0  0  # atno 11005 bound_to 11000
  144.8139  140.6434  143.6397 LP  0  0  0  0  0  0  0  0  0  0  0  0  # atno 17320 bound_to 7965
  145.4383  139.1539  143.3984 LP  0  0  0  0  0  0  0  0  0  0  0  0  # atno 17321 bound_to 7965
  139.6403  144.0552  152.2549 LP  0  0  0  0  0  0  0  0  0  0  0  0  # atno 17342 bound_to 10162
  140.0055  144.6262  150.7692 LP  0  0  0  0  0  0  0  0  0  0  0  0  # atno 17343 bound_to 10162
  157.6223  130.8665  149.9130 LP  0  0  0  0  0  0  0  0  0  0  0  0  # atno 17370 bound_to 10713
  156.0752  130.3680  150.0693 LP  0  0  0  0  0  0  0  0  0  0  0  0  # atno 17371 bound_to 10713
  141.1164  133.6626  156.3104 LP  0  0  0  0  0  0  0  0  0  0  0  0  # atno 17394 bound_to 11000
  140.5735  134.5816  157.5463 LP  0  0  0  0  0  0  0  0  0  0  0  0  # atno 17395 bound_to 11000

$$$$
