AV-unprocessed.smi:3282|AV-procd|sdf|12565|dock5
  -GOLD-   2272018483D 1   1.00000     0.00000
 Structure written by MMmdl.
 34 35  0  0  0  0  0  0  0  0  1 V2000
  154.1484  141.3561  161.6344 C   0  0  0  0  0  0  0  0  0  0  0  0
  153.5453  141.2668  160.2230 C   0  0  0  0  0  0  0  0  0  0  0  0
  152.2329  142.0518  160.0591 C   0  0  0  0  0  0  0  0  0  0  0  0
  151.8255  142.7647  160.9777 O   0  0  0  0  0  0  0  0  0  0  0  0
  151.5595  141.9304  158.8960 N   0  0  0  0  0  0  0  0  0  0  0  0
  150.2953  142.6084  158.6219 C   0  0  0  0  0  0  0  0  0  0  0  0
  149.7711  142.0102  157.3166 C   0  0  0  0  0  0  0  0  0  0  0  0
  151.0145  141.4806  156.6078 C   0  0  2  0  0  0  0  0  0  0  0  0
  150.7047  140.3302  155.7646 N   0  0  0  0  0  0  0  0  0  0  0  0
  151.6112  139.5089  155.2139 C   0  0  0  0  0  0  0  0  0  0  0  0
  152.8244  139.6749  155.3752 O   0  0  0  0  0  0  0  0  0  0  0  0
  150.9865  138.5390  154.4480 N   0  0  0  0  0  0  0  0  0  0  0  0
  150.8351  137.3575  154.9605 C   0  0  0  0  0  0  0  0  0  0  0  0
  150.2250  136.2538  154.3864 N   0  0  0  0  0  0  0  0  0  0  0  0
  150.3035  135.2159  155.2736 C   0  0  0  0  0  0  0  0  0  0  0  0
  150.9369  135.6468  156.3608 C   0  0  0  0  0  0  0  0  0  0  0  0
  151.2771  136.9562  156.2007 O   0  0  0  0  0  0  0  0  0  0  0  0
  151.9750  141.1231  157.7506 C   0  0  0  0  0  0  0  0  0  0  0  0
  155.0674  140.7733  161.6967 H   0  0  0  0  0  0  0  0  0  0  0  0
  153.4611  140.9671  162.3867 H   0  0  0  0  0  0  0  0  0  0  0  0
  154.3941  142.3852  161.8993 H   0  0  0  0  0  0  0  0  0  0  0  0
  154.2711  141.6402  159.4999 H   0  0  0  0  0  0  0  0  0  0  0  0
  153.3649  140.2188  159.9818 H   0  0  0  0  0  0  0  0  0  0  0  0
  149.5766  142.4806  159.4329 H   0  0  0  0  0  0  0  0  0  0  0  0
  150.4857  143.6761  158.5031 H   0  0  0  0  0  0  0  0  0  0  0  0
  149.0925  141.1881  157.5507 H   0  0  0  0  0  0  0  0  0  0  0  0
  149.2190  142.7330  156.7152 H   0  0  0  0  0  0  0  0  0  0  0  0
  151.4452  142.2861  156.0099 H   0  0  0  0  0  0  0  0  0  0  0  0
  149.7285  140.1470  155.5822 H   0  0  0  0  0  0  0  0  0  0  0  0
  149.7907  136.1811  153.4777 H   0  0  0  0  0  0  0  0  0  0  0  0
  149.8862  134.2516  155.0241 H   0  0  0  0  0  0  0  0  0  0  0  0
  151.2110  135.1676  157.2890 H   0  0  0  0  0  0  0  0  0  0  0  0
  153.0087  141.3179  157.4622 H   0  0  0  0  0  0  0  0  0  0  0  0
  151.8913  140.0686  158.0197 H   0  0  0  0  0  0  0  0  0  0  0  0
  1  2  1  0  0  0  0
  1 19  1  0  0  0  0
  1 20  1  0  0  0  0
  1 21  1  0  0  0  0
  2  3  1  0  0  0  0
  2 22  1  0  0  0  0
  2 23  1  0  0  0  0
  3  4  2  0  0  0  0
  3  5  1  0  0  0  0
  5 18  1  0  0  0  0
  5  6  1  0  0  0  0
  6  7  1  0  0  0  0
  6 24  1  0  0  0  0
  6 25  1  0  0  0  0
  7  8  1  0  0  0  0
  7 26  1  0  0  0  0
  7 27  1  0  0  0  0
  8  9  1  0  0  0  0
  8 18  1  0  0  0  0
  8 28  1  0  0  0  0
  9 29  1  0  0  0  0
  9 10  1  0  0  0  0
 10 12  1  0  0  0  0
 10 11  2  0  0  0  0
 12 13  2  0  0  0  0
 13 17  1  0  0  0  0
 13 14  1  0  0  0  0
 14 30  1  0  0  0  0
 14 15  1  0  0  0  0
 15 31  1  0  0  0  0
 15 16  2  0  0  0  0
 16 32  1  0  0  0  0
 16 17  1  0  0  0  0
 18 33  1  0  0  0  0
 18 34  1  0  0  0  0
M  END
> <s_m_source_file>
AV-unprocessed.smi

> <i_m_source_file_index>
3282

> <i_lp_mmshare_version>
43012

> <i_f3d_flags>
0

> <s_epik_input>
W0NIM11bQ0gyXUMoPU8pTjFbQ0gyXVtDSDJdW0NASF0oW0NIMl0xKVtOSF1DKD1PKVtOSF1jMm5bY0hdW2NIXW8y

> <s_epik_cmdline>
J2VwaWtfcHl0aG9uJywgJy1waCcsICc3LjAnLCAnLXRuJywgJzgnLCAnLW1hJywgJzIwMCcsICctbWV0YWxfYmluZGluZycsICctaW1hZScsICc8aW5maWxlLm1hZT4nLCAnLW9tYWUnLCAnPG91dGZpbGUubWFlPic=

> <r_lp_tautomer_probability>
0.107061

> <r_epik_Ionization_Penalty>
0.434703

> <r_epik_Ionization_Penalty_Charging>
0.434345

> <r_epik_Ionization_Penalty_Neutral>
0.000358141

> <r_epik_State_Penalty>
2.49584

> <r_epik_Charging_Adjusted_Penalty>
2.93019

> <i_epik_Tot_Q>
0

> <i_epik_Tot_abs_Q>
0

> <r_epik_Metal_State_Penalty>
4.06361

> <b_epik_Metal_Only>
0

> <s_lp_Force_Field>
OPLS_2005

> <r_lp_Energy>
49.1525

> <b_lp_Chiralities_Consistent>
1

> <s_lp_Variant>
AV-unprocessed.smi:3282-6

> <Gold.Version>
5.8.1

> <Gold.Id.Protein>
6NUR|6NUR_protein|mol2

> <Gold.PLP.Fitness>
36.6882

> <Gold.PLP.PLP>
-32.3819

> <Gold.PLP.part.hbond>
-3.9613

> <Gold.PLP.part.metal>
0.0000

> <Gold.PLP.part.buried>
-4.6808

> <Gold.PLP.part.nonpolar>
-24.3938

> <Gold.PLP.part.repulsive>
0.4276

> <Gold.PLP.ligand.clash>
0.0000

> <Gold.PLP.ligand.torsion>
0.8791

> <Gold.PLP.Chemscore.Hbond>
2.0186

> <Gold.PLP.Chemscore.CHOScore>
0.0000

> <Gold.PLP.Chemscore.Metal>
0.0000

> <Gold.Chemscore.Hbonds>
donor molecule, donor type, donor heavy atom, donor atom, acceptor molecule, acceptor atom, score
      L1  H    14    30       P1  7948  0.85
      P1  H  6933  6945       L1     4  0.04
      P1  H  7997  8008       L1    11  1.00

> <Gold.PLP.Chemscore.Internal.Correction>
0.0087

> <Gold.Rescore>
     Score         DG    S(hbond)    S(metal)    S(lipo)     H(rot)  DE(clash)    DE(int)     intcor
     13.69     -15.95       2.40        0.00      49.97       1.32       0.03       2.23       ----

> <Gold.Chemscore.Fitness>
13.6885

> <Gold.Chemscore.DG>
-15.9481

> <Gold.Chemscore.ZeroCoef>
-5.4800

> <Gold.Chemscore.Hbond>
2.3954

> <Gold.Chemscore.Metal>
0.0000

> <Gold.Chemscore.Lipo>
49.9681

> <Gold.Chemscore.Internal_Hbond>
0.0000

> <Gold.Chemscore.DEClash>
0.0323

> <Gold.Chemscore.DEInternal>
2.2274

> <Gold.Chemscore.Rot>
1.3199

> <Gold.Chemscore.Internal.Correction>
   9.000000E+99

> <Gold.Chemscore.Hbonds>
donor molecule, donor type, donor heavy atom, donor atom, acceptor molecule, acceptor atom, score
      L1  H    14    30       P1  7948  0.15
      P1  H  6933  6945       L1     4  0.04
      P1  H  7997  8008       L1    11  1.00

> <Gold.Chemscore.Hbond.Weighted>
-8.0008

> <Gold.Chemscore.Metal.Weighted>
-0.0000

> <Gold.Chemscore.Lipo.Weighted>
-5.8463

> <Gold.Chemscore.Internal_Hbond.Weighted>
0.0000

> <Gold.Chemscore.DEClash.Weighted>
0.0323

> <Gold.Chemscore.DEInternal.Weighted>
2.2274

> <Gold.Chemscore.Rot.Weighted>
3.3789

> <Gold.Chemscore.Internal.Correction.Weighted>
   9.000000E+99

> <Gold.Protein.RotatedTorsions>
[ 6907 6896 6895 6894 ] final    0.61 input  -60.11 | X-H torsion
[ 7974 7965 7964 7962 ] final  148.88 input  175.53 | X-H torsion
[ 8008 7997 7996 7995 ] final  -23.46 input   59.86 | X-H torsion
[ 10167 10162 10161 10158 ] final  -32.66 input  -65.29 | X-H torsion
[ 10718 10713 10712 10709 ] final   19.57 input   66.30 | X-H torsion
[ 10763 10752 10751 10750 ] final   65.89 input  -60.55 | X-H torsion
[ 11005 11000 10999 10996 ] final  103.43 input  -57.11 | X-H torsion

> <Gold.Protein.ActiveResidues>
 VAL166  LYS551  ARG553  GLY616  TRP617  ASP618  TYR619  PRO620  LYS621  CYS622 
 ASP623  PHE694  ASN695  SER759  ASP760  ASP761  ALA762  ILE779  LEU786  VAL792 
 PHE793  MET794  SER795  GLU796  ALA797  LYS798  CYS799  TRP800  GLU811  SER814 

> <Gold.Protein.RotatedAtoms>
  151.5793  135.1059  160.0013 H   0  0  0  0  0  0  0  0  0  0  0  0  # atno 6907 bound_to 6896
  152.4362  133.7361  159.6625 H   0  0  0  0  0  0  0  0  0  0  0  0  # atno 6908 bound_to 6896
  150.8260  133.8101  159.3141 H   0  0  0  0  0  0  0  0  0  0  0  0  # atno 6909 bound_to 6896
  144.8480  139.6210  143.5986 H   0  0  0  0  0  0  0  0  0  0  0  0  # atno 7974 bound_to 7965
  154.4584  140.1980  156.0314 H   0  0  0  0  0  0  0  0  0  0  0  0  # atno 8008 bound_to 7997
  156.0792  140.3274  155.7644 H   0  0  0  0  0  0  0  0  0  0  0  0  # atno 8009 bound_to 7997
  155.5139  140.0564  157.2909 H   0  0  0  0  0  0  0  0  0  0  0  0  # atno 8010 bound_to 7997
  140.7217  143.3678  151.1837 H   0  0  0  0  0  0  0  0  0  0  0  0  # atno 10167 bound_to 10162
  157.1123  130.6514  149.5901 H   0  0  0  0  0  0  0  0  0  0  0  0  # atno 10718 bound_to 10713
  153.0116  135.5340  154.6739 H   0  0  0  0  0  0  0  0  0  0  0  0  # atno 10763 bound_to 10752
  154.5916  135.2859  155.0631 H   0  0  0  0  0  0  0  0  0  0  0  0  # atno 10764 bound_to 10752
  154.1722  135.6530  153.5065 H   0  0  0  0  0  0  0  0  0  0  0  0  # atno 10765 bound_to 10752
  139.8784  134.9262  156.5208 H   0  0  0  0  0  0  0  0  0  0  0  0  # atno 11005 bound_to 11000
  146.2761  139.6755  142.9262 LP  0  0  0  0  0  0  0  0  0  0  0  0  # atno 17320 bound_to 7965
  145.4558  141.0430  143.2779 LP  0  0  0  0  0  0  0  0  0  0  0  0  # atno 17321 bound_to 7965
  139.7243  143.9173  152.2997 LP  0  0  0  0  0  0  0  0  0  0  0  0  # atno 17342 bound_to 10162
  139.8941  144.6949  150.8738 LP  0  0  0  0  0  0  0  0  0  0  0  0  # atno 17343 bound_to 10162
  155.9847  130.4874  150.6998 LP  0  0  0  0  0  0  0  0  0  0  0  0  # atno 17370 bound_to 10713
  157.4548  131.0876  151.0808 LP  0  0  0  0  0  0  0  0  0  0  0  0  # atno 17371 bound_to 10713
  140.8452  133.8174  155.9114 LP  0  0  0  0  0  0  0  0  0  0  0  0  # atno 17394 bound_to 11000
  140.9198  134.2155  157.4933 LP  0  0  0  0  0  0  0  0  0  0  0  0  # atno 17395 bound_to 11000

$$$$
