AV-unprocessed.smi:1417|AV-procd|sdf|5768|dock1
  -GOLD-   22720 5413D 1   1.00000     0.00000
 Structure written by MMmdl.
 38 39  0  0  0  0  0  0  0  0  2 V2000
  150.9375  141.1480  155.8882 C   0  0  0  0  0  0  0  0  0  0  0  0
  151.3973  139.7581  155.6081 C   0  0  0  0  0  0  0  0  0  0  0  0
  150.7804  138.5424  155.6951 C   0  0  0  0  0  0  0  0  0  0  0  0
  151.7949  137.6329  155.2889 C   0  0  0  0  0  0  0  0  0  0  0  0
  151.6680  136.3001  155.1970 N   0  5  0  0  0  0  0  0  0  0  0  0
  150.4407  135.7302  155.2149 C   0  0  0  0  0  0  0  0  0  0  0  0
  149.5210  136.0005  155.9910 O   0  0  0  0  0  0  0  0  0  0  0  0
  150.2681  134.7898  154.2742 N   0  0  0  0  0  0  0  0  0  0  0  0
  149.0518  134.0127  154.0502 C   0  0  0  0  0  0  0  0  0  0  0  0
  149.2050  133.0884  152.8319 C   0  0  0  0  0  0  0  0  0  0  0  0
  147.8853  132.3630  152.5128 C   0  0  0  0  0  0  0  0  0  0  0  0
  146.8018  133.3298  152.2768 N   0  0  0  0  0  0  0  0  0  0  0  0
  145.5259  132.6703  151.9151 C   0  0  0  0  0  0  0  0  0  0  0  0
  144.4689  133.6057  151.3177 C   0  0  0  0  0  0  0  0  0  0  0  0
  143.3747  133.0367  150.8053 N   0  0  0  0  0  0  0  0  0  0  0  0
  144.6420  134.8225  151.3135 O   0  0  0  0  0  0  0  0  0  0  0  0
  146.5923  134.1578  153.4694 C   0  0  0  0  0  0  0  0  0  0  0  0
  147.8639  134.9536  153.8108 C   0  0  0  0  0  0  0  0  0  0  0  0
  152.9220  138.2448  154.9656 N   0  0  0  0  0  0  0  0  0  0  0  0
  152.6775  139.6076  155.1742 O   0  0  0  0  0  0  0  0  0  0  0  0
  150.1011  141.4146  155.2422 H   0  0  0  0  0  0  0  0  0  0  0  0
  151.7377  141.8691  155.7198 H   0  0  0  0  0  0  0  0  0  0  0  0
  150.6097  141.2435  156.9234 H   0  0  0  0  0  0  0  0  0  0  0  0
  149.7674  138.3346  156.0049 H   0  0  0  0  0  0  0  0  0  0  0  0
  151.0491  134.5998  153.6635 H   0  0  0  0  0  0  0  0  0  0  0  0
  148.8372  133.4092  154.9345 H   0  0  0  0  0  0  0  0  0  0  0  0
  149.5201  133.6677  151.9625 H   0  0  0  0  0  0  0  0  0  0  0  0
  149.9911  132.3547  153.0142 H   0  0  0  0  0  0  0  0  0  0  0  0
  148.0487  131.7387  151.6345 H   0  0  0  0  0  0  0  0  0  0  0  0
  147.6179  131.6915  153.3306 H   0  0  0  0  0  0  0  0  0  0  0  0
  145.7180  131.8570  151.2125 H   0  0  0  0  0  0  0  0  0  0  0  0
  145.0877  132.2130  152.8035 H   0  0  0  0  0  0  0  0  0  0  0  0
  142.6559  133.6138  150.3933 H   0  0  0  0  0  0  0  0  0  0  0  0
  143.2750  132.0322  150.8243 H   0  0  0  0  0  0  0  0  0  0  0  0
  145.7763  134.8599  153.2934 H   0  0  0  0  0  0  0  0  0  0  0  0
  146.2983  133.5363  154.3172 H   0  0  0  0  0  0  0  0  0  0  0  0
  147.6884  135.5656  154.6962 H   0  0  0  0  0  0  0  0  0  0  0  0
  148.0906  135.6443  152.9968 H   0  0  0  0  0  0  0  0  0  0  0  0
  1  2  1  0  0  0  0
  1 21  1  0  0  0  0
  1 22  1  0  0  0  0
  1 23  1  0  0  0  0
  2 20  1  0  0  0  0
  2  3  2  0  0  0  0
  3  4  1  0  0  0  0
  3 24  1  0  0  0  0
  4  5  1  0  0  0  0
  4 19  2  0  0  0  0
  5  6  1  0  0  0  0
  6  7  2  0  0  0  0
  6  8  1  0  0  0  0
  8  9  1  0  0  0  0
  8 25  1  0  0  0  0
  9 18  1  0  0  0  0
  9 10  1  0  0  0  0
  9 26  1  0  0  0  0
 10 11  1  0  0  0  0
 10 27  1  0  0  0  0
 10 28  1  0  0  0  0
 11 12  1  0  0  0  0
 11 29  1  0  0  0  0
 11 30  1  0  0  0  0
 12 13  1  0  0  0  0
 12 17  1  0  0  0  0
 13 14  1  0  0  0  0
 13 31  1  0  0  0  0
 13 32  1  0  0  0  0
 14 15  1  0  0  0  0
 14 16  2  0  0  0  0
 15 33  1  0  0  0  0
 15 34  1  0  0  0  0
 17 18  1  0  0  0  0
 17 35  1  0  0  0  0
 17 36  1  0  0  0  0
 18 37  1  0  0  0  0
 18 38  1  0  0  0  0
 19 20  1  0  0  0  0
M  CHG  1   5  -1
M  END
> <s_m_source_file>
AV-unprocessed.smi

> <i_m_source_file_index>
1417

> <i_lp_mmshare_version>
43012

> <i_f3d_flags>
0

> <s_epik_input>
W0NIM11jMVtjSF1jKG5vMSlbTkhdQyg9TylbTkhdW0NIXTJbQ0gyXVtDSDJdTihbQ0gyXVtDSDJdMilbQ0gyXUMoPU8pW05IMl0=

> <s_epik_cmdline>
J2VwaWtfcHl0aG9uJywgJy1waCcsICc3LjAnLCAnLXRuJywgJzgnLCAnLW1hJywgJzIwMCcsICctbWV0YWxfYmluZGluZycsICctaW1hZScsICc8aW5maWxlLm1hZT4nLCAnLW9tYWUnLCAnPG91dGZpbGUubWFlPic=

> <r_epik_Ionization_Penalty>
6.76533

> <r_epik_Ionization_Penalty_Charging>
6.59228

> <r_epik_Ionization_Penalty_Neutral>
0.17305

> <r_epik_State_Penalty>
6.73737

> <r_epik_Charging_Adjusted_Penalty>
13.3296

> <i_epik_Tot_Q>
-1

> <i_epik_Tot_abs_Q>
1

> <r_epik_Metal_State_Penalty>
2.67929

> <b_epik_Metal_Only>
1

> <s_lp_Force_Field>
OPLS_2005

> <r_lp_Energy>
4.40981

> <b_lp_Chiralities_Consistent>
1

> <s_lp_Variant>
AV-unprocessed.smi:1417-4

> <Gold.Version>
5.8.1

> <Gold.Id.Protein>
6NUR|6NUR_protein|mol2

> <Gold.PLP.Fitness>
38.3864

> <Gold.PLP.PLP>
-27.4914

> <Gold.PLP.part.hbond>
-5.0825

> <Gold.PLP.part.metal>
0.0000

> <Gold.PLP.part.buried>
-2.6509

> <Gold.PLP.part.nonpolar>
-20.0479

> <Gold.PLP.part.repulsive>
0.4818

> <Gold.PLP.ligand.clash>
0.0000

> <Gold.PLP.ligand.torsion>
0.6099

> <Gold.PLP.Chemscore.Hbond>
4.0000

> <Gold.PLP.Chemscore.CHOScore>
0.0000

> <Gold.PLP.Chemscore.Metal>
0.0000

> <Gold.Chemscore.Hbonds>
donor molecule, donor type, donor heavy atom, donor atom, acceptor molecule, acceptor atom, score
      L1  H    15    33       P1 10186  1.00
      P1  H  7997  8008       L1    20  1.00
      P1  H 10752 10764       L1     5  2.00

> <Gold.PLP.Chemscore.Internal.Correction>
0.1149

> <Gold.Rescore>
     Score         DG    S(hbond)    S(metal)    S(lipo)     H(rot)  DE(clash)    DE(int)     intcor
     10.77     -14.38       2.67        0.00      43.45       2.00       1.24       2.37       ----

> <Gold.Chemscore.Fitness>
10.7656

> <Gold.Chemscore.DG>
-14.3804

> <Gold.Chemscore.ZeroCoef>
-5.4800

> <Gold.Chemscore.Hbond>
2.6736

> <Gold.Chemscore.Metal>
0.0000

> <Gold.Chemscore.Lipo>
43.4509

> <Gold.Chemscore.Internal_Hbond>
0.0000

> <Gold.Chemscore.DEClash>
1.2436

> <Gold.Chemscore.DEInternal>
2.3711

> <Gold.Chemscore.Rot>
1.9973

> <Gold.Chemscore.Internal.Correction>
   9.000000E+99

> <Gold.Chemscore.Hbonds>
donor molecule, donor type, donor heavy atom, donor atom, acceptor molecule, acceptor atom, score
      L1  H    15    33       P1 10186  0.94
      P1  H  7997  8008       L1    20  0.29
      P1  H 10752 10764       L1     5  0.83

> <Gold.Chemscore.Hbond.Weighted>
-8.9297

> <Gold.Chemscore.Metal.Weighted>
-0.0000

> <Gold.Chemscore.Lipo.Weighted>
-5.0838

> <Gold.Chemscore.Internal_Hbond.Weighted>
0.0000

> <Gold.Chemscore.DEClash.Weighted>
1.2436

> <Gold.Chemscore.DEInternal.Weighted>
2.3711

> <Gold.Chemscore.Rot.Weighted>
5.1131

> <Gold.Chemscore.Internal.Correction.Weighted>
   9.000000E+99

> <Gold.Protein.RotatedTorsions>
[ 6907 6896 6895 6894 ] final  104.97 input  -60.11 | X-H torsion
[ 7974 7965 7964 7962 ] final  -49.36 input  175.53 | X-H torsion
[ 8008 7997 7996 7995 ] final  -25.46 input   59.86 | X-H torsion
[ 10167 10162 10161 10158 ] final   33.71 input  -65.29 | X-H torsion
[ 10718 10713 10712 10709 ] final   87.18 input   66.30 | X-H torsion
[ 10763 10752 10751 10750 ] final  -66.33 input  -60.55 | X-H torsion
[ 11005 11000 10999 10996 ] final -177.40 input  -57.11 | X-H torsion

> <Gold.Protein.ActiveResidues>
 VAL166  LYS551  ARG553  GLY616  TRP617  ASP618  TYR619  PRO620  LYS621  CYS622 
 ASP623  PHE694  ASN695  SER759  ASP760  ASP761  ALA762  ILE779  LEU786  VAL792 
 PHE793  MET794  SER795  GLU796  ALA797  LYS798  CYS799  TRP800  GLU811  SER814 

> <Gold.Protein.RotatedAtoms>
  152.5246  133.9598  159.7711 H   0  0  0  0  0  0  0  0  0  0  0  0  # atno 6907 bound_to 6896
  150.9891  133.6160  159.2718 H   0  0  0  0  0  0  0  0  0  0  0  0  # atno 6908 bound_to 6896
  151.3310  135.0847  159.9391 H   0  0  0  0  0  0  0  0  0  0  0  0  # atno 6909 bound_to 6896
  145.9414  140.7659  142.9550 H   0  0  0  0  0  0  0  0  0  0  0  0  # atno 7974 bound_to 7965
  154.4475  140.1926  156.0622 H   0  0  0  0  0  0  0  0  0  0  0  0  # atno 8008 bound_to 7997
  156.0574  140.3301  155.7394 H   0  0  0  0  0  0  0  0  0  0  0  0  # atno 8009 bound_to 7997
  155.5464  140.0591  157.2850 H   0  0  0  0  0  0  0  0  0  0  0  0  # atno 8010 bound_to 7997
  140.4382  144.1226  150.6169 H   0  0  0  0  0  0  0  0  0  0  0  0  # atno 10167 bound_to 10162
  157.6937  131.0245  150.3084 H   0  0  0  0  0  0  0  0  0  0  0  0  # atno 10718 bound_to 10713
  154.3582  135.6122  153.5677 H   0  0  0  0  0  0  0  0  0  0  0  0  # atno 10763 bound_to 10752
  152.9795  135.5808  154.4664 H   0  0  0  0  0  0  0  0  0  0  0  0  # atno 10764 bound_to 10752
  154.4397  135.2850  155.1833 H   0  0  0  0  0  0  0  0  0  0  0  0  # atno 10765 bound_to 10752
  140.4414  134.6428  157.4759 H   0  0  0  0  0  0  0  0  0  0  0  0  # atno 11005 bound_to 11000
  144.6780  140.2286  143.7358 LP  0  0  0  0  0  0  0  0  0  0  0  0  # atno 17320 bound_to 7965
  145.8295  139.2079  143.1891 LP  0  0  0  0  0  0  0  0  0  0  0  0  # atno 17321 bound_to 7965
  140.4349  143.2552  151.9548 LP  0  0  0  0  0  0  0  0  0  0  0  0  # atno 17342 bound_to 10162
  139.4788  144.5709  151.8089 LP  0  0  0  0  0  0  0  0  0  0  0  0  # atno 17343 bound_to 10162
  156.3589  130.3843  149.7267 LP  0  0  0  0  0  0  0  0  0  0  0  0  # atno 17370 bound_to 10713
  156.4720  130.8001  151.3019 LP  0  0  0  0  0  0  0  0  0  0  0  0  # atno 17371 bound_to 10713
  140.0068  134.6752  155.9443 LP  0  0  0  0  0  0  0  0  0  0  0  0  # atno 17394 bound_to 11000
  141.1704  133.6537  156.4631 LP  0  0  0  0  0  0  0  0  0  0  0  0  # atno 17395 bound_to 11000

$$$$
