AV-unprocessed.smi:1965|AV-procd|sdf|7946|dock5
  -GOLD-   2272010113D 1   1.00000     0.00000
 Structure written by MMmdl.
 36 38  0  0  0  0  0  0  0  0  3 V2000
  149.7479  137.5269  157.5356 O   0  0  0  0  0  0  0  0  0  0  0  0
  149.2135  136.6062  158.1522 C   0  0  0  0  0  0  0  0  0  0  0  0
  149.5033  136.3047  159.4444 N   0  5  0  0  0  0  0  0  0  0  0  0
  148.5518  136.0374  160.3578 C   0  0  0  0  0  0  0  0  0  0  0  0
  148.2708  136.8524  161.3811 N   0  0  0  0  0  0  0  0  0  0  0  0
  147.2476  136.3776  162.2038 C   0  0  0  0  0  0  0  0  0  0  0  0
  146.7375  135.1737  161.7964 C   0  0  0  0  0  0  0  0  0  0  0  0
  147.5272  134.6000  160.3556 S   0  0  0  0  0  0  0  0  0  0  0  0
  148.2998  135.8456  157.5190 N   0  0  0  0  0  0  0  0  0  0  0  0
  147.8807  135.9964  156.1296 C   0  0  2  0  0  0  0  0  0  0  0  0
  146.3917  135.7551  155.9199 C   0  0  0  0  0  0  0  0  0  0  0  0
  146.2946  135.4870  154.4146 C   0  0  0  0  0  0  0  0  0  0  0  0
  147.6118  134.9546  153.9860 N   0  3  2  0  0  0  0  0  0  0  0  0
  147.5372  133.6463  153.2822 C   0  0  0  0  0  0  0  0  0  0  0  0
  148.9134  132.9661  153.2365 C   0  0  0  0  0  0  0  0  0  0  0  0
  149.4366  132.6603  154.6527 C   0  0  0  0  0  0  0  0  0  0  0  0
  148.8277  133.5902  155.7199 C   0  0  0  0  0  0  0  0  0  0  0  0
  148.5367  135.0022  155.1533 C   0  0  2  0  0  0  0  0  0  0  0  0
  146.9455  136.9627  163.0596 H   0  0  0  0  0  0  0  0  0  0  0  0
  145.9475  134.5948  162.2504 H   0  0  0  0  0  0  0  0  0  0  0  0
  147.8772  135.0949  158.0457 H   0  0  0  0  0  0  0  0  0  0  0  0
  148.1018  137.0143  155.8008 H   0  0  0  0  0  0  0  0  0  0  0  0
  146.0702  134.8721  156.4746 H   0  0  0  0  0  0  0  0  0  0  0  0
  145.7756  136.5961  156.2405 H   0  0  0  0  0  0  0  0  0  0  0  0
  145.4639  134.8199  154.1807 H   0  0  0  0  0  0  0  0  0  0  0  0
  146.1215  136.4207  153.8787 H   0  0  0  0  0  0  0  0  0  0  0  0
  146.8305  132.9858  153.7879 H   0  0  0  0  0  0  0  0  0  0  0  0
  147.1533  133.8074  152.2743 H   0  0  0  0  0  0  0  0  0  0  0  0
  148.8687  132.0484  152.6494 H   0  0  0  0  0  0  0  0  0  0  0  0
  149.6165  133.6227  152.7219 H   0  0  0  0  0  0  0  0  0  0  0  0
  149.2165  131.6260  154.9186 H   0  0  0  0  0  0  0  0  0  0  0  0
  150.5236  132.7487  154.6563 H   0  0  0  0  0  0  0  0  0  0  0  0
  147.9002  133.1538  156.0934 H   0  0  0  0  0  0  0  0  0  0  0  0
  149.5033  133.6377  156.5743 H   0  0  0  0  0  0  0  0  0  0  0  0
  149.4855  135.4202  154.8135 H   0  0  0  0  0  0  0  0  0  0  0  0
  147.9816  135.6201  153.3225 H   0  0  0  0  0  0  0  0  0  0  0  0
  1  2  2  0  0  0  0
  2  3  1  0  0  0  0
  2  9  1  0  0  0  0
  3  4  1  0  0  0  0
  4  8  1  0  0  0  0
  4  5  2  0  0  0  0
  5  6  1  0  0  0  0
  6  7  2  0  0  0  0
  6 19  1  0  0  0  0
  7  8  1  0  0  0  0
  7 20  1  0  0  0  0
  9 10  1  0  0  0  0
  9 21  1  0  0  0  0
 10 18  1  0  0  0  0
 10 11  1  0  0  0  0
 10 22  1  0  0  0  0
 11 12  1  0  0  0  0
 11 23  1  0  0  0  0
 11 24  1  0  0  0  0
 12 13  1  0  0  0  0
 12 25  1  0  0  0  0
 12 26  1  0  0  0  0
 13 18  1  0  0  0  0
 13 14  1  0  0  0  0
 13 36  1  0  0  0  0
 14 15  1  0  0  0  0
 14 27  1  0  0  0  0
 14 28  1  0  0  0  0
 15 16  1  0  0  0  0
 15 29  1  0  0  0  0
 15 30  1  0  0  0  0
 16 17  1  0  0  0  0
 16 31  1  0  0  0  0
 16 32  1  0  0  0  0
 17 18  1  0  0  0  0
 17 33  1  0  0  0  0
 17 34  1  0  0  0  0
 18 35  1  0  0  0  0
M  CHG  1   3  -1
M  CHG  1  13   1
M  END
> <s_m_source_file>
AV-unprocessed.smi

> <i_m_source_file_index>
1965

> <i_lp_mmshare_version>
43012

> <i_f3d_flags>
0

> <s_epik_input>
czFbY0hdW2NIXW5jMVtOSF1DKD1PKVtOSF1bQ0BIXShbQ0gyXVtDSDJdMilbQ0BASF0oTjIzKVtDSDJdW0NIMl1bQ0gyXVtDSDJdMw==

> <s_epik_cmdline>
J2VwaWtfcHl0aG9uJywgJy1waCcsICc3LjAnLCAnLXRuJywgJzgnLCAnLW1hJywgJzIwMCcsICctbWV0YWxfYmluZGluZycsICctaW1hZScsICc8aW5maWxlLm1hZT4nLCAnLW9tYWUnLCAnPG91dGZpbGUubWFlPic=

> <r_lp_tautomer_probability>
1

> <r_epik_Ionization_Penalty>
7.4116

> <r_epik_Ionization_Penalty_Charging>
6.13869

> <r_epik_Ionization_Penalty_Neutral>
1.27291

> <r_epik_State_Penalty>
6.13761

> <r_epik_Charging_Adjusted_Penalty>
12.2763

> <i_epik_Tot_Q>
0

> <i_epik_Tot_abs_Q>
2

> <r_epik_Metal_State_Penalty>
2.08142

> <b_epik_Metal_Only>
1

> <s_lp_Force_Field>
OPLS_2005

> <r_lp_Energy>
32.0333

> <b_lp_Chiralities_Consistent>
1

> <s_lp_Variant>
AV-unprocessed.smi:1965-15

> <Gold.Version>
5.8.1

> <Gold.Id.Protein>
6NUR|6NUR_protein|mol2

> <Gold.PLP.Fitness>
37.2778

> <Gold.PLP.PLP>
-24.8888

> <Gold.PLP.part.hbond>
-3.4913

> <Gold.PLP.part.metal>
0.0000

> <Gold.PLP.part.buried>
-3.5949

> <Gold.PLP.part.nonpolar>
-18.1436

> <Gold.PLP.part.repulsive>
0.0362

> <Gold.PLP.ligand.clash>
0.0000

> <Gold.PLP.ligand.torsion>
1.3209

> <Gold.PLP.Chemscore.Hbond>
5.0091

> <Gold.PLP.Chemscore.CHOScore>
0.0000

> <Gold.PLP.Chemscore.Metal>
0.0000

> <Gold.Chemscore.Hbonds>
donor molecule, donor type, donor heavy atom, donor atom, acceptor molecule, acceptor atom, score
      L1  H    13    36       P1  7948  2.00
      P1  H  6896  6908       L1     3  2.00
      P1  H  6931  6943       L1     5  1.00

> <Gold.PLP.Chemscore.Internal.Correction>
0.0034

> <Gold.Rescore>
     Score         DG    S(hbond)    S(metal)    S(lipo)     H(rot)  DE(clash)    DE(int)     intcor
     16.41     -17.73       2.70        0.00      49.54       1.00       0.04       1.28       ----

> <Gold.Chemscore.Fitness>
16.4052

> <Gold.Chemscore.DG>
-17.7294

> <Gold.Chemscore.ZeroCoef>
-5.4800

> <Gold.Chemscore.Hbond>
2.6984

> <Gold.Chemscore.Metal>
0.0000

> <Gold.Chemscore.Lipo>
49.5433

> <Gold.Chemscore.Internal_Hbond>
0.0000

> <Gold.Chemscore.DEClash>
0.0421

> <Gold.Chemscore.DEInternal>
1.2820

> <Gold.Chemscore.Rot>
1.0000

> <Gold.Chemscore.Internal.Correction>
   9.000000E+99

> <Gold.Chemscore.Hbonds>
donor molecule, donor type, donor heavy atom, donor atom, acceptor molecule, acceptor atom, score
      L1  H    13    36       P1  7948  0.99
      P1  H  6896  6908       L1     3  0.41
      P1  H  6931  6943       L1     5  0.93

> <Gold.Chemscore.Hbond.Weighted>
-9.0128

> <Gold.Chemscore.Metal.Weighted>
-0.0000

> <Gold.Chemscore.Lipo.Weighted>
-5.7966

> <Gold.Chemscore.Internal_Hbond.Weighted>
0.0000

> <Gold.Chemscore.DEClash.Weighted>
0.0421

> <Gold.Chemscore.DEInternal.Weighted>
1.2820

> <Gold.Chemscore.Rot.Weighted>
2.5600

> <Gold.Chemscore.Internal.Correction.Weighted>
   9.000000E+99

> <Gold.Protein.RotatedTorsions>
[ 6907 6896 6895 6894 ] final -168.70 input  -60.11 | X-H torsion
[ 7974 7965 7964 7962 ] final  133.65 input  175.53 | X-H torsion
[ 8008 7997 7996 7995 ] final  -68.61 input   59.86 | X-H torsion
[ 10167 10162 10161 10158 ] final -106.20 input  -65.29 | X-H torsion
[ 10718 10713 10712 10709 ] final -164.40 input   66.30 | X-H torsion
[ 10763 10752 10751 10750 ] final -154.60 input  -60.55 | X-H torsion
[ 11005 11000 10999 10996 ] final  159.14 input  -57.11 | X-H torsion

> <Gold.Protein.ActiveResidues>
 VAL166  LYS551  ARG553  GLY616  TRP617  ASP618  TYR619  PRO620  LYS621  CYS622 
 ASP623  PHE694  ASN695  SER759  ASP760  ASP761  ALA762  ILE779  LEU786  VAL792 
 PHE793  MET794  SER795  GLU796  ALA797  LYS798  CYS799  TRP800  GLU811  SER814 

> <Gold.Protein.RotatedAtoms>
  151.4798  133.3549  159.2836 H   0  0  0  0  0  0  0  0  0  0  0  0  # atno 6907 bound_to 6896
  150.8905  134.8310  159.7300 H   0  0  0  0  0  0  0  0  0  0  0  0  # atno 6908 bound_to 6896
  152.4820  134.4707  159.9686 H   0  0  0  0  0  0  0  0  0  0  0  0  # atno 6909 bound_to 6896
  144.9843  139.4472  143.5371 H   0  0  0  0  0  0  0  0  0  0  0  0  # atno 7974 bound_to 7965
  154.4880  140.0869  156.7530 H   0  0  0  0  0  0  0  0  0  0  0  0  # atno 8008 bound_to 7997
  155.4302  140.3449  155.4261 H   0  0  0  0  0  0  0  0  0  0  0  0  # atno 8009 bound_to 7997
  156.1289  140.1495  156.9083 H   0  0  0  0  0  0  0  0  0  0  0  0  # atno 8010 bound_to 7997
  140.1903  143.3897  152.1212 H   0  0  0  0  0  0  0  0  0  0  0  0  # atno 10167 bound_to 10162
  156.6385  130.8959  151.2991 H   0  0  0  0  0  0  0  0  0  0  0  0  # atno 10718 bound_to 10713
  154.7847  135.3186  154.7912 H   0  0  0  0  0  0  0  0  0  0  0  0  # atno 10763 bound_to 10752
  153.8615  135.6853  153.4787 H   0  0  0  0  0  0  0  0  0  0  0  0  # atno 10764 bound_to 10752
  153.1495  135.4705  154.9554 H   0  0  0  0  0  0  0  0  0  0  0  0  # atno 10765 bound_to 10752
  140.1933  134.8391  157.2937 H   0  0  0  0  0  0  0  0  0  0  0  0  # atno 11005 bound_to 11000
  146.3416  139.9135  142.8777 LP  0  0  0  0  0  0  0  0  0  0  0  0  # atno 17320 bound_to 7965
  145.2376  140.9997  143.3954 LP  0  0  0  0  0  0  0  0  0  0  0  0  # atno 17321 bound_to 7965
  139.5259  144.7101  151.5233 LP  0  0  0  0  0  0  0  0  0  0  0  0  # atno 17342 bound_to 10162
  140.6460  143.8793  150.6738 LP  0  0  0  0  0  0  0  0  0  0  0  0  # atno 17343 bound_to 10162
  157.7178  130.9519  150.1321 LP  0  0  0  0  0  0  0  0  0  0  0  0  # atno 17370 bound_to 10713
  156.2177  130.3671  149.8593 LP  0  0  0  0  0  0  0  0  0  0  0  0  # atno 17371 bound_to 10713
  140.2135  134.4110  155.7601 LP  0  0  0  0  0  0  0  0  0  0  0  0  # atno 17394 bound_to 11000
  141.2226  133.7130  156.8376 LP  0  0  0  0  0  0  0  0  0  0  0  0  # atno 17395 bound_to 11000

$$$$
