AV-unprocessed.smi:2189|AV-procd|sdf|8884|dock9
  -GOLD-   2272012 83D 1   1.00000     0.00000
 Structure written by MMmdl.
 39 41  0  0  0  0  0  0  0  0  1 V2000
  155.1863  139.6333  159.0635 O   0  0  0  0  0  0  0  0  0  0  0  0
  154.6810  140.2495  160.0033 C   0  0  0  0  0  0  0  0  0  0  0  0
  155.0782  140.0435  161.2740 N   0  0  0  0  0  0  0  0  0  0  0  0
  156.0957  139.0913  161.7130 C   0  0  0  0  0  0  0  0  0  0  0  0
  155.7908  137.6538  161.2494 C   0  0  0  0  0  0  0  0  0  0  0  0
  155.1456  136.7907  162.3203 C   0  0  0  0  0  0  0  0  0  0  0  0
  154.5040  137.3774  163.4327 C   0  0  0  0  0  0  0  0  0  0  0  0
  153.9005  136.5302  164.3820 C   0  0  0  0  0  0  0  0  0  0  0  0
  153.9648  135.1372  164.1864 C   0  0  0  0  0  0  0  0  0  0  0  0
  154.6318  134.6511  163.0442 C   0  0  0  0  0  0  0  0  0  0  0  0
  155.2132  135.4542  162.1275 N   0  0  0  0  0  0  0  0  0  0  0  0
  153.6087  141.2530  159.8767 C   0  0  0  0  0  0  0  0  0  0  0  0
  153.4827  142.2087  160.8355 C   0  0  0  0  0  0  0  0  0  0  0  0
  152.4672  143.2298  160.7610 C   0  0  0  0  0  0  0  0  0  0  0  0
  151.6133  143.1932  159.7327 C   0  0  0  0  0  0  0  0  0  0  0  0
  151.6583  142.2185  158.7373 N   0  0  0  0  0  0  0  0  0  0  0  0
  150.5913  142.2393  157.7424 C   0  0  0  0  0  0  0  0  0  0  0  0
  151.1489  141.9446  156.3620 C   0  0  0  0  0  0  0  0  0  0  0  0
  151.8077  140.2408  156.4423 S   0  0  0  0  0  0  0  0  0  0  0  0
  150.6981  139.3385  156.7877 O   0  0  0  0  0  0  0  0  0  0  0  0
  152.5851  139.9939  155.2185 O   0  0  0  0  0  0  0  0  0  0  0  0
  152.8388  140.3743  157.7557 N   0  0  0  0  0  0  0  0  0  0  0  0
  152.6836  141.2314  158.7250 C   0  0  0  0  0  0  0  0  0  0  0  0
  154.6292  140.5871  161.9967 H   0  0  0  0  0  0  0  0  0  0  0  0
  157.0880  139.3970  161.3771 H   0  0  0  0  0  0  0  0  0  0  0  0
  156.1247  139.1190  162.8023 H   0  0  0  0  0  0  0  0  0  0  0  0
  155.1296  137.6853  160.3824 H   0  0  0  0  0  0  0  0  0  0  0  0
  156.7090  137.1741  160.9079 H   0  0  0  0  0  0  0  0  0  0  0  0
  154.4642  138.4503  163.5508 H   0  0  0  0  0  0  0  0  0  0  0  0
  153.3958  136.9416  165.2436 H   0  0  0  0  0  0  0  0  0  0  0  0
  153.5132  134.4570  164.8932 H   0  0  0  0  0  0  0  0  0  0  0  0
  154.7009  133.5887  162.8623 H   0  0  0  0  0  0  0  0  0  0  0  0
  154.1374  142.2309  161.6951 H   0  0  0  0  0  0  0  0  0  0  0  0
  152.4002  144.0031  161.5121 H   0  0  0  0  0  0  0  0  0  0  0  0
  150.8319  143.9312  159.6218 H   0  0  0  0  0  0  0  0  0  0  0  0
  149.8270  141.5119  158.0178 H   0  0  0  0  0  0  0  0  0  0  0  0
  150.1013  143.2133  157.7220 H   0  0  0  0  0  0  0  0  0  0  0  0
  150.3757  141.9856  155.5951 H   0  0  0  0  0  0  0  0  0  0  0  0
  151.9496  142.6316  156.0857 H   0  0  0  0  0  0  0  0  0  0  0  0
  1  2  2  0  0  0  0
  2  3  1  0  0  0  0
  2 12  1  0  0  0  0
  3  4  1  0  0  0  0
  3 24  1  0  0  0  0
  4  5  1  0  0  0  0
  4 25  1  0  0  0  0
  4 26  1  0  0  0  0
  5  6  1  0  0  0  0
  5 27  1  0  0  0  0
  5 28  1  0  0  0  0
  6 11  1  0  0  0  0
  6  7  2  0  0  0  0
  7  8  1  0  0  0  0
  7 29  1  0  0  0  0
  8  9  2  0  0  0  0
  8 30  1  0  0  0  0
  9 10  1  0  0  0  0
  9 31  1  0  0  0  0
 10 11  2  0  0  0  0
 10 32  1  0  0  0  0
 12 23  1  0  0  0  0
 12 13  2  0  0  0  0
 13 14  1  0  0  0  0
 13 33  1  0  0  0  0
 14 15  2  0  0  0  0
 14 34  1  0  0  0  0
 15 16  1  0  0  0  0
 15 35  1  0  0  0  0
 16 23  1  0  0  0  0
 16 17  1  0  0  0  0
 17 18  1  0  0  0  0
 17 36  1  0  0  0  0
 17 37  1  0  0  0  0
 18 19  1  0  0  0  0
 18 38  1  0  0  0  0
 18 39  1  0  0  0  0
 19 20  2  0  0  0  0
 19 21  2  0  0  0  0
 19 22  1  0  0  0  0
 22 23  2  0  0  0  0
M  END
> <s_m_source_file>
AV-unprocessed.smi

> <i_m_source_file_index>
2189

> <i_lp_mmshare_version>
43012

> <i_f3d_flags>
0

> <s_epik_input>
W0NIMl0xW0NIMl1TKD1PKSg9TylOPUMoTjEyKUMoPVtDSF1bQ0hdPVtDSF0yKUMoPU8pW05IXVtDSDJdW0NIMl1jM1tjSF1bY0hdW2NIXVtjSF1uMw==

> <s_epik_cmdline>
J2VwaWtfcHl0aG9uJywgJy1waCcsICc3LjAnLCAnLXRuJywgJzgnLCAnLW1hJywgJzIwMCcsICctbWV0YWxfYmluZGluZycsICctaW1hZScsICc8aW5maWxlLm1hZT4nLCAnLW9tYWUnLCAnPG91dGZpbGUubWFlPic=

> <r_epik_Ionization_Penalty>
0.0177355

> <r_epik_Ionization_Penalty_Charging>
8.06468e-09

> <r_epik_Ionization_Penalty_Neutral>
0.0177355

> <r_epik_State_Penalty>
0.0140338

> <r_epik_Charging_Adjusted_Penalty>
0.0140338

> <i_epik_Tot_Q>
0

> <i_epik_Tot_abs_Q>
0

> <r_epik_Metal_State_Penalty>
0.0535636

> <b_epik_Metal_Only>
0

> <s_lp_Force_Field>
OPLS_2005

> <r_lp_Energy>
27.3768

> <b_lp_Chiralities_Consistent>
1

> <s_lp_Variant>
AV-unprocessed.smi:2189-1

> <Gold.Version>
5.8.1

> <Gold.Id.Protein>
6NUR|6NUR_protein|mol2

> <Gold.PLP.Fitness>
49.2094

> <Gold.PLP.PLP>
-44.5431

> <Gold.PLP.part.hbond>
-3.9175

> <Gold.PLP.part.metal>
0.0000

> <Gold.PLP.part.buried>
-3.7837

> <Gold.PLP.part.nonpolar>
-35.6632

> <Gold.PLP.part.repulsive>
0.0110

> <Gold.PLP.ligand.clash>
0.9029

> <Gold.PLP.ligand.torsion>
0.8185

> <Gold.PLP.Chemscore.Hbond>
2.3420

> <Gold.PLP.Chemscore.CHOScore>
0.0000

> <Gold.PLP.Chemscore.Metal>
0.0000

> <Gold.Chemscore.Hbonds>
donor molecule, donor type, donor heavy atom, donor atom, acceptor molecule, acceptor atom, score
      P1  H  7989  7998       L1    21  0.43
      P1  H  7997  8008       L1     1  1.00
      P1  H  7997  8009       L1    21  1.00

> <Gold.PLP.Chemscore.Internal.Correction>
0.1803

> <Gold.Rescore>
     Score         DG    S(hbond)    S(metal)    S(lipo)     H(rot)  DE(clash)    DE(int)     intcor
     17.82     -20.10       1.87        0.00     103.67       1.47       0.09       2.19       ----

> <Gold.Chemscore.Fitness>
17.8233

> <Gold.Chemscore.DG>
-20.1009

> <Gold.Chemscore.ZeroCoef>
-5.4800

> <Gold.Chemscore.Hbond>
1.8711

> <Gold.Chemscore.Metal>
0.0000

> <Gold.Chemscore.Lipo>
103.6686

> <Gold.Chemscore.Internal_Hbond>
0.0000

> <Gold.Chemscore.DEClash>
0.0886

> <Gold.Chemscore.DEInternal>
2.1890

> <Gold.Chemscore.Rot>
1.4679

> <Gold.Chemscore.Internal.Correction>
   9.000000E+99

> <Gold.Chemscore.Hbonds>
donor molecule, donor type, donor heavy atom, donor atom, acceptor molecule, acceptor atom, score
      P1  H  7989  7998       L1    21  0.34
      P1  H  7997  8008       L1     1  1.00
      P1  H  7997  8009       L1    21  0.25

> <Gold.Chemscore.Hbond.Weighted>
-6.2495

> <Gold.Chemscore.Metal.Weighted>
-0.0000

> <Gold.Chemscore.Lipo.Weighted>
-12.1292

> <Gold.Chemscore.Internal_Hbond.Weighted>
0.0000

> <Gold.Chemscore.DEClash.Weighted>
0.0886

> <Gold.Chemscore.DEInternal.Weighted>
2.1890

> <Gold.Chemscore.Rot.Weighted>
3.7578

> <Gold.Chemscore.Internal.Correction.Weighted>
   9.000000E+99

> <Gold.Protein.RotatedTorsions>
[ 6907 6896 6895 6894 ] final -141.16 input  -60.11 | X-H torsion
[ 7974 7965 7964 7962 ] final   81.01 input  175.53 | X-H torsion
[ 8008 7997 7996 7995 ] final -138.31 input   59.86 | X-H torsion
[ 10167 10162 10161 10158 ] final   11.69 input  -65.29 | X-H torsion
[ 10718 10713 10712 10709 ] final    5.99 input   66.30 | X-H torsion
[ 10763 10752 10751 10750 ] final -145.96 input  -60.55 | X-H torsion
[ 11005 11000 10999 10996 ] final -123.78 input  -57.11 | X-H torsion

> <Gold.Protein.ActiveResidues>
 VAL166  LYS551  ARG553  GLY616  TRP617  ASP618  TYR619  PRO620  LYS621  CYS622 
 ASP623  PHE694  ASN695  SER759  ASP760  ASP761  ALA762  ILE779  LEU786  VAL792 
 PHE793  MET794  SER795  GLU796  ALA797  LYS798  CYS799  TRP800  GLU811  SER814 

> <Gold.Protein.RotatedAtoms>
  151.0702  133.5473  159.2627 H   0  0  0  0  0  0  0  0  0  0  0  0  # atno 6907 bound_to 6896
  151.2415  135.0590  159.9037 H   0  0  0  0  0  0  0  0  0  0  0  0  # atno 6908 bound_to 6896
  152.5410  134.0476  159.8149 H   0  0  0  0  0  0  0  0  0  0  0  0  # atno 6909 bound_to 6896
  145.6437  139.2431  143.2016 H   0  0  0  0  0  0  0  0  0  0  0  0  # atno 7974 bound_to 7965
  155.4262  140.0522  157.3022 H   0  0  0  0  0  0  0  0  0  0  0  0  # atno 8008 bound_to 7997
  154.4880  140.2108  155.9570 H   0  0  0  0  0  0  0  0  0  0  0  0  # atno 8009 bound_to 7997
  156.1302  140.3173  155.8343 H   0  0  0  0  0  0  0  0  0  0  0  0  # atno 8010 bound_to 7997
  140.6115  143.8397  150.7071 H   0  0  0  0  0  0  0  0  0  0  0  0  # atno 10167 bound_to 10162
  156.9156  130.5772  149.5647 H   0  0  0  0  0  0  0  0  0  0  0  0  # atno 10718 bound_to 10713
  154.8359  135.3399  154.6586 H   0  0  0  0  0  0  0  0  0  0  0  0  # atno 10763 bound_to 10752
  153.7201  135.6958  153.5019 H   0  0  0  0  0  0  0  0  0  0  0  0  # atno 10764 bound_to 10752
  153.2388  135.4391  155.0628 H   0  0  0  0  0  0  0  0  0  0  0  0  # atno 10765 bound_to 10752
  140.9892  134.0563  157.3674 H   0  0  0  0  0  0  0  0  0  0  0  0  # atno 11005 bound_to 11000
  146.1260  140.7248  142.9435 LP  0  0  0  0  0  0  0  0  0  0  0  0  # atno 17320 bound_to 7965
  144.7148  140.4169  143.7053 LP  0  0  0  0  0  0  0  0  0  0  0  0  # atno 17321 bound_to 7965
  140.1966  143.3993  152.1823 LP  0  0  0  0  0  0  0  0  0  0  0  0  # atno 17342 bound_to 10162
  139.5365  144.7215  151.4875 LP  0  0  0  0  0  0  0  0  0  0  0  0  # atno 17343 bound_to 10162
  156.0515  130.5584  150.9000 LP  0  0  0  0  0  0  0  0  0  0  0  0  # atno 17370 bound_to 10713
  157.5940  131.0943  150.9071 LP  0  0  0  0  0  0  0  0  0  0  0  0  # atno 17371 bound_to 10713
  139.8984  135.0154  156.7149 LP  0  0  0  0  0  0  0  0  0  0  0  0  # atno 17394 bound_to 11000
  140.7066  133.9259  155.8058 LP  0  0  0  0  0  0  0  0  0  0  0  0  # atno 17395 bound_to 11000

$$$$
