AV-unprocessed.smi:837|AV-procd|sdf|3893|dock7
  -GOLD-   22720 1353D 1   1.00000     0.00000
 Structure written by MMmdl.
 49 51  0  0  0  0  0  0  0  0  1 V2000
  150.6733  132.9096  155.4927 C   0  0  0  0  0  0  0  0  0  0  0  0
  149.2534  133.5126  155.4544 C   0  0  1  0  0  0  0  0  0  0  0  0
  148.3409  132.8281  156.4950 C   0  0  0  0  0  0  0  0  0  0  0  0
  146.8959  133.3443  156.4106 C   0  0  0  0  0  0  0  0  0  0  0  0
  146.8334  134.8701  156.5677 C   0  0  0  0  0  0  0  0  0  0  0  0
  147.7361  135.5729  155.5379 C   0  0  0  0  0  0  0  0  0  0  0  0
  149.2015  135.0692  155.5700 C   0  0  2  0  0  0  0  0  0  0  0  0
  149.9565  135.7010  154.5017 N   0  0  0  0  0  0  0  0  0  0  0  0
  150.9411  136.4917  154.9459 C   0  0  0  0  0  0  0  0  0  0  0  0
  151.7010  137.1463  154.2338 O   0  0  0  0  0  0  0  0  0  0  0  0
  150.9478  136.4430  156.2894 N   0  0  0  0  0  0  0  0  0  0  0  0
  151.8676  137.2086  157.1416 C   0  0  0  0  0  0  0  0  0  0  0  0
  152.1090  138.6421  156.6457 C   0  0  0  0  0  0  0  0  0  0  0  0
  153.2226  139.0041  156.2618 O   0  0  0  0  0  0  0  0  0  0  0  0
  151.0430  139.4559  156.6686 N   0  0  0  0  0  0  0  0  0  0  0  0
  151.0488  140.8524  156.2497 C   0  0  0  0  0  0  0  0  0  0  0  0
  149.9130  141.6466  156.9154 C   0  0  0  0  0  0  0  0  0  0  0  0
  150.4282  142.5888  157.9854 C   0  0  0  0  0  0  0  0  0  0  0  0
  151.0993  142.0926  159.1220 C   0  0  0  0  0  0  0  0  0  0  0  0
  151.5651  143.0066  160.0868 C   0  0  0  0  0  0  0  0  0  0  0  0
  151.3393  144.3811  159.8728 C   0  0  0  0  0  0  0  0  0  0  0  0
  150.6985  144.8675  158.7878 N   0  0  0  0  0  0  0  0  0  0  0  0
  150.2549  143.9844  157.8674 C   0  0  0  0  0  0  0  0  0  0  0  0
  149.9774  135.6454  156.7564 C   0  0  0  0  0  0  0  0  0  0  0  0
  149.7296  135.4051  157.9383 O   0  0  0  0  0  0  0  0  0  0  0  0
  151.1547  133.0669  156.4582 H   0  0  0  0  0  0  0  0  0  0  0  0
  151.3156  133.3406  154.7247 H   0  0  0  0  0  0  0  0  0  0  0  0
  150.6417  131.8340  155.3176 H   0  0  0  0  0  0  0  0  0  0  0  0
  148.8483  133.2607  154.4729 H   0  0  0  0  0  0  0  0  0  0  0  0
  148.3433  131.7492  156.3351 H   0  0  0  0  0  0  0  0  0  0  0  0
  148.7289  132.9833  157.5019 H   0  0  0  0  0  0  0  0  0  0  0  0
  146.4626  133.0589  155.4512 H   0  0  0  0  0  0  0  0  0  0  0  0
  146.2858  132.8677  157.1784 H   0  0  0  0  0  0  0  0  0  0  0  0
  145.8046  135.2103  156.4476 H   0  0  0  0  0  0  0  0  0  0  0  0
  147.1261  135.1481  157.5802 H   0  0  0  0  0  0  0  0  0  0  0  0
  147.3229  135.4125  154.5411 H   0  0  0  0  0  0  0  0  0  0  0  0
  147.6993  136.6509  155.7044 H   0  0  0  0  0  0  0  0  0  0  0  0
  149.7375  135.5634  153.5258 H   0  0  0  0  0  0  0  0  0  0  0  0
  151.4819  137.2473  158.1619 H   0  0  0  0  0  0  0  0  0  0  0  0
  152.8291  136.6968  157.2080 H   0  0  0  0  0  0  0  0  0  0  0  0
  150.1651  139.0813  156.9985 H   0  0  0  0  0  0  0  0  0  0  0  0
  152.0161  141.3057  156.4747 H   0  0  0  0  0  0  0  0  0  0  0  0
  150.9375  140.8812  155.1652 H   0  0  0  0  0  0  0  0  0  0  0  0
  149.3688  142.2232  156.1659 H   0  0  0  0  0  0  0  0  0  0  0  0
  149.1876  140.9671  157.3656 H   0  0  0  0  0  0  0  0  0  0  0  0
  151.2570  141.0318  159.2525 H   0  0  0  0  0  0  0  0  0  0  0  0
  152.0836  142.6626  160.9696 H   0  0  0  0  0  0  0  0  0  0  0  0
  151.6831  145.1095  160.5924 H   0  0  0  0  0  0  0  0  0  0  0  0
  149.7495  144.4046  157.0102 H   0  0  0  0  0  0  0  0  0  0  0  0
  1  2  1  0  0  0  0
  1 26  1  0  0  0  0
  1 27  1  0  0  0  0
  1 28  1  0  0  0  0
  2  7  1  0  0  0  0
  2  3  1  0  0  0  0
  2 29  1  0  0  0  0
  3  4  1  0  0  0  0
  3 30  1  0  0  0  0
  3 31  1  0  0  0  0
  4  5  1  0  0  0  0
  4 32  1  0  0  0  0
  4 33  1  0  0  0  0
  5  6  1  0  0  0  0
  5 34  1  0  0  0  0
  5 35  1  0  0  0  0
  6  7  1  0  0  0  0
  6 36  1  0  0  0  0
  6 37  1  0  0  0  0
  7 24  1  0  0  0  0
  7  8  1  0  0  0  0
  8  9  1  0  0  0  0
  8 38  1  0  0  0  0
  9 10  2  0  0  0  0
  9 11  1  0  0  0  0
 11 12  1  0  0  0  0
 11 24  1  0  0  0  0
 12 13  1  0  0  0  0
 12 39  1  0  0  0  0
 12 40  1  0  0  0  0
 13 14  2  0  0  0  0
 13 15  1  0  0  0  0
 15 16  1  0  0  0  0
 15 41  1  0  0  0  0
 16 17  1  0  0  0  0
 16 42  1  0  0  0  0
 16 43  1  0  0  0  0
 17 18  1  0  0  0  0
 17 44  1  0  0  0  0
 17 45  1  0  0  0  0
 18 23  1  0  0  0  0
 18 19  2  0  0  0  0
 19 20  1  0  0  0  0
 19 46  1  0  0  0  0
 20 21  2  0  0  0  0
 20 47  1  0  0  0  0
 21 22  1  0  0  0  0
 21 48  1  0  0  0  0
 22 23  2  0  0  0  0
 23 49  1  0  0  0  0
 24 25  2  0  0  0  0
M  END
> <s_m_source_file>
AV-unprocessed.smi

> <i_m_source_file_index>
837

> <i_lp_mmshare_version>
43012

> <i_f3d_flags>
0

> <s_epik_input>
W0NIMl0xW0NIMl1bQ0gyXVtDSDJdW0NAQEhdKFtDSDNdKVtDQEBdMTJbTkhdQyg9TylOKEMyPU8pW0NIMl1DKD1PKVtOSF1bQ0gyXVtDSDJdYzNbY0hdW2NIXVtjSF1uW2NIXTM=

> <s_epik_cmdline>
J2VwaWtfcHl0aG9uJywgJy1waCcsICc3LjAnLCAnLXRuJywgJzgnLCAnLW1hJywgJzIwMCcsICctbWV0YWxfYmluZGluZycsICctaW1hZScsICc8aW5maWxlLm1hZT4nLCAnLW9tYWUnLCAnPG91dGZpbGUubWFlPic=

> <r_lp_tautomer_probability>
1

> <r_epik_Ionization_Penalty>
0.0127837

> <r_epik_Ionization_Penalty_Charging>
0

> <r_epik_Ionization_Penalty_Neutral>
0.0127837

> <r_epik_State_Penalty>
0.00987657

> <r_epik_Charging_Adjusted_Penalty>
0.00987657

> <i_epik_Tot_Q>
0

> <i_epik_Tot_abs_Q>
0

> <r_epik_Metal_State_Penalty>
0.0309865

> <b_epik_Metal_Only>
0

> <s_lp_Force_Field>
OPLS_2005

> <r_lp_Energy>
18.239

> <b_lp_Chiralities_Consistent>
1

> <s_lp_Variant>
AV-unprocessed.smi:837-2

> <Gold.Version>
5.8.1

> <Gold.Id.Protein>
6NUR|6NUR_protein|mol2

> <Gold.PLP.Fitness>
46.5966

> <Gold.PLP.PLP>
-33.5791

> <Gold.PLP.part.hbond>
-3.7927

> <Gold.PLP.part.metal>
0.0000

> <Gold.PLP.part.buried>
-6.7608

> <Gold.PLP.part.nonpolar>
-25.3819

> <Gold.PLP.part.repulsive>
1.5732

> <Gold.PLP.ligand.clash>
0.0000

> <Gold.PLP.ligand.torsion>
0.7913

> <Gold.PLP.Chemscore.Hbond>
3.8560

> <Gold.PLP.Chemscore.CHOScore>
1.0000

> <Gold.PLP.Chemscore.Metal>
0.0000

> <Gold.Chemscore.Hbonds>
donor molecule, donor type, donor heavy atom, donor atom, acceptor molecule, acceptor atom, score
      L1  H     8    38       P1  7948  0.60
      P1  H  6896  6908       L1    25  1.00
      P1  H  7997  8009       L1    14  1.00
      P1  H 10752 10765       L1    10  0.79

> <Gold.PLP.Chemscore.Internal.Correction>
0.0321

> <Gold.Rescore>
     Score         DG    S(hbond)    S(metal)    S(lipo)     H(rot)  DE(clash)    DE(int)     intcor
     20.24     -21.00       3.52        0.00      72.70       1.86       0.25       0.51       ----

> <Gold.Chemscore.Fitness>
20.2445

> <Gold.Chemscore.DG>
-21.0024

> <Gold.Chemscore.ZeroCoef>
-5.4800

> <Gold.Chemscore.Hbond>
3.5229

> <Gold.Chemscore.Metal>
0.0000

> <Gold.Chemscore.Lipo>
72.6986

> <Gold.Chemscore.Internal_Hbond>
0.0000

> <Gold.Chemscore.DEClash>
0.2462

> <Gold.Chemscore.DEInternal>
0.5118

> <Gold.Chemscore.Rot>
1.8553

> <Gold.Chemscore.Internal.Correction>
   9.000000E+99

> <Gold.Chemscore.Hbonds>
donor molecule, donor type, donor heavy atom, donor atom, acceptor molecule, acceptor atom, score
      L1  H     8    38       P1  7948  0.04
      P1  H  6896  6908       L1    25  0.88
      P1  H  7997  8009       L1    14  0.96
      P1  H 10752 10765       L1    10  0.11

> <Gold.Chemscore.Hbond.Weighted>
-11.7664

> <Gold.Chemscore.Metal.Weighted>
-0.0000

> <Gold.Chemscore.Lipo.Weighted>
-8.5057

> <Gold.Chemscore.Internal_Hbond.Weighted>
0.0000

> <Gold.Chemscore.DEClash.Weighted>
0.2462

> <Gold.Chemscore.DEInternal.Weighted>
0.5118

> <Gold.Chemscore.Rot.Weighted>
4.7497

> <Gold.Chemscore.Internal.Correction.Weighted>
   9.000000E+99

> <Gold.Protein.RotatedTorsions>
[ 6907 6896 6895 6894 ] final  167.83 input  -60.11 | X-H torsion
[ 7974 7965 7964 7962 ] final -103.39 input  175.53 | X-H torsion
[ 8008 7997 7996 7995 ] final -165.05 input   59.86 | X-H torsion
[ 10167 10162 10161 10158 ] final  -82.25 input  -65.29 | X-H torsion
[ 10718 10713 10712 10709 ] final -174.62 input   66.30 | X-H torsion
[ 10763 10752 10751 10750 ] final  142.85 input  -60.55 | X-H torsion
[ 11005 11000 10999 10996 ] final   18.71 input  -57.11 | X-H torsion

> <Gold.Protein.ActiveResidues>
 VAL166  LYS551  ARG553  GLY616  TRP617  ASP618  TYR619  PRO620  LYS621  CYS622 
 ASP623  PHE694  ASN695  SER759  ASP760  ASP761  ALA762  ILE779  LEU786  VAL792 
 PHE793  MET794  SER795  GLU796  ALA797  LYS798  CYS799  TRP800  GLU811  SER814 

> <Gold.Protein.RotatedAtoms>
  151.8571  133.3450  159.3691 H   0  0  0  0  0  0  0  0  0  0  0  0  # atno 6907 bound_to 6896
  150.7189  134.5242  159.5678 H   0  0  0  0  0  0  0  0  0  0  0  0  # atno 6908 bound_to 6896
  152.2748  134.7894  160.0458 H   0  0  0  0  0  0  0  0  0  0  0  0  # atno 6909 bound_to 6896
  145.2565  140.9255  143.3065 H   0  0  0  0  0  0  0  0  0  0  0  0  # atno 7974 bound_to 7965
  155.8443  140.0953  157.1715 H   0  0  0  0  0  0  0  0  0  0  0  0  # atno 8008 bound_to 7997
  154.3983  140.1395  156.3828 H   0  0  0  0  0  0  0  0  0  0  0  0  # atno 8009 bound_to 7997
  155.8031  140.3452  155.5416 H   0  0  0  0  0  0  0  0  0  0  0  0  # atno 8010 bound_to 7997
  140.4337  143.2539  151.8723 H   0  0  0  0  0  0  0  0  0  0  0  0  # atno 10167 bound_to 10162
  156.7878  130.9507  151.3120 H   0  0  0  0  0  0  0  0  0  0  0  0  # atno 10718 bound_to 10713
  153.9626  135.2958  155.3432 H   0  0  0  0  0  0  0  0  0  0  0  0  # atno 10763 bound_to 10752
  154.7366  135.5043  153.9055 H   0  0  0  0  0  0  0  0  0  0  0  0  # atno 10764 bound_to 10752
  153.0939  135.6715  153.9911 H   0  0  0  0  0  0  0  0  0  0  0  0  # atno 10765 bound_to 10752
  140.4218  134.1511  155.7673 H   0  0  0  0  0  0  0  0  0  0  0  0  # atno 11005 bound_to 11000
  144.9456  139.4139  143.6427 LP  0  0  0  0  0  0  0  0  0  0  0  0  # atno 17320 bound_to 7965
  146.3288  139.8438  142.8885 LP  0  0  0  0  0  0  0  0  0  0  0  0  # atno 17321 bound_to 7965
  139.4786  144.5306  151.8672 LP  0  0  0  0  0  0  0  0  0  0  0  0  # atno 17342 bound_to 10162
  140.4397  144.2003  150.5891 LP  0  0  0  0  0  0  0  0  0  0  0  0  # atno 17343 bound_to 10162
  157.6615  130.8970  149.9840 LP  0  0  0  0  0  0  0  0  0  0  0  0  # atno 17370 bound_to 10713
  156.1178  130.3647  149.9939 LP  0  0  0  0  0  0  0  0  0  0  0  0  # atno 17371 bound_to 10713
  141.1781  133.8472  157.1353 LP  0  0  0  0  0  0  0  0  0  0  0  0  # atno 17394 bound_to 11000
  140.0195  134.9952  157.0562 LP  0  0  0  0  0  0  0  0  0  0  0  0  # atno 17395 bound_to 11000

$$$$
