AV-unprocessed.smi:283|AV-procd|sdf|2156|dock4
  -GOLD-   2262021503D 1   1.00000     0.00000
 Structure written by MMmdl.
 48 51  0  0  0  0  0  0  0  0  1 V2000
  147.2161  133.9243  162.5259 C   0  0  0  0  0  0  0  0  0  0  0  0
  146.6437  135.3518  162.5925 C   0  0  1  0  0  0  0  0  0  0  0  0
  147.1968  136.1948  161.5330 N   0  0  0  0  0  0  0  0  0  0  0  0
  147.5842  135.6832  160.3437 C   0  0  0  0  0  0  0  0  0  0  0  0
  147.0228  134.5523  159.8419 N   0  0  0  0  0  0  0  0  0  0  0  0
  147.4287  134.0699  158.6637 C   0  0  0  0  0  0  0  0  0  0  0  0
  148.3690  134.5483  157.8457 N   0  0  0  0  0  0  0  0  0  0  0  0
  148.9439  135.6781  158.3505 C   0  0  0  0  0  0  0  0  0  0  0  0
  148.6038  136.3074  159.5798 C   0  0  0  0  0  0  0  0  0  0  0  0
  149.3804  137.4444  159.7560 N   0  0  0  0  0  0  0  0  0  0  0  0
  150.1292  137.4835  158.6868 C   0  0  0  0  0  0  0  0  0  0  0  0
  149.9561  136.4385  157.8021 N   0  0  0  0  0  0  0  0  0  0  0  0
  150.6325  136.1920  156.4860 C   0  0  1  0  0  0  0  0  0  0  0  0
  149.6766  136.3374  155.4749 O   0  0  0  0  0  0  0  0  0  0  0  0
  149.8407  137.5736  154.7825 C   0  0  1  0  0  0  0  0  0  0  0  0
  148.9899  138.6776  155.4404 C   0  0  0  0  0  0  0  0  0  0  0  0
  149.2878  139.9342  154.8703 O   0  0  0  0  0  0  0  0  0  0  0  0
  151.3487  137.8228  154.8648 C   0  0  2  0  0  0  0  0  0  0  0  0
  151.9735  137.1629  153.7765 O   0  0  0  0  0  0  0  0  0  0  0  0
  151.7332  137.2399  156.2237 C   0  0  2  0  0  0  0  0  0  0  0  0
  153.0381  136.6921  156.2150 O   0  0  0  0  0  0  0  0  0  0  0  0
  145.1171  135.3027  162.5640 C   0  0  0  0  0  0  0  0  0  0  0  0
  144.4460  134.0791  162.7978 C   0  0  0  0  0  0  0  0  0  0  0  0
  143.0399  134.0163  162.7827 C   0  0  0  0  0  0  0  0  0  0  0  0
  142.2871  135.1786  162.5387 C   0  0  0  0  0  0  0  0  0  0  0  0
  142.9426  136.4035  162.3168 C   0  0  0  0  0  0  0  0  0  0  0  0
  144.3502  136.4732  162.3326 C   0  0  0  0  0  0  0  0  0  0  0  0
  145.0978  138.0111  162.0733 Cl  0  0  0  0  0  0  0  0  0  0  0  0
  150.9876  135.1626  156.5479 H   0  0  0  0  0  0  0  0  0  0  0  0
  149.5070  137.4457  153.7513 H   0  0  0  0  0  0  0  0  0  0  0  0
  151.5982  138.8822  154.7967 H   0  0  0  0  0  0  0  0  0  0  0  0
  151.6775  138.0269  156.9774 H   0  0  0  0  0  0  0  0  0  0  0  0
  146.8348  133.3134  163.3447 H   0  0  0  0  0  0  0  0  0  0  0  0
  148.3032  133.9176  162.5978 H   0  0  0  0  0  0  0  0  0  0  0  0
  146.9440  133.4323  161.5916 H   0  0  0  0  0  0  0  0  0  0  0  0
  146.9401  135.8016  163.5392 H   0  0  0  0  0  0  0  0  0  0  0  0
  147.2331  137.1828  161.7388 H   0  0  0  0  0  0  0  0  0  0  0  0
  146.9314  133.1711  158.3303 H   0  0  0  0  0  0  0  0  0  0  0  0
  150.8362  138.2833  158.5219 H   0  0  0  0  0  0  0  0  0  0  0  0
  147.9306  138.4783  155.2791 H   0  0  0  0  0  0  0  0  0  0  0  0
  149.1514  138.7236  156.5178 H   0  0  0  0  0  0  0  0  0  0  0  0
  148.6844  140.5731  155.2182 H   0  0  0  0  0  0  0  0  0  0  0  0
  151.3055  136.9132  153.1563 H   0  0  0  0  0  0  0  0  0  0  0  0
  153.4292  136.8440  157.0619 H   0  0  0  0  0  0  0  0  0  0  0  0
  145.0055  133.1767  162.9961 H   0  0  0  0  0  0  0  0  0  0  0  0
  142.5391  133.0760  162.9609 H   0  0  0  0  0  0  0  0  0  0  0  0
  141.2082  135.1323  162.5262 H   0  0  0  0  0  0  0  0  0  0  0  0
  142.3611  137.2957  162.1361 H   0  0  0  0  0  0  0  0  0  0  0  0
  1  2  1  0  0  0  0
  1 33  1  0  0  0  0
  1 34  1  0  0  0  0
  1 35  1  0  0  0  0
  2  3  1  0  0  0  0
  2 22  1  0  0  0  0
  2 36  1  0  0  0  0
  3  4  1  0  0  0  0
  3 37  1  0  0  0  0
  4  9  1  0  0  0  0
  4  5  2  0  0  0  0
  5  6  1  0  0  0  0
  6  7  2  0  0  0  0
  6 38  1  0  0  0  0
  7  8  1  0  0  0  0
  8 12  1  0  0  0  0
  8  9  2  0  0  0  0
  9 10  1  0  0  0  0
 10 11  2  0  0  0  0
 11 12  1  0  0  0  0
 11 39  1  0  0  0  0
 12 13  1  0  0  0  0
 13 29  1  0  0  0  0
 13 20  1  0  0  0  0
 13 14  1  0  0  0  0
 14 15  1  0  0  0  0
 15 30  1  0  0  0  0
 15 16  1  0  0  0  0
 15 18  1  0  0  0  0
 16 17  1  0  0  0  0
 16 40  1  0  0  0  0
 16 41  1  0  0  0  0
 17 42  1  0  0  0  0
 18 31  1  0  0  0  0
 18 19  1  0  0  0  0
 18 20  1  0  0  0  0
 19 43  1  0  0  0  0
 20 32  1  0  0  0  0
 20 21  1  0  0  0  0
 21 44  1  0  0  0  0
 22 27  1  0  0  0  0
 22 23  2  0  0  0  0
 23 24  1  0  0  0  0
 23 45  1  0  0  0  0
 24 25  2  0  0  0  0
 24 46  1  0  0  0  0
 25 26  1  0  0  0  0
 25 47  1  0  0  0  0
 26 27  2  0  0  0  0
 26 48  1  0  0  0  0
 27 28  1  0  0  0  0
M  END
> <s_m_source_file>
AV-unprocessed.smi

> <i_m_source_file_index>
283

> <i_lp_mmshare_version>
43012

> <i_f3d_flags>
0

> <s_epik_input>
Q2xjMVtjSF1bY0hdW2NIXVtjSF1jMVtDQEhdKFtDSDNdKVtOSF1jKG5bY0hdbjIpYyhjMjMpbltjSF1uM1tDQEBIXTRPW0NASF0oW0NIMl1bT0hdKVtDQEBIXShbT0hdKVtDQEhdNFtPSF0=

> <s_epik_cmdline>
J2VwaWtfcHl0aG9uJywgJy1waCcsICc3LjAnLCAnLXRuJywgJzgnLCAnLW1hJywgJzIwMCcsICctbWV0YWxfYmluZGluZycsICctaW1hZScsICc8aW5maWxlLm1hZT4nLCAnLW9tYWUnLCAnPG91dGZpbGUubWFlPic=

> <r_lp_tautomer_probability>
1

> <r_epik_Ionization_Penalty>
0.000266407

> <r_epik_Ionization_Penalty_Charging>
0

> <r_epik_Ionization_Penalty_Neutral>
0.000266407

> <r_epik_State_Penalty>
-0

> <r_epik_Charging_Adjusted_Penalty>
0

> <i_epik_Tot_Q>
0

> <i_epik_Tot_abs_Q>
0

> <r_epik_Metal_State_Penalty>
-0

> <b_epik_Metal_Only>
0

> <s_epik_Chemistry_Notes>
This compound contains an acetal/aminal-like group ( X-CH(R)-Y where X, Y are N, S, or O) that may be acid/base labile, releasing an aldehyde.

> <s_lp_Force_Field>
OPLS_2005

> <r_lp_Energy>
46.4468

> <b_lp_Chiralities_Consistent>
1

> <s_lp_Variant>
AV-unprocessed.smi:283-32

> <Gold.Version>
5.8.1

> <Gold.Id.Protein>
6NUR|6NUR_protein|mol2

> <Gold.PLP.Fitness>
48.2303

> <Gold.PLP.PLP>
-42.8361

> <Gold.PLP.part.hbond>
-3.5950

> <Gold.PLP.part.metal>
0.0000

> <Gold.PLP.part.buried>
-7.8638

> <Gold.PLP.part.nonpolar>
-32.1082

> <Gold.PLP.part.repulsive>
0.2395

> <Gold.PLP.ligand.clash>
0.0000

> <Gold.PLP.ligand.torsion>
1.0215

> <Gold.PLP.Chemscore.Hbond>
2.4394

> <Gold.PLP.Chemscore.CHOScore>
0.0000

> <Gold.PLP.Chemscore.Metal>
0.0000

> <Gold.Chemscore.Hbonds>
donor molecule, donor type, donor heavy atom, donor atom, acceptor molecule, acceptor atom, score
      L1  H    19    43       P1  7949  0.77
      P1  H  6931  6943       L1    10  0.09
      P1  H 10752 10763       L1    19  1.00
      P1  H 10752 10764       L1    21  0.58

> <Gold.PLP.Chemscore.Internal.Correction>
0.1191

> <Gold.Rescore>
     Score         DG    S(hbond)    S(metal)    S(lipo)     H(rot)  DE(clash)    DE(int)     intcor
      9.42     -13.01       2.29        0.00      88.70       4.10       0.09       3.50       ----

> <Gold.Chemscore.Fitness>
9.4174

> <Gold.Chemscore.DG>
-13.0093

> <Gold.Chemscore.ZeroCoef>
-5.4800

> <Gold.Chemscore.Hbond>
2.2872

> <Gold.Chemscore.Metal>
0.0000

> <Gold.Chemscore.Lipo>
88.7013

> <Gold.Chemscore.Internal_Hbond>
0.0000

> <Gold.Chemscore.DEClash>
0.0914

> <Gold.Chemscore.DEInternal>
3.5005

> <Gold.Chemscore.Rot>
4.0968

> <Gold.Chemscore.Internal.Correction>
   9.000000E+99

> <Gold.Chemscore.Hbonds>
donor molecule, donor type, donor heavy atom, donor atom, acceptor molecule, acceptor atom, score
      L1  H    19    43       P1  7949  0.54
      P1  H  6931  6943       L1    10  0.07
      P1  H 10752 10763       L1    19  0.52
      P1  H 10752 10764       L1    21  0.50

> <Gold.Chemscore.Hbond.Weighted>
-7.6392

> <Gold.Chemscore.Metal.Weighted>
-0.0000

> <Gold.Chemscore.Lipo.Weighted>
-10.3781

> <Gold.Chemscore.Internal_Hbond.Weighted>
0.0000

> <Gold.Chemscore.DEClash.Weighted>
0.0914

> <Gold.Chemscore.DEInternal.Weighted>
3.5005

> <Gold.Chemscore.Rot.Weighted>
10.4879

> <Gold.Chemscore.Internal.Correction.Weighted>
   9.000000E+99

> <Gold.Protein.RotatedTorsions>
[ 6907 6896 6895 6894 ] final   26.28 input  -60.11 | X-H torsion
[ 7974 7965 7964 7962 ] final  127.02 input  175.53 | X-H torsion
[ 8008 7997 7996 7995 ] final   85.80 input   59.86 | X-H torsion
[ 10167 10162 10161 10158 ] final -111.17 input  -65.29 | X-H torsion
[ 10718 10713 10712 10709 ] final   95.51 input   66.30 | X-H torsion
[ 10763 10752 10751 10750 ] final   13.84 input  -60.55 | X-H torsion
[ 11005 11000 10999 10996 ] final -117.86 input  -57.11 | X-H torsion

> <Gold.Protein.ActiveResidues>
 VAL166  LYS551  ARG553  GLY616  TRP617  ASP618  TYR619  PRO620  LYS621  CYS622 
 ASP623  PHE694  ASN695  SER759  ASP760  ASP761  ALA762  ILE779  LEU786  VAL792 
 PHE793  MET794  SER795  GLU796  ALA797  LYS798  CYS799  TRP800  GLU811  SER814 

> <Gold.Protein.RotatedAtoms>
  151.9851  135.0008  160.0558 H   0  0  0  0  0  0  0  0  0  0  0  0  # atno 6907 bound_to 6896
  152.1660  133.4608  159.4893 H   0  0  0  0  0  0  0  0  0  0  0  0  # atno 6908 bound_to 6896
  150.6894  134.1930  159.4335 H   0  0  0  0  0  0  0  0  0  0  0  0  # atno 6909 bound_to 6896
  145.0552  139.3850  143.5034 H   0  0  0  0  0  0  0  0  0  0  0  0  # atno 7974 bound_to 7965
  155.9547  140.3398  155.6438 H   0  0  0  0  0  0  0  0  0  0  0  0  # atno 8008 bound_to 7997
  155.6875  140.0745  157.2479 H   0  0  0  0  0  0  0  0  0  0  0  0  # atno 8009 bound_to 7997
  154.4129  140.1663  156.2037 H   0  0  0  0  0  0  0  0  0  0  0  0  # atno 8010 bound_to 7997
  140.1365  143.4316  152.1592 H   0  0  0  0  0  0  0  0  0  0  0  0  # atno 10167 bound_to 10162
  157.6938  131.0548  150.4350 H   0  0  0  0  0  0  0  0  0  0  0  0  # atno 10718 bound_to 10713
  153.1681  135.6807  153.8646 H   0  0  0  0  0  0  0  0  0  0  0  0  # atno 10763 bound_to 10752
  153.8019  135.3154  155.3392 H   0  0  0  0  0  0  0  0  0  0  0  0  # atno 10764 bound_to 10752
  154.7979  135.4796  154.0296 H   0  0  0  0  0  0  0  0  0  0  0  0  # atno 10765 bound_to 10752
  141.0326  133.9959  157.3120 H   0  0  0  0  0  0  0  0  0  0  0  0  # atno 11005 bound_to 11000
  146.3521  140.0223  142.8657 LP  0  0  0  0  0  0  0  0  0  0  0  0  # atno 17320 bound_to 7965
  145.1477  140.9606  143.4451 LP  0  0  0  0  0  0  0  0  0  0  0  0  # atno 17321 bound_to 7965
  139.5493  144.7325  151.4484 LP  0  0  0  0  0  0  0  0  0  0  0  0  # atno 17342 bound_to 10162
  140.6786  143.8133  150.7091 LP  0  0  0  0  0  0  0  0  0  0  0  0  # atno 17343 bound_to 10162
  156.4713  130.4053  149.6516 LP  0  0  0  0  0  0  0  0  0  0  0  0  # atno 17370 bound_to 10713
  156.3595  130.7474  151.2444 LP  0  0  0  0  0  0  0  0  0  0  0  0  # atno 17371 bound_to 10713
  139.9218  135.0200  156.8092 LP  0  0  0  0  0  0  0  0  0  0  0  0  # atno 17394 bound_to 11000
  140.6380  133.9844  155.7693 LP  0  0  0  0  0  0  0  0  0  0  0  0  # atno 17395 bound_to 11000

$$$$
