AV-unprocessed.smi:3116|AV-procd|sdf|11877|dock3
  -GOLD-   2272017263D 1   1.00000     0.00000
 Structure written by MMmdl.
 33 33  0  0  0  0  0  0  0  0  1 V2000
  148.6984  140.7672  157.2782 C   0  0  0  0  0  0  0  0  0  0  0  0
  149.2637  141.7558  156.2454 C   0  0  1  0  0  0  0  0  0  0  0  0
  150.3293  142.5635  156.8720 N   0  0  0  0  0  0  0  0  0  0  0  0
  151.0850  141.9545  157.9705 C   0  0  1  0  0  0  0  0  0  0  0  0
  151.8166  140.6986  157.4486 C   0  0  0  0  0  0  0  0  0  0  0  0
  152.0461  143.0362  158.5360 C   0  0  1  0  0  0  0  0  0  0  0  0
  151.3498  144.3988  158.7260 C   0  0  0  0  0  0  0  0  0  0  0  0
  152.6791  142.6198  159.7822 N   0  0  0  0  0  0  0  0  0  0  0  0
  152.5805  143.2094  161.0258 C   0  0  0  0  0  0  0  0  0  0  0  0
  153.3491  142.4804  161.8872 C   0  0  0  0  0  0  0  0  0  0  0  0
  153.8870  141.4486  161.0688 C   0  0  0  0  0  0  0  0  0  0  0  0
  153.4867  141.5348  159.8107 N   0  0  0  0  0  0  0  0  0  0  0  0
  149.7192  141.0066  154.9822 C   0  0  0  0  0  0  0  0  0  0  0  0
  148.8059  140.8113  154.0278 N   0  0  0  0  0  0  0  0  0  0  0  0
  150.8829  140.6284  154.8611 O   0  0  0  0  0  0  0  0  0  0  0  0
  147.8997  140.1596  156.8508 H   0  0  0  0  0  0  0  0  0  0  0  0
  148.2804  141.2953  158.1358 H   0  0  0  0  0  0  0  0  0  0  0  0
  149.4682  140.0902  157.6515 H   0  0  0  0  0  0  0  0  0  0  0  0
  148.4449  142.4213  155.9700 H   0  0  0  0  0  0  0  0  0  0  0  0
  150.9666  142.9418  156.1863 H   0  0  0  0  0  0  0  0  0  0  0  0
  150.4213  141.6534  158.7808 H   0  0  0  0  0  0  0  0  0  0  0  0
  152.3810  140.2033  158.2385 H   0  0  0  0  0  0  0  0  0  0  0  0
  152.5161  140.9496  156.6506 H   0  0  0  0  0  0  0  0  0  0  0  0
  151.1217  139.9541  157.0616 H   0  0  0  0  0  0  0  0  0  0  0  0
  152.8549  143.1796  157.8172 H   0  0  0  0  0  0  0  0  0  0  0  0
  150.9769  144.7925  157.7804 H   0  0  0  0  0  0  0  0  0  0  0  0
  152.0402  145.1371  159.1345 H   0  0  0  0  0  0  0  0  0  0  0  0
  150.5017  144.3236  159.4074 H   0  0  0  0  0  0  0  0  0  0  0  0
  151.9792  144.0909  161.1925 H   0  0  0  0  0  0  0  0  0  0  0  0
  153.5033  142.6575  162.9411 H   0  0  0  0  0  0  0  0  0  0  0  0
  154.5522  140.6455  161.3494 H   0  0  0  0  0  0  0  0  0  0  0  0
  149.0576  140.3213  153.1819 H   0  0  0  0  0  0  0  0  0  0  0  0
  147.8648  141.1525  154.1587 H   0  0  0  0  0  0  0  0  0  0  0  0
  1  2  1  0  0  0  0
  1 16  1  0  0  0  0
  1 17  1  0  0  0  0
  1 18  1  0  0  0  0
  2  3  1  0  0  0  0
  2 13  1  0  0  0  0
  2 19  1  0  0  0  0
  3  4  1  0  0  0  0
  3 20  1  0  0  0  0
  4  5  1  0  0  0  0
  4  6  1  0  0  0  0
  4 21  1  0  0  0  0
  5 22  1  0  0  0  0
  5 23  1  0  0  0  0
  5 24  1  0  0  0  0
  6  7  1  0  0  0  0
  6  8  1  0  0  0  0
  6 25  1  0  0  0  0
  7 26  1  0  0  0  0
  7 27  1  0  0  0  0
  7 28  1  0  0  0  0
  8 12  1  0  0  0  0
  8  9  1  0  0  0  0
  9 10  2  0  0  0  0
  9 29  1  0  0  0  0
 10 11  1  0  0  0  0
 10 30  1  0  0  0  0
 11 12  2  0  0  0  0
 11 31  1  0  0  0  0
 13 14  1  0  0  0  0
 13 15  2  0  0  0  0
 14 32  1  0  0  0  0
 14 33  1  0  0  0  0
M  END
> <s_m_source_file>
AV-unprocessed.smi

> <i_m_source_file_index>
3116

> <i_lp_mmshare_version>
43012

> <i_f3d_flags>
0

> <s_epik_input>
W05IMl1DKD1PKVtDQEhdKFtDSDNdKVtOSF1bQ0BIXShbQ0gzXSlbQ0BIXShbQ0gzXSluMVtjSF1bY0hdW2NIXW4x

> <s_epik_cmdline>
J2VwaWtfcHl0aG9uJywgJy1waCcsICc3LjAnLCAnLXRuJywgJzgnLCAnLW1hJywgJzIwMCcsICctbWV0YWxfYmluZGluZycsICctaW1hZScsICc8aW5maWxlLm1hZT4nLCAnLW9tYWUnLCAnPG91dGZpbGUubWFlPic=

> <r_lp_tautomer_probability>
1

> <r_epik_Ionization_Penalty>
0.865977

> <r_epik_Ionization_Penalty_Charging>
0

> <r_epik_Ionization_Penalty_Neutral>
0.865977

> <r_epik_State_Penalty>
0.901888

> <r_epik_Charging_Adjusted_Penalty>
0.901888

> <i_epik_Tot_Q>
0

> <i_epik_Tot_abs_Q>
0

> <r_epik_Metal_State_Penalty>
0.901181

> <b_epik_Metal_Only>
0

> <s_lp_Force_Field>
OPLS_2005

> <r_lp_Energy>
8.45698

> <b_lp_Chiralities_Consistent>
1

> <s_lp_Variant>
AV-unprocessed.smi:3116-16

> <Gold.Version>
5.8.1

> <Gold.Id.Protein>
6NUR|6NUR_protein|mol2

> <Gold.PLP.Fitness>
38.9294

> <Gold.PLP.PLP>
-35.8283

> <Gold.PLP.part.hbond>
-3.0000

> <Gold.PLP.part.metal>
0.0000

> <Gold.PLP.part.buried>
-3.1209

> <Gold.PLP.part.nonpolar>
-29.2101

> <Gold.PLP.part.repulsive>
0.2364

> <Gold.PLP.ligand.clash>
0.0000

> <Gold.PLP.ligand.torsion>
1.4052

> <Gold.PLP.Chemscore.Hbond>
1.9440

> <Gold.PLP.Chemscore.CHOScore>
0.0000

> <Gold.PLP.Chemscore.Metal>
0.0000

> <Gold.Chemscore.Hbonds>
donor molecule, donor type, donor heavy atom, donor atom, acceptor molecule, acceptor atom, score
      L1  H    14    32       P1  7957  0.80
      P1  H  7989  7998       L1    15  0.96

> <Gold.PLP.Chemscore.Internal.Correction>
0.0794

> <Gold.Rescore>
     Score         DG    S(hbond)    S(metal)    S(lipo)     H(rot)  DE(clash)    DE(int)     intcor
     11.28     -14.36       1.78        0.00      77.37       2.38       0.05       3.04       ----

> <Gold.Chemscore.Fitness>
11.2773

> <Gold.Chemscore.DG>
-14.3646

> <Gold.Chemscore.ZeroCoef>
-5.4800

> <Gold.Chemscore.Hbond>
1.7769

> <Gold.Chemscore.Metal>
0.0000

> <Gold.Chemscore.Lipo>
77.3661

> <Gold.Chemscore.Internal_Hbond>
0.0000

> <Gold.Chemscore.DEClash>
0.0522

> <Gold.Chemscore.DEInternal>
3.0350

> <Gold.Chemscore.Rot>
2.3836

> <Gold.Chemscore.Internal.Correction>
   9.000000E+99

> <Gold.Chemscore.Hbonds>
donor molecule, donor type, donor heavy atom, donor atom, acceptor molecule, acceptor atom, score
      L1  H    14    32       P1  7957  0.78
      P1  H  7989  7998       L1    15  0.86

> <Gold.Chemscore.Hbond.Weighted>
-5.9347

> <Gold.Chemscore.Metal.Weighted>
-0.0000

> <Gold.Chemscore.Lipo.Weighted>
-9.0518

> <Gold.Chemscore.Internal_Hbond.Weighted>
0.0000

> <Gold.Chemscore.DEClash.Weighted>
0.0522

> <Gold.Chemscore.DEInternal.Weighted>
3.0350

> <Gold.Chemscore.Rot.Weighted>
6.1020

> <Gold.Chemscore.Internal.Correction.Weighted>
   9.000000E+99

> <Gold.Protein.RotatedTorsions>
[ 6907 6896 6895 6894 ] final   54.00 input  -60.11 | X-H torsion
[ 7974 7965 7964 7962 ] final   67.63 input  175.53 | X-H torsion
[ 8008 7997 7996 7995 ] final   49.46 input   59.86 | X-H torsion
[ 10167 10162 10161 10158 ] final -142.20 input  -65.29 | X-H torsion
[ 10718 10713 10712 10709 ] final -150.45 input   66.30 | X-H torsion
[ 10763 10752 10751 10750 ] final  -30.59 input  -60.55 | X-H torsion
[ 11005 11000 10999 10996 ] final  -92.17 input  -57.11 | X-H torsion

> <Gold.Protein.ActiveResidues>
 VAL166  LYS551  ARG553  GLY616  TRP617  ASP618  TYR619  PRO620  LYS621  CYS622 
 ASP623  PHE694  ASN695  SER759  ASP760  ASP761  ALA762  ILE779  LEU786  VAL792 
 PHE793  MET794  SER795  GLU796  ALA797  LYS798  CYS799  TRP800  GLU811  SER814 

> <Gold.Protein.RotatedAtoms>
  152.3394  134.7154  160.0267 H   0  0  0  0  0  0  0  0  0  0  0  0  # atno 6907 bound_to 6896
  151.7544  133.3324  159.3408 H   0  0  0  0  0  0  0  0  0  0  0  0  # atno 6908 bound_to 6896
  150.7470  134.6095  159.6123 H   0  0  0  0  0  0  0  0  0  0  0  0  # atno 6909 bound_to 6896
  145.8123  139.3039  143.1092 H   0  0  0  0  0  0  0  0  0  0  0  0  # atno 7974 bound_to 7965
  155.4025  140.3438  155.4258 H   0  0  0  0  0  0  0  0  0  0  0  0  # atno 8008 bound_to 7997
  156.1495  140.1566  156.8824 H   0  0  0  0  0  0  0  0  0  0  0  0  # atno 8009 bound_to 7997
  154.5040  140.0807  156.7837 H   0  0  0  0  0  0  0  0  0  0  0  0  # atno 8010 bound_to 7997
  139.8111  143.7701  152.2663 H   0  0  0  0  0  0  0  0  0  0  0  0  # atno 10167 bound_to 10162
  156.4463  130.8146  151.2376 H   0  0  0  0  0  0  0  0  0  0  0  0  # atno 10718 bound_to 10713
  153.7835  135.6903  153.4884 H   0  0  0  0  0  0  0  0  0  0  0  0  # atno 10763 bound_to 10752
  153.1796  135.4511  155.0009 H   0  0  0  0  0  0  0  0  0  0  0  0  # atno 10764 bound_to 10752
  154.8072  135.3362  154.7336 H   0  0  0  0  0  0  0  0  0  0  0  0  # atno 10765 bound_to 10752
  141.1528  133.7803  156.9982 H   0  0  0  0  0  0  0  0  0  0  0  0  # atno 11005 bound_to 11000
  145.9764  140.8718  143.0136 LP  0  0  0  0  0  0  0  0  0  0  0  0  # atno 17320 bound_to 7965
  144.6756  140.2018  143.7386 LP  0  0  0  0  0  0  0  0  0  0  0  0  # atno 17321 bound_to 7965
  139.7850  144.7431  151.0034 LP  0  0  0  0  0  0  0  0  0  0  0  0  # atno 17342 bound_to 10162
  140.7817  143.4501  151.0425 LP  0  0  0  0  0  0  0  0  0  0  0  0  # atno 17343 bound_to 10162
  157.7504  131.0152  150.3495 LP  0  0  0  0  0  0  0  0  0  0  0  0  # atno 17370 bound_to 10713
  156.3863  130.3890  149.7063 LP  0  0  0  0  0  0  0  0  0  0  0  0  # atno 17371 bound_to 10713
  140.0957  134.9565  157.1846 LP  0  0  0  0  0  0  0  0  0  0  0  0  # atno 17394 bound_to 11000
  140.3385  134.2730  155.7216 LP  0  0  0  0  0  0  0  0  0  0  0  0  # atno 17395 bound_to 11000

$$$$
