AV-unprocessed.smi:1403|AV-procd|sdf|5699|dock10
  -GOLD-   22720 5333D 1   1.00000     0.00000
 Structure written by MMmdl.
 36 37  0  0  0  0  0  0  0  0  1 V2000
  152.3699  139.9382  159.6498 C   0  0  0  0  0  0  0  0  0  0  0  0
  151.6349  141.2330  159.2742 C   0  0  2  0  0  0  0  0  0  0  0  0
  151.5835  141.3371  157.8168 N   0  0  0  0  0  0  0  0  0  0  0  0
  150.8396  140.5790  156.9959 C   0  0  0  0  0  0  0  0  0  0  0  0
  150.0787  139.6957  157.3929 O   0  0  0  0  0  0  0  0  0  0  0  0
  150.9574  140.8952  155.4982 C   0  0  0  0  0  0  0  0  0  0  0  0
  149.8393  140.3591  154.7083 N   0  0  0  0  0  0  0  0  0  0  0  0
  148.7790  141.1786  154.3481 C   0  0  0  0  0  0  0  0  0  0  0  0
  147.7146  140.7481  153.6302 C   0  0  0  0  0  0  0  0  0  0  0  0
  147.6332  139.3595  153.1903 C   0  0  0  0  0  0  0  0  0  0  0  0
  146.7127  138.8755  152.5356 O   0  0  0  0  0  0  0  0  0  0  0  0
  148.7175  138.5663  153.5746 N   0  0  0  0  0  0  0  0  0  0  0  0
  149.8165  139.0030  154.3159 C   0  0  0  0  0  0  0  0  0  0  0  0
  150.7190  138.2182  154.6049 O   0  0  0  0  0  0  0  0  0  0  0  0
  152.3167  142.4776  159.8790 C   0  0  1  0  0  0  0  0  0  0  0  0
  151.7772  143.8177  159.3788 C   0  0  0  0  0  0  0  0  0  0  0  0
  152.2322  144.7569  160.4727 C   0  0  0  0  0  0  0  0  0  0  0  0
  152.0981  143.8936  161.7266 C   0  0  0  0  0  0  0  0  0  0  0  0
  152.1004  142.5375  161.2851 O   0  0  0  0  0  0  0  0  0  0  0  0
  148.7040  137.5964  153.2946 H   0  0  0  0  0  0  0  0  0  0  0  0
  152.3975  139.8000  160.7309 H   0  0  0  0  0  0  0  0  0  0  0  0
  153.3992  139.9454  159.2894 H   0  0  0  0  0  0  0  0  0  0  0  0
  151.8728  139.0669  159.2223 H   0  0  0  0  0  0  0  0  0  0  0  0
  150.6229  141.1635  159.6774 H   0  0  0  0  0  0  0  0  0  0  0  0
  152.1697  142.0438  157.3968 H   0  0  0  0  0  0  0  0  0  0  0  0
  151.0142  141.9787  155.3865 H   0  0  0  0  0  0  0  0  0  0  0  0
  151.9055  140.5165  155.1108 H   0  0  0  0  0  0  0  0  0  0  0  0
  148.7943  142.2144  154.6559 H   0  0  0  0  0  0  0  0  0  0  0  0
  146.9185  141.4345  153.3808 H   0  0  0  0  0  0  0  0  0  0  0  0
  153.3939  142.4391  159.7052 H   0  0  0  0  0  0  0  0  0  0  0  0
  152.1594  144.0934  158.3957 H   0  0  0  0  0  0  0  0  0  0  0  0
  150.6874  143.7986  159.3311 H   0  0  0  0  0  0  0  0  0  0  0  0
  153.2769  145.0286  160.3166 H   0  0  0  0  0  0  0  0  0  0  0  0
  151.6451  145.6743  160.5216 H   0  0  0  0  0  0  0  0  0  0  0  0
  152.9097  144.0768  162.4313 H   0  0  0  0  0  0  0  0  0  0  0  0
  151.1554  144.0917  162.2374 H   0  0  0  0  0  0  0  0  0  0  0  0
  1  2  1  0  0  0  0
  1 21  1  0  0  0  0
  1 22  1  0  0  0  0
  1 23  1  0  0  0  0
  2  3  1  0  0  0  0
  2 15  1  0  0  0  0
  2 24  1  0  0  0  0
  3  4  1  0  0  0  0
  3 25  1  0  0  0  0
  4  5  2  0  0  0  0
  4  6  1  0  0  0  0
  6  7  1  0  0  0  0
  6 26  1  0  0  0  0
  6 27  1  0  0  0  0
  7 13  1  0  0  0  0
  7  8  1  0  0  0  0
  8  9  2  0  0  0  0
  8 28  1  0  0  0  0
  9 10  1  0  0  0  0
  9 29  1  0  0  0  0
 10 11  2  0  0  0  0
 10 12  1  0  0  0  0
 12 20  1  0  0  0  0
 12 13  1  0  0  0  0
 13 14  2  0  0  0  0
 15 19  1  0  0  0  0
 15 16  1  0  0  0  0
 15 30  1  0  0  0  0
 16 17  1  0  0  0  0
 16 31  1  0  0  0  0
 16 32  1  0  0  0  0
 17 18  1  0  0  0  0
 17 33  1  0  0  0  0
 17 34  1  0  0  0  0
 18 19  1  0  0  0  0
 18 35  1  0  0  0  0
 18 36  1  0  0  0  0
M  END
> <s_m_source_file>
AV-unprocessed.smi

> <i_m_source_file_index>
1403

> <i_lp_mmshare_version>
43012

> <i_f3d_flags>
0

> <s_epik_input>
TzFbQ0gyXVtDSDJdW0NIMl1bQ0BIXTFbQ0BIXShbQ0gzXSlbTkhdQyg9TylbQ0gyXW4yW2NIXVtjSF1jKD1PKVtuSF1jMj1P

> <s_epik_cmdline>
J2VwaWtfcHl0aG9uJywgJy1waCcsICc3LjAnLCAnLXRuJywgJzgnLCAnLW1hJywgJzIwMCcsICctbWV0YWxfYmluZGluZycsICctaW1hZScsICc8aW5maWxlLm1hZT4nLCAnLW9tYWUnLCAnPG91dGZpbGUubWFlPic=

> <r_lp_tautomer_probability>
0.999537

> <r_epik_Ionization_Penalty>
0.00331407

> <r_epik_Ionization_Penalty_Charging>
0.00331405

> <r_epik_Ionization_Penalty_Neutral>
2.30132e-08

> <r_epik_State_Penalty>
0.00234266

> <r_epik_Charging_Adjusted_Penalty>
0.00565671

> <i_epik_Tot_Q>
0

> <i_epik_Tot_abs_Q>
0

> <r_epik_Metal_State_Penalty>
0.365604

> <b_epik_Metal_Only>
0

> <s_lp_Force_Field>
OPLS_2005

> <r_lp_Energy>
18.4227

> <b_lp_Chiralities_Consistent>
1

> <s_lp_Variant>
AV-unprocessed.smi:1403-3

> <Gold.Version>
5.8.1

> <Gold.Id.Protein>
6NUR|6NUR_protein|mol2

> <Gold.PLP.Fitness>
41.6211

> <Gold.PLP.PLP>
-37.3247

> <Gold.PLP.part.hbond>
-2.3368

> <Gold.PLP.part.metal>
0.0000

> <Gold.PLP.part.buried>
-1.4761

> <Gold.PLP.part.nonpolar>
-33.1359

> <Gold.PLP.part.repulsive>
0.6756

> <Gold.PLP.ligand.clash>
0.0000

> <Gold.PLP.ligand.torsion>
0.8080

> <Gold.PLP.Chemscore.Hbond>
0.9913

> <Gold.PLP.Chemscore.CHOScore>
0.9742

> <Gold.PLP.Chemscore.Metal>
0.0000

> <Gold.Chemscore.Hbonds>
donor molecule, donor type, donor heavy atom, donor atom, acceptor molecule, acceptor atom, score
      L1  H    12    20       P1  7948  0.96
      P1  H  6933  6945       L1    19  0.06
      L1  C     8    28       P1  8028  0.62

> <Gold.PLP.Chemscore.Internal.Correction>
0.0160

> <Gold.Rescore>
     Score         DG    S(hbond)    S(metal)    S(lipo)     H(rot)  DE(clash)    DE(int)     intcor
     11.77     -12.50       0.92        0.00      78.33       2.04       0.06       0.67       ----

> <Gold.Chemscore.Fitness>
11.7699

> <Gold.Chemscore.DG>
-12.5023

> <Gold.Chemscore.ZeroCoef>
-5.4800

> <Gold.Chemscore.Hbond>
0.9218

> <Gold.Chemscore.Metal>
0.0000

> <Gold.Chemscore.Lipo>
78.3292

> <Gold.Chemscore.Internal_Hbond>
0.0000

> <Gold.Chemscore.DEClash>
0.0589

> <Gold.Chemscore.DEInternal>
0.6735

> <Gold.Chemscore.Rot>
2.0395

> <Gold.Chemscore.Internal.Correction>
   9.000000E+99

> <Gold.Chemscore.Hbonds>
donor molecule, donor type, donor heavy atom, donor atom, acceptor molecule, acceptor atom, score
      L1  H    12    20       P1  7948  0.90
      P1  H  6933  6945       L1    19  0.02

> <Gold.Chemscore.Hbond.Weighted>
-3.0788

> <Gold.Chemscore.Metal.Weighted>
-0.0000

> <Gold.Chemscore.Lipo.Weighted>
-9.1645

> <Gold.Chemscore.Internal_Hbond.Weighted>
0.0000

> <Gold.Chemscore.DEClash.Weighted>
0.0589

> <Gold.Chemscore.DEInternal.Weighted>
0.6735

> <Gold.Chemscore.Rot.Weighted>
5.2211

> <Gold.Chemscore.Internal.Correction.Weighted>
   9.000000E+99

> <Gold.Protein.RotatedTorsions>
[ 6907 6896 6895 6894 ] final  -41.99 input  -60.11 | X-H torsion
[ 7974 7965 7964 7962 ] final  153.12 input  175.53 | X-H torsion
[ 8008 7997 7996 7995 ] final -175.07 input   59.86 | X-H torsion
[ 10167 10162 10161 10158 ] final -140.19 input  -65.29 | X-H torsion
[ 10718 10713 10712 10709 ] final   34.71 input   66.30 | X-H torsion
[ 10763 10752 10751 10750 ] final -118.22 input  -60.55 | X-H torsion
[ 11005 11000 10999 10996 ] final  163.41 input  -57.11 | X-H torsion

> <Gold.Protein.ActiveResidues>
 VAL166  LYS551  ARG553  GLY616  TRP617  ASP618  TYR619  PRO620  LYS621  CYS622 
 ASP623  PHE694  ASN695  SER759  ASP760  ASP761  ALA762  ILE779  LEU786  VAL792 
 PHE793  MET794  SER795  GLU796  ALA797  LYS798  CYS799  TRP800  GLU811  SER814 

> <Gold.Protein.RotatedAtoms>
  150.9603  134.8992  159.7726 H   0  0  0  0  0  0  0  0  0  0  0  0  # atno 6907 bound_to 6896
  152.5154  134.3682  159.9318 H   0  0  0  0  0  0  0  0  0  0  0  0  # atno 6908 bound_to 6896
  151.3694  133.3820  159.2733 H   0  0  0  0  0  0  0  0  0  0  0  0  # atno 6909 bound_to 6896
  144.8176  139.6759  143.6114 H   0  0  0  0  0  0  0  0  0  0  0  0  # atno 7974 bound_to 7965
  155.9780  140.1176  157.0753 H   0  0  0  0  0  0  0  0  0  0  0  0  # atno 8008 bound_to 7997
  154.4174  140.1150  156.5464 H   0  0  0  0  0  0  0  0  0  0  0  0  # atno 8009 bound_to 7997
  155.6509  140.3473  155.4750 H   0  0  0  0  0  0  0  0  0  0  0  0  # atno 8010 bound_to 7997
  139.8306  143.7453  152.2666 H   0  0  0  0  0  0  0  0  0  0  0  0  # atno 10167 bound_to 10162
  157.3136  130.7412  149.6740 H   0  0  0  0  0  0  0  0  0  0  0  0  # atno 10718 bound_to 10713
  154.8580  135.4282  154.2104 H   0  0  0  0  0  0  0  0  0  0  0  0  # atno 10763 bound_to 10752
  153.3131  135.6977  153.7104 H   0  0  0  0  0  0  0  0  0  0  0  0  # atno 10764 bound_to 10752
  153.6188  135.3505  155.2978 H   0  0  0  0  0  0  0  0  0  0  0  0  # atno 10765 bound_to 10752
  140.2355  134.8091  157.3359 H   0  0  0  0  0  0  0  0  0  0  0  0  # atno 11005 bound_to 11000
  146.2480  139.6138  142.9447 LP  0  0  0  0  0  0  0  0  0  0  0  0  # atno 17320 bound_to 7965
  145.5179  141.0433  143.2451 LP  0  0  0  0  0  0  0  0  0  0  0  0  # atno 17321 bound_to 7965
  139.7659  144.7492  151.0295 LP  0  0  0  0  0  0  0  0  0  0  0  0  # atno 17342 bound_to 10162
  140.7807  143.4699  151.0161 LP  0  0  0  0  0  0  0  0  0  0  0  0  # atno 17343 bound_to 10162
  155.9680  130.4244  150.4606 LP  0  0  0  0  0  0  0  0  0  0  0  0  # atno 17370 bound_to 10713
  157.2609  131.0566  151.2321 LP  0  0  0  0  0  0  0  0  0  0  0  0  # atno 17371 bound_to 10713
  140.1706  134.4613  155.7834 LP  0  0  0  0  0  0  0  0  0  0  0  0  # atno 17394 bound_to 11000
  141.2214  133.6940  156.7702 LP  0  0  0  0  0  0  0  0  0  0  0  0  # atno 17395 bound_to 11000

$$$$
