AV-unprocessed.smi:785|AV-procd|sdf|3720|dock10
  -GOLD-   22720 1143D 1   1.00000     0.00000
 Structure written by MMmdl.
 35 36  0  0  0  0  0  0  0  0  1 V2000
  153.4080  142.3547  160.9476 C   0  0  0  0  0  0  0  0  0  0  0  0
  152.4783  142.7102  159.8384 C   0  0  0  0  0  0  0  0  0  0  0  0
  151.3151  142.0908  159.6214 N   0  0  0  0  0  0  0  0  0  0  0  0
  150.6263  142.6062  158.5179 C   0  0  0  0  0  0  0  0  0  0  0  0
  149.2947  142.0323  158.1283 C   0  0  0  0  0  0  0  0  0  0  0  0
  149.3847  141.3562  156.7591 C   0  0  0  0  0  0  0  0  0  0  0  0
  149.9345  140.2607  156.6478 O   0  0  0  0  0  0  0  0  0  0  0  0
  148.8334  142.0140  155.7268 N   0  0  0  0  0  0  0  0  0  0  0  0
  148.8069  141.5384  154.3493 C   0  0  0  0  0  0  0  0  0  0  0  0
  147.3700  141.4831  153.8012 C   0  0  0  0  0  0  0  0  0  0  0  0
  146.6337  142.7037  154.1072 N   0  0  0  0  0  0  0  0  0  0  0  0
  145.5631  142.7784  154.9124 C   0  0  0  0  0  0  0  0  0  0  0  0
  145.0860  141.7985  155.4871 O   0  0  0  0  0  0  0  0  0  0  0  0
  145.0028  144.1564  155.0492 C   0  0  0  0  0  0  0  0  0  0  0  0
  143.5350  144.3541  154.7291 C   0  0  0  0  0  0  0  0  0  0  0  0
  144.5864  144.8755  153.7821 C   0  0  0  0  0  0  0  0  0  0  0  0
  151.2903  143.6394  157.9031 C   0  0  0  0  0  0  0  0  0  0  0  0
  152.8088  143.9923  158.6803 S   0  0  0  0  0  0  0  0  0  0  0  0
  152.9315  141.6613  161.6414 H   0  0  0  0  0  0  0  0  0  0  0  0
  153.6960  143.2522  161.4950 H   0  0  0  0  0  0  0  0  0  0  0  0
  154.3059  141.8861  160.5448 H   0  0  0  0  0  0  0  0  0  0  0  0
  148.9558  141.3036  158.8662 H   0  0  0  0  0  0  0  0  0  0  0  0
  148.5330  142.8124  158.0975 H   0  0  0  0  0  0  0  0  0  0  0  0
  148.4019  142.9087  155.9088 H   0  0  0  0  0  0  0  0  0  0  0  0
  149.4131  142.2189  153.7506 H   0  0  0  0  0  0  0  0  0  0  0  0
  149.2819  140.5583  154.2809 H   0  0  0  0  0  0  0  0  0  0  0  0
  147.3846  141.3660  152.7173 H   0  0  0  0  0  0  0  0  0  0  0  0
  146.8402  140.6159  154.1993 H   0  0  0  0  0  0  0  0  0  0  0  0
  146.9623  143.5548  153.6745 H   0  0  0  0  0  0  0  0  0  0  0  0
  145.4158  144.7726  155.8466 H   0  0  0  0  0  0  0  0  0  0  0  0
  142.9516  143.4942  154.4038 H   0  0  0  0  0  0  0  0  0  0  0  0
  142.9908  145.0749  155.3358 H   0  0  0  0  0  0  0  0  0  0  0  0
  144.7546  145.9498  153.7466 H   0  0  0  0  0  0  0  0  0  0  0  0
  144.7006  144.3611  152.8294 H   0  0  0  0  0  0  0  0  0  0  0  0
  150.9800  144.2107  157.0408 H   0  0  0  0  0  0  0  0  0  0  0  0
  1  2  1  0  0  0  0
  1 19  1  0  0  0  0
  1 20  1  0  0  0  0
  1 21  1  0  0  0  0
  2 18  1  0  0  0  0
  2  3  2  0  0  0  0
  3  4  1  0  0  0  0
  4  5  1  0  0  0  0
  4 17  2  0  0  0  0
  5  6  1  0  0  0  0
  5 22  1  0  0  0  0
  5 23  1  0  0  0  0
  6  7  2  0  0  0  0
  6  8  1  0  0  0  0
  8  9  1  0  0  0  0
  8 24  1  0  0  0  0
  9 10  1  0  0  0  0
  9 25  1  0  0  0  0
  9 26  1  0  0  0  0
 10 11  1  0  0  0  0
 10 27  1  0  0  0  0
 10 28  1  0  0  0  0
 11 12  1  0  0  0  0
 11 29  1  0  0  0  0
 12 13  2  0  0  0  0
 12 14  1  0  0  0  0
 14 16  1  0  0  0  0
 14 15  1  0  0  0  0
 14 30  1  0  0  0  0
 15 16  1  0  0  0  0
 15 31  1  0  0  0  0
 15 32  1  0  0  0  0
 16 33  1  0  0  0  0
 16 34  1  0  0  0  0
 17 18  1  0  0  0  0
 17 35  1  0  0  0  0
M  END
> <s_m_source_file>
AV-unprocessed.smi

> <i_m_source_file_index>
785

> <i_lp_mmshare_version>
43012

> <i_f3d_flags>
0

> <s_epik_input>
W0NIM11jMW5jKFtjSF1zMSlbQ0gyXUMoPU8pW05IXVtDSDJdW0NIMl1bTkhdQyg9TylbQ0hdMltDSDJdW0NIMl0y

> <s_epik_cmdline>
J2VwaWtfcHl0aG9uJywgJy1waCcsICc3LjAnLCAnLXRuJywgJzgnLCAnLW1hJywgJzIwMCcsICctbWV0YWxfYmluZGluZycsICctaW1hZScsICc8aW5maWxlLm1hZT4nLCAnLW9tYWUnLCAnPG91dGZpbGUubWFlPic=

> <r_lp_tautomer_probability>
1

> <r_epik_Ionization_Penalty>
4.93122e-05

> <r_epik_Ionization_Penalty_Charging>
0

> <r_epik_Ionization_Penalty_Neutral>
4.93122e-05

> <r_epik_State_Penalty>
-0

> <r_epik_Charging_Adjusted_Penalty>
0

> <i_epik_Tot_Q>
0

> <i_epik_Tot_abs_Q>
0

> <r_epik_Metal_State_Penalty>
-0

> <b_epik_Metal_Only>
0

> <s_lp_Force_Field>
OPLS_2005

> <r_lp_Energy>
2.28636

> <b_lp_Chiralities_Consistent>
1

> <s_lp_Variant>
AV-unprocessed.smi:785-1

> <Gold.Version>
5.8.1

> <Gold.Id.Protein>
6NUR|6NUR_protein|mol2

> <Gold.PLP.Fitness>
41.6918

> <Gold.PLP.PLP>
-37.0292

> <Gold.PLP.part.hbond>
-1.8481

> <Gold.PLP.part.metal>
0.0000

> <Gold.PLP.part.buried>
-6.0679

> <Gold.PLP.part.nonpolar>
-29.4176

> <Gold.PLP.part.repulsive>
0.3854

> <Gold.PLP.ligand.clash>
0.0000

> <Gold.PLP.ligand.torsion>
0.3241

> <Gold.PLP.Chemscore.Hbond>
0.7360

> <Gold.PLP.Chemscore.CHOScore>
1.0000

> <Gold.PLP.Chemscore.Metal>
0.0000

> <Gold.Chemscore.Hbonds>
donor molecule, donor type, donor heavy atom, donor atom, acceptor molecule, acceptor atom, score
      L1  H     8    24       P1  8028  0.74
      L1  C    17    35       P1  8028  1.00

> <Gold.PLP.Chemscore.Internal.Correction>
0.1029

> <Gold.Rescore>
     Score         DG    S(hbond)    S(metal)    S(lipo)     H(rot)  DE(clash)    DE(int)     intcor
     13.24     -13.62       0.80        0.00      93.95       2.16       0.07       0.30       ----

> <Gold.Chemscore.Fitness>
13.2433

> <Gold.Chemscore.DG>
-13.6199

> <Gold.Chemscore.ZeroCoef>
-5.4800

> <Gold.Chemscore.Hbond>
0.7994

> <Gold.Chemscore.Metal>
0.0000

> <Gold.Chemscore.Lipo>
93.9550

> <Gold.Chemscore.Internal_Hbond>
0.0000

> <Gold.Chemscore.DEClash>
0.0717

> <Gold.Chemscore.DEInternal>
0.3050

> <Gold.Chemscore.Rot>
2.1573

> <Gold.Chemscore.Internal.Correction>
   9.000000E+99

> <Gold.Chemscore.Hbonds>
donor molecule, donor type, donor heavy atom, donor atom, acceptor molecule, acceptor atom, score
      L1  H     8    24       P1  8028  0.71

> <Gold.Chemscore.Hbond.Weighted>
-2.6700

> <Gold.Chemscore.Metal.Weighted>
-0.0000

> <Gold.Chemscore.Lipo.Weighted>
-10.9927

> <Gold.Chemscore.Internal_Hbond.Weighted>
0.0000

> <Gold.Chemscore.DEClash.Weighted>
0.0717

> <Gold.Chemscore.DEInternal.Weighted>
0.3050

> <Gold.Chemscore.Rot.Weighted>
5.5228

> <Gold.Chemscore.Internal.Correction.Weighted>
   9.000000E+99

> <Gold.Protein.RotatedTorsions>
[ 6907 6896 6895 6894 ] final   90.18 input  -60.11 | X-H torsion
[ 7974 7965 7964 7962 ] final  -11.18 input  175.53 | X-H torsion
[ 8008 7997 7996 7995 ] final  104.66 input   59.86 | X-H torsion
[ 10167 10162 10161 10158 ] final   42.73 input  -65.29 | X-H torsion
[ 10718 10713 10712 10709 ] final    2.74 input   66.30 | X-H torsion
[ 10763 10752 10751 10750 ] final  -51.33 input  -60.55 | X-H torsion
[ 11005 11000 10999 10996 ] final   43.43 input  -57.11 | X-H torsion

> <Gold.Protein.ActiveResidues>
 VAL166  LYS551  ARG553  GLY616  TRP617  ASP618  TYR619  PRO620  LYS621  CYS622 
 ASP623  PHE694  ASN695  SER759  ASP760  ASP761  ALA762  ILE779  LEU786  VAL792 
 PHE793  MET794  SER795  GLU796  ALA797  LYS798  CYS799  TRP800  GLU811  SER814 

> <Gold.Protein.RotatedAtoms>
  152.5442  134.1851  159.8650 H   0  0  0  0  0  0  0  0  0  0  0  0  # atno 6907 bound_to 6896
  151.1850  133.4695  159.2602 H   0  0  0  0  0  0  0  0  0  0  0  0  # atno 6908 bound_to 6896
  151.1140  135.0054  159.8563 H   0  0  0  0  0  0  0  0  0  0  0  0  # atno 6909 bound_to 6896
  146.2196  140.2872  142.8366 H   0  0  0  0  0  0  0  0  0  0  0  0  # atno 7974 bound_to 7965
  156.1592  140.3144  155.8778 H   0  0  0  0  0  0  0  0  0  0  0  0  # atno 8008 bound_to 7997
  155.3817  140.0488  157.3060 H   0  0  0  0  0  0  0  0  0  0  0  0  # atno 8009 bound_to 7997
  154.5130  140.2171  155.9131 H   0  0  0  0  0  0  0  0  0  0  0  0  # atno 8010 bound_to 7997
  140.3515  144.2344  150.6145 H   0  0  0  0  0  0  0  0  0  0  0  0  # atno 10167 bound_to 10162
  156.8674  130.5608  149.5659 H   0  0  0  0  0  0  0  0  0  0  0  0  # atno 10718 bound_to 10713
  154.1248  135.6529  153.4910 H   0  0  0  0  0  0  0  0  0  0  0  0  # atno 10763 bound_to 10752
  153.0214  135.5278  154.7061 H   0  0  0  0  0  0  0  0  0  0  0  0  # atno 10764 bound_to 10752
  154.6279  135.2972  155.0221 H   0  0  0  0  0  0  0  0  0  0  0  0  # atno 10765 bound_to 10752
  140.1646  134.4298  155.8296 H   0  0  0  0  0  0  0  0  0  0  0  0  # atno 11005 bound_to 11000
  144.9153  140.7805  143.5782 LP  0  0  0  0  0  0  0  0  0  0  0  0  # atno 17320 bound_to 7965
  145.2806  139.1920  143.4793 LP  0  0  0  0  0  0  0  0  0  0  0  0  # atno 17321 bound_to 7965
  140.5214  143.2265  151.8382 LP  0  0  0  0  0  0  0  0  0  0  0  0  # atno 17342 bound_to 10162
  139.4826  144.4832  151.9280 LP  0  0  0  0  0  0  0  0  0  0  0  0  # atno 17343 bound_to 10162
  156.0744  130.5770  150.9446 LP  0  0  0  0  0  0  0  0  0  0  0  0  # atno 17370 bound_to 10713
  157.6215  131.0929  150.8613 LP  0  0  0  0  0  0  0  0  0  0  0  0  # atno 17371 bound_to 10713
  141.2212  133.6928  156.7655 LP  0  0  0  0  0  0  0  0  0  0  0  0  # atno 17394 bound_to 11000
  140.2449  134.8585  157.3610 LP  0  0  0  0  0  0  0  0  0  0  0  0  # atno 17395 bound_to 11000

$$$$
