AV-unprocessed.smi:91|AV-procd|sdf|838|dock8
  -GOLD-   2262017273D 1   1.00000     0.00000
 Structure written by MMmdl.
 60 63  0  0  0  0  0  0  0  0  1 V2000
  155.3651  139.9937  161.6906 C   0  0  0  0  0  0  0  0  0  0  0  0
  154.6756  140.4323  160.5307 O   0  0  0  0  0  0  0  0  0  0  0  0
  153.6285  141.3595  160.7882 C   0  0  0  0  0  0  0  0  0  0  0  0
  153.1355  142.0651  159.5127 C   0  0  1  0  0  0  0  0  0  0  0  0
  152.4090  141.0956  158.5629 C   0  0  0  0  0  0  0  0  0  0  0  0
  151.8191  141.8334  157.4576 N   0  0  0  0  0  0  0  0  0  0  0  0
  151.3961  141.0418  156.4488 C   0  0  0  0  0  0  0  0  0  0  0  0
  152.3232  140.2317  155.8811 N   0  0  0  0  0  0  0  0  0  0  0  0
  151.9759  139.4109  154.8855 C   0  0  0  0  0  0  0  0  0  0  0  0
  150.7769  139.2390  154.3256 N   0  0  0  0  0  0  0  0  0  0  0  0
  149.8385  140.0412  154.9050 C   0  0  0  0  0  0  0  0  0  0  0  0
  150.0587  140.9676  155.9638 C   0  0  0  0  0  0  0  0  0  0  0  0
  148.8631  141.5936  156.2973 N   0  0  0  0  0  0  0  0  0  0  0  0
  147.9886  141.0705  155.4823 C   0  0  0  0  0  0  0  0  0  0  0  0
  148.4873  140.1242  154.6174 N   0  0  0  0  0  0  0  0  0  0  0  0
  147.7346  139.3808  153.6219 C   0  0  0  0  0  0  0  0  0  0  0  0
  146.7098  138.3994  154.2436 C   0  0  2  0  0  0  0  0  0  0  0  0
  147.3634  137.3951  155.2243 C   0  0  0  0  0  0  0  0  0  0  0  0
  148.3769  136.6408  154.5921 O   0  0  0  0  0  0  0  0  0  0  0  0
  145.8645  137.6939  153.1530 C   0  0  1  0  0  0  0  0  0  0  0  0
  146.6647  136.9050  152.1316 C   0  0  0  0  0  0  0  0  0  0  0  0
  145.6031  135.9910  151.5310 C   0  0  0  0  0  0  0  0  0  0  0  0
  144.7013  135.7054  152.5936 O   0  0  0  0  0  0  0  0  0  0  0  0
  144.9283  136.5999  153.6787 C   0  0  0  0  0  0  0  0  0  0  0  0
  150.9106  142.8830  157.8987 C   0  0  0  0  0  0  0  0  0  0  0  0
  151.6313  143.8558  158.8575 C   0  0  0  0  0  0  0  0  0  0  0  0
  152.6744  144.7267  158.1249 C   0  0  0  0  0  0  0  0  0  0  0  0
  150.6025  144.7697  159.5413 C   0  0  0  0  0  0  0  0  0  0  0  0
  152.2361  143.1009  159.9153 O   0  0  0  0  0  0  0  0  0  0  0  0
  156.1026  139.2421  161.4091 H   0  0  0  0  0  0  0  0  0  0  0  0
  154.6826  139.5382  162.4091 H   0  0  0  0  0  0  0  0  0  0  0  0
  155.8976  140.8088  162.1800 H   0  0  0  0  0  0  0  0  0  0  0  0
  152.8005  140.8050  161.2310 H   0  0  0  0  0  0  0  0  0  0  0  0
  153.9426  142.0880  161.5373 H   0  0  0  0  0  0  0  0  0  0  0  0
  153.9862  142.5137  159.0024 H   0  0  0  0  0  0  0  0  0  0  0  0
  153.1083  140.3477  158.1863 H   0  0  0  0  0  0  0  0  0  0  0  0
  151.6217  140.5608  159.0966 H   0  0  0  0  0  0  0  0  0  0  0  0
  152.7721  138.8036  154.4811 H   0  0  0  0  0  0  0  0  0  0  0  0
  146.9467  141.3560  155.4949 H   0  0  0  0  0  0  0  0  0  0  0  0
  147.2320  140.1069  152.9828 H   0  0  0  0  0  0  0  0  0  0  0  0
  148.4349  138.8428  152.9820 H   0  0  0  0  0  0  0  0  0  0  0  0
  146.0224  139.0017  154.8396 H   0  0  0  0  0  0  0  0  0  0  0  0
  147.7946  137.9094  156.0830 H   0  0  0  0  0  0  0  0  0  0  0  0
  146.6206  136.7097  155.6314 H   0  0  0  0  0  0  0  0  0  0  0  0
  148.3011  136.7580  153.6573 H   0  0  0  0  0  0  0  0  0  0  0  0
  145.2633  138.4334  152.6211 H   0  0  0  0  0  0  0  0  0  0  0  0
  147.1446  137.5330  151.3804 H   0  0  0  0  0  0  0  0  0  0  0  0
  147.4352  136.3105  152.6249 H   0  0  0  0  0  0  0  0  0  0  0  0
  145.0570  136.5101  150.7424 H   0  0  0  0  0  0  0  0  0  0  0  0
  146.0258  135.0794  151.1079 H   0  0  0  0  0  0  0  0  0  0  0  0
  145.4012  136.0396  154.4863 H   0  0  0  0  0  0  0  0  0  0  0  0
  143.9877  137.0029  154.0552 H   0  0  0  0  0  0  0  0  0  0  0  0
  150.5081  143.4190  157.0380 H   0  0  0  0  0  0  0  0  0  0  0  0
  150.0669  142.4304  158.4199 H   0  0  0  0  0  0  0  0  0  0  0  0
  152.1922  145.3878  157.4044 H   0  0  0  0  0  0  0  0  0  0  0  0
  153.4004  144.1328  157.5704 H   0  0  0  0  0  0  0  0  0  0  0  0
  153.2261  145.3521  158.8273 H   0  0  0  0  0  0  0  0  0  0  0  0
  150.0650  145.3776  158.8127 H   0  0  0  0  0  0  0  0  0  0  0  0
  151.0843  145.4469  160.2474 H   0  0  0  0  0  0  0  0  0  0  0  0
  149.8649  144.1889  160.0962 H   0  0  0  0  0  0  0  0  0  0  0  0
  1  2  1  0  0  0  0
  1 30  1  0  0  0  0
  1 31  1  0  0  0  0
  1 32  1  0  0  0  0
  2  3  1  0  0  0  0
  3  4  1  0  0  0  0
  3 33  1  0  0  0  0
  3 34  1  0  0  0  0
  4 29  1  0  0  0  0
  4  5  1  0  0  0  0
  4 35  1  0  0  0  0
  5  6  1  0  0  0  0
  5 36  1  0  0  0  0
  5 37  1  0  0  0  0
  6  7  1  0  0  0  0
  6 25  1  0  0  0  0
  7 12  1  0  0  0  0
  7  8  2  0  0  0  0
  8  9  1  0  0  0  0
  9 10  2  0  0  0  0
  9 38  1  0  0  0  0
 10 11  1  0  0  0  0
 11 15  1  0  0  0  0
 11 12  2  0  0  0  0
 12 13  1  0  0  0  0
 13 14  2  0  0  0  0
 14 15  1  0  0  0  0
 14 39  1  0  0  0  0
 15 16  1  0  0  0  0
 16 17  1  0  0  0  0
 16 40  1  0  0  0  0
 16 41  1  0  0  0  0
 17 18  1  0  0  0  0
 17 20  1  0  0  0  0
 17 42  1  0  0  0  0
 18 19  1  0  0  0  0
 18 43  1  0  0  0  0
 18 44  1  0  0  0  0
 19 45  1  0  0  0  0
 20 24  1  0  0  0  0
 20 21  1  0  0  0  0
 20 46  1  0  0  0  0
 21 22  1  0  0  0  0
 21 47  1  0  0  0  0
 21 48  1  0  0  0  0
 22 23  1  0  0  0  0
 22 49  1  0  0  0  0
 22 50  1  0  0  0  0
 23 24  1  0  0  0  0
 24 51  1  0  0  0  0
 24 52  1  0  0  0  0
 25 26  1  0  0  0  0
 25 53  1  0  0  0  0
 25 54  1  0  0  0  0
 26 27  1  0  0  0  0
 26 28  1  0  0  0  0
 26 29  1  0  0  0  0
 27 55  1  0  0  0  0
 27 56  1  0  0  0  0
 27 57  1  0  0  0  0
 28 58  1  0  0  0  0
 28 59  1  0  0  0  0
 28 60  1  0  0  0  0
M  END
> <s_m_source_file>
AV-unprocessed.smi

> <i_m_source_file_index>
91

> <i_lp_mmshare_version>
43012

> <i_f3d_flags>
0

> <s_epik_input>
W0NIM11PW0NIMl1bQ0BASF0oTzEpW0NIMl1OKFtDSDJdQzEoW0NIM10pW0NIM10pYyhuW2NIXW4yKWMoYzIzKW5bY0hdbjNbQ0gyXVtDQEhdKFtDSDJdW09IXSlbQ0BASF00W0NIMl1bQ0gyXU9bQ0gyXTQ=

> <s_epik_cmdline>
J2VwaWtfcHl0aG9uJywgJy1waCcsICc3LjAnLCAnLXRuJywgJzgnLCAnLW1hJywgJzIwMCcsICctbWV0YWxfYmluZGluZycsICctaW1hZScsICc8aW5maWxlLm1hZT4nLCAnLW9tYWUnLCAnPG91dGZpbGUubWFlPic=

> <r_lp_tautomer_probability>
1

> <r_epik_Ionization_Penalty>
8.63591e-05

> <r_epik_Ionization_Penalty_Charging>
0

> <r_epik_Ionization_Penalty_Neutral>
8.63591e-05

> <r_epik_State_Penalty>
-0

> <r_epik_Charging_Adjusted_Penalty>
0

> <i_epik_Tot_Q>
0

> <i_epik_Tot_abs_Q>
0

> <r_epik_Metal_State_Penalty>
-0

> <b_epik_Metal_Only>
0

> <s_lp_Force_Field>
OPLS_2005

> <r_lp_Energy>
49.535

> <b_lp_Chiralities_Consistent>
1

> <s_lp_Variant>
AV-unprocessed.smi:91-6

> <Gold.Version>
5.8.1

> <Gold.Id.Protein>
6NUR|6NUR_protein|mol2

> <Gold.PLP.Fitness>
50.4328

> <Gold.PLP.PLP>
-45.2707

> <Gold.PLP.part.hbond>
-3.0000

> <Gold.PLP.part.metal>
0.0000

> <Gold.PLP.part.buried>
2.0034

> <Gold.PLP.part.nonpolar>
-44.8362

> <Gold.PLP.part.repulsive>
1.0066

> <Gold.PLP.ligand.clash>
0.0000

> <Gold.PLP.ligand.torsion>
0.3796

> <Gold.PLP.Chemscore.Hbond>
1.8385

> <Gold.PLP.Chemscore.CHOScore>
0.0000

> <Gold.PLP.Chemscore.Metal>
0.0000

> <Gold.Chemscore.Hbonds>
donor molecule, donor type, donor heavy atom, donor atom, acceptor molecule, acceptor atom, score
      L1  H    19    45       P1  7948  0.93
      P1  H  7997  8010       L1     8  0.96

> <Gold.PLP.Chemscore.Internal.Correction>
0.4059

> <Gold.Rescore>
     Score         DG    S(hbond)    S(metal)    S(lipo)     H(rot)  DE(clash)    DE(int)     intcor
     11.24     -16.74       1.49        0.00     120.00       3.03       3.87       1.64       ----

> <Gold.Chemscore.Fitness>
11.2354

> <Gold.Chemscore.DG>
-16.7447

> <Gold.Chemscore.ZeroCoef>
-5.4800

> <Gold.Chemscore.Hbond>
1.4902

> <Gold.Chemscore.Metal>
0.0000

> <Gold.Chemscore.Lipo>
120.0013

> <Gold.Chemscore.Internal_Hbond>
0.0000

> <Gold.Chemscore.DEClash>
3.8681

> <Gold.Chemscore.DEInternal>
1.6412

> <Gold.Chemscore.Rot>
3.0284

> <Gold.Chemscore.Internal.Correction>
   9.000000E+99

> <Gold.Chemscore.Hbonds>
donor molecule, donor type, donor heavy atom, donor atom, acceptor molecule, acceptor atom, score
      L1  H    19    45       P1  7948  0.88
      P1  H  7997  8010       L1     8  0.73

> <Gold.Chemscore.Hbond.Weighted>
-4.9774

> <Gold.Chemscore.Metal.Weighted>
-0.0000

> <Gold.Chemscore.Lipo.Weighted>
-14.0402

> <Gold.Chemscore.Internal_Hbond.Weighted>
0.0000

> <Gold.Chemscore.DEClash.Weighted>
3.8681

> <Gold.Chemscore.DEInternal.Weighted>
1.6412

> <Gold.Chemscore.Rot.Weighted>
7.7528

> <Gold.Chemscore.Internal.Correction.Weighted>
   9.000000E+99

> <Gold.Protein.RotatedTorsions>
[ 6907 6896 6895 6894 ] final   91.87 input  -60.11 | X-H torsion
[ 7974 7965 7964 7962 ] final -168.32 input  175.53 | X-H torsion
[ 8008 7997 7996 7995 ] final   81.18 input   59.86 | X-H torsion
[ 10167 10162 10161 10158 ] final  130.49 input  -65.29 | X-H torsion
[ 10718 10713 10712 10709 ] final  -50.83 input   66.30 | X-H torsion
[ 10763 10752 10751 10750 ] final  -10.49 input  -60.55 | X-H torsion
[ 11005 11000 10999 10996 ] final  -38.10 input  -57.11 | X-H torsion

> <Gold.Protein.ActiveResidues>
 VAL166  LYS551  ARG553  GLY616  TRP617  ASP618  TYR619  PRO620  LYS621  CYS622 
 ASP623  PHE694  ASN695  SER759  ASP760  ASP761  ALA762  ILE779  LEU786  VAL792 
 PHE793  MET794  SER795  GLU796  ALA797  LYS798  CYS799  TRP800  GLU811  SER814 

> <Gold.Protein.RotatedAtoms>
  152.5451  134.1590  159.8549 H   0  0  0  0  0  0  0  0  0  0  0  0  # atno 6907 bound_to 6896
  151.1610  133.4838  159.2602 H   0  0  0  0  0  0  0  0  0  0  0  0  # atno 6908 bound_to 6896
  151.1373  135.0172  159.8664 H   0  0  0  0  0  0  0  0  0  0  0  0  # atno 6909 bound_to 6896
  144.7205  140.2387  143.6294 H   0  0  0  0  0  0  0  0  0  0  0  0  # atno 7974 bound_to 7965
  155.8936  140.3437  155.5974 H   0  0  0  0  0  0  0  0  0  0  0  0  # atno 8008 bound_to 7997
  155.7582  140.0829  157.2187 H   0  0  0  0  0  0  0  0  0  0  0  0  # atno 8009 bound_to 7997
  154.4036  140.1540  156.2790 H   0  0  0  0  0  0  0  0  0  0  0  0  # atno 8010 bound_to 7997
  139.5427  144.6746  151.4571 H   0  0  0  0  0  0  0  0  0  0  0  0  # atno 10167 bound_to 10162
  156.1765  130.4150  149.9570 H   0  0  0  0  0  0  0  0  0  0  0  0  # atno 10718 bound_to 10713
  153.4699  135.7016  153.5999 H   0  0  0  0  0  0  0  0  0  0  0  0  # atno 10763 bound_to 10752
  153.4258  135.3814  155.2140 H   0  0  0  0  0  0  0  0  0  0  0  0  # atno 10764 bound_to 10752
  154.8725  135.3938  154.4136 H   0  0  0  0  0  0  0  0  0  0  0  0  # atno 10765 bound_to 10752
  141.0002  133.6959  156.2009 H   0  0  0  0  0  0  0  0  0  0  0  0  # atno 11005 bound_to 11000
  145.8341  139.2099  143.1866 LP  0  0  0  0  0  0  0  0  0  0  0  0  # atno 17320 bound_to 7965
  146.0405  140.8170  142.9831 LP  0  0  0  0  0  0  0  0  0  0  0  0  # atno 17321 bound_to 7965
  140.6664  143.8389  150.6947 LP  0  0  0  0  0  0  0  0  0  0  0  0  # atno 17342 bound_to 10162
  140.1799  143.4123  152.1940 LP  0  0  0  0  0  0  0  0  0  0  0  0  # atno 17343 bound_to 10162
  156.7354  130.9059  151.3628 LP  0  0  0  0  0  0  0  0  0  0  0  0  # atno 17370 bound_to 10713
  157.6839  130.9166  150.0336 LP  0  0  0  0  0  0  0  0  0  0  0  0  # atno 17371 bound_to 10713
  140.6901  134.4675  157.5588 LP  0  0  0  0  0  0  0  0  0  0  0  0  # atno 17394 bound_to 11000
  139.9035  134.8502  156.1799 LP  0  0  0  0  0  0  0  0  0  0  0  0  # atno 17395 bound_to 11000

$$$$
