AV-unprocessed.smi:113|AV-procd|sdf|1095|dock6
  -GOLD-   2262018203D 1   1.00000     0.00000
 Structure written by MMmdl.
 52 55  0  0  0  0  0  0  0  0  1 V2000
  149.7571  137.7302  158.4369 C   0  0  0  0  0  0  0  0  0  0  0  0
  148.9413  136.6809  159.1629 C   0  0  0  0  0  0  0  0  0  0  0  0
  148.5459  135.5002  158.5097 C   0  0  0  0  0  0  0  0  0  0  0  0
  147.7792  134.5474  159.2189 C   0  0  0  0  0  0  0  0  0  0  0  0
  147.3226  133.2439  158.5541 C   0  0  0  0  0  0  0  0  0  0  0  0
  147.7547  133.0192  157.1817 N   0  0  0  0  0  0  0  0  0  0  0  0
  149.1082  132.6638  156.9640 C   0  0  0  0  0  0  0  0  0  0  0  0
  149.9068  132.5605  157.8977 O   0  0  0  0  0  0  0  0  0  0  0  0
  149.4678  132.4109  155.5666 C   0  0  0  0  0  0  0  0  0  0  0  0
  150.9022  132.0122  155.2566 C   0  0  0  0  0  0  0  0  0  0  0  0
  148.5272  132.5266  154.5983 C   0  0  0  0  0  0  0  0  0  0  0  0
  147.2122  132.8861  154.8368 N   0  0  0  0  0  0  0  0  0  0  0  0
  146.2284  132.9257  153.6874 C   0  0  2  0  0  0  0  0  0  0  0  0
  146.8315  132.4736  152.3465 C   0  0  0  0  0  0  0  0  0  0  0  0
  146.6623  133.6989  151.4601 C   0  0  1  0  0  0  0  0  0  0  0  0
  146.3068  133.3202  150.1460 O   0  0  0  0  0  0  0  0  0  0  0  0
  145.5478  134.4871  152.1574 C   0  0  2  0  0  0  0  0  0  0  0  0
  145.5805  136.0029  151.9082 C   0  0  0  0  0  0  0  0  0  0  0  0
  145.3348  136.2868  150.5471 O   0  0  0  0  0  0  0  0  0  0  0  0
  145.7790  134.2359  153.5363 O   0  0  0  0  0  0  0  0  0  0  0  0
  146.7808  133.1130  156.1622 C   0  0  0  0  0  0  0  0  0  0  0  0
  145.6010  133.3636  156.4165 O   0  0  0  0  0  0  0  0  0  0  0  0
  147.4445  134.8356  160.5699 C   0  0  0  0  0  0  0  0  0  0  0  0
  146.6812  133.9346  161.3512 C   0  0  0  0  0  0  0  0  0  0  0  0
  146.3615  134.2383  162.6867 C   0  0  0  0  0  0  0  0  0  0  0  0
  146.8004  135.4455  163.2551 C   0  0  0  0  0  0  0  0  0  0  0  0
  147.5581  136.3464  162.4858 C   0  0  0  0  0  0  0  0  0  0  0  0
  147.8917  136.0624  161.1439 C   0  0  0  0  0  0  0  0  0  0  0  0
  148.6228  136.9564  160.4426 N   0  0  0  0  0  0  0  0  0  0  0  0
  150.2937  137.2934  157.5942 H   0  0  0  0  0  0  0  0  0  0  0  0
  150.4903  138.1840  159.1047 H   0  0  0  0  0  0  0  0  0  0  0  0
  149.1041  138.5166  158.0573 H   0  0  0  0  0  0  0  0  0  0  0  0
  148.8334  135.3433  157.4809 H   0  0  0  0  0  0  0  0  0  0  0  0
  147.6531  132.3861  159.1420 H   0  0  0  0  0  0  0  0  0  0  0  0
  146.2338  133.1758  158.5677 H   0  0  0  0  0  0  0  0  0  0  0  0
  151.0593  131.8568  154.1890 H   0  0  0  0  0  0  0  0  0  0  0  0
  151.1586  131.0846  155.7698 H   0  0  0  0  0  0  0  0  0  0  0  0
  151.5939  132.7885  155.5856 H   0  0  0  0  0  0  0  0  0  0  0  0
  148.8259  132.3251  153.5795 H   0  0  0  0  0  0  0  0  0  0  0  0
  145.3888  132.2948  153.9812 H   0  0  0  0  0  0  0  0  0  0  0  0
  147.8702  132.1547  152.4407 H   0  0  0  0  0  0  0  0  0  0  0  0
  146.2464  131.6276  151.9830 H   0  0  0  0  0  0  0  0  0  0  0  0
  147.5871  134.2759  151.4381 H   0  0  0  0  0  0  0  0  0  0  0  0
  146.1220  134.1038  149.6501 H   0  0  0  0  0  0  0  0  0  0  0  0
  144.5690  134.0734  151.9058 H   0  0  0  0  0  0  0  0  0  0  0  0
  144.8120  136.4959  152.5042 H   0  0  0  0  0  0  0  0  0  0  0  0
  146.5402  136.4275  152.2053 H   0  0  0  0  0  0  0  0  0  0  0  0
  144.6962  136.9815  150.4957 H   0  0  0  0  0  0  0  0  0  0  0  0
  146.3282  132.9989  160.9452 H   0  0  0  0  0  0  0  0  0  0  0  0
  145.7791  133.5442  163.2748 H   0  0  0  0  0  0  0  0  0  0  0  0
  146.5568  135.6814  164.2806 H   0  0  0  0  0  0  0  0  0  0  0  0
  147.8899  137.2716  162.9340 H   0  0  0  0  0  0  0  0  0  0  0  0
  1  2  1  0  0  0  0
  1 30  1  0  0  0  0
  1 31  1  0  0  0  0
  1 32  1  0  0  0  0
  2 29  1  0  0  0  0
  2  3  2  0  0  0  0
  3  4  1  0  0  0  0
  3 33  1  0  0  0  0
  4  5  1  0  0  0  0
  4 23  2  0  0  0  0
  5  6  1  0  0  0  0
  5 34  1  0  0  0  0
  5 35  1  0  0  0  0
  6 21  1  0  0  0  0
  6  7  1  0  0  0  0
  7  8  2  0  0  0  0
  7  9  1  0  0  0  0
  9 10  1  0  0  0  0
  9 11  2  0  0  0  0
 10 36  1  0  0  0  0
 10 37  1  0  0  0  0
 10 38  1  0  0  0  0
 11 12  1  0  0  0  0
 11 39  1  0  0  0  0
 12 13  1  0  0  0  0
 12 21  1  0  0  0  0
 13 20  1  0  0  0  0
 13 14  1  0  0  0  0
 13 40  1  0  0  0  0
 14 15  1  0  0  0  0
 14 41  1  0  0  0  0
 14 42  1  0  0  0  0
 15 16  1  0  0  0  0
 15 17  1  0  0  0  0
 15 43  1  0  0  0  0
 16 44  1  0  0  0  0
 17 18  1  0  0  0  0
 17 20  1  0  0  0  0
 17 45  1  0  0  0  0
 18 19  1  0  0  0  0
 18 46  1  0  0  0  0
 18 47  1  0  0  0  0
 19 48  1  0  0  0  0
 21 22  2  0  0  0  0
 23 28  1  0  0  0  0
 23 24  1  0  0  0  0
 24 25  2  0  0  0  0
 24 49  1  0  0  0  0
 25 26  1  0  0  0  0
 25 50  1  0  0  0  0
 26 27  2  0  0  0  0
 26 51  1  0  0  0  0
 27 28  1  0  0  0  0
 27 52  1  0  0  0  0
 28 29  2  0  0  0  0
M  END
> <s_m_source_file>
AV-unprocessed.smi

> <i_m_source_file_index>
113

> <i_lp_mmshare_version>
43012

> <i_f3d_flags>
0

> <s_epik_input>
W2NIXTFbY0hdW2NIXVtjSF1jKGMxMiluYyhbQ0gzXSlbY0hdYzJbQ0gyXW4zYyg9TyljKFtDSDNdKVtjSF1uKGMzPU8pW0NAQEhdNFtDSDJdW0NAQEhdKFtPSF0pW0NASF0oTzQpW0NIMl1bT0hd

> <s_epik_cmdline>
J2VwaWtfcHl0aG9uJywgJy1waCcsICc3LjAnLCAnLXRuJywgJzgnLCAnLW1hJywgJzIwMCcsICctbWV0YWxfYmluZGluZycsICctaW1hZScsICc8aW5maWxlLm1hZT4nLCAnLW9tYWUnLCAnPG91dGZpbGUubWFlPic=

> <r_lp_tautomer_probability>
1

> <r_epik_Ionization_Penalty>
0.214728

> <r_epik_Ionization_Penalty_Charging>
3.04883e-08

> <r_epik_Ionization_Penalty_Neutral>
0.214728

> <r_epik_State_Penalty>
0.204913

> <r_epik_Charging_Adjusted_Penalty>
0.204913

> <i_epik_Tot_Q>
0

> <i_epik_Tot_abs_Q>
0

> <r_epik_Metal_State_Penalty>
0.000244761

> <b_epik_Metal_Only>
0

> <s_epik_Chemistry_Notes>
This compound contains an acetal/aminal-like group ( X-CH(R)-Y where X, Y are N, S, or O) that may be acid/base labile, releasing an aldehyde.

> <s_lp_Force_Field>
OPLS_2005

> <r_lp_Energy>
32.9041

> <b_lp_Chiralities_Consistent>
1

> <s_lp_Variant>
AV-unprocessed.smi:113-5

> <Gold.Version>
5.8.1

> <Gold.Id.Protein>
6NUR|6NUR_protein|mol2

> <Gold.PLP.Fitness>
48.8542

> <Gold.PLP.PLP>
-39.4293

> <Gold.PLP.part.hbond>
-4.2082

> <Gold.PLP.part.metal>
0.0000

> <Gold.PLP.part.buried>
-6.0929

> <Gold.PLP.part.nonpolar>
-30.9238

> <Gold.PLP.part.repulsive>
0.1670

> <Gold.PLP.ligand.clash>
0.0000

> <Gold.PLP.ligand.torsion>
0.2227

> <Gold.PLP.Chemscore.Hbond>
3.2770

> <Gold.PLP.Chemscore.CHOScore>
0.0000

> <Gold.PLP.Chemscore.Metal>
0.0000

> <Gold.Chemscore.Hbonds>
donor molecule, donor type, donor heavy atom, donor atom, acceptor molecule, acceptor atom, score
      L1  H    16    44       P1  7921  0.52
      L1  H    19    48       P1 10171  1.00
      P1  H  6896  6908       L1     8  1.00
      P1  H  6931  6943       L1    29  0.78

> <Gold.PLP.Chemscore.Internal.Correction>
0.0391

> <Gold.Rescore>
     Score         DG    S(hbond)    S(metal)    S(lipo)     H(rot)  DE(clash)    DE(int)     intcor
     18.14     -19.55       2.87        0.00     102.84       2.95       1.04       0.37       ----

> <Gold.Chemscore.Fitness>
18.1390

> <Gold.Chemscore.DG>
-19.5531

> <Gold.Chemscore.ZeroCoef>
-5.4800

> <Gold.Chemscore.Hbond>
2.8695

> <Gold.Chemscore.Metal>
0.0000

> <Gold.Chemscore.Lipo>
102.8446

> <Gold.Chemscore.Internal_Hbond>
0.0000

> <Gold.Chemscore.DEClash>
1.0439

> <Gold.Chemscore.DEInternal>
0.3702

> <Gold.Chemscore.Rot>
2.9469

> <Gold.Chemscore.Internal.Correction>
   9.000000E+99

> <Gold.Chemscore.Hbonds>
donor molecule, donor type, donor heavy atom, donor atom, acceptor molecule, acceptor atom, score
      L1  H    16    44       P1  7921  0.09
      L1  H    19    48       P1 10171  0.98
      P1  H  6896  6908       L1     8  0.92
      P1  H  6931  6943       L1    29  0.19

> <Gold.Chemscore.Hbond.Weighted>
-9.5842

> <Gold.Chemscore.Metal.Weighted>
-0.0000

> <Gold.Chemscore.Lipo.Weighted>
-12.0328

> <Gold.Chemscore.Internal_Hbond.Weighted>
0.0000

> <Gold.Chemscore.DEClash.Weighted>
1.0439

> <Gold.Chemscore.DEInternal.Weighted>
0.3702

> <Gold.Chemscore.Rot.Weighted>
7.5439

> <Gold.Chemscore.Internal.Correction.Weighted>
   9.000000E+99

> <Gold.Protein.RotatedTorsions>
[ 6907 6896 6895 6894 ] final   86.92 input  -60.11 | X-H torsion
[ 7974 7965 7964 7962 ] final   40.37 input  175.53 | X-H torsion
[ 8008 7997 7996 7995 ] final  178.94 input   59.86 | X-H torsion
[ 10167 10162 10161 10158 ] final -111.21 input  -65.29 | X-H torsion
[ 10718 10713 10712 10709 ] final   62.76 input   66.30 | X-H torsion
[ 10763 10752 10751 10750 ] final  123.98 input  -60.55 | X-H torsion
[ 11005 11000 10999 10996 ] final   14.68 input  -57.11 | X-H torsion

> <Gold.Protein.ActiveResidues>
 VAL166  LYS551  ARG553  GLY616  TRP617  ASP618  TYR619  PRO620  LYS621  CYS622 
 ASP623  PHE694  ASN695  SER759  ASP760  ASP761  ALA762  ILE779  LEU786  VAL792 
 PHE793  MET794  SER795  GLU796  ALA797  LYS798  CYS799  TRP800  GLU811  SER814 

> <Gold.Protein.RotatedAtoms>
  152.5402  134.2357  159.8841 H   0  0  0  0  0  0  0  0  0  0  0  0  # atno 6907 bound_to 6896
  151.2326  133.4435  159.2612 H   0  0  0  0  0  0  0  0  0  0  0  0  # atno 6908 bound_to 6896
  151.0701  134.9806  159.8360 H   0  0  0  0  0  0  0  0  0  0  0  0  # atno 6909 bound_to 6896
  146.0910  139.5541  142.9476 H   0  0  0  0  0  0  0  0  0  0  0  0  # atno 7974 bound_to 7965
  156.0490  140.1321  157.0071 H   0  0  0  0  0  0  0  0  0  0  0  0  # atno 8008 bound_to 7997
  154.4426  140.1015  156.6419 H   0  0  0  0  0  0  0  0  0  0  0  0  # atno 8009 bound_to 7997
  155.5552  140.3463  155.4480 H   0  0  0  0  0  0  0  0  0  0  0  0  # atno 8010 bound_to 7997
  140.1361  143.4319  152.1594 H   0  0  0  0  0  0  0  0  0  0  0  0  # atno 10167 bound_to 10162
  157.5923  130.9068  149.9628 H   0  0  0  0  0  0  0  0  0  0  0  0  # atno 10718 bound_to 10713
  153.6542  135.3357  155.3108 H   0  0  0  0  0  0  0  0  0  0  0  0  # atno 10763 bound_to 10752
  154.8530  135.4348  154.1872 H   0  0  0  0  0  0  0  0  0  0  0  0  # atno 10764 bound_to 10752
  153.2823  135.7010  153.7449 H   0  0  0  0  0  0  0  0  0  0  0  0  # atno 10765 bound_to 10752
  140.4668  134.1072  155.7725 H   0  0  0  0  0  0  0  0  0  0  0  0  # atno 11005 bound_to 11000
  145.6039  141.0351  143.2003 LP  0  0  0  0  0  0  0  0  0  0  0  0  # atno 17320 bound_to 7965
  144.7360  139.7584  143.7329 LP  0  0  0  0  0  0  0  0  0  0  0  0  # atno 17321 bound_to 7965
  139.5495  144.7326  151.4478 LP  0  0  0  0  0  0  0  0  0  0  0  0  # atno 17342 bound_to 10162
  140.6788  143.8128  150.7094 LP  0  0  0  0  0  0  0  0  0  0  0  0  # atno 17343 bound_to 10162
  156.0980  130.3658  150.0271 LP  0  0  0  0  0  0  0  0  0  0  0  0  # atno 17370 bound_to 10713
  156.8391  130.9419  151.3633 LP  0  0  0  0  0  0  0  0  0  0  0  0  # atno 17371 bound_to 10713
  141.1596  133.8818  157.1885 LP  0  0  0  0  0  0  0  0  0  0  0  0  # atno 17394 bound_to 11000
  139.9910  135.0064  156.9976 LP  0  0  0  0  0  0  0  0  0  0  0  0  # atno 17395 bound_to 11000

$$$$
