AV-unprocessed.smi:859|AV-procd|sdf|3963|dock5
  -GOLD-   22720 1433D 1   1.00000     0.00000
 Structure written by MMmdl.
 36 37  0  0  0  0  0  0  0  0  2 V2000
  153.6101  140.2536  159.0672 O   0  0  0  0  0  0  0  0  0  0  0  0
  152.4832  140.5974  158.7088 C   0  0  0  0  0  0  0  0  0  0  0  0
  151.7481  139.9026  157.8260 N   0  0  0  0  0  0  0  0  0  0  0  0
  152.1731  138.6810  157.1485 C   0  0  0  0  0  0  0  0  0  0  0  0
  152.3260  138.8838  155.6291 C   0  0  0  0  0  0  0  0  0  0  0  0
  151.0413  138.8715  154.9218 N   0  0  0  0  0  0  0  0  0  0  0  0
  150.0318  139.7947  155.0186 C   0  0  0  0  0  0  0  0  0  0  0  0
  149.0255  139.3607  154.1946 C   0  0  0  0  0  0  0  0  0  0  0  0
  149.4646  138.1949  153.6266 N   0  3  0  0  0  0  0  0  0  0  0  0
  150.6925  137.9017  154.0661 C   0  0  0  0  0  0  0  0  0  0  0  0
  151.8615  141.8911  159.2492 C   0  0  0  0  0  0  0  0  0  0  0  0
  151.7797  142.9634  158.1415 C   0  0  0  0  0  0  0  0  0  0  0  0
  151.1605  144.2667  158.6718 C   0  0  0  0  0  0  0  0  0  0  0  0
  151.9365  144.7977  159.8876 C   0  0  0  0  0  0  0  0  0  0  0  0
  152.0391  143.7336  160.9922 C   0  0  0  0  0  0  0  0  0  0  0  0
  152.6563  142.4309  160.4570 C   0  0  0  0  0  0  0  0  0  0  0  0
  150.8303  140.2555  157.5947 H   0  0  0  0  0  0  0  0  0  0  0  0
  153.0960  138.2915  157.5818 H   0  0  0  0  0  0  0  0  0  0  0  0
  151.4106  137.9241  157.3321 H   0  0  0  0  0  0  0  0  0  0  0  0
  152.7967  139.8465  155.4271 H   0  0  0  0  0  0  0  0  0  0  0  0
  152.9734  138.1187  155.1976 H   0  0  0  0  0  0  0  0  0  0  0  0
  150.0994  140.6640  155.6567 H   0  0  0  0  0  0  0  0  0  0  0  0
  148.0543  139.7813  153.9773 H   0  0  0  0  0  0  0  0  0  0  0  0
  151.2795  137.0426  153.7938 H   0  0  0  0  0  0  0  0  0  0  0  0
  150.8460  141.6699  159.5837 H   0  0  0  0  0  0  0  0  0  0  0  0
  152.7755  143.1745  157.7480 H   0  0  0  0  0  0  0  0  0  0  0  0
  151.1887  142.5940  157.3023 H   0  0  0  0  0  0  0  0  0  0  0  0
  151.1458  145.0196  157.8830 H   0  0  0  0  0  0  0  0  0  0  0  0
  150.1207  144.0903  158.9501 H   0  0  0  0  0  0  0  0  0  0  0  0
  152.9380  145.0996  159.5780 H   0  0  0  0  0  0  0  0  0  0  0  0
  151.4504  145.6925  160.2771 H   0  0  0  0  0  0  0  0  0  0  0  0
  152.6365  144.1148  161.8210 H   0  0  0  0  0  0  0  0  0  0  0  0
  151.0469  143.5288  161.3959 H   0  0  0  0  0  0  0  0  0  0  0  0
  152.6824  141.6868  161.2541 H   0  0  0  0  0  0  0  0  0  0  0  0
  153.6939  142.6160  160.1740 H   0  0  0  0  0  0  0  0  0  0  0  0
  148.9365  137.6321  152.9716 H   0  0  0  0  0  0  0  0  0  0  0  0
  1  2  2  0  0  0  0
  2  3  1  0  0  0  0
  2 11  1  0  0  0  0
  3  4  1  0  0  0  0
  3 17  1  0  0  0  0
  4  5  1  0  0  0  0
  4 18  1  0  0  0  0
  4 19  1  0  0  0  0
  5  6  1  0  0  0  0
  5 20  1  0  0  0  0
  5 21  1  0  0  0  0
  6 10  1  0  0  0  0
  6  7  1  0  0  0  0
  7  8  2  0  0  0  0
  7 22  1  0  0  0  0
  8  9  1  0  0  0  0
  8 23  1  0  0  0  0
  9 10  2  0  0  0  0
  9 36  1  0  0  0  0
 10 24  1  0  0  0  0
 11 16  1  0  0  0  0
 11 12  1  0  0  0  0
 11 25  1  0  0  0  0
 12 13  1  0  0  0  0
 12 26  1  0  0  0  0
 12 27  1  0  0  0  0
 13 14  1  0  0  0  0
 13 28  1  0  0  0  0
 13 29  1  0  0  0  0
 14 15  1  0  0  0  0
 14 30  1  0  0  0  0
 14 31  1  0  0  0  0
 15 16  1  0  0  0  0
 15 32  1  0  0  0  0
 15 33  1  0  0  0  0
 16 34  1  0  0  0  0
 16 35  1  0  0  0  0
M  CHG  1   9   1
M  END
> <s_m_source_file>
AV-unprocessed.smi

> <i_m_source_file_index>
859

> <i_lp_mmshare_version>
43012

> <i_f3d_flags>
0

> <s_epik_input>
W0NIMl0xW0NIMl1bQ0gyXVtDSDJdW0NIMl1bQ0hdMUMoPU8pW05IXVtDSDJdW0NIMl1uMltjSF1bY0hdbltjSF0y

> <s_epik_cmdline>
J2VwaWtfcHl0aG9uJywgJy1waCcsICc3LjAnLCAnLXRuJywgJzgnLCAnLW1hJywgJzIwMCcsICctbWV0YWxfYmluZGluZycsICctaW1hZScsICc8aW5maWxlLm1hZT4nLCAnLW9tYWUnLCAnPG91dGZpbGUubWFlPic=

> <r_lp_tautomer_probability>
1

> <r_epik_Ionization_Penalty>
0.267085

> <r_epik_Ionization_Penalty_Charging>
0

> <r_epik_Ionization_Penalty_Neutral>
0.267085

> <r_epik_State_Penalty>
0.259064

> <r_epik_Charging_Adjusted_Penalty>
0.259064

> <i_epik_Tot_Q>
1

> <i_epik_Tot_abs_Q>
1

> <r_epik_Metal_State_Penalty>
0.54496

> <b_epik_Metal_Only>
0

> <s_lp_Force_Field>
OPLS_2005

> <r_lp_Energy>
13.141

> <b_lp_Chiralities_Consistent>
1

> <s_lp_Variant>
AV-unprocessed.smi:859-1

> <Gold.Version>
5.8.1

> <Gold.Id.Protein>
6NUR|6NUR_protein|mol2

> <Gold.PLP.Fitness>
48.6410

> <Gold.PLP.PLP>
-38.4384

> <Gold.PLP.part.hbond>
-3.0000

> <Gold.PLP.part.metal>
0.0000

> <Gold.PLP.part.buried>
-2.0715

> <Gold.PLP.part.nonpolar>
-33.8163

> <Gold.PLP.part.repulsive>
0.1448

> <Gold.PLP.ligand.clash>
0.0000

> <Gold.PLP.ligand.torsion>
0.3770

> <Gold.PLP.Chemscore.Hbond>
2.6880

> <Gold.PLP.Chemscore.CHOScore>
0.9566

> <Gold.PLP.Chemscore.Metal>
0.0000

> <Gold.Chemscore.Hbonds>
donor molecule, donor type, donor heavy atom, donor atom, acceptor molecule, acceptor atom, score
      L1  H     9    36       P1  7948  1.82
      P1  H  7997  8008       L1     1  0.49
      L1  C    10    24       P1  7949  0.84

> <Gold.PLP.Chemscore.Internal.Correction>
0.0227

> <Gold.Rescore>
     Score         DG    S(hbond)    S(metal)    S(lipo)     H(rot)  DE(clash)    DE(int)     intcor
     16.59     -16.84       1.61        0.00      91.63       1.86       0.00       0.24       ----

> <Gold.Chemscore.Fitness>
16.5925

> <Gold.Chemscore.DG>
-16.8376

> <Gold.Chemscore.ZeroCoef>
-5.4800

> <Gold.Chemscore.Hbond>
1.6139

> <Gold.Chemscore.Metal>
0.0000

> <Gold.Chemscore.Lipo>
91.6278

> <Gold.Chemscore.Internal_Hbond>
0.0000

> <Gold.Chemscore.DEClash>
0.0038

> <Gold.Chemscore.DEInternal>
0.2413

> <Gold.Chemscore.Rot>
1.8567

> <Gold.Chemscore.Internal.Correction>
   9.000000E+99

> <Gold.Chemscore.Hbonds>
donor molecule, donor type, donor heavy atom, donor atom, acceptor molecule, acceptor atom, score
      L1  H     9    36       P1  7948  0.88
      P1  H  7997  8008       L1     1  0.29

> <Gold.Chemscore.Hbond.Weighted>
-5.3903

> <Gold.Chemscore.Metal.Weighted>
-0.0000

> <Gold.Chemscore.Lipo.Weighted>
-10.7204

> <Gold.Chemscore.Internal_Hbond.Weighted>
0.0000

> <Gold.Chemscore.DEClash.Weighted>
0.0038

> <Gold.Chemscore.DEInternal.Weighted>
0.2413

> <Gold.Chemscore.Rot.Weighted>
4.7531

> <Gold.Chemscore.Internal.Correction.Weighted>
   9.000000E+99

> <Gold.Protein.RotatedTorsions>
[ 6907 6896 6895 6894 ] final -166.50 input  -60.11 | X-H torsion
[ 7974 7965 7964 7962 ] final -129.50 input  175.53 | X-H torsion
[ 8008 7997 7996 7995 ] final -104.21 input   59.86 | X-H torsion
[ 10167 10162 10161 10158 ] final   12.37 input  -65.29 | X-H torsion
[ 10718 10713 10712 10709 ] final -137.87 input   66.30 | X-H torsion
[ 10763 10752 10751 10750 ] final   23.82 input  -60.55 | X-H torsion
[ 11005 11000 10999 10996 ] final  170.90 input  -57.11 | X-H torsion

> <Gold.Protein.ActiveResidues>
 VAL166  LYS551  ARG553  GLY616  TRP617  ASP618  TYR619  PRO620  LYS621  CYS622 
 ASP623  PHE694  ASN695  SER759  ASP760  ASP761  ALA762  ILE779  LEU786  VAL792 
 PHE793  MET794  SER795  GLU796  ALA797  LYS798  CYS799  TRP800  GLU811  SER814 

> <Gold.Protein.RotatedAtoms>
  151.4445  133.3634  159.2786 H   0  0  0  0  0  0  0  0  0  0  0  0  # atno 6907 bound_to 6896
  150.9134  134.8553  159.7451 H   0  0  0  0  0  0  0  0  0  0  0  0  # atno 6908 bound_to 6896
  152.4944  134.4377  159.9585 H   0  0  0  0  0  0  0  0  0  0  0  0  # atno 6909 bound_to 6896
  144.9565  140.7401  143.4755 H   0  0  0  0  0  0  0  0  0  0  0  0  # atno 7974 bound_to 7965
  154.8821  140.0419  157.1788 H   0  0  0  0  0  0  0  0  0  0  0  0  # atno 8008 bound_to 7997
  154.8629  140.2946  155.5507 H   0  0  0  0  0  0  0  0  0  0  0  0  # atno 8009 bound_to 7997
  156.2998  140.2443  156.3605 H   0  0  0  0  0  0  0  0  0  0  0  0  # atno 8010 bound_to 7997
  140.6072  143.8483  150.7026 H   0  0  0  0  0  0  0  0  0  0  0  0  # atno 10167 bound_to 10162
  156.2930  130.7386  151.1417 H   0  0  0  0  0  0  0  0  0  0  0  0  # atno 10718 bound_to 10713
  153.0809  135.6618  154.0047 H   0  0  0  0  0  0  0  0  0  0  0  0  # atno 10763 bound_to 10752
  153.9668  135.2968  155.3431 H   0  0  0  0  0  0  0  0  0  0  0  0  # atno 10764 bound_to 10752
  154.7208  135.5165  153.8881 H   0  0  0  0  0  0  0  0  0  0  0  0  # atno 10765 bound_to 10752
  140.3132  134.7499  157.4007 H   0  0  0  0  0  0  0  0  0  0  0  0  # atno 11005 bound_to 11000
  145.2764  139.1935  143.4814 LP  0  0  0  0  0  0  0  0  0  0  0  0  # atno 17320 bound_to 7965
  146.3339  140.2719  142.8606 LP  0  0  0  0  0  0  0  0  0  0  0  0  # atno 17321 bound_to 7965
  140.2043  143.3934  152.1767 LP  0  0  0  0  0  0  0  0  0  0  0  0  # atno 17342 bound_to 10162
  139.5334  144.7183  151.4978 LP  0  0  0  0  0  0  0  0  0  0  0  0  # atno 17343 bound_to 10162
  157.7347  131.0579  150.5507 LP  0  0  0  0  0  0  0  0  0  0  0  0  # atno 17370 bound_to 10713
  156.5625  130.4259  149.6056 LP  0  0  0  0  0  0  0  0  0  0  0  0  # atno 17371 bound_to 10713
  140.1006  134.5477  155.8356 LP  0  0  0  0  0  0  0  0  0  0  0  0  # atno 17394 bound_to 11000
  141.2103  133.6694  156.6502 LP  0  0  0  0  0  0  0  0  0  0  0  0  # atno 17395 bound_to 11000

$$$$
