AV-unprocessed.smi:2033|AV-procd|sdf|8261|dock1
  -GOLD-   2272010533D 1   1.00000     0.00000
 Structure written by MMmdl.
 32 33  0  0  0  0  0  0  0  0  2 V2000
  145.3353  143.3566  154.3616 C   0  0  0  0  0  0  0  0  0  0  0  0
  146.3113  142.3356  154.8368 C   0  0  0  0  0  0  0  0  0  0  0  0
  146.0349  141.4737  155.8185 N   0  0  0  0  0  0  0  0  0  0  0  0
  147.0983  140.6219  156.0807 N   0  0  0  0  0  0  0  0  0  0  0  0
  148.1570  140.8431  155.2886 C   0  0  0  0  0  0  0  0  0  0  0  0
  149.2900  140.1276  155.3819 N   0  5  0  0  0  0  0  0  0  0  0  0
  150.3599  140.6395  156.0322 C   0  0  0  0  0  0  0  0  0  0  0  0
  151.4851  140.8180  155.5596 O   0  0  0  0  0  0  0  0  0  0  0  0
  150.1105  140.9666  157.3096 N   0  0  0  0  0  0  0  0  0  0  0  0
  151.0623  141.5526  158.2562 C   0  0  2  0  0  0  0  0  0  0  0  0
  151.4120  142.9799  157.7653 C   0  0  0  0  0  0  0  0  0  0  0  0
  152.6699  143.6300  158.3846 C   0  0  0  0  0  0  0  0  0  0  0  0
  152.8129  143.4586  159.9110 C   0  0  0  0  0  0  0  0  0  0  0  0
  152.9252  142.0056  160.4421 C   0  0  0  0  0  0  0  0  0  0  0  0
  153.1698  140.9916  159.4161 N   0  0  0  0  0  0  0  0  0  0  0  0
  152.3519  140.7112  158.3871 C   0  0  0  0  0  0  0  0  0  0  0  0
  152.6341  139.8406  157.5645 O   0  0  0  0  0  0  0  0  0  0  0  0
  147.9172  142.1669  154.1485 S   0  0  0  0  0  0  0  0  0  0  0  0
  144.5965  142.8901  153.7101 H   0  0  0  0  0  0  0  0  0  0  0  0
  145.8487  144.1405  153.8047 H   0  0  0  0  0  0  0  0  0  0  0  0
  144.8213  143.8115  155.2087 H   0  0  0  0  0  0  0  0  0  0  0  0
  149.1737  140.8080  157.6498 H   0  0  0  0  0  0  0  0  0  0  0  0
  150.5723  141.6177  159.2286 H   0  0  0  0  0  0  0  0  0  0  0  0
  151.5365  142.9792  156.6811 H   0  0  0  0  0  0  0  0  0  0  0  0
  150.5535  143.6237  157.9605 H   0  0  0  0  0  0  0  0  0  0  0  0
  153.5628  143.2384  157.8951 H   0  0  0  0  0  0  0  0  0  0  0  0
  152.6634  144.6939  158.1462 H   0  0  0  0  0  0  0  0  0  0  0  0
  153.7047  144.0038  160.2222 H   0  0  0  0  0  0  0  0  0  0  0  0
  151.9815  143.9569  160.4106 H   0  0  0  0  0  0  0  0  0  0  0  0
  153.7316  141.9477  161.1735 H   0  0  0  0  0  0  0  0  0  0  0  0
  152.0204  141.7374  160.9890 H   0  0  0  0  0  0  0  0  0  0  0  0
  154.0194  140.4525  159.4996 H   0  0  0  0  0  0  0  0  0  0  0  0
  1  2  1  0  0  0  0
  1 19  1  0  0  0  0
  1 20  1  0  0  0  0
  1 21  1  0  0  0  0
  2 18  1  0  0  0  0
  2  3  2  0  0  0  0
  3  4  1  0  0  0  0
  4  5  2  0  0  0  0
  5  6  1  0  0  0  0
  5 18  1  0  0  0  0
  6  7  1  0  0  0  0
  7  8  2  0  0  0  0
  7  9  1  0  0  0  0
  9 10  1  0  0  0  0
  9 22  1  0  0  0  0
 10 16  1  0  0  0  0
 10 11  1  0  0  0  0
 10 23  1  0  0  0  0
 11 12  1  0  0  0  0
 11 24  1  0  0  0  0
 11 25  1  0  0  0  0
 12 13  1  0  0  0  0
 12 26  1  0  0  0  0
 12 27  1  0  0  0  0
 13 14  1  0  0  0  0
 13 28  1  0  0  0  0
 13 29  1  0  0  0  0
 14 15  1  0  0  0  0
 14 30  1  0  0  0  0
 14 31  1  0  0  0  0
 15 16  1  0  0  0  0
 15 32  1  0  0  0  0
 16 17  2  0  0  0  0
M  CHG  1   6  -1
M  END
> <s_m_source_file>
AV-unprocessed.smi

> <i_m_source_file_index>
2033

> <i_lp_mmshare_version>
43012

> <i_f3d_flags>
0

> <s_epik_input>
W0NIM11jMW5uYyhzMSlbTkhdQyg9TylbTkhdW0NAQEhdMltDSDJdW0NIMl1bQ0gyXVtDSDJdW05IXUMyPU8=

> <s_epik_cmdline>
J2VwaWtfcHl0aG9uJywgJy1waCcsICc3LjAnLCAnLXRuJywgJzgnLCAnLW1hJywgJzIwMCcsICctbWV0YWxfYmluZGluZycsICctaW1hZScsICc8aW5maWxlLm1hZT4nLCAnLW9tYWUnLCAnPG91dGZpbGUubWFlPic=

> <r_lp_tautomer_probability>
1

> <r_epik_Ionization_Penalty>
4.07233

> <r_epik_Ionization_Penalty_Charging>
3.9374

> <r_epik_Ionization_Penalty_Neutral>
0.134927

> <r_epik_State_Penalty>
3.93663

> <r_epik_Charging_Adjusted_Penalty>
7.87404

> <i_epik_Tot_Q>
-1

> <i_epik_Tot_abs_Q>
1

> <r_epik_Metal_State_Penalty>
0.602812

> <b_epik_Metal_Only>
1

> <s_lp_Force_Field>
OPLS_2005

> <r_lp_Energy>
13.5644

> <b_lp_Chiralities_Consistent>
1

> <s_lp_Variant>
AV-unprocessed.smi:2033-3

> <Gold.Version>
5.8.1

> <Gold.Id.Protein>
6NUR|6NUR_protein|mol2

> <Gold.PLP.Fitness>
34.3611

> <Gold.PLP.PLP>
-32.3063

> <Gold.PLP.part.hbond>
-2.0000

> <Gold.PLP.part.metal>
0.0000

> <Gold.PLP.part.buried>
-2.2605

> <Gold.PLP.part.nonpolar>
-27.0695

> <Gold.PLP.part.repulsive>
0.2851

> <Gold.PLP.ligand.clash>
0.0000

> <Gold.PLP.ligand.torsion>
1.2982

> <Gold.PLP.Chemscore.Hbond>
1.5438

> <Gold.PLP.Chemscore.CHOScore>
0.0000

> <Gold.PLP.Chemscore.Metal>
0.0000

> <Gold.Chemscore.Hbonds>
donor molecule, donor type, donor heavy atom, donor atom, acceptor molecule, acceptor atom, score
      P1  H  7989  7998       L1     8  0.63
      P1  H  7997  8009       L1    17  0.89

> <Gold.PLP.Chemscore.Internal.Correction>
0.0197

> <Gold.Rescore>
     Score         DG    S(hbond)    S(metal)    S(lipo)     H(rot)  DE(clash)    DE(int)     intcor
     10.40     -15.71       1.28        0.00      72.74       1.00       0.21       5.09       ----

> <Gold.Chemscore.Fitness>
10.3974

> <Gold.Chemscore.DG>
-15.7059

> <Gold.Chemscore.ZeroCoef>
-5.4800

> <Gold.Chemscore.Hbond>
1.2802

> <Gold.Chemscore.Metal>
0.0000

> <Gold.Chemscore.Lipo>
72.7352

> <Gold.Chemscore.Internal_Hbond>
0.0000

> <Gold.Chemscore.DEClash>
0.2147

> <Gold.Chemscore.DEInternal>
5.0938

> <Gold.Chemscore.Rot>
1.0000

> <Gold.Chemscore.Internal.Correction>
   9.000000E+99

> <Gold.Chemscore.Hbonds>
donor molecule, donor type, donor heavy atom, donor atom, acceptor molecule, acceptor atom, score
      P1  H  7989  7998       L1     8  0.59
      P1  H  7997  8009       L1    17  0.57

> <Gold.Chemscore.Hbond.Weighted>
-4.2759

> <Gold.Chemscore.Metal.Weighted>
-0.0000

> <Gold.Chemscore.Lipo.Weighted>
-8.5100

> <Gold.Chemscore.Internal_Hbond.Weighted>
0.0000

> <Gold.Chemscore.DEClash.Weighted>
0.2147

> <Gold.Chemscore.DEInternal.Weighted>
5.0938

> <Gold.Chemscore.Rot.Weighted>
2.5600

> <Gold.Chemscore.Internal.Correction.Weighted>
   9.000000E+99

> <Gold.Protein.RotatedTorsions>
[ 6907 6896 6895 6894 ] final  144.16 input  -60.11 | X-H torsion
[ 7974 7965 7964 7962 ] final  -51.94 input  175.53 | X-H torsion
[ 8008 7997 7996 7995 ] final  152.33 input   59.86 | X-H torsion
[ 10167 10162 10161 10158 ] final  105.26 input  -65.29 | X-H torsion
[ 10718 10713 10712 10709 ] final   98.13 input   66.30 | X-H torsion
[ 10763 10752 10751 10750 ] final   88.81 input  -60.55 | X-H torsion
[ 11005 11000 10999 10996 ] final   -6.66 input  -57.11 | X-H torsion

> <Gold.Protein.ActiveResidues>
 VAL166  LYS551  ARG553  GLY616  TRP617  ASP618  TYR619  PRO620  LYS621  CYS622 
 ASP623  PHE694  ASN695  SER759  ASP760  ASP761  ALA762  ILE779  LEU786  VAL792 
 PHE793  MET794  SER795  GLU796  ALA797  LYS798  CYS799  TRP800  GLU811  SER814 

> <Gold.Protein.RotatedAtoms>
  152.1972  133.4815  159.5039 H   0  0  0  0  0  0  0  0  0  0  0  0  # atno 6907 bound_to 6896
  150.6962  134.1636  159.4195 H   0  0  0  0  0  0  0  0  0  0  0  0  # atno 6908 bound_to 6896
  151.9553  135.0149  160.0595 H   0  0  0  0  0  0  0  0  0  0  0  0  # atno 6909 bound_to 6896
  145.9134  140.7896  142.9684 H   0  0  0  0  0  0  0  0  0  0  0  0  # atno 7974 bound_to 7965
  156.2634  140.2023  156.6317 H   0  0  0  0  0  0  0  0  0  0  0  0  # atno 8008 bound_to 7997
  154.6678  140.0553  157.0157 H   0  0  0  0  0  0  0  0  0  0  0  0  # atno 8009 bound_to 7997
  155.1181  140.3222  155.4507 H   0  0  0  0  0  0  0  0  0  0  0  0  # atno 8010 bound_to 7997
  139.7107  144.7078  151.1031 H   0  0  0  0  0  0  0  0  0  0  0  0  # atno 10167 bound_to 10162
  157.6901  131.0631  150.4749 H   0  0  0  0  0  0  0  0  0  0  0  0  # atno 10718 bound_to 10713
  153.1806  135.4493  155.0023 H   0  0  0  0  0  0  0  0  0  0  0  0  # atno 10763 bound_to 10752
  154.8027  135.3262  154.7511 H   0  0  0  0  0  0  0  0  0  0  0  0  # atno 10764 bound_to 10752
  153.7975  135.6965  153.4916 H   0  0  0  0  0  0  0  0  0  0  0  0  # atno 10765 bound_to 10752
  140.7044  133.8962  155.8706 H   0  0  0  0  0  0  0  0  0  0  0  0  # atno 11005 bound_to 11000
  144.6745  140.1862  143.7401 LP  0  0  0  0  0  0  0  0  0  0  0  0  # atno 17320 bound_to 7965
  145.8642  139.2238  143.1698 LP  0  0  0  0  0  0  0  0  0  0  0  0  # atno 17321 bound_to 7965
  140.7732  143.5296  150.9438 LP  0  0  0  0  0  0  0  0  0  0  0  0  # atno 17342 bound_to 10162
  139.8981  143.6869  152.3135 LP  0  0  0  0  0  0  0  0  0  0  0  0  # atno 17343 bound_to 10162
  156.5085  130.4134  149.6314 LP  0  0  0  0  0  0  0  0  0  0  0  0  # atno 17370 bound_to 10713
  156.3262  130.7307  151.2228 LP  0  0  0  0  0  0  0  0  0  0  0  0  # atno 17371 bound_to 10713
  141.0137  134.0985  157.4195 LP  0  0  0  0  0  0  0  0  0  0  0  0  # atno 17394 bound_to 11000
  139.8888  135.0100  156.6642 LP  0  0  0  0  0  0  0  0  0  0  0  0  # atno 17395 bound_to 11000

$$$$
