AV-unprocessed.smi:1257|AV-procd|sdf|5285|dock1
  -GOLD-   22720 4403D 1   1.00000     0.00000
 Structure written by MMmdl.
 47 48  0  0  0  0  0  0  0  0  1 V2000
  144.3214  143.5370  154.9231 C   0  0  0  0  0  0  0  0  0  0  0  0
  143.0816  142.9730  155.6299 C   0  0  0  0  0  0  0  0  0  0  0  0
  142.2654  142.1712  154.7258 N   0  0  0  0  0  0  0  0  0  0  0  0
  141.1845  141.4633  155.0864 C   0  0  0  0  0  0  0  0  0  0  0  0
  140.7712  141.4066  156.2458 O   0  0  0  0  0  0  0  0  0  0  0  0
  140.4845  140.6862  153.9647 C   0  0  0  0  0  0  0  0  0  0  0  0
  141.2148  139.4850  153.5682 N   0  0  0  0  0  0  0  0  0  0  0  0
  140.7600  138.2269  153.6922 C   0  0  0  0  0  0  0  0  0  0  0  0
  139.6538  137.9471  154.1554 O   0  0  0  0  0  0  0  0  0  0  0  0
  141.7231  137.1459  153.2942 C   0  0  0  0  0  0  0  0  0  0  0  0
  141.4479  135.7937  153.5921 C   0  0  0  0  0  0  0  0  0  0  0  0
  142.3635  134.8030  153.1885 C   0  0  0  0  0  0  0  0  0  0  0  0
  143.5262  135.1958  152.4946 C   0  0  0  0  0  0  0  0  0  0  0  0
  144.4428  134.2137  152.0946 N   0  0  0  0  0  0  0  0  0  0  0  0
  144.5174  134.0520  150.6486 C   0  0  0  0  0  0  0  0  0  0  0  0
  145.4313  132.8671  150.2773 C   0  0  2  0  0  0  0  0  0  0  0  0
  144.7888  131.4919  150.5319 C   0  0  0  0  0  0  0  0  0  0  0  0
  146.6979  132.9986  150.9295 O   0  0  0  0  0  0  0  0  0  0  0  0
  146.6316  133.1354  152.3497 C   0  0  1  0  0  0  0  0  0  0  0  0
  148.0605  133.2833  152.8820 C   0  0  0  0  0  0  0  0  0  0  0  0
  145.7579  134.3516  152.7048 C   0  0  0  0  0  0  0  0  0  0  0  0
  143.7927  136.4884  152.1915 N   0  0  0  0  0  0  0  0  0  0  0  0
  142.9087  137.4325  152.5789 C   0  0  0  0  0  0  0  0  0  0  0  0
  144.9025  144.1610  155.6020 H   0  0  0  0  0  0  0  0  0  0  0  0
  144.0420  144.1499  154.0657 H   0  0  0  0  0  0  0  0  0  0  0  0
  144.9742  142.7392  154.5675 H   0  0  0  0  0  0  0  0  0  0  0  0
  143.3757  142.3821  156.4989 H   0  0  0  0  0  0  0  0  0  0  0  0
  142.4686  143.7924  156.0055 H   0  0  0  0  0  0  0  0  0  0  0  0
  142.5392  142.1584  153.7539 H   0  0  0  0  0  0  0  0  0  0  0  0
  139.4672  140.4270  154.2646 H   0  0  0  0  0  0  0  0  0  0  0  0
  140.3985  141.3374  153.0948 H   0  0  0  0  0  0  0  0  0  0  0  0
  142.1479  139.6195  153.2070 H   0  0  0  0  0  0  0  0  0  0  0  0
  140.5522  135.5118  154.1266 H   0  0  0  0  0  0  0  0  0  0  0  0
  142.1757  133.7626  153.4104 H   0  0  0  0  0  0  0  0  0  0  0  0
  143.5189  133.9069  150.2344 H   0  0  0  0  0  0  0  0  0  0  0  0
  144.9145  134.9677  150.2072 H   0  0  0  0  0  0  0  0  0  0  0  0
  145.6319  132.9265  149.2075 H   0  0  0  0  0  0  0  0  0  0  0  0
  143.8900  131.3683  149.9273 H   0  0  0  0  0  0  0  0  0  0  0  0
  144.4982  131.3565  151.5734 H   0  0  0  0  0  0  0  0  0  0  0  0
  145.4763  130.6878  150.2681 H   0  0  0  0  0  0  0  0  0  0  0  0
  146.2001  132.2339  152.7857 H   0  0  0  0  0  0  0  0  0  0  0  0
  148.0668  133.3801  153.9680 H   0  0  0  0  0  0  0  0  0  0  0  0
  148.5481  134.1646  152.4643 H   0  0  0  0  0  0  0  0  0  0  0  0
  148.6647  132.4135  152.6228 H   0  0  0  0  0  0  0  0  0  0  0  0
  146.2334  135.2677  152.3514 H   0  0  0  0  0  0  0  0  0  0  0  0
  145.6543  134.4373  153.7873 H   0  0  0  0  0  0  0  0  0  0  0  0
  143.1641  138.4453  152.3027 H   0  0  0  0  0  0  0  0  0  0  0  0
  1  2  1  0  0  0  0
  1 24  1  0  0  0  0
  1 25  1  0  0  0  0
  1 26  1  0  0  0  0
  2  3  1  0  0  0  0
  2 27  1  0  0  0  0
  2 28  1  0  0  0  0
  3  4  1  0  0  0  0
  3 29  1  0  0  0  0
  4  5  2  0  0  0  0
  4  6  1  0  0  0  0
  6  7  1  0  0  0  0
  6 30  1  0  0  0  0
  6 31  1  0  0  0  0
  7  8  1  0  0  0  0
  7 32  1  0  0  0  0
  8  9  2  0  0  0  0
  8 10  1  0  0  0  0
 10 23  1  0  0  0  0
 10 11  2  0  0  0  0
 11 12  1  0  0  0  0
 11 33  1  0  0  0  0
 12 13  2  0  0  0  0
 12 34  1  0  0  0  0
 13 14  1  0  0  0  0
 13 22  1  0  0  0  0
 14 21  1  0  0  0  0
 14 15  1  0  0  0  0
 15 16  1  0  0  0  0
 15 35  1  0  0  0  0
 15 36  1  0  0  0  0
 16 17  1  0  0  0  0
 16 18  1  0  0  0  0
 16 37  1  0  0  0  0
 17 38  1  0  0  0  0
 17 39  1  0  0  0  0
 17 40  1  0  0  0  0
 18 19  1  0  0  0  0
 19 20  1  0  0  0  0
 19 21  1  0  0  0  0
 19 41  1  0  0  0  0
 20 42  1  0  0  0  0
 20 43  1  0  0  0  0
 20 44  1  0  0  0  0
 21 45  1  0  0  0  0
 21 46  1  0  0  0  0
 22 23  2  0  0  0  0
 23 47  1  0  0  0  0
M  END
> <s_m_source_file>
AV-unprocessed.smi

> <i_m_source_file_index>
1257

> <i_lp_mmshare_version>
43012

> <i_f3d_flags>
0

> <s_epik_input>
W0NIM11bQ0gyXVtOSF1DKD1PKVtDSDJdW05IXUMoPU8pYzFbY0hdW2NIXWMobltjSF0xKU4yW0NIMl1bQ0BASF0oW0NIM10pT1tDQEBIXShbQ0gzXSlbQ0gyXTI=

> <s_epik_cmdline>
J2VwaWtfcHl0aG9uJywgJy1waCcsICc3LjAnLCAnLXRuJywgJzgnLCAnLW1hJywgJzIwMCcsICctbWV0YWxfYmluZGluZycsICctaW1hZScsICc8aW5maWxlLm1hZT4nLCAnLW9tYWUnLCAnPG91dGZpbGUubWFlPic=

> <r_lp_tautomer_probability>
1

> <r_epik_Ionization_Penalty>
1.15681e-05

> <r_epik_Ionization_Penalty_Charging>
0

> <r_epik_Ionization_Penalty_Neutral>
1.15681e-05

> <r_epik_State_Penalty>
-0

> <r_epik_Charging_Adjusted_Penalty>
0

> <i_epik_Tot_Q>
0

> <i_epik_Tot_abs_Q>
0

> <r_epik_Metal_State_Penalty>
-0

> <b_epik_Metal_Only>
0

> <s_lp_Force_Field>
OPLS_2005

> <r_lp_Energy>
18.6065

> <b_lp_Chiralities_Consistent>
1

> <s_lp_Variant>
AV-unprocessed.smi:1257-2

> <Gold.Version>
5.8.1

> <Gold.Id.Protein>
6NUR|6NUR_protein|mol2

> <Gold.PLP.Fitness>
44.9635

> <Gold.PLP.PLP>
-34.8777

> <Gold.PLP.part.hbond>
-3.7884

> <Gold.PLP.part.metal>
0.0000

> <Gold.PLP.part.buried>
-3.8312

> <Gold.PLP.part.nonpolar>
-26.9293

> <Gold.PLP.part.repulsive>
0.5880

> <Gold.PLP.ligand.clash>
0.0000

> <Gold.PLP.ligand.torsion>
0.3332

> <Gold.PLP.Chemscore.Hbond>
2.0000

> <Gold.PLP.Chemscore.CHOScore>
1.5349

> <Gold.PLP.Chemscore.Metal>
0.0000

> <Gold.Chemscore.Hbonds>
donor molecule, donor type, donor heavy atom, donor atom, acceptor molecule, acceptor atom, score
      L1  H     3    29       P1 10174  1.00
      L1  H     7    32       P1 10175  1.00
      L1  C    23    47       P1 10171  0.58
      L1  C    23    47       P1 10175  1.00

> <Gold.PLP.Chemscore.Internal.Correction>
0.1474

> <Gold.Rescore>
     Score         DG    S(hbond)    S(metal)    S(lipo)     H(rot)  DE(clash)    DE(int)     intcor
     15.57     -16.14       1.90        0.00      74.29       1.71       0.12       0.44       ----

> <Gold.Chemscore.Fitness>
15.5748

> <Gold.Chemscore.DG>
-16.1409

> <Gold.Chemscore.ZeroCoef>
-5.4800

> <Gold.Chemscore.Hbond>
1.8977

> <Gold.Chemscore.Metal>
0.0000

> <Gold.Chemscore.Lipo>
74.2870

> <Gold.Chemscore.Internal_Hbond>
0.0000

> <Gold.Chemscore.DEClash>
0.1242

> <Gold.Chemscore.DEInternal>
0.4418

> <Gold.Chemscore.Rot>
1.7066

> <Gold.Chemscore.Internal.Correction>
   9.000000E+99

> <Gold.Chemscore.Hbonds>
donor molecule, donor type, donor heavy atom, donor atom, acceptor molecule, acceptor atom, score
      L1  H     3    29       P1 10174  0.25
      L1  H     7    32       P1 10175  0.88

> <Gold.Chemscore.Hbond.Weighted>
-6.3383

> <Gold.Chemscore.Metal.Weighted>
-0.0000

> <Gold.Chemscore.Lipo.Weighted>
-8.6916

> <Gold.Chemscore.Internal_Hbond.Weighted>
0.0000

> <Gold.Chemscore.DEClash.Weighted>
0.1242

> <Gold.Chemscore.DEInternal.Weighted>
0.4418

> <Gold.Chemscore.Rot.Weighted>
4.3690

> <Gold.Chemscore.Internal.Correction.Weighted>
   9.000000E+99

> <Gold.Protein.RotatedTorsions>
[ 6907 6896 6895 6894 ] final -104.71 input  -60.11 | X-H torsion
[ 7974 7965 7964 7962 ] final  -23.00 input  175.53 | X-H torsion
[ 8008 7997 7996 7995 ] final   46.44 input   59.86 | X-H torsion
[ 10167 10162 10161 10158 ] final  -74.33 input  -65.29 | X-H torsion
[ 10718 10713 10712 10709 ] final  -97.01 input   66.30 | X-H torsion
[ 10763 10752 10751 10750 ] final  -92.52 input  -60.55 | X-H torsion
[ 11005 11000 10999 10996 ] final  -57.83 input  -57.11 | X-H torsion

> <Gold.Protein.ActiveResidues>
 VAL166  LYS551  ARG553  GLY616  TRP617  ASP618  TYR619  PRO620  LYS621  CYS622 
 ASP623  PHE694  ASN695  SER759  ASP760  ASP761  ALA762  ILE779  LEU786  VAL792 
 PHE793  MET794  SER795  GLU796  ALA797  LYS798  CYS799  TRP800  GLU811  SER814 

> <Gold.Protein.RotatedAtoms>
  150.7300  134.0236  159.3709 H   0  0  0  0  0  0  0  0  0  0  0  0  # atno 6907 bound_to 6896
  151.8202  135.0652  160.0433 H   0  0  0  0  0  0  0  0  0  0  0  0  # atno 6908 bound_to 6896
  152.3009  133.5618  159.5654 H   0  0  0  0  0  0  0  0  0  0  0  0  # atno 6909 bound_to 6896
  146.1642  140.4556  142.8559 H   0  0  0  0  0  0  0  0  0  0  0  0  # atno 7974 bound_to 7965
  155.3525  140.3414  155.4239 H   0  0  0  0  0  0  0  0  0  0  0  0  # atno 8008 bound_to 7997
  156.1756  140.1646  156.8403 H   0  0  0  0  0  0  0  0  0  0  0  0  # atno 8009 bound_to 7997
  154.5279  140.0752  156.8274 H   0  0  0  0  0  0  0  0  0  0  0  0  # atno 8010 bound_to 7997
  140.5036  143.2357  151.7712 H   0  0  0  0  0  0  0  0  0  0  0  0  # atno 10167 bound_to 10162
  156.0074  130.5176  150.6311 H   0  0  0  0  0  0  0  0  0  0  0  0  # atno 10718 bound_to 10713
  154.6869  135.5228  153.8339 H   0  0  0  0  0  0  0  0  0  0  0  0  # atno 10763 bound_to 10752
  153.0604  135.6566  154.0486 H   0  0  0  0  0  0  0  0  0  0  0  0  # atno 10764 bound_to 10752
  154.0365  135.2981  155.3341 H   0  0  0  0  0  0  0  0  0  0  0  0  # atno 10765 bound_to 10752
  141.1181  133.6611  156.4829 H   0  0  0  0  0  0  0  0  0  0  0  0  # atno 11005 bound_to 11000
  144.8069  140.6316  143.6441 LP  0  0  0  0  0  0  0  0  0  0  0  0  # atno 17320 bound_to 7965
  145.4509  139.1523  143.3919 LP  0  0  0  0  0  0  0  0  0  0  0  0  # atno 17321 bound_to 7965
  139.4878  144.4489  151.9678 LP  0  0  0  0  0  0  0  0  0  0  0  0  # atno 17342 bound_to 10162
  140.3578  144.3010  150.5938 LP  0  0  0  0  0  0  0  0  0  0  0  0  # atno 17343 bound_to 10162
  157.4109  131.0823  151.1222 LP  0  0  0  0  0  0  0  0  0  0  0  0  # atno 17370 bound_to 10713
  157.1854  130.6328  149.5686 LP  0  0  0  0  0  0  0  0  0  0  0  0  # atno 17371 bound_to 10713
  140.4586  134.6862  157.5074 LP  0  0  0  0  0  0  0  0  0  0  0  0  # atno 17394 bound_to 11000
  140.0118  134.6678  155.9369 LP  0  0  0  0  0  0  0  0  0  0  0  0  # atno 17395 bound_to 11000

$$$$
