AV-unprocessed.smi:1180|AV-procd|sdf|4961|dock2
  -GOLD-   22720 3553D 1   1.00000     0.00000
 Structure written by MMmdl.
 38 39  0  0  0  0  0  0  0  0  1 V2000
  154.0675  141.7136  162.7216 C   0  0  0  0  0  0  0  0  0  0  0  0
  153.3832  142.1056  161.4290 C   0  0  0  0  0  0  0  0  0  0  0  0
  152.7828  143.2352  161.2455 N   0  0  0  0  0  0  0  0  0  0  0  0
  152.1809  143.4844  160.0040 C   0  0  0  0  0  0  0  0  0  0  0  0
  151.4893  144.8297  159.8678 C   0  0  0  0  0  0  0  0  0  0  0  0
  152.2202  142.5679  158.9927 C   0  0  0  0  0  0  0  0  0  0  0  0
  151.5700  142.8068  157.6302 C   0  0  0  0  0  0  0  0  0  0  0  0
  150.4615  141.8296  157.2283 C   0  0  0  0  0  0  0  0  0  0  0  0
  150.3339  140.7501  157.8071 O   0  0  0  0  0  0  0  0  0  0  0  0
  149.6625  142.2244  156.2273 N   0  0  0  0  0  0  0  0  0  0  0  0
  148.5515  141.4407  155.7031 C   0  0  0  0  0  0  0  0  0  0  0  0
  148.8962  140.8292  154.3307 C   0  0  1  0  0  0  0  0  0  0  0  0
  149.8671  139.6668  154.4383 C   0  0  0  0  0  0  0  0  0  0  0  0
  148.9561  138.4618  154.6800 C   0  0  0  0  0  0  0  0  0  0  0  0
  147.6599  138.8393  154.2239 O   0  0  0  0  0  0  0  0  0  0  0  0
  147.7094  140.1407  153.6533 C   0  0  0  0  0  0  0  0  0  0  0  0
  152.9092  141.2816  159.2133 C   0  0  0  0  0  0  0  0  0  0  0  0
  152.9990  140.3857  158.3755 O   0  0  0  0  0  0  0  0  0  0  0  0
  153.4577  141.1270  160.4392 N   0  0  0  0  0  0  0  0  0  0  0  0
  153.9387  140.2624  160.6399 H   0  0  0  0  0  0  0  0  0  0  0  0
  153.3530  141.7327  163.5450 H   0  0  0  0  0  0  0  0  0  0  0  0
  154.8708  142.4151  162.9482 H   0  0  0  0  0  0  0  0  0  0  0  0
  154.4950  140.7116  162.6641 H   0  0  0  0  0  0  0  0  0  0  0  0
  151.9929  145.4436  159.1208 H   0  0  0  0  0  0  0  0  0  0  0  0
  151.4979  145.3770  160.8113 H   0  0  0  0  0  0  0  0  0  0  0  0
  150.4492  144.7002  159.5683 H   0  0  0  0  0  0  0  0  0  0  0  0
  151.1535  143.8143  157.6157 H   0  0  0  0  0  0  0  0  0  0  0  0
  152.3270  142.8082  156.8451 H   0  0  0  0  0  0  0  0  0  0  0  0
  149.8340  143.1240  155.8022 H   0  0  0  0  0  0  0  0  0  0  0  0
  148.3190  140.6465  156.4143 H   0  0  0  0  0  0  0  0  0  0  0  0
  147.6638  142.0714  155.6288 H   0  0  0  0  0  0  0  0  0  0  0  0
  149.3068  141.6108  153.6898 H   0  0  0  0  0  0  0  0  0  0  0  0
  150.3918  139.5421  153.4902 H   0  0  0  0  0  0  0  0  0  0  0  0
  150.6187  139.7954  155.2180 H   0  0  0  0  0  0  0  0  0  0  0  0
  149.3123  137.5737  154.1577 H   0  0  0  0  0  0  0  0  0  0  0  0
  148.8962  138.2265  155.7431 H   0  0  0  0  0  0  0  0  0  0  0  0
  146.7643  140.6692  153.7797 H   0  0  0  0  0  0  0  0  0  0  0  0
  147.8940  140.0418  152.5827 H   0  0  0  0  0  0  0  0  0  0  0  0
  1  2  1  0  0  0  0
  1 21  1  0  0  0  0
  1 22  1  0  0  0  0
  1 23  1  0  0  0  0
  2 19  1  0  0  0  0
  2  3  2  0  0  0  0
  3  4  1  0  0  0  0
  4  5  1  0  0  0  0
  4  6  2  0  0  0  0
  5 24  1  0  0  0  0
  5 25  1  0  0  0  0
  5 26  1  0  0  0  0
  6  7  1  0  0  0  0
  6 17  1  0  0  0  0
  7  8  1  0  0  0  0
  7 27  1  0  0  0  0
  7 28  1  0  0  0  0
  8  9  2  0  0  0  0
  8 10  1  0  0  0  0
 10 11  1  0  0  0  0
 10 29  1  0  0  0  0
 11 12  1  0  0  0  0
 11 30  1  0  0  0  0
 11 31  1  0  0  0  0
 12 16  1  0  0  0  0
 12 13  1  0  0  0  0
 12 32  1  0  0  0  0
 13 14  1  0  0  0  0
 13 33  1  0  0  0  0
 13 34  1  0  0  0  0
 14 15  1  0  0  0  0
 14 35  1  0  0  0  0
 14 36  1  0  0  0  0
 15 16  1  0  0  0  0
 16 37  1  0  0  0  0
 16 38  1  0  0  0  0
 17 18  2  0  0  0  0
 17 19  1  0  0  0  0
 19 20  1  0  0  0  0
M  END
> <s_m_source_file>
AV-unprocessed.smi

> <i_m_source_file_index>
1180

> <i_lp_mmshare_version>
43012

> <i_f3d_flags>
0

> <s_epik_input>
W0NIM11jMW5jKFtDSDNdKWMoYyg9TylbbkhdMSlbQ0gyXUMoPU8pW05IXVtDSDJdW0NAQEhdMltDSDJdW0NIMl1PW0NIMl0y

> <s_epik_cmdline>
J2VwaWtfcHl0aG9uJywgJy1waCcsICc3LjAnLCAnLXRuJywgJzgnLCAnLW1hJywgJzIwMCcsICctbWV0YWxfYmluZGluZycsICctaW1hZScsICc8aW5maWxlLm1hZT4nLCAnLW9tYWUnLCAnPG91dGZpbGUubWFlPic=

> <r_lp_tautomer_probability>
0.839158

> <r_epik_Ionization_Penalty>
0.000395459

> <r_epik_Ionization_Penalty_Charging>
0.000363703

> <r_epik_Ionization_Penalty_Neutral>
3.17556e-05

> <r_epik_State_Penalty>
0.0471244

> <r_epik_Charging_Adjusted_Penalty>
0.0474881

> <i_epik_Tot_Q>
0

> <i_epik_Tot_abs_Q>
0

> <r_epik_Metal_State_Penalty>
0.225307

> <b_epik_Metal_Only>
0

> <s_lp_Force_Field>
OPLS_2005

> <r_lp_Energy>
22.3305

> <b_lp_Chiralities_Consistent>
1

> <s_lp_Variant>
AV-unprocessed.smi:1180-2

> <Gold.Version>
5.8.1

> <Gold.Id.Protein>
6NUR|6NUR_protein|mol2

> <Gold.PLP.Fitness>
39.9130

> <Gold.PLP.PLP>
-35.7110

> <Gold.PLP.part.hbond>
-2.0000

> <Gold.PLP.part.metal>
0.0000

> <Gold.PLP.part.buried>
-1.8273

> <Gold.PLP.part.nonpolar>
-31.6915

> <Gold.PLP.part.repulsive>
0.3757

> <Gold.PLP.ligand.clash>
0.0000

> <Gold.PLP.ligand.torsion>
0.3698

> <Gold.PLP.Chemscore.Hbond>
1.6406

> <Gold.PLP.Chemscore.CHOScore>
0.0000

> <Gold.PLP.Chemscore.Metal>
0.0000

> <Gold.Chemscore.Hbonds>
donor molecule, donor type, donor heavy atom, donor atom, acceptor molecule, acceptor atom, score
      L1  H    10    29       P1  8028  0.72
      P1  H  7997  8009       L1    18  0.71

> <Gold.PLP.Chemscore.Internal.Correction>
0.0198

> <Gold.Rescore>
     Score         DG    S(hbond)    S(metal)    S(lipo)     H(rot)  DE(clash)    DE(int)     intcor
     13.70     -16.62       1.80        0.00      83.28       1.81       0.03       2.88       ----

> <Gold.Chemscore.Fitness>
13.7046

> <Gold.Chemscore.DG>
-16.6163

> <Gold.Chemscore.ZeroCoef>
-5.4800

> <Gold.Chemscore.Hbond>
1.8015

> <Gold.Chemscore.Metal>
0.0000

> <Gold.Chemscore.Lipo>
83.2814

> <Gold.Chemscore.Internal_Hbond>
0.0000

> <Gold.Chemscore.DEClash>
0.0276

> <Gold.Chemscore.DEInternal>
2.8841

> <Gold.Chemscore.Rot>
1.8065

> <Gold.Chemscore.Internal.Correction>
   9.000000E+99

> <Gold.Chemscore.Hbonds>
donor molecule, donor type, donor heavy atom, donor atom, acceptor molecule, acceptor atom, score
      L1  H    10    29       P1  8028  0.72
      P1  H  7997  8009       L1    18  0.70

> <Gold.Chemscore.Hbond.Weighted>
-6.0170

> <Gold.Chemscore.Metal.Weighted>
-0.0000

> <Gold.Chemscore.Lipo.Weighted>
-9.7439

> <Gold.Chemscore.Internal_Hbond.Weighted>
0.0000

> <Gold.Chemscore.DEClash.Weighted>
0.0276

> <Gold.Chemscore.DEInternal.Weighted>
2.8841

> <Gold.Chemscore.Rot.Weighted>
4.6246

> <Gold.Chemscore.Internal.Correction.Weighted>
   9.000000E+99

> <Gold.Protein.RotatedTorsions>
[ 6907 6896 6895 6894 ] final -122.77 input  -60.11 | X-H torsion
[ 7974 7965 7964 7962 ] final -128.60 input  175.53 | X-H torsion
[ 8008 7997 7996 7995 ] final  156.83 input   59.86 | X-H torsion
[ 10167 10162 10161 10158 ] final  -34.00 input  -65.29 | X-H torsion
[ 10718 10713 10712 10709 ] final -148.17 input   66.30 | X-H torsion
[ 10763 10752 10751 10750 ] final  144.18 input  -60.55 | X-H torsion
[ 11005 11000 10999 10996 ] final    3.73 input  -57.11 | X-H torsion

> <Gold.Protein.ActiveResidues>
 VAL166  LYS551  ARG553  GLY616  TRP617  ASP618  TYR619  PRO620  LYS621  CYS622 
 ASP623  PHE694  ASN695  SER759  ASP760  ASP761  ALA762  ILE779  LEU786  VAL792 
 PHE793  MET794  SER795  GLU796  ALA797  LYS798  CYS799  TRP800  GLU811  SER814 

> <Gold.Protein.RotatedAtoms>
  150.8607  133.7647  159.2993 H   0  0  0  0  0  0  0  0  0  0  0  0  # atno 6907 bound_to 6896
  151.5290  135.1066  159.9907 H   0  0  0  0  0  0  0  0  0  0  0  0  # atno 6908 bound_to 6896
  152.4624  133.7807  159.6905 H   0  0  0  0  0  0  0  0  0  0  0  0  # atno 6909 bound_to 6896
  144.9654  140.7491  143.4703 H   0  0  0  0  0  0  0  0  0  0  0  0  # atno 7974 bound_to 7965
  156.2400  140.1902  156.7015 H   0  0  0  0  0  0  0  0  0  0  0  0  # atno 8008 bound_to 7997
  154.6178  140.0613  156.9603 H   0  0  0  0  0  0  0  0  0  0  0  0  # atno 8009 bound_to 7997
  155.1911  140.3284  155.4361 H   0  0  0  0  0  0  0  0  0  0  0  0  # atno 8010 bound_to 7997
  140.7194  143.3579  151.2022 H   0  0  0  0  0  0  0  0  0  0  0  0  # atno 10167 bound_to 10162
  156.4169  130.8009  151.2230 H   0  0  0  0  0  0  0  0  0  0  0  0  # atno 10718 bound_to 10713
  153.9847  135.2938  155.3417 H   0  0  0  0  0  0  0  0  0  0  0  0  # atno 10763 bound_to 10752
  154.7249  135.5093  153.8874 H   0  0  0  0  0  0  0  0  0  0  0  0  # atno 10764 bound_to 10752
  153.0838  135.6687  154.0106 H   0  0  0  0  0  0  0  0  0  0  0  0  # atno 10765 bound_to 10752
  140.5898  133.9935  155.8084 H   0  0  0  0  0  0  0  0  0  0  0  0  # atno 11005 bound_to 11000
  145.2637  139.1982  143.4878 LP  0  0  0  0  0  0  0  0  0  0  0  0  # atno 17320 bound_to 7965
  146.3366  140.2572  142.8600 LP  0  0  0  0  0  0  0  0  0  0  0  0  # atno 17321 bound_to 7965
  139.7124  143.9354  152.2953 LP  0  0  0  0  0  0  0  0  0  0  0  0  # atno 17342 bound_to 10162
  139.9084  144.6871  150.8589 LP  0  0  0  0  0  0  0  0  0  0  0  0  # atno 17343 bound_to 10162
  157.7508  131.0240  150.3859 LP  0  0  0  0  0  0  0  0  0  0  0  0  # atno 17370 bound_to 10713
  156.4168  130.3945  149.6852 LP  0  0  0  0  0  0  0  0  0  0  0  0  # atno 17371 bound_to 10713
  141.0942  133.9869  157.3187 LP  0  0  0  0  0  0  0  0  0  0  0  0  # atno 17394 bound_to 11000
  139.9279  135.0201  156.8299 LP  0  0  0  0  0  0  0  0  0  0  0  0  # atno 17395 bound_to 11000

$$$$
