AV-unprocessed.smi:650|AV-procd|sdf|3182|dock5
  -GOLD-   22720 0103D 1   1.00000     0.00000
 Structure written by MMmdl.
 43 44  0  0  0  0  0  0  0  0  2 V2000
  153.4598  142.3721  160.8592 C   0  0  0  0  0  0  0  0  0  0  0  0
  152.6137  142.8320  159.7215 C   0  0  0  0  0  0  0  0  0  0  0  0
  151.8454  142.1679  158.8072 C   0  0  0  0  0  0  0  0  0  0  0  0
  151.3189  143.2179  158.0086 C   0  0  0  0  0  0  0  0  0  0  0  0
  150.4535  142.9407  156.9197 N   0  0  0  0  0  0  0  0  0  0  0  0
  150.3972  141.8175  156.1842 C   0  0  0  0  0  0  0  0  0  0  0  0
  151.1125  140.8280  156.3445 O   0  0  0  0  0  0  0  0  0  0  0  0
  149.4554  141.9038  155.2331 N   0  0  0  0  0  0  0  0  0  0  0  0
  149.1094  140.8470  154.2864 C   0  0  0  0  0  0  0  0  0  0  0  0
  149.2326  139.4357  154.8989 C   0  0  2  0  0  0  0  0  0  0  0  0
  150.5181  138.7416  154.4145 C   0  0  0  0  0  0  0  0  0  0  0  0
  150.6525  137.3249  154.9959 C   0  0  0  0  0  0  0  0  0  0  0  0
  149.4704  136.4933  154.6566 N   0  3  1  0  0  0  0  0  0  0  0  0
  149.6372  135.0782  155.0766 C   0  0  0  0  0  0  0  0  0  0  0  0
  148.4836  134.1795  154.5996 C   0  0  0  0  0  0  0  0  0  0  0  0
  148.6365  133.8850  153.2271 O   0  0  0  0  0  0  0  0  0  0  0  0
  148.2142  137.1130  155.1536 C   0  0  0  0  0  0  0  0  0  0  0  0
  148.0275  138.5275  154.5804 C   0  0  0  0  0  0  0  0  0  0  0  0
  151.7251  144.4152  158.4026 N   0  0  0  0  0  0  0  0  0  0  0  0
  152.5571  144.1740  159.5023 O   0  0  0  0  0  0  0  0  0  0  0  0
  153.8525  141.3729  160.6711 H   0  0  0  0  0  0  0  0  0  0  0  0
  152.8808  142.3406  161.7821 H   0  0  0  0  0  0  0  0  0  0  0  0
  154.3060  143.0423  161.0124 H   0  0  0  0  0  0  0  0  0  0  0  0
  151.6894  141.1027  158.7242 H   0  0  0  0  0  0  0  0  0  0  0  0
  149.8029  143.6741  156.6810 H   0  0  0  0  0  0  0  0  0  0  0  0
  148.9204  142.7579  155.1730 H   0  0  0  0  0  0  0  0  0  0  0  0
  148.1080  141.0000  153.8799 H   0  0  0  0  0  0  0  0  0  0  0  0
  149.7924  140.9383  153.4414 H   0  0  0  0  0  0  0  0  0  0  0  0
  149.2982  139.5450  155.9827 H   0  0  0  0  0  0  0  0  0  0  0  0
  150.5206  138.6872  153.3247 H   0  0  0  0  0  0  0  0  0  0  0  0
  151.3899  139.3337  154.6945 H   0  0  0  0  0  0  0  0  0  0  0  0
  151.5561  136.8620  154.5971 H   0  0  0  0  0  0  0  0  0  0  0  0
  150.7703  137.3702  156.0799 H   0  0  0  0  0  0  0  0  0  0  0  0
  150.5688  134.6787  154.6727 H   0  0  0  0  0  0  0  0  0  0  0  0
  149.7322  135.0305  156.1624 H   0  0  0  0  0  0  0  0  0  0  0  0
  148.4972  133.2398  155.1523 H   0  0  0  0  0  0  0  0  0  0  0  0
  147.5076  134.6307  154.7734 H   0  0  0  0  0  0  0  0  0  0  0  0
  148.5842  134.6920  152.7368 H   0  0  0  0  0  0  0  0  0  0  0  0
  147.3537  136.5062  154.8748 H   0  0  0  0  0  0  0  0  0  0  0  0
  148.2318  137.1511  156.2439 H   0  0  0  0  0  0  0  0  0  0  0  0
  147.1110  138.9528  154.9894 H   0  0  0  0  0  0  0  0  0  0  0  0
  147.8848  138.4683  153.5003 H   0  0  0  0  0  0  0  0  0  0  0  0
  149.4167  136.4802  153.6475 H   0  0  0  0  0  0  0  0  0  0  0  0
  1  2  1  0  0  0  0
  1 21  1  0  0  0  0
  1 22  1  0  0  0  0
  1 23  1  0  0  0  0
  2 20  1  0  0  0  0
  2  3  2  0  0  0  0
  3  4  1  0  0  0  0
  3 24  1  0  0  0  0
  4  5  1  0  0  0  0
  4 19  2  0  0  0  0
  5  6  1  0  0  0  0
  5 25  1  0  0  0  0
  6  7  2  0  0  0  0
  6  8  1  0  0  0  0
  8  9  1  0  0  0  0
  8 26  1  0  0  0  0
  9 10  1  0  0  0  0
  9 27  1  0  0  0  0
  9 28  1  0  0  0  0
 10 18  1  0  0  0  0
 10 11  1  0  0  0  0
 10 29  1  0  0  0  0
 11 12  1  0  0  0  0
 11 30  1  0  0  0  0
 11 31  1  0  0  0  0
 12 13  1  0  0  0  0
 12 32  1  0  0  0  0
 12 33  1  0  0  0  0
 13 14  1  0  0  0  0
 13 17  1  0  0  0  0
 13 43  1  0  0  0  0
 14 15  1  0  0  0  0
 14 34  1  0  0  0  0
 14 35  1  0  0  0  0
 15 16  1  0  0  0  0
 15 36  1  0  0  0  0
 15 37  1  0  0  0  0
 16 38  1  0  0  0  0
 17 18  1  0  0  0  0
 17 39  1  0  0  0  0
 17 40  1  0  0  0  0
 18 41  1  0  0  0  0
 18 42  1  0  0  0  0
 19 20  1  0  0  0  0
M  CHG  1  13   1
M  END
> <s_m_source_file>
AV-unprocessed.smi

> <i_m_source_file_index>
650

> <i_lp_mmshare_version>
43012

> <i_f3d_flags>
0

> <s_epik_input>
W0NIM11jMVtjSF1jKG5vMSlbTkhdQyg9TylbTkhdW0NIMl1bQ0hdMltDSDJdW0NIMl1OKFtDSDJdW0NIMl0yKVtDSDJdW0NIMl1bT0hd

> <s_epik_cmdline>
J2VwaWtfcHl0aG9uJywgJy1waCcsICc3LjAnLCAnLXRuJywgJzgnLCAnLW1hJywgJzIwMCcsICctbWV0YWxfYmluZGluZycsICctaW1hZScsICc8aW5maWxlLm1hZT4nLCAnLW9tYWUnLCAnPG91dGZpbGUubWFlPic=

> <r_epik_Ionization_Penalty>
0.00179437

> <r_epik_Ionization_Penalty_Charging>
0.00177223

> <r_epik_Ionization_Penalty_Neutral>
2.21418e-05

> <r_epik_State_Penalty>
0.00120075

> <r_epik_Charging_Adjusted_Penalty>
0.00297297

> <i_epik_Tot_Q>
1

> <i_epik_Tot_abs_Q>
1

> <r_epik_Metal_State_Penalty>
-0

> <b_epik_Metal_Only>
0

> <s_lp_Force_Field>
OPLS_2005

> <r_lp_Energy>
15.9462

> <b_lp_Chiralities_Consistent>
1

> <s_lp_Variant>
AV-unprocessed.smi:650-1

> <Gold.Version>
5.8.1

> <Gold.Id.Protein>
6NUR|6NUR_protein|mol2

> <Gold.PLP.Fitness>
48.8646

> <Gold.PLP.PLP>
-35.8862

> <Gold.PLP.part.hbond>
-4.0000

> <Gold.PLP.part.metal>
0.0000

> <Gold.PLP.part.buried>
-6.0383

> <Gold.PLP.part.nonpolar>
-25.7520

> <Gold.PLP.part.repulsive>
0.3383

> <Gold.PLP.ligand.clash>
0.0022

> <Gold.PLP.ligand.torsion>
1.0371

> <Gold.PLP.Chemscore.Hbond>
5.0000

> <Gold.PLP.Chemscore.CHOScore>
0.0000

> <Gold.PLP.Chemscore.Metal>
0.0000

> <Gold.Chemscore.Hbonds>
donor molecule, donor type, donor heavy atom, donor atom, acceptor molecule, acceptor atom, score
      L1  H     5    25       P1  8028  1.00
      L1  H     8    26       P1  8028  0.91
      L1  H    13    43       P1  7948  2.00
      L1  H    16    38       P1  7948  0.90

> <Gold.PLP.Chemscore.Internal.Correction>
0.0548

> <Gold.Rescore>
     Score         DG    S(hbond)    S(metal)    S(lipo)     H(rot)  DE(clash)    DE(int)     intcor
     16.16     -19.84       3.87        0.00      68.02       2.55       0.04       3.64       ----

> <Gold.Chemscore.Fitness>
16.1581

> <Gold.Chemscore.DG>
-19.8373

> <Gold.Chemscore.ZeroCoef>
-5.4800

> <Gold.Chemscore.Hbond>
3.8698

> <Gold.Chemscore.Metal>
0.0000

> <Gold.Chemscore.Lipo>
68.0178

> <Gold.Chemscore.Internal_Hbond>
0.0000

> <Gold.Chemscore.DEClash>
0.0351

> <Gold.Chemscore.DEInternal>
3.6441

> <Gold.Chemscore.Rot>
2.5492

> <Gold.Chemscore.Internal.Correction>
   9.000000E+99

> <Gold.Chemscore.Hbonds>
donor molecule, donor type, donor heavy atom, donor atom, acceptor molecule, acceptor atom, score
      L1  H     5    25       P1  8028  0.99
      L1  H     8    26       P1  8028  0.85
      L1  H    13    43       P1  7948  0.82
      L1  H    16    38       P1  7948  0.18

> <Gold.Chemscore.Hbond.Weighted>
-12.9252

> <Gold.Chemscore.Metal.Weighted>
-0.0000

> <Gold.Chemscore.Lipo.Weighted>
-7.9581

> <Gold.Chemscore.Internal_Hbond.Weighted>
0.0000

> <Gold.Chemscore.DEClash.Weighted>
0.0351

> <Gold.Chemscore.DEInternal.Weighted>
3.6441

> <Gold.Chemscore.Rot.Weighted>
6.5260

> <Gold.Chemscore.Internal.Correction.Weighted>
   9.000000E+99

> <Gold.Protein.RotatedTorsions>
[ 6907 6896 6895 6894 ] final  153.98 input  -60.11 | X-H torsion
[ 7974 7965 7964 7962 ] final  -68.88 input  175.53 | X-H torsion
[ 8008 7997 7996 7995 ] final  -97.49 input   59.86 | X-H torsion
[ 10167 10162 10161 10158 ] final -179.36 input  -65.29 | X-H torsion
[ 10718 10713 10712 10709 ] final -174.62 input   66.30 | X-H torsion
[ 10763 10752 10751 10750 ] final  -69.47 input  -60.55 | X-H torsion
[ 11005 11000 10999 10996 ] final -138.52 input  -57.11 | X-H torsion

> <Gold.Protein.ActiveResidues>
 VAL166  LYS551  ARG553  GLY616  TRP617  ASP618  TYR619  PRO620  LYS621  CYS622 
 ASP623  PHE694  ASN695  SER759  ASP760  ASP761  ALA762  ILE779  LEU786  VAL792 
 PHE793  MET794  SER795  GLU796  ALA797  LYS798  CYS799  TRP800  GLU811  SER814 

> <Gold.Protein.RotatedAtoms>
  152.0650  133.4080  159.4434 H   0  0  0  0  0  0  0  0  0  0  0  0  # atno 6907 bound_to 6896
  150.6865  134.3156  159.4774 H   0  0  0  0  0  0  0  0  0  0  0  0  # atno 6908 bound_to 6896
  152.0982  134.9360  160.0621 H   0  0  0  0  0  0  0  0  0  0  0  0  # atno 6909 bound_to 6896
  145.7109  140.9079  143.0681 H   0  0  0  0  0  0  0  0  0  0  0  0  # atno 7974 bound_to 7965
  154.7884  140.0462  157.1182 H   0  0  0  0  0  0  0  0  0  0  0  0  # atno 8008 bound_to 7997
  154.9620  140.3078  155.5007 H   0  0  0  0  0  0  0  0  0  0  0  0  # atno 8009 bound_to 7997
  156.2946  140.2269  156.4706 H   0  0  0  0  0  0  0  0  0  0  0  0  # atno 8010 bound_to 7997
  139.5390  144.2416  152.0855 H   0  0  0  0  0  0  0  0  0  0  0  0  # atno 10167 bound_to 10162
  156.7878  130.9507  151.3120 H   0  0  0  0  0  0  0  0  0  0  0  0  # atno 10718 bound_to 10713
  154.4038  135.6025  153.5912 H   0  0  0  0  0  0  0  0  0  0  0  0  # atno 10763 bound_to 10752
  152.9788  135.5913  154.4152 H   0  0  0  0  0  0  0  0  0  0  0  0  # atno 10764 bound_to 10752
  154.3954  135.2842  155.2107 H   0  0  0  0  0  0  0  0  0  0  0  0  # atno 10765 bound_to 10752
  140.8608  134.2171  157.4708 H   0  0  0  0  0  0  0  0  0  0  0  0  # atno 11005 bound_to 11000
  144.6942  139.9073  143.7461 LP  0  0  0  0  0  0  0  0  0  0  0  0  # atno 17320 bound_to 7965
  146.0713  139.3702  143.0521 LP  0  0  0  0  0  0  0  0  0  0  0  0  # atno 17321 bound_to 7965
  140.1892  144.4769  150.6488 LP  0  0  0  0  0  0  0  0  0  0  0  0  # atno 17342 bound_to 10162
  140.6611  143.2252  151.5854 LP  0  0  0  0  0  0  0  0  0  0  0  0  # atno 17343 bound_to 10162
  157.6615  130.8970  149.9841 LP  0  0  0  0  0  0  0  0  0  0  0  0  # atno 17370 bound_to 10713
  156.1178  130.3647  149.9938 LP  0  0  0  0  0  0  0  0  0  0  0  0  # atno 17371 bound_to 10713
  139.8707  134.9728  156.4788 LP  0  0  0  0  0  0  0  0  0  0  0  0  # atno 17394 bound_to 11000
  140.8685  133.8006  155.9339 LP  0  0  0  0  0  0  0  0  0  0  0  0  # atno 17395 bound_to 11000

$$$$
