AV-unprocessed.smi:3298|AV-procd|sdf|12644|dock10
  -GOLD-   2272018583D 1   1.00000     0.00000
 Structure written by MMmdl.
 36 37  0  0  0  0  0  0  0  0  2 V2000
  146.3922  143.2279  154.0053 C   0  0  0  0  0  0  0  0  0  0  0  0
  147.3352  142.0470  154.1014 C   0  0  0  0  0  0  0  0  0  0  0  0
  147.0373  140.7957  153.5207 C   0  0  0  0  0  0  0  0  0  0  0  0
  147.9519  139.7281  153.6575 C   0  0  0  0  0  0  0  0  0  0  0  0
  147.6213  138.4872  153.0510 N   0  0  0  0  0  0  0  0  0  0  0  0
  146.3972  137.9710  152.8474 C   0  0  0  0  0  0  0  0  0  0  0  0
  145.3385  138.5151  153.1617 O   0  0  0  0  0  0  0  0  0  0  0  0
  146.4633  136.7854  152.2257 N   0  0  0  0  0  0  0  0  0  0  0  0
  145.3064  135.9992  151.8117 C   0  0  2  0  0  0  0  0  0  0  0  0
  144.8132  135.1473  152.9488 C   0  0  0  0  0  0  0  0  0  0  0  0
  144.7820  133.8519  152.6450 C   0  0  0  0  0  0  0  0  0  0  0  0
  145.2585  133.5671  151.2435 C   0  0  2  0  0  0  0  0  0  0  0  0
  146.4182  132.5566  151.2023 C   0  0  0  0  0  0  0  0  0  0  0  0
  146.8127  132.3052  149.8700 O   0  0  0  0  0  0  0  0  0  0  0  0
  145.6526  134.9668  150.7061 C   0  0  0  0  0  0  0  0  0  0  0  0
  149.1658  139.9577  154.3524 C   0  0  0  0  0  0  0  0  0  0  0  0
  149.4117  141.2294  154.9075 C   0  0  0  0  0  0  0  0  0  0  0  0
  148.4991  142.2146  154.7670 N   0  3  0  0  0  0  0  0  0  0  0  0
  144.4929  136.6541  151.4944 H   0  0  0  0  0  0  0  0  0  0  0  0
  144.4140  133.1815  150.6706 H   0  0  0  0  0  0  0  0  0  0  0  0
  145.3997  142.9108  153.6838 H   0  0  0  0  0  0  0  0  0  0  0  0
  146.7696  143.9550  153.2860 H   0  0  0  0  0  0  0  0  0  0  0  0
  146.2928  143.7200  154.9734 H   0  0  0  0  0  0  0  0  0  0  0  0
  146.1102  140.6541  152.9840 H   0  0  0  0  0  0  0  0  0  0  0  0
  148.3940  137.9743  152.6521 H   0  0  0  0  0  0  0  0  0  0  0  0
  147.3729  136.4088  152.0019 H   0  0  0  0  0  0  0  0  0  0  0  0
  144.5069  135.5702  153.8944 H   0  0  0  0  0  0  0  0  0  0  0  0
  144.4488  133.0677  153.3090 H   0  0  0  0  0  0  0  0  0  0  0  0
  147.2776  132.9457  151.7488 H   0  0  0  0  0  0  0  0  0  0  0  0
  146.1322  131.6167  151.6757 H   0  0  0  0  0  0  0  0  0  0  0  0
  147.5884  131.7654  149.8825 H   0  0  0  0  0  0  0  0  0  0  0  0
  145.1107  135.1929  149.7871 H   0  0  0  0  0  0  0  0  0  0  0  0
  146.7141  134.9991  150.4545 H   0  0  0  0  0  0  0  0  0  0  0  0
  149.9135  139.1861  154.4579 H   0  0  0  0  0  0  0  0  0  0  0  0
  150.3080  141.4871  155.4525 H   0  0  0  0  0  0  0  0  0  0  0  0
  148.6991  143.1268  155.1782 H   0  0  0  0  0  0  0  0  0  0  0  0
  1  2  1  0  0  0  0
  1 21  1  0  0  0  0
  1 22  1  0  0  0  0
  1 23  1  0  0  0  0
  2 18  1  0  0  0  0
  2  3  2  0  0  0  0
  3  4  1  0  0  0  0
  3 24  1  0  0  0  0
  4  5  1  0  0  0  0
  4 16  2  0  0  0  0
  5  6  1  0  0  0  0
  5 25  1  0  0  0  0
  6  7  2  0  0  0  0
  6  8  1  0  0  0  0
  8  9  1  0  0  0  0
  8 26  1  0  0  0  0
  9 19  1  0  0  0  0
  9 15  1  0  0  0  0
  9 10  1  0  0  0  0
 10 11  2  0  0  0  0
 10 27  1  0  0  0  0
 11 12  1  0  0  0  0
 11 28  1  0  0  0  0
 12 20  1  0  0  0  0
 12 13  1  0  0  0  0
 12 15  1  0  0  0  0
 13 14  1  0  0  0  0
 13 29  1  0  0  0  0
 13 30  1  0  0  0  0
 14 31  1  0  0  0  0
 15 32  1  0  0  0  0
 15 33  1  0  0  0  0
 16 17  1  0  0  0  0
 16 34  1  0  0  0  0
 17 18  2  0  0  0  0
 17 35  1  0  0  0  0
 18 36  1  0  0  0  0
M  CHG  1  18   1
M  END
> <s_m_source_file>
AV-unprocessed.smi

> <i_m_source_file_index>
3298

> <i_lp_mmshare_version>
43012

> <i_f3d_flags>
0

> <s_epik_input>
W0NIM11jMVtjSF1jKFtjSF1bY0hdbjEpW05IXUMoPU8pW05IXVtDQEBIXTJbQ0hdPVtDSF1bQ0BASF0oW0NIMl0yKVtDSDJdW09IXQ==

> <s_epik_cmdline>
J2VwaWtfcHl0aG9uJywgJy1waCcsICc3LjAnLCAnLXRuJywgJzgnLCAnLW1hJywgJzIwMCcsICctbWV0YWxfYmluZGluZycsICctaW1hZScsICc8aW5maWxlLm1hZT4nLCAnLW9tYWUnLCAnPG91dGZpbGUubWFlPic=

> <r_epik_Ionization_Penalty>
0.443901

> <r_epik_Ionization_Penalty_Charging>
0.443881

> <r_epik_Ionization_Penalty_Neutral>
1.94967e-05

> <r_epik_State_Penalty>
0.446172

> <r_epik_Charging_Adjusted_Penalty>
0.890053

> <i_epik_Tot_Q>
1

> <i_epik_Tot_abs_Q>
1

> <r_epik_Metal_State_Penalty>
0.675842

> <b_epik_Metal_Only>
0

> <s_lp_Force_Field>
OPLS_2005

> <r_lp_Energy>
26.7826

> <b_lp_Chiralities_Consistent>
1

> <s_lp_Variant>
AV-unprocessed.smi:3298-5

> <Gold.Version>
5.8.1

> <Gold.Id.Protein>
6NUR|6NUR_protein|mol2

> <Gold.PLP.Fitness>
44.9067

> <Gold.PLP.PLP>
-31.1229

> <Gold.PLP.part.hbond>
-4.5173

> <Gold.PLP.part.metal>
0.0000

> <Gold.PLP.part.buried>
-3.6733

> <Gold.PLP.part.nonpolar>
-26.1844

> <Gold.PLP.part.repulsive>
3.0537

> <Gold.PLP.ligand.clash>
0.0000

> <Gold.PLP.ligand.torsion>
0.5075

> <Gold.PLP.Chemscore.Hbond>
4.9280

> <Gold.PLP.Chemscore.CHOScore>
0.0000

> <Gold.PLP.Chemscore.Metal>
0.0000

> <Gold.Chemscore.Hbonds>
donor molecule, donor type, donor heavy atom, donor atom, acceptor molecule, acceptor atom, score
      L1  H     5    25       P1  7948  0.91
      L1  H     8    26       P1  7948  1.00
      L1  H    14    31       P1 10747  1.00
      L1  H    18    36       P1  8028  2.00

> <Gold.PLP.Chemscore.Internal.Correction>
0.0147

> <Gold.Rescore>
     Score         DG    S(hbond)    S(metal)    S(lipo)     H(rot)  DE(clash)    DE(int)     intcor
     19.05     -22.24       3.91        0.00      71.07       1.81       1.35       1.85       ----

> <Gold.Chemscore.Fitness>
19.0460

> <Gold.Chemscore.DG>
-22.2430

> <Gold.Chemscore.ZeroCoef>
-5.4800

> <Gold.Chemscore.Hbond>
3.9137

> <Gold.Chemscore.Metal>
0.0000

> <Gold.Chemscore.Lipo>
71.0682

> <Gold.Chemscore.Internal_Hbond>
0.0000

> <Gold.Chemscore.DEClash>
1.3499

> <Gold.Chemscore.DEInternal>
1.8471

> <Gold.Chemscore.Rot>
1.8061

> <Gold.Chemscore.Internal.Correction>
   9.000000E+99

> <Gold.Chemscore.Hbonds>
donor molecule, donor type, donor heavy atom, donor atom, acceptor molecule, acceptor atom, score
      L1  H     5    25       P1  7948  0.88
      L1  H     8    26       P1  7948  0.97
      L1  H    14    31       P1 10747  1.00
      L1  H    18    36       P1  8028  1.00

> <Gold.Chemscore.Hbond.Weighted>
-13.0716

> <Gold.Chemscore.Metal.Weighted>
-0.0000

> <Gold.Chemscore.Lipo.Weighted>
-8.3150

> <Gold.Chemscore.Internal_Hbond.Weighted>
0.0000

> <Gold.Chemscore.DEClash.Weighted>
1.3499

> <Gold.Chemscore.DEInternal.Weighted>
1.8471

> <Gold.Chemscore.Rot.Weighted>
4.6237

> <Gold.Chemscore.Internal.Correction.Weighted>
   9.000000E+99

> <Gold.Protein.RotatedTorsions>
[ 6907 6896 6895 6894 ] final -106.28 input  -60.11 | X-H torsion
[ 7974 7965 7964 7962 ] final -135.32 input  175.53 | X-H torsion
[ 8008 7997 7996 7995 ] final   28.74 input   59.86 | X-H torsion
[ 10167 10162 10161 10158 ] final   92.36 input  -65.29 | X-H torsion
[ 10718 10713 10712 10709 ] final -130.94 input   66.30 | X-H torsion
[ 10763 10752 10751 10750 ] final -125.48 input  -60.55 | X-H torsion
[ 11005 11000 10999 10996 ] final  -73.49 input  -57.11 | X-H torsion

> <Gold.Protein.ActiveResidues>
 VAL166  LYS551  ARG553  GLY616  TRP617  ASP618  TYR619  PRO620  LYS621  CYS622 
 ASP623  PHE694  ASN695  SER759  ASP760  ASP761  ALA762  ILE779  LEU786  VAL792 
 PHE793  MET794  SER795  GLU796  ALA797  LYS798  CYS799  TRP800  GLU811  SER814 

> <Gold.Protein.RotatedAtoms>
  150.7381  133.9999  159.3634 H   0  0  0  0  0  0  0  0  0  0  0  0  # atno 6907 bound_to 6896
  151.7953  135.0722  160.0402 H   0  0  0  0  0  0  0  0  0  0  0  0  # atno 6908 bound_to 6896
  152.3179  133.5786  159.5761 H   0  0  0  0  0  0  0  0  0  0  0  0  # atno 6909 bound_to 6896
  144.9025  140.6789  143.5076 H   0  0  0  0  0  0  0  0  0  0  0  0  # atno 7974 bound_to 7965
  155.0635  140.3192  155.4653 H   0  0  0  0  0  0  0  0  0  0  0  0  # atno 8008 bound_to 7997
  156.2807  140.2124  156.5706 H   0  0  0  0  0  0  0  0  0  0  0  0  # atno 8009 bound_to 7997
  154.7113  140.0498  157.0540 H   0  0  0  0  0  0  0  0  0  0  0  0  # atno 8010 bound_to 7997
  139.8284  144.6698  150.9430 H   0  0  0  0  0  0  0  0  0  0  0  0  # atno 10167 bound_to 10162
  156.2194  130.6969  151.0739 H   0  0  0  0  0  0  0  0  0  0  0  0  # atno 10718 bound_to 10713
  154.8736  135.4028  154.3275 H   0  0  0  0  0  0  0  0  0  0  0  0  # atno 10763 bound_to 10752
  153.4094  135.7020  153.6375 H   0  0  0  0  0  0  0  0  0  0  0  0  # atno 10764 bound_to 10752
  153.5084  135.3712  155.2545 H   0  0  0  0  0  0  0  0  0  0  0  0  # atno 10765 bound_to 10752
  141.1623  133.6880  156.7220 H   0  0  0  0  0  0  0  0  0  0  0  0  # atno 11005 bound_to 11000
  145.3592  139.1686  143.4392 LP  0  0  0  0  0  0  0  0  0  0  0  0  # atno 17320 bound_to 7965
  146.3116  140.3653  142.8669 LP  0  0  0  0  0  0  0  0  0  0  0  0  # atno 17321 bound_to 7965
  140.7808  143.4024  151.1127 LP  0  0  0  0  0  0  0  0  0  0  0  0  # atno 17342 bound_to 10162
  139.7680  143.8537  152.3114 LP  0  0  0  0  0  0  0  0  0  0  0  0  # atno 17343 bound_to 10162
  157.7080  131.0747  150.6600 LP  0  0  0  0  0  0  0  0  0  0  0  0  # atno 17370 bound_to 10713
  156.6663  130.4526  149.5671 LP  0  0  0  0  0  0  0  0  0  0  0  0  # atno 17371 bound_to 10713
  140.2809  134.8318  157.3932 LP  0  0  0  0  0  0  0  0  0  0  0  0  # atno 17394 bound_to 11000
  140.1434  134.4942  155.8014 LP  0  0  0  0  0  0  0  0  0  0  0  0  # atno 17395 bound_to 11000

$$$$
