AV-unprocessed.smi:1959|AV-procd|sdf|7912|dock4
  -GOLD-   2272010 73D 1   1.00000     0.00000
 Structure written by MMmdl.
 44 45  0  0  0  0  0  0  0  0  1 V2000
  153.8618  141.5731  161.1894 C   0  0  0  0  0  0  0  0  0  0  0  0
  152.9327  142.5324  160.5067 C   0  0  0  0  0  0  0  0  0  0  0  0
  152.2483  143.6468  161.0666 C   0  0  0  0  0  0  0  0  0  0  0  0
  151.5335  144.1632  160.0228 C   0  0  0  0  0  0  0  0  0  0  0  0
  150.6076  145.3344  159.9820 C   0  0  0  0  0  0  0  0  0  0  0  0
  151.8049  143.3729  158.9187 N   0  0  0  0  0  0  0  0  0  0  0  0
  151.2826  143.4693  157.5618 C   0  0  0  0  0  0  0  0  0  0  0  0
  150.8981  142.0914  157.0181 C   0  0  0  0  0  0  0  0  0  0  0  0
  151.3364  141.0724  157.5506 O   0  0  0  0  0  0  0  0  0  0  0  0
  150.0596  142.0785  155.9705 N   0  0  0  0  0  0  0  0  0  0  0  0
  149.4159  140.8949  155.4101 C   0  0  2  0  0  0  0  0  0  0  0  0
  150.4946  139.9307  154.8919 C   0  0  0  0  0  0  0  0  0  0  0  0
  148.4469  141.3178  154.2839 C   0  0  0  0  0  0  0  0  0  0  0  0
  147.3342  142.1817  154.6891 N   0  0  0  0  0  0  0  0  0  0  0  0
  146.4346  142.5114  153.5841 C   0  0  0  0  0  0  0  0  0  0  0  0
  145.2428  143.3718  154.0369 C   0  0  0  0  0  0  0  0  0  0  0  0
  144.5442  142.7120  155.0864 O   0  0  0  0  0  0  0  0  0  0  0  0
  145.3785  142.4350  156.2059 C   0  0  0  0  0  0  0  0  0  0  0  0
  146.5605  141.5584  155.7582 C   0  0  0  0  0  0  0  0  0  0  0  0
  152.6663  142.3764  159.2208 N   0  0  0  0  0  0  0  0  0  0  0  0
  154.8282  141.5345  160.6860 H   0  0  0  0  0  0  0  0  0  0  0  0
  153.4472  140.5649  161.1958 H   0  0  0  0  0  0  0  0  0  0  0  0
  154.0386  141.8652  162.2246 H   0  0  0  0  0  0  0  0  0  0  0  0
  152.2736  144.0084  162.0838 H   0  0  0  0  0  0  0  0  0  0  0  0
  150.5452  145.8137  160.9592 H   0  0  0  0  0  0  0  0  0  0  0  0
  149.6017  145.0275  159.6967 H   0  0  0  0  0  0  0  0  0  0  0  0
  150.9537  146.0799  159.2662 H   0  0  0  0  0  0  0  0  0  0  0  0
  150.4140  144.1275  157.5483 H   0  0  0  0  0  0  0  0  0  0  0  0
  152.0383  143.9272  156.9216 H   0  0  0  0  0  0  0  0  0  0  0  0
  149.7669  142.9689  155.5955 H   0  0  0  0  0  0  0  0  0  0  0  0
  148.8458  140.3768  156.1838 H   0  0  0  0  0  0  0  0  0  0  0  0
  150.0471  139.0238  154.4843 H   0  0  0  0  0  0  0  0  0  0  0  0
  151.1708  139.6278  155.6921 H   0  0  0  0  0  0  0  0  0  0  0  0
  151.0937  140.3896  154.1046 H   0  0  0  0  0  0  0  0  0  0  0  0
  149.0009  141.7751  153.4622 H   0  0  0  0  0  0  0  0  0  0  0  0
  148.0177  140.4053  153.8679 H   0  0  0  0  0  0  0  0  0  0  0  0
  146.9705  143.0618  152.8128 H   0  0  0  0  0  0  0  0  0  0  0  0
  146.0643  141.5951  153.1217 H   0  0  0  0  0  0  0  0  0  0  0  0
  145.5819  144.3521  154.3753 H   0  0  0  0  0  0  0  0  0  0  0  0
  144.5600  143.5391  153.2037 H   0  0  0  0  0  0  0  0  0  0  0  0
  145.7322  143.3683  156.6469 H   0  0  0  0  0  0  0  0  0  0  0  0
  144.7929  141.9213  156.9683 H   0  0  0  0  0  0  0  0  0  0  0  0
  146.1824  140.5906  155.4249 H   0  0  0  0  0  0  0  0  0  0  0  0
  147.2053  141.3622  156.6155 H   0  0  0  0  0  0  0  0  0  0  0  0
  1  2  1  0  0  0  0
  1 21  1  0  0  0  0
  1 22  1  0  0  0  0
  1 23  1  0  0  0  0
  2 20  2  0  0  0  0
  2  3  1  0  0  0  0
  3  4  2  0  0  0  0
  3 24  1  0  0  0  0
  4  5  1  0  0  0  0
  4  6  1  0  0  0  0
  5 25  1  0  0  0  0
  5 26  1  0  0  0  0
  5 27  1  0  0  0  0
  6  7  1  0  0  0  0
  6 20  1  0  0  0  0
  7  8  1  0  0  0  0
  7 28  1  0  0  0  0
  7 29  1  0  0  0  0
  8  9  2  0  0  0  0
  8 10  1  0  0  0  0
 10 11  1  0  0  0  0
 10 30  1  0  0  0  0
 11 12  1  0  0  0  0
 11 13  1  0  0  0  0
 11 31  1  0  0  0  0
 12 32  1  0  0  0  0
 12 33  1  0  0  0  0
 12 34  1  0  0  0  0
 13 14  1  0  0  0  0
 13 35  1  0  0  0  0
 13 36  1  0  0  0  0
 14 19  1  0  0  0  0
 14 15  1  0  0  0  0
 15 16  1  0  0  0  0
 15 37  1  0  0  0  0
 15 38  1  0  0  0  0
 16 17  1  0  0  0  0
 16 39  1  0  0  0  0
 16 40  1  0  0  0  0
 17 18  1  0  0  0  0
 18 19  1  0  0  0  0
 18 41  1  0  0  0  0
 18 42  1  0  0  0  0
 19 43  1  0  0  0  0
 19 44  1  0  0  0  0
M  END
> <s_m_source_file>
AV-unprocessed.smi

> <i_m_source_file_index>
1959

> <i_lp_mmshare_version>
43012

> <i_f3d_flags>
0

> <s_epik_input>
W0NIM11jMVtjSF1jKFtDSDNdKW4objEpW0NIMl1DKD1PKVtOSF1bQ0BIXShbQ0gzXSlbQ0gyXU4yW0NIMl1bQ0gyXU9bQ0gyXVtDSDJdMg==

> <s_epik_cmdline>
J2VwaWtfcHl0aG9uJywgJy1waCcsICc3LjAnLCAnLXRuJywgJzgnLCAnLW1hJywgJzIwMCcsICctbWV0YWxfYmluZGluZycsICctaW1hZScsICc8aW5maWxlLm1hZT4nLCAnLW9tYWUnLCAnPG91dGZpbGUubWFlPic=

> <r_lp_tautomer_probability>
1

> <r_epik_Ionization_Penalty>
0.197284

> <r_epik_Ionization_Penalty_Charging>
0

> <r_epik_Ionization_Penalty_Neutral>
0.197284

> <r_epik_State_Penalty>
0.186684

> <r_epik_Charging_Adjusted_Penalty>
0.186684

> <i_epik_Tot_Q>
0

> <i_epik_Tot_abs_Q>
0

> <r_epik_Metal_State_Penalty>
0.186639

> <b_epik_Metal_Only>
0

> <s_lp_Force_Field>
OPLS_2005

> <r_lp_Energy>
23.1408

> <b_lp_Chiralities_Consistent>
1

> <s_lp_Variant>
AV-unprocessed.smi:1959-1

> <Gold.Version>
5.8.1

> <Gold.Id.Protein>
6NUR|6NUR_protein|mol2

> <Gold.PLP.Fitness>
48.0981

> <Gold.PLP.PLP>
-46.0126

> <Gold.PLP.part.hbond>
-1.0000

> <Gold.PLP.part.metal>
0.0000

> <Gold.PLP.part.buried>
-7.5352

> <Gold.PLP.part.nonpolar>
-38.8671

> <Gold.PLP.part.repulsive>
1.3640

> <Gold.PLP.ligand.clash>
0.0000

> <Gold.PLP.ligand.torsion>
0.4921

> <Gold.PLP.Chemscore.Hbond>
1.0000

> <Gold.PLP.Chemscore.CHOScore>
0.0000

> <Gold.PLP.Chemscore.Metal>
0.0000

> <Gold.Chemscore.Hbonds>
donor molecule, donor type, donor heavy atom, donor atom, acceptor molecule, acceptor atom, score
      L1  H    10    30       P1  8028  1.00

> <Gold.PLP.Chemscore.Internal.Correction>
0.0697

> <Gold.Rescore>
     Score         DG    S(hbond)    S(metal)    S(lipo)     H(rot)  DE(clash)    DE(int)     intcor
     14.28     -16.42       0.95        0.00     103.35       1.70       0.11       2.03       ----

> <Gold.Chemscore.Fitness>
14.2770

> <Gold.Chemscore.DG>
-16.4196

> <Gold.Chemscore.ZeroCoef>
-5.4800

> <Gold.Chemscore.Hbond>
0.9544

> <Gold.Chemscore.Metal>
0.0000

> <Gold.Chemscore.Lipo>
103.3467

> <Gold.Chemscore.Internal_Hbond>
0.0000

> <Gold.Chemscore.DEClash>
0.1117

> <Gold.Chemscore.DEInternal>
2.0308

> <Gold.Chemscore.Rot>
1.6952

> <Gold.Chemscore.Internal.Correction>
   9.000000E+99

> <Gold.Chemscore.Hbonds>
donor molecule, donor type, donor heavy atom, donor atom, acceptor molecule, acceptor atom, score
      L1  H    10    30       P1  8028  0.97

> <Gold.Chemscore.Hbond.Weighted>
-3.1878

> <Gold.Chemscore.Metal.Weighted>
-0.0000

> <Gold.Chemscore.Lipo.Weighted>
-12.0916

> <Gold.Chemscore.Internal_Hbond.Weighted>
0.0000

> <Gold.Chemscore.DEClash.Weighted>
0.1117

> <Gold.Chemscore.DEInternal.Weighted>
2.0308

> <Gold.Chemscore.Rot.Weighted>
4.3398

> <Gold.Chemscore.Internal.Correction.Weighted>
   9.000000E+99

> <Gold.Protein.RotatedTorsions>
[ 6907 6896 6895 6894 ] final   44.55 input  -60.11 | X-H torsion
[ 7974 7965 7964 7962 ] final  -76.74 input  175.53 | X-H torsion
[ 8008 7997 7996 7995 ] final   26.77 input   59.86 | X-H torsion
[ 10167 10162 10161 10158 ] final   14.44 input  -65.29 | X-H torsion
[ 10718 10713 10712 10709 ] final  108.39 input   66.30 | X-H torsion
[ 10763 10752 10751 10750 ] final  167.00 input  -60.55 | X-H torsion
[ 11005 11000 10999 10996 ] final -131.94 input  -57.11 | X-H torsion

> <Gold.Protein.ActiveResidues>
 VAL166  LYS551  ARG553  GLY616  TRP617  ASP618  TYR619  PRO620  LYS621  CYS622 
 ASP623  PHE694  ASN695  SER759  ASP760  ASP761  ALA762  ILE779  LEU786  VAL792 
 PHE793  MET794  SER795  GLU796  ALA797  LYS798  CYS799  TRP800  GLU811  SER814 

> <Gold.Protein.RotatedAtoms>
  152.2338  134.8296  160.0469 H   0  0  0  0  0  0  0  0  0  0  0  0  # atno 6907 bound_to 6896
  151.9035  133.3538  159.3847 H   0  0  0  0  0  0  0  0  0  0  0  0  # atno 6908 bound_to 6896
  150.7033  134.4730  159.5478 H   0  0  0  0  0  0  0  0  0  0  0  0  # atno 6909 bound_to 6896
  145.6089  140.9391  143.1200 H   0  0  0  0  0  0  0  0  0  0  0  0  # atno 7974 bound_to 7965
  155.0325  140.3160  155.4753 H   0  0  0  0  0  0  0  0  0  0  0  0  # atno 8008 bound_to 7997
  156.2871  140.2177  156.5390 H   0  0  0  0  0  0  0  0  0  0  0  0  # atno 8009 bound_to 7997
  154.7358  140.0477  157.0755 H   0  0  0  0  0  0  0  0  0  0  0  0  # atno 8010 bound_to 7997
  140.5935  143.8748  150.6896 H   0  0  0  0  0  0  0  0  0  0  0  0  # atno 10167 bound_to 10162
  157.6588  131.0892  150.6297 H   0  0  0  0  0  0  0  0  0  0  0  0  # atno 10718 bound_to 10713
  154.3473  135.2753  155.2391 H   0  0  0  0  0  0  0  0  0  0  0  0  # atno 10763 bound_to 10752
  154.4635  135.5901  153.6276 H   0  0  0  0  0  0  0  0  0  0  0  0  # atno 10764 bound_to 10752
  152.9852  135.6071  154.3680 H   0  0  0  0  0  0  0  0  0  0  0  0  # atno 10765 bound_to 10752
  140.9214  134.1439  157.4311 H   0  0  0  0  0  0  0  0  0  0  0  0  # atno 11005 bound_to 11000
  144.7278  139.7820  143.7358 LP  0  0  0  0  0  0  0  0  0  0  0  0  # atno 17320 bound_to 7965
  146.1519  139.4605  143.0043 LP  0  0  0  0  0  0  0  0  0  0  0  0  # atno 17321 bound_to 7965
  140.2276  143.3760  152.1592 LP  0  0  0  0  0  0  0  0  0  0  0  0  # atno 17342 bound_to 10162
  139.5243  144.7082  151.5289 LP  0  0  0  0  0  0  0  0  0  0  0  0  # atno 17343 bound_to 10162
  156.6602  130.4510  149.5690 LP  0  0  0  0  0  0  0  0  0  0  0  0  # atno 17370 bound_to 10713
  156.2073  130.6657  151.1232 LP  0  0  0  0  0  0  0  0  0  0  0  0  # atno 17371 bound_to 10713
  139.8776  134.9973  156.5838 LP  0  0  0  0  0  0  0  0  0  0  0  0  # atno 17394 bound_to 11000
  140.7983  133.8526  155.8704 LP  0  0  0  0  0  0  0  0  0  0  0  0  # atno 17395 bound_to 11000

$$$$
