AV-unprocessed.smi:261|AV-procd|sdf|1989|dock9
  -GOLD-   2262021173D 1   1.00000     0.00000
 Structure written by MMmdl.
 51 54  0  0  0  0  0  0  0  0  1 V2000
  151.9694  144.2237  158.2470 C   0  0  0  0  0  0  0  0  0  0  0  0
  151.7405  142.8615  158.5680 O   0  0  0  0  0  0  0  0  0  0  0  0
  151.7267  142.0065  157.4341 C   0  0  1  0  0  0  0  0  0  0  0  0
  151.5915  140.5238  157.7931 C   0  0  0  0  0  0  0  0  0  0  0  0
  150.9694  139.8817  156.5411 C   0  0  2  0  0  0  0  0  0  0  0  0
  152.0507  139.3868  155.5630 C   0  0  0  0  0  0  0  0  0  0  0  0
  151.6221  138.8368  154.4245 N   0  0  0  0  0  0  0  0  0  0  0  0
  153.2479  139.4861  155.8291 O   0  0  0  0  0  0  0  0  0  0  0  0
  150.1673  140.9654  155.9724 N   0  0  0  0  0  0  0  0  0  0  0  0
  149.1112  140.8011  155.1274 C   0  0  0  0  0  0  0  0  0  0  0  0
  148.3994  141.9075  154.7833 N   0  0  0  0  0  0  0  0  0  0  0  0
  147.3523  141.8208  153.9596 C   0  0  0  0  0  0  0  0  0  0  0  0
  146.8458  140.7394  153.3683 N   0  0  0  0  0  0  0  0  0  0  0  0
  147.5490  139.6209  153.7030 C   0  0  0  0  0  0  0  0  0  0  0  0
  148.6830  139.5581  154.5664 C   0  0  0  0  0  0  0  0  0  0  0  0
  149.1169  138.2385  154.6556 N   0  0  0  0  0  0  0  0  0  0  0  0
  148.2968  137.5685  153.8949 C   0  0  0  0  0  0  0  0  0  0  0  0
  147.3205  138.3209  153.2876 N   0  0  0  0  0  0  0  0  0  0  0  0
  146.2798  137.8345  152.3982 C   0  0  0  0  0  0  0  0  0  0  0  0
  145.3505  136.8116  153.0810 C   0  0  1  0  0  0  0  0  0  0  0  0
  144.3973  137.4932  153.8756 O   0  0  0  0  0  0  0  0  0  0  0  0
  144.6379  135.9042  152.0571 C   0  0  2  0  0  0  0  0  0  0  0  0
  143.6398  134.8746  152.6188 C   0  0  0  0  0  0  0  0  0  0  0  0
  144.1718  133.5450  152.1132 C   0  0  0  0  0  0  0  0  0  0  0  0
  144.9944  133.9514  150.8973 C   0  0  0  0  0  0  0  0  0  0  0  0
  145.6009  135.1631  151.3152 O   0  0  0  0  0  0  0  0  0  0  0  0
  150.4796  142.2530  156.5851 C   0  0  0  0  0  0  0  0  0  0  0  0
  152.6138  142.1643  156.8175 H   0  0  0  0  0  0  0  0  0  0  0  0
  150.3374  139.0492  156.8517 H   0  0  0  0  0  0  0  0  0  0  0  0
  151.9451  144.8205  159.1585 H   0  0  0  0  0  0  0  0  0  0  0  0
  151.1991  144.6057  157.5760 H   0  0  0  0  0  0  0  0  0  0  0  0
  152.9442  144.3687  157.7807 H   0  0  0  0  0  0  0  0  0  0  0  0
  152.5410  140.0735  158.0864 H   0  0  0  0  0  0  0  0  0  0  0  0
  150.9057  140.4114  158.6342 H   0  0  0  0  0  0  0  0  0  0  0  0
  152.2884  138.4889  153.7506 H   0  0  0  0  0  0  0  0  0  0  0  0
  150.6311  138.7649  154.2459 H   0  0  0  0  0  0  0  0  0  0  0  0
  146.8486  142.7515  153.7438 H   0  0  0  0  0  0  0  0  0  0  0  0
  148.3789  136.4999  153.7586 H   0  0  0  0  0  0  0  0  0  0  0  0
  145.7066  138.6853  152.0281 H   0  0  0  0  0  0  0  0  0  0  0  0
  146.7617  137.3848  151.5295 H   0  0  0  0  0  0  0  0  0  0  0  0
  145.9512  136.1865  153.7430 H   0  0  0  0  0  0  0  0  0  0  0  0
  144.2982  138.3691  153.5347 H   0  0  0  0  0  0  0  0  0  0  0  0
  144.1161  136.5320  151.3326 H   0  0  0  0  0  0  0  0  0  0  0  0
  143.5545  134.8876  153.7059 H   0  0  0  0  0  0  0  0  0  0  0  0
  142.6453  135.0642  152.2129 H   0  0  0  0  0  0  0  0  0  0  0  0
  144.8240  133.0976  152.8646 H   0  0  0  0  0  0  0  0  0  0  0  0
  143.3840  132.8294  151.8762 H   0  0  0  0  0  0  0  0  0  0  0  0
  145.7369  133.2030  150.6197 H   0  0  0  0  0  0  0  0  0  0  0  0
  144.3521  134.1404  150.0356 H   0  0  0  0  0  0  0  0  0  0  0  0
  149.6404  142.5591  157.2119 H   0  0  0  0  0  0  0  0  0  0  0  0
  150.6564  143.0315  155.8420 H   0  0  0  0  0  0  0  0  0  0  0  0
  1  2  1  0  0  0  0
  1 30  1  0  0  0  0
  1 31  1  0  0  0  0
  1 32  1  0  0  0  0
  2  3  1  0  0  0  0
  3 28  1  0  0  0  0
  3 27  1  0  0  0  0
  3  4  1  0  0  0  0
  4  5  1  0  0  0  0
  4 33  1  0  0  0  0
  4 34  1  0  0  0  0
  5 29  1  0  0  0  0
  5  6  1  0  0  0  0
  5  9  1  0  0  0  0
  6  7  1  0  0  0  0
  6  8  2  0  0  0  0
  7 35  1  0  0  0  0
  7 36  1  0  0  0  0
  9 10  1  0  0  0  0
  9 27  1  0  0  0  0
 10 15  1  0  0  0  0
 10 11  2  0  0  0  0
 11 12  1  0  0  0  0
 12 13  2  0  0  0  0
 12 37  1  0  0  0  0
 13 14  1  0  0  0  0
 14 18  1  0  0  0  0
 14 15  2  0  0  0  0
 15 16  1  0  0  0  0
 16 17  2  0  0  0  0
 17 18  1  0  0  0  0
 17 38  1  0  0  0  0
 18 19  1  0  0  0  0
 19 20  1  0  0  0  0
 19 39  1  0  0  0  0
 19 40  1  0  0  0  0
 20 21  1  0  0  0  0
 20 22  1  0  0  0  0
 20 41  1  0  0  0  0
 21 42  1  0  0  0  0
 22 26  1  0  0  0  0
 22 23  1  0  0  0  0
 22 43  1  0  0  0  0
 23 24  1  0  0  0  0
 23 44  1  0  0  0  0
 23 45  1  0  0  0  0
 24 25  1  0  0  0  0
 24 46  1  0  0  0  0
 24 47  1  0  0  0  0
 25 26  1  0  0  0  0
 25 48  1  0  0  0  0
 25 49  1  0  0  0  0
 27 50  1  0  0  0  0
 27 51  1  0  0  0  0
M  END
> <s_m_source_file>
AV-unprocessed.smi

> <i_m_source_file_index>
261

> <i_lp_mmshare_version>
43012

> <i_f3d_flags>
0

> <s_epik_input>
W0NIM11PW0NASF0xW0NIMl1bQ0BASF0oQyg9TylbTkgyXSlOKFtDSDJdMSljKG5bY0hdbjIpYyhjMjMpbltjSF1uM1tDSDJdW0NASF0oW09IXSlbQ0BASF00W0NIMl1bQ0gyXVtDSDJdTzQ=

> <s_epik_cmdline>
J2VwaWtfcHl0aG9uJywgJy1waCcsICc3LjAnLCAnLXRuJywgJzgnLCAnLW1hJywgJzIwMCcsICctbWV0YWxfYmluZGluZycsICctaW1hZScsICc8aW5maWxlLm1hZT4nLCAnLW9tYWUnLCAnPG91dGZpbGUubWFlPic=

> <r_lp_tautomer_probability>
1

> <r_epik_Ionization_Penalty>
0.000713824

> <r_epik_Ionization_Penalty_Charging>
0

> <r_epik_Ionization_Penalty_Neutral>
0.000713824

> <r_epik_State_Penalty>
0.000402132

> <r_epik_Charging_Adjusted_Penalty>
0.000402132

> <i_epik_Tot_Q>
0

> <i_epik_Tot_abs_Q>
0

> <r_epik_Metal_State_Penalty>
-0

> <b_epik_Metal_Only>
0

> <s_lp_Force_Field>
OPLS_2005

> <r_lp_Energy>
44.9421

> <b_lp_Chiralities_Consistent>
1

> <s_lp_Variant>
AV-unprocessed.smi:261-7

> <Gold.Version>
5.8.1

> <Gold.Id.Protein>
6NUR|6NUR_protein|mol2

> <Gold.PLP.Fitness>
44.8240

> <Gold.PLP.PLP>
-37.6236

> <Gold.PLP.part.hbond>
-2.2304

> <Gold.PLP.part.metal>
0.0000

> <Gold.PLP.part.buried>
-1.8298

> <Gold.PLP.part.nonpolar>
-35.8684

> <Gold.PLP.part.repulsive>
2.4651

> <Gold.PLP.ligand.clash>
0.0000

> <Gold.PLP.ligand.torsion>
0.2771

> <Gold.PLP.Chemscore.Hbond>
2.0000

> <Gold.PLP.Chemscore.CHOScore>
0.5393

> <Gold.PLP.Chemscore.Metal>
0.0000

> <Gold.Chemscore.Hbonds>
donor molecule, donor type, donor heavy atom, donor atom, acceptor molecule, acceptor atom, score
      L1  H    21    42       P1 10175  0.03
      P1  H  7997  8010       L1     8  0.67
      L1  C    17    38       P1  7948  0.48

> <Gold.PLP.Chemscore.Internal.Correction>
0.1366

> <Gold.Rescore>
     Score         DG    S(hbond)    S(metal)    S(lipo)     H(rot)  DE(clash)    DE(int)     intcor
      8.07     -12.24       2.00        0.00      70.42       3.18       1.66       2.51       ----

> <Gold.Chemscore.Fitness>
8.0697

> <Gold.Chemscore.DG>
-12.2414

> <Gold.Chemscore.ZeroCoef>
-5.4800

> <Gold.Chemscore.Hbond>
1.9974

> <Gold.Chemscore.Metal>
0.0000

> <Gold.Chemscore.Lipo>
70.4172

> <Gold.Chemscore.Internal_Hbond>
0.0000

> <Gold.Chemscore.DEClash>
1.6569

> <Gold.Chemscore.DEInternal>
2.5148

> <Gold.Chemscore.Rot>
3.1831

> <Gold.Chemscore.Internal.Correction>
   9.000000E+99

> <Gold.Chemscore.Hbonds>
donor molecule, donor type, donor heavy atom, donor atom, acceptor molecule, acceptor atom, score
      L1  H    21    42       P1 10175  0.09
      P1  H  7997  8010       L1     8  0.64

> <Gold.Chemscore.Hbond.Weighted>
-6.6712

> <Gold.Chemscore.Metal.Weighted>
-0.0000

> <Gold.Chemscore.Lipo.Weighted>
-8.2388

> <Gold.Chemscore.Internal_Hbond.Weighted>
0.0000

> <Gold.Chemscore.DEClash.Weighted>
1.6569

> <Gold.Chemscore.DEInternal.Weighted>
2.5148

> <Gold.Chemscore.Rot.Weighted>
8.1486

> <Gold.Chemscore.Internal.Correction.Weighted>
   9.000000E+99

> <Gold.Protein.RotatedTorsions>
[ 6907 6896 6895 6894 ] final   75.93 input  -60.11 | X-H torsion
[ 7974 7965 7964 7962 ] final  -28.30 input  175.53 | X-H torsion
[ 8008 7997 7996 7995 ] final   69.65 input   59.86 | X-H torsion
[ 10167 10162 10161 10158 ] final   74.41 input  -65.29 | X-H torsion
[ 10718 10713 10712 10709 ] final  -57.62 input   66.30 | X-H torsion
[ 10763 10752 10751 10750 ] final  118.90 input  -60.55 | X-H torsion
[ 11005 11000 10999 10996 ] final  -44.14 input  -57.11 | X-H torsion

> <Gold.Protein.ActiveResidues>
 VAL166  LYS551  ARG553  GLY616  TRP617  ASP618  TYR619  PRO620  LYS621  CYS622 
 ASP623  PHE694  ASN695  SER759  ASP760  ASP761  ALA762  ILE779  LEU786  VAL792 
 PHE793  MET794  SER795  GLU796  ALA797  LYS798  CYS799  TRP800  GLU811  SER814 

> <Gold.Protein.RotatedAtoms>
  152.5049  134.4046  159.9427 H   0  0  0  0  0  0  0  0  0  0  0  0  # atno 6907 bound_to 6896
  151.4011  133.3751  159.2740 H   0  0  0  0  0  0  0  0  0  0  0  0  # atno 6908 bound_to 6896
  150.9361  134.8794  159.7641 H   0  0  0  0  0  0  0  0  0  0  0  0  # atno 6909 bound_to 6896
  146.1298  140.5264  142.8698 H   0  0  0  0  0  0  0  0  0  0  0  0  # atno 7974 bound_to 7965
  155.7268  140.3492  155.5041 H   0  0  0  0  0  0  0  0  0  0  0  0  # atno 8008 bound_to 7997
  155.9219  140.1068  157.1222 H   0  0  0  0  0  0  0  0  0  0  0  0  # atno 8009 bound_to 7997
  154.4071  140.1248  156.4677 H   0  0  0  0  0  0  0  0  0  0  0  0  # atno 8010 bound_to 7997
  140.0140  144.5592  150.7635 H   0  0  0  0  0  0  0  0  0  0  0  0  # atno 10167 bound_to 10162
  156.1197  130.4167  150.0466 H   0  0  0  0  0  0  0  0  0  0  0  0  # atno 10718 bound_to 10713
  153.5747  135.3495  155.2852 H   0  0  0  0  0  0  0  0  0  0  0  0  # atno 10763 bound_to 10752
  154.8677  135.4168  154.2686 H   0  0  0  0  0  0  0  0  0  0  0  0  # atno 10764 bound_to 10752
  153.3459  135.7052  153.6898 H   0  0  0  0  0  0  0  0  0  0  0  0  # atno 10765 bound_to 10752
  141.0431  133.6772  156.2831 H   0  0  0  0  0  0  0  0  0  0  0  0  # atno 11005 bound_to 11000
  144.7679  140.5571  143.6690 LP  0  0  0  0  0  0  0  0  0  0  0  0  # atno 17320 bound_to 7965
  145.5286  139.1475  143.3512 LP  0  0  0  0  0  0  0  0  0  0  0  0  # atno 17321 bound_to 7965
  140.7370  143.2760  151.3742 LP  0  0  0  0  0  0  0  0  0  0  0  0  # atno 17342 bound_to 10162
  139.6185  144.0954  152.2369 LP  0  0  0  0  0  0  0  0  0  0  0  0  # atno 17343 bound_to 10162
  156.8407  130.9425  151.3632 LP  0  0  0  0  0  0  0  0  0  0  0  0  # atno 17370 bound_to 10713
  157.6380  130.8782  149.9395 LP  0  0  0  0  0  0  0  0  0  0  0  0  # atno 17371 bound_to 10713
  140.6197  134.5374  157.5546 LP  0  0  0  0  0  0  0  0  0  0  0  0  # atno 17394 bound_to 11000
  139.9291  134.7999  156.0983 LP  0  0  0  0  0  0  0  0  0  0  0  0  # atno 17395 bound_to 11000

$$$$
