AV-unprocessed.smi:2164|AV-procd|sdf|8808|dock10
  -GOLD-   2272011593D 1   1.00000     0.00000
 Structure written by MMmdl.
 39 41  0  0  0  0  0  0  0  0  1 V2000
  154.4141  137.8031  159.5346 O   0  0  0  0  0  0  0  0  0  0  0  0
  154.1858  137.9901  160.7310 C   0  0  0  0  0  0  0  0  0  0  0  0
  154.0043  139.2238  161.2357 N   0  0  0  0  0  0  0  0  0  0  0  0
  154.0056  140.4699  160.4721 C   0  0  0  0  0  0  0  0  0  0  0  0
  153.6166  141.6847  161.3371 C   0  0  0  0  0  0  0  0  0  0  0  0
  153.1514  142.8830  160.5279 C   0  0  0  0  0  0  0  0  0  0  0  0
  152.1261  143.7238  161.0076 C   0  0  0  0  0  0  0  0  0  0  0  0
  151.7512  144.8422  160.2385 C   0  0  0  0  0  0  0  0  0  0  0  0
  152.4194  145.0720  159.0192 C   0  0  0  0  0  0  0  0  0  0  0  0
  153.4000  144.2720  158.5481 N   0  0  0  0  0  0  0  0  0  0  0  0
  153.7516  143.2005  159.2904 C   0  0  0  0  0  0  0  0  0  0  0  0
  154.0660  136.9227  161.7263 C   0  0  0  0  0  0  0  0  0  0  0  0
  154.5232  135.6891  161.4395 C   0  0  0  0  0  0  0  0  0  0  0  0
  154.4495  134.6127  162.3259 N   0  0  0  0  0  0  0  0  0  0  0  0
  154.8840  133.3037  161.8531 C   0  0  0  0  0  0  0  0  0  0  0  0
  155.6756  132.5895  162.9364 C   0  0  0  0  0  0  0  0  0  0  0  0
  154.5189  132.3321  164.3356 S   0  0  0  0  0  0  0  0  0  0  0  0
  153.4062  131.4965  163.8580 O   0  0  0  0  0  0  0  0  0  0  0  0
  155.3023  131.8928  165.5001 O   0  0  0  0  0  0  0  0  0  0  0  0
  153.9667  133.8966  164.5780 N   0  0  0  0  0  0  0  0  0  0  0  0
  153.9494  134.7947  163.6403 C   0  0  0  0  0  0  0  0  0  0  0  0
  153.4117  136.1129  163.9370 C   0  0  0  0  0  0  0  0  0  0  0  0
  153.4657  137.1184  163.0393 C   0  0  0  0  0  0  0  0  0  0  0  0
  153.8224  139.3021  162.2256 H   0  0  0  0  0  0  0  0  0  0  0  0
  155.0069  140.6179  160.0672 H   0  0  0  0  0  0  0  0  0  0  0  0
  153.3407  140.3952  159.6100 H   0  0  0  0  0  0  0  0  0  0  0  0
  152.8284  141.3998  162.0351 H   0  0  0  0  0  0  0  0  0  0  0  0
  154.4673  141.9858  161.9492 H   0  0  0  0  0  0  0  0  0  0  0  0
  151.6427  143.5225  161.9524 H   0  0  0  0  0  0  0  0  0  0  0  0
  150.9733  145.5105  160.5767 H   0  0  0  0  0  0  0  0  0  0  0  0
  152.1597  145.9224  158.4060 H   0  0  0  0  0  0  0  0  0  0  0  0
  154.5466  142.5878  158.8915 H   0  0  0  0  0  0  0  0  0  0  0  0
  154.9810  135.4503  160.4896 H   0  0  0  0  0  0  0  0  0  0  0  0
  154.0117  132.7186  161.5599 H   0  0  0  0  0  0  0  0  0  0  0  0
  155.5074  133.4033  160.9638 H   0  0  0  0  0  0  0  0  0  0  0  0
  156.0374  131.6188  162.5983 H   0  0  0  0  0  0  0  0  0  0  0  0
  156.5289  133.1785  163.2746 H   0  0  0  0  0  0  0  0  0  0  0  0
  152.9610  136.3271  164.8952 H   0  0  0  0  0  0  0  0  0  0  0  0
  153.0505  138.0730  163.3271 H   0  0  0  0  0  0  0  0  0  0  0  0
  1  2  2  0  0  0  0
  2  3  1  0  0  0  0
  2 12  1  0  0  0  0
  3  4  1  0  0  0  0
  3 24  1  0  0  0  0
  4  5  1  0  0  0  0
  4 25  1  0  0  0  0
  4 26  1  0  0  0  0
  5  6  1  0  0  0  0
  5 27  1  0  0  0  0
  5 28  1  0  0  0  0
  6 11  1  0  0  0  0
  6  7  2  0  0  0  0
  7  8  1  0  0  0  0
  7 29  1  0  0  0  0
  8  9  2  0  0  0  0
  8 30  1  0  0  0  0
  9 10  1  0  0  0  0
  9 31  1  0  0  0  0
 10 11  2  0  0  0  0
 11 32  1  0  0  0  0
 12 23  1  0  0  0  0
 12 13  2  0  0  0  0
 13 14  1  0  0  0  0
 13 33  1  0  0  0  0
 14 21  1  0  0  0  0
 14 15  1  0  0  0  0
 15 16  1  0  0  0  0
 15 34  1  0  0  0  0
 15 35  1  0  0  0  0
 16 17  1  0  0  0  0
 16 36  1  0  0  0  0
 16 37  1  0  0  0  0
 17 18  2  0  0  0  0
 17 19  2  0  0  0  0
 17 20  1  0  0  0  0
 20 21  2  0  0  0  0
 21 22  1  0  0  0  0
 22 23  2  0  0  0  0
 22 38  1  0  0  0  0
 23 39  1  0  0  0  0
M  END
> <s_m_source_file>
AV-unprocessed.smi

> <i_m_source_file_index>
2164

> <i_lp_mmshare_version>
43012

> <i_f3d_flags>
0

> <s_epik_input>
W0NIMl0xW0NIMl1TKD1PKSg9TylOPUMoTjEyKVtDSF09W0NIXUMoPVtDSF0yKUMoPU8pW05IXVtDSDJdW0NIMl1jM1tjSF1bY0hdW2NIXW5bY0hdMw==

> <s_epik_cmdline>
J2VwaWtfcHl0aG9uJywgJy1waCcsICc3LjAnLCAnLXRuJywgJzgnLCAnLW1hJywgJzIwMCcsICctbWV0YWxfYmluZGluZycsICctaW1hZScsICc8aW5maWxlLm1hZT4nLCAnLW9tYWUnLCAnPG91dGZpbGUubWFlPic=

> <r_epik_Ionization_Penalty>
0.0095026

> <r_epik_Ionization_Penalty_Charging>
4.80604e-09

> <r_epik_Ionization_Penalty_Neutral>
0.00950259

> <r_epik_State_Penalty>
0.0071398

> <r_epik_Charging_Adjusted_Penalty>
0.0071398

> <i_epik_Tot_Q>
0

> <i_epik_Tot_abs_Q>
0

> <r_epik_Metal_State_Penalty>
0.0838865

> <b_epik_Metal_Only>
0

> <s_lp_Force_Field>
OPLS_2005

> <r_lp_Energy>
19.9083

> <b_lp_Chiralities_Consistent>
1

> <s_lp_Variant>
AV-unprocessed.smi:2164-1

> <Gold.Version>
5.8.1

> <Gold.Id.Protein>
6NUR|6NUR_protein|mol2

> <Gold.PLP.Fitness>
48.3677

> <Gold.PLP.PLP>
-49.4772

> <Gold.PLP.part.hbond>
0.0000

> <Gold.PLP.part.metal>
0.0000

> <Gold.PLP.part.buried>
-7.1376

> <Gold.PLP.part.nonpolar>
-42.8136

> <Gold.PLP.part.repulsive>
0.1514

> <Gold.PLP.ligand.clash>
0.0000

> <Gold.PLP.ligand.torsion>
0.5566

> <Gold.PLP.Chemscore.Hbond>
0.0000

> <Gold.PLP.Chemscore.CHOScore>
0.0000

> <Gold.PLP.Chemscore.Metal>
0.0000

> <Gold.PLP.Chemscore.Internal.Correction>
0.0038

> <Gold.Rescore>
     Score         DG    S(hbond)    S(metal)    S(lipo)     H(rot)  DE(clash)    DE(int)     intcor
     15.39     -15.75       0.00        0.00     119.93       1.47       0.04       0.32       ----

> <Gold.Chemscore.Fitness>
15.3902

> <Gold.Chemscore.DG>
-15.7542

> <Gold.Chemscore.ZeroCoef>
-5.4800

> <Gold.Chemscore.Hbond>
0.0000

> <Gold.Chemscore.Metal>
0.0000

> <Gold.Chemscore.Lipo>
119.9317

> <Gold.Chemscore.Internal_Hbond>
0.0000

> <Gold.Chemscore.DEClash>
0.0446

> <Gold.Chemscore.DEInternal>
0.3193

> <Gold.Chemscore.Rot>
1.4679

> <Gold.Chemscore.Internal.Correction>
   9.000000E+99

> <Gold.Chemscore.Hbond.Weighted>
-0.0000

> <Gold.Chemscore.Metal.Weighted>
-0.0000

> <Gold.Chemscore.Lipo.Weighted>
-14.0320

> <Gold.Chemscore.Internal_Hbond.Weighted>
0.0000

> <Gold.Chemscore.DEClash.Weighted>
0.0446

> <Gold.Chemscore.DEInternal.Weighted>
0.3193

> <Gold.Chemscore.Rot.Weighted>
3.7578

> <Gold.Chemscore.Internal.Correction.Weighted>
   9.000000E+99

> <Gold.Protein.RotatedTorsions>
[ 6907 6896 6895 6894 ] final  -87.03 input  -60.11 | X-H torsion
[ 7974 7965 7964 7962 ] final  -53.25 input  175.53 | X-H torsion
[ 8008 7997 7996 7995 ] final   99.84 input   59.86 | X-H torsion
[ 10167 10162 10161 10158 ] final   33.56 input  -65.29 | X-H torsion
[ 10718 10713 10712 10709 ] final  -60.38 input   66.30 | X-H torsion
[ 10763 10752 10751 10750 ] final  170.33 input  -60.55 | X-H torsion
[ 11005 11000 10999 10996 ] final  -93.45 input  -57.11 | X-H torsion

> <Gold.Protein.ActiveResidues>
 VAL166  LYS551  ARG553  GLY616  TRP617  ASP618  TYR619  PRO620  LYS621  CYS622 
 ASP623  PHE694  ASN695  SER759  ASP760  ASP761  ALA762  ILE779  LEU786  VAL792 
 PHE793  MET794  SER795  GLU796  ALA797  LYS798  CYS799  TRP800  GLU811  SER814 

> <Gold.Protein.RotatedAtoms>
  150.6866  134.2959  159.4685 H   0  0  0  0  0  0  0  0  0  0  0  0  # atno 6907 bound_to 6896
  152.0860  134.9437  160.0582 H   0  0  0  0  0  0  0  0  0  0  0  0  # atno 6908 bound_to 6896
  152.0771  133.4100  159.4522 H   0  0  0  0  0  0  0  0  0  0  0  0  # atno 6909 bound_to 6896
  145.8989  140.8010  142.9753 H   0  0  0  0  0  0  0  0  0  0  0  0  # atno 7974 bound_to 7965
  156.1144  140.3222  155.8119 H   0  0  0  0  0  0  0  0  0  0  0  0  # atno 8008 bound_to 7997
  155.4615  140.0540  157.3007 H   0  0  0  0  0  0  0  0  0  0  0  0  # atno 8009 bound_to 7997
  154.4783  140.2042  155.9840 H   0  0  0  0  0  0  0  0  0  0  0  0  # atno 8010 bound_to 7997
  140.4396  144.1207  150.6172 H   0  0  0  0  0  0  0  0  0  0  0  0  # atno 10167 bound_to 10162
  156.0995  130.4188  150.0845 H   0  0  0  0  0  0  0  0  0  0  0  0  # atno 10718 bound_to 10713
  154.3960  135.2754  155.2125 H   0  0  0  0  0  0  0  0  0  0  0  0  # atno 10763 bound_to 10752
  154.4171  135.6009  153.5991 H   0  0  0  0  0  0  0  0  0  0  0  0  # atno 10764 bound_to 10752
  152.9831  135.5963  154.4222 H   0  0  0  0  0  0  0  0  0  0  0  0  # atno 10765 bound_to 10752
  141.1497  133.7889  157.0161 H   0  0  0  0  0  0  0  0  0  0  0  0  # atno 11005 bound_to 11000
  144.6734  140.1646  143.7419 LP  0  0  0  0  0  0  0  0  0  0  0  0  # atno 17320 bound_to 7965
  145.8816  139.2326  143.1602 LP  0  0  0  0  0  0  0  0  0  0  0  0  # atno 17321 bound_to 7965
  140.4334  143.2558  151.9566 LP  0  0  0  0  0  0  0  0  0  0  0  0  # atno 17342 bound_to 10162
  139.4789  144.5723  151.8069 LP  0  0  0  0  0  0  0  0  0  0  0  0  # atno 17343 bound_to 10162
  156.8836  130.9565  151.3596 LP  0  0  0  0  0  0  0  0  0  0  0  0  # atno 17370 bound_to 10713
  157.6162  130.8620  149.9033 LP  0  0  0  0  0  0  0  0  0  0  0  0  # atno 17371 bound_to 10713
  140.0846  134.9628  157.1679 LP  0  0  0  0  0  0  0  0  0  0  0  0  # atno 17394 bound_to 11000
  140.3530  134.2578  155.7196 LP  0  0  0  0  0  0  0  0  0  0  0  0  # atno 17395 bound_to 11000

$$$$
