AV-unprocessed.smi:3338|AV-procd|sdf|12872|dock3
  -GOLD-   2272019273D 1   1.00000     0.00000
 Structure written by MMmdl.
 44 45  0  0  0  0  0  0  0  0  2 V2000
  144.5122  133.4115  149.9574 C   0  0  0  0  0  0  0  0  0  0  0  0
  145.3319  134.4101  150.7864 C   0  0  1  0  0  0  0  0  0  0  0  0
  144.4745  135.6041  151.2378 C   0  0  0  0  0  0  0  0  0  0  0  0
  145.3152  136.5724  152.0789 C   0  0  0  0  0  0  0  0  0  0  0  0
  145.9722  135.8447  153.2625 C   0  0  0  0  0  0  0  0  0  0  0  0
  146.7953  134.6985  152.7969 N   0  3  1  0  0  0  0  0  0  0  0  0
  147.5494  134.0643  153.9076 C   0  0  0  0  0  0  0  0  0  0  0  0
  147.9759  135.0788  154.9864 C   0  0  0  0  0  0  0  0  0  0  0  0
  148.8383  136.1161  154.4336 N   0  0  0  0  0  0  0  0  0  0  0  0
  149.3655  137.1325  155.1358 C   0  0  0  0  0  0  0  0  0  0  0  0
  149.1844  137.2702  156.3464 O   0  0  0  0  0  0  0  0  0  0  0  0
  150.2328  138.1309  154.3485 C   0  0  2  0  0  0  0  0  0  0  0  0
  151.7065  138.1404  154.8039 C   0  0  0  0  0  0  0  0  0  0  0  0
  149.6486  139.4673  154.3871 N   0  0  0  0  0  0  0  0  0  0  0  0
  148.3693  139.8462  154.0337 C   0  0  0  0  0  0  0  0  0  0  0  0
  148.2624  141.1891  154.2562 C   0  0  0  0  0  0  0  0  0  0  0  0
  149.5426  141.5514  154.7593 C   0  0  0  0  0  0  0  0  0  0  0  0
  150.3674  140.5204  154.8414 N   0  0  0  0  0  0  0  0  0  0  0  0
  145.9860  133.7315  152.0068 C   0  0  0  0  0  0  0  0  0  0  0  0
  143.6908  132.9917  150.5388 H   0  0  0  0  0  0  0  0  0  0  0  0
  145.1328  132.5841  149.6120 H   0  0  0  0  0  0  0  0  0  0  0  0
  144.0853  133.8914  149.0762 H   0  0  0  0  0  0  0  0  0  0  0  0
  146.1290  134.7898  150.1453 H   0  0  0  0  0  0  0  0  0  0  0  0
  144.0627  136.1252  150.3727 H   0  0  0  0  0  0  0  0  0  0  0  0
  143.6244  135.2525  151.8245 H   0  0  0  0  0  0  0  0  0  0  0  0
  146.0854  137.0277  151.4547 H   0  0  0  0  0  0  0  0  0  0  0  0
  144.6902  137.3882  152.4432 H   0  0  0  0  0  0  0  0  0  0  0  0
  146.5965  136.5512  153.8111 H   0  0  0  0  0  0  0  0  0  0  0  0
  145.2096  135.4892  153.9573 H   0  0  0  0  0  0  0  0  0  0  0  0
  146.9159  133.3109  154.3779 H   0  0  0  0  0  0  0  0  0  0  0  0
  148.4155  133.5323  153.5108 H   0  0  0  0  0  0  0  0  0  0  0  0
  147.1091  135.5787  155.4168 H   0  0  0  0  0  0  0  0  0  0  0  0
  148.4828  134.5727  155.8099 H   0  0  0  0  0  0  0  0  0  0  0  0
  149.0312  136.0735  153.4430 H   0  0  0  0  0  0  0  0  0  0  0  0
  150.2201  137.8046  153.3074 H   0  0  0  0  0  0  0  0  0  0  0  0
  152.1536  137.1496  154.7159 H   0  0  0  0  0  0  0  0  0  0  0  0
  151.8114  138.4596  155.8416 H   0  0  0  0  0  0  0  0  0  0  0  0
  152.2981  138.8191  154.1890 H   0  0  0  0  0  0  0  0  0  0  0  0
  147.6478  139.1362  153.6566 H   0  0  0  0  0  0  0  0  0  0  0  0
  147.4003  141.8172  154.0872 H   0  0  0  0  0  0  0  0  0  0  0  0
  149.8939  142.5249  155.0683 H   0  0  0  0  0  0  0  0  0  0  0  0
  145.2221  133.2882  152.6483 H   0  0  0  0  0  0  0  0  0  0  0  0
  146.6148  132.9138  151.6571 H   0  0  0  0  0  0  0  0  0  0  0  0
  147.4853  135.0874  152.1701 H   0  0  0  0  0  0  0  0  0  0  0  0
  1  2  1  0  0  0  0
  1 20  1  0  0  0  0
  1 21  1  0  0  0  0
  1 22  1  0  0  0  0
  2 19  1  0  0  0  0
  2  3  1  0  0  0  0
  2 23  1  0  0  0  0
  3  4  1  0  0  0  0
  3 24  1  0  0  0  0
  3 25  1  0  0  0  0
  4  5  1  0  0  0  0
  4 26  1  0  0  0  0
  4 27  1  0  0  0  0
  5  6  1  0  0  0  0
  5 28  1  0  0  0  0
  5 29  1  0  0  0  0
  6  7  1  0  0  0  0
  6 19  1  0  0  0  0
  6 44  1  0  0  0  0
  7  8  1  0  0  0  0
  7 30  1  0  0  0  0
  7 31  1  0  0  0  0
  8  9  1  0  0  0  0
  8 32  1  0  0  0  0
  8 33  1  0  0  0  0
  9 10  1  0  0  0  0
  9 34  1  0  0  0  0
 10 11  2  0  0  0  0
 10 12  1  0  0  0  0
 12 13  1  0  0  0  0
 12 14  1  0  0  0  0
 12 35  1  0  0  0  0
 13 36  1  0  0  0  0
 13 37  1  0  0  0  0
 13 38  1  0  0  0  0
 14 18  1  0  0  0  0
 14 15  1  0  0  0  0
 15 16  2  0  0  0  0
 15 39  1  0  0  0  0
 16 17  1  0  0  0  0
 16 40  1  0  0  0  0
 17 18  2  0  0  0  0
 17 41  1  0  0  0  0
 19 42  1  0  0  0  0
 19 43  1  0  0  0  0
M  CHG  1   6   1
M  END
> <s_m_source_file>
AV-unprocessed.smi

> <i_m_source_file_index>
3338

> <i_lp_mmshare_version>
43012

> <i_f3d_flags>
0

> <s_epik_input>
W0NIM11bQ0BASF0xW0NIMl1bQ0gyXVtDSDJdTihbQ0gyXTEpW0NIMl1bQ0gyXVtOSF1DKD1PKVtDQEhdKFtDSDNdKW4yW2NIXVtjSF1bY0hdbjI=

> <s_epik_cmdline>
J2VwaWtfcHl0aG9uJywgJy1waCcsICc3LjAnLCAnLXRuJywgJzgnLCAnLW1hJywgJzIwMCcsICctbWV0YWxfYmluZGluZycsICctaW1hZScsICc8aW5maWxlLm1hZT4nLCAnLW9tYWUnLCAnPG91dGZpbGUubWFlPic=

> <r_lp_tautomer_probability>
1

> <r_epik_Ionization_Penalty>
0.00225707

> <r_epik_Ionization_Penalty_Charging>
0.00223709

> <r_epik_Ionization_Penalty_Neutral>
1.99775e-05

> <r_epik_State_Penalty>
0.00153978

> <r_epik_Charging_Adjusted_Penalty>
0.00377687

> <i_epik_Tot_Q>
1

> <i_epik_Tot_abs_Q>
1

> <r_epik_Metal_State_Penalty>
-0

> <b_epik_Metal_Only>
0

> <s_lp_Force_Field>
OPLS_2005

> <r_lp_Energy>
19.9397

> <b_lp_Chiralities_Consistent>
1

> <s_lp_Variant>
AV-unprocessed.smi:3338-4

> <Gold.Version>
5.8.1

> <Gold.Id.Protein>
6NUR|6NUR_protein|mol2

> <Gold.PLP.Fitness>
47.2745

> <Gold.PLP.PLP>
-32.7900

> <Gold.PLP.part.hbond>
-3.0000

> <Gold.PLP.part.metal>
0.0000

> <Gold.PLP.part.buried>
-2.6285

> <Gold.PLP.part.nonpolar>
-27.5209

> <Gold.PLP.part.repulsive>
0.1045

> <Gold.PLP.ligand.clash>
0.0000

> <Gold.PLP.ligand.torsion>
0.3013

> <Gold.PLP.Chemscore.Hbond>
3.9920

> <Gold.PLP.Chemscore.CHOScore>
1.0000

> <Gold.PLP.Chemscore.Metal>
0.0000

> <Gold.Chemscore.Hbonds>
donor molecule, donor type, donor heavy atom, donor atom, acceptor molecule, acceptor atom, score
      L1  H     6    44       P1  7948  2.00
      L1  H     9    34       P1  7948  1.00
      P1  H  7989  7998       L1    18  0.98
      L1  C    17    41       P1  8028  1.00

> <Gold.PLP.Chemscore.Internal.Correction>
0.1111

> <Gold.Rescore>
     Score         DG    S(hbond)    S(metal)    S(lipo)     H(rot)  DE(clash)    DE(int)     intcor
     18.10     -18.67       2.72        0.00      73.39       1.76       0.16       0.41       ----

> <Gold.Chemscore.Fitness>
18.0970

> <Gold.Chemscore.DG>
-18.6671

> <Gold.Chemscore.ZeroCoef>
-5.4800

> <Gold.Chemscore.Hbond>
2.7241

> <Gold.Chemscore.Metal>
0.0000

> <Gold.Chemscore.Lipo>
73.3889

> <Gold.Chemscore.Internal_Hbond>
0.0000

> <Gold.Chemscore.DEClash>
0.1567

> <Gold.Chemscore.DEInternal>
0.4134

> <Gold.Chemscore.Rot>
1.7570

> <Gold.Chemscore.Internal.Correction>
   9.000000E+99

> <Gold.Chemscore.Hbonds>
donor molecule, donor type, donor heavy atom, donor atom, acceptor molecule, acceptor atom, score
      L1  H     6    44       P1  7948  0.93
      L1  H     9    34       P1  7948  0.93
      P1  H  7989  7998       L1    18  0.19

> <Gold.Chemscore.Hbond.Weighted>
-9.0984

> <Gold.Chemscore.Metal.Weighted>
-0.0000

> <Gold.Chemscore.Lipo.Weighted>
-8.5865

> <Gold.Chemscore.Internal_Hbond.Weighted>
0.0000

> <Gold.Chemscore.DEClash.Weighted>
0.1567

> <Gold.Chemscore.DEInternal.Weighted>
0.4134

> <Gold.Chemscore.Rot.Weighted>
4.4979

> <Gold.Chemscore.Internal.Correction.Weighted>
   9.000000E+99

> <Gold.Protein.RotatedTorsions>
[ 6907 6896 6895 6894 ] final  132.66 input  -60.11 | X-H torsion
[ 7974 7965 7964 7962 ] final  143.25 input  175.53 | X-H torsion
[ 8008 7997 7996 7995 ] final  -94.92 input   59.86 | X-H torsion
[ 10167 10162 10161 10158 ] final  -14.14 input  -65.29 | X-H torsion
[ 10718 10713 10712 10709 ] final  -82.67 input   66.30 | X-H torsion
[ 10763 10752 10751 10750 ] final  157.18 input  -60.55 | X-H torsion
[ 11005 11000 10999 10996 ] final  -38.79 input  -57.11 | X-H torsion

> <Gold.Protein.ActiveResidues>
 VAL166  LYS551  ARG553  GLY616  TRP617  ASP618  TYR619  PRO620  LYS621  CYS622 
 ASP623  PHE694  ASN695  SER759  ASP760  ASP761  ALA762  ILE779  LEU786  VAL792 
 PHE793  MET794  SER795  GLU796  ALA797  LYS798  CYS799  TRP800  GLU811  SER814 

> <Gold.Protein.RotatedAtoms>
  152.3301  133.5948  159.5803 H   0  0  0  0  0  0  0  0  0  0  0  0  # atno 6907 bound_to 6896
  150.7418  133.9881  159.3607 H   0  0  0  0  0  0  0  0  0  0  0  0  # atno 6908 bound_to 6896
  151.7757  135.0775  160.0417 H   0  0  0  0  0  0  0  0  0  0  0  0  # atno 6909 bound_to 6896
  144.8937  139.5522  143.5786 H   0  0  0  0  0  0  0  0  0  0  0  0  # atno 7974 bound_to 7965
  154.7547  140.0485  157.0923 H   0  0  0  0  0  0  0  0  0  0  0  0  # atno 8008 bound_to 7997
  155.0013  140.3125  155.4847 H   0  0  0  0  0  0  0  0  0  0  0  0  # atno 8009 bound_to 7997
  156.2892  140.2201  156.5123 H   0  0  0  0  0  0  0  0  0  0  0  0  # atno 8010 bound_to 7997
  140.7195  143.5353  150.9472 H   0  0  0  0  0  0  0  0  0  0  0  0  # atno 10167 bound_to 10162
  156.0029  130.4641  150.4140 H   0  0  0  0  0  0  0  0  0  0  0  0  # atno 10718 bound_to 10713
  154.1961  135.2792  155.3006 H   0  0  0  0  0  0  0  0  0  0  0  0  # atno 10763 bound_to 10752
  154.5891  135.5565  153.7263 H   0  0  0  0  0  0  0  0  0  0  0  0  # atno 10764 bound_to 10752
  153.0100  135.6364  154.2100 H   0  0  0  0  0  0  0  0  0  0  0  0  # atno 10765 bound_to 10752
  141.0054  133.6934  156.2100 H   0  0  0  0  0  0  0  0  0  0  0  0  # atno 11005 bound_to 11000
  146.3068  139.7609  142.9050 LP  0  0  0  0  0  0  0  0  0  0  0  0  # atno 17320 bound_to 7965
  145.3738  141.0347  143.3216 LP  0  0  0  0  0  0  0  0  0  0  0  0  # atno 17321 bound_to 7965
  139.9074  143.6761  152.3121 LP  0  0  0  0  0  0  0  0  0  0  0  0  # atno 17342 bound_to 10162
  139.7132  144.7616  151.1077 LP  0  0  0  0  0  0  0  0  0  0  0  0  # atno 17343 bound_to 10162
  157.2200  131.0480  151.2551 LP  0  0  0  0  0  0  0  0  0  0  0  0  # atno 17370 bound_to 10713
  157.3809  130.7231  149.6629 LP  0  0  0  0  0  0  0  0  0  0  0  0  # atno 17371 bound_to 10713
  140.6822  134.4755  157.5589 LP  0  0  0  0  0  0  0  0  0  0  0  0  # atno 17394 bound_to 11000
  139.9060  134.8448  156.1704 LP  0  0  0  0  0  0  0  0  0  0  0  0  # atno 17395 bound_to 11000

$$$$
