AV-unprocessed.smi:1225|AV-procd|sdf|5137|dock1
  -GOLD-   22720 4203D 1   1.00000     0.00000
 Structure written by MMmdl.
 48 50  0  0  0  0  0  0  0  0  1 V2000
  142.8362  146.6873  154.8369 C   0  0  0  0  0  0  0  0  0  0  0  0
  143.7244  145.4906  154.8186 C   0  0  0  0  0  0  0  0  0  0  0  0
  143.9463  144.7178  155.8845 N   0  0  0  0  0  0  0  0  0  0  0  0
  144.8159  143.6612  155.6047 C   0  0  0  0  0  0  0  0  0  0  0  0
  145.2588  143.6366  154.3050 C   0  0  0  0  0  0  0  0  0  0  0  0
  146.1907  142.6496  153.6794 C   0  0  0  0  0  0  0  0  0  0  0  0
  147.1447  142.0673  154.6280 N   0  0  0  0  0  0  0  0  0  0  0  0
  146.4564  141.1508  155.5341 C   0  0  0  0  0  0  0  0  0  0  0  0
  148.2466  141.3835  153.9449 C   0  0  0  0  0  0  0  0  0  0  0  0
  149.3838  140.8758  154.8594 C   0  0  1  0  0  0  0  0  0  0  0  0
  150.2574  140.1153  154.0474 O   0  0  0  0  0  0  0  0  0  0  0  0
  150.1933  141.9713  155.5855 C   0  0  0  0  0  0  0  0  0  0  0  0
  150.9406  141.4614  156.7219 N   0  0  0  0  0  0  0  0  0  0  0  0
  151.4843  140.2364  156.8558 C   0  0  0  0  0  0  0  0  0  0  0  0
  152.1377  139.9804  157.9854 N   0  0  0  0  0  0  0  0  0  0  0  0
  152.0048  141.1806  158.6623 C   0  0  0  0  0  0  0  0  0  0  0  0
  152.4798  141.5739  159.9325 C   0  0  0  0  0  0  0  0  0  0  0  0
  152.2246  142.8710  160.4319 C   0  0  0  0  0  0  0  0  0  0  0  0
  152.7563  143.2516  161.8025 C   0  0  0  0  0  0  0  0  0  0  0  0
  151.4811  143.7973  159.6571 C   0  0  0  0  0  0  0  0  0  0  0  0
  151.1915  145.1951  160.1747 C   0  0  0  0  0  0  0  0  0  0  0  0
  151.0016  143.4213  158.3848 C   0  0  0  0  0  0  0  0  0  0  0  0
  151.2625  142.1280  157.8988 C   0  0  0  0  0  0  0  0  0  0  0  0
  144.5903  144.9579  153.3830 S   0  0  0  0  0  0  0  0  0  0  0  0
  142.2620  146.7257  155.7631 H   0  0  0  0  0  0  0  0  0  0  0  0
  142.1417  146.6494  153.9975 H   0  0  0  0  0  0  0  0  0  0  0  0
  143.4339  147.5953  154.7579 H   0  0  0  0  0  0  0  0  0  0  0  0
  145.0680  142.9670  156.3929 H   0  0  0  0  0  0  0  0  0  0  0  0
  145.6174  141.8541  153.2010 H   0  0  0  0  0  0  0  0  0  0  0  0
  146.7102  143.1509  152.8672 H   0  0  0  0  0  0  0  0  0  0  0  0
  147.1472  140.7468  156.2748 H   0  0  0  0  0  0  0  0  0  0  0  0
  146.0151  140.3148  154.9895 H   0  0  0  0  0  0  0  0  0  0  0  0
  145.6611  141.6574  156.0814 H   0  0  0  0  0  0  0  0  0  0  0  0
  147.8509  140.5008  153.4394 H   0  0  0  0  0  0  0  0  0  0  0  0
  148.6454  142.0124  153.1473 H   0  0  0  0  0  0  0  0  0  0  0  0
  148.9608  140.1949  155.5990 H   0  0  0  0  0  0  0  0  0  0  0  0
  149.7872  139.3629  153.7225 H   0  0  0  0  0  0  0  0  0  0  0  0
  150.8898  142.4523  154.8971 H   0  0  0  0  0  0  0  0  0  0  0  0
  149.5259  142.7459  155.9626 H   0  0  0  0  0  0  0  0  0  0  0  0
  151.3948  139.4897  156.0803 H   0  0  0  0  0  0  0  0  0  0  0  0
  153.0455  140.8680  160.5229 H   0  0  0  0  0  0  0  0  0  0  0  0
  151.9329  143.4571  162.4867 H   0  0  0  0  0  0  0  0  0  0  0  0
  153.3841  144.1405  161.7378 H   0  0  0  0  0  0  0  0  0  0  0  0
  153.3577  142.4502  162.2326 H   0  0  0  0  0  0  0  0  0  0  0  0
  150.5525  145.7496  159.4868 H   0  0  0  0  0  0  0  0  0  0  0  0
  152.1188  145.7551  160.2972 H   0  0  0  0  0  0  0  0  0  0  0  0
  150.6834  145.1504  161.1383 H   0  0  0  0  0  0  0  0  0  0  0  0
  150.4358  144.1170  157.7826 H   0  0  0  0  0  0  0  0  0  0  0  0
  1  2  1  0  0  0  0
  1 25  1  0  0  0  0
  1 26  1  0  0  0  0
  1 27  1  0  0  0  0
  2 24  1  0  0  0  0
  2  3  2  0  0  0  0
  3  4  1  0  0  0  0
  4  5  2  0  0  0  0
  4 28  1  0  0  0  0
  5  6  1  0  0  0  0
  5 24  1  0  0  0  0
  6  7  1  0  0  0  0
  6 29  1  0  0  0  0
  6 30  1  0  0  0  0
  7  8  1  0  0  0  0
  7  9  1  0  0  0  0
  8 31  1  0  0  0  0
  8 32  1  0  0  0  0
  8 33  1  0  0  0  0
  9 10  1  0  0  0  0
  9 34  1  0  0  0  0
  9 35  1  0  0  0  0
 10 11  1  0  0  0  0
 10 12  1  0  0  0  0
 10 36  1  0  0  0  0
 11 37  1  0  0  0  0
 12 13  1  0  0  0  0
 12 38  1  0  0  0  0
 12 39  1  0  0  0  0
 13 23  1  0  0  0  0
 13 14  1  0  0  0  0
 14 15  2  0  0  0  0
 14 40  1  0  0  0  0
 15 16  1  0  0  0  0
 16 23  2  0  0  0  0
 16 17  1  0  0  0  0
 17 18  2  0  0  0  0
 17 41  1  0  0  0  0
 18 19  1  0  0  0  0
 18 20  1  0  0  0  0
 19 42  1  0  0  0  0
 19 43  1  0  0  0  0
 19 44  1  0  0  0  0
 20 21  1  0  0  0  0
 20 22  2  0  0  0  0
 21 45  1  0  0  0  0
 21 46  1  0  0  0  0
 21 47  1  0  0  0  0
 22 23  1  0  0  0  0
 22 48  1  0  0  0  0
M  END
> <s_m_source_file>
AV-unprocessed.smi

> <i_m_source_file_index>
1225

> <i_lp_mmshare_version>
43012

> <i_f3d_flags>
0

> <s_epik_input>
W0NIM11jMW5bY0hdYyhzMSlbQ0gyXU4oW0NIM10pW0NIMl1bQ0BIXShbT0hdKVtDSDJdbihbY0hdbjIpYyhjMjMpW2NIXWMoW0NIM10pYyhbY0hdMylbQ0gzXQ==

> <s_epik_cmdline>
J2VwaWtfcHl0aG9uJywgJy1waCcsICc3LjAnLCAnLXRuJywgJzgnLCAnLW1hJywgJzIwMCcsICctbWV0YWxfYmluZGluZycsICctaW1hZScsICc8aW5maWxlLm1hZT4nLCAnLW9tYWUnLCAnPG91dGZpbGUubWFlPic=

> <r_epik_Ionization_Penalty>
0.12717

> <r_epik_Ionization_Penalty_Charging>
0

> <r_epik_Ionization_Penalty_Neutral>
0.12717

> <r_epik_State_Penalty>
0.11216

> <r_epik_Charging_Adjusted_Penalty>
0.11216

> <i_epik_Tot_Q>
0

> <i_epik_Tot_abs_Q>
0

> <r_epik_Metal_State_Penalty>
0.099641

> <b_epik_Metal_Only>
0

> <s_lp_Force_Field>
OPLS_2005

> <r_lp_Energy>
16.9623

> <b_lp_Chiralities_Consistent>
1

> <s_lp_Variant>
AV-unprocessed.smi:1225-2

> <Gold.Version>
5.8.1

> <Gold.Id.Protein>
6NUR|6NUR_protein|mol2

> <Gold.PLP.Fitness>
58.1127

> <Gold.PLP.PLP>
-56.9274

> <Gold.PLP.part.hbond>
-2.0000

> <Gold.PLP.part.metal>
0.0000

> <Gold.PLP.part.buried>
-7.3110

> <Gold.PLP.part.nonpolar>
-47.5073

> <Gold.PLP.part.repulsive>
0.2208

> <Gold.PLP.ligand.clash>
0.0100

> <Gold.PLP.ligand.torsion>
1.0206

> <Gold.PLP.Chemscore.Hbond>
1.0000

> <Gold.PLP.Chemscore.CHOScore>
0.0000

> <Gold.PLP.Chemscore.Metal>
0.0000

> <Gold.Chemscore.Hbonds>
donor molecule, donor type, donor heavy atom, donor atom, acceptor molecule, acceptor atom, score
      P1  H  7989  7998       L1    11  0.98

> <Gold.PLP.Chemscore.Internal.Correction>
0.2366

> <Gold.Rescore>
     Score         DG    S(hbond)    S(metal)    S(lipo)     H(rot)  DE(clash)    DE(int)     intcor
     17.48     -20.09       0.92        0.00     148.57       2.28       0.79       1.82       ----

> <Gold.Chemscore.Fitness>
17.4803

> <Gold.Chemscore.DG>
-20.0864

> <Gold.Chemscore.ZeroCoef>
-5.4800

> <Gold.Chemscore.Hbond>
0.9197

> <Gold.Chemscore.Metal>
0.0000

> <Gold.Chemscore.Lipo>
148.5691

> <Gold.Chemscore.Internal_Hbond>
0.0000

> <Gold.Chemscore.DEClash>
0.7878

> <Gold.Chemscore.DEInternal>
1.8183

> <Gold.Chemscore.Rot>
2.2844

> <Gold.Chemscore.Internal.Correction>
   9.000000E+99

> <Gold.Chemscore.Hbonds>
donor molecule, donor type, donor heavy atom, donor atom, acceptor molecule, acceptor atom, score
      P1  H  7989  7998       L1    11  0.88

> <Gold.Chemscore.Hbond.Weighted>
-3.0718

> <Gold.Chemscore.Metal.Weighted>
-0.0000

> <Gold.Chemscore.Lipo.Weighted>
-17.3826

> <Gold.Chemscore.Internal_Hbond.Weighted>
0.0000

> <Gold.Chemscore.DEClash.Weighted>
0.7878

> <Gold.Chemscore.DEInternal.Weighted>
1.8183

> <Gold.Chemscore.Rot.Weighted>
5.8480

> <Gold.Chemscore.Internal.Correction.Weighted>
   9.000000E+99

> <Gold.Protein.RotatedTorsions>
[ 6907 6896 6895 6894 ] final -154.08 input  -60.11 | X-H torsion
[ 7974 7965 7964 7962 ] final  -46.26 input  175.53 | X-H torsion
[ 8008 7997 7996 7995 ] final  -55.06 input   59.86 | X-H torsion
[ 10167 10162 10161 10158 ] final  177.79 input  -65.29 | X-H torsion
[ 10718 10713 10712 10709 ] final  -22.31 input   66.30 | X-H torsion
[ 10763 10752 10751 10750 ] final  142.29 input  -60.55 | X-H torsion
[ 11005 11000 10999 10996 ] final  -65.32 input  -57.11 | X-H torsion

> <Gold.Protein.ActiveResidues>
 VAL166  LYS551  ARG553  GLY616  TRP617  ASP618  TYR619  PRO620  LYS621  CYS622 
 ASP623  PHE694  ASN695  SER759  ASP760  ASP761  ALA762  ILE779  LEU786  VAL792 
 PHE793  MET794  SER795  GLU796  ALA797  LYS798  CYS799  TRP800  GLU811  SER814 

> <Gold.Protein.RotatedAtoms>
  151.2522  133.4344  159.2611 H   0  0  0  0  0  0  0  0  0  0  0  0  # atno 6907 bound_to 6896
  151.0607  134.9735  159.8269 H   0  0  0  0  0  0  0  0  0  0  0  0  # atno 6908 bound_to 6896
  152.5398  134.2472  159.8937 H   0  0  0  0  0  0  0  0  0  0  0  0  # atno 6909 bound_to 6896
  145.9737  140.7356  142.9397 H   0  0  0  0  0  0  0  0  0  0  0  0  # atno 7974 bound_to 7965
  154.4182  140.1161  156.5416 H   0  0  0  0  0  0  0  0  0  0  0  0  # atno 8008 bound_to 7997
  155.6502  140.3496  155.4726 H   0  0  0  0  0  0  0  0  0  0  0  0  # atno 8009 bound_to 7997
  155.9799  140.1158  157.0726 H   0  0  0  0  0  0  0  0  0  0  0  0  # atno 8010 bound_to 7997
  139.5267  144.2757  152.0590 H   0  0  0  0  0  0  0  0  0  0  0  0  # atno 10167 bound_to 10162
  156.5063  130.4599  149.6673 H   0  0  0  0  0  0  0  0  0  0  0  0  # atno 10718 bound_to 10713
  153.9533  135.2967  155.3437 H   0  0  0  0  0  0  0  0  0  0  0  0  # atno 10763 bound_to 10752
  154.7414  135.5023  153.9133 H   0  0  0  0  0  0  0  0  0  0  0  0  # atno 10764 bound_to 10752
  153.0983  135.6727  153.9830 H   0  0  0  0  0  0  0  0  0  0  0  0  # atno 10765 bound_to 10752
  141.1451  133.6680  156.5968 H   0  0  0  0  0  0  0  0  0  0  0  0  # atno 11005 bound_to 11000
  144.6843  140.2792  143.7294 LP  0  0  0  0  0  0  0  0  0  0  0  0  # atno 17320 bound_to 7965
  145.7869  139.1912  143.2125 LP  0  0  0  0  0  0  0  0  0  0  0  0  # atno 17321 bound_to 7965
  140.2215  144.4462  150.6340 LP  0  0  0  0  0  0  0  0  0  0  0  0  # atno 17342 bound_to 10162
  140.6416  143.2204  151.6278 LP  0  0  0  0  0  0  0  0  0  0  0  0  # atno 17343 bound_to 10162
  156.3284  130.7318  151.2243 LP  0  0  0  0  0  0  0  0  0  0  0  0  # atno 17370 bound_to 10713
  157.7456  131.0436  150.4754 LP  0  0  0  0  0  0  0  0  0  0  0  0  # atno 17371 bound_to 10713
  140.3719  134.7598  157.4604 LP  0  0  0  0  0  0  0  0  0  0  0  0  # atno 17394 bound_to 11000
  140.0704  134.5871  155.8649 LP  0  0  0  0  0  0  0  0  0  0  0  0  # atno 17395 bound_to 11000

$$$$
