AV-unprocessed.smi:1186|AV-procd|sdf|4975|dock2
  -GOLD-   22720 3573D 1   1.00000     0.00000
 Structure written by MMmdl.
 39 40  0  0  0  0  0  0  0  0  1 V2000
  145.9707  138.8346  154.0342 O   0  0  0  0  0  0  0  0  0  0  0  0
  146.8509  138.1689  153.4888 C   0  0  0  0  0  0  0  0  0  0  0  0
  148.1398  138.5317  153.4334 N   0  0  0  0  0  0  0  0  0  0  0  0
  148.6860  139.7525  154.0186 C   0  0  0  0  0  0  0  0  0  0  0  0
  150.0331  139.5836  154.7101 C   0  0  0  0  0  0  0  0  0  0  0  0
  150.9505  138.5783  154.3348 C   0  0  0  0  0  0  0  0  0  0  0  0
  152.1707  138.4922  155.0297 C   0  0  0  0  0  0  0  0  0  0  0  0
  152.5146  139.3297  156.0297 N   0  0  0  0  0  0  0  0  0  0  0  0
  151.6500  140.3106  156.3887 C   0  0  0  0  0  0  0  0  0  0  0  0
  152.0260  141.1877  157.4288 N   0  0  0  0  0  0  0  0  0  0  0  0
  151.3503  142.4811  157.5107 C   0  0  0  0  0  0  0  0  0  0  0  0
  152.0714  143.3998  158.5114 C   0  0  0  0  0  0  0  0  0  0  0  0
  152.1658  142.7506  159.7748 O   0  0  0  0  0  0  0  0  0  0  0  0
  152.9209  141.5460  159.6958 C   0  0  0  0  0  0  0  0  0  0  0  0
  152.2366  140.5616  158.7316 C   0  0  0  0  0  0  0  0  0  0  0  0
  150.3966  140.4646  155.7493 C   0  0  0  0  0  0  0  0  0  0  0  0
  146.6399  136.9902  152.8881 N   0  0  0  0  0  0  0  0  0  0  0  0
  145.3540  136.3034  152.8221 C   0  0  0  0  0  0  0  0  0  0  0  0
  145.4563  134.9644  152.0724 C   0  0  0  0  0  0  0  0  0  0  0  0
  144.3063  134.3037  152.1990 F   0  0  0  0  0  0  0  0  0  0  0  0
  145.6847  135.1786  150.7765 F   0  0  0  0  0  0  0  0  0  0  0  0
  146.4363  134.2119  152.5719 F   0  0  0  0  0  0  0  0  0  0  0  0
  148.7914  137.9187  152.9659 H   0  0  0  0  0  0  0  0  0  0  0  0
  148.8032  140.4864  153.2212 H   0  0  0  0  0  0  0  0  0  0  0  0
  147.9650  140.1741  154.7212 H   0  0  0  0  0  0  0  0  0  0  0  0
  150.7332  137.8815  153.5392 H   0  0  0  0  0  0  0  0  0  0  0  0
  152.8926  137.7309  154.7731 H   0  0  0  0  0  0  0  0  0  0  0  0
  151.3306  142.9586  156.5301 H   0  0  0  0  0  0  0  0  0  0  0  0
  150.3157  142.3305  157.8222 H   0  0  0  0  0  0  0  0  0  0  0  0
  153.0664  143.6644  158.1502 H   0  0  0  0  0  0  0  0  0  0  0  0
  151.5182  144.3314  158.6309 H   0  0  0  0  0  0  0  0  0  0  0  0
  153.9396  141.7634  159.3703 H   0  0  0  0  0  0  0  0  0  0  0  0
  152.9924  141.1070  160.6909 H   0  0  0  0  0  0  0  0  0  0  0  0
  151.2699  140.2567  159.1346 H   0  0  0  0  0  0  0  0  0  0  0  0
  152.8450  139.6617  158.6535 H   0  0  0  0  0  0  0  0  0  0  0  0
  149.7080  141.2376  156.0570 H   0  0  0  0  0  0  0  0  0  0  0  0
  147.4287  136.5182  152.4711 H   0  0  0  0  0  0  0  0  0  0  0  0
  144.9486  136.1485  153.8234 H   0  0  0  0  0  0  0  0  0  0  0  0
  144.6522  136.9594  152.3065 H   0  0  0  0  0  0  0  0  0  0  0  0
  1  2  2  0  0  0  0
  2  3  1  0  0  0  0
  2 17  1  0  0  0  0
  3  4  1  0  0  0  0
  3 23  1  0  0  0  0
  4  5  1  0  0  0  0
  4 24  1  0  0  0  0
  4 25  1  0  0  0  0
  5 16  1  0  0  0  0
  5  6  2  0  0  0  0
  6  7  1  0  0  0  0
  6 26  1  0  0  0  0
  7  8  2  0  0  0  0
  7 27  1  0  0  0  0
  8  9  1  0  0  0  0
  9 10  1  0  0  0  0
  9 16  2  0  0  0  0
 10 15  1  0  0  0  0
 10 11  1  0  0  0  0
 11 12  1  0  0  0  0
 11 28  1  0  0  0  0
 11 29  1  0  0  0  0
 12 13  1  0  0  0  0
 12 30  1  0  0  0  0
 12 31  1  0  0  0  0
 13 14  1  0  0  0  0
 14 15  1  0  0  0  0
 14 32  1  0  0  0  0
 14 33  1  0  0  0  0
 15 34  1  0  0  0  0
 15 35  1  0  0  0  0
 16 36  1  0  0  0  0
 17 18  1  0  0  0  0
 17 37  1  0  0  0  0
 18 19  1  0  0  0  0
 18 38  1  0  0  0  0
 18 39  1  0  0  0  0
 19 20  1  0  0  0  0
 19 21  1  0  0  0  0
 19 22  1  0  0  0  0
M  END
> <s_m_source_file>
AV-unprocessed.smi

> <i_m_source_file_index>
1186

> <i_lp_mmshare_version>
43012

> <i_f3d_flags>
0

> <s_epik_input>
RkMoRikoRilbQ0gyXVtOSF1DKD1PKVtOSF1bQ0gyXWMxW2NIXVtjSF1uYyhbY0hdMSlOMltDSDJdW0NIMl1PW0NIMl1bQ0gyXTI=

> <s_epik_cmdline>
J2VwaWtfcHl0aG9uJywgJy1waCcsICc3LjAnLCAnLXRuJywgJzgnLCAnLW1hJywgJzIwMCcsICctbWV0YWxfYmluZGluZycsICctaW1hZScsICc8aW5maWxlLm1hZT4nLCAnLW9tYWUnLCAnPG91dGZpbGUubWFlPic=

> <r_lp_tautomer_probability>
1

> <r_epik_Ionization_Penalty>
0.00300827

> <r_epik_Ionization_Penalty_Charging>
0

> <r_epik_Ionization_Penalty_Neutral>
0.00300827

> <r_epik_State_Penalty>
0.0020903

> <r_epik_Charging_Adjusted_Penalty>
0.0020903

> <i_epik_Tot_Q>
0

> <i_epik_Tot_abs_Q>
0

> <r_epik_Metal_State_Penalty>
-0

> <b_epik_Metal_Only>
0

> <s_lp_Force_Field>
OPLS_2005

> <r_lp_Energy>
10.4369

> <b_lp_Chiralities_Consistent>
1

> <s_lp_Variant>
AV-unprocessed.smi:1186-1

> <Gold.Version>
5.8.1

> <Gold.Id.Protein>
6NUR|6NUR_protein|mol2

> <Gold.PLP.Fitness>
46.2398

> <Gold.PLP.PLP>
-38.7954

> <Gold.PLP.part.hbond>
-3.6799

> <Gold.PLP.part.metal>
0.0000

> <Gold.PLP.part.buried>
-3.8601

> <Gold.PLP.part.nonpolar>
-31.5871

> <Gold.PLP.part.repulsive>
0.1768

> <Gold.PLP.ligand.clash>
0.0000

> <Gold.PLP.ligand.torsion>
0.8512

> <Gold.PLP.Chemscore.Hbond>
2.9280

> <Gold.PLP.Chemscore.CHOScore>
0.0000

> <Gold.PLP.Chemscore.Metal>
0.0000

> <Gold.Chemscore.Hbonds>
donor molecule, donor type, donor heavy atom, donor atom, acceptor molecule, acceptor atom, score
      L1  H     3    23       P1  7948  0.91
      L1  H    17    37       P1  7948  1.00
      P1  H  7997  8009       L1     8  1.00

> <Gold.PLP.Chemscore.Internal.Correction>
0.3627

> <Gold.Rescore>
     Score         DG    S(hbond)    S(metal)    S(lipo)     H(rot)  DE(clash)    DE(int)     intcor
     17.31     -18.19       2.67        0.00      78.08       2.09       0.00       0.87       ----

> <Gold.Chemscore.Fitness>
17.3138

> <Gold.Chemscore.DG>
-18.1912

> <Gold.Chemscore.ZeroCoef>
-5.4800

> <Gold.Chemscore.Hbond>
2.6726

> <Gold.Chemscore.Metal>
0.0000

> <Gold.Chemscore.Lipo>
78.0778

> <Gold.Chemscore.Internal_Hbond>
0.0000

> <Gold.Chemscore.DEClash>
0.0048

> <Gold.Chemscore.DEInternal>
0.8727

> <Gold.Chemscore.Rot>
2.0899

> <Gold.Chemscore.Internal.Correction>
   9.000000E+99

> <Gold.Chemscore.Hbonds>
donor molecule, donor type, donor heavy atom, donor atom, acceptor molecule, acceptor atom, score
      L1  H     3    23       P1  7948  0.85
      L1  H    17    37       P1  7948  1.00
      P1  H  7997  8009       L1     8  0.42

> <Gold.Chemscore.Hbond.Weighted>
-8.9264

> <Gold.Chemscore.Metal.Weighted>
-0.0000

> <Gold.Chemscore.Lipo.Weighted>
-9.1351

> <Gold.Chemscore.Internal_Hbond.Weighted>
0.0000

> <Gold.Chemscore.DEClash.Weighted>
0.0048

> <Gold.Chemscore.DEInternal.Weighted>
0.8727

> <Gold.Chemscore.Rot.Weighted>
5.3502

> <Gold.Chemscore.Internal.Correction.Weighted>
   9.000000E+99

> <Gold.Protein.RotatedTorsions>
[ 6907 6896 6895 6894 ] final   36.65 input  -60.11 | X-H torsion
[ 7974 7965 7964 7962 ] final  -79.59 input  175.53 | X-H torsion
[ 8008 7997 7996 7995 ] final -166.91 input   59.86 | X-H torsion
[ 10167 10162 10161 10158 ] final  170.04 input  -65.29 | X-H torsion
[ 10718 10713 10712 10709 ] final -143.82 input   66.30 | X-H torsion
[ 10763 10752 10751 10750 ] final  121.99 input  -60.55 | X-H torsion
[ 11005 11000 10999 10996 ] final  113.63 input  -57.11 | X-H torsion

> <Gold.Protein.ActiveResidues>
 VAL166  LYS551  ARG553  GLY616  TRP617  ASP618  TYR619  PRO620  LYS621  CYS622 
 ASP623  PHE694  ASN695  SER759  ASP760  ASP761  ALA762  ILE779  LEU786  VAL792 
 PHE793  MET794  SER795  GLU796  ALA797  LYS798  CYS799  TRP800  GLU811  SER814 

> <Gold.Protein.RotatedAtoms>
  152.1327  134.9123  160.0557 H   0  0  0  0  0  0  0  0  0  0  0  0  # atno 6907 bound_to 6896
  152.0221  133.3898  159.4271 H   0  0  0  0  0  0  0  0  0  0  0  0  # atno 6908 bound_to 6896
  150.6857  134.3536  159.4963 H   0  0  0  0  0  0  0  0  0  0  0  0  # atno 6909 bound_to 6896
  145.5713  140.9465  143.1394 H   0  0  0  0  0  0  0  0  0  0  0  0  # atno 7974 bound_to 7965
  155.8705  140.0992  157.1554 H   0  0  0  0  0  0  0  0  0  0  0  0  # atno 8008 bound_to 7997
  154.3996  140.1348  156.4135 H   0  0  0  0  0  0  0  0  0  0  0  0  # atno 8009 bound_to 7997
  155.7756  140.3460  155.5272 H   0  0  0  0  0  0  0  0  0  0  0  0  # atno 8010 bound_to 7997
  139.5008  144.3640  151.9795 H   0  0  0  0  0  0  0  0  0  0  0  0  # atno 10167 bound_to 10162
  156.3625  130.7746  151.1915 H   0  0  0  0  0  0  0  0  0  0  0  0  # atno 10718 bound_to 10713
  153.6227  135.3410  155.3016 H   0  0  0  0  0  0  0  0  0  0  0  0  # atno 10763 bound_to 10752
  154.8597  135.4277  154.2190 H   0  0  0  0  0  0  0  0  0  0  0  0  # atno 10764 bound_to 10752
  153.3067  135.7028  153.7226 H   0  0  0  0  0  0  0  0  0  0  0  0  # atno 10765 bound_to 10752
  139.8958  134.9553  156.6769 H   0  0  0  0  0  0  0  0  0  0  0  0  # atno 11005 bound_to 11000
  144.7437  139.7379  143.7301 LP  0  0  0  0  0  0  0  0  0  0  0  0  # atno 17320 bound_to 7965
  146.1782  139.4963  142.9883 LP  0  0  0  0  0  0  0  0  0  0  0  0  # atno 17321 bound_to 7965
  140.3076  144.3575  150.6042 LP  0  0  0  0  0  0  0  0  0  0  0  0  # atno 17342 bound_to 10162
  140.5824  143.2172  151.7404 LP  0  0  0  0  0  0  0  0  0  0  0  0  # atno 17343 bound_to 10162
  157.7475  131.0396  150.4557 LP  0  0  0  0  0  0  0  0  0  0  0  0  # atno 17370 bound_to 10713
  156.4770  130.4065  149.6484 LP  0  0  0  0  0  0  0  0  0  0  0  0  # atno 17371 bound_to 10713
  140.7329  133.9043  155.8224 LP  0  0  0  0  0  0  0  0  0  0  0  0  # atno 17394 bound_to 11000
  141.0138  134.0983  157.4193 LP  0  0  0  0  0  0  0  0  0  0  0  0  # atno 17395 bound_to 11000

$$$$
