AV-unprocessed.smi:2976|AV-procd|sdf|11362|dock10
  -GOLD-   2272016283D 1   1.00000     0.00000
 Structure written by MMmdl.
 40 41  0  0  0  0  0  0  0  0  1 V2000
  152.8001  144.5635  158.3021 C   0  0  0  0  0  0  0  0  0  0  0  0
  151.6573  143.8541  159.0572 C   0  0  1  0  0  0  0  0  0  0  0  0
  150.4782  143.5204  158.1207 C   0  0  0  0  0  0  0  0  0  0  0  0
  150.8014  142.3559  157.1716 C   0  0  0  0  0  0  0  0  0  0  0  0
  151.2385  141.1097  157.9537 C   0  0  0  0  0  0  0  0  0  0  0  0
  152.4251  141.4064  158.8906 C   0  0  2  0  0  0  0  0  0  0  0  0
  152.7348  140.1959  159.6502 N   0  0  0  0  0  0  0  0  0  0  0  0
  153.3267  139.0920  159.1680 C   0  0  0  0  0  0  0  0  0  0  0  0
  153.6594  138.9580  157.9897 O   0  0  0  0  0  0  0  0  0  0  0  0
  153.5692  137.9630  160.1795 C   0  0  0  0  0  0  0  0  0  0  0  0
  154.2375  138.4216  161.4064 N   0  0  0  0  0  0  0  0  0  0  0  0
  154.5092  139.7782  161.4289 N   0  0  0  0  0  0  0  0  0  0  0  0
  155.0873  140.2923  162.4593 C   0  0  0  0  0  0  0  0  0  0  0  0
  155.4702  139.4971  163.6049 C   0  0  0  0  0  0  0  0  0  0  0  0
  156.2437  140.2426  164.9588 Cl  0  0  0  0  0  0  0  0  0  0  0  0
  155.2027  138.1674  163.5711 C   0  0  0  0  0  0  0  0  0  0  0  0
  155.6312  137.1507  164.9041 Cl  0  0  0  0  0  0  0  0  0  0  0  0
  154.5467  137.5460  162.4124 C   0  0  0  0  0  0  0  0  0  0  0  0
  154.2932  136.3427  162.3407 O   0  0  0  0  0  0  0  0  0  0  0  0
  152.1027  142.5907  159.8418 C   0  0  1  0  0  0  0  0  0  0  0  0
  153.2344  142.8940  160.8445 C   0  0  0  0  0  0  0  0  0  0  0  0
  153.2843  143.9094  157.5777 H   0  0  0  0  0  0  0  0  0  0  0  0
  153.5680  144.9251  158.9854 H   0  0  0  0  0  0  0  0  0  0  0  0
  152.4256  145.4319  157.7596 H   0  0  0  0  0  0  0  0  0  0  0  0
  151.2832  144.5739  159.7867 H   0  0  0  0  0  0  0  0  0  0  0  0
  149.6072  143.2562  158.7217 H   0  0  0  0  0  0  0  0  0  0  0  0
  150.1899  144.4012  157.5458 H   0  0  0  0  0  0  0  0  0  0  0  0
  149.9271  142.1216  156.5640 H   0  0  0  0  0  0  0  0  0  0  0  0
  151.5871  142.6479  156.4744 H   0  0  0  0  0  0  0  0  0  0  0  0
  150.3931  140.7384  158.5349 H   0  0  0  0  0  0  0  0  0  0  0  0
  151.5036  140.3151  157.2553 H   0  0  0  0  0  0  0  0  0  0  0  0
  153.2793  141.6786  158.2691 H   0  0  0  0  0  0  0  0  0  0  0  0
  152.4969  140.2082  160.6313 H   0  0  0  0  0  0  0  0  0  0  0  0
  152.6224  137.4829  160.4345 H   0  0  0  0  0  0  0  0  0  0  0  0
  154.1644  137.1926  159.6862 H   0  0  0  0  0  0  0  0  0  0  0  0
  155.3193  141.3555  162.5224 H   0  0  0  0  0  0  0  0  0  0  0  0
  151.2435  142.2879  160.4430 H   0  0  0  0  0  0  0  0  0  0  0  0
  154.1835  143.0698  160.3377 H   0  0  0  0  0  0  0  0  0  0  0  0
  153.3842  142.0680  161.5398 H   0  0  0  0  0  0  0  0  0  0  0  0
  153.0046  143.7763  161.4422 H   0  0  0  0  0  0  0  0  0  0  0  0
  1  2  1  0  0  0  0
  1 22  1  0  0  0  0
  1 23  1  0  0  0  0
  1 24  1  0  0  0  0
  2 20  1  0  0  0  0
  2  3  1  0  0  0  0
  2 25  1  0  0  0  0
  3  4  1  0  0  0  0
  3 26  1  0  0  0  0
  3 27  1  0  0  0  0
  4  5  1  0  0  0  0
  4 28  1  0  0  0  0
  4 29  1  0  0  0  0
  5  6  1  0  0  0  0
  5 30  1  0  0  0  0
  5 31  1  0  0  0  0
  6  7  1  0  0  0  0
  6 20  1  0  0  0  0
  6 32  1  0  0  0  0
  7  8  1  0  0  0  0
  7 33  1  0  0  0  0
  8  9  2  0  0  0  0
  8 10  1  0  0  0  0
 10 11  1  0  0  0  0
 10 34  1  0  0  0  0
 10 35  1  0  0  0  0
 11 18  1  0  0  0  0
 11 12  1  0  0  0  0
 12 13  2  0  0  0  0
 13 14  1  0  0  0  0
 13 36  1  0  0  0  0
 14 15  1  0  0  0  0
 14 16  2  0  0  0  0
 16 17  1  0  0  0  0
 16 18  1  0  0  0  0
 18 19  2  0  0  0  0
 20 21  1  0  0  0  0
 20 37  1  0  0  0  0
 21 38  1  0  0  0  0
 21 39  1  0  0  0  0
 21 40  1  0  0  0  0
M  END
> <s_m_source_file>
AV-unprocessed.smi

> <i_m_source_file_index>
2976

> <i_lp_mmshare_version>
43012

> <i_f3d_flags>
0

> <s_epik_input>
W0NIM11bQ0BASF0xW0NIMl1bQ0gyXVtDSDJdW0NASF0oW0NASF0xW0NIM10pW05IXUMoPU8pW0NIMl1uMm5bY0hdYyhDbCljKENsKWMyPU8=

> <s_epik_cmdline>
J2VwaWtfcHl0aG9uJywgJy1waCcsICc3LjAnLCAnLXRuJywgJzgnLCAnLW1hJywgJzIwMCcsICctbWV0YWxfYmluZGluZycsICctaW1hZScsICc8aW5maWxlLm1hZT4nLCAnLW9tYWUnLCAnPG91dGZpbGUubWFlPic=

> <r_lp_tautomer_probability>
1

> <r_epik_Ionization_Penalty>
1.90777e-08

> <r_epik_Ionization_Penalty_Charging>
3.07942e-11

> <r_epik_Ionization_Penalty_Neutral>
1.90469e-08

> <r_epik_State_Penalty>
-0

> <r_epik_Charging_Adjusted_Penalty>
3.07942e-11

> <i_epik_Tot_Q>
0

> <i_epik_Tot_abs_Q>
0

> <r_epik_Metal_State_Penalty>
-0

> <b_epik_Metal_Only>
0

> <s_lp_Force_Field>
OPLS_2005

> <r_lp_Energy>
28.0936

> <b_lp_Chiralities_Consistent>
1

> <s_lp_Variant>
AV-unprocessed.smi:2976-4

> <Gold.Version>
5.8.1

> <Gold.Id.Protein>
6NUR|6NUR_protein|mol2

> <Gold.PLP.Fitness>
41.3330

> <Gold.PLP.PLP>
-38.8475

> <Gold.PLP.part.hbond>
-1.0000

> <Gold.PLP.part.metal>
0.0000

> <Gold.PLP.part.buried>
-4.1644

> <Gold.PLP.part.nonpolar>
-34.0137

> <Gold.PLP.part.repulsive>
0.1249

> <Gold.PLP.ligand.clash>
0.0000

> <Gold.PLP.ligand.torsion>
0.2598

> <Gold.PLP.Chemscore.Hbond>
1.0000

> <Gold.PLP.Chemscore.CHOScore>
0.0000

> <Gold.PLP.Chemscore.Metal>
0.0000

> <Gold.Chemscore.Hbonds>
donor molecule, donor type, donor heavy atom, donor atom, acceptor molecule, acceptor atom, score
      P1  H  7997  8010       L1     9  1.00

> <Gold.PLP.Chemscore.Internal.Correction>
0.0051

> <Gold.Rescore>
     Score         DG    S(hbond)    S(metal)    S(lipo)     H(rot)  DE(clash)    DE(int)     intcor
     16.72     -19.02       1.00        0.00     119.78       1.49       0.24       2.06       ----

> <Gold.Chemscore.Fitness>
16.7232

> <Gold.Chemscore.DG>
-19.0194

> <Gold.Chemscore.ZeroCoef>
-5.4800

> <Gold.Chemscore.Hbond>
0.9972

> <Gold.Chemscore.Metal>
0.0000

> <Gold.Chemscore.Lipo>
119.7814

> <Gold.Chemscore.Internal_Hbond>
0.0000

> <Gold.Chemscore.DEClash>
0.2357

> <Gold.Chemscore.DEInternal>
2.0606

> <Gold.Chemscore.Rot>
1.4866

> <Gold.Chemscore.Internal.Correction>
   9.000000E+99

> <Gold.Chemscore.Hbonds>
donor molecule, donor type, donor heavy atom, donor atom, acceptor molecule, acceptor atom, score
      P1  H  7997  8010       L1     9  1.00

> <Gold.Chemscore.Hbond.Weighted>
-3.3307

> <Gold.Chemscore.Metal.Weighted>
-0.0000

> <Gold.Chemscore.Lipo.Weighted>
-14.0144

> <Gold.Chemscore.Internal_Hbond.Weighted>
0.0000

> <Gold.Chemscore.DEClash.Weighted>
0.2357

> <Gold.Chemscore.DEInternal.Weighted>
2.0606

> <Gold.Chemscore.Rot.Weighted>
3.8057

> <Gold.Chemscore.Internal.Correction.Weighted>
   9.000000E+99

> <Gold.Protein.RotatedTorsions>
[ 6907 6896 6895 6894 ] final  113.42 input  -60.11 | X-H torsion
[ 7974 7965 7964 7962 ] final  101.01 input  175.53 | X-H torsion
[ 8008 7997 7996 7995 ] final   30.64 input   59.86 | X-H torsion
[ 10167 10162 10161 10158 ] final -127.15 input  -65.29 | X-H torsion
[ 10718 10713 10712 10709 ] final  -18.66 input   66.30 | X-H torsion
[ 10763 10752 10751 10750 ] final  103.93 input  -60.55 | X-H torsion
[ 11005 11000 10999 10996 ] final -143.32 input  -57.11 | X-H torsion

> <Gold.Protein.ActiveResidues>
 VAL166  LYS551  ARG553  GLY616  TRP617  ASP618  TYR619  PRO620  LYS621  CYS622 
 ASP623  PHE694  ASN695  SER759  ASP760  ASP761  ALA762  ILE779  LEU786  VAL792 
 PHE793  MET794  SER795  GLU796  ALA797  LYS798  CYS799  TRP800  GLU811  SER814 

> <Gold.Protein.RotatedAtoms>
  152.4862  133.8379  159.7136 H   0  0  0  0  0  0  0  0  0  0  0  0  # atno 6907 bound_to 6896
  150.8950  133.7183  159.2901 H   0  0  0  0  0  0  0  0  0  0  0  0  # atno 6908 bound_to 6896
  151.4643  135.1045  159.9786 H   0  0  0  0  0  0  0  0  0  0  0  0  # atno 6909 bound_to 6896
  145.3780  139.2385  143.3419 H   0  0  0  0  0  0  0  0  0  0  0  0  # atno 7974 bound_to 7965
  155.0936  140.3222  155.4566 H   0  0  0  0  0  0  0  0  0  0  0  0  # atno 8008 bound_to 7997
  156.2736  140.2073  156.6010 H   0  0  0  0  0  0  0  0  0  0  0  0  # atno 8009 bound_to 7997
  154.6884  140.0519  157.0325 H   0  0  0  0  0  0  0  0  0  0  0  0  # atno 8010 bound_to 7997
  139.9639  143.5920  152.2436 H   0  0  0  0  0  0  0  0  0  0  0  0  # atno 10167 bound_to 10162
  156.5565  130.4715  149.6427 H   0  0  0  0  0  0  0  0  0  0  0  0  # atno 10718 bound_to 10713
  153.3592  135.3960  155.1705 H   0  0  0  0  0  0  0  0  0  0  0  0  # atno 10763 bound_to 10752
  154.8676  135.3675  154.5122 H   0  0  0  0  0  0  0  0  0  0  0  0  # atno 10764 bound_to 10752
  153.5579  135.7081  153.5621 H   0  0  0  0  0  0  0  0  0  0  0  0  # atno 10765 bound_to 10752
  140.8137  134.2713  157.4930 H   0  0  0  0  0  0  0  0  0  0  0  0  # atno 11005 bound_to 11000
  146.2855  140.4442  142.8759 LP  0  0  0  0  0  0  0  0  0  0  0  0  # atno 17320 bound_to 7965
  144.8528  140.7026  143.6157 LP  0  0  0  0  0  0  0  0  0  0  0  0  # atno 17321 bound_to 7965
  139.6533  144.7661  151.2105 LP  0  0  0  0  0  0  0  0  0  0  0  0  # atno 17342 bound_to 10162
  140.7544  143.6126  150.8590 LP  0  0  0  0  0  0  0  0  0  0  0  0  # atno 17343 bound_to 10162
  156.2837  130.7085  151.1916 LP  0  0  0  0  0  0  0  0  0  0  0  0  # atno 17370 bound_to 10713
  157.7377  131.0549  150.5339 LP  0  0  0  0  0  0  0  0  0  0  0  0  # atno 17371 bound_to 10713
  139.8712  134.9497  156.4034 LP  0  0  0  0  0  0  0  0  0  0  0  0  # atno 17394 bound_to 11000
  140.9171  133.7671  155.9861 LP  0  0  0  0  0  0  0  0  0  0  0  0  # atno 17395 bound_to 11000

$$$$
