AV-unprocessed.smi:532|AV-procd|sdf|2852|dock6
  -GOLD-   2262023343D 1   1.00000     0.00000
 Structure written by MMmdl.
 48 50  0  0  0  0  0  0  0  0  2 V2000
  147.5059  132.4409  157.2208 C   0  0  0  0  0  0  0  0  0  0  0  0
  147.9515  133.7793  157.0934 O   0  0  0  0  0  0  0  0  0  0  0  0
  147.2103  134.6752  157.9036 C   0  0  0  0  0  0  0  0  0  0  0  0
  147.5157  136.1110  157.4620 C   0  0  0  0  0  0  0  0  0  0  0  0
  148.6638  136.6558  158.1776 N   0  0  0  0  0  0  0  0  0  0  0  0
  148.7939  136.8964  159.5117 C   0  0  0  0  0  0  0  0  0  0  0  0
  147.7867  136.6094  160.4391 N   0  0  0  0  0  0  0  0  0  0  0  0
  146.6169  137.4763  160.5884 C   0  0  0  0  0  0  0  0  0  0  0  0
  145.3231  136.6863  160.8547 C   0  0  2  0  0  0  0  0  0  0  0  0
  144.1087  137.6194  160.9515 C   0  0  0  0  0  0  0  0  0  0  0  0
  145.4860  135.8428  162.1285 C   0  0  0  0  0  0  0  0  0  0  0  0
  146.7486  134.9682  162.0533 C   0  0  1  0  0  0  0  0  0  0  0  0
  146.5528  133.7338  161.1571 C   0  0  0  0  0  0  0  0  0  0  0  0
  147.9761  135.8262  161.6650 C   0  0  0  0  0  0  0  0  0  0  0  0
  149.9512  137.4651  159.8587 N   0  0  0  0  0  0  0  0  0  0  0  0
  150.6198  137.5844  158.6511 C   0  0  0  0  0  0  0  0  0  0  0  0
  149.8634  137.1160  157.6231 C   0  0  0  0  0  0  0  0  0  0  0  0
  150.2915  137.1512  156.2064 C   0  0  0  0  0  0  0  0  0  0  0  0
  149.5554  136.7472  155.3087 O   0  0  0  0  0  0  0  0  0  0  0  0
  151.5491  137.6759  156.0589 N   0  5  0  0  0  0  0  0  0  0  0  0
  152.3527  138.1515  157.0728 C   0  0  0  0  0  0  0  0  0  0  0  0
  153.4749  138.6092  156.8525 O   0  0  0  0  0  0  0  0  0  0  0  0
  151.9046  138.1220  158.3670 N   0  0  0  0  0  0  0  0  0  0  0  0
  152.7323  138.6321  159.4639 C   0  0  0  0  0  0  0  0  0  0  0  0
  148.1007  131.7941  156.5760 H   0  0  0  0  0  0  0  0  0  0  0  0
  146.4606  132.3429  156.9250 H   0  0  0  0  0  0  0  0  0  0  0  0
  147.6149  132.0857  158.2464 H   0  0  0  0  0  0  0  0  0  0  0  0
  146.1426  134.4705  157.8126 H   0  0  0  0  0  0  0  0  0  0  0  0
  147.4829  134.5408  158.9519 H   0  0  0  0  0  0  0  0  0  0  0  0
  147.6999  136.1392  156.3951 H   0  0  0  0  0  0  0  0  0  0  0  0
  146.6510  136.7558  157.6094 H   0  0  0  0  0  0  0  0  0  0  0  0
  146.8015  138.1887  161.3937 H   0  0  0  0  0  0  0  0  0  0  0  0
  146.4938  138.0652  159.6785 H   0  0  0  0  0  0  0  0  0  0  0  0
  145.1529  136.0172  160.0104 H   0  0  0  0  0  0  0  0  0  0  0  0
  144.2140  138.3231  161.7778 H   0  0  0  0  0  0  0  0  0  0  0  0
  143.1904  137.0534  161.1101 H   0  0  0  0  0  0  0  0  0  0  0  0
  143.9849  138.1978  160.0357 H   0  0  0  0  0  0  0  0  0  0  0  0
  145.5653  136.5066  162.9908 H   0  0  0  0  0  0  0  0  0  0  0  0
  144.6024  135.2265  162.2979 H   0  0  0  0  0  0  0  0  0  0  0  0
  146.9315  134.5828  163.0570 H   0  0  0  0  0  0  0  0  0  0  0  0
  146.3899  134.0093  160.1160 H   0  0  0  0  0  0  0  0  0  0  0  0
  145.6916  133.1488  161.4807 H   0  0  0  0  0  0  0  0  0  0  0  0
  147.4217  133.0771  161.1990 H   0  0  0  0  0  0  0  0  0  0  0  0
  148.8703  135.2083  161.5950 H   0  0  0  0  0  0  0  0  0  0  0  0
  148.1823  136.5304  162.4722 H   0  0  0  0  0  0  0  0  0  0  0  0
  153.6731  138.0828  159.5200 H   0  0  0  0  0  0  0  0  0  0  0  0
  152.2459  138.5439  160.4349 H   0  0  0  0  0  0  0  0  0  0  0  0
  152.9616  139.6873  159.3095 H   0  0  0  0  0  0  0  0  0  0  0  0
  1  2  1  0  0  0  0
  1 25  1  0  0  0  0
  1 26  1  0  0  0  0
  1 27  1  0  0  0  0
  2  3  1  0  0  0  0
  3  4  1  0  0  0  0
  3 28  1  0  0  0  0
  3 29  1  0  0  0  0
  4  5  1  0  0  0  0
  4 30  1  0  0  0  0
  4 31  1  0  0  0  0
  5 17  1  0  0  0  0
  5  6  1  0  0  0  0
  6  7  1  0  0  0  0
  6 15  2  0  0  0  0
  7 14  1  0  0  0  0
  7  8  1  0  0  0  0
  8  9  1  0  0  0  0
  8 32  1  0  0  0  0
  8 33  1  0  0  0  0
  9 10  1  0  0  0  0
  9 11  1  0  0  0  0
  9 34  1  0  0  0  0
 10 35  1  0  0  0  0
 10 36  1  0  0  0  0
 10 37  1  0  0  0  0
 11 12  1  0  0  0  0
 11 38  1  0  0  0  0
 11 39  1  0  0  0  0
 12 13  1  0  0  0  0
 12 14  1  0  0  0  0
 12 40  1  0  0  0  0
 13 41  1  0  0  0  0
 13 42  1  0  0  0  0
 13 43  1  0  0  0  0
 14 44  1  0  0  0  0
 14 45  1  0  0  0  0
 15 16  1  0  0  0  0
 16 23  1  0  0  0  0
 16 17  2  0  0  0  0
 17 18  1  0  0  0  0
 18 19  2  0  0  0  0
 18 20  1  0  0  0  0
 20 21  1  0  0  0  0
 21 22  2  0  0  0  0
 21 23  1  0  0  0  0
 23 24  1  0  0  0  0
 24 46  1  0  0  0  0
 24 47  1  0  0  0  0
 24 48  1  0  0  0  0
M  CHG  1  20  -1
M  END
> <s_m_source_file>
AV-unprocessed.smi

> <i_m_source_file_index>
532

> <i_lp_mmshare_version>
43012

> <i_f3d_flags>
0

> <s_epik_input>
W0NIM11uMWMoPU8pW25IXWMoPU8pYyhjMTIpbihbQ0gyXVtDSDJdT1tDSDNdKWMobjIpTjNbQ0gyXVtDQEBIXShbQ0gzXSlbQ0gyXVtDQEBIXShbQ0gzXSlbQ0gyXTM=

> <s_epik_cmdline>
J2VwaWtfcHl0aG9uJywgJy1waCcsICc3LjAnLCAnLXRuJywgJzgnLCAnLW1hJywgJzIwMCcsICctbWV0YWxfYmluZGluZycsICctaW1hZScsICc8aW5maWxlLm1hZT4nLCAnLW9tYWUnLCAnPG91dGZpbGUubWFlPic=

> <r_lp_tautomer_probability>
1

> <r_epik_Ionization_Penalty>
5.12128

> <r_epik_Ionization_Penalty_Charging>
0.0789629

> <r_epik_Ionization_Penalty_Neutral>
5.04232

> <r_epik_State_Penalty>
5.03111

> <r_epik_Charging_Adjusted_Penalty>
5.11007

> <i_epik_Tot_Q>
-1

> <i_epik_Tot_abs_Q>
1

> <r_epik_Metal_State_Penalty>
1.14201

> <b_epik_Metal_Only>
1

> <s_lp_Force_Field>
OPLS_2005

> <r_lp_Energy>
45.9264

> <b_lp_Chiralities_Consistent>
1

> <s_lp_Variant>
AV-unprocessed.smi:532-5

> <Gold.Version>
5.8.1

> <Gold.Id.Protein>
6NUR|6NUR_protein|mol2

> <Gold.PLP.Fitness>
40.5069

> <Gold.PLP.PLP>
-31.1817

> <Gold.PLP.part.hbond>
-4.0000

> <Gold.PLP.part.metal>
0.0000

> <Gold.PLP.part.buried>
-4.7334

> <Gold.PLP.part.nonpolar>
-22.4303

> <Gold.PLP.part.repulsive>
0.0819

> <Gold.PLP.ligand.clash>
0.0000

> <Gold.PLP.ligand.torsion>
1.4259

> <Gold.PLP.Chemscore.Hbond>
3.9120

> <Gold.PLP.Chemscore.CHOScore>
0.0000

> <Gold.PLP.Chemscore.Metal>
0.0000

> <Gold.Chemscore.Hbonds>
donor molecule, donor type, donor heavy atom, donor atom, acceptor molecule, acceptor atom, score
      P1  H  6931  6943       L1    15  0.02
      P1  H  7997  8008       L1    22  0.83

> <Gold.PLP.Chemscore.Internal.Correction>
0.4410

> <Gold.Rescore>
     Score         DG    S(hbond)    S(metal)    S(lipo)     H(rot)  DE(clash)    DE(int)     intcor
     10.34     -13.23       1.36        0.00      58.34       1.41       1.22       1.67       ----

> <Gold.Chemscore.Fitness>
10.3363

> <Gold.Chemscore.DG>
-13.2256

> <Gold.Chemscore.ZeroCoef>
-5.4800

> <Gold.Chemscore.Hbond>
1.3596

> <Gold.Chemscore.Metal>
0.0000

> <Gold.Chemscore.Lipo>
58.3414

> <Gold.Chemscore.Internal_Hbond>
0.0000

> <Gold.Chemscore.DEClash>
1.2185

> <Gold.Chemscore.DEInternal>
1.6708

> <Gold.Chemscore.Rot>
1.4147

> <Gold.Chemscore.Internal.Correction>
   9.000000E+99

> <Gold.Chemscore.Hbonds>
donor molecule, donor type, donor heavy atom, donor atom, acceptor molecule, acceptor atom, score
      P1  H  7997  8008       L1    22  0.83

> <Gold.Chemscore.Hbond.Weighted>
-4.5412

> <Gold.Chemscore.Metal.Weighted>
-0.0000

> <Gold.Chemscore.Lipo.Weighted>
-6.8259

> <Gold.Chemscore.Internal_Hbond.Weighted>
0.0000

> <Gold.Chemscore.DEClash.Weighted>
1.2185

> <Gold.Chemscore.DEInternal.Weighted>
1.6708

> <Gold.Chemscore.Rot.Weighted>
3.6216

> <Gold.Chemscore.Internal.Correction.Weighted>
   9.000000E+99

> <Gold.Protein.RotatedTorsions>
[ 6907 6896 6895 6894 ] final -133.43 input  -60.11 | X-H torsion
[ 7974 7965 7964 7962 ] final -178.72 input  175.53 | X-H torsion
[ 8008 7997 7996 7995 ] final  -47.46 input   59.86 | X-H torsion
[ 10167 10162 10161 10158 ] final    0.59 input  -65.29 | X-H torsion
[ 10718 10713 10712 10709 ] final  167.56 input   66.30 | X-H torsion
[ 10763 10752 10751 10750 ] final  -34.33 input  -60.55 | X-H torsion
[ 11005 11000 10999 10996 ] final -152.91 input  -57.11 | X-H torsion

> <Gold.Protein.ActiveResidues>
 VAL166  LYS551  ARG553  GLY616  TRP617  ASP618  TYR619  PRO620  LYS621  CYS622 
 ASP623  PHE694  ASN695  SER759  ASP760  ASP761  ALA762  ILE779  LEU786  VAL792 
 PHE793  MET794  SER795  GLU796  ALA797  LYS798  CYS799  TRP800  GLU811  SER814 

> <Gold.Protein.RotatedAtoms>
  150.9740  133.6314  159.2733 H   0  0  0  0  0  0  0  0  0  0  0  0  # atno 6907 bound_to 6896
  151.3593  135.0899  159.9439 H   0  0  0  0  0  0  0  0  0  0  0  0  # atno 6908 bound_to 6896
  152.5193  133.9317  159.7638 H   0  0  0  0  0  0  0  0  0  0  0  0  # atno 6909 bound_to 6896
  144.7132  140.0826  143.6425 H   0  0  0  0  0  0  0  0  0  0  0  0  # atno 7974 bound_to 7965
  154.4017  140.1346  156.4178 H   0  0  0  0  0  0  0  0  0  0  0  0  # atno 8008 bound_to 7997
  155.7671  140.3485  155.5208 H   0  0  0  0  0  0  0  0  0  0  0  0  # atno 8009 bound_to 7997
  155.8802  140.0986  157.1480 H   0  0  0  0  0  0  0  0  0  0  0  0  # atno 8010 bound_to 7997
  140.6722  143.7017  150.7946 H   0  0  0  0  0  0  0  0  0  0  0  0  # atno 10167 bound_to 10162
  157.0498  131.0310  151.2685 H   0  0  0  0  0  0  0  0  0  0  0  0  # atno 10718 bound_to 10713
  153.8449  135.6854  153.4798 H   0  0  0  0  0  0  0  0  0  0  0  0  # atno 10763 bound_to 10752
  153.1431  135.4649  154.9524 H   0  0  0  0  0  0  0  0  0  0  0  0  # atno 10764 bound_to 10752
  154.7828  135.3274  154.7899 H   0  0  0  0  0  0  0  0  0  0  0  0  # atno 10765 bound_to 10752
  140.7138  134.3803  157.5194 H   0  0  0  0  0  0  0  0  0  0  0  0  # atno 11005 bound_to 11000
  145.9689  139.2855  143.1111 LP  0  0  0  0  0  0  0  0  0  0  0  0  # atno 17320 bound_to 7965
  145.9138  140.9162  143.0440 LP  0  0  0  0  0  0  0  0  0  0  0  0  # atno 17321 bound_to 7965
  140.0704  143.5066  152.2582 LP  0  0  0  0  0  0  0  0  0  0  0  0  # atno 17342 bound_to 10162
  139.5996  144.7578  151.3204 LP  0  0  0  0  0  0  0  0  0  0  0  0  # atno 17343 bound_to 10162
  157.5039  130.7897  149.7633 LP  0  0  0  0  0  0  0  0  0  0  0  0  # atno 17370 bound_to 10713
  156.0011  130.3880  150.2602 LP  0  0  0  0  0  0  0  0  0  0  0  0  # atno 17371 bound_to 10713
  139.8865  134.8908  156.2582 LP  0  0  0  0  0  0  0  0  0  0  0  0  # atno 17394 bound_to 11000
  141.0062  133.7122  156.1038 LP  0  0  0  0  0  0  0  0  0  0  0  0  # atno 17395 bound_to 11000

$$$$
