AV-unprocessed.smi:2083|AV-procd|sdf|8501|dock4
  -GOLD-   2272011213D 1   1.00000     0.00000
 Structure written by MMmdl.
 44 45  0  0  0  0  0  0  0  0  3 V2000
  148.6422  133.2124  154.2984 C   0  0  0  0  0  0  0  0  0  0  0  0
  149.5537  133.9973  155.1783 C   0  0  0  0  0  0  0  0  0  0  0  0
  150.5588  134.8839  154.9156 C   0  0  0  0  0  0  0  0  0  0  0  0
  151.0083  135.2586  156.2111 C   0  0  0  0  0  0  0  0  0  0  0  0
  152.0090  136.1106  156.4816 N   0  5  0  0  0  0  0  0  0  0  0  0
  151.9066  136.9767  157.5149 C   0  0  0  0  0  0  0  0  0  0  0  0
  151.7568  136.6846  158.7034 O   0  0  0  0  0  0  0  0  0  0  0  0
  151.9679  138.2635  157.1423 N   0  0  0  0  0  0  0  0  0  0  0  0
  151.8758  139.4280  158.0196 C   0  0  0  0  0  0  0  0  0  0  0  0
  151.7043  140.7562  157.2397 C   0  0  1  0  0  0  0  0  0  0  0  0
  150.4604  140.7046  156.3186 C   0  0  0  0  0  0  0  0  0  0  0  0
  151.7029  141.9012  158.2085 N   0  3  2  0  0  0  0  0  0  0  0  0
  151.3553  143.2415  157.6525 C   0  0  0  0  0  0  0  0  0  0  0  0
  151.2375  144.3009  158.7614 C   0  0  0  0  0  0  0  0  0  0  0  0
  152.5122  144.3720  159.6102 C   0  0  0  0  0  0  0  0  0  0  0  0
  152.8945  142.9831  160.1473 C   0  0  1  0  0  0  0  0  0  0  0  0
  151.9760  142.5024  161.2846 C   0  0  0  0  0  0  0  0  0  0  0  0
  152.9715  141.9671  158.9908 C   0  0  0  0  0  0  0  0  0  0  0  0
  150.3439  134.6433  157.1749 N   0  0  0  0  0  0  0  0  0  0  0  0
  149.4043  133.8373  156.5210 O   0  0  0  0  0  0  0  0  0  0  0  0
  149.2139  132.5763  153.6226 H   0  0  0  0  0  0  0  0  0  0  0  0
  148.0231  133.8767  153.6954 H   0  0  0  0  0  0  0  0  0  0  0  0
  147.9814  132.5736  154.8848 H   0  0  0  0  0  0  0  0  0  0  0  0
  150.9150  135.2133  153.9511 H   0  0  0  0  0  0  0  0  0  0  0  0
  152.0933  138.4463  156.1573 H   0  0  0  0  0  0  0  0  0  0  0  0
  151.0659  139.3124  158.7419 H   0  0  0  0  0  0  0  0  0  0  0  0
  152.7916  139.4357  158.6082 H   0  0  0  0  0  0  0  0  0  0  0  0
  152.5645  140.8816  156.5798 H   0  0  0  0  0  0  0  0  0  0  0  0
  150.5198  139.8782  155.6110 H   0  0  0  0  0  0  0  0  0  0  0  0
  150.3633  141.6018  155.7077 H   0  0  0  0  0  0  0  0  0  0  0  0
  149.5421  140.5751  156.8925 H   0  0  0  0  0  0  0  0  0  0  0  0
  152.1065  143.5412  156.9200 H   0  0  0  0  0  0  0  0  0  0  0  0
  150.3937  143.2141  157.1412 H   0  0  0  0  0  0  0  0  0  0  0  0
  151.0349  145.2770  158.3191 H   0  0  0  0  0  0  0  0  0  0  0  0
  150.3807  144.0728  159.3962 H   0  0  0  0  0  0  0  0  0  0  0  0
  153.3275  144.7577  158.9965 H   0  0  0  0  0  0  0  0  0  0  0  0
  152.3849  145.0804  160.4298 H   0  0  0  0  0  0  0  0  0  0  0  0
  153.8945  143.0672  160.5751 H   0  0  0  0  0  0  0  0  0  0  0  0
  150.9487  142.3617  160.9485 H   0  0  0  0  0  0  0  0  0  0  0  0
  151.9613  143.2194  162.1059 H   0  0  0  0  0  0  0  0  0  0  0  0
  152.3216  141.5501  161.6882 H   0  0  0  0  0  0  0  0  0  0  0  0
  153.2347  140.9910  159.3958 H   0  0  0  0  0  0  0  0  0  0  0  0
  153.7846  142.2430  158.3172 H   0  0  0  0  0  0  0  0  0  0  0  0
  150.9678  141.6901  158.8684 H   0  0  0  0  0  0  0  0  0  0  0  0
  1  2  1  0  0  0  0
  1 21  1  0  0  0  0
  1 22  1  0  0  0  0
  1 23  1  0  0  0  0
  2 20  1  0  0  0  0
  2  3  2  0  0  0  0
  3  4  1  0  0  0  0
  3 24  1  0  0  0  0
  4  5  1  0  0  0  0
  4 19  2  0  0  0  0
  5  6  1  0  0  0  0
  6  7  2  0  0  0  0
  6  8  1  0  0  0  0
  8  9  1  0  0  0  0
  8 25  1  0  0  0  0
  9 10  1  0  0  0  0
  9 26  1  0  0  0  0
  9 27  1  0  0  0  0
 10 11  1  0  0  0  0
 10 12  1  0  0  0  0
 10 28  1  0  0  0  0
 11 29  1  0  0  0  0
 11 30  1  0  0  0  0
 11 31  1  0  0  0  0
 12 18  1  0  0  0  0
 12 13  1  0  0  0  0
 12 44  1  0  0  0  0
 13 14  1  0  0  0  0
 13 32  1  0  0  0  0
 13 33  1  0  0  0  0
 14 15  1  0  0  0  0
 14 34  1  0  0  0  0
 14 35  1  0  0  0  0
 15 16  1  0  0  0  0
 15 36  1  0  0  0  0
 15 37  1  0  0  0  0
 16 17  1  0  0  0  0
 16 18  1  0  0  0  0
 16 38  1  0  0  0  0
 17 39  1  0  0  0  0
 17 40  1  0  0  0  0
 17 41  1  0  0  0  0
 18 42  1  0  0  0  0
 18 43  1  0  0  0  0
 19 20  1  0  0  0  0
M  CHG  1   5  -1
M  CHG  1  12   1
M  END
> <s_m_source_file>
AV-unprocessed.smi

> <i_m_source_file_index>
2083

> <i_lp_mmshare_version>
43012

> <i_f3d_flags>
0

> <s_epik_input>
W0NIM11jMVtjSF1jKG5vMSlbTkhdQyg9TylbTkhdW0NIMl1bQ0BIXShbQ0gzXSlOMltDSDJdW0NIMl1bQ0gyXVtDQEBIXShbQ0gzXSlbQ0gyXTI=

> <s_epik_cmdline>
J2VwaWtfcHl0aG9uJywgJy1waCcsICc3LjAnLCAnLXRuJywgJzgnLCAnLW1hJywgJzIwMCcsICctbWV0YWxfYmluZGluZycsICctaW1hZScsICc8aW5maWxlLm1hZT4nLCAnLW9tYWUnLCAnPG91dGZpbGUubWFlPic=

> <r_epik_Ionization_Penalty>
6.22434

> <r_epik_Ionization_Penalty_Charging>
6.22425

> <r_epik_Ionization_Penalty_Neutral>
9.62407e-05

> <r_epik_State_Penalty>
6.22423

> <r_epik_Charging_Adjusted_Penalty>
12.4485

> <i_epik_Tot_Q>
0

> <i_epik_Tot_abs_Q>
2

> <r_epik_Metal_State_Penalty>
2.16764

> <b_epik_Metal_Only>
1

> <s_lp_Force_Field>
OPLS_2005

> <r_lp_Energy>
14.1674

> <b_lp_Chiralities_Consistent>
1

> <s_lp_Variant>
AV-unprocessed.smi:2083-12

> <Gold.Version>
5.8.1

> <Gold.Id.Protein>
6NUR|6NUR_protein|mol2

> <Gold.PLP.Fitness>
42.1360

> <Gold.PLP.PLP>
-33.9369

> <Gold.PLP.part.hbond>
-3.0000

> <Gold.PLP.part.metal>
0.0000

> <Gold.PLP.part.buried>
-5.1211

> <Gold.PLP.part.nonpolar>
-27.5696

> <Gold.PLP.part.repulsive>
0.1390

> <Gold.PLP.ligand.clash>
0.0000

> <Gold.PLP.ligand.torsion>
1.0029

> <Gold.PLP.Chemscore.Hbond>
3.3440

> <Gold.PLP.Chemscore.CHOScore>
0.0000

> <Gold.PLP.Chemscore.Metal>
0.0000

> <Gold.Chemscore.Hbonds>
donor molecule, donor type, donor heavy atom, donor atom, acceptor molecule, acceptor atom, score
      P1  H  6896  6907       L1    19  0.25
      P1  H  6896  6908       L1     7  0.77
      P1  H 10752 10765       L1     5  1.70

> <Gold.PLP.Chemscore.Internal.Correction>
0.1729

> <Gold.Rescore>
     Score         DG    S(hbond)    S(metal)    S(lipo)     H(rot)  DE(clash)    DE(int)     intcor
     17.24     -19.50       1.94        0.00      97.73       1.52       0.04       2.22       ----

> <Gold.Chemscore.Fitness>
17.2376

> <Gold.Chemscore.DG>
-19.4966

> <Gold.Chemscore.ZeroCoef>
-5.4800

> <Gold.Chemscore.Hbond>
1.9375

> <Gold.Chemscore.Metal>
0.0000

> <Gold.Chemscore.Lipo>
97.7250

> <Gold.Chemscore.Internal_Hbond>
0.0000

> <Gold.Chemscore.DEClash>
0.0381

> <Gold.Chemscore.DEInternal>
2.2209

> <Gold.Chemscore.Rot>
1.5190

> <Gold.Chemscore.Internal.Correction>
   9.000000E+99

> <Gold.Chemscore.Hbonds>
donor molecule, donor type, donor heavy atom, donor atom, acceptor molecule, acceptor atom, score
      P1  H  6896  6907       L1    19  0.19
      P1  H  6896  6908       L1     7  0.74
      P1  H 10752 10765       L1     5  0.15

> <Gold.Chemscore.Hbond.Weighted>
-6.4714

> <Gold.Chemscore.Metal.Weighted>
-0.0000

> <Gold.Chemscore.Lipo.Weighted>
-11.4338

> <Gold.Chemscore.Internal_Hbond.Weighted>
0.0000

> <Gold.Chemscore.DEClash.Weighted>
0.0381

> <Gold.Chemscore.DEInternal.Weighted>
2.2209

> <Gold.Chemscore.Rot.Weighted>
3.8886

> <Gold.Chemscore.Internal.Correction.Weighted>
   9.000000E+99

> <Gold.Protein.RotatedTorsions>
[ 6907 6896 6895 6894 ] final -117.46 input  -60.11 | X-H torsion
[ 7974 7965 7964 7962 ] final -126.85 input  175.53 | X-H torsion
[ 8008 7997 7996 7995 ] final -149.58 input   59.86 | X-H torsion
[ 10167 10162 10161 10158 ] final -179.26 input  -65.29 | X-H torsion
[ 10718 10713 10712 10709 ] final  135.03 input   66.30 | X-H torsion
[ 10763 10752 10751 10750 ] final -142.16 input  -60.55 | X-H torsion
[ 11005 11000 10999 10996 ] final -101.47 input  -57.11 | X-H torsion

> <Gold.Protein.ActiveResidues>
 VAL166  LYS551  ARG553  GLY616  TRP617  ASP618  TYR619  PRO620  LYS621  CYS622 
 ASP623  PHE694  ASN695  SER759  ASP760  ASP761  ALA762  ILE779  LEU786  VAL792 
 PHE793  MET794  SER795  GLU796  ALA797  LYS798  CYS799  TRP800  GLU811  SER814 

> <Gold.Protein.RotatedAtoms>
  150.8139  133.8373  159.3169 H   0  0  0  0  0  0  0  0  0  0  0  0  # atno 6907 bound_to 6896
  151.6150  135.1035  160.0099 H   0  0  0  0  0  0  0  0  0  0  0  0  # atno 6908 bound_to 6896
  152.4230  133.7108  159.6534 H   0  0  0  0  0  0  0  0  0  0  0  0  # atno 6909 bound_to 6896
  144.9831  140.7659  143.4600 H   0  0  0  0  0  0  0  0  0  0  0  0  # atno 7974 bound_to 7965
  155.6098  140.0670  157.2709 H   0  0  0  0  0  0  0  0  0  0  0  0  # atno 8008 bound_to 7997
  154.4256  140.1803  156.1308 H   0  0  0  0  0  0  0  0  0  0  0  0  # atno 8009 bound_to 7997
  156.0094  140.3328  155.6928 H   0  0  0  0  0  0  0  0  0  0  0  0  # atno 8010 bound_to 7997
  139.5394  144.2404  152.0864 H   0  0  0  0  0  0  0  0  0  0  0  0  # atno 10167 bound_to 10162
  157.4612  131.1073  150.9918 H   0  0  0  0  0  0  0  0  0  0  0  0  # atno 10718 bound_to 10713
  154.8519  135.3504  154.5983 H   0  0  0  0  0  0  0  0  0  0  0  0  # atno 10763 bound_to 10752
  153.6592  135.6990  153.5187 H   0  0  0  0  0  0  0  0  0  0  0  0  # atno 10764 bound_to 10752
  153.2831  135.4257  155.1055 H   0  0  0  0  0  0  0  0  0  0  0  0  # atno 10765 bound_to 10752
  141.1229  133.8481  157.1236 H   0  0  0  0  0  0  0  0  0  0  0  0  # atno 11005 bound_to 11000
  145.2393  139.2080  143.5001 LP  0  0  0  0  0  0  0  0  0  0  0  0  # atno 17320 bound_to 7965
  146.3413  140.2285  142.8593 LP  0  0  0  0  0  0  0  0  0  0  0  0  # atno 17321 bound_to 7965
  140.1880  144.4779  150.6493 LP  0  0  0  0  0  0  0  0  0  0  0  0  # atno 17342 bound_to 10162
  140.6617  143.2254  151.5839 LP  0  0  0  0  0  0  0  0  0  0  0  0  # atno 17343 bound_to 10162
  157.0714  130.5866  149.5403 LP  0  0  0  0  0  0  0  0  0  0  0  0  # atno 17370 bound_to 10713
  156.0029  130.5112  150.7729 LP  0  0  0  0  0  0  0  0  0  0  0  0  # atno 17371 bound_to 10713
  140.0202  134.9949  157.0576 LP  0  0  0  0  0  0  0  0  0  0  0  0  # atno 17394 bound_to 11000
  140.4452  134.1639  155.7177 LP  0  0  0  0  0  0  0  0  0  0  0  0  # atno 17395 bound_to 11000

$$$$
