AV-unprocessed.smi:157|AV-procd|sdf|1293|dock8
  -GOLD-   2262018573D 1   1.00000     0.00000
 Structure written by MMmdl.
 35 37  0  0  0  0  0  0  0  0  1 V2000
  153.3198  138.7446  155.4999 O   0  0  0  0  0  0  0  0  0  0  0  0
  152.2032  138.4252  154.6973 C   0  0  0  0  0  0  0  0  0  0  0  0
  150.9449  139.1091  155.2522 C   0  0  1  0  0  0  0  0  0  0  0  0
  151.1614  140.5142  155.3459 O   0  0  0  0  0  0  0  0  0  0  0  0
  149.9450  141.1966  155.2535 C   0  0  2  0  0  0  0  0  0  0  0  0
  149.5987  141.7576  156.6001 N   0  0  0  0  0  0  0  0  0  0  0  0
  148.4985  141.4987  157.3207 C   0  0  0  0  0  0  0  0  0  0  0  0
  148.4407  142.1293  158.4813 N   0  0  0  0  0  0  0  0  0  0  0  0
  149.6159  142.8770  158.5164 C   0  0  0  0  0  0  0  0  0  0  0  0
  150.3446  142.6682  157.3543 C   0  0  0  0  0  0  0  0  0  0  0  0
  151.5435  143.1181  156.8347 N   0  0  0  0  0  0  0  0  0  0  0  0
  152.0711  144.1838  157.3497 C   0  0  0  0  0  0  0  0  0  0  0  0
  151.6759  144.9438  158.4413 N   0  0  0  0  0  0  0  0  0  0  0  0
  151.3061  144.3733  159.7254 C   0  0  0  0  0  0  0  0  0  0  0  0
  149.9229  143.7124  159.7250 C   0  0  1  0  0  0  0  0  0  0  0  0
  148.9260  144.7108  159.8012 O   0  0  0  0  0  0  0  0  0  0  0  0
  148.8841  140.1783  154.8228 C   0  0  0  0  0  0  0  0  0  0  0  0
  149.7385  139.0343  154.3147 C   0  0  2  0  0  0  0  0  0  0  0  0
  149.0491  137.8054  154.4170 O   0  0  0  0  0  0  0  0  0  0  0  0
  150.6760  138.7120  156.2331 H   0  0  0  0  0  0  0  0  0  0  0  0
  150.0435  142.0555  154.5889 H   0  0  0  0  0  0  0  0  0  0  0  0
  149.8310  143.1056  160.6266 H   0  0  0  0  0  0  0  0  0  0  0  0
  150.0392  139.2163  153.2819 H   0  0  0  0  0  0  0  0  0  0  0  0
  153.8844  137.9881  155.5438 H   0  0  0  0  0  0  0  0  0  0  0  0
  152.3850  138.7100  153.6606 H   0  0  0  0  0  0  0  0  0  0  0  0
  152.0830  137.3418  154.7197 H   0  0  0  0  0  0  0  0  0  0  0  0
  147.7188  140.8282  156.9910 H   0  0  0  0  0  0  0  0  0  0  0  0
  152.9763  144.5848  156.8917 H   0  0  0  0  0  0  0  0  0  0  0  0
  152.0704  145.8666  158.5521 H   0  0  0  0  0  0  0  0  0  0  0  0
  152.0557  143.6206  159.9743 H   0  0  0  0  0  0  0  0  0  0  0  0
  151.3709  145.1358  160.5021 H   0  0  0  0  0  0  0  0  0  0  0  0
  148.7170  144.9852  158.9212 H   0  0  0  0  0  0  0  0  0  0  0  0
  148.2925  139.8709  155.6876 H   0  0  0  0  0  0  0  0  0  0  0  0
  148.2181  140.5980  154.0684 H   0  0  0  0  0  0  0  0  0  0  0  0
  149.1245  137.3492  153.5927 H   0  0  0  0  0  0  0  0  0  0  0  0
  1  2  1  0  0  0  0
  1 24  1  0  0  0  0
  2  3  1  0  0  0  0
  2 25  1  0  0  0  0
  2 26  1  0  0  0  0
  3 20  1  0  0  0  0
  3 18  1  0  0  0  0
  3  4  1  0  0  0  0
  4  5  1  0  0  0  0
  5 21  1  0  0  0  0
  5  6  1  0  0  0  0
  5 17  1  0  0  0  0
  6 10  1  0  0  0  0
  6  7  1  0  0  0  0
  7  8  2  0  0  0  0
  7 27  1  0  0  0  0
  8  9  1  0  0  0  0
  9 15  1  0  0  0  0
  9 10  2  0  0  0  0
 10 11  1  0  0  0  0
 11 12  2  0  0  0  0
 12 13  1  0  0  0  0
 12 28  1  0  0  0  0
 13 14  1  0  0  0  0
 13 29  1  0  0  0  0
 14 15  1  0  0  0  0
 14 30  1  0  0  0  0
 14 31  1  0  0  0  0
 15 22  1  0  0  0  0
 15 16  1  0  0  0  0
 16 32  1  0  0  0  0
 17 18  1  0  0  0  0
 17 33  1  0  0  0  0
 17 34  1  0  0  0  0
 18 23  1  0  0  0  0
 18 19  1  0  0  0  0
 19 35  1  0  0  0  0
M  END
> <s_m_source_file>
AV-unprocessed.smi

> <i_m_source_file_index>
157

> <i_lp_mmshare_version>
43012

> <i_f3d_flags>
0

> <s_epik_input>
W09IXVtDSDJdW0NASF0xT1tDQEhdKFtDSDJdW0NAQEhdMVtPSF0pbihbY0hdbjIpYyhjMjMpTj1bQ0hdW05IXVtDSDJdW0NASF0zW09IXQ==

> <s_epik_cmdline>
J2VwaWtfcHl0aG9uJywgJy1waCcsICc3LjAnLCAnLXRuJywgJzgnLCAnLW1hJywgJzIwMCcsICctbWV0YWxfYmluZGluZycsICctaW1hZScsICc8aW5maWxlLm1hZT4nLCAnLW9tYWUnLCAnPG91dGZpbGUubWFlPic=

> <r_lp_tautomer_probability>
1

> <r_epik_Ionization_Penalty>
0.0357149

> <r_epik_Ionization_Penalty_Charging>
0.0355056

> <r_epik_Ionization_Penalty_Neutral>
0.000209255

> <r_epik_State_Penalty>
0.0296046

> <r_epik_Charging_Adjusted_Penalty>
0.0651102

> <i_epik_Tot_Q>
0

> <i_epik_Tot_abs_Q>
0

> <r_epik_Metal_State_Penalty>
3.03559e-05

> <b_epik_Metal_Only>
0

> <s_epik_Chemistry_Notes>
This compound has an imine and may undergo hydrolysis. This compound contains an acetal/aminal-like group ( X-CH(R)-Y where X, Y are N, S, or O) that may be acid/base labile, releasing an aldehyde.

> <s_lp_Force_Field>
OPLS_2005

> <r_lp_Energy>
43.2358

> <b_lp_Chiralities_Consistent>
1

> <s_lp_Variant>
AV-unprocessed.smi:157-3

> <Gold.Version>
5.8.1

> <Gold.Id.Protein>
6NUR|6NUR_protein|mol2

> <Gold.PLP.Fitness>
39.2154

> <Gold.PLP.PLP>
-28.3018

> <Gold.PLP.part.hbond>
-4.0508

> <Gold.PLP.part.metal>
0.0000

> <Gold.PLP.part.buried>
-0.6318

> <Gold.PLP.part.nonpolar>
-24.3250

> <Gold.PLP.part.repulsive>
0.3960

> <Gold.PLP.ligand.clash>
0.0000

> <Gold.PLP.ligand.torsion>
0.0445

> <Gold.PLP.Chemscore.Hbond>
3.6612

> <Gold.PLP.Chemscore.CHOScore>
0.0000

> <Gold.PLP.Chemscore.Metal>
0.0000

> <Gold.Chemscore.Hbonds>
donor molecule, donor type, donor heavy atom, donor atom, acceptor molecule, acceptor atom, score
      L1  H    16    32       P1  8029  0.89
      L1  H    19    35       P1  7948  0.96
      P1  H  7989  7998       L1     4  0.60
      P1  H  7997  8009       L1     1  1.00

> <Gold.PLP.Chemscore.Internal.Correction>
0.0190

> <Gold.Rescore>
     Score         DG    S(hbond)    S(metal)    S(lipo)     H(rot)  DE(clash)    DE(int)     intcor
      6.76      -9.13       2.31        0.00      44.73       3.64       1.60       0.77       ----

> <Gold.Chemscore.Fitness>
6.7556

> <Gold.Chemscore.DG>
-9.1277

> <Gold.Chemscore.ZeroCoef>
-5.4800

> <Gold.Chemscore.Hbond>
2.3123

> <Gold.Chemscore.Metal>
0.0000

> <Gold.Chemscore.Lipo>
44.7289

> <Gold.Chemscore.Internal_Hbond>
0.0000

> <Gold.Chemscore.DEClash>
1.5993

> <Gold.Chemscore.DEInternal>
0.7728

> <Gold.Chemscore.Rot>
3.6362

> <Gold.Chemscore.Internal.Correction>
   9.000000E+99

> <Gold.Chemscore.Hbonds>
donor molecule, donor type, donor heavy atom, donor atom, acceptor molecule, acceptor atom, score
      L1  H    16    32       P1  8029  0.85
      L1  H    19    35       P1  7948  0.91
      P1  H  7989  7998       L1     4  0.01
      P1  H  7997  8009       L1     1  0.42

> <Gold.Chemscore.Hbond.Weighted>
-7.7231

> <Gold.Chemscore.Metal.Weighted>
-0.0000

> <Gold.Chemscore.Lipo.Weighted>
-5.2333

> <Gold.Chemscore.Internal_Hbond.Weighted>
0.0000

> <Gold.Chemscore.DEClash.Weighted>
1.5993

> <Gold.Chemscore.DEInternal.Weighted>
0.7728

> <Gold.Chemscore.Rot.Weighted>
9.3087

> <Gold.Chemscore.Internal.Correction.Weighted>
   9.000000E+99

> <Gold.Protein.RotatedTorsions>
[ 6907 6896 6895 6894 ] final -138.96 input  -60.11 | X-H torsion
[ 7974 7965 7964 7962 ] final   19.46 input  175.53 | X-H torsion
[ 8008 7997 7996 7995 ] final -146.16 input   59.86 | X-H torsion
[ 10167 10162 10161 10158 ] final  164.01 input  -65.29 | X-H torsion
[ 10718 10713 10712 10709 ] final -156.93 input   66.30 | X-H torsion
[ 10763 10752 10751 10750 ] final   55.13 input  -60.55 | X-H torsion
[ 11005 11000 10999 10996 ] final   42.89 input  -57.11 | X-H torsion

> <Gold.Protein.ActiveResidues>
 VAL166  LYS551  ARG553  GLY616  TRP617  ASP618  TYR619  PRO620  LYS621  CYS622 
 ASP623  PHE694  ASN695  SER759  ASP760  ASP761  ALA762  ILE779  LEU786  VAL792 
 PHE793  MET794  SER795  GLU796  ALA797  LYS798  CYS799  TRP800  GLU811  SER814 

> <Gold.Protein.RotatedAtoms>
  151.0416  133.5701  159.2650 H   0  0  0  0  0  0  0  0  0  0  0  0  # atno 6907 bound_to 6896
  151.2745  135.0694  159.9156 H   0  0  0  0  0  0  0  0  0  0  0  0  # atno 6908 bound_to 6896
  152.5365  134.0141  159.8006 H   0  0  0  0  0  0  0  0  0  0  0  0  # atno 6909 bound_to 6896
  146.2148  139.8309  142.8660 H   0  0  0  0  0  0  0  0  0  0  0  0  # atno 7974 bound_to 7965
  155.5548  140.0620  157.2842 H   0  0  0  0  0  0  0  0  0  0  0  0  # atno 8008 bound_to 7997
  154.4409  140.1896  156.0768 H   0  0  0  0  0  0  0  0  0  0  0  0  # atno 8009 bound_to 7997
  156.0490  140.3286  155.7333 H   0  0  0  0  0  0  0  0  0  0  0  0  # atno 8010 bound_to 7997
  139.4882  144.4279  151.9107 H   0  0  0  0  0  0  0  0  0  0  0  0  # atno 10167 bound_to 10162
  156.5333  130.8531  151.2724 H   0  0  0  0  0  0  0  0  0  0  0  0  # atno 10718 bound_to 10713
  152.9813  135.5721  154.5017 H   0  0  0  0  0  0  0  0  0  0  0  0  # atno 10763 bound_to 10752
  154.4535  135.2779  155.1766 H   0  0  0  0  0  0  0  0  0  0  0  0  # atno 10764 bound_to 10752
  154.3384  135.6234  153.5638 H   0  0  0  0  0  0  0  0  0  0  0  0  # atno 10765 bound_to 10752
  140.1696  134.4238  155.8265 H   0  0  0  0  0  0  0  0  0  0  0  0  # atno 11005 bound_to 11000
  145.2998  141.0191  143.3615 LP  0  0  0  0  0  0  0  0  0  0  0  0  # atno 17320 bound_to 7965
  144.9015  139.4644  143.6630 LP  0  0  0  0  0  0  0  0  0  0  0  0  # atno 17321 bound_to 7965
  140.3726  144.2837  150.5918 LP  0  0  0  0  0  0  0  0  0  0  0  0  # atno 17342 bound_to 10162
  140.5305  143.2244  151.8245 LP  0  0  0  0  0  0  0  0  0  0  0  0  # atno 17343 bound_to 10162
  157.7418  130.9877  150.2470 LP  0  0  0  0  0  0  0  0  0  0  0  0  # atno 17370 bound_to 10713
  156.3039  130.3762  149.7724 LP  0  0  0  0  0  0  0  0  0  0  0  0  # atno 17371 bound_to 10713
  141.2216  133.6950  156.7740 LP  0  0  0  0  0  0  0  0  0  0  0  0  # atno 17394 bound_to 11000
  140.2393  134.8626  157.3557 LP  0  0  0  0  0  0  0  0  0  0  0  0  # atno 17395 bound_to 11000

$$$$
