AV-unprocessed.smi:760|AV-procd|sdf|3629|dock8
  -GOLD-   22720 1 23D 1   1.00000     0.00000
 Structure written by MMmdl.
 43 44  0  0  0  0  0  0  0  0  1 V2000
  152.3463  143.3435  159.2094 C   0  0  0  0  0  0  0  0  0  0  0  0
  152.0279  142.1994  158.5821 C   0  0  0  0  0  0  0  0  0  0  0  0
  152.7469  140.8948  158.8757 C   0  0  0  0  0  0  0  0  0  0  0  0
  150.9428  142.1492  157.5164 C   0  0  0  0  0  0  0  0  0  0  0  0
  150.7954  140.8437  156.8680 N   0  0  0  0  0  0  0  0  0  0  0  0
  151.8227  140.5895  155.8528 C   0  0  0  0  0  0  0  0  0  0  0  0
  151.6501  139.1874  155.2420 C   0  0  0  0  0  0  0  0  0  0  0  0
  150.2544  139.0106  154.6279 C   0  0  0  0  0  0  0  0  0  0  0  0
  150.0836  137.6326  154.1777 N   0  0  0  0  0  0  0  0  0  0  0  0
  150.4971  136.5440  154.8416 C   0  0  0  0  0  0  0  0  0  0  0  0
  151.0752  136.5863  155.9279 O   0  0  0  0  0  0  0  0  0  0  0  0
  150.2003  135.4208  154.1676 N   0  0  0  0  0  0  0  0  0  0  0  0
  150.4848  134.0857  154.5505 C   0  0  0  0  0  0  0  0  0  0  0  0
  151.0080  133.6999  155.8121 C   0  0  0  0  0  0  0  0  0  0  0  0
  151.1707  132.3874  155.8825 N   0  0  0  0  0  0  0  0  0  0  0  0
  150.7566  131.9180  154.6803 N   0  0  0  0  0  0  0  0  0  0  0  0
  150.8043  130.4950  154.4211 C   0  0  0  0  0  0  0  0  0  0  0  0
  150.3309  132.9282  153.8409 C   0  0  0  0  0  0  0  0  0  0  0  0
  149.1964  139.3803  155.6803 C   0  0  0  0  0  0  0  0  0  0  0  0
  149.4631  140.7786  156.2623 C   0  0  0  0  0  0  0  0  0  0  0  0
  153.1243  143.3771  159.9581 H   0  0  0  0  0  0  0  0  0  0  0  0
  151.8305  144.2651  158.9823 H   0  0  0  0  0  0  0  0  0  0  0  0
  153.2712  140.5500  157.9842 H   0  0  0  0  0  0  0  0  0  0  0  0
  152.0501  140.1150  159.1801 H   0  0  0  0  0  0  0  0  0  0  0  0
  153.4821  141.0185  159.6717 H   0  0  0  0  0  0  0  0  0  0  0  0
  149.9963  142.4070  157.9937 H   0  0  0  0  0  0  0  0  0  0  0  0
  151.1365  142.9231  156.7718 H   0  0  0  0  0  0  0  0  0  0  0  0
  151.7784  141.3537  155.0753 H   0  0  0  0  0  0  0  0  0  0  0  0
  152.8137  140.6384  156.3018 H   0  0  0  0  0  0  0  0  0  0  0  0
  152.4156  139.0210  154.4831 H   0  0  0  0  0  0  0  0  0  0  0  0
  151.8149  138.4364  156.0165 H   0  0  0  0  0  0  0  0  0  0  0  0
  150.1641  139.6857  153.7744 H   0  0  0  0  0  0  0  0  0  0  0  0
  149.6167  137.5000  153.2927 H   0  0  0  0  0  0  0  0  0  0  0  0
  149.7218  135.5323  153.2858 H   0  0  0  0  0  0  0  0  0  0  0  0
  151.2700  134.3144  156.6607 H   0  0  0  0  0  0  0  0  0  0  0  0
  150.3638  130.2770  153.4477 H   0  0  0  0  0  0  0  0  0  0  0  0
  150.2460  129.9596  155.1900 H   0  0  0  0  0  0  0  0  0  0  0  0
  151.8400  130.1542  154.4265 H   0  0  0  0  0  0  0  0  0  0  0  0
  149.9679  132.7314  152.8430 H   0  0  0  0  0  0  0  0  0  0  0  0
  148.1997  139.3528  155.2389 H   0  0  0  0  0  0  0  0  0  0  0  0
  149.1979  138.6456  156.4872 H   0  0  0  0  0  0  0  0  0  0  0  0
  148.7064  140.9999  157.0161 H   0  0  0  0  0  0  0  0  0  0  0  0
  149.3681  141.5360  155.4825 H   0  0  0  0  0  0  0  0  0  0  0  0
  1  2  2  0  0  0  0
  1 21  1  0  0  0  0
  1 22  1  0  0  0  0
  2  3  1  0  0  0  0
  2  4  1  0  0  0  0
  3 23  1  0  0  0  0
  3 24  1  0  0  0  0
  3 25  1  0  0  0  0
  4  5  1  0  0  0  0
  4 26  1  0  0  0  0
  4 27  1  0  0  0  0
  5 20  1  0  0  0  0
  5  6  1  0  0  0  0
  6  7  1  0  0  0  0
  6 28  1  0  0  0  0
  6 29  1  0  0  0  0
  7  8  1  0  0  0  0
  7 30  1  0  0  0  0
  7 31  1  0  0  0  0
  8  9  1  0  0  0  0
  8 19  1  0  0  0  0
  8 32  1  0  0  0  0
  9 10  1  0  0  0  0
  9 33  1  0  0  0  0
 10 11  2  0  0  0  0
 10 12  1  0  0  0  0
 12 13  1  0  0  0  0
 12 34  1  0  0  0  0
 13 18  2  0  0  0  0
 13 14  1  0  0  0  0
 14 15  2  0  0  0  0
 14 35  1  0  0  0  0
 15 16  1  0  0  0  0
 16 17  1  0  0  0  0
 16 18  1  0  0  0  0
 17 36  1  0  0  0  0
 17 37  1  0  0  0  0
 17 38  1  0  0  0  0
 18 39  1  0  0  0  0
 19 20  1  0  0  0  0
 19 40  1  0  0  0  0
 19 41  1  0  0  0  0
 20 42  1  0  0  0  0
 20 43  1  0  0  0  0
M  END
> <s_m_source_file>
AV-unprocessed.smi

> <i_m_source_file_index>
760

> <i_lp_mmshare_version>
43012

> <i_f3d_flags>
0

> <s_epik_input>
W0NIMl09QyhbQ0gzXSlbQ0gyXU4xW0NIMl1bQ0gyXVtDSF0oW0NIMl1bQ0gyXTEpW05IXUMoPU8pW05IXWMyW2NIXW5uKFtDSDNdKVtjSF0y

> <s_epik_cmdline>
J2VwaWtfcHl0aG9uJywgJy1waCcsICc3LjAnLCAnLXRuJywgJzgnLCAnLW1hJywgJzIwMCcsICctbWV0YWxfYmluZGluZycsICctaW1hZScsICc8aW5maWxlLm1hZT4nLCAnLW9tYWUnLCAnPG91dGZpbGUubWFlPic=

> <r_lp_tautomer_probability>
1

> <r_epik_Ionization_Penalty>
2.03709

> <r_epik_Ionization_Penalty_Charging>
0

> <r_epik_Ionization_Penalty_Neutral>
2.03709

> <r_epik_State_Penalty>
2.16834

> <r_epik_Charging_Adjusted_Penalty>
2.16834

> <i_epik_Tot_Q>
0

> <i_epik_Tot_abs_Q>
0

> <r_epik_Metal_State_Penalty>
2.16831

> <b_epik_Metal_Only>
0

> <s_lp_Force_Field>
OPLS_2005

> <r_lp_Energy>
20.5491

> <b_lp_Chiralities_Consistent>
1

> <s_lp_Variant>
AV-unprocessed.smi:760-3

> <Gold.Version>
5.8.1

> <Gold.Id.Protein>
6NUR|6NUR_protein|mol2

> <Gold.PLP.Fitness>
39.8024

> <Gold.PLP.PLP>
-34.7552

> <Gold.PLP.part.hbond>
-2.3041

> <Gold.PLP.part.metal>
0.0000

> <Gold.PLP.part.buried>
-4.5172

> <Gold.PLP.part.nonpolar>
-28.4364

> <Gold.PLP.part.repulsive>
0.1415

> <Gold.PLP.ligand.clash>
0.0000

> <Gold.PLP.ligand.torsion>
0.4751

> <Gold.PLP.Chemscore.Hbond>
1.9920

> <Gold.PLP.Chemscore.CHOScore>
0.0000

> <Gold.PLP.Chemscore.Metal>
0.0000

> <Gold.Chemscore.Hbonds>
donor molecule, donor type, donor heavy atom, donor atom, acceptor molecule, acceptor atom, score
      L1  H     9    33       P1  7948  0.98
      L1  H    12    34       P1  7948  0.45

> <Gold.PLP.Chemscore.Internal.Correction>
0.0213

> <Gold.Rescore>
     Score         DG    S(hbond)    S(metal)    S(lipo)     H(rot)  DE(clash)    DE(int)     intcor
     14.62     -17.88       1.71        0.00      86.61       1.35       0.13       3.13       ----

> <Gold.Chemscore.Fitness>
14.6236

> <Gold.Chemscore.DG>
-17.8819

> <Gold.Chemscore.ZeroCoef>
-5.4800

> <Gold.Chemscore.Hbond>
1.7131

> <Gold.Chemscore.Metal>
0.0000

> <Gold.Chemscore.Lipo>
86.6138

> <Gold.Chemscore.Internal_Hbond>
0.0000

> <Gold.Chemscore.DEClash>
0.1318

> <Gold.Chemscore.DEInternal>
3.1265

> <Gold.Chemscore.Rot>
1.3491

> <Gold.Chemscore.Internal.Correction>
   9.000000E+99

> <Gold.Chemscore.Hbonds>
donor molecule, donor type, donor heavy atom, donor atom, acceptor molecule, acceptor atom, score
      L1  H     9    33       P1  7948  0.75
      L1  H    12    34       P1  7948  0.02

> <Gold.Chemscore.Hbond.Weighted>
-5.7219

> <Gold.Chemscore.Metal.Weighted>
-0.0000

> <Gold.Chemscore.Lipo.Weighted>
-10.1338

> <Gold.Chemscore.Internal_Hbond.Weighted>
0.0000

> <Gold.Chemscore.DEClash.Weighted>
0.1318

> <Gold.Chemscore.DEInternal.Weighted>
3.1265

> <Gold.Chemscore.Rot.Weighted>
3.4538

> <Gold.Chemscore.Internal.Correction.Weighted>
   9.000000E+99

> <Gold.Protein.RotatedTorsions>
[ 6907 6896 6895 6894 ] final -175.37 input  -60.11 | X-H torsion
[ 7974 7965 7964 7962 ] final  109.26 input  175.53 | X-H torsion
[ 8008 7997 7996 7995 ] final -113.28 input   59.86 | X-H torsion
[ 10167 10162 10161 10158 ] final  -93.56 input  -65.29 | X-H torsion
[ 10718 10713 10712 10709 ] final  100.46 input   66.30 | X-H torsion
[ 10763 10752 10751 10750 ] final   78.82 input  -60.55 | X-H torsion
[ 11005 11000 10999 10996 ] final -101.49 input  -57.11 | X-H torsion

> <Gold.Protein.ActiveResidues>
 VAL166  LYS551  ARG553  GLY616  TRP617  ASP618  TYR619  PRO620  LYS621  CYS622 
 ASP623  PHE694  ASN695  SER759  ASP760  ASP761  ALA762  ILE779  LEU786  VAL792 
 PHE793  MET794  SER795  GLU796  ALA797  LYS798  CYS799  TRP800  GLU811  SER814 

> <Gold.Protein.RotatedAtoms>
  151.5875  133.3370  159.3020 H   0  0  0  0  0  0  0  0  0  0  0  0  # atno 6907 bound_to 6896
  150.8279  134.7521  159.6839 H   0  0  0  0  0  0  0  0  0  0  0  0  # atno 6908 bound_to 6896
  152.4366  134.5680  159.9965 H   0  0  0  0  0  0  0  0  0  0  0  0  # atno 6909 bound_to 6896
  145.2701  139.2670  143.3971 H   0  0  0  0  0  0  0  0  0  0  0  0  # atno 7974 bound_to 7965
  155.0183  140.0393  157.2427 H   0  0  0  0  0  0  0  0  0  0  0  0  # atno 8008 bound_to 7997
  154.7400  140.2747  155.6358 H   0  0  0  0  0  0  0  0  0  0  0  0  # atno 8009 bound_to 7997
  156.2862  140.2667  156.2125 H   0  0  0  0  0  0  0  0  0  0  0  0  # atno 8010 bound_to 7997
  140.3234  143.3036  152.0022 H   0  0  0  0  0  0  0  0  0  0  0  0  # atno 10167 bound_to 10162
  157.6853  131.0699  150.5104 H   0  0  0  0  0  0  0  0  0  0  0  0  # atno 10718 bound_to 10713
  153.0904  135.4862  154.8679 H   0  0  0  0  0  0  0  0  0  0  0  0  # atno 10763 bound_to 10752
  154.7262  135.3050  154.8969 H   0  0  0  0  0  0  0  0  0  0  0  0  # atno 10764 bound_to 10752
  153.9618  135.6811  153.4798 H   0  0  0  0  0  0  0  0  0  0  0  0  # atno 10765 bound_to 10752
  141.1228  133.8482  157.1238 H   0  0  0  0  0  0  0  0  0  0  0  0  # atno 11005 bound_to 11000
  146.3249  140.3141  142.8629 LP  0  0  0  0  0  0  0  0  0  0  0  0  # atno 17320 bound_to 7965
  144.9343  140.8009  143.5670 LP  0  0  0  0  0  0  0  0  0  0  0  0  # atno 17321 bound_to 7965
  139.4870  144.6293  151.7102 LP  0  0  0  0  0  0  0  0  0  0  0  0  # atno 17342 bound_to 10162
  140.5463  144.0498  150.6108 LP  0  0  0  0  0  0  0  0  0  0  0  0  # atno 17343 bound_to 10162
  156.5422  130.4211  149.6148 LP  0  0  0  0  0  0  0  0  0  0  0  0  # atno 17370 bound_to 10713
  156.2975  130.7158  151.2022 LP  0  0  0  0  0  0  0  0  0  0  0  0  # atno 17371 bound_to 10713
  140.0201  134.9950  157.0573 LP  0  0  0  0  0  0  0  0  0  0  0  0  # atno 17394 bound_to 11000
  140.4455  134.1637  155.7177 LP  0  0  0  0  0  0  0  0  0  0  0  0  # atno 17395 bound_to 11000

$$$$
