AV-unprocessed.smi:1830|AV-procd|sdf|7440|dock9
  -GOLD-   22720 9123D 1   1.00000     0.00000
 Structure written by MMmdl.
 52 55  0  0  0  0  0  0  0  0  1 V2000
  149.6703  132.7023  154.8649 O   0  0  0  0  0  0  0  0  0  0  0  0
  149.3149  133.6514  154.1677 C   0  0  0  0  0  0  0  0  0  0  0  0
  149.8343  134.8820  154.2786 N   0  0  0  0  0  0  0  0  0  0  0  0
  150.8474  135.2858  155.2479 C   0  0  0  0  0  0  0  0  0  0  0  0
  150.4867  136.6235  155.9157 C   0  0  2  0  0  0  0  0  0  0  0  0
  150.5046  137.7958  154.9076 C   0  0  0  0  0  0  0  0  0  0  0  0
  150.2620  139.0456  155.6028 N   0  0  0  0  0  0  0  0  0  0  0  0
  150.3150  140.2555  154.8157 C   0  0  0  0  0  0  0  0  0  0  0  0
  150.4350  141.3802  155.8595 C   0  0  0  0  0  0  0  0  0  0  0  0
  150.9613  140.6738  157.1289 C   0  0  0  0  0  0  0  0  0  0  0  0
  151.2429  139.2546  156.6332 C   0  0  1  0  0  0  0  0  0  0  0  0
  151.1995  138.1172  157.6634 C   0  0  0  0  0  0  0  0  0  0  0  0
  151.4219  136.8875  156.9697 O   0  0  0  0  0  0  0  0  0  0  0  0
  148.3711  133.6170  153.2113 N   0  0  0  0  0  0  0  0  0  0  0  0
  147.5346  132.5447  152.7770 C   0  0  0  0  0  0  0  0  0  0  0  0
  147.7396  131.1897  153.1407 C   0  0  0  0  0  0  0  0  0  0  0  0
  146.8530  130.2070  152.6655 C   0  0  0  0  0  0  0  0  0  0  0  0
  145.7902  130.6084  151.8391 C   0  0  0  0  0  0  0  0  0  0  0  0
  145.5824  131.8901  151.4786 N   0  0  0  0  0  0  0  0  0  0  0  0
  146.4283  132.8459  151.9355 C   0  0  0  0  0  0  0  0  0  0  0  0
  146.2015  134.1719  151.5104 N   0  0  0  0  0  0  0  0  0  0  0  0
  145.2213  134.2739  150.4327 C   0  0  0  0  0  0  0  0  0  0  0  0
  144.4045  135.5388  150.7052 C   0  0  0  0  0  0  0  0  0  0  0  0
  144.4969  135.6882  152.2185 C   0  0  0  0  0  0  0  0  0  0  0  0
  145.9141  135.1993  152.5103 C   0  0  0  0  0  0  0  0  0  0  0  0
  149.4824  135.6019  153.6649 H   0  0  0  0  0  0  0  0  0  0  0  0
  151.0055  134.5099  155.9991 H   0  0  0  0  0  0  0  0  0  0  0  0
  151.7900  135.3877  154.7093 H   0  0  0  0  0  0  0  0  0  0  0  0
  149.4879  136.5460  156.3494 H   0  0  0  0  0  0  0  0  0  0  0  0
  151.4689  137.8329  154.3981 H   0  0  0  0  0  0  0  0  0  0  0  0
  149.7453  137.6454  154.1395 H   0  0  0  0  0  0  0  0  0  0  0  0
  151.1975  140.2488  154.1738 H   0  0  0  0  0  0  0  0  0  0  0  0
  149.4350  140.3625  154.1809 H   0  0  0  0  0  0  0  0  0  0  0  0
  151.1115  142.1636  155.5169 H   0  0  0  0  0  0  0  0  0  0  0  0
  149.4642  141.8371  156.0552 H   0  0  0  0  0  0  0  0  0  0  0  0
  151.8520  141.1512  157.5381 H   0  0  0  0  0  0  0  0  0  0  0  0
  150.1923  140.6677  157.9027 H   0  0  0  0  0  0  0  0  0  0  0  0
  152.2359  139.2559  156.1784 H   0  0  0  0  0  0  0  0  0  0  0  0
  151.9734  138.2508  158.4193 H   0  0  0  0  0  0  0  0  0  0  0  0
  150.2386  138.0856  158.1791 H   0  0  0  0  0  0  0  0  0  0  0  0
  148.1987  134.4951  152.7442 H   0  0  0  0  0  0  0  0  0  0  0  0
  148.5538  130.8705  153.7697 H   0  0  0  0  0  0  0  0  0  0  0  0
  146.9869  129.1684  152.9291 H   0  0  0  0  0  0  0  0  0  0  0  0
  145.0902  129.8816  151.4544 H   0  0  0  0  0  0  0  0  0  0  0  0
  145.7118  134.3200  149.4603 H   0  0  0  0  0  0  0  0  0  0  0  0
  144.5659  133.4012  150.4339 H   0  0  0  0  0  0  0  0  0  0  0  0
  144.8750  136.3955  150.2210 H   0  0  0  0  0  0  0  0  0  0  0  0
  143.3785  135.4671  150.3436 H   0  0  0  0  0  0  0  0  0  0  0  0
  144.3195  136.7080  152.5606 H   0  0  0  0  0  0  0  0  0  0  0  0
  143.7703  135.0341  152.7025 H   0  0  0  0  0  0  0  0  0  0  0  0
  146.0257  134.8667  153.5425 H   0  0  0  0  0  0  0  0  0  0  0  0
  146.6250  136.0127  152.3621 H   0  0  0  0  0  0  0  0  0  0  0  0
  1  2  2  0  0  0  0
  2  3  1  0  0  0  0
  2 14  1  0  0  0  0
  3  4  1  0  0  0  0
  3 26  1  0  0  0  0
  4  5  1  0  0  0  0
  4 27  1  0  0  0  0
  4 28  1  0  0  0  0
  5 13  1  0  0  0  0
  5  6  1  0  0  0  0
  5 29  1  0  0  0  0
  6  7  1  0  0  0  0
  6 30  1  0  0  0  0
  6 31  1  0  0  0  0
  7 11  1  0  0  0  0
  7  8  1  0  0  0  0
  8  9  1  0  0  0  0
  8 32  1  0  0  0  0
  8 33  1  0  0  0  0
  9 10  1  0  0  0  0
  9 34  1  0  0  0  0
  9 35  1  0  0  0  0
 10 11  1  0  0  0  0
 10 36  1  0  0  0  0
 10 37  1  0  0  0  0
 11 12  1  0  0  0  0
 11 38  1  0  0  0  0
 12 13  1  0  0  0  0
 12 39  1  0  0  0  0
 12 40  1  0  0  0  0
 14 15  1  0  0  0  0
 14 41  1  0  0  0  0
 15 20  1  0  0  0  0
 15 16  2  0  0  0  0
 16 17  1  0  0  0  0
 16 42  1  0  0  0  0
 17 18  2  0  0  0  0
 17 43  1  0  0  0  0
 18 19  1  0  0  0  0
 18 44  1  0  0  0  0
 19 20  2  0  0  0  0
 20 21  1  0  0  0  0
 21 25  1  0  0  0  0
 21 22  1  0  0  0  0
 22 23  1  0  0  0  0
 22 45  1  0  0  0  0
 22 46  1  0  0  0  0
 23 24  1  0  0  0  0
 23 47  1  0  0  0  0
 23 48  1  0  0  0  0
 24 25  1  0  0  0  0
 24 49  1  0  0  0  0
 24 50  1  0  0  0  0
 25 51  1  0  0  0  0
 25 52  1  0  0  0  0
M  END
> <s_m_source_file>
AV-unprocessed.smi

> <i_m_source_file_index>
1830

> <i_lp_mmshare_version>
43012

> <i_f3d_flags>
0

> <s_epik_input>
W0NIMl0xW0NIMl1bQ0gyXVtDQEhdKE4xMilbQ0gyXU9bQ0BASF0oW0NIMl0yKVtDSDJdW05IXUMoPU8pW05IXWMzW2NIXVtjSF1bY0hdbmMzTjRbQ0gyXVtDSDJdW0NIMl1bQ0gyXTQ=

> <s_epik_cmdline>
J2VwaWtfcHl0aG9uJywgJy1waCcsICc3LjAnLCAnLXRuJywgJzgnLCAnLW1hJywgJzIwMCcsICctbWV0YWxfYmluZGluZycsICctaW1hZScsICc8aW5maWxlLm1hZT4nLCAnLW9tYWUnLCAnPG91dGZpbGUubWFlPic=

> <r_lp_tautomer_probability>
1

> <r_epik_Ionization_Penalty>
1.16487

> <r_epik_Ionization_Penalty_Charging>
0

> <r_epik_Ionization_Penalty_Neutral>
1.16487

> <r_epik_State_Penalty>
1.21807

> <r_epik_Charging_Adjusted_Penalty>
1.21807

> <i_epik_Tot_Q>
0

> <i_epik_Tot_abs_Q>
0

> <r_epik_Metal_State_Penalty>
1.19922

> <b_epik_Metal_Only>
0

> <s_lp_Force_Field>
OPLS_2005

> <r_lp_Energy>
77.1598

> <b_lp_Chiralities_Consistent>
1

> <s_lp_Variant>
AV-unprocessed.smi:1830-9

> <Gold.Version>
5.8.1

> <Gold.Id.Protein>
6NUR|6NUR_protein|mol2

> <Gold.PLP.Fitness>
41.1772

> <Gold.PLP.PLP>
-35.8585

> <Gold.PLP.part.hbond>
-2.0000

> <Gold.PLP.part.metal>
0.0000

> <Gold.PLP.part.buried>
-0.7150

> <Gold.PLP.part.nonpolar>
-32.3242

> <Gold.PLP.part.repulsive>
0.3791

> <Gold.PLP.ligand.clash>
0.0000

> <Gold.PLP.ligand.torsion>
0.2783

> <Gold.PLP.Chemscore.Hbond>
1.9199

> <Gold.PLP.Chemscore.CHOScore>
0.0000

> <Gold.PLP.Chemscore.Metal>
0.0000

> <Gold.Chemscore.Hbonds>
donor molecule, donor type, donor heavy atom, donor atom, acceptor molecule, acceptor atom, score
      L1  H     3    26       P1  7948  0.99
      L1  H    14    41       P1  7948  0.92

> <Gold.PLP.Chemscore.Internal.Correction>
0.1157

> <Gold.Rescore>
     Score         DG    S(hbond)    S(metal)    S(lipo)     H(rot)  DE(clash)    DE(int)     intcor
     13.07     -15.44       1.09        0.00      84.01       1.37       0.06       2.30       ----

> <Gold.Chemscore.Fitness>
13.0690

> <Gold.Chemscore.DG>
-15.4350

> <Gold.Chemscore.ZeroCoef>
-5.4800

> <Gold.Chemscore.Hbond>
1.0914

> <Gold.Chemscore.Metal>
0.0000

> <Gold.Chemscore.Lipo>
84.0053

> <Gold.Chemscore.Internal_Hbond>
0.0000

> <Gold.Chemscore.DEClash>
0.0648

> <Gold.Chemscore.DEInternal>
2.3011

> <Gold.Chemscore.Rot>
1.3746

> <Gold.Chemscore.Internal.Correction>
   9.000000E+99

> <Gold.Chemscore.Hbonds>
donor molecule, donor type, donor heavy atom, donor atom, acceptor molecule, acceptor atom, score
      L1  H     3    26       P1  7948  0.24
      L1  H    14    41       P1  7948  0.33

> <Gold.Chemscore.Hbond.Weighted>
-3.6452

> <Gold.Chemscore.Metal.Weighted>
-0.0000

> <Gold.Chemscore.Lipo.Weighted>
-9.8286

> <Gold.Chemscore.Internal_Hbond.Weighted>
0.0000

> <Gold.Chemscore.DEClash.Weighted>
0.0648

> <Gold.Chemscore.DEInternal.Weighted>
2.3011

> <Gold.Chemscore.Rot.Weighted>
3.5189

> <Gold.Chemscore.Internal.Correction.Weighted>
   9.000000E+99

> <Gold.Protein.RotatedTorsions>
[ 6907 6896 6895 6894 ] final  117.80 input  -60.11 | X-H torsion
[ 7974 7965 7964 7962 ] final  129.23 input  175.53 | X-H torsion
[ 8008 7997 7996 7995 ] final  -40.05 input   59.86 | X-H torsion
[ 10167 10162 10161 10158 ] final  112.80 input  -65.29 | X-H torsion
[ 10718 10713 10712 10709 ] final -116.40 input   66.30 | X-H torsion
[ 10763 10752 10751 10750 ] final -103.12 input  -60.55 | X-H torsion
[ 11005 11000 10999 10996 ] final  -29.72 input  -57.11 | X-H torsion

> <Gold.Protein.ActiveResidues>
 VAL166  LYS551  ARG553  GLY616  TRP617  ASP618  TYR619  PRO620  LYS621  CYS622 
 ASP623  PHE694  ASN695  SER759  ASP760  ASP761  ALA762  ILE779  LEU786  VAL792 
 PHE793  MET794  SER795  GLU796  ALA797  LYS798  CYS799  TRP800  GLU811  SER814 

> <Gold.Protein.RotatedAtoms>
  152.4587  133.7777  159.6833 H   0  0  0  0  0  0  0  0  0  0  0  0  # atno 6907 bound_to 6896
  150.8523  133.7758  159.3027 H   0  0  0  0  0  0  0  0  0  0  0  0  # atno 6908 bound_to 6896
  151.5350  135.1071  159.9964 H   0  0  0  0  0  0  0  0  0  0  0  0  # atno 6909 bound_to 6896
  145.0309  139.4047  143.5150 H   0  0  0  0  0  0  0  0  0  0  0  0  # atno 7974 bound_to 7965
  154.4016  140.1535  156.2964 H   0  0  0  0  0  0  0  0  0  0  0  0  # atno 8008 bound_to 7997
  155.8740  140.3447  155.5819 H   0  0  0  0  0  0  0  0  0  0  0  0  # atno 8009 bound_to 7997
  155.7742  140.0834  157.2083 H   0  0  0  0  0  0  0  0  0  0  0  0  # atno 8010 bound_to 7997
  139.6509  144.7128  151.2050 H   0  0  0  0  0  0  0  0  0  0  0  0  # atno 10167 bound_to 10162
  156.0961  130.6133  150.9031 H   0  0  0  0  0  0  0  0  0  0  0  0  # atno 10718 bound_to 10713
  154.7784  135.4835  153.9793 H   0  0  0  0  0  0  0  0  0  0  0  0  # atno 10763 bound_to 10752
  153.1460  135.6782  153.8961 H   0  0  0  0  0  0  0  0  0  0  0  0  # atno 10764 bound_to 10752
  153.8620  135.3154  155.3416 H   0  0  0  0  0  0  0  0  0  0  0  0  # atno 10765 bound_to 10752
  140.9321  133.7331  156.0951 H   0  0  0  0  0  0  0  0  0  0  0  0  # atno 11005 bound_to 11000
  146.3498  139.9858  142.8691 LP  0  0  0  0  0  0  0  0  0  0  0  0  # atno 17320 bound_to 7965
  145.1772  140.9749  143.4287 LP  0  0  0  0  0  0  0  0  0  0  0  0  # atno 17321 bound_to 7965
  140.7537  143.6152  150.8566 LP  0  0  0  0  0  0  0  0  0  0  0  0  # atno 17342 bound_to 10162
  139.9800  143.5962  152.2946 LP  0  0  0  0  0  0  0  0  0  0  0  0  # atno 17343 bound_to 10162
  157.6122  131.0935  150.8774 LP  0  0  0  0  0  0  0  0  0  0  0  0  # atno 17370 bound_to 10713
  156.8912  130.5213  149.5286 LP  0  0  0  0  0  0  0  0  0  0  0  0  # atno 17371 bound_to 10713
  140.7848  134.3684  157.5479 LP  0  0  0  0  0  0  0  0  0  0  0  0  # atno 17394 bound_to 11000
  139.8799  134.9104  156.3013 LP  0  0  0  0  0  0  0  0  0  0  0  0  # atno 17395 bound_to 11000

$$$$
