AV-unprocessed.smi:94|AV-procd|sdf|851|dock1
  -GOLD-   2262017293D 1   1.00000     0.00000
 Structure written by MMmdl.
 53 55  0  0  0  0  0  0  0  0  1 V2000
  149.5224  141.1702  154.7949 C   0  0  0  0  0  0  0  0  0  0  0  0
  150.3501  140.3534  155.6096 O   0  0  0  0  0  0  0  0  0  0  0  0
  150.8901  140.9001  156.7562 C   0  0  0  0  0  0  0  0  0  0  0  0
  150.7464  142.2670  157.1084 C   0  0  0  0  0  0  0  0  0  0  0  0
  151.3150  142.7690  158.2936 C   0  0  0  0  0  0  0  0  0  0  0  0
  152.0279  141.9130  159.1522 C   0  0  0  0  0  0  0  0  0  0  0  0
  152.6441  142.4452  160.4297 C   0  0  0  0  0  0  0  0  0  0  0  0
  152.1727  140.5557  158.8140 C   0  0  0  0  0  0  0  0  0  0  0  0
  151.6209  140.0419  157.6156 C   0  0  0  0  0  0  0  0  0  0  0  0
  151.7977  138.5639  157.2577 C   0  0  2  0  0  0  0  0  0  0  0  0
  152.4172  138.4019  155.8626 C   0  0  0  0  0  0  0  0  0  0  0  0
  150.5317  137.8387  157.3040 N   0  0  0  0  0  0  0  0  0  0  0  0
  150.1318  136.9668  158.2440 C   0  0  0  0  0  0  0  0  0  0  0  0
  150.8665  136.5528  159.1395 O   0  0  0  0  0  0  0  0  0  0  0  0
  148.6583  136.5244  158.2057 C   0  0  0  0  0  0  0  0  0  0  0  0
  148.2981  135.5696  159.2817 N   0  0  0  0  0  0  0  0  0  0  0  0
  147.9974  136.0921  160.5649 C   0  0  0  0  0  0  0  0  0  0  0  0
  148.0717  137.2993  160.7972 O   0  0  0  0  0  0  0  0  0  0  0  0
  147.5787  135.1140  161.5612 C   0  0  0  0  0  0  0  0  0  0  0  0
  147.2530  135.5215  162.7996 F   0  0  0  0  0  0  0  0  0  0  0  0
  147.4987  133.8033  161.2552 C   0  0  0  0  0  0  0  0  0  0  0  0
  147.8147  133.3009  160.0079 N   0  0  0  0  0  0  0  0  0  0  0  0
  147.6236  131.8226  159.7475 C   0  0  2  0  0  0  0  0  0  0  0  0
  147.0715  131.0430  160.9505 C   0  0  0  0  0  0  0  0  0  0  0  0
  147.7825  129.7165  160.7901 C   0  0  0  0  0  0  0  0  0  0  0  0
  149.1372  130.1469  160.2373 C   0  0  0  0  0  0  0  0  0  0  0  0
  148.8536  131.2593  159.3927 O   0  0  0  0  0  0  0  0  0  0  0  0
  148.2010  134.1899  158.9773 C   0  0  0  0  0  0  0  0  0  0  0  0
  148.4260  133.7845  157.8364 O   0  0  0  0  0  0  0  0  0  0  0  0
  149.1869  140.5935  153.9334 H   0  0  0  0  0  0  0  0  0  0  0  0
  150.0652  142.0383  154.4187 H   0  0  0  0  0  0  0  0  0  0  0  0
  148.6348  141.5033  155.3343 H   0  0  0  0  0  0  0  0  0  0  0  0
  150.2017  142.9575  156.4831 H   0  0  0  0  0  0  0  0  0  0  0  0
  151.1988  143.8138  158.5414 H   0  0  0  0  0  0  0  0  0  0  0  0
  152.6401  141.6827  161.2093 H   0  0  0  0  0  0  0  0  0  0  0  0
  152.0913  143.3096  160.7991 H   0  0  0  0  0  0  0  0  0  0  0  0
  153.6764  142.7464  160.2516 H   0  0  0  0  0  0  0  0  0  0  0  0
  152.7162  139.9121  159.4898 H   0  0  0  0  0  0  0  0  0  0  0  0
  152.4832  138.1149  157.9779 H   0  0  0  0  0  0  0  0  0  0  0  0
  153.3920  138.8873  155.8067 H   0  0  0  0  0  0  0  0  0  0  0  0
  151.7821  138.8414  155.0925 H   0  0  0  0  0  0  0  0  0  0  0  0
  152.5603  137.3493  155.6168 H   0  0  0  0  0  0  0  0  0  0  0  0
  149.8539  138.0927  156.6002 H   0  0  0  0  0  0  0  0  0  0  0  0
  148.0355  137.4190  158.2409 H   0  0  0  0  0  0  0  0  0  0  0  0
  148.4454  136.0950  157.2252 H   0  0  0  0  0  0  0  0  0  0  0  0
  147.1716  133.1232  162.0281 H   0  0  0  0  0  0  0  0  0  0  0  0
  146.9611  131.7509  158.8840 H   0  0  0  0  0  0  0  0  0  0  0  0
  147.3426  131.5119  161.8953 H   0  0  0  0  0  0  0  0  0  0  0  0
  145.9855  130.9640  160.9000 H   0  0  0  0  0  0  0  0  0  0  0  0
  147.8598  129.1551  161.7216 H   0  0  0  0  0  0  0  0  0  0  0  0
  147.2597  129.0985  160.0590 H   0  0  0  0  0  0  0  0  0  0  0  0
  149.7975  130.4639  161.0448 H   0  0  0  0  0  0  0  0  0  0  0  0
  149.6381  129.3491  159.6888 H   0  0  0  0  0  0  0  0  0  0  0  0
  1  2  1  0  0  0  0
  1 30  1  0  0  0  0
  1 31  1  0  0  0  0
  1 32  1  0  0  0  0
  2  3  1  0  0  0  0
  3  9  1  0  0  0  0
  3  4  2  0  0  0  0
  4  5  1  0  0  0  0
  4 33  1  0  0  0  0
  5  6  2  0  0  0  0
  5 34  1  0  0  0  0
  6  7  1  0  0  0  0
  6  8  1  0  0  0  0
  7 35  1  0  0  0  0
  7 36  1  0  0  0  0
  7 37  1  0  0  0  0
  8  9  2  0  0  0  0
  8 38  1  0  0  0  0
  9 10  1  0  0  0  0
 10 11  1  0  0  0  0
 10 12  1  0  0  0  0
 10 39  1  0  0  0  0
 11 40  1  0  0  0  0
 11 41  1  0  0  0  0
 11 42  1  0  0  0  0
 12 13  1  0  0  0  0
 12 43  1  0  0  0  0
 13 14  2  0  0  0  0
 13 15  1  0  0  0  0
 15 16  1  0  0  0  0
 15 44  1  0  0  0  0
 15 45  1  0  0  0  0
 16 28  1  0  0  0  0
 16 17  1  0  0  0  0
 17 18  2  0  0  0  0
 17 19  1  0  0  0  0
 19 20  1  0  0  0  0
 19 21  2  0  0  0  0
 21 22  1  0  0  0  0
 21 46  1  0  0  0  0
 22 23  1  0  0  0  0
 22 28  1  0  0  0  0
 23 27  1  0  0  0  0
 23 24  1  0  0  0  0
 23 47  1  0  0  0  0
 24 25  1  0  0  0  0
 24 48  1  0  0  0  0
 24 49  1  0  0  0  0
 25 26  1  0  0  0  0
 25 50  1  0  0  0  0
 25 51  1  0  0  0  0
 26 27  1  0  0  0  0
 26 52  1  0  0  0  0
 26 53  1  0  0  0  0
 28 29  2  0  0  0  0
M  END
> <s_m_source_file>
AV-unprocessed.smi

> <i_m_source_file_index>
94

> <i_lp_mmshare_version>
43012

> <i_f3d_flags>
0

> <s_epik_input>
W0NIM11PYzFbY0hdW2NIXWMoW0NIM10pW2NIXWMxW0NASF0oW0NIM10pW05IXUMoPU8pW0NIMl1uMmMoPU8pYyhGKVtjSF1uKGMyPU8pW0NAQEhdM1tDSDJdW0NIMl1bQ0gyXU8z

> <s_epik_cmdline>
J2VwaWtfcHl0aG9uJywgJy1waCcsICc3LjAnLCAnLXRuJywgJzgnLCAnLW1hJywgJzIwMCcsICctbWV0YWxfYmluZGluZycsICctaW1hZScsICc8aW5maWxlLm1hZT4nLCAnLW9tYWUnLCAnPG91dGZpbGUubWFlPic=

> <r_lp_tautomer_probability>
1

> <r_epik_Ionization_Penalty>
3.37009e-08

> <r_epik_Ionization_Penalty_Charging>
3.59856e-09

> <r_epik_Ionization_Penalty_Neutral>
3.01024e-08

> <r_epik_State_Penalty>
-0

> <r_epik_Charging_Adjusted_Penalty>
3.59856e-09

> <i_epik_Tot_Q>
0

> <i_epik_Tot_abs_Q>
0

> <r_epik_Metal_State_Penalty>
-0

> <b_epik_Metal_Only>
0

> <s_epik_Chemistry_Notes>
This compound contains an acetal/aminal-like group ( X-CH(R)-Y where X, Y are N, S, or O) that may be acid/base labile, releasing an aldehyde.

> <s_lp_Force_Field>
OPLS_2005

> <r_lp_Energy>
26.0468

> <b_lp_Chiralities_Consistent>
1

> <s_lp_Variant>
AV-unprocessed.smi:94-1

> <Gold.Version>
5.8.1

> <Gold.Id.Protein>
6NUR|6NUR_protein|mol2

> <Gold.PLP.Fitness>
53.2850

> <Gold.PLP.PLP>
-46.8285

> <Gold.PLP.part.hbond>
-2.8389

> <Gold.PLP.part.metal>
0.0000

> <Gold.PLP.part.buried>
-3.9455

> <Gold.PLP.part.nonpolar>
-40.3357

> <Gold.PLP.part.repulsive>
0.0600

> <Gold.PLP.ligand.clash>
0.0000

> <Gold.PLP.ligand.torsion>
0.5559

> <Gold.PLP.Chemscore.Hbond>
2.4400

> <Gold.PLP.Chemscore.CHOScore>
0.0000

> <Gold.PLP.Chemscore.Metal>
0.0000

> <Gold.Chemscore.Hbonds>
donor molecule, donor type, donor heavy atom, donor atom, acceptor molecule, acceptor atom, score
      P1  H  6896  6907       L1    14  1.00
      P1  H  6931  6943       L1    18  0.82
      P1  H  6934  6947       L1    18  0.69

> <Gold.PLP.Chemscore.Internal.Correction>
0.2483

> <Gold.Rescore>
     Score         DG    S(hbond)    S(metal)    S(lipo)     H(rot)  DE(clash)    DE(int)     intcor
     18.14     -20.21       2.66        0.00     101.18       2.34       0.03       2.05       ----

> <Gold.Chemscore.Fitness>
18.1395

> <Gold.Chemscore.DG>
-20.2113

> <Gold.Chemscore.ZeroCoef>
-5.4800

> <Gold.Chemscore.Hbond>
2.6576

> <Gold.Chemscore.Metal>
0.0000

> <Gold.Chemscore.Lipo>
101.1760

> <Gold.Chemscore.Internal_Hbond>
0.0000

> <Gold.Chemscore.DEClash>
0.0265

> <Gold.Chemscore.DEInternal>
2.0453

> <Gold.Chemscore.Rot>
2.3370

> <Gold.Chemscore.Internal.Correction>
   9.000000E+99

> <Gold.Chemscore.Hbonds>
donor molecule, donor type, donor heavy atom, donor atom, acceptor molecule, acceptor atom, score
      P1  H  6896  6907       L1    14  0.98
      P1  H  6931  6943       L1    18  0.81
      P1  H  6934  6947       L1    18  0.70

> <Gold.Chemscore.Hbond.Weighted>
-8.8764

> <Gold.Chemscore.Metal.Weighted>
-0.0000

> <Gold.Chemscore.Lipo.Weighted>
-11.8376

> <Gold.Chemscore.Internal_Hbond.Weighted>
0.0000

> <Gold.Chemscore.DEClash.Weighted>
0.0265

> <Gold.Chemscore.DEInternal.Weighted>
2.0453

> <Gold.Chemscore.Rot.Weighted>
5.9827

> <Gold.Chemscore.Internal.Correction.Weighted>
   9.000000E+99

> <Gold.Protein.RotatedTorsions>
[ 6907 6896 6895 6894 ] final  -32.05 input  -60.11 | X-H torsion
[ 7974 7965 7964 7962 ] final -108.07 input  175.53 | X-H torsion
[ 8008 7997 7996 7995 ] final   84.89 input   59.86 | X-H torsion
[ 10167 10162 10161 10158 ] final  -18.03 input  -65.29 | X-H torsion
[ 10718 10713 10712 10709 ] final  128.60 input   66.30 | X-H torsion
[ 10763 10752 10751 10750 ] final  -32.84 input  -60.55 | X-H torsion
[ 11005 11000 10999 10996 ] final  119.45 input  -57.11 | X-H torsion

> <Gold.Protein.ActiveResidues>
 VAL166  LYS551  ARG553  GLY616  TRP617  ASP618  TYR619  PRO620  LYS621  CYS622 
 ASP623  PHE694  ASN695  SER759  ASP760  ASP761  ALA762  ILE779  LEU786  VAL792 
 PHE793  MET794  SER795  GLU796  ALA797  LYS798  CYS799  TRP800  GLU811  SER814 

> <Gold.Protein.RotatedAtoms>
  151.0839  134.9875  159.8369 H   0  0  0  0  0  0  0  0  0  0  0  0  # atno 6907 bound_to 6896
  152.5422  134.2147  159.8774 H   0  0  0  0  0  0  0  0  0  0  0  0  # atno 6908 bound_to 6896
  151.2179  133.4475  159.2633 H   0  0  0  0  0  0  0  0  0  0  0  0  # atno 6909 bound_to 6896
  145.1974  140.9041  143.3389 H   0  0  0  0  0  0  0  0  0  0  0  0  # atno 7974 bound_to 7965
  155.9429  140.3406  155.6342 H   0  0  0  0  0  0  0  0  0  0  0  0  # atno 8008 bound_to 7997
  155.7017  140.0761  157.2426 H   0  0  0  0  0  0  0  0  0  0  0  0  # atno 8009 bound_to 7997
  154.4106  140.1639  156.2186 H   0  0  0  0  0  0  0  0  0  0  0  0  # atno 8010 bound_to 7997
  140.7254  143.4956  150.9935 H   0  0  0  0  0  0  0  0  0  0  0  0  # atno 10167 bound_to 10162
  157.5230  131.1098  150.9125 H   0  0  0  0  0  0  0  0  0  0  0  0  # atno 10718 bound_to 10713
  153.8204  135.6875  153.4828 H   0  0  0  0  0  0  0  0  0  0  0  0  # atno 10763 bound_to 10752
  153.1573  135.4594  154.9720 H   0  0  0  0  0  0  0  0  0  0  0  0  # atno 10764 bound_to 10752
  154.7930  135.3308  154.7676 H   0  0  0  0  0  0  0  0  0  0  0  0  # atno 10765 bound_to 10752
  139.9147  134.9628  156.7658 H   0  0  0  0  0  0  0  0  0  0  0  0  # atno 11005 bound_to 11000
  144.9981  139.3624  143.6181 LP  0  0  0  0  0  0  0  0  0  0  0  0  # atno 17320 bound_to 7965
  146.3424  139.9193  142.8769 LP  0  0  0  0  0  0  0  0  0  0  0  0  # atno 17321 bound_to 7965
  139.8663  143.7250  152.3170 LP  0  0  0  0  0  0  0  0  0  0  0  0  # atno 17342 bound_to 10162
  139.7483  144.7541  151.0546 LP  0  0  0  0  0  0  0  0  0  0  0  0  # atno 17343 bound_to 10162
  156.9730  130.5498  149.5291 LP  0  0  0  0  0  0  0  0  0  0  0  0  # atno 17370 bound_to 10713
  156.0366  130.5453  150.8670 LP  0  0  0  0  0  0  0  0  0  0  0  0  # atno 17371 bound_to 10713
  140.6661  133.9601  155.7831 LP  0  0  0  0  0  0  0  0  0  0  0  0  # atno 17394 bound_to 11000
  141.0610  134.0346  157.3658 LP  0  0  0  0  0  0  0  0  0  0  0  0  # atno 17395 bound_to 11000

$$$$
