AV-unprocessed.smi:903|AV-procd|sdf|4095|dock5
  -GOLD-   22720 1583D 1   1.00000     0.00000
 Structure written by MMmdl.
 28 29  0  0  0  0  0  0  0  0  2 V2000
  154.2622  139.9925  159.2830 O   0  0  0  0  0  0  0  0  0  0  0  0
  153.8879  140.6928  160.2485 C   0  0  0  0  0  0  0  0  0  0  0  0
  154.3142  140.4745  161.4061 O   0  5  0  0  0  0  0  0  0  0  0  0
  152.9057  141.8271  160.0440 C   0  0  0  0  0  0  0  0  0  0  0  0
  152.3252  141.8691  158.8184 N   0  0  0  0  0  0  0  0  0  0  0  0
  151.4311  142.8417  158.5243 C   0  0  0  0  0  0  0  0  0  0  0  0
  150.8565  142.8636  157.2702 O   0  0  0  0  0  0  0  0  0  0  0  0
  151.0910  141.7616  156.3984 C   0  0  0  0  0  0  0  0  0  0  0  0
  149.9443  141.6813  155.3835 C   0  0  2  0  0  0  0  0  0  0  0  0
  148.5730  141.4851  156.0258 C   0  0  0  0  0  0  0  0  0  0  0  0
  147.7889  140.8759  154.8862 C   0  0  0  0  0  0  0  0  0  0  0  0
  148.8317  139.9735  154.2312 C   0  0  0  0  0  0  0  0  0  0  0  0
  150.1017  140.5446  154.5385 O   0  0  0  0  0  0  0  0  0  0  0  0
  151.0659  143.8322  159.4518 C   0  0  0  0  0  0  0  0  0  0  0  0
  151.6573  143.8049  160.7261 C   0  0  0  0  0  0  0  0  0  0  0  0
  152.5904  142.7975  161.0427 C   0  0  0  0  0  0  0  0  0  0  0  0
  153.2755  142.8303  162.6334 Cl  0  0  0  0  0  0  0  0  0  0  0  0
  152.0459  141.8629  155.8796 H   0  0  0  0  0  0  0  0  0  0  0  0
  151.1216  140.8403  156.9829 H   0  0  0  0  0  0  0  0  0  0  0  0
  149.9216  142.5779  154.7618 H   0  0  0  0  0  0  0  0  0  0  0  0
  148.6338  140.7802  156.8564 H   0  0  0  0  0  0  0  0  0  0  0  0
  148.1392  142.4143  156.3959 H   0  0  0  0  0  0  0  0  0  0  0  0
  146.9013  140.3346  155.2147 H   0  0  0  0  0  0  0  0  0  0  0  0
  147.4766  141.6555  154.1900 H   0  0  0  0  0  0  0  0  0  0  0  0
  148.7925  138.9701  154.6564 H   0  0  0  0  0  0  0  0  0  0  0  0
  148.6850  139.8905  153.1541 H   0  0  0  0  0  0  0  0  0  0  0  0
  150.3496  144.5970  159.1914 H   0  0  0  0  0  0  0  0  0  0  0  0
  151.3958  144.5553  161.4578 H   0  0  0  0  0  0  0  0  0  0  0  0
  1  2  2  0  0  0  0
  2  3  1  0  0  0  0
  2  4  1  0  0  0  0
  4 16  1  0  0  0  0
  4  5  2  0  0  0  0
  5  6  1  0  0  0  0
  6  7  1  0  0  0  0
  6 14  2  0  0  0  0
  7  8  1  0  0  0  0
  8  9  1  0  0  0  0
  8 18  1  0  0  0  0
  8 19  1  0  0  0  0
  9 13  1  0  0  0  0
  9 10  1  0  0  0  0
  9 20  1  0  0  0  0
 10 11  1  0  0  0  0
 10 21  1  0  0  0  0
 10 22  1  0  0  0  0
 11 12  1  0  0  0  0
 11 23  1  0  0  0  0
 11 24  1  0  0  0  0
 12 13  1  0  0  0  0
 12 25  1  0  0  0  0
 12 26  1  0  0  0  0
 14 15  1  0  0  0  0
 14 27  1  0  0  0  0
 15 16  2  0  0  0  0
 15 28  1  0  0  0  0
 16 17  1  0  0  0  0
M  CHG  1   3  -1
M  END
> <s_m_source_file>
AV-unprocessed.smi

> <i_m_source_file_index>
903

> <i_lp_mmshare_version>
43012

> <i_f3d_flags>
0

> <s_epik_input>
Tz1DKFtPSF0pYzFuYyhbY0hdW2NIXWMxQ2wpT1tDSDJdW0NAQEhdMltDSDJdW0NIMl1bQ0gyXU8y

> <s_epik_cmdline>
J2VwaWtfcHl0aG9uJywgJy1waCcsICc3LjAnLCAnLXRuJywgJzgnLCAnLW1hJywgJzIwMCcsICctbWV0YWxfYmluZGluZycsICctaW1hZScsICc8aW5maWxlLm1hZT4nLCAnLW9tYWUnLCAnPG91dGZpbGUubWFlPic=

> <r_lp_tautomer_probability>
1

> <r_epik_Ionization_Penalty>
1.22588e-05

> <r_epik_Ionization_Penalty_Charging>
1.01343e-05

> <r_epik_Ionization_Penalty_Neutral>
2.12445e-06

> <r_epik_State_Penalty>
-0

> <r_epik_Charging_Adjusted_Penalty>
1.01343e-05

> <i_epik_Tot_Q>
-1

> <i_epik_Tot_abs_Q>
1

> <r_epik_Metal_State_Penalty>
-0

> <b_epik_Metal_Only>
0

> <s_lp_Force_Field>
OPLS_2005

> <r_lp_Energy>
26.032

> <b_lp_Chiralities_Consistent>
1

> <s_lp_Variant>
AV-unprocessed.smi:903-1

> <Gold.Version>
5.8.1

> <Gold.Id.Protein>
6NUR|6NUR_protein|mol2

> <Gold.PLP.Fitness>
43.2861

> <Gold.PLP.PLP>
-34.9948

> <Gold.PLP.part.hbond>
-2.0000

> <Gold.PLP.part.metal>
0.0000

> <Gold.PLP.part.buried>
-5.7564

> <Gold.PLP.part.nonpolar>
-26.5475

> <Gold.PLP.part.repulsive>
0.2374

> <Gold.PLP.ligand.clash>
0.0000

> <Gold.PLP.ligand.torsion>
0.2498

> <Gold.PLP.Chemscore.Hbond>
2.9280

> <Gold.PLP.Chemscore.CHOScore>
0.0000

> <Gold.PLP.Chemscore.Metal>
0.0000

> <Gold.Chemscore.Hbonds>
donor molecule, donor type, donor heavy atom, donor atom, acceptor molecule, acceptor atom, score
      P1  H  7989  7998       L1    13  0.88
      P1  H  7997  8010       L1     1  1.62

> <Gold.PLP.Chemscore.Internal.Correction>
0.0069

> <Gold.Rescore>
     Score         DG    S(hbond)    S(metal)    S(lipo)     H(rot)  DE(clash)    DE(int)     intcor
     15.52     -17.48       1.66        0.00      88.23       1.51       0.37       1.59       ----

> <Gold.Chemscore.Fitness>
15.5203

> <Gold.Chemscore.DG>
-17.4776

> <Gold.Chemscore.ZeroCoef>
-5.4800

> <Gold.Chemscore.Hbond>
1.6583

> <Gold.Chemscore.Metal>
0.0000

> <Gold.Chemscore.Lipo>
88.2312

> <Gold.Chemscore.Internal_Hbond>
0.0000

> <Gold.Chemscore.DEClash>
0.3716

> <Gold.Chemscore.DEInternal>
1.5858

> <Gold.Chemscore.Rot>
1.5094

> <Gold.Chemscore.Internal.Correction>
   9.000000E+99

> <Gold.Chemscore.Hbonds>
donor molecule, donor type, donor heavy atom, donor atom, acceptor molecule, acceptor atom, score
      P1  H  7989  7998       L1    13  0.48
      P1  H  7997  8010       L1     1  0.76

> <Gold.Chemscore.Hbond.Weighted>
-5.5386

> <Gold.Chemscore.Metal.Weighted>
-0.0000

> <Gold.Chemscore.Lipo.Weighted>
-10.3230

> <Gold.Chemscore.Internal_Hbond.Weighted>
0.0000

> <Gold.Chemscore.DEClash.Weighted>
0.3716

> <Gold.Chemscore.DEInternal.Weighted>
1.5858

> <Gold.Chemscore.Rot.Weighted>
3.8641

> <Gold.Chemscore.Internal.Correction.Weighted>
   9.000000E+99

> <Gold.Protein.RotatedTorsions>
[ 6907 6896 6895 6894 ] final  158.91 input  -60.11 | X-H torsion
[ 7974 7965 7964 7962 ] final  -45.76 input  175.53 | X-H torsion
[ 8008 7997 7996 7995 ] final    5.73 input   59.86 | X-H torsion
[ 10167 10162 10161 10158 ] final  -55.31 input  -65.29 | X-H torsion
[ 10718 10713 10712 10709 ] final  165.19 input   66.30 | X-H torsion
[ 10763 10752 10751 10750 ] final  179.25 input  -60.55 | X-H torsion
[ 11005 11000 10999 10996 ] final -170.66 input  -57.11 | X-H torsion

> <Gold.Protein.ActiveResidues>
 VAL166  LYS551  ARG553  GLY616  TRP617  ASP618  TYR619  PRO620  LYS621  CYS622 
 ASP623  PHE694  ASN695  SER759  ASP760  ASP761  ALA762  ILE779  LEU786  VAL792 
 PHE793  MET794  SER795  GLU796  ALA797  LYS798  CYS799  TRP800  GLU811  SER814 

> <Gold.Protein.RotatedAtoms>
  151.9933  133.3799  159.4152 H   0  0  0  0  0  0  0  0  0  0  0  0  # atno 6907 bound_to 6896
  150.6919  134.3913  159.5086 H   0  0  0  0  0  0  0  0  0  0  0  0  # atno 6908 bound_to 6896
  152.1649  134.8881  160.0589 H   0  0  0  0  0  0  0  0  0  0  0  0  # atno 6909 bound_to 6896
  145.9788  140.7305  142.9374 H   0  0  0  0  0  0  0  0  0  0  0  0  # atno 7974 bound_to 7965
  154.7320  140.2732  155.6448 H   0  0  0  0  0  0  0  0  0  0  0  0  # atno 8008 bound_to 7997
  156.2852  140.2714  156.1948 H   0  0  0  0  0  0  0  0  0  0  0  0  # atno 8009 bound_to 7997
  155.0369  140.0371  157.2485 H   0  0  0  0  0  0  0  0  0  0  0  0  # atno 8010 bound_to 7997
  140.6382  143.2493  151.5062 H   0  0  0  0  0  0  0  0  0  0  0  0  # atno 10167 bound_to 10162
  157.0837  131.0399  151.2565 H   0  0  0  0  0  0  0  0  0  0  0  0  # atno 10718 bound_to 10713
  154.5182  135.2792  155.1285 H   0  0  0  0  0  0  0  0  0  0  0  0  # atno 10763 bound_to 10752
  154.2853  135.6277  153.5367 H   0  0  0  0  0  0  0  0  0  0  0  0  # atno 10764 bound_to 10752
  152.9931  135.5661  154.5665 H   0  0  0  0  0  0  0  0  0  0  0  0  # atno 10765 bound_to 10752
  140.5170  134.5746  157.5036 H   0  0  0  0  0  0  0  0  0  0  0  0  # atno 11005 bound_to 11000
  144.6856  140.2873  143.7283 LP  0  0  0  0  0  0  0  0  0  0  0  0  # atno 17320 bound_to 7965
  145.7799  139.1888  143.2163 LP  0  0  0  0  0  0  0  0  0  0  0  0  # atno 17321 bound_to 7965
  139.5591  144.2200  152.1662 LP  0  0  0  0  0  0  0  0  0  0  0  0  # atno 17342 bound_to 10162
  140.1463  144.5156  150.6714 LP  0  0  0  0  0  0  0  0  0  0  0  0  # atno 17343 bound_to 10162
  157.4779  130.7747  149.7385 LP  0  0  0  0  0  0  0  0  0  0  0  0  # atno 17370 bound_to 10713
  155.9916  130.3936  150.2976 LP  0  0  0  0  0  0  0  0  0  0  0  0  # atno 17371 bound_to 10713
  139.9627  134.7425  156.0203 LP  0  0  0  0  0  0  0  0  0  0  0  0  # atno 17394 bound_to 11000
  141.1355  133.6576  156.3581 LP  0  0  0  0  0  0  0  0  0  0  0  0  # atno 17395 bound_to 11000

$$$$
