AV-unprocessed.smi:1491|AV-procd|sdf|6034|dock8
  -GOLD-   22720 6143D 1   1.00000     0.00000
 Structure written by MMmdl.
 38 39  0  0  0  0  0  0  0  0  1 V2000
  145.2776  135.2728  154.1168 O   0  0  0  0  0  0  0  0  0  0  0  0
  146.3491  135.3138  153.5118 C   0  0  0  0  0  0  0  0  0  0  0  0
  147.3604  136.1341  153.8310 N   0  0  0  0  0  0  0  0  0  0  0  0
  147.3637  137.0707  154.9508 C   0  0  0  0  0  0  0  0  0  0  0  0
  147.6095  138.5196  154.4899 C   0  0  0  0  0  0  0  0  0  0  0  0
  149.0202  138.8530  154.4189 N   0  0  0  0  0  0  0  0  0  0  0  0
  150.0957  137.9878  154.5724 C   0  0  0  0  0  0  0  0  0  0  0  0
  151.2346  138.7479  154.4320 C   0  0  0  0  0  0  0  0  0  0  0  0
  150.8864  140.0737  154.1860 N   0  0  0  0  0  0  0  0  0  0  0  0
  149.5597  140.0584  154.1911 C   0  0  0  0  0  0  0  0  0  0  0  0
  146.6555  134.5377  152.4631 N   0  0  0  0  0  0  0  0  0  0  0  0
  145.7926  133.5169  151.8753 C   0  0  2  0  0  0  0  0  0  0  0  0
  146.3867  133.0435  150.5346 C   0  0  0  0  0  0  0  0  0  0  0  0
  145.4630  132.0334  149.8349 C   0  0  0  0  0  0  0  0  0  0  0  0
  144.0523  132.6152  149.6405 C   0  0  1  0  0  0  0  0  0  0  0  0
  143.2150  131.6382  149.0594 O   0  0  0  0  0  0  0  0  0  0  0  0
  143.4529  133.0747  150.9807 C   0  0  0  0  0  0  0  0  0  0  0  0
  144.3742  134.0858  151.6817 C   0  0  0  0  0  0  0  0  0  0  0  0
  148.1987  136.0945  153.2699 H   0  0  0  0  0  0  0  0  0  0  0  0
  146.3864  137.0090  155.4299 H   0  0  0  0  0  0  0  0  0  0  0  0
  148.0908  136.7771  155.7102 H   0  0  0  0  0  0  0  0  0  0  0  0
  147.1544  138.6933  153.5137 H   0  0  0  0  0  0  0  0  0  0  0  0
  147.1341  139.2131  155.1842 H   0  0  0  0  0  0  0  0  0  0  0  0
  149.9655  136.9342  154.7700 H   0  0  0  0  0  0  0  0  0  0  0  0
  152.2697  138.4452  154.4883 H   0  0  0  0  0  0  0  0  0  0  0  0
  148.9654  140.9464  154.0321 H   0  0  0  0  0  0  0  0  0  0  0  0
  147.5666  134.6514  152.0438 H   0  0  0  0  0  0  0  0  0  0  0  0
  145.7212  132.6522  152.5382 H   0  0  0  0  0  0  0  0  0  0  0  0
  146.5459  133.8999  149.8775 H   0  0  0  0  0  0  0  0  0  0  0  0
  147.3665  132.5927  150.6984 H   0  0  0  0  0  0  0  0  0  0  0  0
  145.8886  131.7514  148.8712 H   0  0  0  0  0  0  0  0  0  0  0  0
  145.4098  131.1204  150.4299 H   0  0  0  0  0  0  0  0  0  0  0  0
  144.1021  133.4639  148.9568 H   0  0  0  0  0  0  0  0  0  0  0  0
  142.3393  131.7545  149.3955 H   0  0  0  0  0  0  0  0  0  0  0  0
  142.4710  133.5215  150.8194 H   0  0  0  0  0  0  0  0  0  0  0  0
  143.2985  132.2141  151.6332 H   0  0  0  0  0  0  0  0  0  0  0  0
  143.9482  134.3623  152.6469 H   0  0  0  0  0  0  0  0  0  0  0  0
  144.4196  135.0015  151.0904 H   0  0  0  0  0  0  0  0  0  0  0  0
  1  2  2  0  0  0  0
  2  3  1  0  0  0  0
  2 11  1  0  0  0  0
  3  4  1  0  0  0  0
  3 19  1  0  0  0  0
  4  5  1  0  0  0  0
  4 20  1  0  0  0  0
  4 21  1  0  0  0  0
  5  6  1  0  0  0  0
  5 22  1  0  0  0  0
  5 23  1  0  0  0  0
  6 10  1  0  0  0  0
  6  7  1  0  0  0  0
  7  8  2  0  0  0  0
  7 24  1  0  0  0  0
  8  9  1  0  0  0  0
  8 25  1  0  0  0  0
  9 10  2  0  0  0  0
 10 26  1  0  0  0  0
 11 12  1  0  0  0  0
 11 27  1  0  0  0  0
 12 18  1  0  0  0  0
 12 13  1  0  0  0  0
 12 28  1  0  0  0  0
 13 14  1  0  0  0  0
 13 29  1  0  0  0  0
 13 30  1  0  0  0  0
 14 15  1  0  0  0  0
 14 31  1  0  0  0  0
 14 32  1  0  0  0  0
 15 16  1  0  0  0  0
 15 17  1  0  0  0  0
 15 33  1  0  0  0  0
 16 34  1  0  0  0  0
 17 18  1  0  0  0  0
 17 35  1  0  0  0  0
 17 36  1  0  0  0  0
 18 37  1  0  0  0  0
 18 38  1  0  0  0  0
M  END
> <s_m_source_file>
AV-unprocessed.smi

> <i_m_source_file_index>
1491

> <i_lp_mmshare_version>
43012

> <i_f3d_flags>
0

> <s_epik_input>
W0NIMl0xW0NIMl1bQ0BIXShbT0hdKVtDSDJdW0NIMl1bQ0BIXTFbTkhdQyg9TylbTkhdW0NIMl1bQ0gyXW4yW2NIXVtjSF1uW2NIXTI=

> <s_epik_cmdline>
J2VwaWtfcHl0aG9uJywgJy1waCcsICc3LjAnLCAnLXRuJywgJzgnLCAnLW1hJywgJzIwMCcsICctbWV0YWxfYmluZGluZycsICctaW1hZScsICc8aW5maWxlLm1hZT4nLCAnLW9tYWUnLCAnPG91dGZpbGUubWFlPic=

> <r_lp_tautomer_probability>
1

> <r_epik_Ionization_Penalty>
0.623245

> <r_epik_Ionization_Penalty_Charging>
0.623187

> <r_epik_Ionization_Penalty_Neutral>
5.75214e-05

> <r_epik_State_Penalty>
0.639392

> <r_epik_Charging_Adjusted_Penalty>
1.26258

> <i_epik_Tot_Q>
0

> <i_epik_Tot_abs_Q>
0

> <r_epik_Metal_State_Penalty>
0.307266

> <b_epik_Metal_Only>
0

> <s_lp_Force_Field>
OPLS_2005

> <r_lp_Energy>
7.54437

> <b_lp_Chiralities_Consistent>
1

> <s_lp_Variant>
AV-unprocessed.smi:1491-3

> <Gold.Version>
5.8.1

> <Gold.Id.Protein>
6NUR|6NUR_protein|mol2

> <Gold.PLP.Fitness>
45.8564

> <Gold.PLP.PLP>
-33.9693

> <Gold.PLP.part.hbond>
-5.0000

> <Gold.PLP.part.metal>
0.0000

> <Gold.PLP.part.buried>
-5.7815

> <Gold.PLP.part.nonpolar>
-23.7884

> <Gold.PLP.part.repulsive>
0.1704

> <Gold.PLP.ligand.clash>
0.0000

> <Gold.PLP.ligand.torsion>
0.3582

> <Gold.PLP.Chemscore.Hbond>
4.1983

> <Gold.PLP.Chemscore.CHOScore>
0.0000

> <Gold.PLP.Chemscore.Metal>
0.0000

> <Gold.Chemscore.Hbonds>
donor molecule, donor type, donor heavy atom, donor atom, acceptor molecule, acceptor atom, score
      L1  H     3    19       P1  7948  1.00
      L1  H    11    27       P1  7948  0.68
      L1  H    16    34       P1 10952  0.51
      P1  H  7989  7998       L1     9  0.39
      P1  H 10785 10796       L1    16  0.99

> <Gold.PLP.Chemscore.Internal.Correction>
0.0084

> <Gold.Rescore>
     Score         DG    S(hbond)    S(metal)    S(lipo)     H(rot)  DE(clash)    DE(int)     intcor
     16.20     -17.97       3.46        0.00      64.33       2.57       0.21       1.57       ----

> <Gold.Chemscore.Fitness>
16.1958

> <Gold.Chemscore.DG>
-17.9725

> <Gold.Chemscore.ZeroCoef>
-5.4800

> <Gold.Chemscore.Hbond>
3.4597

> <Gold.Chemscore.Metal>
0.0000

> <Gold.Chemscore.Lipo>
64.3252

> <Gold.Chemscore.Internal_Hbond>
0.0000

> <Gold.Chemscore.DEClash>
0.2096

> <Gold.Chemscore.DEInternal>
1.5672

> <Gold.Chemscore.Rot>
2.5738

> <Gold.Chemscore.Internal.Correction>
   9.000000E+99

> <Gold.Chemscore.Hbonds>
donor molecule, donor type, donor heavy atom, donor atom, acceptor molecule, acceptor atom, score
      L1  H     3    19       P1  7948  0.95
      L1  H    11    27       P1  7948  0.43
      L1  H    16    34       P1 10952  0.51
      P1  H  7989  7998       L1     9  0.39
      P1  H 10785 10796       L1    16  0.27

> <Gold.Chemscore.Hbond.Weighted>
-11.5554

> <Gold.Chemscore.Metal.Weighted>
-0.0000

> <Gold.Chemscore.Lipo.Weighted>
-7.5260

> <Gold.Chemscore.Internal_Hbond.Weighted>
0.0000

> <Gold.Chemscore.DEClash.Weighted>
0.2096

> <Gold.Chemscore.DEInternal.Weighted>
1.5672

> <Gold.Chemscore.Rot.Weighted>
6.5890

> <Gold.Chemscore.Internal.Correction.Weighted>
   9.000000E+99

> <Gold.Protein.RotatedTorsions>
[ 6907 6896 6895 6894 ] final   91.21 input  -60.11 | X-H torsion
[ 7974 7965 7964 7962 ] final   75.47 input  175.53 | X-H torsion
[ 8008 7997 7996 7995 ] final   83.56 input   59.86 | X-H torsion
[ 10167 10162 10161 10158 ] final   53.30 input  -65.29 | X-H torsion
[ 10718 10713 10712 10709 ] final -108.38 input   66.30 | X-H torsion
[ 10763 10752 10751 10750 ] final -128.33 input  -60.55 | X-H torsion
[ 11005 11000 10999 10996 ] final  -43.93 input  -57.11 | X-H torsion

> <Gold.Protein.ActiveResidues>
 VAL166  LYS551  ARG553  GLY616  TRP617  ASP618  TYR619  PRO620  LYS621  CYS622 
 ASP623  PHE694  ASN695  SER759  ASP760  ASP761  ALA762  ILE779  LEU786  VAL792 
 PHE793  MET794  SER795  GLU796  ALA797  LYS798  CYS799  TRP800  GLU811  SER814 

> <Gold.Protein.RotatedAtoms>
  152.5449  134.1693  159.8589 H   0  0  0  0  0  0  0  0  0  0  0  0  # atno 6907 bound_to 6896
  151.1704  133.4781  159.2601 H   0  0  0  0  0  0  0  0  0  0  0  0  # atno 6908 bound_to 6896
  151.1281  135.0127  159.8625 H   0  0  0  0  0  0  0  0  0  0  0  0  # atno 6909 bound_to 6896
  145.7152  139.2628  143.1628 H   0  0  0  0  0  0  0  0  0  0  0  0  # atno 7974 bound_to 7965
  155.9255  140.3418  155.6207 H   0  0  0  0  0  0  0  0  0  0  0  0  # atno 8008 bound_to 7997
  155.7221  140.0785  157.2344 H   0  0  0  0  0  0  0  0  0  0  0  0  # atno 8009 bound_to 7997
  154.4076  140.1603  156.2401 H   0  0  0  0  0  0  0  0  0  0  0  0  # atno 8010 bound_to 7997
  140.2423  144.3570  150.6376 H   0  0  0  0  0  0  0  0  0  0  0  0  # atno 10167 bound_to 10162
  156.0482  130.5710  150.7952 H   0  0  0  0  0  0  0  0  0  0  0  0  # atno 10718 bound_to 10713
  154.8756  135.3932  154.3739 H   0  0  0  0  0  0  0  0  0  0  0  0  # atno 10763 bound_to 10752
  153.4495  135.7028  153.6123 H   0  0  0  0  0  0  0  0  0  0  0  0  # atno 10764 bound_to 10752
  153.4669  135.3799  155.2338 H   0  0  0  0  0  0  0  0  0  0  0  0  # atno 10765 bound_to 10752
  141.0417  133.6777  156.2801 H   0  0  0  0  0  0  0  0  0  0  0  0  # atno 11005 bound_to 11000
  146.0676  140.7903  142.9704 LP  0  0  0  0  0  0  0  0  0  0  0  0  # atno 17320 bound_to 7965
  144.6931  140.3293  143.7219 LP  0  0  0  0  0  0  0  0  0  0  0  0  # atno 17321 bound_to 7965
  140.6104  143.2169  151.6897 LP  0  0  0  0  0  0  0  0  0  0  0  0  # atno 17342 bound_to 10162
  139.5073  144.3650  152.0525 LP  0  0  0  0  0  0  0  0  0  0  0  0  # atno 17343 bound_to 10162
  157.5381  131.0939  150.9864 LP  0  0  0  0  0  0  0  0  0  0  0  0  # atno 17370 bound_to 10713
  157.0154  130.5653  149.5325 LP  0  0  0  0  0  0  0  0  0  0  0  0  # atno 17371 bound_to 10713
  140.6223  134.5349  157.5549 LP  0  0  0  0  0  0  0  0  0  0  0  0  # atno 17394 bound_to 11000
  139.9280  134.8018  156.1011 LP  0  0  0  0  0  0  0  0  0  0  0  0  # atno 17395 bound_to 11000

$$$$
