AV-unprocessed.smi:1125|AV-procd|sdf|4836|dock1
  -GOLD-   22720 3403D 1   1.00000     0.00000
 Structure written by MMmdl.
 45 46  0  0  0  0  0  0  0  0  1 V2000
  144.5565  135.5161  150.3521 C   0  0  0  0  0  0  0  0  0  0  0  0
  145.4518  134.4114  150.6649 N   0  0  0  0  0  0  0  0  0  0  0  0
  144.9252  133.1794  150.0763 C   0  0  0  0  0  0  0  0  0  0  0  0
  145.8888  132.0092  150.3424 C   0  0  0  0  0  0  0  0  0  0  0  0
  146.1122  131.8104  151.8493 C   0  0  0  0  0  0  0  0  0  0  0  0
  147.1208  130.7788  152.0701 N   0  0  0  0  0  0  0  0  0  0  0  0
  147.2355  130.0334  153.1806 C   0  0  0  0  0  0  0  0  0  0  0  0
  146.4913  130.1474  154.1545 O   0  0  0  0  0  0  0  0  0  0  0  0
  148.3661  129.0037  153.1994 C   0  0  0  0  0  0  0  0  0  0  0  0
  149.4724  129.4591  154.1064 C   0  0  0  0  0  0  0  0  0  0  0  0
  150.6653  128.8213  154.3362 C   0  0  0  0  0  0  0  0  0  0  0  0
  151.6638  129.6987  155.4596 S   0  0  0  0  0  0  0  0  0  0  0  0
  150.4000  130.9269  155.5939 C   0  0  0  0  0  0  0  0  0  0  0  0
  150.4766  132.1559  156.4680 C   0  0  0  0  0  0  0  0  0  0  0  0
  149.3860  132.0937  157.5551 C   0  0  0  0  0  0  0  0  0  0  0  0
  150.2433  133.4434  155.6481 C   0  0  0  0  0  0  0  0  0  0  0  0
  151.8759  132.2564  157.1057 C   0  0  0  0  0  0  0  0  0  0  0  0
  149.3374  130.6481  154.8296 N   0  0  0  0  0  0  0  0  0  0  0  0
  146.5446  133.1477  152.4765 C   0  0  0  0  0  0  0  0  0  0  0  0
  145.5567  134.2718  152.1178 C   0  0  0  0  0  0  0  0  0  0  0  0
  144.4761  135.6499  149.2730 H   0  0  0  0  0  0  0  0  0  0  0  0
  144.9366  136.4473  150.7735 H   0  0  0  0  0  0  0  0  0  0  0  0
  143.5558  135.3442  150.7512 H   0  0  0  0  0  0  0  0  0  0  0  0
  143.9381  132.9574  150.4853 H   0  0  0  0  0  0  0  0  0  0  0  0
  144.8043  133.3118  149.0005 H   0  0  0  0  0  0  0  0  0  0  0  0
  145.4901  131.0956  149.9001 H   0  0  0  0  0  0  0  0  0  0  0  0
  146.8404  132.2044  149.8447 H   0  0  0  0  0  0  0  0  0  0  0  0
  145.1679  131.4946  152.2972 H   0  0  0  0  0  0  0  0  0  0  0  0
  147.7736  130.6110  151.3182 H   0  0  0  0  0  0  0  0  0  0  0  0
  147.9670  128.0396  153.5180 H   0  0  0  0  0  0  0  0  0  0  0  0
  148.7406  128.8607  152.1851 H   0  0  0  0  0  0  0  0  0  0  0  0
  151.0171  127.8940  153.9087 H   0  0  0  0  0  0  0  0  0  0  0  0
  149.4074  132.9793  158.1912 H   0  0  0  0  0  0  0  0  0  0  0  0
  149.5154  131.2263  158.2033 H   0  0  0  0  0  0  0  0  0  0  0  0
  148.3904  132.0285  157.1141 H   0  0  0  0  0  0  0  0  0  0  0  0
  149.2608  133.4466  155.1745 H   0  0  0  0  0  0  0  0  0  0  0  0
  150.9921  133.5638  154.8642 H   0  0  0  0  0  0  0  0  0  0  0  0
  150.2971  134.3305  156.2803 H   0  0  0  0  0  0  0  0  0  0  0  0
  151.9653  133.1440  157.7330 H   0  0  0  0  0  0  0  0  0  0  0  0
  152.6553  132.3111  156.3446 H   0  0  0  0  0  0  0  0  0  0  0  0
  152.0921  131.3919  157.7347 H   0  0  0  0  0  0  0  0  0  0  0  0
  146.6114  133.0522  153.5608 H   0  0  0  0  0  0  0  0  0  0  0  0
  147.5428  133.4180  152.1282 H   0  0  0  0  0  0  0  0  0  0  0  0
  145.9047  135.2108  152.5501 H   0  0  0  0  0  0  0  0  0  0  0  0
  144.5757  134.0648  152.5489 H   0  0  0  0  0  0  0  0  0  0  0  0
  1  2  1  0  0  0  0
  1 21  1  0  0  0  0
  1 22  1  0  0  0  0
  1 23  1  0  0  0  0
  2 20  1  0  0  0  0
  2  3  1  0  0  0  0
  3  4  1  0  0  0  0
  3 24  1  0  0  0  0
  3 25  1  0  0  0  0
  4  5  1  0  0  0  0
  4 26  1  0  0  0  0
  4 27  1  0  0  0  0
  5  6  1  0  0  0  0
  5 19  1  0  0  0  0
  5 28  1  0  0  0  0
  6  7  1  0  0  0  0
  6 29  1  0  0  0  0
  7  8  2  0  0  0  0
  7  9  1  0  0  0  0
  9 10  1  0  0  0  0
  9 30  1  0  0  0  0
  9 31  1  0  0  0  0
 10 18  1  0  0  0  0
 10 11  2  0  0  0  0
 11 12  1  0  0  0  0
 11 32  1  0  0  0  0
 12 13  1  0  0  0  0
 13 14  1  0  0  0  0
 13 18  2  0  0  0  0
 14 15  1  0  0  0  0
 14 16  1  0  0  0  0
 14 17  1  0  0  0  0
 15 33  1  0  0  0  0
 15 34  1  0  0  0  0
 15 35  1  0  0  0  0
 16 36  1  0  0  0  0
 16 37  1  0  0  0  0
 16 38  1  0  0  0  0
 17 39  1  0  0  0  0
 17 40  1  0  0  0  0
 17 41  1  0  0  0  0
 19 20  1  0  0  0  0
 19 42  1  0  0  0  0
 19 43  1  0  0  0  0
 20 44  1  0  0  0  0
 20 45  1  0  0  0  0
M  END
> <s_m_source_file>
AV-unprocessed.smi

> <i_m_source_file_index>
1125

> <i_lp_mmshare_version>
43012

> <i_f3d_flags>
0

> <s_epik_input>
W0NIM11OMVtDSDJdW0NIMl1bQ0hdKFtDSDJdW0NIMl0xKVtOSF1DKD1PKVtDSDJdYzJbY0hdc2MobjIpQyhbQ0gzXSkoW0NIM10pW0NIM10=

> <s_epik_cmdline>
J2VwaWtfcHl0aG9uJywgJy1waCcsICc3LjAnLCAnLXRuJywgJzgnLCAnLW1hJywgJzIwMCcsICctbWV0YWxfYmluZGluZycsICctaW1hZScsICc8aW5maWxlLm1hZT4nLCAnLW9tYWUnLCAnPG91dGZpbGUubWFlPic=

> <r_epik_Ionization_Penalty>
2.53567

> <r_epik_Ionization_Penalty_Charging>
0

> <r_epik_Ionization_Penalty_Neutral>
2.53567

> <r_epik_State_Penalty>
2.70312

> <r_epik_Charging_Adjusted_Penalty>
2.70312

> <i_epik_Tot_Q>
0

> <i_epik_Tot_abs_Q>
0

> <r_epik_Metal_State_Penalty>
2.70311

> <b_epik_Metal_Only>
0

> <s_lp_Force_Field>
OPLS_2005

> <r_lp_Energy>
6.33754

> <b_lp_Chiralities_Consistent>
1

> <s_lp_Variant>
AV-unprocessed.smi:1125-3

> <Gold.Version>
5.8.1

> <Gold.Id.Protein>
6NUR|6NUR_protein|mol2

> <Gold.PLP.Fitness>
37.3632

> <Gold.PLP.PLP>
-32.5995

> <Gold.PLP.part.hbond>
-1.0000

> <Gold.PLP.part.metal>
0.0000

> <Gold.PLP.part.buried>
-3.2637

> <Gold.PLP.part.nonpolar>
-26.9962

> <Gold.PLP.part.repulsive>
0.8300

> <Gold.PLP.ligand.clash>
0.0000

> <Gold.PLP.ligand.torsion>
0.5730

> <Gold.PLP.Chemscore.Hbond>
1.0000

> <Gold.PLP.Chemscore.CHOScore>
0.9640

> <Gold.PLP.Chemscore.Metal>
0.0000

> <Gold.Chemscore.Hbonds>
donor molecule, donor type, donor heavy atom, donor atom, acceptor molecule, acceptor atom, score
      L1  H     6    29       P1 10747  1.00
      L1  C    11    32       P1 10737  0.88

> <Gold.PLP.Chemscore.Internal.Correction>
0.0179

> <Gold.Rescore>
     Score         DG    S(hbond)    S(metal)    S(lipo)     H(rot)  DE(clash)    DE(int)     intcor
     14.00     -15.53       0.99        0.00      87.26       1.35       0.08       1.45       ----

> <Gold.Chemscore.Fitness>
13.9970

> <Gold.Chemscore.DG>
-15.5262

> <Gold.Chemscore.ZeroCoef>
-5.4800

> <Gold.Chemscore.Hbond>
0.9879

> <Gold.Chemscore.Metal>
0.0000

> <Gold.Chemscore.Lipo>
87.2579

> <Gold.Chemscore.Internal_Hbond>
0.0000

> <Gold.Chemscore.DEClash>
0.0799

> <Gold.Chemscore.DEInternal>
1.4493

> <Gold.Chemscore.Rot>
1.3526

> <Gold.Chemscore.Internal.Correction>
   9.000000E+99

> <Gold.Chemscore.Hbonds>
donor molecule, donor type, donor heavy atom, donor atom, acceptor molecule, acceptor atom, score
      L1  H     6    29       P1 10747  0.98

> <Gold.Chemscore.Hbond.Weighted>
-3.2996

> <Gold.Chemscore.Metal.Weighted>
-0.0000

> <Gold.Chemscore.Lipo.Weighted>
-10.2092

> <Gold.Chemscore.Internal_Hbond.Weighted>
0.0000

> <Gold.Chemscore.DEClash.Weighted>
0.0799

> <Gold.Chemscore.DEInternal.Weighted>
1.4493

> <Gold.Chemscore.Rot.Weighted>
3.4626

> <Gold.Chemscore.Internal.Correction.Weighted>
   9.000000E+99

> <Gold.Protein.RotatedTorsions>
[ 6907 6896 6895 6894 ] final  144.69 input  -60.11 | X-H torsion
[ 7974 7965 7964 7962 ] final   -8.70 input  175.53 | X-H torsion
[ 8008 7997 7996 7995 ] final  -56.76 input   59.86 | X-H torsion
[ 10167 10162 10161 10158 ] final -155.19 input  -65.29 | X-H torsion
[ 10718 10713 10712 10709 ] final   64.76 input   66.30 | X-H torsion
[ 10763 10752 10751 10750 ] final   90.68 input  -60.55 | X-H torsion
[ 11005 11000 10999 10996 ] final  172.11 input  -57.11 | X-H torsion

> <Gold.Protein.ActiveResidues>
 VAL166  LYS551  ARG553  GLY616  TRP617  ASP618  TYR619  PRO620  LYS621  CYS622 
 ASP623  PHE694  ASN695  SER759  ASP760  ASP761  ALA762  ILE779  LEU786  VAL792 
 PHE793  MET794  SER795  GLU796  ALA797  LYS798  CYS799  TRP800  GLU811  SER814 

> <Gold.Protein.RotatedAtoms>
  152.1905  133.4769  159.5004 H   0  0  0  0  0  0  0  0  0  0  0  0  # atno 6907 bound_to 6896
  150.6950  134.1719  159.4224 H   0  0  0  0  0  0  0  0  0  0  0  0  # atno 6908 bound_to 6896
  151.9633  135.0112  160.0599 H   0  0  0  0  0  0  0  0  0  0  0  0  # atno 6909 bound_to 6896
  146.2273  140.2507  142.8347 H   0  0  0  0  0  0  0  0  0  0  0  0  # atno 7974 bound_to 7965
  154.4242  140.1122  156.5690 H   0  0  0  0  0  0  0  0  0  0  0  0  # atno 8008 bound_to 7997
  155.6232  140.3495  155.4640 H   0  0  0  0  0  0  0  0  0  0  0  0  # atno 8009 bound_to 7997
  156.0007  140.1198  157.0539 H   0  0  0  0  0  0  0  0  0  0  0  0  # atno 8010 bound_to 7997
  139.6951  143.9355  152.2403 H   0  0  0  0  0  0  0  0  0  0  0  0  # atno 10167 bound_to 10162
  157.6061  130.9177  149.9888 H   0  0  0  0  0  0  0  0  0  0  0  0  # atno 10718 bound_to 10713
  153.2001  135.4425  155.0256 H   0  0  0  0  0  0  0  0  0  0  0  0  # atno 10763 bound_to 10752
  154.8142  135.3307  154.7225 H   0  0  0  0  0  0  0  0  0  0  0  0  # atno 10764 bound_to 10752
  153.7671  135.6987  153.4969 H   0  0  0  0  0  0  0  0  0  0  0  0  # atno 10765 bound_to 10752
  140.3262  134.7395  157.4101 H   0  0  0  0  0  0  0  0  0  0  0  0  # atno 11005 bound_to 11000
  144.9414  140.8082  143.5628 LP  0  0  0  0  0  0  0  0  0  0  0  0  # atno 17320 bound_to 7965
  145.2459  139.2052  143.4968 LP  0  0  0  0  0  0  0  0  0  0  0  0  # atno 17321 bound_to 7965
  139.9182  144.6815  150.8489 LP  0  0  0  0  0  0  0  0  0  0  0  0  # atno 17342 bound_to 10162
  140.7694  143.3394  151.2241 LP  0  0  0  0  0  0  0  0  0  0  0  0  # atno 17343 bound_to 10162
  156.1148  130.3648  149.9987 LP  0  0  0  0  0  0  0  0  0  0  0  0  # atno 17370 bound_to 10713
  156.8079  130.9314  151.3645 LP  0  0  0  0  0  0  0  0  0  0  0  0  # atno 17371 bound_to 10713
  140.0899  134.5615  155.8455 LP  0  0  0  0  0  0  0  0  0  0  0  0  # atno 17394 bound_to 11000
  141.2074  133.6664  156.6306 LP  0  0  0  0  0  0  0  0  0  0  0  0  # atno 17395 bound_to 11000

$$$$
