AV-unprocessed.smi:3258|AV-procd|sdf|12469|dock5
  -GOLD-   2272018363D 1   1.00000     0.00000
 Structure written by MMmdl.
 38 39  0  0  0  0  0  0  0  0  1 V2000
  145.6629  134.1118  154.7210 C   0  0  0  0  0  0  0  0  0  0  0  0
  145.9799  134.2489  153.2235 C   0  0  1  0  0  0  0  0  0  0  0  0
  144.7002  134.1746  152.3682 C   0  0  0  0  0  0  0  0  0  0  0  0
  144.8861  133.3839  151.1639 N   0  0  0  0  0  0  0  0  0  0  0  0
  143.9968  133.1780  150.1303 C   0  0  0  0  0  0  0  0  0  0  0  0
  144.6081  132.3580  149.2258 C   0  0  0  0  0  0  0  0  0  0  0  0
  145.8868  132.1144  149.8008 C   0  0  0  0  0  0  0  0  0  0  0  0
  146.0507  132.7302  150.9606 N   0  0  0  0  0  0  0  0  0  0  0  0
  146.6777  135.5089  152.9751 N   0  0  0  0  0  0  0  0  0  0  0  0
  146.2096  136.7273  153.2781 C   0  0  0  0  0  0  0  0  0  0  0  0
  145.1091  136.9372  153.7885 O   0  0  0  0  0  0  0  0  0  0  0  0
  147.0850  137.6887  152.9527 N   0  0  0  0  0  0  0  0  0  0  0  0
  146.8761  139.1211  153.1392 C   0  0  0  0  0  0  0  0  0  0  0  0
  147.8850  139.7216  154.1359 C   0  0  2  0  0  0  0  0  0  0  0  0
  148.0692  141.2184  153.9941 C   0  0  0  0  0  0  0  0  0  0  0  0
  149.3845  141.4462  154.7330 C   0  0  0  0  0  0  0  0  0  0  0  0
  150.1438  140.2545  154.5517 O   0  0  0  0  0  0  0  0  0  0  0  0
  149.3283  139.2387  153.9754 C   0  0  0  0  0  0  0  0  0  0  0  0
  145.1554  133.1697  154.9293 H   0  0  0  0  0  0  0  0  0  0  0  0
  145.0174  134.9207  155.0654 H   0  0  0  0  0  0  0  0  0  0  0  0
  146.5727  134.1323  155.3216 H   0  0  0  0  0  0  0  0  0  0  0  0
  146.6264  133.4174  152.9362 H   0  0  0  0  0  0  0  0  0  0  0  0
  143.8927  133.7196  152.9432 H   0  0  0  0  0  0  0  0  0  0  0  0
  144.3601  135.1746  152.0934 H   0  0  0  0  0  0  0  0  0  0  0  0
  143.0133  133.6247  150.1267 H   0  0  0  0  0  0  0  0  0  0  0  0
  144.2035  131.9879  148.2955 H   0  0  0  0  0  0  0  0  0  0  0  0
  146.6950  131.5124  149.4128 H   0  0  0  0  0  0  0  0  0  0  0  0
  147.5960  135.4429  152.5608 H   0  0  0  0  0  0  0  0  0  0  0  0
  147.9632  137.4091  152.5407 H   0  0  0  0  0  0  0  0  0  0  0  0
  146.9158  139.6482  152.1843 H   0  0  0  0  0  0  0  0  0  0  0  0
  145.8639  139.2590  153.5199 H   0  0  0  0  0  0  0  0  0  0  0  0
  147.5559  139.5110  155.1551 H   0  0  0  0  0  0  0  0  0  0  0  0
  148.1793  141.4910  152.9435 H   0  0  0  0  0  0  0  0  0  0  0  0
  147.2430  141.7946  154.4119 H   0  0  0  0  0  0  0  0  0  0  0  0
  149.9214  142.3217  154.3671 H   0  0  0  0  0  0  0  0  0  0  0  0
  149.2033  141.5817  155.8000 H   0  0  0  0  0  0  0  0  0  0  0  0
  149.5021  138.2730  154.4507 H   0  0  0  0  0  0  0  0  0  0  0  0
  149.5903  139.1475  152.9204 H   0  0  0  0  0  0  0  0  0  0  0  0
  1  2  1  0  0  0  0
  1 19  1  0  0  0  0
  1 20  1  0  0  0  0
  1 21  1  0  0  0  0
  2  3  1  0  0  0  0
  2  9  1  0  0  0  0
  2 22  1  0  0  0  0
  3  4  1  0  0  0  0
  3 23  1  0  0  0  0
  3 24  1  0  0  0  0
  4  8  1  0  0  0  0
  4  5  1  0  0  0  0
  5  6  2  0  0  0  0
  5 25  1  0  0  0  0
  6  7  1  0  0  0  0
  6 26  1  0  0  0  0
  7  8  2  0  0  0  0
  7 27  1  0  0  0  0
  9 10  1  0  0  0  0
  9 28  1  0  0  0  0
 10 11  2  0  0  0  0
 10 12  1  0  0  0  0
 12 13  1  0  0  0  0
 12 29  1  0  0  0  0
 13 14  1  0  0  0  0
 13 30  1  0  0  0  0
 13 31  1  0  0  0  0
 14 18  1  0  0  0  0
 14 15  1  0  0  0  0
 14 32  1  0  0  0  0
 15 16  1  0  0  0  0
 15 33  1  0  0  0  0
 15 34  1  0  0  0  0
 16 17  1  0  0  0  0
 16 35  1  0  0  0  0
 16 36  1  0  0  0  0
 17 18  1  0  0  0  0
 18 37  1  0  0  0  0
 18 38  1  0  0  0  0
M  END
> <s_m_source_file>
AV-unprocessed.smi

> <i_m_source_file_index>
3258

> <i_lp_mmshare_version>
43012

> <i_f3d_flags>
0

> <s_epik_input>
bjFbY0hdW2NIXVtjSF1uMVtDSDJdW0NAQEhdKFtDSDNdKVtOSF1DKD1PKVtOSF1bQ0gyXVtDQEBIXTJbQ0gyXVtDSDJdT1tDSDJdMg==

> <s_epik_cmdline>
J2VwaWtfcHl0aG9uJywgJy1waCcsICc3LjAnLCAnLXRuJywgJzgnLCAnLW1hJywgJzIwMCcsICctbWV0YWxfYmluZGluZycsICctaW1hZScsICc8aW5maWxlLm1hZT4nLCAnLW9tYWUnLCAnPG91dGZpbGUubWFlPic=

> <r_lp_tautomer_probability>
1

> <r_epik_Ionization_Penalty>
6.85079e-05

> <r_epik_Ionization_Penalty_Charging>
0

> <r_epik_Ionization_Penalty_Neutral>
6.85079e-05

> <r_epik_State_Penalty>
-0

> <r_epik_Charging_Adjusted_Penalty>
0

> <i_epik_Tot_Q>
0

> <i_epik_Tot_abs_Q>
0

> <r_epik_Metal_State_Penalty>
-0

> <b_epik_Metal_Only>
0

> <s_lp_Force_Field>
OPLS_2005

> <r_lp_Energy>
17.05

> <b_lp_Chiralities_Consistent>
1

> <s_lp_Variant>
AV-unprocessed.smi:3258-2

> <Gold.Version>
5.8.1

> <Gold.Id.Protein>
6NUR|6NUR_protein|mol2

> <Gold.PLP.Fitness>
43.4235

> <Gold.PLP.PLP>
-29.9540

> <Gold.PLP.part.hbond>
-3.0000

> <Gold.PLP.part.metal>
0.0000

> <Gold.PLP.part.buried>
-2.0756

> <Gold.PLP.part.nonpolar>
-25.1666

> <Gold.PLP.part.repulsive>
0.4008

> <Gold.PLP.ligand.clash>
0.0000

> <Gold.PLP.ligand.torsion>
0.7920

> <Gold.PLP.Chemscore.Hbond>
3.0000

> <Gold.PLP.Chemscore.CHOScore>
2.0000

> <Gold.PLP.Chemscore.Metal>
0.0000

> <Gold.Chemscore.Hbonds>
donor molecule, donor type, donor heavy atom, donor atom, acceptor molecule, acceptor atom, score
      L1  H     9    28       P1  7948  1.00
      L1  H    12    29       P1  7948  1.00
      P1  H  7989  7998       L1    17  1.00
      L1  C     5    25       P1 10186  1.00
      L1  C     7    27       P1 10747  1.00

> <Gold.PLP.Chemscore.Internal.Correction>
0.0534

> <Gold.Rescore>
     Score         DG    S(hbond)    S(metal)    S(lipo)     H(rot)  DE(clash)    DE(int)     intcor
     15.48     -18.48       2.64        0.00      76.72       1.87       1.39       1.61       ----

> <Gold.Chemscore.Fitness>
15.4783

> <Gold.Chemscore.DG>
-18.4776

> <Gold.Chemscore.ZeroCoef>
-5.4800

> <Gold.Chemscore.Hbond>
2.6391

> <Gold.Chemscore.Metal>
0.0000

> <Gold.Chemscore.Lipo>
76.7209

> <Gold.Chemscore.Internal_Hbond>
0.0000

> <Gold.Chemscore.DEClash>
1.3935

> <Gold.Chemscore.DEInternal>
1.6059

> <Gold.Chemscore.Rot>
1.8724

> <Gold.Chemscore.Internal.Correction>
   9.000000E+99

> <Gold.Chemscore.Hbonds>
donor molecule, donor type, donor heavy atom, donor atom, acceptor molecule, acceptor atom, score
      L1  H     9    28       P1  7948  0.94
      L1  H    12    29       P1  7948  0.95
      P1  H  7989  7998       L1    17  0.31

> <Gold.Chemscore.Hbond.Weighted>
-8.8145

> <Gold.Chemscore.Metal.Weighted>
-0.0000

> <Gold.Chemscore.Lipo.Weighted>
-8.9763

> <Gold.Chemscore.Internal_Hbond.Weighted>
0.0000

> <Gold.Chemscore.DEClash.Weighted>
1.3935

> <Gold.Chemscore.DEInternal.Weighted>
1.6059

> <Gold.Chemscore.Rot.Weighted>
4.7933

> <Gold.Chemscore.Internal.Correction.Weighted>
   9.000000E+99

> <Gold.Protein.RotatedTorsions>
[ 6907 6896 6895 6894 ] final  112.30 input  -60.11 | X-H torsion
[ 7974 7965 7964 7962 ] final   69.22 input  175.53 | X-H torsion
[ 8008 7997 7996 7995 ] final   65.88 input   59.86 | X-H torsion
[ 10167 10162 10161 10158 ] final   99.40 input  -65.29 | X-H torsion
[ 10718 10713 10712 10709 ] final -100.02 input   66.30 | X-H torsion
[ 10763 10752 10751 10750 ] final  -88.25 input  -60.55 | X-H torsion
[ 11005 11000 10999 10996 ] final  -52.22 input  -57.11 | X-H torsion

> <Gold.Protein.ActiveResidues>
 VAL166  LYS551  ARG553  GLY616  TRP617  ASP618  TYR619  PRO620  LYS621  CYS622 
 ASP623  PHE694  ASN695  SER759  ASP760  ASP761  ALA762  ILE779  LEU786  VAL792 
 PHE793  MET794  SER795  GLU796  ALA797  LYS798  CYS799  TRP800  GLU811  SER814 

> <Gold.Protein.RotatedAtoms>
  152.4924  133.8535  159.7213 H   0  0  0  0  0  0  0  0  0  0  0  0  # atno 6907 bound_to 6896
  150.9066  133.7041  159.2872 H   0  0  0  0  0  0  0  0  0  0  0  0  # atno 6908 bound_to 6896
  151.4465  135.1029  159.9737 H   0  0  0  0  0  0  0  0  0  0  0  0  # atno 6909 bound_to 6896
  145.7930  139.2943  143.1199 H   0  0  0  0  0  0  0  0  0  0  0  0  # atno 7974 bound_to 7965
  155.6687  140.3497  155.4810 H   0  0  0  0  0  0  0  0  0  0  0  0  # atno 8008 bound_to 7997
  155.9707  140.1155  157.0838 H   0  0  0  0  0  0  0  0  0  0  0  0  # atno 8009 bound_to 7997
  154.4165  140.1157  156.5289 H   0  0  0  0  0  0  0  0  0  0  0  0  # atno 8010 bound_to 7997
  139.7621  144.6951  151.0277 H   0  0  0  0  0  0  0  0  0  0  0  0  # atno 10167 bound_to 10162
  156.0151  130.5309  150.6755 H   0  0  0  0  0  0  0  0  0  0  0  0  # atno 10718 bound_to 10713
  154.6425  135.5384  153.7806 H   0  0  0  0  0  0  0  0  0  0  0  0  # atno 10763 bound_to 10752
  153.0341  135.6462  154.1139 H   0  0  0  0  0  0  0  0  0  0  0  0  # atno 10764 bound_to 10752
  154.1062  135.2930  155.3221 H   0  0  0  0  0  0  0  0  0  0  0  0  # atno 10765 bound_to 10752
  141.0913  133.6632  156.3993 H   0  0  0  0  0  0  0  0  0  0  0  0  # atno 11005 bound_to 11000
  145.9957  140.8564  143.0044 LP  0  0  0  0  0  0  0  0  0  0  0  0  # atno 17320 bound_to 7965
  144.6779  140.2279  143.7359 LP  0  0  0  0  0  0  0  0  0  0  0  0  # atno 17321 bound_to 7965
  140.7808  143.4685  151.0179 LP  0  0  0  0  0  0  0  0  0  0  0  0  # atno 17342 bound_to 10162
  139.8371  143.7613  152.3180 LP  0  0  0  0  0  0  0  0  0  0  0  0  # atno 17343 bound_to 10162
  157.4469  131.0868  151.0886 LP  0  0  0  0  0  0  0  0  0  0  0  0  # atno 17370 bound_to 10713
  157.1414  130.6144  149.5556 LP  0  0  0  0  0  0  0  0  0  0  0  0  # atno 17371 bound_to 10713
  140.5245  134.6272  157.5329 LP  0  0  0  0  0  0  0  0  0  0  0  0  # atno 17394 bound_to 11000
  139.9739  134.7247  155.9987 LP  0  0  0  0  0  0  0  0  0  0  0  0  # atno 17395 bound_to 11000

$$$$
