AV-unprocessed.smi:2925|AV-procd|sdf|11222|dock7
  -GOLD-   2272016113D 1   1.00000     0.00000
 Structure written by MMmdl.
 44 45  0  0  0  0  0  0  0  0  1 V2000
  150.1175  132.3561  155.6234 C   0  0  0  0  0  0  0  0  0  0  0  0
  150.6925  133.7766  155.5221 C   0  0  0  0  0  0  0  0  0  0  0  0
  149.6252  134.8881  155.4098 C   0  0  2  0  0  0  0  0  0  0  0  0
  148.8875  134.7562  154.1535 N   0  0  0  0  0  0  0  0  0  0  0  0
  147.9456  133.8390  153.8893 C   0  0  0  0  0  0  0  0  0  0  0  0
  147.6050  132.9562  154.6780 O   0  0  0  0  0  0  0  0  0  0  0  0
  147.4525  133.9900  152.6474 N   0  0  0  0  0  0  0  0  0  0  0  0
  146.5016  133.1655  152.0257 C   0  0  0  0  0  0  0  0  0  0  0  0
  145.5072  133.7426  151.3006 C   0  0  0  0  0  0  0  0  0  0  0  0
  145.4254  135.2491  151.1115 C   0  0  0  0  0  0  0  0  0  0  0  0
  144.5122  132.8985  150.6723 C   0  0  0  0  0  0  0  0  0  0  0  0
  144.5838  131.5696  150.8258 C   0  0  0  0  0  0  0  0  0  0  0  0
  145.5921  130.9700  151.5939 N   0  0  0  0  0  0  0  0  0  0  0  0
  145.5748  129.5098  151.7155 C   0  0  0  0  0  0  0  0  0  0  0  0
  146.5493  131.6980  152.2381 C   0  0  0  0  0  0  0  0  0  0  0  0
  147.3806  131.1456  152.9622 O   0  0  0  0  0  0  0  0  0  0  0  0
  150.2494  136.2969  155.4696 C   0  0  2  0  0  0  0  0  0  0  0  0
  149.3078  137.4373  155.0758 C   0  0  0  0  0  0  0  0  0  0  0  0
  150.2436  138.5258  154.5713 C   0  0  0  0  0  0  0  0  0  0  0  0
  151.5879  137.8141  154.4005 C   0  0  0  0  0  0  0  0  0  0  0  0
  151.2855  136.4310  154.5080 O   0  0  0  0  0  0  0  0  0  0  0  0
  150.9135  131.6280  155.7792 H   0  0  0  0  0  0  0  0  0  0  0  0
  149.5874  132.0706  154.7149 H   0  0  0  0  0  0  0  0  0  0  0  0
  149.4221  132.2725  156.4590 H   0  0  0  0  0  0  0  0  0  0  0  0
  151.3060  133.9531  156.4055 H   0  0  0  0  0  0  0  0  0  0  0  0
  151.3709  133.8287  154.6697 H   0  0  0  0  0  0  0  0  0  0  0  0
  148.9387  134.7927  156.2532 H   0  0  0  0  0  0  0  0  0  0  0  0
  149.0984  135.4346  153.4365 H   0  0  0  0  0  0  0  0  0  0  0  0
  147.8949  134.6759  152.0539 H   0  0  0  0  0  0  0  0  0  0  0  0
  144.5761  135.5233  150.4851 H   0  0  0  0  0  0  0  0  0  0  0  0
  146.3299  135.6245  150.6317 H   0  0  0  0  0  0  0  0  0  0  0  0
  145.3089  135.7498  152.0729 H   0  0  0  0  0  0  0  0  0  0  0  0
  143.7205  133.3306  150.0779 H   0  0  0  0  0  0  0  0  0  0  0  0
  143.8726  130.8900  150.3793 H   0  0  0  0  0  0  0  0  0  0  0  0
  146.5161  129.0847  151.3640 H   0  0  0  0  0  0  0  0  0  0  0  0
  144.7745  129.0475  151.1368 H   0  0  0  0  0  0  0  0  0  0  0  0
  145.4365  129.2144  152.7565 H   0  0  0  0  0  0  0  0  0  0  0  0
  150.6662  136.4867  156.4610 H   0  0  0  0  0  0  0  0  0  0  0  0
  148.6496  137.1208  154.2654 H   0  0  0  0  0  0  0  0  0  0  0  0
  148.6829  137.7712  155.9046 H   0  0  0  0  0  0  0  0  0  0  0  0
  149.8842  138.9365  153.6269 H   0  0  0  0  0  0  0  0  0  0  0  0
  150.3288  139.3462  155.2843 H   0  0  0  0  0  0  0  0  0  0  0  0
  152.0661  138.0407  153.4474 H   0  0  0  0  0  0  0  0  0  0  0  0
  152.2740  138.0946  155.2011 H   0  0  0  0  0  0  0  0  0  0  0  0
  1  2  1  0  0  0  0
  1 22  1  0  0  0  0
  1 23  1  0  0  0  0
  1 24  1  0  0  0  0
  2  3  1  0  0  0  0
  2 25  1  0  0  0  0
  2 26  1  0  0  0  0
  3  4  1  0  0  0  0
  3 17  1  0  0  0  0
  3 27  1  0  0  0  0
  4  5  1  0  0  0  0
  4 28  1  0  0  0  0
  5  6  2  0  0  0  0
  5  7  1  0  0  0  0
  7  8  1  0  0  0  0
  7 29  1  0  0  0  0
  8 15  1  0  0  0  0
  8  9  2  0  0  0  0
  9 10  1  0  0  0  0
  9 11  1  0  0  0  0
 10 30  1  0  0  0  0
 10 31  1  0  0  0  0
 10 32  1  0  0  0  0
 11 12  2  0  0  0  0
 11 33  1  0  0  0  0
 12 13  1  0  0  0  0
 12 34  1  0  0  0  0
 13 14  1  0  0  0  0
 13 15  1  0  0  0  0
 14 35  1  0  0  0  0
 14 36  1  0  0  0  0
 14 37  1  0  0  0  0
 15 16  2  0  0  0  0
 17 21  1  0  0  0  0
 17 18  1  0  0  0  0
 17 38  1  0  0  0  0
 18 19  1  0  0  0  0
 18 39  1  0  0  0  0
 18 40  1  0  0  0  0
 19 20  1  0  0  0  0
 19 41  1  0  0  0  0
 19 42  1  0  0  0  0
 20 21  1  0  0  0  0
 20 43  1  0  0  0  0
 20 44  1  0  0  0  0
M  END
> <s_m_source_file>
AV-unprocessed.smi

> <i_m_source_file_index>
2925

> <i_lp_mmshare_version>
43012

> <i_f3d_flags>
0

> <s_epik_input>
TzFbQ0gyXVtDSDJdW0NIMl1bQ0BIXTFbQ0BIXShbQ0gyXVtDSDNdKVtOSF1DKD1PKVtOSF1jMmMoW0NIM10pW2NIXVtjSF1uKFtDSDNdKWMyPU8=

> <s_epik_cmdline>
J2VwaWtfcHl0aG9uJywgJy1waCcsICc3LjAnLCAnLXRuJywgJzgnLCAnLW1hJywgJzIwMCcsICctbWV0YWxfYmluZGluZycsICctaW1hZScsICc8aW5maWxlLm1hZT4nLCAnLW9tYWUnLCAnPG91dGZpbGUubWFlPic=

> <r_lp_tautomer_probability>
1

> <r_epik_Ionization_Penalty>
2.58789e-05

> <r_epik_Ionization_Penalty_Charging>
6.72534e-06

> <r_epik_Ionization_Penalty_Neutral>
1.91535e-05

> <r_epik_State_Penalty>
-0

> <r_epik_Charging_Adjusted_Penalty>
6.72534e-06

> <i_epik_Tot_Q>
0

> <i_epik_Tot_abs_Q>
0

> <r_epik_Metal_State_Penalty>
-0

> <b_epik_Metal_Only>
0

> <s_lp_Force_Field>
OPLS_2005

> <r_lp_Energy>
35.6543

> <b_lp_Chiralities_Consistent>
1

> <s_lp_Variant>
AV-unprocessed.smi:2925-1

> <Gold.Version>
5.8.1

> <Gold.Id.Protein>
6NUR|6NUR_protein|mol2

> <Gold.PLP.Fitness>
46.9281

> <Gold.PLP.PLP>
-38.6912

> <Gold.PLP.part.hbond>
-3.0000

> <Gold.PLP.part.metal>
0.0000

> <Gold.PLP.part.buried>
-6.7320

> <Gold.PLP.part.nonpolar>
-29.4539

> <Gold.PLP.part.repulsive>
0.8772

> <Gold.PLP.ligand.clash>
0.0000

> <Gold.PLP.ligand.torsion>
0.6729

> <Gold.PLP.Chemscore.Hbond>
3.0000

> <Gold.PLP.Chemscore.CHOScore>
0.0000

> <Gold.PLP.Chemscore.Metal>
0.0000

> <Gold.Chemscore.Hbonds>
donor molecule, donor type, donor heavy atom, donor atom, acceptor molecule, acceptor atom, score
      L1  H     4    28       P1  7948  1.00
      L1  H     7    29       P1  7948  1.00
      P1  H 10752 10764       L1    21  1.00

> <Gold.PLP.Chemscore.Internal.Correction>
0.5827

> <Gold.Rescore>
     Score         DG    S(hbond)    S(metal)    S(lipo)     H(rot)  DE(clash)    DE(int)     intcor
     12.56     -19.01       2.35        0.00      78.27       1.36       0.02       6.44       ----

> <Gold.Chemscore.Fitness>
12.5564

> <Gold.Chemscore.DG>
-19.0134

> <Gold.Chemscore.ZeroCoef>
-5.4800

> <Gold.Chemscore.Hbond>
2.3511

> <Gold.Chemscore.Metal>
0.0000

> <Gold.Chemscore.Lipo>
78.2653

> <Gold.Chemscore.Internal_Hbond>
0.0000

> <Gold.Chemscore.DEClash>
0.0154

> <Gold.Chemscore.DEInternal>
6.4416

> <Gold.Chemscore.Rot>
1.3579

> <Gold.Chemscore.Internal.Correction>
   9.000000E+99

> <Gold.Chemscore.Hbonds>
donor molecule, donor type, donor heavy atom, donor atom, acceptor molecule, acceptor atom, score
      L1  H     4    28       P1  7948  0.49
      L1  H     7    29       P1  7948  0.38
      P1  H 10752 10764       L1    21  0.49

> <Gold.Chemscore.Hbond.Weighted>
-7.8527

> <Gold.Chemscore.Metal.Weighted>
-0.0000

> <Gold.Chemscore.Lipo.Weighted>
-9.1570

> <Gold.Chemscore.Internal_Hbond.Weighted>
0.0000

> <Gold.Chemscore.DEClash.Weighted>
0.0154

> <Gold.Chemscore.DEInternal.Weighted>
6.4416

> <Gold.Chemscore.Rot.Weighted>
3.4763

> <Gold.Chemscore.Internal.Correction.Weighted>
   9.000000E+99

> <Gold.Protein.RotatedTorsions>
[ 6907 6896 6895 6894 ] final  -52.45 input  -60.11 | X-H torsion
[ 7974 7965 7964 7962 ] final    6.84 input  175.53 | X-H torsion
[ 8008 7997 7996 7995 ] final  132.11 input   59.86 | X-H torsion
[ 10167 10162 10161 10158 ] final  -45.47 input  -65.29 | X-H torsion
[ 10718 10713 10712 10709 ] final  -78.18 input   66.30 | X-H torsion
[ 10763 10752 10751 10750 ] final  -55.68 input  -60.55 | X-H torsion
[ 11005 11000 10999 10996 ] final -170.61 input  -57.11 | X-H torsion

> <Gold.Protein.ActiveResidues>
 VAL166  LYS551  ARG553  GLY616  TRP617  ASP618  TYR619  PRO620  LYS621  CYS622 
 ASP623  PHE694  ASN695  SER759  ASP760  ASP761  ALA762  ILE779  LEU786  VAL792 
 PHE793  MET794  SER795  GLU796  ALA797  LYS798  CYS799  TRP800  GLU811  SER814 

> <Gold.Protein.RotatedAtoms>
  150.8517  134.7843  159.7013 H   0  0  0  0  0  0  0  0  0  0  0  0  # atno 6907 bound_to 6896
  152.4580  134.5246  159.9802 H   0  0  0  0  0  0  0  0  0  0  0  0  # atno 6908 bound_to 6896
  151.5366  133.3402  159.2963 H   0  0  0  0  0  0  0  0  0  0  0  0  # atno 6909 bound_to 6896
  146.2431  140.0173  142.8401 H   0  0  0  0  0  0  0  0  0  0  0  0  # atno 7974 bound_to 7965
  156.2978  140.2554  156.3035 H   0  0  0  0  0  0  0  0  0  0  0  0  # atno 8008 bound_to 7997
  154.9394  140.0396  157.2108 H   0  0  0  0  0  0  0  0  0  0  0  0  # atno 8009 bound_to 7997
  154.8141  140.2849  155.5837 H   0  0  0  0  0  0  0  0  0  0  0  0  # atno 8010 bound_to 7997
  140.6857  143.2878  151.3643 H   0  0  0  0  0  0  0  0  0  0  0  0  # atno 10167 bound_to 10162
  156.0124  130.4511  150.3458 H   0  0  0  0  0  0  0  0  0  0  0  0  # atno 10718 bound_to 10713
  154.1947  135.6421  153.5070 H   0  0  0  0  0  0  0  0  0  0  0  0  # atno 10763 bound_to 10752
  153.0026  135.5437  154.6378 H   0  0  0  0  0  0  0  0  0  0  0  0  # atno 10764 bound_to 10752
  154.5776  135.2922  155.0738 H   0  0  0  0  0  0  0  0  0  0  0  0  # atno 10765 bound_to 10752
  140.5175  134.5741  157.5038 H   0  0  0  0  0  0  0  0  0  0  0  0  # atno 11005 bound_to 11000
  145.1273  140.9497  143.4565 LP  0  0  0  0  0  0  0  0  0  0  0  0  # atno 17320 bound_to 7965
  145.0422  139.3250  143.5971 LP  0  0  0  0  0  0  0  0  0  0  0  0  # atno 17321 bound_to 7965
  139.6213  144.0901  152.2394 LP  0  0  0  0  0  0  0  0  0  0  0  0  # atno 17342 bound_to 10162
  140.0347  144.6054  150.7460 LP  0  0  0  0  0  0  0  0  0  0  0  0  # atno 17343 bound_to 10162
  157.1551  131.0331  151.2867 LP  0  0  0  0  0  0  0  0  0  0  0  0  # atno 17370 bound_to 10713
  157.4358  130.7516  149.7028 LP  0  0  0  0  0  0  0  0  0  0  0  0  # atno 17371 bound_to 10713
  139.9624  134.7430  156.0209 LP  0  0  0  0  0  0  0  0  0  0  0  0  # atno 17394 bound_to 11000
  141.1352  133.6577  156.3574 LP  0  0  0  0  0  0  0  0  0  0  0  0  # atno 17395 bound_to 11000

$$$$
