AV-unprocessed.smi:753|AV-procd|sdf|3603|dock10
  -GOLD-   22720 0593D 1   1.00000     0.00000
 Structure written by MMmdl.
 44 46  0  0  0  0  0  0  0  0  2 V2000
  151.2541  143.3874  157.8406 C   0  0  0  0  0  0  0  0  0  0  0  0
  150.8996  142.2032  156.9665 C   0  0  0  0  0  0  0  0  0  0  0  0
  151.5512  140.9564  157.0829 C   0  0  0  0  0  0  0  0  0  0  0  0
  151.1706  139.8986  156.2308 C   0  0  0  0  0  0  0  0  0  0  0  0
  150.1463  140.1082  155.2815 C   0  0  0  0  0  0  0  0  0  0  0  0
  149.7222  138.9939  154.3455 C   0  0  0  0  0  0  0  0  0  0  0  0
  148.2264  138.6666  154.4800 C   0  0  0  0  0  0  0  0  0  0  0  0
  147.8824  137.4434  153.7664 N   0  0  0  0  0  0  0  0  0  0  0  0
  146.7138  136.7895  153.8787 C   0  0  0  0  0  0  0  0  0  0  0  0
  145.7995  137.1593  154.6132 O   0  0  0  0  0  0  0  0  0  0  0  0
  146.6115  135.6876  153.1150 N   0  0  0  0  0  0  0  0  0  0  0  0
  145.4771  134.7668  153.0122 C   0  0  2  0  0  0  0  0  0  0  0  0
  145.7491  133.5724  152.0666 C   0  0  0  0  0  0  0  0  0  0  0  0
  144.6228  133.6968  151.0239 C   0  0  1  0  0  0  0  0  0  0  0  0
  143.2697  133.3660  151.6833 C   0  0  0  0  0  0  0  0  0  0  0  0
  143.0140  134.5967  152.5756 C   0  0  0  0  0  0  0  0  0  0  0  0
  144.2712  135.4531  152.3345 C   0  0  2  0  0  0  0  0  0  0  0  0
  144.5282  135.2064  150.8506 C   0  0  0  0  0  0  0  0  0  0  0  0
  149.5298  141.3757  155.2115 C   0  0  0  0  0  0  0  0  0  0  0  0
  149.9237  142.3636  156.0445 N   0  3  0  0  0  0  0  0  0  0  0  0
  152.0114  143.1194  158.5780 H   0  0  0  0  0  0  0  0  0  0  0  0
  150.3726  143.7457  158.3730 H   0  0  0  0  0  0  0  0  0  0  0  0
  151.6446  144.2038  157.2325 H   0  0  0  0  0  0  0  0  0  0  0  0
  152.3336  140.8094  157.8131 H   0  0  0  0  0  0  0  0  0  0  0  0
  151.6625  138.9393  156.3046 H   0  0  0  0  0  0  0  0  0  0  0  0
  149.9560  139.2844  153.3202 H   0  0  0  0  0  0  0  0  0  0  0  0
  150.3202  138.1061  154.5566 H   0  0  0  0  0  0  0  0  0  0  0  0
  147.9666  138.5307  155.5302 H   0  0  0  0  0  0  0  0  0  0  0  0
  147.6176  139.4954  154.1139 H   0  0  0  0  0  0  0  0  0  0  0  0
  148.5778  137.0673  153.1381 H   0  0  0  0  0  0  0  0  0  0  0  0
  147.4123  135.4603  152.5431 H   0  0  0  0  0  0  0  0  0  0  0  0
  145.1998  134.4275  154.0120 H   0  0  0  0  0  0  0  0  0  0  0  0
  146.7235  133.6567  151.5824 H   0  0  0  0  0  0  0  0  0  0  0  0
  145.7231  132.6164  152.5907 H   0  0  0  0  0  0  0  0  0  0  0  0
  144.8122  133.1383  150.1069 H   0  0  0  0  0  0  0  0  0  0  0  0
  142.4841  133.2666  150.9330 H   0  0  0  0  0  0  0  0  0  0  0  0
  143.3062  132.4377  152.2547 H   0  0  0  0  0  0  0  0  0  0  0  0
  142.1170  135.1255  152.2500 H   0  0  0  0  0  0  0  0  0  0  0  0
  142.8817  134.3322  153.6254 H   0  0  0  0  0  0  0  0  0  0  0  0
  144.1394  136.4993  152.6136 H   0  0  0  0  0  0  0  0  0  0  0  0
  145.4522  135.6595  150.4873 H   0  0  0  0  0  0  0  0  0  0  0  0
  143.7013  135.5182  150.2099 H   0  0  0  0  0  0  0  0  0  0  0  0
  148.7420  141.6291  154.5170 H   0  0  0  0  0  0  0  0  0  0  0  0
  149.4651  143.2722  155.9738 H   0  0  0  0  0  0  0  0  0  0  0  0
  1  2  1  0  0  0  0
  1 21  1  0  0  0  0
  1 22  1  0  0  0  0
  1 23  1  0  0  0  0
  2 20  1  0  0  0  0
  2  3  2  0  0  0  0
  3  4  1  0  0  0  0
  3 24  1  0  0  0  0
  4  5  2  0  0  0  0
  4 25  1  0  0  0  0
  5  6  1  0  0  0  0
  5 19  1  0  0  0  0
  6  7  1  0  0  0  0
  6 26  1  0  0  0  0
  6 27  1  0  0  0  0
  7  8  1  0  0  0  0
  7 28  1  0  0  0  0
  7 29  1  0  0  0  0
  8  9  1  0  0  0  0
  8 30  1  0  0  0  0
  9 10  2  0  0  0  0
  9 11  1  0  0  0  0
 11 12  1  0  0  0  0
 11 31  1  0  0  0  0
 12 17  1  0  0  0  0
 12 13  1  0  0  0  0
 12 32  1  0  0  0  0
 13 14  1  0  0  0  0
 13 33  1  0  0  0  0
 13 34  1  0  0  0  0
 14 18  1  0  0  0  0
 14 15  1  0  0  0  0
 14 35  1  0  0  0  0
 15 16  1  0  0  0  0
 15 36  1  0  0  0  0
 15 37  1  0  0  0  0
 16 17  1  0  0  0  0
 16 38  1  0  0  0  0
 16 39  1  0  0  0  0
 17 18  1  0  0  0  0
 17 40  1  0  0  0  0
 18 41  1  0  0  0  0
 18 42  1  0  0  0  0
 19 20  2  0  0  0  0
 19 43  1  0  0  0  0
 20 44  1  0  0  0  0
M  CHG  1  20   1
M  END
> <s_m_source_file>
AV-unprocessed.smi

> <i_m_source_file_index>
753

> <i_lp_mmshare_version>
43012

> <i_f3d_flags>
0

> <s_epik_input>
W0NIM11jMVtjSF1bY0hdYyhbY0hdbjEpW0NIMl1bQ0gyXVtOSF1DKD1PKVtOSF1bQ0BIXShbQ0gyXVtDQEBIXTIzKVtDQEBIXShbQ0gyXTMpW0NIMl1bQ0gyXTI=

> <s_epik_cmdline>
J2VwaWtfcHl0aG9uJywgJy1waCcsICc3LjAnLCAnLXRuJywgJzgnLCAnLW1hJywgJzIwMCcsICctbWV0YWxfYmluZGluZycsICctaW1hZScsICc8aW5maWxlLm1hZT4nLCAnLW9tYWUnLCAnPG91dGZpbGUubWFlPic=

> <r_epik_Ionization_Penalty>
1.41708

> <r_epik_Ionization_Penalty_Charging>
1.41702

> <r_epik_Ionization_Penalty_Neutral>
5.73163e-05

> <r_epik_State_Penalty>
1.50048

> <r_epik_Charging_Adjusted_Penalty>
2.9175

> <i_epik_Tot_Q>
1

> <i_epik_Tot_abs_Q>
1

> <r_epik_Metal_State_Penalty>
1.55295

> <b_epik_Metal_Only>
0

> <s_lp_Force_Field>
OPLS_2005

> <r_lp_Energy>
57.028

> <b_lp_Chiralities_Consistent>
1

> <s_lp_Variant>
AV-unprocessed.smi:753-5

> <Gold.Version>
5.8.1

> <Gold.Id.Protein>
6NUR|6NUR_protein|mol2

> <Gold.PLP.Fitness>
46.1983

> <Gold.PLP.PLP>
-34.9293

> <Gold.PLP.part.hbond>
-2.7659

> <Gold.PLP.part.metal>
0.0000

> <Gold.PLP.part.buried>
-4.0120

> <Gold.PLP.part.nonpolar>
-29.3334

> <Gold.PLP.part.repulsive>
0.2206

> <Gold.PLP.ligand.clash>
0.0000

> <Gold.PLP.ligand.torsion>
0.1252

> <Gold.PLP.Chemscore.Hbond>
3.8320

> <Gold.PLP.Chemscore.CHOScore>
0.0000

> <Gold.PLP.Chemscore.Metal>
0.0000

> <Gold.Chemscore.Hbonds>
donor molecule, donor type, donor heavy atom, donor atom, acceptor molecule, acceptor atom, score
      L1  H     8    30       P1  7948  1.00
      L1  H    11    31       P1  7948  0.85
      L1  H    20    44       P1  8028  2.00

> <Gold.PLP.Chemscore.Internal.Correction>
0.0234

> <Gold.Rescore>
     Score         DG    S(hbond)    S(metal)    S(lipo)     H(rot)  DE(clash)    DE(int)     intcor
     21.35     -21.59       2.75        0.00      91.97       1.50       0.05       0.18       ----

> <Gold.Chemscore.Fitness>
21.3547

> <Gold.Chemscore.DG>
-21.5862

> <Gold.Chemscore.ZeroCoef>
-5.4800

> <Gold.Chemscore.Hbond>
2.7523

> <Gold.Chemscore.Metal>
0.0000

> <Gold.Chemscore.Lipo>
91.9692

> <Gold.Chemscore.Internal_Hbond>
0.0000

> <Gold.Chemscore.DEClash>
0.0536

> <Gold.Chemscore.DEInternal>
0.1778

> <Gold.Chemscore.Rot>
1.5027

> <Gold.Chemscore.Internal.Correction>
   9.000000E+99

> <Gold.Chemscore.Hbonds>
donor molecule, donor type, donor heavy atom, donor atom, acceptor molecule, acceptor atom, score
      L1  H     8    30       P1  7948  0.92
      L1  H    11    31       P1  7948  0.83
      L1  H    20    44       P1  8028  0.98

> <Gold.Chemscore.Hbond.Weighted>
-9.1926

> <Gold.Chemscore.Metal.Weighted>
-0.0000

> <Gold.Chemscore.Lipo.Weighted>
-10.7604

> <Gold.Chemscore.Internal_Hbond.Weighted>
0.0000

> <Gold.Chemscore.DEClash.Weighted>
0.0536

> <Gold.Chemscore.DEInternal.Weighted>
0.1778

> <Gold.Chemscore.Rot.Weighted>
3.8468

> <Gold.Chemscore.Internal.Correction.Weighted>
   9.000000E+99

> <Gold.Protein.RotatedTorsions>
[ 6907 6896 6895 6894 ] final   17.57 input  -60.11 | X-H torsion
[ 7974 7965 7964 7962 ] final   43.32 input  175.53 | X-H torsion
[ 8008 7997 7996 7995 ] final   13.69 input   59.86 | X-H torsion
[ 10167 10162 10161 10158 ] final  132.21 input  -65.29 | X-H torsion
[ 10718 10713 10712 10709 ] final  -93.21 input   66.30 | X-H torsion
[ 10763 10752 10751 10750 ] final -148.36 input  -60.55 | X-H torsion
[ 11005 11000 10999 10996 ] final   32.77 input  -57.11 | X-H torsion

> <Gold.Protein.ActiveResidues>
 VAL166  LYS551  ARG553  GLY616  TRP617  ASP618  TYR619  PRO620  LYS621  CYS622 
 ASP623  PHE694  ASN695  SER759  ASP760  ASP761  ALA762  ILE779  LEU786  VAL792 
 PHE793  MET794  SER795  GLU796  ALA797  LYS798  CYS799  TRP800  GLU811  SER814 

> <Gold.Protein.RotatedAtoms>
  151.8517  135.0555  160.0459 H   0  0  0  0  0  0  0  0  0  0  0  0  # atno 6907 bound_to 6896
  152.2731  133.5396  159.5460 H   0  0  0  0  0  0  0  0  0  0  0  0  # atno 6908 bound_to 6896
  150.7159  134.0585  159.3865 H   0  0  0  0  0  0  0  0  0  0  0  0  # atno 6909 bound_to 6896
  146.0665  139.5200  142.9625 H   0  0  0  0  0  0  0  0  0  0  0  0  # atno 7974 bound_to 7965
  154.8380  140.2910  155.5678 H   0  0  0  0  0  0  0  0  0  0  0  0  # atno 8008 bound_to 7997
  156.3010  140.2519  156.3248 H   0  0  0  0  0  0  0  0  0  0  0  0  # atno 8009 bound_to 7997
  154.9157  140.0387  157.1960 H   0  0  0  0  0  0  0  0  0  0  0  0  # atno 8010 bound_to 7997
  139.5350  144.6672  151.4819 H   0  0  0  0  0  0  0  0  0  0  0  0  # atno 10167 bound_to 10162
  156.0010  130.5018  150.5741 H   0  0  0  0  0  0  0  0  0  0  0  0  # atno 10718 bound_to 10713
  154.8237  135.3336  154.6961 H   0  0  0  0  0  0  0  0  0  0  0  0  # atno 10763 bound_to 10752
  153.7590  135.6934  153.4934 H   0  0  0  0  0  0  0  0  0  0  0  0  # atno 10764 bound_to 10752
  153.2123  135.4478  155.0343 H   0  0  0  0  0  0  0  0  0  0  0  0  # atno 10765 bound_to 10752
  140.2700  134.3093  155.7830 H   0  0  0  0  0  0  0  0  0  0  0  0  # atno 11005 bound_to 11000
  145.6467  141.0272  143.1782 LP  0  0  0  0  0  0  0  0  0  0  0  0  # atno 17320 bound_to 7965
  144.7206  139.8045  143.7383 LP  0  0  0  0  0  0  0  0  0  0  0  0  # atno 17321 bound_to 7965
  140.6551  143.8617  150.6826 LP  0  0  0  0  0  0  0  0  0  0  0  0  # atno 17342 bound_to 10162
  140.1994  143.3972  152.1803 LP  0  0  0  0  0  0  0  0  0  0  0  0  # atno 17343 bound_to 10162
  157.3632  131.0753  151.1619 LP  0  0  0  0  0  0  0  0  0  0  0  0  # atno 17370 bound_to 10713
  157.2397  130.6564  149.5884 LP  0  0  0  0  0  0  0  0  0  0  0  0  # atno 17371 bound_to 10713
  141.2178  133.7461  156.9320 LP  0  0  0  0  0  0  0  0  0  0  0  0  # atno 17394 bound_to 11000
  140.1382  134.9311  157.2430 LP  0  0  0  0  0  0  0  0  0  0  0  0  # atno 17395 bound_to 11000

$$$$
