AV-unprocessed.smi:160|AV-procd|sdf|1345|dock2
  -GOLD-   2262019 43D 1   1.00000     0.00000
 Structure written by MMmdl.
 29 30  0  0  0  0  0  0  0  0  1 V2000
  152.9555  140.6087  159.6188 N   0  0  0  0  0  0  0  0  0  0  0  0
  152.8549  140.0854  158.3926 C   0  0  0  0  0  0  0  0  0  0  0  0
  153.5493  139.1407  158.0209 O   0  0  0  0  0  0  0  0  0  0  0  0
  151.8401  140.7187  157.4814 C   0  0  0  0  0  0  0  0  0  0  0  0
  151.1775  141.8563  157.8454 N   0  0  0  0  0  0  0  0  0  0  0  0
  150.4216  142.0111  156.7660 C   0  0  0  0  0  0  0  0  0  0  0  0
  150.6074  141.0782  155.8266 N   0  0  0  0  0  0  0  0  0  0  0  0
  149.9216  140.9051  154.5059 C   0  0  2  0  0  0  0  0  0  0  0  0
  149.0123  141.9549  154.3587 O   0  0  0  0  0  0  0  0  0  0  0  0
  147.6975  141.5049  154.6719 C   0  0  1  0  0  0  0  0  0  0  0  0
  146.6295  142.4458  154.0866 C   0  0  0  0  0  0  0  0  0  0  0  0
  145.3384  141.9515  154.3730 O   0  0  0  0  0  0  0  0  0  0  0  0
  147.7058  140.0766  154.1119 C   0  0  1  0  0  0  0  0  0  0  0  0
  147.4595  140.0913  152.7143 O   0  0  0  0  0  0  0  0  0  0  0  0
  149.1154  139.5921  154.4551 C   0  0  1  0  0  0  0  0  0  0  0  0
  149.6136  138.6649  153.5080 O   0  0  0  0  0  0  0  0  0  0  0  0
  151.5393  140.2053  156.2872 N   0  0  0  0  0  0  0  0  0  0  0  0
  150.7166  140.9763  153.7623 H   0  0  0  0  0  0  0  0  0  0  0  0
  147.5815  141.4465  155.7554 H   0  0  0  0  0  0  0  0  0  0  0  0
  146.9439  139.4541  154.5822 H   0  0  0  0  0  0  0  0  0  0  0  0
  149.1104  139.1173  155.4369 H   0  0  0  0  0  0  0  0  0  0  0  0
  153.6226  140.2301  160.2748 H   0  0  0  0  0  0  0  0  0  0  0  0
  152.3646  141.3852  159.8783 H   0  0  0  0  0  0  0  0  0  0  0  0
  149.7162  142.8221  156.6583 H   0  0  0  0  0  0  0  0  0  0  0  0
  146.7384  143.4610  154.4693 H   0  0  0  0  0  0  0  0  0  0  0  0
  146.7260  142.4935  153.0016 H   0  0  0  0  0  0  0  0  0  0  0  0
  145.0723  141.3808  153.6683 H   0  0  0  0  0  0  0  0  0  0  0  0
  148.2921  140.0878  152.2666 H   0  0  0  0  0  0  0  0  0  0  0  0
  149.5568  139.0534  152.6483 H   0  0  0  0  0  0  0  0  0  0  0  0
  1  2  1  0  0  0  0
  1 22  1  0  0  0  0
  1 23  1  0  0  0  0
  2  3  2  0  0  0  0
  2  4  1  0  0  0  0
  4 17  2  0  0  0  0
  4  5  1  0  0  0  0
  5  6  2  0  0  0  0
  6  7  1  0  0  0  0
  6 24  1  0  0  0  0
  7  8  1  0  0  0  0
  7 17  1  0  0  0  0
  8 18  1  0  0  0  0
  8 15  1  0  0  0  0
  8  9  1  0  0  0  0
  9 10  1  0  0  0  0
 10 19  1  0  0  0  0
 10 11  1  0  0  0  0
 10 13  1  0  0  0  0
 11 12  1  0  0  0  0
 11 25  1  0  0  0  0
 11 26  1  0  0  0  0
 12 27  1  0  0  0  0
 13 20  1  0  0  0  0
 13 14  1  0  0  0  0
 13 15  1  0  0  0  0
 14 28  1  0  0  0  0
 15 21  1  0  0  0  0
 15 16  1  0  0  0  0
 16 29  1  0  0  0  0
M  END
> <s_m_source_file>
AV-unprocessed.smi

> <i_m_source_file_index>
160

> <i_lp_mmshare_version>
43012

> <i_f3d_flags>
0

> <s_epik_input>
W05IMl1DKD1PKWMxbltjSF1uKG4xKVtDQEBIXTJPW0NASF0oW0NIMl1bT0hdKVtDQEBIXShbT0hdKVtDQEhdMltPSF0=

> <s_epik_cmdline>
J2VwaWtfcHl0aG9uJywgJy1waCcsICc3LjAnLCAnLXRuJywgJzgnLCAnLW1hJywgJzIwMCcsICctbWV0YWxfYmluZGluZycsICctaW1hZScsICc8aW5maWxlLm1hZT4nLCAnLW9tYWUnLCAnPG91dGZpbGUubWFlPic=

> <r_lp_tautomer_probability>
1

> <r_epik_Ionization_Penalty>
1.06932e-05

> <r_epik_Ionization_Penalty_Charging>
0

> <r_epik_Ionization_Penalty_Neutral>
1.06932e-05

> <r_epik_State_Penalty>
-0

> <r_epik_Charging_Adjusted_Penalty>
0

> <i_epik_Tot_Q>
0

> <i_epik_Tot_abs_Q>
0

> <r_epik_Metal_State_Penalty>
0.0142097

> <b_epik_Metal_Only>
0

> <s_epik_Chemistry_Notes>
This compound contains an acetal/aminal-like group ( X-CH(R)-Y where X, Y are N, S, or O) that may be acid/base labile, releasing an aldehyde.

> <s_lp_Force_Field>
OPLS_2005

> <r_lp_Energy>
41.9483

> <b_lp_Chiralities_Consistent>
1

> <s_lp_Variant>
AV-unprocessed.smi:160-3

> <Gold.Version>
5.8.1

> <Gold.Id.Protein>
6NUR|6NUR_protein|mol2

> <Gold.PLP.Fitness>
43.3992

> <Gold.PLP.PLP>
-28.1317

> <Gold.PLP.part.hbond>
-6.0000

> <Gold.PLP.part.metal>
0.0000

> <Gold.PLP.part.buried>
-3.7224

> <Gold.PLP.part.nonpolar>
-19.2677

> <Gold.PLP.part.repulsive>
0.9882

> <Gold.PLP.ligand.clash>
0.0000

> <Gold.PLP.ligand.torsion>
0.0395

> <Gold.PLP.Chemscore.Hbond>
4.1086

> <Gold.PLP.Chemscore.CHOScore>
1.0000

> <Gold.PLP.Chemscore.Metal>
0.0000

> <Gold.Chemscore.Hbonds>
donor molecule, donor type, donor heavy atom, donor atom, acceptor molecule, acceptor atom, score
      L1  H    12    27       P1 10175  1.00
      L1  H    14    28       P1  7957  1.00
      L1  H    16    29       P1  7957  1.00
      P1  H  7997  8010       L1     3  1.00
      P1  H  8011  8017       L1     9  0.13
      L1  C     6    24       P1  8028  1.00

> <Gold.PLP.Chemscore.Internal.Correction>
0.0207

> <Gold.Rescore>
     Score         DG    S(hbond)    S(metal)    S(lipo)     H(rot)  DE(clash)    DE(int)     intcor
     10.23     -10.40       3.86        0.00      20.64       4.06       0.13       0.05       ----

> <Gold.Chemscore.Fitness>
10.2274

> <Gold.Chemscore.DG>
-10.4044

> <Gold.Chemscore.ZeroCoef>
-5.4800

> <Gold.Chemscore.Hbond>
3.8633

> <Gold.Chemscore.Metal>
0.0000

> <Gold.Chemscore.Lipo>
20.6370

> <Gold.Chemscore.Internal_Hbond>
0.0000

> <Gold.Chemscore.DEClash>
0.1269

> <Gold.Chemscore.DEInternal>
0.0501

> <Gold.Chemscore.Rot>
4.0600

> <Gold.Chemscore.Internal.Correction>
   9.000000E+99

> <Gold.Chemscore.Hbonds>
donor molecule, donor type, donor heavy atom, donor atom, acceptor molecule, acceptor atom, score
      L1  H    12    27       P1 10175  0.23
      L1  H    14    28       P1  7957  1.00
      L1  H    16    29       P1  7957  0.96
      P1  H  7997  8010       L1     3  0.25
      P1  H  8011  8017       L1     9  0.01

> <Gold.Chemscore.Hbond.Weighted>
-12.9035

> <Gold.Chemscore.Metal.Weighted>
-0.0000

> <Gold.Chemscore.Lipo.Weighted>
-2.4145

> <Gold.Chemscore.Internal_Hbond.Weighted>
0.0000

> <Gold.Chemscore.DEClash.Weighted>
0.1269

> <Gold.Chemscore.DEInternal.Weighted>
0.0501

> <Gold.Chemscore.Rot.Weighted>
10.3936

> <Gold.Chemscore.Internal.Correction.Weighted>
   9.000000E+99

> <Gold.Protein.RotatedTorsions>
[ 6907 6896 6895 6894 ] final   60.55 input  -60.11 | X-H torsion
[ 7974 7965 7964 7962 ] final -130.79 input  175.53 | X-H torsion
[ 8008 7997 7996 7995 ] final   13.93 input   59.86 | X-H torsion
[ 10167 10162 10161 10158 ] final -168.44 input  -65.29 | X-H torsion
[ 10718 10713 10712 10709 ] final   97.71 input   66.30 | X-H torsion
[ 10763 10752 10751 10750 ] final -132.31 input  -60.55 | X-H torsion
[ 11005 11000 10999 10996 ] final -160.50 input  -57.11 | X-H torsion

> <Gold.Protein.ActiveResidues>
 VAL166  LYS551  ARG553  GLY616  TRP617  ASP618  TYR619  PRO620  LYS621  CYS622 
 ASP623  PHE694  ASN695  SER759  ASP760  ASP761  ALA762  ILE779  LEU786  VAL792 
 PHE793  MET794  SER795  GLU796  ALA797  LYS798  CYS799  TRP800  GLU811  SER814 

> <Gold.Protein.RotatedAtoms>
  152.4013  134.6281  160.0068 H   0  0  0  0  0  0  0  0  0  0  0  0  # atno 6907 bound_to 6896
  151.6486  133.3316  159.3154 H   0  0  0  0  0  0  0  0  0  0  0  0  # atno 6908 bound_to 6896
  150.7913  134.6981  159.6579 H   0  0  0  0  0  0  0  0  0  0  0  0  # atno 6909 bound_to 6896
  144.9441  140.7271  143.4829 H   0  0  0  0  0  0  0  0  0  0  0  0  # atno 7974 bound_to 7965
  154.8413  140.2915  155.5657 H   0  0  0  0  0  0  0  0  0  0  0  0  # atno 8008 bound_to 7997
  156.3012  140.2513  156.3288 H   0  0  0  0  0  0  0  0  0  0  0  0  # atno 8009 bound_to 7997
  154.9122  140.0388  157.1941 H   0  0  0  0  0  0  0  0  0  0  0  0  # atno 8010 bound_to 7997
  139.5985  144.1060  152.1716 H   0  0  0  0  0  0  0  0  0  0  0  0  # atno 10167 bound_to 10162
  157.6908  131.0618  150.4686 H   0  0  0  0  0  0  0  0  0  0  0  0  # atno 10718 bound_to 10713
  154.8744  135.3802  154.4389 H   0  0  0  0  0  0  0  0  0  0  0  0  # atno 10763 bound_to 10752
  153.5076  135.7030  153.5803 H   0  0  0  0  0  0  0  0  0  0  0  0  # atno 10764 bound_to 10752
  153.4107  135.3925  155.2014 H   0  0  0  0  0  0  0  0  0  0  0  0  # atno 10765 bound_to 10752
  140.6308  134.4653  157.5229 H   0  0  0  0  0  0  0  0  0  0  0  0  # atno 11005 bound_to 11000
  145.2946  139.1871  143.4722 LP  0  0  0  0  0  0  0  0  0  0  0  0  # atno 17320 bound_to 7965
  146.3297  140.2928  142.8616 LP  0  0  0  0  0  0  0  0  0  0  0  0  # atno 17321 bound_to 7965
  140.0651  144.5825  150.7233 LP  0  0  0  0  0  0  0  0  0  0  0  0  # atno 17342 bound_to 10162
  140.7231  143.2608  151.4212 LP  0  0  0  0  0  0  0  0  0  0  0  0  # atno 17343 bound_to 10162
  156.5025  130.4120  149.6345 LP  0  0  0  0  0  0  0  0  0  0  0  0  # atno 17370 bound_to 10713
  156.3315  130.7334  151.2264 LP  0  0  0  0  0  0  0  0  0  0  0  0  # atno 17371 bound_to 10713
  139.9117  134.8331  156.1506 LP  0  0  0  0  0  0  0  0  0  0  0  0  # atno 17394 bound_to 11000
  141.0676  133.6811  156.2076 LP  0  0  0  0  0  0  0  0  0  0  0  0  # atno 17395 bound_to 11000

$$$$
