AV-unprocessed.smi:2781|AV-procd|sdf|10720|dock8
  -GOLD-   2272015163D 1   1.00000     0.00000
 Structure written by MMmdl.
 35 38  0  0  0  0  0  0  0  0  1 V2000
  151.8863  141.6071  156.5320 O   0  0  0  0  0  0  0  0  0  0  0  0
  151.0942  142.5378  156.3803 C   0  0  0  0  0  0  0  0  0  0  0  0
  149.9128  142.4566  155.7426 N   0  0  0  0  0  0  0  0  0  0  0  0
  149.3251  141.3220  155.1221 C   0  0  0  0  0  0  0  0  0  0  0  0
  147.9205  141.3815  154.9749 C   0  0  0  0  0  0  0  0  0  0  0  0
  147.2404  140.3060  154.3713 C   0  0  0  0  0  0  0  0  0  0  0  0
  147.9851  139.1980  153.9301 C   0  0  0  0  0  0  0  0  0  0  0  0
  147.3754  138.1410  153.3431 F   0  0  0  0  0  0  0  0  0  0  0  0
  149.3800  139.2165  154.1140 C   0  0  0  0  0  0  0  0  0  0  0  0
  150.0329  140.2468  154.6928 N   0  0  0  0  0  0  0  0  0  0  0  0
  151.3094  143.7783  156.8394 N   0  0  0  0  0  0  0  0  0  0  0  0
  152.4636  144.2129  157.5594 C   0  0  2  0  0  0  0  0  0  0  0  0
  152.9299  143.4708  158.8068 C   0  0  2  0  0  0  0  0  0  0  0  0
  152.1090  142.6243  159.7827 C   0  0  1  0  0  0  0  0  0  0  0  0
  152.5336  143.0319  161.2102 C   0  0  0  0  0  0  0  0  0  0  0  0
  151.9134  144.4461  161.3503 C   0  0  0  0  0  0  0  0  0  0  0  0
  151.2241  144.6424  159.9827 C   0  0  2  0  0  0  0  0  0  0  0  0
  150.7022  143.2222  159.7648 C   0  0  0  0  0  0  0  0  0  0  0  0
  152.3295  144.8402  158.9422 C   0  0  2  0  0  0  0  0  0  0  0  0
  149.3703  143.3064  155.6959 H   0  0  0  0  0  0  0  0  0  0  0  0
  147.3648  142.2415  155.3197 H   0  0  0  0  0  0  0  0  0  0  0  0
  146.1676  140.3322  154.2493 H   0  0  0  0  0  0  0  0  0  0  0  0
  149.9879  138.3852  153.7881 H   0  0  0  0  0  0  0  0  0  0  0  0
  150.6012  144.4761  156.6654 H   0  0  0  0  0  0  0  0  0  0  0  0
  153.2675  144.6258  156.9516 H   0  0  0  0  0  0  0  0  0  0  0  0
  154.0084  143.3772  158.9212 H   0  0  0  0  0  0  0  0  0  0  0  0
  152.1702  141.5561  159.5742 H   0  0  0  0  0  0  0  0  0  0  0  0
  152.1161  142.3511  161.9532 H   0  0  0  0  0  0  0  0  0  0  0  0
  153.6172  143.0387  161.3348 H   0  0  0  0  0  0  0  0  0  0  0  0
  151.1868  144.4708  162.1636 H   0  0  0  0  0  0  0  0  0  0  0  0
  152.6642  145.2118  161.5504 H   0  0  0  0  0  0  0  0  0  0  0  0
  150.4714  145.4305  159.9582 H   0  0  0  0  0  0  0  0  0  0  0  0
  150.1430  143.0677  158.8469 H   0  0  0  0  0  0  0  0  0  0  0  0
  150.0718  142.8649  160.5820 H   0  0  0  0  0  0  0  0  0  0  0  0
  153.0029  145.6705  159.1479 H   0  0  0  0  0  0  0  0  0  0  0  0
  1  2  2  0  0  0  0
  2  3  1  0  0  0  0
  2 11  1  0  0  0  0
  3  4  1  0  0  0  0
  3 20  1  0  0  0  0
  4 10  1  0  0  0  0
  4  5  2  0  0  0  0
  5  6  1  0  0  0  0
  5 21  1  0  0  0  0
  6  7  2  0  0  0  0
  6 22  1  0  0  0  0
  7  8  1  0  0  0  0
  7  9  1  0  0  0  0
  9 10  2  0  0  0  0
  9 23  1  0  0  0  0
 11 12  1  0  0  0  0
 11 24  1  0  0  0  0
 12 19  1  0  0  0  0
 12 13  1  0  0  0  0
 12 25  1  0  0  0  0
 13 19  1  0  0  0  0
 13 14  1  0  0  0  0
 13 26  1  0  0  0  0
 14 18  1  0  0  0  0
 14 15  1  0  0  0  0
 14 27  1  0  0  0  0
 15 16  1  0  0  0  0
 15 28  1  0  0  0  0
 15 29  1  0  0  0  0
 16 17  1  0  0  0  0
 16 30  1  0  0  0  0
 16 31  1  0  0  0  0
 17 18  1  0  0  0  0
 17 19  1  0  0  0  0
 17 32  1  0  0  0  0
 18 33  1  0  0  0  0
 18 34  1  0  0  0  0
 19 35  1  0  0  0  0
M  END
> <s_m_source_file>
AV-unprocessed.smi

> <i_m_source_file_index>
2781

> <i_lp_mmshare_version>
43012

> <i_f3d_flags>
0

> <s_epik_input>
bjFbY0hdYyhGKVtjSF1bY0hdYzFbTkhdQyg9TylbTkhdW0NASF0yW0NAQEhdM1tDQEhdKFtDSDJdNClbQ0gyXVtDSDJdW0NASF00W0NASF0yMw==

> <s_epik_cmdline>
J2VwaWtfcHl0aG9uJywgJy1waCcsICc3LjAnLCAnLXRuJywgJzgnLCAnLW1hJywgJzIwMCcsICctbWV0YWxfYmluZGluZycsICctaW1hZScsICc8aW5maWxlLm1hZT4nLCAnLW9tYWUnLCAnPG91dGZpbGUubWFlPic=

> <r_lp_tautomer_probability>
1

> <r_epik_Ionization_Penalty>
4.05776e-05

> <r_epik_Ionization_Penalty_Charging>
0

> <r_epik_Ionization_Penalty_Neutral>
4.05776e-05

> <r_epik_State_Penalty>
-0

> <r_epik_Charging_Adjusted_Penalty>
0

> <i_epik_Tot_Q>
0

> <i_epik_Tot_abs_Q>
0

> <r_epik_Metal_State_Penalty>
-0

> <b_epik_Metal_Only>
0

> <s_lp_Force_Field>
OPLS_2005

> <r_lp_Energy>
83.3371

> <b_lp_Chiralities_Consistent>
1

> <s_lp_Variant>
AV-unprocessed.smi:2781-4

> <Gold.Version>
5.8.1

> <Gold.Id.Protein>
6NUR|6NUR_protein|mol2

> <Gold.PLP.Fitness>
41.5710

> <Gold.PLP.PLP>
-33.9873

> <Gold.PLP.part.hbond>
-2.6703

> <Gold.PLP.part.metal>
0.0000

> <Gold.PLP.part.buried>
5.6763

> <Gold.PLP.part.nonpolar>
-36.7505

> <Gold.PLP.part.repulsive>
0.3197

> <Gold.PLP.ligand.clash>
0.0000

> <Gold.PLP.ligand.torsion>
0.1378

> <Gold.PLP.Chemscore.Hbond>
2.6033

> <Gold.PLP.Chemscore.CHOScore>
0.0000

> <Gold.PLP.Chemscore.Metal>
0.0000

> <Gold.Chemscore.Hbonds>
donor molecule, donor type, donor heavy atom, donor atom, acceptor molecule, acceptor atom, score
      L1  H     3    20       P1  8028  0.91
      L1  H    11    24       P1  8028  0.85
      P1  H  7989  7998       L1    10  0.86

> <Gold.PLP.Chemscore.Internal.Correction>
0.0496

> <Gold.Rescore>
     Score         DG    S(hbond)    S(metal)    S(lipo)     H(rot)  DE(clash)    DE(int)     intcor
     19.62     -25.14       2.53        0.00     117.57       1.00       4.24       1.29       ----

> <Gold.Chemscore.Fitness>
19.6160

> <Gold.Chemscore.DG>
-25.1418

> <Gold.Chemscore.ZeroCoef>
-5.4800

> <Gold.Chemscore.Hbond>
2.5346

> <Gold.Chemscore.Metal>
0.0000

> <Gold.Chemscore.Lipo>
117.5749

> <Gold.Chemscore.Internal_Hbond>
0.0000

> <Gold.Chemscore.DEClash>
4.2379

> <Gold.Chemscore.DEInternal>
1.2879

> <Gold.Chemscore.Rot>
1.0000

> <Gold.Chemscore.Internal.Correction>
   9.000000E+99

> <Gold.Chemscore.Hbonds>
donor molecule, donor type, donor heavy atom, donor atom, acceptor molecule, acceptor atom, score
      L1  H     3    20       P1  8028  0.87
      L1  H    11    24       P1  8028  0.80
      P1  H  7989  7998       L1    10  0.47

> <Gold.Chemscore.Hbond.Weighted>
-8.4655

> <Gold.Chemscore.Metal.Weighted>
-0.0000

> <Gold.Chemscore.Lipo.Weighted>
-13.7563

> <Gold.Chemscore.Internal_Hbond.Weighted>
0.0000

> <Gold.Chemscore.DEClash.Weighted>
4.2379

> <Gold.Chemscore.DEInternal.Weighted>
1.2879

> <Gold.Chemscore.Rot.Weighted>
2.5600

> <Gold.Chemscore.Internal.Correction.Weighted>
   9.000000E+99

> <Gold.Protein.RotatedTorsions>
[ 6907 6896 6895 6894 ] final   97.97 input  -60.11 | X-H torsion
[ 7974 7965 7964 7962 ] final   27.25 input  175.53 | X-H torsion
[ 8008 7997 7996 7995 ] final  128.31 input   59.86 | X-H torsion
[ 10167 10162 10161 10158 ] final   61.01 input  -65.29 | X-H torsion
[ 10718 10713 10712 10709 ] final   63.50 input   66.30 | X-H torsion
[ 10763 10752 10751 10750 ] final  104.76 input  -60.55 | X-H torsion
[ 11005 11000 10999 10996 ] final  -38.07 input  -57.11 | X-H torsion

> <Gold.Protein.ActiveResidues>
 VAL166  LYS551  ARG553  GLY616  TRP617  ASP618  TYR619  PRO620  LYS621  CYS622 
 ASP623  PHE694  ASN695  SER759  ASP760  ASP761  ALA762  ILE779  LEU786  VAL792 
 PHE793  MET794  SER795  GLU796  ALA797  LYS798  CYS799  TRP800  GLU811  SER814 

> <Gold.Protein.RotatedAtoms>
  152.5416  134.0652  159.8169 H   0  0  0  0  0  0  0  0  0  0  0  0  # atno 6907 bound_to 6896
  151.0774  133.5409  159.2630 H   0  0  0  0  0  0  0  0  0  0  0  0  # atno 6908 bound_to 6896
  151.2249  135.0541  159.9019 H   0  0  0  0  0  0  0  0  0  0  0  0  # atno 6909 bound_to 6896
  146.1794  139.7217  142.8911 H   0  0  0  0  0  0  0  0  0  0  0  0  # atno 7974 bound_to 7965
  156.2912  140.2648  156.2415 H   0  0  0  0  0  0  0  0  0  0  0  0  # atno 8008 bound_to 7997
  154.9972  140.0388  157.2363 H   0  0  0  0  0  0  0  0  0  0  0  0  # atno 8009 bound_to 7997
  154.7633  140.2765  155.6201 H   0  0  0  0  0  0  0  0  0  0  0  0  # atno 8010 bound_to 7997
  140.1594  144.4385  150.6717 H   0  0  0  0  0  0  0  0  0  0  0  0  # atno 10167 bound_to 10162
  157.5975  130.9108  149.9724 H   0  0  0  0  0  0  0  0  0  0  0  0  # atno 10718 bound_to 10713
  153.3702  135.3932  155.1783 H   0  0  0  0  0  0  0  0  0  0  0  0  # atno 10763 bound_to 10752
  154.8693  135.3701  154.4987 H   0  0  0  0  0  0  0  0  0  0  0  0  # atno 10764 bound_to 10752
  153.5454  135.7084  153.5677 H   0  0  0  0  0  0  0  0  0  0  0  0  # atno 10765 bound_to 10752
  141.0000  133.6960  156.2005 H   0  0  0  0  0  0  0  0  0  0  0  0  # atno 11005 bound_to 11000
  145.4119  141.0397  143.3012 LP  0  0  0  0  0  0  0  0  0  0  0  0  # atno 17320 bound_to 7965
  144.8290  139.5661  143.6952 LP  0  0  0  0  0  0  0  0  0  0  0  0  # atno 17321 bound_to 7965
  140.6652  143.2265  151.5759 LP  0  0  0  0  0  0  0  0  0  0  0  0  # atno 17342 bound_to 10162
  139.5388  144.2705  152.1308 LP  0  0  0  0  0  0  0  0  0  0  0  0  # atno 17343 bound_to 10162
  156.1041  130.3654  150.0165 LP  0  0  0  0  0  0  0  0  0  0  0  0  # atno 17370 bound_to 10713
  156.8275  130.9380  151.3638 LP  0  0  0  0  0  0  0  0  0  0  0  0  # atno 17371 bound_to 10713
  140.6904  134.4671  157.5588 LP  0  0  0  0  0  0  0  0  0  0  0  0  # atno 17394 bound_to 11000
  139.9034  134.8504  156.1804 LP  0  0  0  0  0  0  0  0  0  0  0  0  # atno 17395 bound_to 11000

$$$$
