AV-unprocessed.smi:133|AV-procd|sdf|1166|dock6
  -GOLD-   2262018303D 1   1.00000     0.00000
 Structure written by MMmdl.
 47 50  0  0  0  0  0  0  0  0  1 V2000
  153.4598  138.8970  157.0746 O   0  0  0  0  0  0  0  0  0  0  0  0
  152.5532  139.3364  156.3685 C   0  0  0  0  0  0  0  0  0  0  0  0
  152.2145  138.5852  155.0677 C   0  0  0  0  0  0  0  0  0  0  0  0
  150.8027  138.1566  154.9320 N   0  0  0  0  0  0  0  0  0  0  0  0
  149.8265  139.1281  154.5965 C   0  0  0  0  0  0  0  0  0  0  0  0
  150.1343  140.3081  154.4233 O   0  0  0  0  0  0  0  0  0  0  0  0
  148.4574  138.6360  154.4892 C   0  0  0  0  0  0  0  0  0  0  0  0
  147.4651  139.4895  154.1851 F   0  0  0  0  0  0  0  0  0  0  0  0
  148.1694  137.3351  154.6977 C   0  0  0  0  0  0  0  0  0  0  0  0
  149.1330  136.3975  155.0193 N   0  0  0  0  0  0  0  0  0  0  0  0
  148.7626  134.9517  155.2561 C   0  0  1  0  0  0  0  0  0  0  0  0
  147.2380  134.7858  155.2536 C   0  0  0  0  0  0  0  0  0  0  0  0
  146.9756  134.2683  153.8550 C   0  0  0  0  0  0  0  0  0  0  0  0
  148.2294  133.4432  153.5933 C   0  0  0  0  0  0  0  0  0  0  0  0
  149.2804  134.1768  154.2128 O   0  0  0  0  0  0  0  0  0  0  0  0
  150.4793  136.7978  155.1618 C   0  0  0  0  0  0  0  0  0  0  0  0
  151.3473  135.9873  155.4923 O   0  0  0  0  0  0  0  0  0  0  0  0
  151.8482  140.4501  156.6512 N   0  0  0  0  0  0  0  0  0  0  0  0
  151.9716  141.3223  157.7652 C   0  0  0  0  0  0  0  0  0  0  0  0
  152.4209  140.8958  159.0462 C   0  0  0  0  0  0  0  0  0  0  0  0
  152.5112  141.8088  160.1198 C   0  0  0  0  0  0  0  0  0  0  0  0
  152.1363  143.1436  159.8942 C   0  0  0  0  0  0  0  0  0  0  0  0
  151.6793  143.5619  158.6517 C   0  0  0  0  0  0  0  0  0  0  0  0
  151.5818  142.6680  157.5715 C   0  0  0  0  0  0  0  0  0  0  0  0
  151.3331  145.0257  158.6528 C   0  0  0  0  0  0  0  0  0  0  0  0
  151.4672  145.4392  160.1385 C   0  0  0  0  0  0  0  0  0  0  0  0
  152.1575  144.2732  160.8871 C   0  0  0  0  0  0  0  0  0  0  0  0
  152.5063  139.2191  154.2289 H   0  0  0  0  0  0  0  0  0  0  0  0
  152.8877  137.7301  154.9888 H   0  0  0  0  0  0  0  0  0  0  0  0
  147.1382  137.0255  154.6126 H   0  0  0  0  0  0  0  0  0  0  0  0
  149.2353  134.6551  156.1936 H   0  0  0  0  0  0  0  0  0  0  0  0
  146.9695  134.0334  155.9961 H   0  0  0  0  0  0  0  0  0  0  0  0
  146.7171  135.7150  155.4886 H   0  0  0  0  0  0  0  0  0  0  0  0
  146.0577  133.6848  153.7795 H   0  0  0  0  0  0  0  0  0  0  0  0
  146.9139  135.0976  153.1493 H   0  0  0  0  0  0  0  0  0  0  0  0
  148.1498  132.4663  154.0726 H   0  0  0  0  0  0  0  0  0  0  0  0
  148.4193  133.2883  152.5309 H   0  0  0  0  0  0  0  0  0  0  0  0
  151.1957  140.7470  155.9406 H   0  0  0  0  0  0  0  0  0  0  0  0
  152.6905  139.8674  159.2310 H   0  0  0  0  0  0  0  0  0  0  0  0
  152.8561  141.4866  161.0913 H   0  0  0  0  0  0  0  0  0  0  0  0
  151.2242  143.0097  156.6109 H   0  0  0  0  0  0  0  0  0  0  0  0
  152.0428  145.5661  158.0259 H   0  0  0  0  0  0  0  0  0  0  0  0
  150.3270  145.1960  158.2683 H   0  0  0  0  0  0  0  0  0  0  0  0
  151.9899  146.3877  160.2653 H   0  0  0  0  0  0  0  0  0  0  0  0
  150.4665  145.5703  160.5520 H   0  0  0  0  0  0  0  0  0  0  0  0
  151.6327  144.0053  161.8047 H   0  0  0  0  0  0  0  0  0  0  0  0
  153.1909  144.5180  161.1344 H   0  0  0  0  0  0  0  0  0  0  0  0
  1  2  2  0  0  0  0
  2  3  1  0  0  0  0
  2 18  1  0  0  0  0
  3  4  1  0  0  0  0
  3 28  1  0  0  0  0
  3 29  1  0  0  0  0
  4 16  1  0  0  0  0
  4  5  1  0  0  0  0
  5  6  2  0  0  0  0
  5  7  1  0  0  0  0
  7  8  1  0  0  0  0
  7  9  2  0  0  0  0
  9 10  1  0  0  0  0
  9 30  1  0  0  0  0
 10 11  1  0  0  0  0
 10 16  1  0  0  0  0
 11 15  1  0  0  0  0
 11 12  1  0  0  0  0
 11 31  1  0  0  0  0
 12 13  1  0  0  0  0
 12 32  1  0  0  0  0
 12 33  1  0  0  0  0
 13 14  1  0  0  0  0
 13 34  1  0  0  0  0
 13 35  1  0  0  0  0
 14 15  1  0  0  0  0
 14 36  1  0  0  0  0
 14 37  1  0  0  0  0
 16 17  2  0  0  0  0
 18 19  1  0  0  0  0
 18 38  1  0  0  0  0
 19 24  1  0  0  0  0
 19 20  2  0  0  0  0
 20 21  1  0  0  0  0
 20 39  1  0  0  0  0
 21 22  2  0  0  0  0
 21 40  1  0  0  0  0
 22 27  1  0  0  0  0
 22 23  1  0  0  0  0
 23 24  2  0  0  0  0
 23 25  1  0  0  0  0
 24 41  1  0  0  0  0
 25 26  1  0  0  0  0
 25 42  1  0  0  0  0
 25 43  1  0  0  0  0
 26 27  1  0  0  0  0
 26 44  1  0  0  0  0
 26 45  1  0  0  0  0
 27 46  1  0  0  0  0
 27 47  1  0  0  0  0
M  END
> <s_m_source_file>
AV-unprocessed.smi

> <i_m_source_file_index>
133

> <i_lp_mmshare_version>
43012

> <i_f3d_flags>
0

> <s_epik_input>
W0NIMl0xW0NIMl1bQ0gyXWMoYzEyKVtjSF1jKFtjSF1bY0hdMilbTkhdQyg9TylbQ0gyXW4zYyg9TyljKEYpW2NIXW4oYzM9TylbQ0BASF00W0NIMl1bQ0gyXVtDSDJdTzQ=

> <s_epik_cmdline>
J2VwaWtfcHl0aG9uJywgJy1waCcsICc3LjAnLCAnLXRuJywgJzgnLCAnLW1hJywgJzIwMCcsICctbWV0YWxfYmluZGluZycsICctaW1hZScsICc8aW5maWxlLm1hZT4nLCAnLW9tYWUnLCAnPG91dGZpbGUubWFlPic=

> <r_lp_tautomer_probability>
1

> <r_epik_Ionization_Penalty>
4.05675e-06

> <r_epik_Ionization_Penalty_Charging>
3.88729e-08

> <r_epik_Ionization_Penalty_Neutral>
4.01788e-06

> <r_epik_State_Penalty>
-0

> <r_epik_Charging_Adjusted_Penalty>
3.88729e-08

> <i_epik_Tot_Q>
0

> <i_epik_Tot_abs_Q>
0

> <r_epik_Metal_State_Penalty>
-0

> <b_epik_Metal_Only>
0

> <s_epik_Chemistry_Notes>
This compound contains an acetal/aminal-like group ( X-CH(R)-Y where X, Y are N, S, or O) that may be acid/base labile, releasing an aldehyde.

> <s_lp_Force_Field>
OPLS_2005

> <r_lp_Energy>
47.0615

> <b_lp_Chiralities_Consistent>
1

> <s_lp_Variant>
AV-unprocessed.smi:133-2

> <Gold.Version>
5.8.1

> <Gold.Id.Protein>
6NUR|6NUR_protein|mol2

> <Gold.PLP.Fitness>
55.8076

> <Gold.PLP.PLP>
-48.1729

> <Gold.PLP.part.hbond>
-2.8634

> <Gold.PLP.part.metal>
0.0000

> <Gold.PLP.part.buried>
-4.7565

> <Gold.PLP.part.nonpolar>
-40.0685

> <Gold.PLP.part.repulsive>
0.7328

> <Gold.PLP.ligand.clash>
0.0000

> <Gold.PLP.ligand.torsion>
0.5485

> <Gold.PLP.Chemscore.Hbond>
2.9040

> <Gold.PLP.Chemscore.CHOScore>
0.0000

> <Gold.PLP.Chemscore.Metal>
0.0000

> <Gold.Chemscore.Hbonds>
donor molecule, donor type, donor heavy atom, donor atom, acceptor molecule, acceptor atom, score
      P1  H  7989  7998       L1     6  0.98
      P1  H  7997  8008       L1     1  0.93
      P1  H 10752 10763       L1    17  1.00

> <Gold.PLP.Chemscore.Internal.Correction>
0.0198

> <Gold.Rescore>
     Score         DG    S(hbond)    S(metal)    S(lipo)     H(rot)  DE(clash)    DE(int)     intcor
     20.74     -23.60       2.62        0.00     114.75       1.59       0.28       2.58       ----

> <Gold.Chemscore.Fitness>
20.7435

> <Gold.Chemscore.DG>
-23.5999

> <Gold.Chemscore.ZeroCoef>
-5.4800

> <Gold.Chemscore.Hbond>
2.6216

> <Gold.Chemscore.Metal>
0.0000

> <Gold.Chemscore.Lipo>
114.7525

> <Gold.Chemscore.Internal_Hbond>
0.0000

> <Gold.Chemscore.DEClash>
0.2753

> <Gold.Chemscore.DEInternal>
2.5812

> <Gold.Chemscore.Rot>
1.5869

> <Gold.Chemscore.Internal.Correction>
   9.000000E+99

> <Gold.Chemscore.Hbonds>
donor molecule, donor type, donor heavy atom, donor atom, acceptor molecule, acceptor atom, score
      P1  H  7989  7998       L1     6  0.93
      P1  H  7997  8008       L1     1  0.44
      P1  H 10752 10763       L1    17  1.00

> <Gold.Chemscore.Hbond.Weighted>
-8.7563

> <Gold.Chemscore.Metal.Weighted>
-0.0000

> <Gold.Chemscore.Lipo.Weighted>
-13.4260

> <Gold.Chemscore.Internal_Hbond.Weighted>
0.0000

> <Gold.Chemscore.DEClash.Weighted>
0.2753

> <Gold.Chemscore.DEInternal.Weighted>
2.5812

> <Gold.Chemscore.Rot.Weighted>
4.0624

> <Gold.Chemscore.Internal.Correction.Weighted>
   9.000000E+99

> <Gold.Protein.RotatedTorsions>
[ 6907 6896 6895 6894 ] final -124.78 input  -60.11 | X-H torsion
[ 7974 7965 7964 7962 ] final   10.17 input  175.53 | X-H torsion
[ 8008 7997 7996 7995 ] final  -86.35 input   59.86 | X-H torsion
[ 10167 10162 10161 10158 ] final  113.14 input  -65.29 | X-H torsion
[ 10718 10713 10712 10709 ] final  -55.27 input   66.30 | X-H torsion
[ 10763 10752 10751 10750 ] final   66.67 input  -60.55 | X-H torsion
[ 11005 11000 10999 10996 ] final -133.75 input  -57.11 | X-H torsion

> <Gold.Protein.ActiveResidues>
 VAL166  LYS551  ARG553  GLY616  TRP617  ASP618  TYR619  PRO620  LYS621  CYS622 
 ASP623  PHE694  ASN695  SER759  ASP760  ASP761  ALA762  ILE779  LEU786  VAL792 
 PHE793  MET794  SER795  GLU796  ALA797  LYS798  CYS799  TRP800  GLU811  SER814 

> <Gold.Protein.RotatedAtoms>
  150.8802  133.7383  159.2934 H   0  0  0  0  0  0  0  0  0  0  0  0  # atno 6907 bound_to 6896
  151.4966  135.1058  159.9827 H   0  0  0  0  0  0  0  0  0  0  0  0  # atno 6908 bound_to 6896
  152.4754  133.8081  159.7044 H   0  0  0  0  0  0  0  0  0  0  0  0  # atno 6909 bound_to 6896
  146.2392  139.9674  142.8451 H   0  0  0  0  0  0  0  0  0  0  0  0  # atno 7974 bound_to 7965
  154.6509  140.0579  156.9954 H   0  0  0  0  0  0  0  0  0  0  0  0  # atno 8008 bound_to 7997
  155.1372  140.3262  155.4442 H   0  0  0  0  0  0  0  0  0  0  0  0  # atno 8009 bound_to 7997
  156.2575  140.1970  156.6490 H   0  0  0  0  0  0  0  0  0  0  0  0  # atno 8010 bound_to 7997
  139.6483  144.7127  151.2098 H   0  0  0  0  0  0  0  0  0  0  0  0  # atno 10167 bound_to 10162
  156.1382  130.4156  150.0149 H   0  0  0  0  0  0  0  0  0  0  0  0  # atno 10718 bound_to 10713
  153.0150  135.5312  154.6859 H   0  0  0  0  0  0  0  0  0  0  0  0  # atno 10763 bound_to 10752
  154.6007  135.2868  155.0541 H   0  0  0  0  0  0  0  0  0  0  0  0  # atno 10764 bound_to 10752
  154.1599  135.6549  153.5036 H   0  0  0  0  0  0  0  0  0  0  0  0  # atno 10765 bound_to 10752
  140.9052  134.1639  157.4431 H   0  0  0  0  0  0  0  0  0  0  0  0  # atno 11005 bound_to 11000
  145.1713  140.9722  143.4320 LP  0  0  0  0  0  0  0  0  0  0  0  0  # atno 17320 bound_to 7965
  145.0025  139.3584  143.6160 LP  0  0  0  0  0  0  0  0  0  0  0  0  # atno 17321 bound_to 7965
  140.7525  143.6193  150.8529 LP  0  0  0  0  0  0  0  0  0  0  0  0  # atno 17342 bound_to 10162
  139.9838  143.5922  152.2934 LP  0  0  0  0  0  0  0  0  0  0  0  0  # atno 17343 bound_to 10162
  156.8042  130.9301  151.3645 LP  0  0  0  0  0  0  0  0  0  0  0  0  # atno 17370 bound_to 10713
  157.6551  130.8918  149.9713 LP  0  0  0  0  0  0  0  0  0  0  0  0  # atno 17371 bound_to 10713
  139.8748  134.9914  156.5547 LP  0  0  0  0  0  0  0  0  0  0  0  0  # atno 17394 bound_to 11000
  140.8180  133.8376  155.8869 LP  0  0  0  0  0  0  0  0  0  0  0  0  # atno 17395 bound_to 11000

$$$$
