AV-unprocessed.smi:3314|AV-procd|sdf|12744|dock3
  -GOLD-   2272019 83D 1   1.00000     0.00000
 Structure written by MMmdl.
 37 38  0  0  0  0  0  0  0  0  3 V2000
  153.5288  141.7323  161.9925 C   0  0  0  0  0  0  0  0  0  0  0  0
  152.9009  141.8712  160.6219 C   0  0  0  0  0  0  0  0  0  0  0  0
  152.1859  143.0310  160.2677 C   0  0  0  0  0  0  0  0  0  0  0  0
  151.6307  143.0984  158.9752 C   0  0  0  0  0  0  0  0  0  0  0  0
  150.8489  144.3175  158.5338 C   0  0  0  0  0  0  0  0  0  0  0  0
  151.7482  142.1043  158.0681 N   0  0  0  0  0  0  0  0  0  0  0  0
  152.4276  140.9805  158.3994 C   0  0  0  0  0  0  0  0  0  0  0  0
  152.5439  140.0060  157.4861 N   0  5  0  0  0  0  0  0  0  0  0  0
  151.7310  139.9938  156.4019 C   0  0  0  0  0  0  0  0  0  0  0  0
  152.0174  140.2276  155.2258 O   0  0  0  0  0  0  0  0  0  0  0  0
  150.2801  139.6241  156.7853 C   0  0  1  0  0  0  0  0  0  0  0  0
  149.2099  140.6071  156.2534 C   0  0  0  0  0  0  0  0  0  0  0  0
  149.0751  140.5011  154.7810 N   0  3  2  0  0  0  0  0  0  0  0  0
  148.1144  141.4754  154.2228 C   0  0  0  0  0  0  0  0  0  0  0  0
  148.7781  139.1082  154.3777 C   0  0  0  0  0  0  0  0  0  0  0  0
  149.8493  138.1526  154.9277 C   0  0  0  0  0  0  0  0  0  0  0  0
  149.9435  138.3026  156.3438 O   0  0  0  0  0  0  0  0  0  0  0  0
  153.0245  140.8364  159.6733 C   0  0  0  0  0  0  0  0  0  0  0  0
  153.2258  142.5464  162.6516 H   0  0  0  0  0  0  0  0  0  0  0  0
  154.6157  141.7435  161.9111 H   0  0  0  0  0  0  0  0  0  0  0  0
  153.2274  140.7912  162.4532 H   0  0  0  0  0  0  0  0  0  0  0  0
  152.0669  143.8469  160.9654 H   0  0  0  0  0  0  0  0  0  0  0  0
  151.2276  145.2164  159.0211 H   0  0  0  0  0  0  0  0  0  0  0  0
  149.7967  144.2028  158.7942 H   0  0  0  0  0  0  0  0  0  0  0  0
  150.9225  144.4616  157.4551 H   0  0  0  0  0  0  0  0  0  0  0  0
  150.2293  139.6254  157.8751 H   0  0  0  0  0  0  0  0  0  0  0  0
  148.2482  140.3889  156.7203 H   0  0  0  0  0  0  0  0  0  0  0  0
  149.4627  141.6318  156.5306 H   0  0  0  0  0  0  0  0  0  0  0  0
  147.1084  141.2960  154.6046 H   0  0  0  0  0  0  0  0  0  0  0  0
  148.0860  141.4052  153.1351 H   0  0  0  0  0  0  0  0  0  0  0  0
  148.4053  142.4935  154.4834 H   0  0  0  0  0  0  0  0  0  0  0  0
  147.7937  138.8211  154.7508 H   0  0  0  0  0  0  0  0  0  0  0  0
  148.7426  139.0374  153.2900 H   0  0  0  0  0  0  0  0  0  0  0  0
  149.5775  137.1208  154.7047 H   0  0  0  0  0  0  0  0  0  0  0  0
  150.8120  138.3280  154.4460 H   0  0  0  0  0  0  0  0  0  0  0  0
  153.5701  139.9373  159.9217 H   0  0  0  0  0  0  0  0  0  0  0  0
  149.9811  140.7294  154.3953 H   0  0  0  0  0  0  0  0  0  0  0  0
  1  2  1  0  0  0  0
  1 19  1  0  0  0  0
  1 20  1  0  0  0  0
  1 21  1  0  0  0  0
  2 18  2  0  0  0  0
  2  3  1  0  0  0  0
  3  4  2  0  0  0  0
  3 22  1  0  0  0  0
  4  5  1  0  0  0  0
  4  6  1  0  0  0  0
  5 23  1  0  0  0  0
  5 24  1  0  0  0  0
  5 25  1  0  0  0  0
  6  7  2  0  0  0  0
  7  8  1  0  0  0  0
  7 18  1  0  0  0  0
  8  9  1  0  0  0  0
  9 10  2  0  0  0  0
  9 11  1  0  0  0  0
 11 17  1  0  0  0  0
 11 12  1  0  0  0  0
 11 26  1  0  0  0  0
 12 13  1  0  0  0  0
 12 27  1  0  0  0  0
 12 28  1  0  0  0  0
 13 14  1  0  0  0  0
 13 15  1  0  0  0  0
 13 37  1  0  0  0  0
 14 29  1  0  0  0  0
 14 30  1  0  0  0  0
 14 31  1  0  0  0  0
 15 16  1  0  0  0  0
 15 32  1  0  0  0  0
 15 33  1  0  0  0  0
 16 17  1  0  0  0  0
 16 34  1  0  0  0  0
 16 35  1  0  0  0  0
 18 36  1  0  0  0  0
M  CHG  1   8  -1
M  CHG  1  13   1
M  END
> <s_m_source_file>
AV-unprocessed.smi

> <i_m_source_file_index>
3314

> <i_lp_mmshare_version>
43012

> <i_f3d_flags>
0

> <s_epik_input>
W0NIM11jMVtjSF1jKFtDSDNdKW5jKFtjSF0xKVtOSF1DKD1PKVtDQEBIXTJbQ0gyXU4oW0NIM10pW0NIMl1bQ0gyXU8y

> <s_epik_cmdline>
J2VwaWtfcHl0aG9uJywgJy1waCcsICc3LjAnLCAnLXRuJywgJzgnLCAnLW1hJywgJzIwMCcsICctbWV0YWxfYmluZGluZycsICctaW1hZScsICc8aW5maWxlLm1hZT4nLCAnLW9tYWUnLCAnPG91dGZpbGUubWFlPic=

> <r_epik_Ionization_Penalty>
13.8964

> <r_epik_Ionization_Penalty_Charging>
7.88995

> <r_epik_Ionization_Penalty_Neutral>
6.00641

> <r_epik_State_Penalty>
8.39989

> <r_epik_Charging_Adjusted_Penalty>
16.2898

> <i_epik_Tot_Q>
0

> <i_epik_Tot_abs_Q>
2

> <r_epik_Metal_State_Penalty>
4.31145

> <b_epik_Metal_Only>
1

> <s_lp_Force_Field>
OPLS_2005

> <r_lp_Energy>
7.08315

> <b_lp_Chiralities_Consistent>
1

> <s_lp_Variant>
AV-unprocessed.smi:3314-14

> <Gold.Version>
5.8.1

> <Gold.Id.Protein>
6NUR|6NUR_protein|mol2

> <Gold.PLP.Fitness>
41.5523

> <Gold.PLP.PLP>
-35.0662

> <Gold.PLP.part.hbond>
-2.0000

> <Gold.PLP.part.metal>
0.0000

> <Gold.PLP.part.buried>
-3.0915

> <Gold.PLP.part.nonpolar>
-29.2797

> <Gold.PLP.part.repulsive>
0.1830

> <Gold.PLP.ligand.clash>
0.0000

> <Gold.PLP.ligand.torsion>
0.9344

> <Gold.PLP.Chemscore.Hbond>
2.7680

> <Gold.PLP.Chemscore.CHOScore>
0.0000

> <Gold.PLP.Chemscore.Metal>
0.0000

> <Gold.Chemscore.Hbonds>
donor molecule, donor type, donor heavy atom, donor atom, acceptor molecule, acceptor atom, score
      P1  H  7989  7998       L1    10  0.75
      P1  H  7997  8009       L1     8  1.85

> <Gold.PLP.Chemscore.Internal.Correction>
0.0509

> <Gold.Rescore>
     Score         DG    S(hbond)    S(metal)    S(lipo)     H(rot)  DE(clash)    DE(int)     intcor
     14.94     -16.98       1.01        0.00      91.28       1.00       0.11       1.93       ----

> <Gold.Chemscore.Fitness>
14.9436

> <Gold.Chemscore.DG>
-16.9830

> <Gold.Chemscore.ZeroCoef>
-5.4800

> <Gold.Chemscore.Hbond>
1.0128

> <Gold.Chemscore.Metal>
0.0000

> <Gold.Chemscore.Lipo>
91.2828

> <Gold.Chemscore.Internal_Hbond>
0.0000

> <Gold.Chemscore.DEClash>
0.1107

> <Gold.Chemscore.DEInternal>
1.9287

> <Gold.Chemscore.Rot>
1.0000

> <Gold.Chemscore.Internal.Correction>
   9.000000E+99

> <Gold.Chemscore.Hbonds>
donor molecule, donor type, donor heavy atom, donor atom, acceptor molecule, acceptor atom, score
      P1  H  7989  7998       L1    10  0.74
      P1  H  7997  8009       L1     8  0.15

> <Gold.Chemscore.Hbond.Weighted>
-3.3829

> <Gold.Chemscore.Metal.Weighted>
-0.0000

> <Gold.Chemscore.Lipo.Weighted>
-10.6801

> <Gold.Chemscore.Internal_Hbond.Weighted>
0.0000

> <Gold.Chemscore.DEClash.Weighted>
0.1107

> <Gold.Chemscore.DEInternal.Weighted>
1.9287

> <Gold.Chemscore.Rot.Weighted>
2.5600

> <Gold.Chemscore.Internal.Correction.Weighted>
   9.000000E+99

> <Gold.Protein.RotatedTorsions>
[ 6907 6896 6895 6894 ] final  174.37 input  -60.11 | X-H torsion
[ 7974 7965 7964 7962 ] final   26.56 input  175.53 | X-H torsion
[ 8008 7997 7996 7995 ] final -172.82 input   59.86 | X-H torsion
[ 10167 10162 10161 10158 ] final -173.39 input  -65.29 | X-H torsion
[ 10718 10713 10712 10709 ] final  111.74 input   66.30 | X-H torsion
[ 10763 10752 10751 10750 ] final -138.41 input  -60.55 | X-H torsion
[ 11005 11000 10999 10996 ] final   30.09 input  -57.11 | X-H torsion

> <Gold.Protein.ActiveResidues>
 VAL166  LYS551  ARG553  GLY616  TRP617  ASP618  TYR619  PRO620  LYS621  CYS622 
 ASP623  PHE694  ASN695  SER759  ASP760  ASP761  ALA762  ILE779  LEU786  VAL792 
 PHE793  MET794  SER795  GLU796  ALA797  LYS798  CYS799  TRP800  GLU811  SER814 

> <Gold.Protein.RotatedAtoms>
  151.7534  133.3329  159.3397 H   0  0  0  0  0  0  0  0  0  0  0  0  # atno 6907 bound_to 6896
  150.7526  134.6172  159.6126 H   0  0  0  0  0  0  0  0  0  0  0  0  # atno 6908 bound_to 6896
  152.3453  134.7081  160.0303 H   0  0  0  0  0  0  0  0  0  0  0  0  # atno 6909 bound_to 6896
  146.1831  139.7311  142.8886 H   0  0  0  0  0  0  0  0  0  0  0  0  # atno 7974 bound_to 7965
  155.9495  140.1124  157.0988 H   0  0  0  0  0  0  0  0  0  0  0  0  # atno 8008 bound_to 7997
  154.4106  140.1203  156.5100 H   0  0  0  0  0  0  0  0  0  0  0  0  # atno 8009 bound_to 7997
  155.6860  140.3473  155.4876 H   0  0  0  0  0  0  0  0  0  0  0  0  # atno 8010 bound_to 7997
  139.5691  144.1685  152.1357 H   0  0  0  0  0  0  0  0  0  0  0  0  # atno 10167 bound_to 10162
  157.6429  131.0956  150.6793 H   0  0  0  0  0  0  0  0  0  0  0  0  # atno 10718 bound_to 10713
  154.8637  135.3613  154.5380 H   0  0  0  0  0  0  0  0  0  0  0  0  # atno 10763 bound_to 10752
  153.6002  135.7013  153.5392 H   0  0  0  0  0  0  0  0  0  0  0  0  # atno 10764 bound_to 10752
  153.3297  135.4128  155.1446 H   0  0  0  0  0  0  0  0  0  0  0  0  # atno 10765 bound_to 10752
  140.2981  134.2788  155.7760 H   0  0  0  0  0  0  0  0  0  0  0  0  # atno 11005 bound_to 11000
  145.4019  141.0386  143.3066 LP  0  0  0  0  0  0  0  0  0  0  0  0  # atno 17320 bound_to 7965
  144.8349  139.5567  143.6927 LP  0  0  0  0  0  0  0  0  0  0  0  0  # atno 17321 bound_to 7965
  140.1214  144.5370  150.6860 LP  0  0  0  0  0  0  0  0  0  0  0  0  # atno 17342 bound_to 10162
  140.6975  143.2413  151.4959 LP  0  0  0  0  0  0  0  0  0  0  0  0  # atno 17343 bound_to 10162
  156.7114  130.4653  149.5546 LP  0  0  0  0  0  0  0  0  0  0  0  0  # atno 17370 bound_to 10713
  156.1727  130.6448  151.0857 LP  0  0  0  0  0  0  0  0  0  0  0  0  # atno 17371 bound_to 10713
  141.2133  133.7628  156.9725 LP  0  0  0  0  0  0  0  0  0  0  0  0  # atno 17394 bound_to 11000
  140.1134  134.9462  157.2099 LP  0  0  0  0  0  0  0  0  0  0  0  0  # atno 17395 bound_to 11000

$$$$
