AV-unprocessed.smi:265|AV-procd|sdf|2021|dock6
  -GOLD-   2262021223D 1   1.00000     0.00000
 Structure written by MMmdl.
 52 56  0  0  0  0  0  0  0  0  1 V2000
  146.0959  129.5868  152.1348 C   0  0  0  0  0  0  0  0  0  0  0  0
  147.4885  128.9412  152.2270 C   0  0  2  0  0  0  0  0  0  0  0  0
  147.5380  127.8767  151.2786 O   0  0  0  0  0  0  0  0  0  0  0  0
  148.2949  126.8052  151.8138 C   0  0  0  0  0  0  0  0  0  0  0  0
  147.8991  126.8236  153.2807 C   0  0  0  0  0  0  0  0  0  0  0  0
  147.8724  128.3180  153.5980 C   0  0  2  0  0  0  0  0  0  0  0  0
  146.8936  128.5470  154.5970 O   0  0  0  0  0  0  0  0  0  0  0  0
  149.2298  128.8786  154.1017 C   0  0  0  0  0  0  0  0  0  0  0  0
  149.2309  130.3098  154.3678 N   0  0  0  0  0  0  0  0  0  0  0  0
  148.9508  131.3122  153.4663 C   0  0  0  0  0  0  0  0  0  0  0  0
  149.0088  132.5246  153.9448 N   0  0  0  0  0  0  0  0  0  0  0  0
  149.3448  132.3463  155.2817 C   0  0  0  0  0  0  0  0  0  0  0  0
  149.5603  133.2317  156.3755 C   0  0  0  0  0  0  0  0  0  0  0  0
  149.4787  134.5810  156.2522 N   0  0  0  0  0  0  0  0  0  0  0  0
  149.0881  135.3510  157.4327 C   0  0  0  0  0  0  0  0  0  0  0  0
  148.6469  136.7678  157.0351 C   0  0  0  0  0  0  0  0  0  0  0  0
  149.7117  137.4824  156.1868 C   0  0  1  0  0  0  0  0  0  0  0  0
  150.8617  137.7647  156.9739 O   0  0  0  0  0  0  0  0  0  0  0  0
  151.8240  138.5883  156.3126 C   0  0  0  0  0  0  0  0  0  0  0  0
  152.1542  138.0820  154.8961 C   0  0  0  0  0  0  0  0  0  0  0  0
  153.1547  138.4957  154.3149 O   0  0  0  0  0  0  0  0  0  0  0  0
  151.3010  137.2219  154.3169 N   0  0  0  0  0  0  0  0  0  0  0  0
  150.1649  136.6088  154.9968 C   0  0  1  0  0  0  0  0  0  0  0  0
  150.5423  135.1842  155.4518 C   0  0  0  0  0  0  0  0  0  0  0  0
  149.8580  132.6752  157.5803 N   0  0  0  0  0  0  0  0  0  0  0  0
  149.9463  131.3480  157.7081 C   0  0  0  0  0  0  0  0  0  0  0  0
  149.7773  130.4074  156.7770 N   0  0  0  0  0  0  0  0  0  0  0  0
  149.4752  130.9575  155.5667 C   0  0  0  0  0  0  0  0  0  0  0  0
  149.2933  138.4243  155.8265 H   0  0  0  0  0  0  0  0  0  0  0  0
  149.3447  136.5388  154.2812 H   0  0  0  0  0  0  0  0  0  0  0  0
  146.0018  130.4260  152.8245 H   0  0  0  0  0  0  0  0  0  0  0  0
  145.3091  128.8678  152.3655 H   0  0  0  0  0  0  0  0  0  0  0  0
  145.9118  129.9662  151.1296 H   0  0  0  0  0  0  0  0  0  0  0  0
  148.2329  129.6821  151.9315 H   0  0  0  0  0  0  0  0  0  0  0  0
  148.0575  125.8611  151.3235 H   0  0  0  0  0  0  0  0  0  0  0  0
  149.3604  127.0035  151.6890 H   0  0  0  0  0  0  0  0  0  0  0  0
  146.8992  126.3962  153.3749 H   0  0  0  0  0  0  0  0  0  0  0  0
  148.5626  126.2322  153.9096 H   0  0  0  0  0  0  0  0  0  0  0  0
  146.3260  129.2449  154.3076 H   0  0  0  0  0  0  0  0  0  0  0  0
  149.5274  128.3708  155.0201 H   0  0  0  0  0  0  0  0  0  0  0  0
  150.0152  128.6671  153.3745 H   0  0  0  0  0  0  0  0  0  0  0  0
  148.7055  131.1141  152.4328 H   0  0  0  0  0  0  0  0  0  0  0  0
  148.2702  134.8525  157.9549 H   0  0  0  0  0  0  0  0  0  0  0  0
  149.9296  135.4021  158.1251 H   0  0  0  0  0  0  0  0  0  0  0  0
  147.7205  136.7032  156.4630 H   0  0  0  0  0  0  0  0  0  0  0  0
  148.4187  137.3544  157.9253 H   0  0  0  0  0  0  0  0  0  0  0  0
  151.4425  139.6075  156.2429 H   0  0  0  0  0  0  0  0  0  0  0  0
  152.7332  138.6233  156.9131 H   0  0  0  0  0  0  0  0  0  0  0  0
  151.4960  136.9172  153.3740 H   0  0  0  0  0  0  0  0  0  0  0  0
  151.4490  135.2136  156.0583 H   0  0  0  0  0  0  0  0  0  0  0  0
  150.7775  134.5769  154.5782 H   0  0  0  0  0  0  0  0  0  0  0  0
  150.1868  130.9885  158.6978 H   0  0  0  0  0  0  0  0  0  0  0  0
  1  2  1  0  0  0  0
  1 31  1  0  0  0  0
  1 32  1  0  0  0  0
  1 33  1  0  0  0  0
  2  6  1  0  0  0  0
  2  3  1  0  0  0  0
  2 34  1  0  0  0  0
  3  4  1  0  0  0  0
  4  5  1  0  0  0  0
  4 35  1  0  0  0  0
  4 36  1  0  0  0  0
  5  6  1  0  0  0  0
  5 37  1  0  0  0  0
  5 38  1  0  0  0  0
  6  7  1  0  0  0  0
  6  8  1  0  0  0  0
  7 39  1  0  0  0  0
  8  9  1  0  0  0  0
  8 40  1  0  0  0  0
  8 41  1  0  0  0  0
  9 28  1  0  0  0  0
  9 10  1  0  0  0  0
 10 11  2  0  0  0  0
 10 42  1  0  0  0  0
 11 12  1  0  0  0  0
 12 28  2  0  0  0  0
 12 13  1  0  0  0  0
 13 14  1  0  0  0  0
 13 25  2  0  0  0  0
 14 24  1  0  0  0  0
 14 15  1  0  0  0  0
 15 16  1  0  0  0  0
 15 43  1  0  0  0  0
 15 44  1  0  0  0  0
 16 17  1  0  0  0  0
 16 45  1  0  0  0  0
 16 46  1  0  0  0  0
 17 29  1  0  0  0  0
 17 23  1  0  0  0  0
 17 18  1  0  0  0  0
 18 19  1  0  0  0  0
 19 20  1  0  0  0  0
 19 47  1  0  0  0  0
 19 48  1  0  0  0  0
 20 21  2  0  0  0  0
 20 22  1  0  0  0  0
 22 23  1  0  0  0  0
 22 49  1  0  0  0  0
 23 30  1  0  0  0  0
 23 24  1  0  0  0  0
 24 50  1  0  0  0  0
 24 51  1  0  0  0  0
 25 26  1  0  0  0  0
 26 27  2  0  0  0  0
 26 52  1  0  0  0  0
 27 28  1  0  0  0  0
M  END
> <s_m_source_file>
AV-unprocessed.smi

> <i_m_source_file_index>
265

> <i_lp_mmshare_version>
43012

> <i_f3d_flags>
0

> <s_epik_input>
W0NIMl0xW0NIMl1PW0NAQEhdKFtDSDNdKVtDQEBdMShbT0hdKVtDSDJdbihbY0hdbjIpYyhjMjMpbltjSF1uYzNOKFtDSDJdW0NIMl00KVtDSDJdW0NAQEhdKFtDQEhdNDUpW05IXUMoPU8pW0NIMl1PNQ==

> <s_epik_cmdline>
J2VwaWtfcHl0aG9uJywgJy1waCcsICc3LjAnLCAnLXRuJywgJzgnLCAnLW1hJywgJzIwMCcsICctbWV0YWxfYmluZGluZycsICctaW1hZScsICc8aW5maWxlLm1hZT4nLCAnLW9tYWUnLCAnPG91dGZpbGUubWFlPic=

> <r_lp_tautomer_probability>
1

> <r_epik_Ionization_Penalty>
0.00221504

> <r_epik_Ionization_Penalty_Charging>
0

> <r_epik_Ionization_Penalty_Neutral>
0.00221504

> <r_epik_State_Penalty>
-0

> <r_epik_Charging_Adjusted_Penalty>
0

> <i_epik_Tot_Q>
0

> <i_epik_Tot_abs_Q>
0

> <r_epik_Metal_State_Penalty>
-0

> <b_epik_Metal_Only>
0

> <s_lp_Force_Field>
OPLS_2005

> <r_lp_Energy>
45.2978

> <b_lp_Chiralities_Consistent>
1

> <s_lp_Variant>
AV-unprocessed.smi:265-7

> <Gold.Version>
5.8.1

> <Gold.Id.Protein>
6NUR|6NUR_protein|mol2

> <Gold.PLP.Fitness>
38.5438

> <Gold.PLP.PLP>
-30.7512

> <Gold.PLP.part.hbond>
-1.8002

> <Gold.PLP.part.metal>
0.0000

> <Gold.PLP.part.buried>
-2.9110

> <Gold.PLP.part.nonpolar>
-25.6848

> <Gold.PLP.part.repulsive>
0.4208

> <Gold.PLP.ligand.clash>
0.0000

> <Gold.PLP.ligand.torsion>
0.4494

> <Gold.PLP.Chemscore.Hbond>
1.7713

> <Gold.PLP.Chemscore.CHOScore>
1.0000

> <Gold.PLP.Chemscore.Metal>
0.0000

> <Gold.Chemscore.Hbonds>
donor molecule, donor type, donor heavy atom, donor atom, acceptor molecule, acceptor atom, score
      L1  H    22    49       P1  7949  0.76
      P1  H  6896  6908       L1    25  0.63
      L1  C    10    42       P1 10747  1.00

> <Gold.PLP.Chemscore.Internal.Correction>
0.3777

> <Gold.Rescore>
     Score         DG    S(hbond)    S(metal)    S(lipo)     H(rot)  DE(clash)    DE(int)     intcor
     12.31     -12.91       1.91        0.00      58.26       2.25       0.04       0.56       ----

> <Gold.Chemscore.Fitness>
12.3099

> <Gold.Chemscore.DG>
-12.9135

> <Gold.Chemscore.ZeroCoef>
-5.4800

> <Gold.Chemscore.Hbond>
1.9056

> <Gold.Chemscore.Metal>
0.0000

> <Gold.Chemscore.Lipo>
58.2623

> <Gold.Chemscore.Internal_Hbond>
0.0000

> <Gold.Chemscore.DEClash>
0.0396

> <Gold.Chemscore.DEInternal>
0.5640

> <Gold.Chemscore.Rot>
2.2453

> <Gold.Chemscore.Internal.Correction>
   9.000000E+99

> <Gold.Chemscore.Hbonds>
donor molecule, donor type, donor heavy atom, donor atom, acceptor molecule, acceptor atom, score
      L1  H    22    49       P1  7949  0.67
      P1  H  6896  6908       L1    25  0.39

> <Gold.Chemscore.Hbond.Weighted>
-6.3647

> <Gold.Chemscore.Metal.Weighted>
-0.0000

> <Gold.Chemscore.Lipo.Weighted>
-6.8167

> <Gold.Chemscore.Internal_Hbond.Weighted>
0.0000

> <Gold.Chemscore.DEClash.Weighted>
0.0396

> <Gold.Chemscore.DEInternal.Weighted>
0.5640

> <Gold.Chemscore.Rot.Weighted>
5.7479

> <Gold.Chemscore.Internal.Correction.Weighted>
   9.000000E+99

> <Gold.Protein.RotatedTorsions>
[ 6907 6896 6895 6894 ] final  101.03 input  -60.11 | X-H torsion
[ 7974 7965 7964 7962 ] final  -25.01 input  175.53 | X-H torsion
[ 8008 7997 7996 7995 ] final  -31.78 input   59.86 | X-H torsion
[ 10167 10162 10161 10158 ] final -161.90 input  -65.29 | X-H torsion
[ 10718 10713 10712 10709 ] final  -65.42 input   66.30 | X-H torsion
[ 10763 10752 10751 10750 ] final   22.80 input  -60.55 | X-H torsion
[ 11005 11000 10999 10996 ] final  122.71 input  -57.11 | X-H torsion

> <Gold.Protein.ActiveResidues>
 VAL166  LYS551  ARG553  GLY616  TRP617  ASP618  TYR619  PRO620  LYS621  CYS622 
 ASP623  PHE694  ASN695  SER759  ASP760  ASP761  ALA762  ILE779  LEU786  VAL792 
 PHE793  MET794  SER795  GLU796  ALA797  LYS798  CYS799  TRP800  GLU811  SER814 

> <Gold.Protein.RotatedAtoms>
  152.5359  134.0187  159.7971 H   0  0  0  0  0  0  0  0  0  0  0  0  # atno 6907 bound_to 6896
  151.0377  133.5726  159.2661 H   0  0  0  0  0  0  0  0  0  0  0  0  # atno 6908 bound_to 6896
  151.2707  135.0691  159.9187 H   0  0  0  0  0  0  0  0  0  0  0  0  # atno 6909 bound_to 6896
  146.1518  140.4829  142.8608 H   0  0  0  0  0  0  0  0  0  0  0  0  # atno 7974 bound_to 7965
  154.4202  140.1755  156.1622 H   0  0  0  0  0  0  0  0  0  0  0  0  # atno 8008 bound_to 7997
  155.9829  140.3376  155.6655 H   0  0  0  0  0  0  0  0  0  0  0  0  # atno 8009 bound_to 7997
  155.6476  140.0687  157.2588 H   0  0  0  0  0  0  0  0  0  0  0  0  # atno 8010 bound_to 7997
  139.6431  144.0222  152.2107 H   0  0  0  0  0  0  0  0  0  0  0  0  # atno 10167 bound_to 10162
  156.0670  130.4247  150.1562 H   0  0  0  0  0  0  0  0  0  0  0  0  # atno 10718 bound_to 10713
  153.0887  135.6640  153.9897 H   0  0  0  0  0  0  0  0  0  0  0  0  # atno 10763 bound_to 10752
  153.9500  135.2985  155.3440 H   0  0  0  0  0  0  0  0  0  0  0  0  # atno 10764 bound_to 10752
  154.7299  135.5127  153.9019 H   0  0  0  0  0  0  0  0  0  0  0  0  # atno 10765 bound_to 10752
  139.9280  134.9641  156.8149 H   0  0  0  0  0  0  0  0  0  0  0  0  # atno 11005 bound_to 11000
  144.7913  140.6038  143.6539 LP  0  0  0  0  0  0  0  0  0  0  0  0  # atno 17320 bound_to 7965
  145.4804  139.1496  143.3765 LP  0  0  0  0  0  0  0  0  0  0  0  0  # atno 17321 bound_to 7965
  139.9917  144.6357  150.7808 LP  0  0  0  0  0  0  0  0  0  0  0  0  # atno 17342 bound_to 10162
  140.7501  143.2949  151.3230 LP  0  0  0  0  0  0  0  0  0  0  0  0  # atno 17343 bound_to 10162
  156.9620  130.9808  151.3477 LP  0  0  0  0  0  0  0  0  0  0  0  0  # atno 17370 bound_to 10713
  157.5718  130.8316  149.8402 LP  0  0  0  0  0  0  0  0  0  0  0  0  # atno 17371 bound_to 10713
  140.6281  133.9931  155.7649 LP  0  0  0  0  0  0  0  0  0  0  0  0  # atno 17394 bound_to 11000
  141.0851  134.0003  157.3326 LP  0  0  0  0  0  0  0  0  0  0  0  0  # atno 17395 bound_to 11000

$$$$
