AV-unprocessed.smi:244|AV-procd|sdf|1874|dock9
  -GOLD-   2262020513D 1   1.00000     0.00000
 Structure written by MMmdl.
 56 60  0  0  0  0  0  0  0  0  1 V2000
  151.1048  145.1973  158.4754 C   0  0  0  0  0  0  0  0  0  0  0  0
  152.4592  144.7827  158.8237 N   0  0  0  0  0  0  0  0  0  0  0  0
  152.7533  144.9255  160.2512 C   0  0  0  0  0  0  0  0  0  0  0  0
  152.0082  143.8895  161.1167 C   0  0  0  0  0  0  0  0  0  0  0  0
  152.2821  142.4536  160.6479 C   0  0  2  0  0  0  0  0  0  0  0  0
  153.6310  142.1026  160.9487 O   0  0  0  0  0  0  0  0  0  0  0  0
  153.9211  140.7526  160.6036 C   0  0  0  0  0  0  0  0  0  0  0  0
  153.7398  140.5540  159.0907 C   0  0  0  0  0  0  0  0  0  0  0  0
  152.4027  140.9841  158.6812 N   0  0  0  0  0  0  0  0  0  0  0  0
  151.9710  140.6297  157.4416 C   0  0  0  0  0  0  0  0  0  0  0  0
  152.7678  139.8696  156.6428 N   0  0  0  0  0  0  0  0  0  0  0  0
  152.3691  139.5300  155.4140 C   0  0  0  0  0  0  0  0  0  0  0  0
  151.2282  139.8338  154.7937 N   0  0  0  0  0  0  0  0  0  0  0  0
  150.4164  140.5838  155.5920 C   0  0  0  0  0  0  0  0  0  0  0  0
  150.7070  141.0239  156.9150 C   0  0  0  0  0  0  0  0  0  0  0  0
  149.6360  141.7595  157.4103 N   0  0  0  0  0  0  0  0  0  0  0  0
  148.7713  141.7660  156.4338 C   0  0  0  0  0  0  0  0  0  0  0  0
  149.1537  141.0741  155.3074 N   0  0  0  0  0  0  0  0  0  0  0  0
  148.3848  140.9113  154.0830 C   0  0  0  0  0  0  0  0  0  0  0  0
  147.7520  139.5068  153.9180 C   0  0  0  0  0  0  0  0  0  0  0  0
  148.8066  138.5667  153.8093 O   0  0  0  0  0  0  0  0  0  0  0  0
  146.8664  139.1062  155.1184 C   0  0  0  0  0  0  0  0  0  0  0  0
  146.0801  137.8105  154.8509 C   0  0  0  0  0  0  0  0  0  0  0  0
  145.3170  137.9370  153.6572 O   0  0  0  0  0  0  0  0  0  0  0  0
  146.1278  138.1284  152.5042 C   0  0  0  0  0  0  0  0  0  0  0  0
  146.9116  139.4470  152.6266 C   0  0  0  0  0  0  0  0  0  0  0  0
  152.0309  142.3279  159.1303 C   0  0  2  0  0  0  0  0  0  0  0  0
  152.7806  143.4370  158.3470 C   0  0  0  0  0  0  0  0  0  0  0  0
  150.9360  146.2303  158.7805 H   0  0  0  0  0  0  0  0  0  0  0  0
  150.3433  144.5777  158.9478 H   0  0  0  0  0  0  0  0  0  0  0  0
  150.9598  145.1441  157.3961 H   0  0  0  0  0  0  0  0  0  0  0  0
  153.8284  144.8070  160.3922 H   0  0  0  0  0  0  0  0  0  0  0  0
  152.5106  145.9376  160.5767 H   0  0  0  0  0  0  0  0  0  0  0  0
  152.3025  143.9993  162.1607 H   0  0  0  0  0  0  0  0  0  0  0  0
  150.9361  144.0839  161.0872 H   0  0  0  0  0  0  0  0  0  0  0  0
  151.6183  141.7785  161.1911 H   0  0  0  0  0  0  0  0  0  0  0  0
  154.9469  140.5239  160.8926 H   0  0  0  0  0  0  0  0  0  0  0  0
  153.2748  140.0755  161.1642 H   0  0  0  0  0  0  0  0  0  0  0  0
  154.4956  141.1210  158.5457 H   0  0  0  0  0  0  0  0  0  0  0  0
  153.8880  139.5017  158.8446 H   0  0  0  0  0  0  0  0  0  0  0  0
  153.0646  138.9301  154.8458 H   0  0  0  0  0  0  0  0  0  0  0  0
  147.8191  142.2702  156.5125 H   0  0  0  0  0  0  0  0  0  0  0  0
  147.6055  141.6742  154.0750 H   0  0  0  0  0  0  0  0  0  0  0  0
  149.0356  141.1356  153.2368 H   0  0  0  0  0  0  0  0  0  0  0  0
  148.5362  137.8771  153.2226 H   0  0  0  0  0  0  0  0  0  0  0  0
  147.4650  138.9872  156.0223 H   0  0  0  0  0  0  0  0  0  0  0  0
  146.1558  139.9079  155.3238 H   0  0  0  0  0  0  0  0  0  0  0  0
  146.7505  136.9527  154.7783 H   0  0  0  0  0  0  0  0  0  0  0  0
  145.4019  137.6095  155.6805 H   0  0  0  0  0  0  0  0  0  0  0  0
  146.8009  137.2797  152.3721 H   0  0  0  0  0  0  0  0  0  0  0  0
  145.4845  138.1591  151.6245 H   0  0  0  0  0  0  0  0  0  0  0  0
  146.1976  140.2717  152.6224 H   0  0  0  0  0  0  0  0  0  0  0  0
  147.5453  139.5887  151.7502 H   0  0  0  0  0  0  0  0  0  0  0  0
  150.9628  142.4643  158.9770 H   0  0  0  0  0  0  0  0  0  0  0  0
  152.5578  143.3719  157.2812 H   0  0  0  0  0  0  0  0  0  0  0  0
  153.8578  143.2992  158.4435 H   0  0  0  0  0  0  0  0  0  0  0  0
  1  2  1  0  0  0  0
  1 29  1  0  0  0  0
  1 30  1  0  0  0  0
  1 31  1  0  0  0  0
  2 28  1  0  0  0  0
  2  3  1  0  0  0  0
  3  4  1  0  0  0  0
  3 32  1  0  0  0  0
  3 33  1  0  0  0  0
  4  5  1  0  0  0  0
  4 34  1  0  0  0  0
  4 35  1  0  0  0  0
  5 27  1  0  0  0  0
  5  6  1  0  0  0  0
  5 36  1  0  0  0  0
  6  7  1  0  0  0  0
  7  8  1  0  0  0  0
  7 37  1  0  0  0  0
  7 38  1  0  0  0  0
  8  9  1  0  0  0  0
  8 39  1  0  0  0  0
  8 40  1  0  0  0  0
  9 10  1  0  0  0  0
  9 27  1  0  0  0  0
 10 15  1  0  0  0  0
 10 11  2  0  0  0  0
 11 12  1  0  0  0  0
 12 13  2  0  0  0  0
 12 41  1  0  0  0  0
 13 14  1  0  0  0  0
 14 18  1  0  0  0  0
 14 15  2  0  0  0  0
 15 16  1  0  0  0  0
 16 17  2  0  0  0  0
 17 18  1  0  0  0  0
 17 42  1  0  0  0  0
 18 19  1  0  0  0  0
 19 20  1  0  0  0  0
 19 43  1  0  0  0  0
 19 44  1  0  0  0  0
 20 26  1  0  0  0  0
 20 21  1  0  0  0  0
 20 22  1  0  0  0  0
 21 45  1  0  0  0  0
 22 23  1  0  0  0  0
 22 46  1  0  0  0  0
 22 47  1  0  0  0  0
 23 24  1  0  0  0  0
 23 48  1  0  0  0  0
 23 49  1  0  0  0  0
 24 25  1  0  0  0  0
 25 26  1  0  0  0  0
 25 50  1  0  0  0  0
 25 51  1  0  0  0  0
 26 52  1  0  0  0  0
 26 53  1  0  0  0  0
 27 28  1  0  0  0  0
 27 54  1  0  0  0  0
 28 55  1  0  0  0  0
 28 56  1  0  0  0  0
M  END
> <s_m_source_file>
AV-unprocessed.smi

> <i_m_source_file_index>
244

> <i_lp_mmshare_version>
43012

> <i_f3d_flags>
0

> <s_epik_input>
W0NIMl0xW0NIMl1OKFtDSDNdKVtDSDJdW0NAQEhdKFtDQEhdMTIpTihbQ0gyXVtDSDJdTzIpYyhuW2NIXW4zKWMoYzM0KW5bY0hdbjRbQ0gyXUM1KFtPSF0pW0NIMl1bQ0gyXU9bQ0gyXVtDSDJdNQ==

> <s_epik_cmdline>
J2VwaWtfcHl0aG9uJywgJy1waCcsICc3LjAnLCAnLXRuJywgJzgnLCAnLW1hJywgJzIwMCcsICctbWV0YWxfYmluZGluZycsICctaW1hZScsICc8aW5maWxlLm1hZT4nLCAnLW9tYWUnLCAnPG91dGZpbGUubWFlPic=

> <r_lp_tautomer_probability>
1

> <r_epik_Ionization_Penalty>
2.27765

> <r_epik_Ionization_Penalty_Charging>
0

> <r_epik_Ionization_Penalty_Neutral>
2.27765

> <r_epik_State_Penalty>
2.4114

> <r_epik_Charging_Adjusted_Penalty>
2.4114

> <i_epik_Tot_Q>
0

> <i_epik_Tot_abs_Q>
0

> <r_epik_Metal_State_Penalty>
2.39769

> <b_epik_Metal_Only>
0

> <s_lp_Force_Field>
OPLS_2005

> <r_lp_Energy>
43.9701

> <b_lp_Chiralities_Consistent>
1

> <s_lp_Variant>
AV-unprocessed.smi:244-11

> <Gold.Version>
5.8.1

> <Gold.Id.Protein>
6NUR|6NUR_protein|mol2

> <Gold.PLP.Fitness>
53.5871

> <Gold.PLP.PLP>
-45.3909

> <Gold.PLP.part.hbond>
-4.0000

> <Gold.PLP.part.metal>
0.0000

> <Gold.PLP.part.buried>
-1.2211

> <Gold.PLP.part.nonpolar>
-39.1774

> <Gold.PLP.part.repulsive>
0.3715

> <Gold.PLP.ligand.clash>
0.0000

> <Gold.PLP.ligand.torsion>
0.5435

> <Gold.PLP.Chemscore.Hbond>
2.9100

> <Gold.PLP.Chemscore.CHOScore>
0.0398

> <Gold.PLP.Chemscore.Metal>
0.0000

> <Gold.Chemscore.Hbonds>
donor molecule, donor type, donor heavy atom, donor atom, acceptor molecule, acceptor atom, score
      L1  H    21    45       P1  7948  0.68
      P1  H  7989  7998       L1    13  1.00
      P1  H  7997  8010       L1    11  1.00
      L1  C    17    42       P1  8028  0.10

> <Gold.PLP.Chemscore.Internal.Correction>
0.4339

> <Gold.Rescore>
     Score         DG    S(hbond)    S(metal)    S(lipo)     H(rot)  DE(clash)    DE(int)     intcor
     18.00     -20.24       1.96        0.00     115.38       2.06       0.79       1.45       ----

> <Gold.Chemscore.Fitness>
17.9988

> <Gold.Chemscore.DG>
-20.2399

> <Gold.Chemscore.ZeroCoef>
-5.4800

> <Gold.Chemscore.Hbond>
1.9571

> <Gold.Chemscore.Metal>
0.0000

> <Gold.Chemscore.Lipo>
115.3819

> <Gold.Chemscore.Internal_Hbond>
0.0000

> <Gold.Chemscore.DEClash>
0.7890

> <Gold.Chemscore.DEInternal>
1.4521

> <Gold.Chemscore.Rot>
2.0611

> <Gold.Chemscore.Internal.Correction>
   9.000000E+99

> <Gold.Chemscore.Hbonds>
donor molecule, donor type, donor heavy atom, donor atom, acceptor molecule, acceptor atom, score
      L1  H    21    45       P1  7948  0.64
      P1  H  7989  7998       L1    13  0.28
      P1  H  7997  8010       L1    11  0.54

> <Gold.Chemscore.Hbond.Weighted>
-6.5368

> <Gold.Chemscore.Metal.Weighted>
-0.0000

> <Gold.Chemscore.Lipo.Weighted>
-13.4997

> <Gold.Chemscore.Internal_Hbond.Weighted>
0.0000

> <Gold.Chemscore.DEClash.Weighted>
0.7890

> <Gold.Chemscore.DEInternal.Weighted>
1.4521

> <Gold.Chemscore.Rot.Weighted>
5.2765

> <Gold.Chemscore.Internal.Correction.Weighted>
   9.000000E+99

> <Gold.Protein.RotatedTorsions>
[ 6907 6896 6895 6894 ] final   96.11 input  -60.11 | X-H torsion
[ 7974 7965 7964 7962 ] final  115.65 input  175.53 | X-H torsion
[ 8008 7997 7996 7995 ] final   64.87 input   59.86 | X-H torsion
[ 10167 10162 10161 10158 ] final   88.91 input  -65.29 | X-H torsion
[ 10718 10713 10712 10709 ] final  -57.31 input   66.30 | X-H torsion
[ 10763 10752 10751 10750 ] final  142.50 input  -60.55 | X-H torsion
[ 11005 11000 10999 10996 ] final  -65.50 input  -57.11 | X-H torsion

> <Gold.Protein.ActiveResidues>
 VAL166  LYS551  ARG553  GLY616  TRP617  ASP618  TYR619  PRO620  LYS621  CYS622 
 ASP623  PHE694  ASN695  SER759  ASP760  ASP761  ALA762  ILE779  LEU786  VAL792 
 PHE793  MET794  SER795  GLU796  ALA797  LYS798  CYS799  TRP800  GLU811  SER814 

> <Gold.Protein.RotatedAtoms>
  152.5438  134.0936  159.8287 H   0  0  0  0  0  0  0  0  0  0  0  0  # atno 6907 bound_to 6896
  151.1023  133.5227  159.2617 H   0  0  0  0  0  0  0  0  0  0  0  0  # atno 6908 bound_to 6896
  151.1977  135.0439  159.8913 H   0  0  0  0  0  0  0  0  0  0  0  0  # atno 6909 bound_to 6896
  145.1894  139.3008  143.4376 H   0  0  0  0  0  0  0  0  0  0  0  0  # atno 7974 bound_to 7965
  155.6528  140.3497  155.4754 H   0  0  0  0  0  0  0  0  0  0  0  0  # atno 8008 bound_to 7997
  155.9834  140.1179  157.0729 H   0  0  0  0  0  0  0  0  0  0  0  0  # atno 8009 bound_to 7997
  154.4198  140.1134  156.5452 H   0  0  0  0  0  0  0  0  0  0  0  0  # atno 8010 bound_to 7997
  139.8625  144.6536  150.9041 H   0  0  0  0  0  0  0  0  0  0  0  0  # atno 10167 bound_to 10162
  156.1221  130.4165  150.0423 H   0  0  0  0  0  0  0  0  0  0  0  0  # atno 10718 bound_to 10713
  153.9568  135.2964  155.3435 H   0  0  0  0  0  0  0  0  0  0  0  0  # atno 10763 bound_to 10752
  154.7396  135.5031  153.9103 H   0  0  0  0  0  0  0  0  0  0  0  0  # atno 10764 bound_to 10752
  153.0966  135.6723  153.9861 H   0  0  0  0  0  0  0  0  0  0  0  0  # atno 10765 bound_to 10752
  141.1456  133.6683  156.5996 H   0  0  0  0  0  0  0  0  0  0  0  0  # atno 11005 bound_to 11000
  146.3439  140.2101  142.8590 LP  0  0  0  0  0  0  0  0  0  0  0  0  # atno 17320 bound_to 7965
  145.0056  140.8670  143.5255 LP  0  0  0  0  0  0  0  0  0  0  0  0  # atno 17321 bound_to 7965
  140.7773  143.3732  151.1612 LP  0  0  0  0  0  0  0  0  0  0  0  0  # atno 17342 bound_to 10162
  139.7360  143.8999  152.3035 LP  0  0  0  0  0  0  0  0  0  0  0  0  # atno 17343 bound_to 10162
  156.8359  130.9408  151.3634 LP  0  0  0  0  0  0  0  0  0  0  0  0  # atno 17370 bound_to 10713
  157.6404  130.8801  149.9437 LP  0  0  0  0  0  0  0  0  0  0  0  0  # atno 17371 bound_to 10713
  140.3699  134.7615  157.4591 LP  0  0  0  0  0  0  0  0  0  0  0  0  # atno 17394 bound_to 11000
  140.0719  134.5851  155.8633 LP  0  0  0  0  0  0  0  0  0  0  0  0  # atno 17395 bound_to 11000

$$$$
