AV-unprocessed.smi:1218|AV-procd|sdf|5106|dock2
  -GOLD-   22720 4153D 1   1.00000     0.00000
 Structure written by MMmdl.
 45 46  0  0  0  0  0  0  0  0  2 V2000
  143.7784  132.3691  151.1623 C   0  0  0  0  0  0  0  0  0  0  0  0
  145.0934  131.8405  151.7548 C   0  0  0  0  0  0  0  0  0  0  0  0
  146.2769  132.7086  151.2952 C   0  0  0  0  0  0  0  0  0  0  0  0
  145.2944  130.3546  151.3867 C   0  0  0  0  0  0  0  0  0  0  0  0
  146.6481  129.8462  151.7278 N   0  3  1  0  0  0  0  0  0  0  0  0
  146.9903  129.9873  153.1646 C   0  0  0  0  0  0  0  0  0  0  0  0
  148.4097  129.4633  153.4325 C   0  0  0  0  0  0  0  0  0  0  0  0
  148.5053  128.1139  152.9980 O   0  0  0  0  0  0  0  0  0  0  0  0
  148.2885  127.9767  151.5973 C   0  0  1  0  0  0  0  0  0  0  0  0
  148.5063  126.5061  151.1975 C   0  0  0  0  0  0  0  0  0  0  0  0
  149.8324  126.2874  150.6283 N   0  0  0  0  0  0  0  0  0  0  0  0
  150.1118  125.4454  149.6213 C   0  0  0  0  0  0  0  0  0  0  0  0
  149.2566  124.7532  149.0669 O   0  0  0  0  0  0  0  0  0  0  0  0
  151.5820  125.3784  149.1907 C   0  0  0  0  0  0  0  0  0  0  0  0
  151.7791  124.5596  148.0055 N   0  0  0  0  0  0  0  0  0  0  0  0
  151.1376  124.6456  146.7868 C   0  0  0  0  0  0  0  0  0  0  0  0
  151.6549  123.6689  145.9851 C   0  0  0  0  0  0  0  0  0  0  0  0
  152.6219  123.0306  146.8112 C   0  0  0  0  0  0  0  0  0  0  0  0
  152.6959  123.5673  148.0185 N   0  0  0  0  0  0  0  0  0  0  0  0
  146.8547  128.4472  151.2814 C   0  0  0  0  0  0  0  0  0  0  0  0
  143.7834  132.3164  150.0731 H   0  0  0  0  0  0  0  0  0  0  0  0
  143.6091  133.4090  151.4437 H   0  0  0  0  0  0  0  0  0  0  0  0
  142.9255  131.7910  151.5195 H   0  0  0  0  0  0  0  0  0  0  0  0
  145.0081  131.9347  152.8370 H   0  0  0  0  0  0  0  0  0  0  0  0
  146.4101  132.6572  150.2140 H   0  0  0  0  0  0  0  0  0  0  0  0
  147.2099  132.3917  151.7613 H   0  0  0  0  0  0  0  0  0  0  0  0
  146.1221  133.7550  151.5600 H   0  0  0  0  0  0  0  0  0  0  0  0
  144.5449  129.7313  151.8771 H   0  0  0  0  0  0  0  0  0  0  0  0
  145.1248  130.2432  150.3146 H   0  0  0  0  0  0  0  0  0  0  0  0
  146.9296  131.0301  153.4733 H   0  0  0  0  0  0  0  0  0  0  0  0
  146.2713  129.4323  153.7693 H   0  0  0  0  0  0  0  0  0  0  0  0
  149.1567  130.0774  152.9269 H   0  0  0  0  0  0  0  0  0  0  0  0
  148.6305  129.5065  154.4992 H   0  0  0  0  0  0  0  0  0  0  0  0
  149.0036  128.5991  151.0556 H   0  0  0  0  0  0  0  0  0  0  0  0
  148.3346  125.8445  152.0484 H   0  0  0  0  0  0  0  0  0  0  0  0
  147.7767  126.2218  150.4386 H   0  0  0  0  0  0  0  0  0  0  0  0
  150.5941  126.8169  151.0274 H   0  0  0  0  0  0  0  0  0  0  0  0
  151.9553  126.3812  148.9788 H   0  0  0  0  0  0  0  0  0  0  0  0
  152.1792  124.9796  150.0123 H   0  0  0  0  0  0  0  0  0  0  0  0
  150.3727  125.3841  146.5963 H   0  0  0  0  0  0  0  0  0  0  0  0
  151.3835  123.4441  144.9645 H   0  0  0  0  0  0  0  0  0  0  0  0
  153.2684  122.1992  146.5713 H   0  0  0  0  0  0  0  0  0  0  0  0
  146.1276  127.7982  151.7727 H   0  0  0  0  0  0  0  0  0  0  0  0
  146.6747  128.3765  150.2079 H   0  0  0  0  0  0  0  0  0  0  0  0
  147.3069  130.4085  151.2079 H   0  0  0  0  0  0  0  0  0  0  0  0
  1  2  1  0  0  0  0
  1 21  1  0  0  0  0
  1 22  1  0  0  0  0
  1 23  1  0  0  0  0
  2  3  1  0  0  0  0
  2  4  1  0  0  0  0
  2 24  1  0  0  0  0
  3 25  1  0  0  0  0
  3 26  1  0  0  0  0
  3 27  1  0  0  0  0
  4  5  1  0  0  0  0
  4 28  1  0  0  0  0
  4 29  1  0  0  0  0
  5 20  1  0  0  0  0
  5  6  1  0  0  0  0
  5 45  1  0  0  0  0
  6  7  1  0  0  0  0
  6 30  1  0  0  0  0
  6 31  1  0  0  0  0
  7  8  1  0  0  0  0
  7 32  1  0  0  0  0
  7 33  1  0  0  0  0
  8  9  1  0  0  0  0
  9 10  1  0  0  0  0
  9 20  1  0  0  0  0
  9 34  1  0  0  0  0
 10 11  1  0  0  0  0
 10 35  1  0  0  0  0
 10 36  1  0  0  0  0
 11 12  1  0  0  0  0
 11 37  1  0  0  0  0
 12 13  2  0  0  0  0
 12 14  1  0  0  0  0
 14 15  1  0  0  0  0
 14 38  1  0  0  0  0
 14 39  1  0  0  0  0
 15 19  1  0  0  0  0
 15 16  1  0  0  0  0
 16 17  2  0  0  0  0
 16 40  1  0  0  0  0
 17 18  1  0  0  0  0
 17 41  1  0  0  0  0
 18 19  2  0  0  0  0
 18 42  1  0  0  0  0
 20 43  1  0  0  0  0
 20 44  1  0  0  0  0
M  CHG  1   5   1
M  END
> <s_m_source_file>
AV-unprocessed.smi

> <i_m_source_file_index>
1218

> <i_lp_mmshare_version>
43012

> <i_f3d_flags>
0

> <s_epik_input>
W0NIM11bQ0hdKFtDSDNdKVtDSDJdTjFbQ0gyXVtDSDJdT1tDQEhdKFtDSDJdMSlbQ0gyXVtOSF1DKD1PKVtDSDJdbjJbY0hdW2NIXVtjSF1uMg==

> <s_epik_cmdline>
J2VwaWtfcHl0aG9uJywgJy1waCcsICc3LjAnLCAnLXRuJywgJzgnLCAnLW1hJywgJzIwMCcsICctbWV0YWxfYmluZGluZycsICctaW1hZScsICc8aW5maWxlLm1hZT4nLCAnLW9tYWUnLCAnPG91dGZpbGUubWFlPic=

> <r_lp_tautomer_probability>
1

> <r_epik_Ionization_Penalty>
0.0995066

> <r_epik_Ionization_Penalty_Charging>
0.0994921

> <r_epik_Ionization_Penalty_Neutral>
1.44634e-05

> <r_epik_State_Penalty>
0.0895432

> <r_epik_Charging_Adjusted_Penalty>
0.189035

> <i_epik_Tot_Q>
1

> <i_epik_Tot_abs_Q>
1

> <r_epik_Metal_State_Penalty>
0.0895432

> <b_epik_Metal_Only>
0

> <s_lp_Force_Field>
OPLS_2005

> <r_lp_Energy>
18.9521

> <b_lp_Chiralities_Consistent>
1

> <s_lp_Variant>
AV-unprocessed.smi:1218-1

> <Gold.Version>
5.8.1

> <Gold.Id.Protein>
6NUR|6NUR_protein|mol2

> <Gold.PLP.Fitness>
43.2649

> <Gold.PLP.PLP>
-35.8635

> <Gold.PLP.part.hbond>
-2.0000

> <Gold.PLP.part.metal>
0.0000

> <Gold.PLP.part.buried>
-6.4674

> <Gold.PLP.part.nonpolar>
-28.1624

> <Gold.PLP.part.repulsive>
0.3708

> <Gold.PLP.ligand.clash>
0.0000

> <Gold.PLP.ligand.torsion>
0.8799

> <Gold.PLP.Chemscore.Hbond>
2.0000

> <Gold.PLP.Chemscore.CHOScore>
1.0000

> <Gold.PLP.Chemscore.Metal>
0.0000

> <Gold.Chemscore.Hbonds>
donor molecule, donor type, donor heavy atom, donor atom, acceptor molecule, acceptor atom, score
      L1  H     5    45       P1 10747  1.00
      L1  H    11    37       P1 10737  1.00
      L1  C    16    40       P1 10769  1.00

> <Gold.PLP.Chemscore.Internal.Correction>
0.1611

> <Gold.Rescore>
     Score         DG    S(hbond)    S(metal)    S(lipo)     H(rot)  DE(clash)    DE(int)     intcor
     16.44     -17.46       1.99        0.00      88.54       1.96       0.14       0.88       ----

> <Gold.Chemscore.Fitness>
16.4388

> <Gold.Chemscore.DG>
-17.4559

> <Gold.Chemscore.ZeroCoef>
-5.4800

> <Gold.Chemscore.Hbond>
1.9882

> <Gold.Chemscore.Metal>
0.0000

> <Gold.Chemscore.Lipo>
88.5384

> <Gold.Chemscore.Internal_Hbond>
0.0000

> <Gold.Chemscore.DEClash>
0.1409

> <Gold.Chemscore.DEInternal>
0.8763

> <Gold.Chemscore.Rot>
1.9624

> <Gold.Chemscore.Internal.Correction>
   9.000000E+99

> <Gold.Chemscore.Hbonds>
donor molecule, donor type, donor heavy atom, donor atom, acceptor molecule, acceptor atom, score
      L1  H     5    45       P1 10747  0.98
      L1  H    11    37       P1 10737  0.98

> <Gold.Chemscore.Hbond.Weighted>
-6.6406

> <Gold.Chemscore.Metal.Weighted>
-0.0000

> <Gold.Chemscore.Lipo.Weighted>
-10.3590

> <Gold.Chemscore.Internal_Hbond.Weighted>
0.0000

> <Gold.Chemscore.DEClash.Weighted>
0.1409

> <Gold.Chemscore.DEInternal.Weighted>
0.8763

> <Gold.Chemscore.Rot.Weighted>
5.0237

> <Gold.Chemscore.Internal.Correction.Weighted>
   9.000000E+99

> <Gold.Protein.RotatedTorsions>
[ 6907 6896 6895 6894 ] final   85.30 input  -60.11 | X-H torsion
[ 7974 7965 7964 7962 ] final  179.79 input  175.53 | X-H torsion
[ 8008 7997 7996 7995 ] final   93.08 input   59.86 | X-H torsion
[ 10167 10162 10161 10158 ] final  130.13 input  -65.29 | X-H torsion
[ 10718 10713 10712 10709 ] final  -72.88 input   66.30 | X-H torsion
[ 10763 10752 10751 10750 ] final  107.02 input  -60.55 | X-H torsion
[ 11005 11000 10999 10996 ] final   61.30 input  -57.11 | X-H torsion

> <Gold.Protein.ActiveResidues>
 VAL166  LYS551  ARG553  GLY616  TRP617  ASP618  TYR619  PRO620  LYS621  CYS622 
 ASP623  PHE694  ASN695  SER759  ASP760  ASP761  ALA762  ILE779  LEU786  VAL792 
 PHE793  MET794  SER795  GLU796  ALA797  LYS798  CYS799  TRP800  GLU811  SER814 

> <Gold.Protein.RotatedAtoms>
  152.5371  134.2608  159.8934 H   0  0  0  0  0  0  0  0  0  0  0  0  # atno 6907 bound_to 6896
  151.2568  133.4315  159.2621 H   0  0  0  0  0  0  0  0  0  0  0  0  # atno 6908 bound_to 6896
  151.0489  134.9674  159.8257 H   0  0  0  0  0  0  0  0  0  0  0  0  # atno 6909 bound_to 6896
  144.7142  140.0602  143.6433 H   0  0  0  0  0  0  0  0  0  0  0  0  # atno 7974 bound_to 7965
  156.0426  140.3317  155.7261 H   0  0  0  0  0  0  0  0  0  0  0  0  # atno 8008 bound_to 7997
  155.5721  140.0629  157.2821 H   0  0  0  0  0  0  0  0  0  0  0  0  # atno 8009 bound_to 7997
  154.4400  140.1859  156.0878 H   0  0  0  0  0  0  0  0  0  0  0  0  # atno 8010 bound_to 7997
  139.5444  144.6760  151.4519 H   0  0  0  0  0  0  0  0  0  0  0  0  # atno 10167 bound_to 10162
  156.0302  130.4382  150.2659 H   0  0  0  0  0  0  0  0  0  0  0  0  # atno 10718 bound_to 10713
  153.4009  135.3858  155.1987 H   0  0  0  0  0  0  0  0  0  0  0  0  # atno 10763 bound_to 10752
  154.8729  135.3771  154.4620 H   0  0  0  0  0  0  0  0  0  0  0  0  # atno 10764 bound_to 10752
  153.5117  135.7087  153.5839 H   0  0  0  0  0  0  0  0  0  0  0  0  # atno 10765 bound_to 10752
  140.0171  134.6208  155.9694 H   0  0  0  0  0  0  0  0  0  0  0  0  # atno 11005 bound_to 11000
  145.9871  139.2986  143.1007 LP  0  0  0  0  0  0  0  0  0  0  0  0  # atno 17320 bound_to 7965
  145.8945  140.9282  143.0535 LP  0  0  0  0  0  0  0  0  0  0  0  0  # atno 17321 bound_to 7965
  140.6687  143.8341  150.6973 LP  0  0  0  0  0  0  0  0  0  0  0  0  # atno 17342 bound_to 10162
  140.1759  143.4156  152.1968 LP  0  0  0  0  0  0  0  0  0  0  0  0  # atno 17343 bound_to 10162
  157.0761  131.0130  151.3173 LP  0  0  0  0  0  0  0  0  0  0  0  0  # atno 17370 bound_to 10713
  157.4962  130.7852  149.7558 LP  0  0  0  0  0  0  0  0  0  0  0  0  # atno 17371 bound_to 10713
  141.1750  133.6539  156.4793 LP  0  0  0  0  0  0  0  0  0  0  0  0  # atno 17394 bound_to 11000
  140.4452  134.6979  157.5012 LP  0  0  0  0  0  0  0  0  0  0  0  0  # atno 17395 bound_to 11000

$$$$
