AV-unprocessed.smi:2789|AV-procd|sdf|10763|dock6
  -GOLD-   2272015193D 1   1.00000     0.00000
 Structure written by MMmdl.
 35 36  0  0  0  0  0  0  0  0  1 V2000
  152.1954  140.7199  158.8531 C   0  0  0  0  0  0  0  0  0  0  0  0
  152.2600  142.0437  158.3453 O   0  0  0  0  0  0  0  0  0  0  0  0
  151.7650  143.0229  159.2510 C   0  0  1  0  0  0  0  0  0  0  0  0
  152.5280  144.3376  159.1017 C   0  0  0  0  0  0  0  0  0  0  0  0
  151.6140  145.3626  159.7691 C   0  0  0  0  0  0  0  0  0  0  0  0
  150.1881  144.8985  159.4475 C   0  0  0  0  0  0  0  0  0  0  0  0
  150.2867  143.4114  159.0417 C   0  0  1  0  0  0  0  0  0  0  0  0
  149.8840  143.2171  157.6496 N   0  0  0  0  0  0  0  0  0  0  0  0
  149.6117  142.0337  157.0830 C   0  0  0  0  0  0  0  0  0  0  0  0
  149.6500  140.9657  157.6941 O   0  0  0  0  0  0  0  0  0  0  0  0
  149.3027  142.1798  155.7830 N   0  0  0  0  0  0  0  0  0  0  0  0
  148.9693  141.2233  154.8762 C   0  0  0  0  0  0  0  0  0  0  0  0
  149.5734  140.0198  154.6335 C   0  0  0  0  0  0  0  0  0  0  0  0
  148.7704  139.4773  153.5898 C   0  0  0  0  0  0  0  0  0  0  0  0
  147.7713  140.2752  153.2337 N   0  0  0  0  0  0  0  0  0  0  0  0
  147.8907  141.3602  154.0299 N   0  0  0  0  0  0  0  0  0  0  0  0
  146.9466  142.4545  153.9121 C   0  0  0  0  0  0  0  0  0  0  0  0
  152.5833  140.0249  158.1087 H   0  0  0  0  0  0  0  0  0  0  0  0
  151.1707  140.4258  159.0824 H   0  0  0  0  0  0  0  0  0  0  0  0
  152.7984  140.6148  159.7557 H   0  0  0  0  0  0  0  0  0  0  0  0
  151.9035  142.6785  160.2781 H   0  0  0  0  0  0  0  0  0  0  0  0
  153.5205  144.3023  159.5516 H   0  0  0  0  0  0  0  0  0  0  0  0
  152.6461  144.5832  158.0453 H   0  0  0  0  0  0  0  0  0  0  0  0
  151.7706  145.3406  160.8484 H   0  0  0  0  0  0  0  0  0  0  0  0
  151.8099  146.3798  159.4291 H   0  0  0  0  0  0  0  0  0  0  0  0
  149.5347  145.0315  160.3104 H   0  0  0  0  0  0  0  0  0  0  0  0
  149.7723  145.5044  158.6407 H   0  0  0  0  0  0  0  0  0  0  0  0
  149.6576  142.7922  159.6839 H   0  0  0  0  0  0  0  0  0  0  0  0
  149.8320  144.0460  157.0754 H   0  0  0  0  0  0  0  0  0  0  0  0
  149.3286  143.1227  155.4239 H   0  0  0  0  0  0  0  0  0  0  0  0
  150.4387  139.5829  155.1086 H   0  0  0  0  0  0  0  0  0  0  0  0
  148.8818  138.5303  153.0829 H   0  0  0  0  0  0  0  0  0  0  0  0
  146.3861  142.5555  154.8417 H   0  0  0  0  0  0  0  0  0  0  0  0
  146.2473  142.2732  153.0948 H   0  0  0  0  0  0  0  0  0  0  0  0
  147.4840  143.3828  153.7168 H   0  0  0  0  0  0  0  0  0  0  0  0
  1  2  1  0  0  0  0
  1 18  1  0  0  0  0
  1 19  1  0  0  0  0
  1 20  1  0  0  0  0
  2  3  1  0  0  0  0
  3  7  1  0  0  0  0
  3  4  1  0  0  0  0
  3 21  1  0  0  0  0
  4  5  1  0  0  0  0
  4 22  1  0  0  0  0
  4 23  1  0  0  0  0
  5  6  1  0  0  0  0
  5 24  1  0  0  0  0
  5 25  1  0  0  0  0
  6  7  1  0  0  0  0
  6 26  1  0  0  0  0
  6 27  1  0  0  0  0
  7  8  1  0  0  0  0
  7 28  1  0  0  0  0
  8  9  1  0  0  0  0
  8 29  1  0  0  0  0
  9 10  2  0  0  0  0
  9 11  1  0  0  0  0
 11 12  1  0  0  0  0
 11 30  1  0  0  0  0
 12 16  1  0  0  0  0
 12 13  2  0  0  0  0
 13 14  1  0  0  0  0
 13 31  1  0  0  0  0
 14 15  2  0  0  0  0
 14 32  1  0  0  0  0
 15 16  1  0  0  0  0
 16 17  1  0  0  0  0
 17 33  1  0  0  0  0
 17 34  1  0  0  0  0
 17 35  1  0  0  0  0
M  END
> <s_m_source_file>
AV-unprocessed.smi

> <i_m_source_file_index>
2789

> <i_lp_mmshare_version>
43012

> <i_f3d_flags>
0

> <s_epik_input>
W0NIM11PW0NAQEhdMVtDSDJdW0NIMl1bQ0gyXVtDQEhdMVtOSF1DKD1PKVtOSF1jMltjSF1bY0hdbm4yW0NIM10=

> <s_epik_cmdline>
J2VwaWtfcHl0aG9uJywgJy1waCcsICc3LjAnLCAnLXRuJywgJzgnLCAnLW1hJywgJzIwMCcsICctbWV0YWxfYmluZGluZycsICctaW1hZScsICc8aW5maWxlLm1hZT4nLCAnLW9tYWUnLCAnPG91dGZpbGUubWFlPic=

> <r_lp_tautomer_probability>
1

> <r_epik_Ionization_Penalty>
4.40608e-05

> <r_epik_Ionization_Penalty_Charging>
0

> <r_epik_Ionization_Penalty_Neutral>
4.40608e-05

> <r_epik_State_Penalty>
-0

> <r_epik_Charging_Adjusted_Penalty>
0

> <i_epik_Tot_Q>
0

> <i_epik_Tot_abs_Q>
0

> <r_epik_Metal_State_Penalty>
-0

> <b_epik_Metal_Only>
0

> <s_lp_Force_Field>
OPLS_2005

> <r_lp_Energy>
22.0425

> <b_lp_Chiralities_Consistent>
1

> <s_lp_Variant>
AV-unprocessed.smi:2789-2

> <Gold.Version>
5.8.1

> <Gold.Id.Protein>
6NUR|6NUR_protein|mol2

> <Gold.PLP.Fitness>
39.2644

> <Gold.PLP.PLP>
-32.8420

> <Gold.PLP.part.hbond>
-2.0000

> <Gold.PLP.part.metal>
0.0000

> <Gold.PLP.part.buried>
-1.8525

> <Gold.PLP.part.nonpolar>
-30.4874

> <Gold.PLP.part.repulsive>
1.6753

> <Gold.PLP.ligand.clash>
0.0000

> <Gold.PLP.ligand.torsion>
1.0367

> <Gold.PLP.Chemscore.Hbond>
1.8960

> <Gold.PLP.Chemscore.CHOScore>
0.9337

> <Gold.PLP.Chemscore.Metal>
0.0000

> <Gold.Chemscore.Hbonds>
donor molecule, donor type, donor heavy atom, donor atom, acceptor molecule, acceptor atom, score
      L1  H     8    29       P1  8028  0.83
      L1  H    11    30       P1  8028  0.94
      L1  C    14    32       P1  7948  0.89
      L1  C    14    32       P1  7957  0.06

> <Gold.PLP.Chemscore.Internal.Correction>
0.0067

> <Gold.Rescore>
     Score         DG    S(hbond)    S(metal)    S(lipo)     H(rot)  DE(clash)    DE(int)     intcor
     15.46     -16.52       1.80        0.00      70.85       1.27       0.09       0.97       ----

> <Gold.Chemscore.Fitness>
15.4601

> <Gold.Chemscore.DG>
-16.5225

> <Gold.Chemscore.ZeroCoef>
-5.4800

> <Gold.Chemscore.Hbond>
1.7987

> <Gold.Chemscore.Metal>
0.0000

> <Gold.Chemscore.Lipo>
70.8474

> <Gold.Chemscore.Internal_Hbond>
0.0000

> <Gold.Chemscore.DEClash>
0.0882

> <Gold.Chemscore.DEInternal>
0.9742

> <Gold.Chemscore.Rot>
1.2712

> <Gold.Chemscore.Internal.Correction>
   9.000000E+99

> <Gold.Chemscore.Hbonds>
donor molecule, donor type, donor heavy atom, donor atom, acceptor molecule, acceptor atom, score
      L1  H     8    29       P1  8028  0.67
      L1  H    11    30       P1  8028  0.91

> <Gold.Chemscore.Hbond.Weighted>
-6.0078

> <Gold.Chemscore.Metal.Weighted>
-0.0000

> <Gold.Chemscore.Lipo.Weighted>
-8.2892

> <Gold.Chemscore.Internal_Hbond.Weighted>
0.0000

> <Gold.Chemscore.DEClash.Weighted>
0.0882

> <Gold.Chemscore.DEInternal.Weighted>
0.9742

> <Gold.Chemscore.Rot.Weighted>
3.2544

> <Gold.Chemscore.Internal.Correction.Weighted>
   9.000000E+99

> <Gold.Protein.RotatedTorsions>
[ 6907 6896 6895 6894 ] final -125.22 input  -60.11 | X-H torsion
[ 7974 7965 7964 7962 ] final   51.46 input  175.53 | X-H torsion
[ 8008 7997 7996 7995 ] final  -41.16 input   59.86 | X-H torsion
[ 10167 10162 10161 10158 ] final  155.75 input  -65.29 | X-H torsion
[ 10718 10713 10712 10709 ] final  113.00 input   66.30 | X-H torsion
[ 10763 10752 10751 10750 ] final -104.92 input  -60.55 | X-H torsion
[ 11005 11000 10999 10996 ] final  111.51 input  -57.11 | X-H torsion

> <Gold.Protein.ActiveResidues>
 VAL166  LYS551  ARG553  GLY616  TRP617  ASP618  TYR619  PRO620  LYS621  CYS622 
 ASP623  PHE694  ASN695  SER759  ASP760  ASP761  ALA762  ILE779  LEU786  VAL792 
 PHE793  MET794  SER795  GLU796  ALA797  LYS798  CYS799  TRP800  GLU811  SER814 

> <Gold.Protein.RotatedAtoms>
  150.8845  133.7326  159.2922 H   0  0  0  0  0  0  0  0  0  0  0  0  # atno 6907 bound_to 6896
  151.4896  135.1055  159.9809 H   0  0  0  0  0  0  0  0  0  0  0  0  # atno 6908 bound_to 6896
  152.4781  133.8142  159.7075 H   0  0  0  0  0  0  0  0  0  0  0  0  # atno 6909 bound_to 6896
  145.9911  139.4340  143.0073 H   0  0  0  0  0  0  0  0  0  0  0  0  # atno 7974 bound_to 7965
  154.4006  140.1507  156.3145 H   0  0  0  0  0  0  0  0  0  0  0  0  # atno 8008 bound_to 7997
  155.8586  140.3454  155.5719 H   0  0  0  0  0  0  0  0  0  0  0  0  # atno 8009 bound_to 7997
  155.7905  140.0856  157.2002 H   0  0  0  0  0  0  0  0  0  0  0  0  # atno 8010 bound_to 7997
  139.4821  144.5070  151.8082 H   0  0  0  0  0  0  0  0  0  0  0  0  # atno 10167 bound_to 10162
  157.6362  131.0977  150.6978 H   0  0  0  0  0  0  0  0  0  0  0  0  # atno 10718 bound_to 10713
  154.7911  135.4768  154.0056 H   0  0  0  0  0  0  0  0  0  0  0  0  # atno 10763 bound_to 10752
  153.1633  135.6812  153.8718 H   0  0  0  0  0  0  0  0  0  0  0  0  # atno 10764 bound_to 10752
  153.8325  135.3190  155.3398 H   0  0  0  0  0  0  0  0  0  0  0  0  # atno 10765 bound_to 10752
  139.8905  134.9509  156.6444 H   0  0  0  0  0  0  0  0  0  0  0  0  # atno 11005 bound_to 11000
  145.7628  140.9928  143.1191 LP  0  0  0  0  0  0  0  0  0  0  0  0  # atno 17320 bound_to 7965
  144.6889  139.9351  143.7473 LP  0  0  0  0  0  0  0  0  0  0  0  0  # atno 17321 bound_to 7965
  140.4570  144.1776  150.5902 LP  0  0  0  0  0  0  0  0  0  0  0  0  # atno 17342 bound_to 10162
  140.4525  143.2481  151.9328 LP  0  0  0  0  0  0  0  0  0  0  0  0  # atno 17343 bound_to 10162
  156.7309  130.4709  149.5500 LP  0  0  0  0  0  0  0  0  0  0  0  0  # atno 17370 bound_to 10713
  156.1603  130.6369  151.0710 LP  0  0  0  0  0  0  0  0  0  0  0  0  # atno 17371 bound_to 10713
  140.7569  133.8850  155.8388 LP  0  0  0  0  0  0  0  0  0  0  0  0  # atno 17394 bound_to 11000
  140.9954  134.1222  157.4368 LP  0  0  0  0  0  0  0  0  0  0  0  0  # atno 17395 bound_to 11000

$$$$
