AV-unprocessed.smi:1368|AV-procd|sdf|5576|dock2
  -GOLD-   22720 5173D 1   1.00000     0.00000
 Structure written by MMmdl.
 46 48  0  0  0  0  0  0  0  0  1 V2000
  147.4773  129.2703  153.1681 C   0  0  0  0  0  0  0  0  0  0  0  0
  148.5506  130.0451  153.9265 C   0  0  0  0  0  0  0  0  0  0  0  0
  149.4799  129.4305  154.4477 O   0  0  0  0  0  0  0  0  0  0  0  0
  148.4024  131.3831  153.9430 N   0  0  0  0  0  0  0  0  0  0  0  0
  149.2181  132.3673  154.5665 C   0  0  0  0  0  0  0  0  0  0  0  0
  148.9787  133.7130  154.2234 C   0  0  0  0  0  0  0  0  0  0  0  0
  149.7331  134.7464  154.8105 C   0  0  0  0  0  0  0  0  0  0  0  0
  150.7355  134.4600  155.7583 C   0  0  0  0  0  0  0  0  0  0  0  0
  151.4275  135.5311  156.2819 O   0  0  0  0  0  0  0  0  0  0  0  0
  150.7713  136.7908  156.3419 C   0  0  0  0  0  0  0  0  0  0  0  0
  151.7324  137.8291  156.9421 C   0  0  1  0  0  0  0  0  0  0  0  0
  152.5524  138.3303  155.9044 O   0  0  0  0  0  0  0  0  0  0  0  0
  150.9702  138.9992  157.5969 C   0  0  0  0  0  0  0  0  0  0  0  0
  151.8269  139.8547  158.4078 N   0  0  0  0  0  0  0  0  0  0  0  0
  152.6895  139.4847  159.3860 C   0  0  0  0  0  0  0  0  0  0  0  0
  152.8752  138.0526  159.7756 C   0  0  0  0  0  0  0  0  0  0  0  0
  153.3553  140.4750  159.9802 N   0  0  0  0  0  0  0  0  0  0  0  0
  152.8783  141.5951  159.3269 C   0  0  0  0  0  0  0  0  0  0  0  0
  153.1922  142.9624  159.4992 C   0  0  0  0  0  0  0  0  0  0  0  0
  152.5671  143.9443  158.7030 C   0  0  0  0  0  0  0  0  0  0  0  0
  151.6216  143.5743  157.7246 C   0  0  0  0  0  0  0  0  0  0  0  0
  151.2931  142.2179  157.5376 C   0  0  0  0  0  0  0  0  0  0  0  0
  151.9192  141.2415  158.3354 C   0  0  0  0  0  0  0  0  0  0  0  0
  150.9662  133.1083  156.1159 C   0  0  0  0  0  0  0  0  0  0  0  0
  150.2126  132.0730  155.5295 C   0  0  0  0  0  0  0  0  0  0  0  0
  146.5239  129.7999  153.1812 H   0  0  0  0  0  0  0  0  0  0  0  0
  147.3245  128.2890  153.6186 H   0  0  0  0  0  0  0  0  0  0  0  0
  147.7783  129.1275  152.1300 H   0  0  0  0  0  0  0  0  0  0  0  0
  147.6343  131.7447  153.3965 H   0  0  0  0  0  0  0  0  0  0  0  0
  148.2147  133.9611  153.5006 H   0  0  0  0  0  0  0  0  0  0  0  0
  149.5397  135.7716  154.5302 H   0  0  0  0  0  0  0  0  0  0  0  0
  150.4203  137.1110  155.3590 H   0  0  0  0  0  0  0  0  0  0  0  0
  149.8995  136.6907  156.9908 H   0  0  0  0  0  0  0  0  0  0  0  0
  152.3654  137.3507  157.6899 H   0  0  0  0  0  0  0  0  0  0  0  0
  152.3775  137.8344  155.1190 H   0  0  0  0  0  0  0  0  0  0  0  0
  150.4932  139.6126  156.8315 H   0  0  0  0  0  0  0  0  0  0  0  0
  150.1621  138.6205  158.2231 H   0  0  0  0  0  0  0  0  0  0  0  0
  153.6284  137.9648  160.5595 H   0  0  0  0  0  0  0  0  0  0  0  0
  153.2035  137.4644  158.9191 H   0  0  0  0  0  0  0  0  0  0  0  0
  151.9398  137.6394  160.1527 H   0  0  0  0  0  0  0  0  0  0  0  0
  153.9157  143.2561  160.2456 H   0  0  0  0  0  0  0  0  0  0  0  0
  152.8146  144.9864  158.8430 H   0  0  0  0  0  0  0  0  0  0  0  0
  151.1490  144.3322  157.1171 H   0  0  0  0  0  0  0  0  0  0  0  0
  150.5715  141.9303  156.7876 H   0  0  0  0  0  0  0  0  0  0  0  0
  151.7151  132.8360  156.8438 H   0  0  0  0  0  0  0  0  0  0  0  0
  150.4094  131.0612  155.8476 H   0  0  0  0  0  0  0  0  0  0  0  0
  1  2  1  0  0  0  0
  1 26  1  0  0  0  0
  1 27  1  0  0  0  0
  1 28  1  0  0  0  0
  2  3  2  0  0  0  0
  2  4  1  0  0  0  0
  4  5  1  0  0  0  0
  4 29  1  0  0  0  0
  5 25  1  0  0  0  0
  5  6  2  0  0  0  0
  6  7  1  0  0  0  0
  6 30  1  0  0  0  0
  7  8  2  0  0  0  0
  7 31  1  0  0  0  0
  8  9  1  0  0  0  0
  8 24  1  0  0  0  0
  9 10  1  0  0  0  0
 10 11  1  0  0  0  0
 10 32  1  0  0  0  0
 10 33  1  0  0  0  0
 11 12  1  0  0  0  0
 11 13  1  0  0  0  0
 11 34  1  0  0  0  0
 12 35  1  0  0  0  0
 13 14  1  0  0  0  0
 13 36  1  0  0  0  0
 13 37  1  0  0  0  0
 14 23  1  0  0  0  0
 14 15  1  0  0  0  0
 15 16  1  0  0  0  0
 15 17  2  0  0  0  0
 16 38  1  0  0  0  0
 16 39  1  0  0  0  0
 16 40  1  0  0  0  0
 17 18  1  0  0  0  0
 18 23  2  0  0  0  0
 18 19  1  0  0  0  0
 19 20  2  0  0  0  0
 19 41  1  0  0  0  0
 20 21  1  0  0  0  0
 20 42  1  0  0  0  0
 21 22  2  0  0  0  0
 21 43  1  0  0  0  0
 22 23  1  0  0  0  0
 22 44  1  0  0  0  0
 24 25  2  0  0  0  0
 24 45  1  0  0  0  0
 25 46  1  0  0  0  0
M  END
> <s_m_source_file>
AV-unprocessed.smi

> <i_m_source_file_index>
1368

> <i_lp_mmshare_version>
43012

> <i_f3d_flags>
0

> <s_epik_input>
W0NIM11DKD1PKVtOSF1jMVtjSF1bY0hdYyhbY0hdW2NIXTEpT1tDSDJdW0NASF0oW09IXSlbQ0gyXW4oYyhuMilbQ0gzXSljKGMyMylbY0hdW2NIXVtjSF1bY0hdMw==

> <s_epik_cmdline>
J2VwaWtfcHl0aG9uJywgJy1waCcsICc3LjAnLCAnLXRuJywgJzgnLCAnLW1hJywgJzIwMCcsICctbWV0YWxfYmluZGluZycsICctaW1hZScsICc8aW5maWxlLm1hZT4nLCAnLW9tYWUnLCAnPG91dGZpbGUubWFlPic=

> <r_lp_tautomer_probability>
1

> <r_epik_Ionization_Penalty>
0.119634

> <r_epik_Ionization_Penalty_Charging>
0

> <r_epik_Ionization_Penalty_Neutral>
0.119634

> <r_epik_State_Penalty>
0.10919

> <r_epik_Charging_Adjusted_Penalty>
0.10919

> <i_epik_Tot_Q>
0

> <i_epik_Tot_abs_Q>
0

> <r_epik_Metal_State_Penalty>
0.0906856

> <b_epik_Metal_Only>
0

> <s_lp_Force_Field>
OPLS_2005

> <r_lp_Energy>
21.7849

> <b_lp_Chiralities_Consistent>
1

> <s_lp_Variant>
AV-unprocessed.smi:1368-2

> <Gold.Version>
5.8.1

> <Gold.Id.Protein>
6NUR|6NUR_protein|mol2

> <Gold.PLP.Fitness>
45.7744

> <Gold.PLP.PLP>
-44.3450

> <Gold.PLP.part.hbond>
-1.0000

> <Gold.PLP.part.metal>
0.0000

> <Gold.PLP.part.buried>
-6.6334

> <Gold.PLP.part.nonpolar>
-37.1307

> <Gold.PLP.part.repulsive>
0.1081

> <Gold.PLP.ligand.clash>
0.0000

> <Gold.PLP.ligand.torsion>
0.8261

> <Gold.PLP.Chemscore.Hbond>
1.0000

> <Gold.PLP.Chemscore.CHOScore>
0.0000

> <Gold.PLP.Chemscore.Metal>
0.0000

> <Gold.Chemscore.Hbonds>
donor molecule, donor type, donor heavy atom, donor atom, acceptor molecule, acceptor atom, score
      P1  H 10752 10763       L1     9  0.77

> <Gold.PLP.Chemscore.Internal.Correction>
0.0816

> <Gold.Rescore>
     Score         DG    S(hbond)    S(metal)    S(lipo)     H(rot)  DE(clash)    DE(int)     intcor
     12.60     -15.52       0.61        0.00     120.83       2.39       0.11       2.81       ----

> <Gold.Chemscore.Fitness>
12.6025

> <Gold.Chemscore.DG>
-15.5195

> <Gold.Chemscore.ZeroCoef>
-5.4800

> <Gold.Chemscore.Hbond>
0.6060

> <Gold.Chemscore.Metal>
0.0000

> <Gold.Chemscore.Lipo>
120.8327

> <Gold.Chemscore.Internal_Hbond>
0.0000

> <Gold.Chemscore.DEClash>
0.1100

> <Gold.Chemscore.DEInternal>
2.8070

> <Gold.Chemscore.Rot>
2.3914

> <Gold.Chemscore.Internal.Correction>
   9.000000E+99

> <Gold.Chemscore.Hbonds>
donor molecule, donor type, donor heavy atom, donor atom, acceptor molecule, acceptor atom, score
      P1  H 10752 10763       L1     9  0.16

> <Gold.Chemscore.Hbond.Weighted>
-2.0241

> <Gold.Chemscore.Metal.Weighted>
-0.0000

> <Gold.Chemscore.Lipo.Weighted>
-14.1374

> <Gold.Chemscore.Internal_Hbond.Weighted>
0.0000

> <Gold.Chemscore.DEClash.Weighted>
0.1100

> <Gold.Chemscore.DEInternal.Weighted>
2.8070

> <Gold.Chemscore.Rot.Weighted>
6.1220

> <Gold.Chemscore.Internal.Correction.Weighted>
   9.000000E+99

> <Gold.Protein.RotatedTorsions>
[ 6907 6896 6895 6894 ] final  -79.56 input  -60.11 | X-H torsion
[ 7974 7965 7964 7962 ] final   72.73 input  175.53 | X-H torsion
[ 8008 7997 7996 7995 ] final   87.78 input   59.86 | X-H torsion
[ 10167 10162 10161 10158 ] final  109.16 input  -65.29 | X-H torsion
[ 10718 10713 10712 10709 ] final   43.74 input   66.30 | X-H torsion
[ 10763 10752 10751 10750 ] final   92.34 input  -60.55 | X-H torsion
[ 11005 11000 10999 10996 ] final -174.11 input  -57.11 | X-H torsion

> <Gold.Protein.ActiveResidues>
 VAL166  LYS551  ARG553  GLY616  TRP617  ASP618  TYR619  PRO620  LYS621  CYS622 
 ASP623  PHE694  ASN695  SER759  ASP760  ASP761  ALA762  ILE779  LEU786  VAL792 
 PHE793  MET794  SER795  GLU796  ALA797  LYS798  CYS799  TRP800  GLU811  SER814 

> <Gold.Protein.RotatedAtoms>
  150.6947  134.4102  159.5158 H   0  0  0  0  0  0  0  0  0  0  0  0  # atno 6907 bound_to 6896
  152.1862  134.8709  160.0531 H   0  0  0  0  0  0  0  0  0  0  0  0  # atno 6908 bound_to 6896
  151.9681  133.3682  159.4097 H   0  0  0  0  0  0  0  0  0  0  0  0  # atno 6909 bound_to 6896
  145.7497  139.2755  143.1438 H   0  0  0  0  0  0  0  0  0  0  0  0  # atno 7974 bound_to 7965
  155.9796  140.3378  155.6650 H   0  0  0  0  0  0  0  0  0  0  0  0  # atno 8008 bound_to 7997
  155.6566  140.0711  157.2586 H   0  0  0  0  0  0  0  0  0  0  0  0  # atno 8009 bound_to 7997
  154.4188  140.1716  156.1719 H   0  0  0  0  0  0  0  0  0  0  0  0  # atno 8010 bound_to 7997
  139.6789  144.7120  151.1552 H   0  0  0  0  0  0  0  0  0  0  0  0  # atno 10167 bound_to 10162
  157.4192  130.7959  149.7499 H   0  0  0  0  0  0  0  0  0  0  0  0  # atno 10718 bound_to 10713
  153.2181  135.4365  155.0458 H   0  0  0  0  0  0  0  0  0  0  0  0  # atno 10763 bound_to 10752
  154.8236  135.3349  154.6967 H   0  0  0  0  0  0  0  0  0  0  0  0  # atno 10764 bound_to 10752
  153.7401  135.7005  153.5025 H   0  0  0  0  0  0  0  0  0  0  0  0  # atno 10765 bound_to 10752
  140.4782  134.6100  157.4909 H   0  0  0  0  0  0  0  0  0  0  0  0  # atno 11005 bound_to 11000
  146.0368  140.8204  142.9848 LP  0  0  0  0  0  0  0  0  0  0  0  0  # atno 17320 bound_to 7965
  144.6852  140.2851  143.7286 LP  0  0  0  0  0  0  0  0  0  0  0  0  # atno 17321 bound_to 7965
  140.7645  143.5730  150.8976 LP  0  0  0  0  0  0  0  0  0  0  0  0  # atno 17342 bound_to 10162
  139.9400  143.6392  152.3056 LP  0  0  0  0  0  0  0  0  0  0  0  0  # atno 17343 bound_to 10162
  155.9875  130.3966  150.3162 LP  0  0  0  0  0  0  0  0  0  0  0  0  # atno 17370 bound_to 10713
  157.1309  131.0271  151.2970 LP  0  0  0  0  0  0  0  0  0  0  0  0  # atno 17371 bound_to 10713
  139.9843  134.7087  155.9803 LP  0  0  0  0  0  0  0  0  0  0  0  0  # atno 17394 bound_to 11000
  141.1544  133.6544  156.4114 LP  0  0  0  0  0  0  0  0  0  0  0  0  # atno 17395 bound_to 11000

$$$$
