AV-unprocessed.smi:1327|AV-procd|sdf|5478|dock2
  -GOLD-   22720 5 53D 1   1.00000     0.00000
 Structure written by MMmdl.
 39 40  0  0  0  0  0  0  0  0  2 V2000
  153.0197  137.5896  155.7409 O   0  0  0  0  0  0  0  0  0  0  0  0
  152.1685  138.4327  156.5959 S   0  0  0  0  0  0  0  0  0  0  0  0
  151.1126  137.7665  157.3770 O   0  0  0  0  0  0  0  0  0  0  0  0
  153.0182  139.5300  157.4374 N   0  5  0  0  0  0  0  0  0  0  0  0
  152.5299  139.9776  158.7316 C   0  0  0  0  0  0  0  0  0  0  0  0
  153.4255  141.1032  159.3056 C   0  0  0  0  0  0  0  0  0  0  0  0
  152.6933  142.3558  159.7818 C   0  0  0  0  0  0  0  0  0  0  0  0
  152.5644  142.6408  161.1607 C   0  0  0  0  0  0  0  0  0  0  0  0
  151.8643  143.7998  161.5468 C   0  0  0  0  0  0  0  0  0  0  0  0
  151.3289  144.6347  160.5475 C   0  0  0  0  0  0  0  0  0  0  0  0
  151.5209  144.2729  159.1999 C   0  0  0  0  0  0  0  0  0  0  0  0
  152.1916  143.1660  158.8183 N   0  0  0  0  0  0  0  0  0  0  0  0
  151.3627  139.5536  155.5347 N   0  0  0  0  0  0  0  0  0  0  0  0
  150.6541  140.6902  156.1659 C   0  0  0  0  0  0  0  0  0  0  0  0
  149.8672  141.6044  155.2059 C   0  0  0  0  0  0  0  0  0  0  0  0
  148.4914  141.0457  154.8102 C   0  0  0  0  0  0  0  0  0  0  0  0
  148.5521  139.9500  153.7409 C   0  0  0  0  0  0  0  0  0  0  0  0
  149.4165  138.7473  154.1388 C   0  0  0  0  0  0  0  0  0  0  0  0
  150.9186  139.0790  154.2051 C   0  0  0  0  0  0  0  0  0  0  0  0
  151.4980  140.3283  158.6872 H   0  0  0  0  0  0  0  0  0  0  0  0
  152.5218  139.1523  159.4439 H   0  0  0  0  0  0  0  0  0  0  0  0
  153.9931  140.7069  160.1481 H   0  0  0  0  0  0  0  0  0  0  0  0
  154.1700  141.3898  158.5609 H   0  0  0  0  0  0  0  0  0  0  0  0
  152.9794  141.9765  161.9044 H   0  0  0  0  0  0  0  0  0  0  0  0
  151.7376  144.0423  162.5913 H   0  0  0  0  0  0  0  0  0  0  0  0
  150.7835  145.5296  160.8069 H   0  0  0  0  0  0  0  0  0  0  0  0
  151.1244  144.8883  158.4060 H   0  0  0  0  0  0  0  0  0  0  0  0
  149.9885  140.3111  156.9424 H   0  0  0  0  0  0  0  0  0  0  0  0
  151.3999  141.2942  156.6829 H   0  0  0  0  0  0  0  0  0  0  0  0
  149.6930  142.5452  155.7288 H   0  0  0  0  0  0  0  0  0  0  0  0
  150.4586  141.8689  154.3288 H   0  0  0  0  0  0  0  0  0  0  0  0
  147.9719  140.6745  155.6947 H   0  0  0  0  0  0  0  0  0  0  0  0
  147.8788  141.8619  154.4258 H   0  0  0  0  0  0  0  0  0  0  0  0
  147.5380  139.6046  153.5381 H   0  0  0  0  0  0  0  0  0  0  0  0
  148.9178  140.3705  152.8036 H   0  0  0  0  0  0  0  0  0  0  0  0
  149.0646  138.3080  155.0721 H   0  0  0  0  0  0  0  0  0  0  0  0
  149.2764  137.9755  153.3816 H   0  0  0  0  0  0  0  0  0  0  0  0
  151.1895  139.8135  153.4467 H   0  0  0  0  0  0  0  0  0  0  0  0
  151.4813  138.1850  153.9421 H   0  0  0  0  0  0  0  0  0  0  0  0
  1  2  2  0  0  0  0
  2  3  2  0  0  0  0
  2  4  1  0  0  0  0
  2 13  1  0  0  0  0
  4  5  1  0  0  0  0
  5  6  1  0  0  0  0
  5 20  1  0  0  0  0
  5 21  1  0  0  0  0
  6  7  1  0  0  0  0
  6 22  1  0  0  0  0
  6 23  1  0  0  0  0
  7 12  1  0  0  0  0
  7  8  2  0  0  0  0
  8  9  1  0  0  0  0
  8 24  1  0  0  0  0
  9 10  2  0  0  0  0
  9 25  1  0  0  0  0
 10 11  1  0  0  0  0
 10 26  1  0  0  0  0
 11 12  2  0  0  0  0
 11 27  1  0  0  0  0
 13 19  1  0  0  0  0
 13 14  1  0  0  0  0
 14 15  1  0  0  0  0
 14 28  1  0  0  0  0
 14 29  1  0  0  0  0
 15 16  1  0  0  0  0
 15 30  1  0  0  0  0
 15 31  1  0  0  0  0
 16 17  1  0  0  0  0
 16 32  1  0  0  0  0
 16 33  1  0  0  0  0
 17 18  1  0  0  0  0
 17 34  1  0  0  0  0
 17 35  1  0  0  0  0
 18 19  1  0  0  0  0
 18 36  1  0  0  0  0
 18 37  1  0  0  0  0
 19 38  1  0  0  0  0
 19 39  1  0  0  0  0
M  CHG  1   4  -1
M  END
> <s_m_source_file>
AV-unprocessed.smi

> <i_m_source_file_index>
1327

> <i_lp_mmshare_version>
43012

> <i_f3d_flags>
0

> <s_epik_input>
W0NIMl0xW0NIMl1bQ0gyXVtDSDJdW0NIMl1bQ0gyXU4xUyg9TykoPU8pW05IXVtDSDJdW0NIMl1jMltjSF1bY0hdW2NIXVtjSF1uMg==

> <s_epik_cmdline>
J2VwaWtfcHl0aG9uJywgJy1waCcsICc3LjAnLCAnLXRuJywgJzgnLCAnLW1hJywgJzIwMCcsICctbWV0YWxfYmluZGluZycsICctaW1hZScsICc8aW5maWxlLm1hZT4nLCAnLW9tYWUnLCAnPG91dGZpbGUubWFlPic=

> <r_lp_tautomer_probability>
1

> <r_epik_Ionization_Penalty>
3.18796

> <r_epik_Ionization_Penalty_Charging>
3.10426

> <r_epik_Ionization_Penalty_Neutral>
0.0836926

> <r_epik_State_Penalty>
3.10111

> <r_epik_Charging_Adjusted_Penalty>
6.20538

> <i_epik_Tot_Q>
-1

> <i_epik_Tot_abs_Q>
1

> <r_epik_Metal_State_Penalty>
0.463976

> <b_epik_Metal_Only>
1

> <s_lp_Force_Field>
OPLS_2005

> <r_lp_Energy>
9.11233

> <b_lp_Chiralities_Consistent>
1

> <s_lp_Variant>
AV-unprocessed.smi:1327-2

> <Gold.Version>
5.8.1

> <Gold.Id.Protein>
6NUR|6NUR_protein|mol2

> <Gold.PLP.Fitness>
50.9529

> <Gold.PLP.PLP>
-44.4761

> <Gold.PLP.part.hbond>
-2.0000

> <Gold.PLP.part.metal>
0.0000

> <Gold.PLP.part.buried>
-3.3711

> <Gold.PLP.part.nonpolar>
-38.6083

> <Gold.PLP.part.repulsive>
0.0000

> <Gold.PLP.ligand.clash>
0.0000

> <Gold.PLP.ligand.torsion>
2.1301

> <Gold.PLP.Chemscore.Hbond>
2.5437

> <Gold.PLP.Chemscore.CHOScore>
0.0000

> <Gold.PLP.Chemscore.Metal>
0.0000

> <Gold.Chemscore.Hbonds>
donor molecule, donor type, donor heavy atom, donor atom, acceptor molecule, acceptor atom, score
      P1  H  7997  8009       L1     4  1.89
      P1  H 10752 10765       L1     1  0.26

> <Gold.PLP.Chemscore.Internal.Correction>
3.1060

> <Gold.Rescore>
     Score         DG    S(hbond)    S(metal)    S(lipo)     H(rot)  DE(clash)    DE(int)     intcor
     17.87     -20.11       1.35        0.00     114.48       1.27       0.07       2.16       ----

> <Gold.Chemscore.Fitness>
17.8719

> <Gold.Chemscore.DG>
-20.1075

> <Gold.Chemscore.ZeroCoef>
-5.4800

> <Gold.Chemscore.Hbond>
1.3455

> <Gold.Chemscore.Metal>
0.0000

> <Gold.Chemscore.Lipo>
114.4828

> <Gold.Chemscore.Internal_Hbond>
0.0000

> <Gold.Chemscore.DEClash>
0.0727

> <Gold.Chemscore.DEInternal>
2.1628

> <Gold.Chemscore.Rot>
1.2738

> <Gold.Chemscore.Internal.Correction>
   9.000000E+99

> <Gold.Chemscore.Hbonds>
donor molecule, donor type, donor heavy atom, donor atom, acceptor molecule, acceptor atom, score
      P1  H  7997  8009       L1     4  0.80
      P1  H 10752 10765       L1     1  0.27

> <Gold.Chemscore.Hbond.Weighted>
-4.4940

> <Gold.Chemscore.Metal.Weighted>
-0.0000

> <Gold.Chemscore.Lipo.Weighted>
-13.3945

> <Gold.Chemscore.Internal_Hbond.Weighted>
0.0000

> <Gold.Chemscore.DEClash.Weighted>
0.0727

> <Gold.Chemscore.DEInternal.Weighted>
2.1628

> <Gold.Chemscore.Rot.Weighted>
3.2610

> <Gold.Chemscore.Internal.Correction.Weighted>
   9.000000E+99

> <Gold.Protein.RotatedTorsions>
[ 6907 6896 6895 6894 ] final  125.81 input  -60.11 | X-H torsion
[ 7974 7965 7964 7962 ] final  -12.82 input  175.53 | X-H torsion
[ 8008 7997 7996 7995 ] final  148.68 input   59.86 | X-H torsion
[ 10167 10162 10161 10158 ] final   94.95 input  -65.29 | X-H torsion
[ 10718 10713 10712 10709 ] final  -42.18 input   66.30 | X-H torsion
[ 10763 10752 10751 10750 ] final -150.03 input  -60.55 | X-H torsion
[ 11005 11000 10999 10996 ] final   98.20 input  -57.11 | X-H torsion

> <Gold.Protein.ActiveResidues>
 VAL166  LYS551  ARG553  GLY616  TRP617  ASP618  TYR619  PRO620  LYS621  CYS622 
 ASP623  PHE694  ASN695  SER759  ASP760  ASP761  ALA762  ILE779  LEU786  VAL792 
 PHE793  MET794  SER795  GLU796  ALA797  LYS798  CYS799  TRP800  GLU811  SER814 

> <Gold.Protein.RotatedAtoms>
  152.3959  133.6746  159.6275 H   0  0  0  0  0  0  0  0  0  0  0  0  # atno 6907 bound_to 6896
  150.7858  133.8875  159.3312 H   0  0  0  0  0  0  0  0  0  0  0  0  # atno 6908 bound_to 6896
  151.6651  135.0985  160.0238 H   0  0  0  0  0  0  0  0  0  0  0  0  # atno 6909 bound_to 6896
  146.2137  140.3114  142.8383 H   0  0  0  0  0  0  0  0  0  0  0  0  # atno 7974 bound_to 7965
  156.2782  140.2122  156.5737 H   0  0  0  0  0  0  0  0  0  0  0  0  # atno 8008 bound_to 7997
  154.7115  140.0511  157.0577 H   0  0  0  0  0  0  0  0  0  0  0  0  # atno 8009 bound_to 7997
  155.0599  140.3165  155.4667 H   0  0  0  0  0  0  0  0  0  0  0  0  # atno 8010 bound_to 7997
  139.8035  144.6804  150.9734 H   0  0  0  0  0  0  0  0  0  0  0  0  # atno 10167 bound_to 10162
  156.2623  130.4198  149.8528 H   0  0  0  0  0  0  0  0  0  0  0  0  # atno 10718 bound_to 10713
  154.8143  135.3294  154.7220 H   0  0  0  0  0  0  0  0  0  0  0  0  # atno 10763 bound_to 10752
  153.7864  135.6914  153.4883 H   0  0  0  0  0  0  0  0  0  0  0  0  # atno 10764 bound_to 10752
  153.1946  135.4538  155.0139 H   0  0  0  0  0  0  0  0  0  0  0  0  # atno 10765 bound_to 10752
  139.8773  134.9037  156.4420 H   0  0  0  0  0  0  0  0  0  0  0  0  # atno 11005 bound_to 11000
  144.8986  140.7614  143.5881 LP  0  0  0  0  0  0  0  0  0  0  0  0  # atno 17320 bound_to 7965
  145.3039  139.1841  143.4675 LP  0  0  0  0  0  0  0  0  0  0  0  0  # atno 17321 bound_to 7965
  140.7820  143.4257  151.0772 LP  0  0  0  0  0  0  0  0  0  0  0  0  # atno 17342 bound_to 10162
  139.7928  143.8194  152.3154 LP  0  0  0  0  0  0  0  0  0  0  0  0  # atno 17343 bound_to 10162
  156.6039  130.8558  151.3438 LP  0  0  0  0  0  0  0  0  0  0  0  0  # atno 17370 bound_to 10713
  157.7255  130.9617  150.1617 LP  0  0  0  0  0  0  0  0  0  0  0  0  # atno 17371 bound_to 10713
  140.8992  133.7791  155.9661 LP  0  0  0  0  0  0  0  0  0  0  0  0  # atno 17394 bound_to 11000
  140.8669  134.2773  157.5209 LP  0  0  0  0  0  0  0  0  0  0  0  0  # atno 17395 bound_to 11000

$$$$
