AV-unprocessed.smi:1815|AV-procd|sdf|7355|dock10
  -GOLD-   22720 9 13D 1   1.00000     0.00000
 Structure written by MMmdl.
 40 41  0  0  0  0  0  0  0  0  2 V2000
  145.9086  133.9596  154.9113 C   0  0  0  0  0  0  0  0  0  0  0  0
  146.3948  134.3756  153.5187 C   0  0  2  0  0  0  0  0  0  0  0  0
  145.8641  135.7621  153.1087 C   0  0  0  0  0  0  0  0  0  0  0  0
  146.2915  136.0980  151.7297 N   0  3  2  0  0  0  0  0  0  0  0  0
  145.8527  137.4552  151.3192 C   0  0  0  0  0  0  0  0  0  0  0  0
  146.1290  138.5169  152.4014 C   0  0  0  0  0  0  0  0  0  0  0  0
  147.5573  138.7727  152.5490 N   0  0  0  0  0  0  0  0  0  0  0  0
  148.2314  138.6986  153.7058 C   0  0  0  0  0  0  0  0  0  0  0  0
  147.7009  138.4088  154.7787 O   0  0  0  0  0  0  0  0  0  0  0  0
  149.5342  138.9814  153.5324 N   0  0  0  0  0  0  0  0  0  0  0  0
  150.5609  139.0200  154.5123 C   0  0  0  0  0  0  0  0  0  0  0  0
  151.0600  140.1444  155.0389 N   0  0  0  0  0  0  0  0  0  0  0  0
  152.0609  139.8840  155.9784 C   0  0  0  0  0  0  0  0  0  0  0  0
  152.3135  138.5464  156.1548 C   0  0  0  0  0  0  0  0  0  0  0  0
  151.2973  137.5545  155.1438 S   0  0  0  0  0  0  0  0  0  0  0  0
  145.8809  135.0277  150.7879 C   0  0  0  0  0  0  0  0  0  0  0  0
  146.4096  133.6602  151.2611 C   0  0  2  0  0  0  0  0  0  0  0  0
  145.9393  132.5147  150.3580 C   0  0  0  0  0  0  0  0  0  0  0  0
  145.9370  133.4085  152.5800 O   0  0  0  0  0  0  0  0  0  0  0  0
  146.2468  134.6637  155.6719 H   0  0  0  0  0  0  0  0  0  0  0  0
  146.2905  132.9741  155.1789 H   0  0  0  0  0  0  0  0  0  0  0  0
  144.8198  133.9177  154.9540 H   0  0  0  0  0  0  0  0  0  0  0  0
  147.4862  134.3849  153.5217 H   0  0  0  0  0  0  0  0  0  0  0  0
  144.7744  135.7831  153.1665 H   0  0  0  0  0  0  0  0  0  0  0  0
  146.2369  136.5159  153.8034 H   0  0  0  0  0  0  0  0  0  0  0  0
  146.3284  137.7299  150.3765 H   0  0  0  0  0  0  0  0  0  0  0  0
  144.7793  137.4288  151.1257 H   0  0  0  0  0  0  0  0  0  0  0  0
  145.6069  139.4466  152.1683 H   0  0  0  0  0  0  0  0  0  0  0  0
  145.7592  138.1870  153.3715 H   0  0  0  0  0  0  0  0  0  0  0  0
  148.0681  139.0161  151.7125 H   0  0  0  0  0  0  0  0  0  0  0  0
  149.8272  139.1974  152.5911 H   0  0  0  0  0  0  0  0  0  0  0  0
  152.5427  140.7129  156.4756 H   0  0  0  0  0  0  0  0  0  0  0  0
  153.0328  138.0866  156.8162 H   0  0  0  0  0  0  0  0  0  0  0  0
  144.7921  135.0056  150.7143 H   0  0  0  0  0  0  0  0  0  0  0  0
  146.2648  135.2333  149.7893 H   0  0  0  0  0  0  0  0  0  0  0  0
  147.5011  133.6701  151.2669 H   0  0  0  0  0  0  0  0  0  0  0  0
  146.2829  132.6562  149.3329 H   0  0  0  0  0  0  0  0  0  0  0  0
  144.8512  132.4466  150.3400 H   0  0  0  0  0  0  0  0  0  0  0  0
  146.3269  131.5580  150.7087 H   0  0  0  0  0  0  0  0  0  0  0  0
  147.3014  136.1125  151.7423 H   0  0  0  0  0  0  0  0  0  0  0  0
  1  2  1  0  0  0  0
  1 20  1  0  0  0  0
  1 21  1  0  0  0  0
  1 22  1  0  0  0  0
  2 19  1  0  0  0  0
  2  3  1  0  0  0  0
  2 23  1  0  0  0  0
  3  4  1  0  0  0  0
  3 24  1  0  0  0  0
  3 25  1  0  0  0  0
  4  5  1  0  0  0  0
  4 16  1  0  0  0  0
  4 40  1  0  0  0  0
  5  6  1  0  0  0  0
  5 26  1  0  0  0  0
  5 27  1  0  0  0  0
  6  7  1  0  0  0  0
  6 28  1  0  0  0  0
  6 29  1  0  0  0  0
  7  8  1  0  0  0  0
  7 30  1  0  0  0  0
  8  9  2  0  0  0  0
  8 10  1  0  0  0  0
 10 11  1  0  0  0  0
 10 31  1  0  0  0  0
 11 15  1  0  0  0  0
 11 12  2  0  0  0  0
 12 13  1  0  0  0  0
 13 14  2  0  0  0  0
 13 32  1  0  0  0  0
 14 15  1  0  0  0  0
 14 33  1  0  0  0  0
 16 17  1  0  0  0  0
 16 34  1  0  0  0  0
 16 35  1  0  0  0  0
 17 18  1  0  0  0  0
 17 19  1  0  0  0  0
 17 36  1  0  0  0  0
 18 37  1  0  0  0  0
 18 38  1  0  0  0  0
 18 39  1  0  0  0  0
M  CHG  1   4   1
M  END
> <s_m_source_file>
AV-unprocessed.smi

> <i_m_source_file_index>
1815

> <i_lp_mmshare_version>
43012

> <i_f3d_flags>
0

> <s_epik_input>
W0NIM11bQ0BASF0xW0NIMl1OKFtDSDJdW0NASF0oTzEpW0NIM10pW0NIMl1bQ0gyXVtOSF1DKD1PKVtOSF1jMm5bY0hdW2NIXXMy

> <s_epik_cmdline>
J2VwaWtfcHl0aG9uJywgJy1waCcsICc3LjAnLCAnLXRuJywgJzgnLCAnLW1hJywgJzIwMCcsICctbWV0YWxfYmluZGluZycsICctaW1hZScsICc8aW5maWxlLm1hZT4nLCAnLW9tYWUnLCAnPG91dGZpbGUubWFlPic=

> <r_lp_tautomer_probability>
0.999

> <r_epik_Ionization_Penalty>
0.695838

> <r_epik_Ionization_Penalty_Charging>
0.695697

> <r_epik_Ionization_Penalty_Neutral>
0.000141198

> <r_epik_State_Penalty>
0.717972

> <r_epik_Charging_Adjusted_Penalty>
1.41367

> <i_epik_Tot_Q>
1

> <i_epik_Tot_abs_Q>
1

> <r_epik_Metal_State_Penalty>
0.756405

> <b_epik_Metal_Only>
0

> <s_lp_Force_Field>
OPLS_2005

> <r_lp_Energy>
12.0644

> <b_lp_Chiralities_Consistent>
1

> <s_lp_Variant>
AV-unprocessed.smi:1815-6

> <Gold.Version>
5.8.1

> <Gold.Id.Protein>
6NUR|6NUR_protein|mol2

> <Gold.PLP.Fitness>
42.8620

> <Gold.PLP.PLP>
-30.0855

> <Gold.PLP.part.hbond>
-5.4912

> <Gold.PLP.part.metal>
0.0000

> <Gold.PLP.part.buried>
1.6511

> <Gold.PLP.part.nonpolar>
-26.3215

> <Gold.PLP.part.repulsive>
0.5037

> <Gold.PLP.ligand.clash>
0.0000

> <Gold.PLP.ligand.torsion>
0.8175

> <Gold.PLP.Chemscore.Hbond>
4.8000

> <Gold.PLP.Chemscore.CHOScore>
0.0000

> <Gold.PLP.Chemscore.Metal>
0.0000

> <Gold.Chemscore.Hbonds>
donor molecule, donor type, donor heavy atom, donor atom, acceptor molecule, acceptor atom, score
      L1  H     4    40       P1  7948  2.00
      L1  H     7    30       P1  7957  0.85
      L1  H    10    31       P1  7957  1.00
      P1  H  7989  7998       L1    12  0.85

> <Gold.PLP.Chemscore.Internal.Correction>
0.0115

> <Gold.Rescore>
     Score         DG    S(hbond)    S(metal)    S(lipo)     H(rot)  DE(clash)    DE(int)     intcor
     17.78     -20.09       3.36        0.00      64.86       1.64       1.58       0.73       ----

> <Gold.Chemscore.Fitness>
17.7754

> <Gold.Chemscore.DG>
-20.0900

> <Gold.Chemscore.ZeroCoef>
-5.4800

> <Gold.Chemscore.Hbond>
3.3580

> <Gold.Chemscore.Metal>
0.0000

> <Gold.Chemscore.Lipo>
64.8601

> <Gold.Chemscore.Internal_Hbond>
0.0000

> <Gold.Chemscore.DEClash>
1.5837

> <Gold.Chemscore.DEInternal>
0.7309

> <Gold.Chemscore.Rot>
1.6385

> <Gold.Chemscore.Internal.Correction>
   9.000000E+99

> <Gold.Chemscore.Hbonds>
donor molecule, donor type, donor heavy atom, donor atom, acceptor molecule, acceptor atom, score
      L1  H     4    40       P1  7948  0.99
      L1  H     7    30       P1  7957  0.77
      L1  H    10    31       P1  7957  0.86
      P1  H  7989  7998       L1    12  0.13

> <Gold.Chemscore.Hbond.Weighted>
-11.2158

> <Gold.Chemscore.Metal.Weighted>
-0.0000

> <Gold.Chemscore.Lipo.Weighted>
-7.5886

> <Gold.Chemscore.Internal_Hbond.Weighted>
0.0000

> <Gold.Chemscore.DEClash.Weighted>
1.5837

> <Gold.Chemscore.DEInternal.Weighted>
0.7309

> <Gold.Chemscore.Rot.Weighted>
4.1945

> <Gold.Chemscore.Internal.Correction.Weighted>
   9.000000E+99

> <Gold.Protein.RotatedTorsions>
[ 6907 6896 6895 6894 ] final -138.73 input  -60.11 | X-H torsion
[ 7974 7965 7964 7962 ] final  103.07 input  175.53 | X-H torsion
[ 8008 7997 7996 7995 ] final  -54.21 input   59.86 | X-H torsion
[ 10167 10162 10161 10158 ] final  114.32 input  -65.29 | X-H torsion
[ 10718 10713 10712 10709 ] final  -85.14 input   66.30 | X-H torsion
[ 10763 10752 10751 10750 ] final  -65.84 input  -60.55 | X-H torsion
[ 11005 11000 10999 10996 ] final   92.42 input  -57.11 | X-H torsion

> <Gold.Protein.ActiveResidues>
 VAL166  LYS551  ARG553  GLY616  TRP617  ASP618  TYR619  PRO620  LYS621  CYS622 
 ASP623  PHE694  ASN695  SER759  ASP760  ASP761  ALA762  ILE779  LEU786  VAL792 
 PHE793  MET794  SER795  GLU796  ALA797  LYS798  CYS799  TRP800  GLU811  SER814 

> <Gold.Protein.RotatedAtoms>
  151.0388  133.5725  159.2653 H   0  0  0  0  0  0  0  0  0  0  0  0  # atno 6907 bound_to 6896
  151.2779  135.0704  159.9168 H   0  0  0  0  0  0  0  0  0  0  0  0  # atno 6908 bound_to 6896
  152.5360  134.0107  159.7991 H   0  0  0  0  0  0  0  0  0  0  0  0  # atno 6909 bound_to 6896
  145.3508  139.2440  143.3559 H   0  0  0  0  0  0  0  0  0  0  0  0  # atno 7974 bound_to 7965
  154.4156  140.1181  156.5279 H   0  0  0  0  0  0  0  0  0  0  0  0  # atno 8008 bound_to 7997
  155.6635  140.3496  155.4772 H   0  0  0  0  0  0  0  0  0  0  0  0  # atno 8009 bound_to 7997
  155.9693  140.1138  157.0816 H   0  0  0  0  0  0  0  0  0  0  0  0  # atno 8010 bound_to 7997
  139.6397  144.7123  151.2262 H   0  0  0  0  0  0  0  0  0  0  0  0  # atno 10167 bound_to 10162
  155.9999  130.4721  150.4516 H   0  0  0  0  0  0  0  0  0  0  0  0  # atno 10718 bound_to 10713
  154.3509  135.6136  153.5642 H   0  0  0  0  0  0  0  0  0  0  0  0  # atno 10763 bound_to 10752
  152.9798  135.5792  154.4744 H   0  0  0  0  0  0  0  0  0  0  0  0  # atno 10764 bound_to 10752
  154.4465  135.2851  155.1788 H   0  0  0  0  0  0  0  0  0  0  0  0  # atno 10765 bound_to 10752
  139.8824  134.8732  156.3570 H   0  0  0  0  0  0  0  0  0  0  0  0  # atno 11005 bound_to 11000
  146.2969  140.4124  142.8718 LP  0  0  0  0  0  0  0  0  0  0  0  0  # atno 17320 bound_to 7965
  144.8719  140.7284  143.6041 LP  0  0  0  0  0  0  0  0  0  0  0  0  # atno 17321 bound_to 7965
  140.7484  143.6334  150.8402 LP  0  0  0  0  0  0  0  0  0  0  0  0  # atno 17342 bound_to 10162
  139.9969  143.5786  152.2890 LP  0  0  0  0  0  0  0  0  0  0  0  0  # atno 17343 bound_to 10162
  157.2549  131.0554  151.2356 LP  0  0  0  0  0  0  0  0  0  0  0  0  # atno 17370 bound_to 10713
  157.3492  130.7073  149.6430 LP  0  0  0  0  0  0  0  0  0  0  0  0  # atno 17371 bound_to 10713
  140.9555  133.7423  156.0330 LP  0  0  0  0  0  0  0  0  0  0  0  0  # atno 17394 bound_to 11000
  140.8053  134.3461  157.5427 LP  0  0  0  0  0  0  0  0  0  0  0  0  # atno 17395 bound_to 11000

$$$$
