AV-unprocessed.smi:322|AV-procd|sdf|2337|dock5
  -GOLD-   2262022243D 1   1.00000     0.00000
 Structure written by MMmdl.
 44 46  0  0  0  0  0  0  0  0  2 V2000
  149.5792  141.1334  153.5902 O   0  0  0  0  0  0  0  0  0  0  0  0
  149.1866  140.7147  154.8784 C   0  0  0  0  0  0  0  0  0  0  0  0
  150.0657  141.2727  155.9482 C   0  0  0  0  0  0  0  0  0  0  0  0
  150.2337  142.5951  156.2327 N   0  3  0  0  0  0  0  0  0  0  0  0
  151.1237  142.7404  157.2977 C   0  0  0  0  0  0  0  0  0  0  0  0
  151.6027  143.8795  157.9374 C   0  0  0  0  0  0  0  0  0  0  0  0
  152.5075  143.6751  158.9998 C   0  0  0  0  0  0  0  0  0  0  0  0
  152.9026  142.3785  159.3893 C   0  0  0  0  0  0  0  0  0  0  0  0
  152.4100  141.2311  158.7333 C   0  0  0  0  0  0  0  0  0  0  0  0
  151.5168  141.4428  157.6836 C   0  0  0  0  0  0  0  0  0  0  0  0
  150.8419  140.5701  156.8236 N   0  0  0  0  0  0  0  0  0  0  0  0
  151.0410  139.1201  156.9754 C   0  0  0  0  0  0  0  0  0  0  0  0
  152.5074  138.6904  156.7722 C   0  0  2  0  0  0  0  0  0  0  0  0
  152.9726  139.2198  155.5461 O   0  0  0  0  0  0  0  0  0  0  0  0
  152.6570  137.1624  156.7353 C   0  0  0  0  0  0  0  0  0  0  0  0
  151.7238  136.6329  155.8043 O   0  0  0  0  0  0  0  0  0  0  0  0
  150.6139  135.9848  156.4092 C   0  0  0  0  0  0  0  0  0  0  0  0
  150.2291  134.6873  155.7187 C   0  0  0  0  0  0  0  0  0  0  0  0
  149.7843  134.7029  154.3798 C   0  0  0  0  0  0  0  0  0  0  0  0
  149.4335  133.5005  153.7360 C   0  0  0  0  0  0  0  0  0  0  0  0
  149.5326  132.2767  154.4263 C   0  0  0  0  0  0  0  0  0  0  0  0
  149.1033  130.8031  153.6381 Cl  0  0  0  0  0  0  0  0  0  0  0  0
  149.9843  132.2564  155.7604 C   0  0  0  0  0  0  0  0  0  0  0  0
  150.3343  133.4591  156.4047 C   0  0  0  0  0  0  0  0  0  0  0  0
  149.3956  140.4367  152.9783 H   0  0  0  0  0  0  0  0  0  0  0  0
  148.1549  141.0187  155.0562 H   0  0  0  0  0  0  0  0  0  0  0  0
  149.2110  139.6255  154.9206 H   0  0  0  0  0  0  0  0  0  0  0  0
  151.3017  144.8737  157.6409 H   0  0  0  0  0  0  0  0  0  0  0  0
  152.9065  144.5297  159.5269 H   0  0  0  0  0  0  0  0  0  0  0  0
  153.5981  142.2612  160.2077 H   0  0  0  0  0  0  0  0  0  0  0  0
  152.7189  140.2421  159.0378 H   0  0  0  0  0  0  0  0  0  0  0  0
  150.6824  138.8284  157.9634 H   0  0  0  0  0  0  0  0  0  0  0  0
  150.3943  138.6162  156.2560 H   0  0  0  0  0  0  0  0  0  0  0  0
  153.1164  139.0942  157.5817 H   0  0  0  0  0  0  0  0  0  0  0  0
  152.8158  138.5819  154.8673 H   0  0  0  0  0  0  0  0  0  0  0  0
  153.6601  136.8991  156.3959 H   0  0  0  0  0  0  0  0  0  0  0  0
  152.5324  136.7349  157.7316 H   0  0  0  0  0  0  0  0  0  0  0  0
  150.8844  135.7476  157.4382 H   0  0  0  0  0  0  0  0  0  0  0  0
  149.7622  136.6650  156.4627 H   0  0  0  0  0  0  0  0  0  0  0  0
  149.7074  135.6383  153.8449 H   0  0  0  0  0  0  0  0  0  0  0  0
  149.0898  133.5186  152.7121 H   0  0  0  0  0  0  0  0  0  0  0  0
  150.0636  131.3190  156.2909 H   0  0  0  0  0  0  0  0  0  0  0  0
  150.6811  133.4348  157.4274 H   0  0  0  0  0  0  0  0  0  0  0  0
  149.7674  143.3419  155.7341 H   0  0  0  0  0  0  0  0  0  0  0  0
  1  2  1  0  0  0  0
  1 25  1  0  0  0  0
  2  3  1  0  0  0  0
  2 26  1  0  0  0  0
  2 27  1  0  0  0  0
  3 11  1  0  0  0  0
  3  4  2  0  0  0  0
  4  5  1  0  0  0  0
  4 44  1  0  0  0  0
  5 10  2  0  0  0  0
  5  6  1  0  0  0  0
  6  7  2  0  0  0  0
  6 28  1  0  0  0  0
  7  8  1  0  0  0  0
  7 29  1  0  0  0  0
  8  9  2  0  0  0  0
  8 30  1  0  0  0  0
  9 10  1  0  0  0  0
  9 31  1  0  0  0  0
 10 11  1  0  0  0  0
 11 12  1  0  0  0  0
 12 13  1  0  0  0  0
 12 32  1  0  0  0  0
 12 33  1  0  0  0  0
 13 14  1  0  0  0  0
 13 15  1  0  0  0  0
 13 34  1  0  0  0  0
 14 35  1  0  0  0  0
 15 16  1  0  0  0  0
 15 36  1  0  0  0  0
 15 37  1  0  0  0  0
 16 17  1  0  0  0  0
 17 18  1  0  0  0  0
 17 38  1  0  0  0  0
 17 39  1  0  0  0  0
 18 24  1  0  0  0  0
 18 19  2  0  0  0  0
 19 20  1  0  0  0  0
 19 40  1  0  0  0  0
 20 21  2  0  0  0  0
 20 41  1  0  0  0  0
 21 22  1  0  0  0  0
 21 23  1  0  0  0  0
 23 24  2  0  0  0  0
 23 42  1  0  0  0  0
 24 43  1  0  0  0  0
M  CHG  1   4   1
M  END
> <s_m_source_file>
AV-unprocessed.smi

> <i_m_source_file_index>
322

> <i_lp_mmshare_version>
43012

> <i_f3d_flags>
0

> <s_epik_input>
W2NIXTFbY0hdW2NIXVtjSF1jKGMxMiluKGMobjIpW0NIMl1bT0hdKVtDSDJdW0NASF0oW09IXSlbQ0gyXU9bQ0gyXWMzW2NIXVtjSF1jKENsKVtjSF1bY0hdMw==

> <s_epik_cmdline>
J2VwaWtfcHl0aG9uJywgJy1waCcsICc3LjAnLCAnLXRuJywgJzgnLCAnLW1hJywgJzIwMCcsICctbWV0YWxfYmluZGluZycsICctaW1hZScsICc8aW5maWxlLm1hZT4nLCAnLW9tYWUnLCAnPG91dGZpbGUubWFlPic=

> <r_epik_Ionization_Penalty>
1.34314

> <r_epik_Ionization_Penalty_Charging>
1.34228

> <r_epik_Ionization_Penalty_Neutral>
0.000856898

> <r_epik_State_Penalty>
1.41963

> <r_epik_Charging_Adjusted_Penalty>
2.76191

> <i_epik_Tot_Q>
1

> <i_epik_Tot_abs_Q>
1

> <r_epik_Metal_State_Penalty>
5.45585

> <b_epik_Metal_Only>
0

> <s_lp_Force_Field>
OPLS_2005

> <r_lp_Energy>
17.7001

> <b_lp_Chiralities_Consistent>
1

> <s_lp_Variant>
AV-unprocessed.smi:322-3

> <Gold.Version>
5.8.1

> <Gold.Id.Protein>
6NUR|6NUR_protein|mol2

> <Gold.PLP.Fitness>
65.7271

> <Gold.PLP.PLP>
-49.4108

> <Gold.PLP.part.hbond>
-6.0000

> <Gold.PLP.part.metal>
0.0000

> <Gold.PLP.part.buried>
-5.3559

> <Gold.PLP.part.nonpolar>
-39.3321

> <Gold.PLP.part.repulsive>
0.1490

> <Gold.PLP.ligand.clash>
0.0000

> <Gold.PLP.ligand.torsion>
0.7203

> <Gold.PLP.Chemscore.Hbond>
5.8768

> <Gold.PLP.Chemscore.CHOScore>
0.0000

> <Gold.PLP.Chemscore.Metal>
0.0000

> <Gold.Chemscore.Hbonds>
donor molecule, donor type, donor heavy atom, donor atom, acceptor molecule, acceptor atom, score
      L1  H     1    25       P1  7957  0.78
      L1  H     4    44       P1  8028  2.00
      P1  H  7989  7998       L1     1  0.17
      P1  H  7997  8009       L1    14  1.00
      P1  H  8011  8017       L1     1  0.73
      P1  H 10752 10765       L1    16  0.95

> <Gold.PLP.Chemscore.Internal.Correction>
0.1265

> <Gold.Rescore>
     Score         DG    S(hbond)    S(metal)    S(lipo)     H(rot)  DE(clash)    DE(int)     intcor
     22.89     -23.73       3.60        0.00     124.06       3.24       0.18       0.66       ----

> <Gold.Chemscore.Fitness>
22.8944

> <Gold.Chemscore.DG>
-23.7298

> <Gold.Chemscore.ZeroCoef>
-5.4800

> <Gold.Chemscore.Hbond>
3.6001

> <Gold.Chemscore.Metal>
0.0000

> <Gold.Chemscore.Lipo>
124.0641

> <Gold.Chemscore.Internal_Hbond>
0.0000

> <Gold.Chemscore.DEClash>
0.1782

> <Gold.Chemscore.DEInternal>
0.6572

> <Gold.Chemscore.Rot>
3.2383

> <Gold.Chemscore.Internal.Correction>
   9.000000E+99

> <Gold.Chemscore.Hbonds>
donor molecule, donor type, donor heavy atom, donor atom, acceptor molecule, acceptor atom, score
      L1  H     1    25       P1  7957  0.78
      L1  H     4    44       P1  8028  0.97
      P1  H  7989  7998       L1     1  0.01
      P1  H  7997  8009       L1    14  0.60
      P1  H  8011  8017       L1     1  0.09
      P1  H 10752 10765       L1    16  0.20

> <Gold.Chemscore.Hbond.Weighted>
-12.0244

> <Gold.Chemscore.Metal.Weighted>
-0.0000

> <Gold.Chemscore.Lipo.Weighted>
-14.5155

> <Gold.Chemscore.Internal_Hbond.Weighted>
0.0000

> <Gold.Chemscore.DEClash.Weighted>
0.1782

> <Gold.Chemscore.DEInternal.Weighted>
0.6572

> <Gold.Chemscore.Rot.Weighted>
8.2901

> <Gold.Chemscore.Internal.Correction.Weighted>
   9.000000E+99

> <Gold.Protein.RotatedTorsions>
[ 6907 6896 6895 6894 ] final   55.77 input  -60.11 | X-H torsion
[ 7974 7965 7964 7962 ] final  150.35 input  175.53 | X-H torsion
[ 8008 7997 7996 7995 ] final -136.80 input   59.86 | X-H torsion
[ 10167 10162 10161 10158 ] final   58.87 input  -65.29 | X-H torsion
[ 10718 10713 10712 10709 ] final  125.69 input   66.30 | X-H torsion
[ 10763 10752 10751 10750 ] final -175.28 input  -60.55 | X-H torsion
[ 11005 11000 10999 10996 ] final    3.31 input  -57.11 | X-H torsion

> <Gold.Protein.ActiveResidues>
 VAL166  LYS551  ARG553  GLY616  TRP617  ASP618  TYR619  PRO620  LYS621  CYS622 
 ASP623  PHE694  ASN695  SER759  ASP760  ASP761  ALA762  ILE779  LEU786  VAL792 
 PHE793  MET794  SER795  GLU796  ALA797  LYS798  CYS799  TRP800  GLU811  SER814 

> <Gold.Protein.RotatedAtoms>
  152.3571  134.6925  160.0218 H   0  0  0  0  0  0  0  0  0  0  0  0  # atno 6907 bound_to 6896
  151.7260  133.3310  159.3336 H   0  0  0  0  0  0  0  0  0  0  0  0  # atno 6908 bound_to 6896
  150.7579  134.6340  159.6246 H   0  0  0  0  0  0  0  0  0  0  0  0  # atno 6909 bound_to 6896
  144.8371  139.6397  143.6033 H   0  0  0  0  0  0  0  0  0  0  0  0  # atno 7974 bound_to 7965
  155.4012  140.0506  157.3036 H   0  0  0  0  0  0  0  0  0  0  0  0  # atno 8008 bound_to 7997
  154.4990  140.2149  155.9347 H   0  0  0  0  0  0  0  0  0  0  0  0  # atno 8009 bound_to 7997
  156.1442  140.3148  155.8549 H   0  0  0  0  0  0  0  0  0  0  0  0  # atno 8010 bound_to 7997
  140.1826  144.4166  150.6608 H   0  0  0  0  0  0  0  0  0  0  0  0  # atno 10167 bound_to 10162
  157.5482  131.1095  150.8747 H   0  0  0  0  0  0  0  0  0  0  0  0  # atno 10718 bound_to 10713
  154.5863  135.2841  155.0682 H   0  0  0  0  0  0  0  0  0  0  0  0  # atno 10763 bound_to 10752
  154.1999  135.6426  153.5088 H   0  0  0  0  0  0  0  0  0  0  0  0  # atno 10764 bound_to 10752
  153.0105  135.5466  154.6533 H   0  0  0  0  0  0  0  0  0  0  0  0  # atno 10765 bound_to 10752
  140.5945  133.9893  155.8104 H   0  0  0  0  0  0  0  0  0  0  0  0  # atno 11005 bound_to 11000
  146.2668  139.6539  142.9324 LP  0  0  0  0  0  0  0  0  0  0  0  0  # atno 17320 bound_to 7965
  145.4772  141.0437  143.2666 LP  0  0  0  0  0  0  0  0  0  0  0  0  # atno 17321 bound_to 7965
  140.6509  143.2225  151.6078 LP  0  0  0  0  0  0  0  0  0  0  0  0  # atno 17342 bound_to 10162
  139.5290  144.2974  152.1102 LP  0  0  0  0  0  0  0  0  0  0  0  0  # atno 17343 bound_to 10162
  156.9280  130.5339  149.5279 LP  0  0  0  0  0  0  0  0  0  0  0  0  # atno 17370 bound_to 10713
  156.0553  130.5616  150.9079 LP  0  0  0  0  0  0  0  0  0  0  0  0  # atno 17371 bound_to 10713
  141.0913  133.9912  157.3233 LP  0  0  0  0  0  0  0  0  0  0  0  0  # atno 17394 bound_to 11000
  139.9259  135.0201  156.8233 LP  0  0  0  0  0  0  0  0  0  0  0  0  # atno 17395 bound_to 11000

$$$$
