AV-unprocessed.smi:3275|AV-procd|sdf|12532|dock5
  -GOLD-   2272018443D 1   1.00000     0.00000
 Structure written by MMmdl.
 34 35  0  0  0  0  0  0  0  0  1 V2000
  147.3969  140.2412  152.3066 O   0  0  0  0  0  0  0  0  0  0  0  0
  147.6882  140.3302  153.6845 C   0  0  0  0  0  0  0  0  0  0  0  0
  148.1131  141.7595  154.0359 C   0  0  0  0  0  0  0  0  0  0  0  0
  148.5066  141.7853  155.4027 O   0  0  0  0  0  0  0  0  0  0  0  0
  149.8645  141.4631  155.7026 C   0  0  2  0  0  0  0  0  0  0  0  0
  150.2534  140.0248  155.3031 C   0  0  0  0  0  0  0  0  0  0  0  0
  151.7484  139.7945  155.5805 C   0  0  0  0  0  0  0  0  0  0  0  0
  152.0965  140.1267  157.0428 C   0  0  0  0  0  0  0  0  0  0  0  0
  151.6680  141.4802  157.3854 N   0  0  0  0  0  0  0  0  0  0  0  0
  152.1456  141.9053  158.6343 C   0  0  0  0  0  0  0  0  0  0  0  0
  152.5734  140.9801  159.6137 C   0  0  0  0  0  0  0  0  0  0  0  0
  153.0459  141.4705  160.8471 C   0  0  0  0  0  0  0  0  0  0  0  0
  153.1143  142.7848  161.1459 N   0  0  0  0  0  0  0  0  0  0  0  0
  152.7082  143.6660  160.2072 C   0  0  0  0  0  0  0  0  0  0  0  0
  152.2197  143.2832  158.9413 C   0  0  0  0  0  0  0  0  0  0  0  0
  151.7242  144.4914  157.8081 Cl  0  0  0  0  0  0  0  0  0  0  0  0
  150.2486  141.7489  157.1695 C   0  0  0  0  0  0  0  0  0  0  0  0
  148.1665  139.9277  151.8567 H   0  0  0  0  0  0  0  0  0  0  0  0
  146.8057  140.0410  154.2560 H   0  0  0  0  0  0  0  0  0  0  0  0
  148.4823  139.6234  153.9273 H   0  0  0  0  0  0  0  0  0  0  0  0
  148.9366  142.0608  153.3886 H   0  0  0  0  0  0  0  0  0  0  0  0
  147.2802  142.4391  153.8570 H   0  0  0  0  0  0  0  0  0  0  0  0
  150.4507  142.1395  155.0786 H   0  0  0  0  0  0  0  0  0  0  0  0
  149.6768  139.2952  155.8712 H   0  0  0  0  0  0  0  0  0  0  0  0
  150.0348  139.8515  154.2491 H   0  0  0  0  0  0  0  0  0  0  0  0
  152.0165  138.7616  155.3575 H   0  0  0  0  0  0  0  0  0  0  0  0
  152.3438  140.4197  154.9140 H   0  0  0  0  0  0  0  0  0  0  0  0
  151.6118  139.4132  157.7110 H   0  0  0  0  0  0  0  0  0  0  0  0
  153.1720  140.0305  157.1975 H   0  0  0  0  0  0  0  0  0  0  0  0
  152.5463  139.9164  159.4284 H   0  0  0  0  0  0  0  0  0  0  0  0
  153.3796  140.7875  161.6141 H   0  0  0  0  0  0  0  0  0  0  0  0
  152.7746  144.7102  160.4751 H   0  0  0  0  0  0  0  0  0  0  0  0
  150.0298  142.7887  157.4158 H   0  0  0  0  0  0  0  0  0  0  0  0
  149.6657  141.1242  157.8459 H   0  0  0  0  0  0  0  0  0  0  0  0
  1  2  1  0  0  0  0
  1 18  1  0  0  0  0
  2  3  1  0  0  0  0
  2 19  1  0  0  0  0
  2 20  1  0  0  0  0
  3  4  1  0  0  0  0
  3 21  1  0  0  0  0
  3 22  1  0  0  0  0
  4  5  1  0  0  0  0
  5 17  1  0  0  0  0
  5  6  1  0  0  0  0
  5 23  1  0  0  0  0
  6  7  1  0  0  0  0
  6 24  1  0  0  0  0
  6 25  1  0  0  0  0
  7  8  1  0  0  0  0
  7 26  1  0  0  0  0
  7 27  1  0  0  0  0
  8  9  1  0  0  0  0
  8 28  1  0  0  0  0
  8 29  1  0  0  0  0
  9 10  1  0  0  0  0
  9 17  1  0  0  0  0
 10 15  1  0  0  0  0
 10 11  2  0  0  0  0
 11 12  1  0  0  0  0
 11 30  1  0  0  0  0
 12 13  2  0  0  0  0
 12 31  1  0  0  0  0
 13 14  1  0  0  0  0
 14 15  2  0  0  0  0
 14 32  1  0  0  0  0
 15 16  1  0  0  0  0
 17 33  1  0  0  0  0
 17 34  1  0  0  0  0
M  END
> <s_m_source_file>
AV-unprocessed.smi

> <i_m_source_file_index>
3275

> <i_lp_mmshare_version>
43012

> <i_f3d_flags>
0

> <s_epik_input>
W09IXVtDSDJdW0NIMl1PW0NAQEhdMVtDSDJdW0NIMl1bQ0gyXU4oW0NIMl0xKWMyW2NIXVtjSF1uW2NIXWMyQ2w=

> <s_epik_cmdline>
J2VwaWtfcHl0aG9uJywgJy1waCcsICc3LjAnLCAnLXRuJywgJzgnLCAnLW1hJywgJzIwMCcsICctbWV0YWxfYmluZGluZycsICctaW1hZScsICc8aW5maWxlLm1hZT4nLCAnLW9tYWUnLCAnPG91dGZpbGUubWFlPic=

> <r_lp_tautomer_probability>
1

> <r_epik_Ionization_Penalty>
1.24095

> <r_epik_Ionization_Penalty_Charging>
0

> <r_epik_Ionization_Penalty_Neutral>
1.24095

> <r_epik_State_Penalty>
1.30987

> <r_epik_Charging_Adjusted_Penalty>
1.30987

> <i_epik_Tot_Q>
0

> <i_epik_Tot_abs_Q>
0

> <r_epik_Metal_State_Penalty>
0.00479332

> <b_epik_Metal_Only>
0

> <s_lp_Force_Field>
OPLS_2005

> <r_lp_Energy>
21.9158

> <b_lp_Chiralities_Consistent>
1

> <s_lp_Variant>
AV-unprocessed.smi:3275-3

> <Gold.Version>
5.8.1

> <Gold.Id.Protein>
6NUR|6NUR_protein|mol2

> <Gold.PLP.Fitness>
39.8724

> <Gold.PLP.PLP>
-37.7397

> <Gold.PLP.part.hbond>
-0.8933

> <Gold.PLP.part.metal>
0.0000

> <Gold.PLP.part.buried>
-2.3965

> <Gold.PLP.part.nonpolar>
-33.8903

> <Gold.PLP.part.repulsive>
0.6990

> <Gold.PLP.ligand.clash>
0.0000

> <Gold.PLP.ligand.torsion>
0.5347

> <Gold.PLP.Chemscore.Hbond>
1.0000

> <Gold.PLP.Chemscore.CHOScore>
0.0000

> <Gold.PLP.Chemscore.Metal>
0.0000

> <Gold.Chemscore.Hbonds>
donor molecule, donor type, donor heavy atom, donor atom, acceptor molecule, acceptor atom, score
      L1  H     1    18       P1  7957  1.00

> <Gold.PLP.Chemscore.Internal.Correction>
0.2022

> <Gold.Rescore>
     Score         DG    S(hbond)    S(metal)    S(lipo)     H(rot)  DE(clash)    DE(int)     intcor
     15.92     -16.60       1.00        0.00     111.59       2.06       0.13       0.56       ----

> <Gold.Chemscore.Fitness>
15.9157

> <Gold.Chemscore.DG>
-16.6017

> <Gold.Chemscore.ZeroCoef>
-5.4800

> <Gold.Chemscore.Hbond>
0.9974

> <Gold.Chemscore.Metal>
0.0000

> <Gold.Chemscore.Lipo>
111.5940

> <Gold.Chemscore.Internal_Hbond>
0.0000

> <Gold.Chemscore.DEClash>
0.1270

> <Gold.Chemscore.DEInternal>
0.5590

> <Gold.Chemscore.Rot>
2.0570

> <Gold.Chemscore.Internal.Correction>
   9.000000E+99

> <Gold.Chemscore.Hbonds>
donor molecule, donor type, donor heavy atom, donor atom, acceptor molecule, acceptor atom, score
      L1  H     1    18       P1  7957  0.96

> <Gold.Chemscore.Hbond.Weighted>
-3.3312

> <Gold.Chemscore.Metal.Weighted>
-0.0000

> <Gold.Chemscore.Lipo.Weighted>
-13.0565

> <Gold.Chemscore.Internal_Hbond.Weighted>
0.0000

> <Gold.Chemscore.DEClash.Weighted>
0.1270

> <Gold.Chemscore.DEInternal.Weighted>
0.5590

> <Gold.Chemscore.Rot.Weighted>
5.2660

> <Gold.Chemscore.Internal.Correction.Weighted>
   9.000000E+99

> <Gold.Protein.RotatedTorsions>
[ 6907 6896 6895 6894 ] final   22.19 input  -60.11 | X-H torsion
[ 7974 7965 7964 7962 ] final  -45.47 input  175.53 | X-H torsion
[ 8008 7997 7996 7995 ] final  110.09 input   59.86 | X-H torsion
[ 10167 10162 10161 10158 ] final -102.17 input  -65.29 | X-H torsion
[ 10718 10713 10712 10709 ] final  129.69 input   66.30 | X-H torsion
[ 10763 10752 10751 10750 ] final  -94.80 input  -60.55 | X-H torsion
[ 11005 11000 10999 10996 ] final   45.25 input  -57.11 | X-H torsion

> <Gold.Protein.ActiveResidues>
 VAL166  LYS551  ARG553  GLY616  TRP617  ASP618  TYR619  PRO620  LYS621  CYS622 
 ASP623  PHE694  ASN695  SER759  ASP760  ASP761  ALA762  ILE779  LEU786  VAL792 
 PHE793  MET794  SER795  GLU796  ALA797  LYS798  CYS799  TRP800  GLU811  SER814 

> <Gold.Protein.RotatedAtoms>
  151.9234  135.0288  160.0523 H   0  0  0  0  0  0  0  0  0  0  0  0  # atno 6907 bound_to 6896
  152.2180  133.4957  159.5155 H   0  0  0  0  0  0  0  0  0  0  0  0  # atno 6908 bound_to 6896
  150.6992  134.1296  159.4107 H   0  0  0  0  0  0  0  0  0  0  0  0  # atno 6909 bound_to 6896
  145.9817  140.7276  142.9360 H   0  0  0  0  0  0  0  0  0  0  0  0  # atno 7974 bound_to 7965
  156.2028  140.3045  155.9562 H   0  0  0  0  0  0  0  0  0  0  0  0  # atno 8008 bound_to 7997
  155.2914  140.0442  157.3040 H   0  0  0  0  0  0  0  0  0  0  0  0  # atno 8009 bound_to 7997
  154.5593  140.2315  155.8370 H   0  0  0  0  0  0  0  0  0  0  0  0  # atno 8010 bound_to 7997
  140.2335  143.3589  152.0865 H   0  0  0  0  0  0  0  0  0  0  0  0  # atno 10167 bound_to 10162
  157.5131  131.1097  150.9263 H   0  0  0  0  0  0  0  0  0  0  0  0  # atno 10718 bound_to 10713
  154.7089  135.5144  153.8636 H   0  0  0  0  0  0  0  0  0  0  0  0  # atno 10763 bound_to 10752
  153.0764  135.6617  154.0147 H   0  0  0  0  0  0  0  0  0  0  0  0  # atno 10764 bound_to 10752
  153.9992  135.3012  155.3384 H   0  0  0  0  0  0  0  0  0  0  0  0  # atno 10765 bound_to 10752
  140.1477  134.4501  155.8404 H   0  0  0  0  0  0  0  0  0  0  0  0  # atno 11005 bound_to 11000
  144.6863  140.2920  143.7276 LP  0  0  0  0  0  0  0  0  0  0  0  0  # atno 17320 bound_to 7965
  145.7759  139.1874  143.2185 LP  0  0  0  0  0  0  0  0  0  0  0  0  # atno 17321 bound_to 7965
  139.5102  144.6879  151.5837 LP  0  0  0  0  0  0  0  0  0  0  0  0  # atno 17342 bound_to 10162
  140.6167  143.9335  150.6494 LP  0  0  0  0  0  0  0  0  0  0  0  0  # atno 17343 bound_to 10162
  156.9897  130.5558  149.5302 LP  0  0  0  0  0  0  0  0  0  0  0  0  # atno 17370 bound_to 10713
  156.0302  130.5394  150.8515 LP  0  0  0  0  0  0  0  0  0  0  0  0  # atno 17371 bound_to 10713
  141.2195  133.6859  156.7364 LP  0  0  0  0  0  0  0  0  0  0  0  0  # atno 17394 bound_to 11000
  140.2643  134.8442  157.3788 LP  0  0  0  0  0  0  0  0  0  0  0  0  # atno 17395 bound_to 11000

$$$$
