AV-unprocessed.smi:2461|AV-procd|sdf|9716|dock7
  -GOLD-   2272013353D 1   1.00000     0.00000
 Structure written by MMmdl.
 36 37  0  0  0  0  0  0  0  0  1 V2000
  143.8264  132.7827  148.6809 C   0  0  0  0  0  0  0  0  0  0  0  0
  143.9478  132.6021  150.2007 C   0  0  0  0  0  0  0  0  0  0  0  0
  144.9327  133.5679  150.8514 C   0  0  0  0  0  0  0  0  0  0  0  0
  146.3572  133.0076  150.8760 C   0  0  0  0  0  0  0  0  0  0  0  0
  147.2907  133.6845  151.7690 N   0  0  0  0  0  0  0  0  0  0  0  0
  147.7734  133.1711  152.9092 C   0  0  0  0  0  0  0  0  0  0  0  0
  147.4414  132.0720  153.3537 O   0  0  0  0  0  0  0  0  0  0  0  0
  148.6614  134.0041  153.4794 N   0  0  0  0  0  0  0  0  0  0  0  0
  149.4031  133.8068  154.6738 C   0  0  0  0  0  0  0  0  0  0  0  0
  150.2708  134.8608  155.0379 C   0  0  0  0  0  0  0  0  0  0  0  0
  151.0323  134.7012  156.2137 C   0  0  0  0  0  0  0  0  0  0  0  0
  151.8997  135.7028  156.5979 O   0  0  0  0  0  0  0  0  0  0  0  0
  151.5780  137.0429  156.2433 C   0  0  0  0  0  0  0  0  0  0  0  0
  150.9302  133.5822  156.9710 N   0  0  0  0  0  0  0  0  0  0  0  0
  150.0800  132.6464  156.5472 C   0  0  0  0  0  0  0  0  0  0  0  0
  149.3211  132.6988  155.4510 N   0  0  0  0  0  0  0  0  0  0  0  0
  144.7164  135.0635  150.6823 C   0  0  0  0  0  0  0  0  0  0  0  0
  144.4624  134.4199  152.0161 C   0  0  0  0  0  0  0  0  0  0  0  0
  143.1348  132.0522  148.2612 H   0  0  0  0  0  0  0  0  0  0  0  0
  144.7898  132.6454  148.1896 H   0  0  0  0  0  0  0  0  0  0  0  0
  143.4557  133.7732  148.4185 H   0  0  0  0  0  0  0  0  0  0  0  0
  142.9704  132.7123  150.6712 H   0  0  0  0  0  0  0  0  0  0  0  0
  144.2670  131.5795  150.4052 H   0  0  0  0  0  0  0  0  0  0  0  0
  146.3134  131.9634  151.1858 H   0  0  0  0  0  0  0  0  0  0  0  0
  146.7796  132.9898  149.8704 H   0  0  0  0  0  0  0  0  0  0  0  0
  147.6143  134.5965  151.4811 H   0  0  0  0  0  0  0  0  0  0  0  0
  148.8450  134.8681  152.9910 H   0  0  0  0  0  0  0  0  0  0  0  0
  150.3577  135.7556  154.4388 H   0  0  0  0  0  0  0  0  0  0  0  0
  152.3484  137.7118  156.6267 H   0  0  0  0  0  0  0  0  0  0  0  0
  150.6260  137.3531  156.6767 H   0  0  0  0  0  0  0  0  0  0  0  0
  151.5376  137.1710  155.1607 H   0  0  0  0  0  0  0  0  0  0  0  0
  149.9974  131.7557  157.1524 H   0  0  0  0  0  0  0  0  0  0  0  0
  145.5864  135.7124  150.6074 H   0  0  0  0  0  0  0  0  0  0  0  0
  143.8500  135.3912  150.1116 H   0  0  0  0  0  0  0  0  0  0  0  0
  143.4264  134.3201  152.3332 H   0  0  0  0  0  0  0  0  0  0  0  0
  145.1711  134.6342  152.8137 H   0  0  0  0  0  0  0  0  0  0  0  0
  1  2  1  0  0  0  0
  1 19  1  0  0  0  0
  1 20  1  0  0  0  0
  1 21  1  0  0  0  0
  2  3  1  0  0  0  0
  2 22  1  0  0  0  0
  2 23  1  0  0  0  0
  3 18  1  0  0  0  0
  3  4  1  0  0  0  0
  3 17  1  0  0  0  0
  4  5  1  0  0  0  0
  4 24  1  0  0  0  0
  4 25  1  0  0  0  0
  5  6  1  0  0  0  0
  5 26  1  0  0  0  0
  6  7  2  0  0  0  0
  6  8  1  0  0  0  0
  8  9  1  0  0  0  0
  8 27  1  0  0  0  0
  9 16  1  0  0  0  0
  9 10  2  0  0  0  0
 10 11  1  0  0  0  0
 10 28  1  0  0  0  0
 11 12  1  0  0  0  0
 11 14  2  0  0  0  0
 12 13  1  0  0  0  0
 13 29  1  0  0  0  0
 13 30  1  0  0  0  0
 13 31  1  0  0  0  0
 14 15  1  0  0  0  0
 15 16  2  0  0  0  0
 15 32  1  0  0  0  0
 17 18  1  0  0  0  0
 17 33  1  0  0  0  0
 17 34  1  0  0  0  0
 18 35  1  0  0  0  0
 18 36  1  0  0  0  0
M  END
> <s_m_source_file>
AV-unprocessed.smi

> <i_m_source_file_index>
2461

> <i_lp_mmshare_version>
43012

> <i_f3d_flags>
0

> <s_epik_input>
W0NIM11bQ0gyXUMxKFtDSDJdW0NIMl0xKVtDSDJdW05IXUMoPU8pW05IXWMyW2NIXWMoT1tDSDNdKW5bY0hdbjI=

> <s_epik_cmdline>
J2VwaWtfcHl0aG9uJywgJy1waCcsICc3LjAnLCAnLXRuJywgJzgnLCAnLW1hJywgJzIwMCcsICctbWV0YWxfYmluZGluZycsICctaW1hZScsICc8aW5maWxlLm1hZT4nLCAnLW9tYWUnLCAnPG91dGZpbGUubWFlPic=

> <r_lp_tautomer_probability>
1

> <r_epik_Ionization_Penalty>
2.7206e-05

> <r_epik_Ionization_Penalty_Charging>
0

> <r_epik_Ionization_Penalty_Neutral>
2.7206e-05

> <r_epik_State_Penalty>
-0

> <r_epik_Charging_Adjusted_Penalty>
0

> <i_epik_Tot_Q>
0

> <i_epik_Tot_abs_Q>
0

> <r_epik_Metal_State_Penalty>
-0

> <b_epik_Metal_Only>
0

> <s_lp_Force_Field>
OPLS_2005

> <r_lp_Energy>
17.684

> <b_lp_Chiralities_Consistent>
1

> <s_lp_Variant>
AV-unprocessed.smi:2461-1

> <Gold.Version>
5.8.1

> <Gold.Id.Protein>
6NUR|6NUR_protein|mol2

> <Gold.PLP.Fitness>
40.2495

> <Gold.PLP.PLP>
-32.7159

> <Gold.PLP.part.hbond>
-4.0000

> <Gold.PLP.part.metal>
0.0000

> <Gold.PLP.part.buried>
-4.5849

> <Gold.PLP.part.nonpolar>
-24.5591

> <Gold.PLP.part.repulsive>
0.1324

> <Gold.PLP.ligand.clash>
0.0000

> <Gold.PLP.ligand.torsion>
1.3401

> <Gold.PLP.Chemscore.Hbond>
3.0122

> <Gold.PLP.Chemscore.CHOScore>
0.0000

> <Gold.PLP.Chemscore.Metal>
0.0000

> <Gold.Chemscore.Hbonds>
donor molecule, donor type, donor heavy atom, donor atom, acceptor molecule, acceptor atom, score
      L1  H     5    26       P1  7948  0.73
      L1  H     8    27       P1  7948  0.90
      P1  H  6896  6907       L1    14  0.35
      P1  H 10752 10765       L1    12  0.94

> <Gold.PLP.Chemscore.Internal.Correction>
1.1774

> <Gold.Rescore>
     Score         DG    S(hbond)    S(metal)    S(lipo)     H(rot)  DE(clash)    DE(int)     intcor
     11.66     -14.31       2.30        0.00      50.62       1.87       0.01       2.63       ----

> <Gold.Chemscore.Fitness>
11.6587

> <Gold.Chemscore.DG>
-14.3067

> <Gold.Chemscore.ZeroCoef>
-5.4800

> <Gold.Chemscore.Hbond>
2.3002

> <Gold.Chemscore.Metal>
0.0000

> <Gold.Chemscore.Lipo>
50.6154

> <Gold.Chemscore.Internal_Hbond>
0.0000

> <Gold.Chemscore.DEClash>
0.0149

> <Gold.Chemscore.DEInternal>
2.6332

> <Gold.Chemscore.Rot>
1.8664

> <Gold.Chemscore.Internal.Correction>
   9.000000E+99

> <Gold.Chemscore.Hbonds>
donor molecule, donor type, donor heavy atom, donor atom, acceptor molecule, acceptor atom, score
      L1  H     5    26       P1  7948  0.14
      L1  H     8    27       P1  7948  0.18
      P1  H  6896  6907       L1    14  0.27
      P1  H 10752 10765       L1    12  0.05

> <Gold.Chemscore.Hbond.Weighted>
-7.6828

> <Gold.Chemscore.Metal.Weighted>
-0.0000

> <Gold.Chemscore.Lipo.Weighted>
-5.9220

> <Gold.Chemscore.Internal_Hbond.Weighted>
0.0000

> <Gold.Chemscore.DEClash.Weighted>
0.0149

> <Gold.Chemscore.DEInternal.Weighted>
2.6332

> <Gold.Chemscore.Rot.Weighted>
4.7781

> <Gold.Chemscore.Internal.Correction.Weighted>
   9.000000E+99

> <Gold.Protein.RotatedTorsions>
[ 6907 6896 6895 6894 ] final -143.48 input  -60.11 | X-H torsion
[ 7974 7965 7964 7962 ] final   73.57 input  175.53 | X-H torsion
[ 8008 7997 7996 7995 ] final  166.42 input   59.86 | X-H torsion
[ 10167 10162 10161 10158 ] final  129.41 input  -65.29 | X-H torsion
[ 10718 10713 10712 10709 ] final  -64.55 input   66.30 | X-H torsion
[ 10763 10752 10751 10750 ] final -127.90 input  -60.55 | X-H torsion
[ 11005 11000 10999 10996 ] final -149.22 input  -57.11 | X-H torsion

> <Gold.Protein.ActiveResidues>
 VAL166  LYS551  ARG553  GLY616  TRP617  ASP618  TYR619  PRO620  LYS621  CYS622 
 ASP623  PHE694  ASN695  SER759  ASP760  ASP761  ALA762  ILE779  LEU786  VAL792 
 PHE793  MET794  SER795  GLU796  ALA797  LYS798  CYS799  TRP800  GLU811  SER814 

> <Gold.Protein.RotatedAtoms>
  151.1010  133.5243  159.2609 H   0  0  0  0  0  0  0  0  0  0  0  0  # atno 6907 bound_to 6896
  151.2074  135.0467  159.8907 H   0  0  0  0  0  0  0  0  0  0  0  0  # atno 6908 bound_to 6896
  152.5443  134.0830  159.8297 H   0  0  0  0  0  0  0  0  0  0  0  0  # atno 6909 bound_to 6896
  145.7392  139.2714  143.1496 H   0  0  0  0  0  0  0  0  0  0  0  0  # atno 7974 bound_to 7965
  156.1720  140.1644  156.8430 H   0  0  0  0  0  0  0  0  0  0  0  0  # atno 8008 bound_to 7997
  154.5267  140.0766  156.8305 H   0  0  0  0  0  0  0  0  0  0  0  0  # atno 8009 bound_to 7997
  155.3492  140.3389  155.4241 H   0  0  0  0  0  0  0  0  0  0  0  0  # atno 8010 bound_to 7997
  139.5479  144.6789  151.4415 H   0  0  0  0  0  0  0  0  0  0  0  0  # atno 10167 bound_to 10162
  156.0722  130.4235  150.1437 H   0  0  0  0  0  0  0  0  0  0  0  0  # atno 10718 bound_to 10713
  154.8754  135.3946  154.3668 H   0  0  0  0  0  0  0  0  0  0  0  0  # atno 10763 bound_to 10752
  153.4433  135.7027  153.6160 H   0  0  0  0  0  0  0  0  0  0  0  0  # atno 10764 bound_to 10752
  153.4731  135.3786  155.2371 H   0  0  0  0  0  0  0  0  0  0  0  0  # atno 10765 bound_to 10752
  140.7530  134.3385  157.5121 H   0  0  0  0  0  0  0  0  0  0  0  0  # atno 11005 bound_to 11000
  146.0464  140.8113  142.9803 LP  0  0  0  0  0  0  0  0  0  0  0  0  # atno 17320 bound_to 7965
  144.6874  140.2987  143.7266 LP  0  0  0  0  0  0  0  0  0  0  0  0  # atno 17321 bound_to 7965
  140.6733  143.8245  150.7027 LP  0  0  0  0  0  0  0  0  0  0  0  0  # atno 17342 bound_to 10162
  140.1676  143.4222  152.2023 LP  0  0  0  0  0  0  0  0  0  0  0  0  # atno 17343 bound_to 10162
  156.9485  130.9767  151.3503 LP  0  0  0  0  0  0  0  0  0  0  0  0  # atno 17370 bound_to 10713
  157.5799  130.8369  149.8508 LP  0  0  0  0  0  0  0  0  0  0  0  0  # atno 17371 bound_to 10713
  139.8784  134.9154  156.3130 LP  0  0  0  0  0  0  0  0  0  0  0  0  # atno 17394 bound_to 11000
  140.9733  133.7313  156.0566 LP  0  0  0  0  0  0  0  0  0  0  0  0  # atno 17395 bound_to 11000

$$$$
