AV-unprocessed.smi:3349|AV-procd|sdf|12934|dock8
  -GOLD-   2272019363D 1   1.00000     0.00000
 Structure written by MMmdl.
 40 41  0  0  0  0  0  0  0  0  1 V2000
  153.7557  141.5998  161.7150 C   0  0  0  0  0  0  0  0  0  0  0  0
  153.5565  141.9090  160.2087 C   0  0  1  0  0  0  0  0  0  0  0  0
  152.6278  140.8276  159.5898 C   0  0  0  0  0  0  0  0  0  0  0  0
  152.9983  139.4744  159.9880 N   0  0  0  0  0  0  0  0  0  0  0  0
  154.1292  138.8546  159.6199 C   0  0  0  0  0  0  0  0  0  0  0  0
  154.9879  139.3865  158.9151 O   0  0  0  0  0  0  0  0  0  0  0  0
  154.3130  137.4172  160.1304 C   0  0  1  0  0  0  0  0  0  0  0  0
  153.3124  137.0496  161.2415 C   0  0  0  0  0  0  0  0  0  0  0  0
  154.2350  136.4708  159.0265 N   0  0  0  0  0  0  0  0  0  0  0  0
  154.0602  136.6641  157.7159 C   0  0  0  0  0  0  0  0  0  0  0  0
  154.0264  135.5440  157.0077 N   0  0  0  0  0  0  0  0  0  0  0  0
  154.1922  134.6339  158.0130 C   0  0  0  0  0  0  0  0  0  0  0  0
  154.3182  135.1359  159.2415 N   0  0  0  0  0  0  0  0  0  0  0  0
  153.0815  143.2918  159.9675 N   0  0  0  0  0  0  0  0  0  0  0  0
  152.0104  143.6953  160.8862 C   0  0  0  0  0  0  0  0  0  0  0  0
  151.4995  145.1220  160.6193 C   0  0  0  0  0  0  0  0  0  0  0  0
  151.0570  145.2298  159.2734 O   0  0  0  0  0  0  0  0  0  0  0  0
  152.0898  144.9234  158.3470 C   0  0  0  0  0  0  0  0  0  0  0  0
  152.6001  143.4935  158.5958 C   0  0  0  0  0  0  0  0  0  0  0  0
  154.0603  140.5693  161.8950 H   0  0  0  0  0  0  0  0  0  0  0  0
  152.8368  141.7716  162.2766 H   0  0  0  0  0  0  0  0  0  0  0  0
  154.5424  142.2059  162.1616 H   0  0  0  0  0  0  0  0  0  0  0  0
  154.5318  141.8011  159.7310 H   0  0  0  0  0  0  0  0  0  0  0  0
  151.5917  141.0224  159.8723 H   0  0  0  0  0  0  0  0  0  0  0  0
  152.6729  140.8393  158.5016 H   0  0  0  0  0  0  0  0  0  0  0  0
  152.3460  138.9726  160.5732 H   0  0  0  0  0  0  0  0  0  0  0  0
  155.3145  137.3522  160.5608 H   0  0  0  0  0  0  0  0  0  0  0  0
  153.3624  137.7578  162.0693 H   0  0  0  0  0  0  0  0  0  0  0  0
  153.5280  136.0601  161.6451 H   0  0  0  0  0  0  0  0  0  0  0  0
  152.2855  137.0382  160.8742 H   0  0  0  0  0  0  0  0  0  0  0  0
  153.9548  137.6436  157.2719 H   0  0  0  0  0  0  0  0  0  0  0  0
  154.2187  133.5689  157.8347 H   0  0  0  0  0  0  0  0  0  0  0  0
  151.1782  142.9933  160.8158 H   0  0  0  0  0  0  0  0  0  0  0  0
  152.3576  143.6742  161.9172 H   0  0  0  0  0  0  0  0  0  0  0  0
  150.6696  145.3576  161.2858 H   0  0  0  0  0  0  0  0  0  0  0  0
  152.2837  145.8556  160.8132 H   0  0  0  0  0  0  0  0  0  0  0  0
  151.6974  145.0143  157.3340 H   0  0  0  0  0  0  0  0  0  0  0  0
  152.9020  145.6460  158.4420 H   0  0  0  0  0  0  0  0  0  0  0  0
  153.3973  143.3120  157.8773 H   0  0  0  0  0  0  0  0  0  0  0  0
  151.8039  142.7812  158.3743 H   0  0  0  0  0  0  0  0  0  0  0  0
  1  2  1  0  0  0  0
  1 20  1  0  0  0  0
  1 21  1  0  0  0  0
  1 22  1  0  0  0  0
  2  3  1  0  0  0  0
  2 14  1  0  0  0  0
  2 23  1  0  0  0  0
  3  4  1  0  0  0  0
  3 24  1  0  0  0  0
  3 25  1  0  0  0  0
  4  5  1  0  0  0  0
  4 26  1  0  0  0  0
  5  6  2  0  0  0  0
  5  7  1  0  0  0  0
  7  8  1  0  0  0  0
  7  9  1  0  0  0  0
  7 27  1  0  0  0  0
  8 28  1  0  0  0  0
  8 29  1  0  0  0  0
  8 30  1  0  0  0  0
  9 13  1  0  0  0  0
  9 10  1  0  0  0  0
 10 11  2  0  0  0  0
 10 31  1  0  0  0  0
 11 12  1  0  0  0  0
 12 13  2  0  0  0  0
 12 32  1  0  0  0  0
 14 19  1  0  0  0  0
 14 15  1  0  0  0  0
 15 16  1  0  0  0  0
 15 33  1  0  0  0  0
 15 34  1  0  0  0  0
 16 17  1  0  0  0  0
 16 35  1  0  0  0  0
 16 36  1  0  0  0  0
 17 18  1  0  0  0  0
 18 19  1  0  0  0  0
 18 37  1  0  0  0  0
 18 38  1  0  0  0  0
 19 39  1  0  0  0  0
 19 40  1  0  0  0  0
M  END
> <s_m_source_file>
AV-unprocessed.smi

> <i_m_source_file_index>
3349

> <i_lp_mmshare_version>
43012

> <i_f3d_flags>
0

> <s_epik_input>
W0NIMl0xW0NIMl1PW0NIMl1bQ0gyXU4xW0NASF0oW0NIM10pW0NIMl1bTkhdQyg9TylbQ0BIXShbQ0gzXSluMltjSF1uW2NIXW4y

> <s_epik_cmdline>
J2VwaWtfcHl0aG9uJywgJy1waCcsICc3LjAnLCAnLXRuJywgJzgnLCAnLW1hJywgJzIwMCcsICctbWV0YWxfYmluZGluZycsICctaW1hZScsICc8aW5maWxlLm1hZT4nLCAnLW9tYWUnLCAnPG91dGZpbGUubWFlPic=

> <r_lp_tautomer_probability>
1

> <r_epik_Ionization_Penalty>
0.211373

> <r_epik_Ionization_Penalty_Charging>
0

> <r_epik_Ionization_Penalty_Neutral>
0.211373

> <r_epik_State_Penalty>
0.201459

> <r_epik_Charging_Adjusted_Penalty>
0.201459

> <i_epik_Tot_Q>
0

> <i_epik_Tot_abs_Q>
0

> <r_epik_Metal_State_Penalty>
0.201458

> <b_epik_Metal_Only>
0

> <s_lp_Force_Field>
OPLS_2005

> <r_lp_Energy>
35.0343

> <b_lp_Chiralities_Consistent>
1

> <s_lp_Variant>
AV-unprocessed.smi:3349-4

> <Gold.Version>
5.8.1

> <Gold.Id.Protein>
6NUR|6NUR_protein|mol2

> <Gold.PLP.Fitness>
42.3276

> <Gold.PLP.PLP>
-34.6290

> <Gold.PLP.part.hbond>
-3.2354

> <Gold.PLP.part.metal>
0.0000

> <Gold.PLP.part.buried>
-5.7306

> <Gold.PLP.part.nonpolar>
-28.1030

> <Gold.PLP.part.repulsive>
0.2372

> <Gold.PLP.ligand.clash>
0.0862

> <Gold.PLP.ligand.torsion>
0.6423

> <Gold.PLP.Chemscore.Hbond>
2.9913

> <Gold.PLP.Chemscore.CHOScore>
0.0000

> <Gold.PLP.Chemscore.Metal>
0.0000

> <Gold.Chemscore.Hbonds>
donor molecule, donor type, donor heavy atom, donor atom, acceptor molecule, acceptor atom, score
      P1  H  6896  6908       L1    13  0.85
      P1  H  7997  8009       L1     6  1.00
      P1  H 10752 10764       L1    11  1.00

> <Gold.PLP.Chemscore.Internal.Correction>
0.0956

> <Gold.Rescore>
     Score         DG    S(hbond)    S(metal)    S(lipo)     H(rot)  DE(clash)    DE(int)     intcor
     17.46     -17.93       2.39        0.00      94.09       2.56       0.04       0.43       ----

> <Gold.Chemscore.Fitness>
17.4583

> <Gold.Chemscore.DG>
-17.9278

> <Gold.Chemscore.ZeroCoef>
-5.4800

> <Gold.Chemscore.Hbond>
2.3909

> <Gold.Chemscore.Metal>
0.0000

> <Gold.Chemscore.Lipo>
94.0851

> <Gold.Chemscore.Internal_Hbond>
0.0000

> <Gold.Chemscore.DEClash>
0.0361

> <Gold.Chemscore.DEInternal>
0.4334

> <Gold.Chemscore.Rot>
2.5570

> <Gold.Chemscore.Internal.Correction>
   9.000000E+99

> <Gold.Chemscore.Hbonds>
donor molecule, donor type, donor heavy atom, donor atom, acceptor molecule, acceptor atom, score
      P1  H  6896  6908       L1    13  0.09
      P1  H  7997  8009       L1     6  1.00
      P1  H 10752 10764       L1    11  0.99

> <Gold.Chemscore.Hbond.Weighted>
-7.9857

> <Gold.Chemscore.Metal.Weighted>
-0.0000

> <Gold.Chemscore.Lipo.Weighted>
-11.0080

> <Gold.Chemscore.Internal_Hbond.Weighted>
0.0000

> <Gold.Chemscore.DEClash.Weighted>
0.0361

> <Gold.Chemscore.DEInternal.Weighted>
0.4334

> <Gold.Chemscore.Rot.Weighted>
6.5459

> <Gold.Chemscore.Internal.Correction.Weighted>
   9.000000E+99

> <Gold.Protein.RotatedTorsions>
[ 6907 6896 6895 6894 ] final  -49.91 input  -60.11 | X-H torsion
[ 7974 7965 7964 7962 ] final  108.98 input  175.53 | X-H torsion
[ 8008 7997 7996 7995 ] final  110.48 input   59.86 | X-H torsion
[ 10167 10162 10161 10158 ] final   22.49 input  -65.29 | X-H torsion
[ 10718 10713 10712 10709 ] final -164.67 input   66.30 | X-H torsion
[ 10763 10752 10751 10750 ] final   24.77 input  -60.55 | X-H torsion
[ 11005 11000 10999 10996 ] final   10.74 input  -57.11 | X-H torsion

> <Gold.Protein.ActiveResidues>
 VAL166  LYS551  ARG553  GLY616  TRP617  ASP618  TYR619  PRO620  LYS621  CYS622 
 ASP623  PHE694  ASN695  SER759  ASP760  ASP761  ALA762  ILE779  LEU786  VAL792 
 PHE793  MET794  SER795  GLU796  ALA797  LYS798  CYS799  TRP800  GLU811  SER814 

> <Gold.Protein.RotatedAtoms>
  150.8758  134.8141  159.7188 H   0  0  0  0  0  0  0  0  0  0  0  0  # atno 6907 bound_to 6896
  152.4746  134.4873  159.9694 H   0  0  0  0  0  0  0  0  0  0  0  0  # atno 6908 bound_to 6896
  151.4955  133.3477  159.2896 H   0  0  0  0  0  0  0  0  0  0  0  0  # atno 6909 bound_to 6896
  145.2737  139.2657  143.3952 H   0  0  0  0  0  0  0  0  0  0  0  0  # atno 7974 bound_to 7965
  156.2056  140.3038  155.9620 H   0  0  0  0  0  0  0  0  0  0  0  0  # atno 8008 bound_to 7997
  155.2849  140.0439  157.3035 H   0  0  0  0  0  0  0  0  0  0  0  0  # atno 8009 bound_to 7997
  154.5629  140.2325  155.8317 H   0  0  0  0  0  0  0  0  0  0  0  0  # atno 8010 bound_to 7997
  140.5344  143.9785  150.6483 H   0  0  0  0  0  0  0  0  0  0  0  0  # atno 10167 bound_to 10162
  156.6424  130.8974  151.2998 H   0  0  0  0  0  0  0  0  0  0  0  0  # atno 10718 bound_to 10713
  153.0739  135.6598  154.0187 H   0  0  0  0  0  0  0  0  0  0  0  0  # atno 10763 bound_to 10752
  153.9825  135.2954  155.3420 H   0  0  0  0  0  0  0  0  0  0  0  0  # atno 10764 bound_to 10752
  154.7122  135.5200  153.8754 H   0  0  0  0  0  0  0  0  0  0  0  0  # atno 10765 bound_to 10752
  140.5111  134.0651  155.7818 H   0  0  0  0  0  0  0  0  0  0  0  0  # atno 11005 bound_to 11000
  146.3238  140.3186  142.8631 LP  0  0  0  0  0  0  0  0  0  0  0  0  # atno 17320 bound_to 7965
  144.9313  140.7978  143.5687 LP  0  0  0  0  0  0  0  0  0  0  0  0  # atno 17321 bound_to 7965
  140.3169  143.3162  152.0823 LP  0  0  0  0  0  0  0  0  0  0  0  0  # atno 17342 bound_to 10162
  139.4966  144.6599  151.6487 LP  0  0  0  0  0  0  0  0  0  0  0  0  # atno 17343 bound_to 10162
  157.7167  130.9506  150.1281 LP  0  0  0  0  0  0  0  0  0  0  0  0  # atno 17370 bound_to 10713
  156.2148  130.3669  149.8626 LP  0  0  0  0  0  0  0  0  0  0  0  0  # atno 17371 bound_to 10713
  141.1385  133.9180  157.2380 LP  0  0  0  0  0  0  0  0  0  0  0  0  # atno 17394 bound_to 11000
  139.9658  135.0142  156.9383 LP  0  0  0  0  0  0  0  0  0  0  0  0  # atno 17395 bound_to 11000

$$$$
