AV-unprocessed.smi:261|AV-procd|sdf|1993|dock2
  -GOLD-   2262021183D 1   1.00000     0.00000
 Structure written by MMmdl.
 51 54  0  0  0  0  0  0  0  0  1 V2000
  152.7137  139.1939  159.2208 C   0  0  0  0  0  0  0  0  0  0  0  0
  152.8932  139.4418  157.8360 O   0  0  0  0  0  0  0  0  0  0  0  0
  151.7057  139.8531  157.1746 C   0  0  1  0  0  0  0  0  0  0  0  0
  151.9218  140.2120  155.7021 C   0  0  0  0  0  0  0  0  0  0  0  0
  150.5382  140.0121  155.0580 C   0  0  2  0  0  0  0  0  0  0  0  0
  149.7190  141.3204  155.0640 C   0  0  0  0  0  0  0  0  0  0  0  0
  149.6268  142.0198  156.2003 N   0  0  0  0  0  0  0  0  0  0  0  0
  149.1589  141.6924  154.0353 O   0  0  0  0  0  0  0  0  0  0  0  0
  149.9470  138.9389  155.8623 N   0  0  0  0  0  0  0  0  0  0  0  0
  148.9964  138.0672  155.4217 C   0  0  0  0  0  0  0  0  0  0  0  0
  149.0161  136.8034  155.9237 N   0  0  0  0  0  0  0  0  0  0  0  0
  148.1141  135.8977  155.5381 C   0  0  0  0  0  0  0  0  0  0  0  0
  147.1110  136.0385  154.6723 N   0  0  0  0  0  0  0  0  0  0  0  0
  147.0750  137.3025  154.1639 C   0  0  0  0  0  0  0  0  0  0  0  0
  147.9664  138.3706  154.4781 C   0  0  0  0  0  0  0  0  0  0  0  0
  147.5955  139.5019  153.7574 N   0  0  0  0  0  0  0  0  0  0  0  0
  146.5588  139.1259  153.0610 C   0  0  0  0  0  0  0  0  0  0  0  0
  146.1796  137.8175  153.2445 N   0  0  0  0  0  0  0  0  0  0  0  0
  145.0718  137.1304  152.6046 C   0  0  0  0  0  0  0  0  0  0  0  0
  145.5453  136.0074  151.6605 C   0  0  2  0  0  0  0  0  0  0  0  0
  145.1506  136.3189  150.3375 O   0  0  0  0  0  0  0  0  0  0  0  0
  144.9655  134.6332  152.0454 C   0  0  1  0  0  0  0  0  0  0  0  0
  143.4381  134.6021  152.1536 C   0  0  0  0  0  0  0  0  0  0  0  0
  143.1312  133.1540  151.8512 C   0  0  0  0  0  0  0  0  0  0  0  0
  144.1444  132.8555  150.7527 C   0  0  0  0  0  0  0  0  0  0  0  0
  145.2806  133.6630  151.0467 O   0  0  0  0  0  0  0  0  0  0  0  0
  150.7100  138.6968  157.0830 C   0  0  0  0  0  0  0  0  0  0  0  0
  151.2362  140.6875  157.6993 H   0  0  0  0  0  0  0  0  0  0  0  0
  150.6839  139.6941  154.0257 H   0  0  0  0  0  0  0  0  0  0  0  0
  153.6554  138.8576  159.6546 H   0  0  0  0  0  0  0  0  0  0  0  0
  151.9700  138.4140  159.3886 H   0  0  0  0  0  0  0  0  0  0  0  0
  152.4047  140.0937  159.7535 H   0  0  0  0  0  0  0  0  0  0  0  0
  152.3276  141.2157  155.5684 H   0  0  0  0  0  0  0  0  0  0  0  0
  152.6320  139.5145  155.2552 H   0  0  0  0  0  0  0  0  0  0  0  0
  149.0952  142.8780  156.2200 H   0  0  0  0  0  0  0  0  0  0  0  0
  150.0901  141.6868  157.0333 H   0  0  0  0  0  0  0  0  0  0  0  0
  148.2104  134.9205  155.9880 H   0  0  0  0  0  0  0  0  0  0  0  0
  146.0424  139.7957  152.3890 H   0  0  0  0  0  0  0  0  0  0  0  0
  144.4320  136.7233  153.3885 H   0  0  0  0  0  0  0  0  0  0  0  0
  144.4711  137.8615  152.0614 H   0  0  0  0  0  0  0  0  0  0  0  0
  146.6347  135.9542  151.6827 H   0  0  0  0  0  0  0  0  0  0  0  0
  144.7569  137.1777  150.3365 H   0  0  0  0  0  0  0  0  0  0  0  0
  145.3987  134.2879  152.9859 H   0  0  0  0  0  0  0  0  0  0  0  0
  143.0744  134.9206  153.1310 H   0  0  0  0  0  0  0  0  0  0  0  0
  142.9839  135.2421  151.3957 H   0  0  0  0  0  0  0  0  0  0  0  0
  143.3297  132.5356  152.7280 H   0  0  0  0  0  0  0  0  0  0  0  0
  142.1002  132.9878  151.5380 H   0  0  0  0  0  0  0  0  0  0  0  0
  144.4068  131.7986  150.7017 H   0  0  0  0  0  0  0  0  0  0  0  0
  143.7504  133.1551  149.7806 H   0  0  0  0  0  0  0  0  0  0  0  0
  151.2355  137.7447  156.9911 H   0  0  0  0  0  0  0  0  0  0  0  0
  150.0699  138.6528  157.9654 H   0  0  0  0  0  0  0  0  0  0  0  0
  1  2  1  0  0  0  0
  1 30  1  0  0  0  0
  1 31  1  0  0  0  0
  1 32  1  0  0  0  0
  2  3  1  0  0  0  0
  3 28  1  0  0  0  0
  3 27  1  0  0  0  0
  3  4  1  0  0  0  0
  4  5  1  0  0  0  0
  4 33  1  0  0  0  0
  4 34  1  0  0  0  0
  5 29  1  0  0  0  0
  5  6  1  0  0  0  0
  5  9  1  0  0  0  0
  6  7  1  0  0  0  0
  6  8  2  0  0  0  0
  7 35  1  0  0  0  0
  7 36  1  0  0  0  0
  9 10  1  0  0  0  0
  9 27  1  0  0  0  0
 10 15  1  0  0  0  0
 10 11  2  0  0  0  0
 11 12  1  0  0  0  0
 12 13  2  0  0  0  0
 12 37  1  0  0  0  0
 13 14  1  0  0  0  0
 14 18  1  0  0  0  0
 14 15  2  0  0  0  0
 15 16  1  0  0  0  0
 16 17  2  0  0  0  0
 17 18  1  0  0  0  0
 17 38  1  0  0  0  0
 18 19  1  0  0  0  0
 19 20  1  0  0  0  0
 19 39  1  0  0  0  0
 19 40  1  0  0  0  0
 20 21  1  0  0  0  0
 20 22  1  0  0  0  0
 20 41  1  0  0  0  0
 21 42  1  0  0  0  0
 22 26  1  0  0  0  0
 22 23  1  0  0  0  0
 22 43  1  0  0  0  0
 23 24  1  0  0  0  0
 23 44  1  0  0  0  0
 23 45  1  0  0  0  0
 24 25  1  0  0  0  0
 24 46  1  0  0  0  0
 24 47  1  0  0  0  0
 25 26  1  0  0  0  0
 25 48  1  0  0  0  0
 25 49  1  0  0  0  0
 27 50  1  0  0  0  0
 27 51  1  0  0  0  0
M  END
> <s_m_source_file>
AV-unprocessed.smi

> <i_m_source_file_index>
261

> <i_lp_mmshare_version>
43012

> <i_f3d_flags>
0

> <s_epik_input>
W0NIM11PW0NASF0xW0NIMl1bQ0BASF0oQyg9TylbTkgyXSlOKFtDSDJdMSljKG5bY0hdbjIpYyhjMjMpbltjSF1uM1tDSDJdW0NASF0oW09IXSlbQ0BASF00W0NIMl1bQ0gyXVtDSDJdTzQ=

> <s_epik_cmdline>
J2VwaWtfcHl0aG9uJywgJy1waCcsICc3LjAnLCAnLXRuJywgJzgnLCAnLW1hJywgJzIwMCcsICctbWV0YWxfYmluZGluZycsICctaW1hZScsICc8aW5maWxlLm1hZT4nLCAnLW9tYWUnLCAnPG91dGZpbGUubWFlPic=

> <r_lp_tautomer_probability>
1

> <r_epik_Ionization_Penalty>
0.000713824

> <r_epik_Ionization_Penalty_Charging>
0

> <r_epik_Ionization_Penalty_Neutral>
0.000713824

> <r_epik_State_Penalty>
0.000402132

> <r_epik_Charging_Adjusted_Penalty>
0.000402132

> <i_epik_Tot_Q>
0

> <i_epik_Tot_abs_Q>
0

> <r_epik_Metal_State_Penalty>
-0

> <b_epik_Metal_Only>
0

> <s_lp_Force_Field>
OPLS_2005

> <r_lp_Energy>
43.0256

> <b_lp_Chiralities_Consistent>
1

> <s_lp_Variant>
AV-unprocessed.smi:261-11

> <Gold.Version>
5.8.1

> <Gold.Id.Protein>
6NUR|6NUR_protein|mol2

> <Gold.PLP.Fitness>
45.9083

> <Gold.PLP.PLP>
-34.9735

> <Gold.PLP.part.hbond>
-5.7937

> <Gold.PLP.part.metal>
0.0000

> <Gold.PLP.part.buried>
-1.7993

> <Gold.PLP.part.nonpolar>
-27.8783

> <Gold.PLP.part.repulsive>
0.7580

> <Gold.PLP.ligand.clash>
0.0000

> <Gold.PLP.ligand.torsion>
1.3382

> <Gold.PLP.Chemscore.Hbond>
3.6080

> <Gold.PLP.Chemscore.CHOScore>
0.8909

> <Gold.PLP.Chemscore.Metal>
0.0000

> <Gold.Chemscore.Hbonds>
donor molecule, donor type, donor heavy atom, donor atom, acceptor molecule, acceptor atom, score
      L1  H     7    35       P1  8028  0.99
      L1  H    21    42       P1 10171  1.00
      P1  H  7997  8009       L1     2  1.00
      P1  H  8011  8017       L1     8  0.58
      L1  C    17    38       P1 10175  0.97

> <Gold.PLP.Chemscore.Internal.Correction>
0.1146

> <Gold.Rescore>
     Score         DG    S(hbond)    S(metal)    S(lipo)     H(rot)  DE(clash)    DE(int)     intcor
     12.75     -16.31       3.36        0.00      66.22       3.18       0.11       3.45       ----

> <Gold.Chemscore.Fitness>
12.7485

> <Gold.Chemscore.DG>
-16.3095

> <Gold.Chemscore.ZeroCoef>
-5.4800

> <Gold.Chemscore.Hbond>
3.3624

> <Gold.Chemscore.Metal>
0.0000

> <Gold.Chemscore.Lipo>
66.2201

> <Gold.Chemscore.Internal_Hbond>
0.0000

> <Gold.Chemscore.DEClash>
0.1067

> <Gold.Chemscore.DEInternal>
3.4543

> <Gold.Chemscore.Rot>
3.1831

> <Gold.Chemscore.Internal.Correction>
   9.000000E+99

> <Gold.Chemscore.Hbonds>
donor molecule, donor type, donor heavy atom, donor atom, acceptor molecule, acceptor atom, score
      L1  H     7    35       P1  8028  0.94
      L1  H    21    42       P1 10171  1.00
      P1  H  7997  8009       L1     2  0.91
      P1  H  8011  8017       L1     8  0.57

> <Gold.Chemscore.Hbond.Weighted>
-11.2304

> <Gold.Chemscore.Metal.Weighted>
-0.0000

> <Gold.Chemscore.Lipo.Weighted>
-7.7477

> <Gold.Chemscore.Internal_Hbond.Weighted>
0.0000

> <Gold.Chemscore.DEClash.Weighted>
0.1067

> <Gold.Chemscore.DEInternal.Weighted>
3.4543

> <Gold.Chemscore.Rot.Weighted>
8.1486

> <Gold.Chemscore.Internal.Correction.Weighted>
   9.000000E+99

> <Gold.Protein.RotatedTorsions>
[ 6907 6896 6895 6894 ] final   84.13 input  -60.11 | X-H torsion
[ 7974 7965 7964 7962 ] final  159.34 input  175.53 | X-H torsion
[ 8008 7997 7996 7995 ] final  151.23 input   59.86 | X-H torsion
[ 10167 10162 10161 10158 ] final   16.49 input  -65.29 | X-H torsion
[ 10718 10713 10712 10709 ] final -112.14 input   66.30 | X-H torsion
[ 10763 10752 10751 10750 ] final    8.32 input  -60.55 | X-H torsion
[ 11005 11000 10999 10996 ] final   -7.49 input  -57.11 | X-H torsion

> <Gold.Protein.ActiveResidues>
 VAL166  LYS551  ARG553  GLY616  TRP617  ASP618  TYR619  PRO620  LYS621  CYS622 
 ASP623  PHE694  ASN695  SER759  ASP760  ASP761  ALA762  ILE779  LEU786  VAL792 
 PHE793  MET794  SER795  GLU796  ALA797  LYS798  CYS799  TRP800  GLU811  SER814 

> <Gold.Protein.RotatedAtoms>
  152.5344  134.2789  159.8999 H   0  0  0  0  0  0  0  0  0  0  0  0  # atno 6907 bound_to 6896
  151.2744  133.4233  159.2631 H   0  0  0  0  0  0  0  0  0  0  0  0  # atno 6908 bound_to 6896
  151.0339  134.9574  159.8182 H   0  0  0  0  0  0  0  0  0  0  0  0  # atno 6909 bound_to 6896
  144.7796  139.7603  143.6265 H   0  0  0  0  0  0  0  0  0  0  0  0  # atno 7974 bound_to 7965
  156.2682  140.2053  156.6143 H   0  0  0  0  0  0  0  0  0  0  0  0  # atno 8008 bound_to 7997
  154.6806  140.0540  157.0286 H   0  0  0  0  0  0  0  0  0  0  0  0  # atno 8009 bound_to 7997
  155.1005  140.3205  155.4551 H   0  0  0  0  0  0  0  0  0  0  0  0  # atno 8010 bound_to 7997
  140.5794  143.9010  150.6777 H   0  0  0  0  0  0  0  0  0  0  0  0  # atno 10167 bound_to 10162
  156.0688  130.5904  150.8468 H   0  0  0  0  0  0  0  0  0  0  0  0  # atno 10718 bound_to 10713
  153.2263  135.6887  153.7941 H   0  0  0  0  0  0  0  0  0  0  0  0  # atno 10763 bound_to 10752
  153.7121  135.3280  155.3249 H   0  0  0  0  0  0  0  0  0  0  0  0  # atno 10764 bound_to 10752
  154.8293  135.4593  154.1131 H   0  0  0  0  0  0  0  0  0  0  0  0  # atno 10765 bound_to 10752
  140.7133  133.8890  155.8767 H   0  0  0  0  0  0  0  0  0  0  0  0  # atno 11005 bound_to 11000
  146.1996  139.5283  142.9752 LP  0  0  0  0  0  0  0  0  0  0  0  0  # atno 17320 bound_to 7965
  145.6088  141.0343  143.1978 LP  0  0  0  0  0  0  0  0  0  0  0  0  # atno 17321 bound_to 7965
  140.2506  143.3596  152.1409 LP  0  0  0  0  0  0  0  0  0  0  0  0  # atno 17342 bound_to 10162
  139.5161  144.6972  151.5596 LP  0  0  0  0  0  0  0  0  0  0  0  0  # atno 17343 bound_to 10162
  157.5746  131.0946  150.9365 LP  0  0  0  0  0  0  0  0  0  0  0  0  # atno 17370 bound_to 10713
  156.9574  130.5442  149.5284 LP  0  0  0  0  0  0  0  0  0  0  0  0  # atno 17371 bound_to 10713
  141.0065  134.1078  157.4265 LP  0  0  0  0  0  0  0  0  0  0  0  0  # atno 17394 bound_to 11000
  139.8866  135.0083  156.6508 LP  0  0  0  0  0  0  0  0  0  0  0  0  # atno 17395 bound_to 11000

$$$$
