AV-unprocessed.smi:3263|AV-procd|sdf|12489|dock9
  -GOLD-   2272018393D 1   1.00000     0.00000
 Structure written by MMmdl.
 41 43  0  0  0  0  0  0  0  0  1 V2000
  153.0676  139.9524  157.9260 O   0  0  0  0  0  0  0  0  0  0  0  0
  151.8605  140.1318  157.7637 C   0  0  0  0  0  0  0  0  0  0  0  0
  151.1082  141.1516  158.6250 C   0  0  0  0  0  0  0  0  0  0  0  0
  151.3669  142.6110  158.1873 C   0  0  1  0  0  0  0  0  0  0  0  0
  150.2979  143.6329  158.6359 C   0  0  0  0  0  0  0  0  0  0  0  0
  151.1416  144.7550  159.2693 C   0  0  1  0  0  0  0  0  0  0  0  0
  151.6652  144.2784  160.6364 C   0  0  0  0  0  0  0  0  0  0  0  0
  152.7495  143.2580  160.2451 C   0  0  0  0  0  0  0  0  0  0  0  0
  152.6767  143.2523  158.7039 C   0  0  2  0  0  0  0  0  0  0  0  0
  152.4080  144.7275  158.4200 C   0  0  0  0  0  0  0  0  0  0  0  0
  151.1351  139.4731  156.8470 N   0  0  0  0  0  0  0  0  0  0  0  0
  151.6653  138.4930  155.9063 C   0  0  0  0  0  0  0  0  0  0  0  0
  150.5376  137.7852  155.1364 C   0  0  0  0  0  0  0  0  0  0  0  0
  149.5138  138.7615  154.5883 C   0  0  0  0  0  0  0  0  0  0  0  0
  148.4151  138.3037  153.8297 C   0  0  0  0  0  0  0  0  0  0  0  0
  147.4955  139.2521  153.3409 C   0  0  0  0  0  0  0  0  0  0  0  0
  147.7096  140.6142  153.6267 C   0  0  0  0  0  0  0  0  0  0  0  0
  148.8387  140.9691  154.3915 C   0  0  0  0  0  0  0  0  0  0  0  0
  149.7259  140.0677  154.8655 N   0  0  0  0  0  0  0  0  0  0  0  0
  150.0425  140.9245  158.5927 H   0  0  0  0  0  0  0  0  0  0  0  0
  151.4240  141.0177  159.6600 H   0  0  0  0  0  0  0  0  0  0  0  0
  151.4166  142.6317  157.0967 H   0  0  0  0  0  0  0  0  0  0  0  0
  149.7372  144.0007  157.7756 H   0  0  0  0  0  0  0  0  0  0  0  0
  149.5799  143.2182  159.3448 H   0  0  0  0  0  0  0  0  0  0  0  0
  150.6310  145.7176  159.3082 H   0  0  0  0  0  0  0  0  0  0  0  0
  152.1021  145.1055  161.1972 H   0  0  0  0  0  0  0  0  0  0  0  0
  150.8791  143.8360  161.2495 H   0  0  0  0  0  0  0  0  0  0  0  0
  153.7288  143.6077  160.5750 H   0  0  0  0  0  0  0  0  0  0  0  0
  152.5923  142.2784  160.6940 H   0  0  0  0  0  0  0  0  0  0  0  0
  153.5729  142.8544  158.2270 H   0  0  0  0  0  0  0  0  0  0  0  0
  152.2267  144.9429  157.3656 H   0  0  0  0  0  0  0  0  0  0  0  0
  153.1916  145.3912  158.7898 H   0  0  0  0  0  0  0  0  0  0  0  0
  150.1485  139.6791  156.7844 H   0  0  0  0  0  0  0  0  0  0  0  0
  152.3607  138.9733  155.2159 H   0  0  0  0  0  0  0  0  0  0  0  0
  152.2437  137.7616  156.4710 H   0  0  0  0  0  0  0  0  0  0  0  0
  150.9573  137.2058  154.3128 H   0  0  0  0  0  0  0  0  0  0  0  0
  150.0279  137.0699  155.7835 H   0  0  0  0  0  0  0  0  0  0  0  0
  148.2786  137.2520  153.6255 H   0  0  0  0  0  0  0  0  0  0  0  0
  146.6420  138.9406  152.7569 H   0  0  0  0  0  0  0  0  0  0  0  0
  147.0259  141.3691  153.2681 H   0  0  0  0  0  0  0  0  0  0  0  0
  149.0346  142.0043  154.6282 H   0  0  0  0  0  0  0  0  0  0  0  0
  1  2  2  0  0  0  0
  2  3  1  0  0  0  0
  2 11  1  0  0  0  0
  3  4  1  0  0  0  0
  3 20  1  0  0  0  0
  3 21  1  0  0  0  0
  4  9  1  0  0  0  0
  4  5  1  0  0  0  0
  4 22  1  0  0  0  0
  5  6  1  0  0  0  0
  5 23  1  0  0  0  0
  5 24  1  0  0  0  0
  6 10  1  0  0  0  0
  6  7  1  0  0  0  0
  6 25  1  0  0  0  0
  7  8  1  0  0  0  0
  7 26  1  0  0  0  0
  7 27  1  0  0  0  0
  8  9  1  0  0  0  0
  8 28  1  0  0  0  0
  8 29  1  0  0  0  0
  9 10  1  0  0  0  0
  9 30  1  0  0  0  0
 10 31  1  0  0  0  0
 10 32  1  0  0  0  0
 11 12  1  0  0  0  0
 11 33  1  0  0  0  0
 12 13  1  0  0  0  0
 12 34  1  0  0  0  0
 12 35  1  0  0  0  0
 13 14  1  0  0  0  0
 13 36  1  0  0  0  0
 13 37  1  0  0  0  0
 14 19  1  0  0  0  0
 14 15  2  0  0  0  0
 15 16  1  0  0  0  0
 15 38  1  0  0  0  0
 16 17  2  0  0  0  0
 16 39  1  0  0  0  0
 17 18  1  0  0  0  0
 17 40  1  0  0  0  0
 18 19  2  0  0  0  0
 18 41  1  0  0  0  0
M  END
> <s_m_source_file>
AV-unprocessed.smi

> <i_m_source_file_index>
3263

> <i_lp_mmshare_version>
43012

> <i_f3d_flags>
0

> <s_epik_input>
W0NIMl0xW0NIMl1bQ0BASF0oW0NIMl0yKVtDQEBIXShbQ0gyXVtDQEhdMTIpW0NIMl1DKD1PKVtOSF1bQ0gyXVtDSDJdYzNbY0hdW2NIXVtjSF1bY0hdbjM=

> <s_epik_cmdline>
J2VwaWtfcHl0aG9uJywgJy1waCcsICc3LjAnLCAnLXRuJywgJzgnLCAnLW1hJywgJzIwMCcsICctbWV0YWxfYmluZGluZycsICctaW1hZScsICc8aW5maWxlLm1hZT4nLCAnLW9tYWUnLCAnPG91dGZpbGUubWFlPic=

> <r_epik_Ionization_Penalty>
0.0273541

> <r_epik_Ionization_Penalty_Charging>
0

> <r_epik_Ionization_Penalty_Neutral>
0.0273541

> <r_epik_State_Penalty>
0.0223838

> <r_epik_Charging_Adjusted_Penalty>
0.0223838

> <i_epik_Tot_Q>
0

> <i_epik_Tot_abs_Q>
0

> <r_epik_Metal_State_Penalty>
0.0213927

> <b_epik_Metal_Only>
0

> <s_lp_Force_Field>
OPLS_2005

> <r_lp_Energy>
45.4659

> <b_lp_Chiralities_Consistent>
1

> <s_lp_Variant>
AV-unprocessed.smi:3263-4

> <Gold.Version>
5.8.1

> <Gold.Id.Protein>
6NUR|6NUR_protein|mol2

> <Gold.PLP.Fitness>
50.5646

> <Gold.PLP.PLP>
-45.5337

> <Gold.PLP.part.hbond>
-1.0000

> <Gold.PLP.part.metal>
0.0000

> <Gold.PLP.part.buried>
-3.5209

> <Gold.PLP.part.nonpolar>
-40.3629

> <Gold.PLP.part.repulsive>
0.1774

> <Gold.PLP.ligand.clash>
0.0000

> <Gold.PLP.ligand.torsion>
0.5058

> <Gold.PLP.Chemscore.Hbond>
1.0000

> <Gold.PLP.Chemscore.CHOScore>
1.0000

> <Gold.PLP.Chemscore.Metal>
0.0000

> <Gold.Chemscore.Hbonds>
donor molecule, donor type, donor heavy atom, donor atom, acceptor molecule, acceptor atom, score
      P1  H  7997  8010       L1     1  1.00
      L1  C    18    41       P1  8028  0.09

> <Gold.PLP.Chemscore.Internal.Correction>
0.0426

> <Gold.Rescore>
     Score         DG    S(hbond)    S(metal)    S(lipo)     H(rot)  DE(clash)    DE(int)     intcor
     17.80     -20.46       0.98        0.00     131.80       1.46       0.42       2.24       ----

> <Gold.Chemscore.Fitness>
17.7971

> <Gold.Chemscore.DG>
-20.4592

> <Gold.Chemscore.ZeroCoef>
-5.4800

> <Gold.Chemscore.Hbond>
0.9834

> <Gold.Chemscore.Metal>
0.0000

> <Gold.Chemscore.Lipo>
131.8008

> <Gold.Chemscore.Internal_Hbond>
0.0000

> <Gold.Chemscore.DEClash>
0.4177

> <Gold.Chemscore.DEInternal>
2.2444

> <Gold.Chemscore.Rot>
1.4555

> <Gold.Chemscore.Internal.Correction>
   9.000000E+99

> <Gold.Chemscore.Hbonds>
donor molecule, donor type, donor heavy atom, donor atom, acceptor molecule, acceptor atom, score
      P1  H  7997  8010       L1     1  0.98

> <Gold.Chemscore.Hbond.Weighted>
-3.2845

> <Gold.Chemscore.Metal.Weighted>
-0.0000

> <Gold.Chemscore.Lipo.Weighted>
-15.4207

> <Gold.Chemscore.Internal_Hbond.Weighted>
0.0000

> <Gold.Chemscore.DEClash.Weighted>
0.4177

> <Gold.Chemscore.DEInternal.Weighted>
2.2444

> <Gold.Chemscore.Rot.Weighted>
3.7260

> <Gold.Chemscore.Internal.Correction.Weighted>
   9.000000E+99

> <Gold.Protein.RotatedTorsions>
[ 6907 6896 6895 6894 ] final  -84.57 input  -60.11 | X-H torsion
[ 7974 7965 7964 7962 ] final    0.08 input  175.53 | X-H torsion
[ 8008 7997 7996 7995 ] final   48.36 input   59.86 | X-H torsion
[ 10167 10162 10161 10158 ] final  123.68 input  -65.29 | X-H torsion
[ 10718 10713 10712 10709 ] final    5.13 input   66.30 | X-H torsion
[ 10763 10752 10751 10750 ] final   57.04 input  -60.55 | X-H torsion
[ 11005 11000 10999 10996 ] final   -1.19 input  -57.11 | X-H torsion

> <Gold.Protein.ActiveResidues>
 VAL166  LYS551  ARG553  GLY616  TRP617  ASP618  TYR619  PRO620  LYS621  CYS622 
 ASP623  PHE694  ASN695  SER759  ASP760  ASP761  ALA762  ILE779  LEU786  VAL792 
 PHE793  MET794  SER795  GLU796  ALA797  LYS798  CYS799  TRP800  GLU811  SER814 

> <Gold.Protein.RotatedAtoms>
  150.6875  134.3338  159.4838 H   0  0  0  0  0  0  0  0  0  0  0  0  # atno 6907 bound_to 6896
  152.1200  134.9210  160.0572 H   0  0  0  0  0  0  0  0  0  0  0  0  # atno 6908 bound_to 6896
  152.0420  133.3947  159.4377 H   0  0  0  0  0  0  0  0  0  0  0  0  # atno 6909 bound_to 6896
  146.2431  140.1192  142.8341 H   0  0  0  0  0  0  0  0  0  0  0  0  # atno 7974 bound_to 7965
  155.3844  140.3430  155.4248 H   0  0  0  0  0  0  0  0  0  0  0  0  # atno 8008 bound_to 7997
  156.1592  140.1595  156.8673 H   0  0  0  0  0  0  0  0  0  0  0  0  # atno 8009 bound_to 7997
  154.5124  140.0787  156.7997 H   0  0  0  0  0  0  0  0  0  0  0  0  # atno 8010 bound_to 7997
  139.5785  144.6975  151.3589 H   0  0  0  0  0  0  0  0  0  0  0  0  # atno 10167 bound_to 10162
  156.9028  130.5728  149.5648 H   0  0  0  0  0  0  0  0  0  0  0  0  # atno 10718 bound_to 10713
  152.9842  135.5655  154.5327 H   0  0  0  0  0  0  0  0  0  0  0  0  # atno 10763 bound_to 10752
  154.4796  135.2788  155.1583 H   0  0  0  0  0  0  0  0  0  0  0  0  # atno 10764 bound_to 10752
  154.3097  135.6291  153.5513 H   0  0  0  0  0  0  0  0  0  0  0  0  # atno 10765 bound_to 10752
  140.6446  133.9459  155.8345 H   0  0  0  0  0  0  0  0  0  0  0  0  # atno 11005 bound_to 11000
  145.0421  140.8953  143.5046 LP  0  0  0  0  0  0  0  0  0  0  0  0  # atno 17320 bound_to 7965
  145.1274  139.2654  143.5557 LP  0  0  0  0  0  0  0  0  0  0  0  0  # atno 17321 bound_to 7965
  140.7066  143.7498  150.7492 LP  0  0  0  0  0  0  0  0  0  0  0  0  # atno 17342 bound_to 10162
  140.1025  143.4775  152.2417 LP  0  0  0  0  0  0  0  0  0  0  0  0  # atno 17343 bound_to 10162
  156.0574  130.5633  150.9120 LP  0  0  0  0  0  0  0  0  0  0  0  0  # atno 17370 bound_to 10713
  157.6016  131.0941  150.8951 LP  0  0  0  0  0  0  0  0  0  0  0  0  # atno 17371 bound_to 10713
  141.0581  134.0386  157.3695 LP  0  0  0  0  0  0  0  0  0  0  0  0  # atno 17394 bound_to 11000
  139.9068  135.0181  156.7519 LP  0  0  0  0  0  0  0  0  0  0  0  0  # atno 17395 bound_to 11000

$$$$
