AV-unprocessed.smi:1224|AV-procd|sdf|5128|dock4
  -GOLD-   22720 4183D 1   1.00000     0.00000
 Structure written by MMmdl.
 44 46  0  0  0  0  0  0  0  0  2 V2000
  153.4985  142.4341  161.5855 C   0  0  0  0  0  0  0  0  0  0  0  0
  152.7693  142.1795  160.2781 C   0  0  0  0  0  0  0  0  0  0  0  0
  153.0844  141.0229  159.5298 C   0  0  0  0  0  0  0  0  0  0  0  0
  152.4247  140.7460  158.3125 C   0  0  0  0  0  0  0  0  0  0  0  0
  152.5692  139.6884  157.4312 N   0  0  0  0  0  0  0  0  0  0  0  0
  151.6755  139.9944  156.4953 C   0  0  0  0  0  0  0  0  0  0  0  0
  150.9624  141.1240  156.6703 N   0  0  0  0  0  0  0  0  0  0  0  0
  149.9289  141.6538  155.7989 C   0  0  0  0  0  0  0  0  0  0  0  0
  149.4248  140.6073  154.7863 C   0  0  2  0  0  0  0  0  0  0  0  0
  149.7903  141.0075  153.4790 O   0  0  0  0  0  0  0  0  0  0  0  0
  147.8980  140.4420  154.8384 C   0  0  0  0  0  0  0  0  0  0  0  0
  147.2228  141.7563  154.8936 N   0  3  0  0  0  0  0  0  0  0  0  0
  146.4480  142.1126  153.6874 C   0  0  0  0  0  0  0  0  0  0  0  0
  145.6034  143.3281  153.8941 C   0  0  0  0  0  0  0  0  0  0  0  0
  145.2854  144.2973  152.9763 C   0  0  0  0  0  0  0  0  0  0  0  0
  144.4387  145.3146  153.5064 C   0  0  0  0  0  0  0  0  0  0  0  0
  144.1213  145.1084  154.8226 C   0  0  0  0  0  0  0  0  0  0  0  0
  144.8603  143.6568  155.4397 S   0  0  0  0  0  0  0  0  0  0  0  0
  151.4319  141.6646  157.8621 C   0  0  0  0  0  0  0  0  0  0  0  0
  151.1133  142.8217  158.5946 C   0  0  0  0  0  0  0  0  0  0  0  0
  151.7825  143.0833  159.8083 C   0  0  0  0  0  0  0  0  0  0  0  0
  151.4301  144.3342  160.5937 C   0  0  0  0  0  0  0  0  0  0  0  0
  154.2537  141.6709  161.7752 H   0  0  0  0  0  0  0  0  0  0  0  0
  152.7970  142.4261  162.4200 H   0  0  0  0  0  0  0  0  0  0  0  0
  154.0002  143.4017  161.5638 H   0  0  0  0  0  0  0  0  0  0  0  0
  153.8366  140.3349  159.8870 H   0  0  0  0  0  0  0  0  0  0  0  0
  151.5239  139.3559  155.6371 H   0  0  0  0  0  0  0  0  0  0  0  0
  149.1058  142.0044  156.4230 H   0  0  0  0  0  0  0  0  0  0  0  0
  150.3230  142.5291  155.2803 H   0  0  0  0  0  0  0  0  0  0  0  0
  149.9012  139.6485  154.9965 H   0  0  0  0  0  0  0  0  0  0  0  0
  149.3148  140.4758  152.8579 H   0  0  0  0  0  0  0  0  0  0  0  0
  147.5507  139.9150  153.9486 H   0  0  0  0  0  0  0  0  0  0  0  0
  147.6184  139.8326  155.6989 H   0  0  0  0  0  0  0  0  0  0  0  0
  146.5969  141.7583  155.6866 H   0  0  0  0  0  0  0  0  0  0  0  0
  147.1500  142.2943  152.8734 H   0  0  0  0  0  0  0  0  0  0  0  0
  145.8332  141.2641  153.3839 H   0  0  0  0  0  0  0  0  0  0  0  0
  145.6255  144.3109  151.9512 H   0  0  0  0  0  0  0  0  0  0  0  0
  144.0968  146.1495  152.9126 H   0  0  0  0  0  0  0  0  0  0  0  0
  143.5020  145.7180  155.4647 H   0  0  0  0  0  0  0  0  0  0  0  0
  150.3594  143.5012  158.2263 H   0  0  0  0  0  0  0  0  0  0  0  0
  150.6445  144.9066  160.0998 H   0  0  0  0  0  0  0  0  0  0  0  0
  152.3024  144.9806  160.6930 H   0  0  0  0  0  0  0  0  0  0  0  0
  151.0769  144.0728  161.5914 H   0  0  0  0  0  0  0  0  0  0  0  0
  147.9279  142.4644  155.0400 H   0  0  0  0  0  0  0  0  0  0  0  0
  1  2  1  0  0  0  0
  1 23  1  0  0  0  0
  1 24  1  0  0  0  0
  1 25  1  0  0  0  0
  2 21  1  0  0  0  0
  2  3  2  0  0  0  0
  3  4  1  0  0  0  0
  3 26  1  0  0  0  0
  4 19  2  0  0  0  0
  4  5  1  0  0  0  0
  5  6  2  0  0  0  0
  6  7  1  0  0  0  0
  6 27  1  0  0  0  0
  7  8  1  0  0  0  0
  7 19  1  0  0  0  0
  8  9  1  0  0  0  0
  8 28  1  0  0  0  0
  8 29  1  0  0  0  0
  9 10  1  0  0  0  0
  9 11  1  0  0  0  0
  9 30  1  0  0  0  0
 10 31  1  0  0  0  0
 11 12  1  0  0  0  0
 11 32  1  0  0  0  0
 11 33  1  0  0  0  0
 12 13  1  0  0  0  0
 12 34  1  0  0  0  0
 12 44  1  0  0  0  0
 13 14  1  0  0  0  0
 13 35  1  0  0  0  0
 13 36  1  0  0  0  0
 14 18  1  0  0  0  0
 14 15  2  0  0  0  0
 15 16  1  0  0  0  0
 15 37  1  0  0  0  0
 16 17  2  0  0  0  0
 16 38  1  0  0  0  0
 17 18  1  0  0  0  0
 17 39  1  0  0  0  0
 19 20  1  0  0  0  0
 20 21  2  0  0  0  0
 20 40  1  0  0  0  0
 21 22  1  0  0  0  0
 22 41  1  0  0  0  0
 22 42  1  0  0  0  0
 22 43  1  0  0  0  0
M  CHG  1  12   1
M  END
> <s_m_source_file>
AV-unprocessed.smi

> <i_m_source_file_index>
1224

> <i_lp_mmshare_version>
43012

> <i_f3d_flags>
0

> <s_epik_input>
W0NIM11jKFtjSF0xKWMoW0NIM10pW2NIXWMoYzEyKW4oW2NIXW4yKVtDSDJdW0NASF0oW09IXSlbQ0gyXVtOSF1bQ0gyXWMzW2NIXVtjSF1bY0hdczM=

> <s_epik_cmdline>
J2VwaWtfcHl0aG9uJywgJy1waCcsICc3LjAnLCAnLXRuJywgJzgnLCAnLW1hJywgJzIwMCcsICctbWV0YWxfYmluZGluZycsICctaW1hZScsICc8aW5maWxlLm1hZT4nLCAnLW9tYWUnLCAnPG91dGZpbGUubWFlPic=

> <r_epik_Ionization_Penalty>
0.145091

> <r_epik_Ionization_Penalty_Charging>
0.0551904

> <r_epik_Ionization_Penalty_Neutral>
0.0899003

> <r_epik_State_Penalty>
0.131364

> <r_epik_Charging_Adjusted_Penalty>
0.186554

> <i_epik_Tot_Q>
1

> <i_epik_Tot_abs_Q>
1

> <r_epik_Metal_State_Penalty>
0.0472291

> <b_epik_Metal_Only>
0

> <s_lp_Force_Field>
OPLS_2005

> <r_lp_Energy>
7.24279

> <b_lp_Chiralities_Consistent>
1

> <s_lp_Variant>
AV-unprocessed.smi:1224-1

> <Gold.Version>
5.8.1

> <Gold.Id.Protein>
6NUR|6NUR_protein|mol2

> <Gold.PLP.Fitness>
56.1912

> <Gold.PLP.PLP>
-52.1097

> <Gold.PLP.part.hbond>
-3.4213

> <Gold.PLP.part.metal>
0.0000

> <Gold.PLP.part.buried>
-5.6931

> <Gold.PLP.part.nonpolar>
-43.1309

> <Gold.PLP.part.repulsive>
0.0676

> <Gold.PLP.ligand.clash>
0.0000

> <Gold.PLP.ligand.torsion>
1.7803

> <Gold.PLP.Chemscore.Hbond>
2.5120

> <Gold.PLP.Chemscore.CHOScore>
0.0000

> <Gold.PLP.Chemscore.Metal>
0.0000

> <Gold.Chemscore.Hbonds>
donor molecule, donor type, donor heavy atom, donor atom, acceptor molecule, acceptor atom, score
      L1  H    10    31       P1  7957  0.66
      P1  H  7989  7998       L1    10  0.26
      P1  H  7997  8010       L1     5  1.00
      P1  H  8011  8017       L1    10  0.55

> <Gold.PLP.Chemscore.Internal.Correction>
0.1061

> <Gold.Rescore>
     Score         DG    S(hbond)    S(metal)    S(lipo)     H(rot)  DE(clash)    DE(int)     intcor
     17.63     -20.27       1.39        0.00     139.85       2.42       0.85       1.79       ----

> <Gold.Chemscore.Fitness>
17.6259

> <Gold.Chemscore.DG>
-20.2661

> <Gold.Chemscore.ZeroCoef>
-5.4800

> <Gold.Chemscore.Hbond>
1.3861

> <Gold.Chemscore.Metal>
0.0000

> <Gold.Chemscore.Lipo>
139.8466

> <Gold.Chemscore.Internal_Hbond>
0.0000

> <Gold.Chemscore.DEClash>
0.8531

> <Gold.Chemscore.DEInternal>
1.7871

> <Gold.Chemscore.Rot>
2.4240

> <Gold.Chemscore.Internal.Correction>
   9.000000E+99

> <Gold.Chemscore.Hbonds>
donor molecule, donor type, donor heavy atom, donor atom, acceptor molecule, acceptor atom, score
      L1  H    10    31       P1  7957  0.66
      L1  H    12    44       P1  8028  0.01
      P1  H  7989  7998       L1    10  0.11
      P1  H  7997  8010       L1     5  0.16
      P1  H  8011  8017       L1    10  0.03

> <Gold.Chemscore.Hbond.Weighted>
-4.6295

> <Gold.Chemscore.Metal.Weighted>
-0.0000

> <Gold.Chemscore.Lipo.Weighted>
-16.3621

> <Gold.Chemscore.Internal_Hbond.Weighted>
0.0000

> <Gold.Chemscore.DEClash.Weighted>
0.8531

> <Gold.Chemscore.DEInternal.Weighted>
1.7871

> <Gold.Chemscore.Rot.Weighted>
6.2055

> <Gold.Chemscore.Internal.Correction.Weighted>
   9.000000E+99

> <Gold.Protein.RotatedTorsions>
[ 6907 6896 6895 6894 ] final  116.24 input  -60.11 | X-H torsion
[ 7974 7965 7964 7962 ] final  109.71 input  175.53 | X-H torsion
[ 8008 7997 7996 7995 ] final   56.01 input   59.86 | X-H torsion
[ 10167 10162 10161 10158 ] final  -74.16 input  -65.29 | X-H torsion
[ 10718 10713 10712 10709 ] final  -43.54 input   66.30 | X-H torsion
[ 10763 10752 10751 10750 ] final  -77.64 input  -60.55 | X-H torsion
[ 11005 11000 10999 10996 ] final  -51.80 input  -57.11 | X-H torsion

> <Gold.Protein.ActiveResidues>
 VAL166  LYS551  ARG553  GLY616  TRP617  ASP618  TYR619  PRO620  LYS621  CYS622 
 ASP623  PHE694  ASN695  SER759  ASP760  ASP761  ALA762  ILE779  LEU786  VAL792 
 PHE793  MET794  SER795  GLU796  ALA797  LYS798  CYS799  TRP800  GLU811  SER814 

> <Gold.Protein.RotatedAtoms>
  152.4690  133.7988  159.6941 H   0  0  0  0  0  0  0  0  0  0  0  0  # atno 6907 bound_to 6896
  150.8670  133.7551  159.2980 H   0  0  0  0  0  0  0  0  0  0  0  0  # atno 6908 bound_to 6896
  151.5098  135.1068  159.9903 H   0  0  0  0  0  0  0  0  0  0  0  0  # atno 6909 bound_to 6896
  145.2644  139.2690  143.4000 H   0  0  0  0  0  0  0  0  0  0  0  0  # atno 7974 bound_to 7965
  155.5104  140.3477  155.4387 H   0  0  0  0  0  0  0  0  0  0  0  0  # atno 8008 bound_to 7997
  156.0853  140.1397  156.9688 H   0  0  0  0  0  0  0  0  0  0  0  0  # atno 8009 bound_to 7997
  154.4603  140.0937  156.6851 H   0  0  0  0  0  0  0  0  0  0  0  0  # atno 8010 bound_to 7997
  140.5050  143.2354  151.7688 H   0  0  0  0  0  0  0  0  0  0  0  0  # atno 10167 bound_to 10162
  156.2479  130.4185  149.8684 H   0  0  0  0  0  0  0  0  0  0  0  0  # atno 10718 bound_to 10713
  154.5156  135.5757  153.6639 H   0  0  0  0  0  0  0  0  0  0  0  0  # atno 10763 bound_to 10752
  152.9906  135.6169  154.2822 H   0  0  0  0  0  0  0  0  0  0  0  0  # atno 10764 bound_to 10752
  154.2739  135.2852  155.2706 H   0  0  0  0  0  0  0  0  0  0  0  0  # atno 10765 bound_to 10752
  141.0890  133.6636  156.3930 H   0  0  0  0  0  0  0  0  0  0  0  0  # atno 11005 bound_to 11000
  146.3266  140.3069  142.8624 LP  0  0  0  0  0  0  0  0  0  0  0  0  # atno 17320 bound_to 7965
  144.9390  140.8058  143.5642 LP  0  0  0  0  0  0  0  0  0  0  0  0  # atno 17321 bound_to 7965
  139.4881  144.4469  151.9699 LP  0  0  0  0  0  0  0  0  0  0  0  0  # atno 17342 bound_to 10162
  140.3560  144.3031  150.5941 LP  0  0  0  0  0  0  0  0  0  0  0  0  # atno 17343 bound_to 10162
  156.6242  130.8639  151.3482 LP  0  0  0  0  0  0  0  0  0  0  0  0  # atno 17370 bound_to 10713
  157.7202  130.9549  150.1411 LP  0  0  0  0  0  0  0  0  0  0  0  0  # atno 17371 bound_to 10713
  140.5296  134.6226  157.5345 LP  0  0  0  0  0  0  0  0  0  0  0  0  # atno 17394 bound_to 11000
  139.9713  134.7288  156.0036 LP  0  0  0  0  0  0  0  0  0  0  0  0  # atno 17395 bound_to 11000

$$$$
