AV-unprocessed.smi:1809|AV-procd|sdf|7320|dock1
  -GOLD-   22720 8573D 1   1.00000     0.00000
 Structure written by MMmdl.
 39 41  0  0  0  0  0  0  0  0  1 V2000
  150.9330  142.2091  156.6523 C   0  0  0  0  0  0  0  0  0  0  0  0
  150.5278  141.0824  155.7644 C   0  0  0  0  0  0  0  0  0  0  0  0
  151.3894  140.1558  155.3272 N   0  0  0  0  0  0  0  0  0  0  0  0
  150.7775  139.2098  154.5164 N   0  0  0  0  0  0  0  0  0  0  0  0
  149.4680  139.4520  154.3664 C   0  0  0  0  0  0  0  0  0  0  0  0
  148.5990  138.6414  153.5893 N   0  0  0  0  0  0  0  0  0  0  0  0
  147.2550  138.6049  153.6086 C   0  0  0  0  0  0  0  0  0  0  0  0
  146.5351  139.2822  154.3426 O   0  0  0  0  0  0  0  0  0  0  0  0
  146.7818  137.7284  152.7111 N   0  0  0  0  0  0  0  0  0  0  0  0
  145.3692  137.4775  152.4451 C   0  0  0  0  0  0  0  0  0  0  0  0
  145.0443  135.9747  152.4923 C   0  0  1  0  0  0  0  0  0  0  0  0
  144.6730  135.4221  151.0966 C   0  0  0  0  0  0  0  0  0  0  0  0
  144.4865  133.9853  151.1669 N   0  0  0  0  0  0  0  0  0  0  0  0
  144.2126  133.2990  149.9257 C   0  0  0  0  0  0  0  0  0  0  0  0
  144.4758  131.8171  150.2468 C   0  0  0  0  0  0  0  0  0  0  0  0
  145.3770  131.8488  151.5015 C   0  0  0  0  0  0  0  0  0  0  0  0
  145.6699  133.3407  151.6689 C   0  0  2  0  0  0  0  0  0  0  0  0
  146.0093  133.8485  153.0769 C   0  0  0  0  0  0  0  0  0  0  0  0
  146.1819  135.2653  153.0001 O   0  0  0  0  0  0  0  0  0  0  0  0
  148.8717  140.8717  155.2090 S   0  0  0  0  0  0  0  0  0  0  0  0
  151.9731  142.1015  156.9620 H   0  0  0  0  0  0  0  0  0  0  0  0
  150.3042  142.2266  157.5425 H   0  0  0  0  0  0  0  0  0  0  0  0
  150.8213  143.1567  156.1254 H   0  0  0  0  0  0  0  0  0  0  0  0
  149.0542  138.0284  152.9294 H   0  0  0  0  0  0  0  0  0  0  0  0
  147.4463  137.2142  152.1517 H   0  0  0  0  0  0  0  0  0  0  0  0
  144.7955  138.0000  153.2108 H   0  0  0  0  0  0  0  0  0  0  0  0
  145.0666  137.9072  151.4884 H   0  0  0  0  0  0  0  0  0  0  0  0
  144.2049  135.8130  153.1713 H   0  0  0  0  0  0  0  0  0  0  0  0
  143.7608  135.8966  150.7337 H   0  0  0  0  0  0  0  0  0  0  0  0
  145.4620  135.6609  150.3820 H   0  0  0  0  0  0  0  0  0  0  0  0
  143.1948  133.4803  149.5797 H   0  0  0  0  0  0  0  0  0  0  0  0
  144.9001  133.6379  149.1487 H   0  0  0  0  0  0  0  0  0  0  0  0
  143.5440  131.2931  150.4630 H   0  0  0  0  0  0  0  0  0  0  0  0
  144.9577  131.3126  149.4088 H   0  0  0  0  0  0  0  0  0  0  0  0
  144.8341  131.4611  152.3647 H   0  0  0  0  0  0  0  0  0  0  0  0
  146.2879  131.2618  151.3806 H   0  0  0  0  0  0  0  0  0  0  0  0
  146.5090  133.5866  151.0141 H   0  0  0  0  0  0  0  0  0  0  0  0
  145.2175  133.6068  153.7877 H   0  0  0  0  0  0  0  0  0  0  0  0
  146.9288  133.3913  153.4422 H   0  0  0  0  0  0  0  0  0  0  0  0
  1  2  1  0  0  0  0
  1 21  1  0  0  0  0
  1 22  1  0  0  0  0
  1 23  1  0  0  0  0
  2 20  1  0  0  0  0
  2  3  2  0  0  0  0
  3  4  1  0  0  0  0
  4  5  2  0  0  0  0
  5  6  1  0  0  0  0
  5 20  1  0  0  0  0
  6  7  1  0  0  0  0
  6 24  1  0  0  0  0
  7  8  2  0  0  0  0
  7  9  1  0  0  0  0
  9 10  1  0  0  0  0
  9 25  1  0  0  0  0
 10 11  1  0  0  0  0
 10 26  1  0  0  0  0
 10 27  1  0  0  0  0
 11 19  1  0  0  0  0
 11 12  1  0  0  0  0
 11 28  1  0  0  0  0
 12 13  1  0  0  0  0
 12 29  1  0  0  0  0
 12 30  1  0  0  0  0
 13 17  1  0  0  0  0
 13 14  1  0  0  0  0
 14 15  1  0  0  0  0
 14 31  1  0  0  0  0
 14 32  1  0  0  0  0
 15 16  1  0  0  0  0
 15 33  1  0  0  0  0
 15 34  1  0  0  0  0
 16 17  1  0  0  0  0
 16 35  1  0  0  0  0
 16 36  1  0  0  0  0
 17 18  1  0  0  0  0
 17 37  1  0  0  0  0
 18 19  1  0  0  0  0
 18 38  1  0  0  0  0
 18 39  1  0  0  0  0
M  END
> <s_m_source_file>
AV-unprocessed.smi

> <i_m_source_file_index>
1809

> <i_lp_mmshare_version>
43012

> <i_f3d_flags>
0

> <s_epik_input>
W0NIM11jMW5uYyhzMSlbTkhdQyg9TylbTkhdW0NIMl1bQ0BIXShbQ0gyXTIpT1tDSDJdW0NAQEhdKE4yMylbQ0gyXVtDSDJdW0NIMl0z

> <s_epik_cmdline>
J2VwaWtfcHl0aG9uJywgJy1waCcsICc3LjAnLCAnLXRuJywgJzgnLCAnLW1hJywgJzIwMCcsICctbWV0YWxfYmluZGluZycsICctaW1hZScsICc8aW5maWxlLm1hZT4nLCAnLW9tYWUnLCAnPG91dGZpbGUubWFlPic=

> <r_lp_tautomer_probability>
1

> <r_epik_Ionization_Penalty>
1.05954

> <r_epik_Ionization_Penalty_Charging>
0

> <r_epik_Ionization_Penalty_Neutral>
1.05954

> <r_epik_State_Penalty>
1.4238

> <r_epik_Charging_Adjusted_Penalty>
1.4238

> <i_epik_Tot_Q>
0

> <i_epik_Tot_abs_Q>
0

> <r_epik_Metal_State_Penalty>
1.7901

> <b_epik_Metal_Only>
0

> <s_lp_Force_Field>
OPLS_2005

> <r_lp_Energy>
46.7621

> <b_lp_Chiralities_Consistent>
1

> <s_lp_Variant>
AV-unprocessed.smi:1809-12

> <Gold.Version>
5.8.1

> <Gold.Id.Protein>
6NUR|6NUR_protein|mol2

> <Gold.PLP.Fitness>
38.2791

> <Gold.PLP.PLP>
-34.0877

> <Gold.PLP.part.hbond>
-5.0000

> <Gold.PLP.part.metal>
0.0000

> <Gold.PLP.part.buried>
-5.6453

> <Gold.PLP.part.nonpolar>
-24.7025

> <Gold.PLP.part.repulsive>
0.8418

> <Gold.PLP.ligand.clash>
0.0000

> <Gold.PLP.ligand.torsion>
0.8116

> <Gold.PLP.Chemscore.Hbond>
1.9357

> <Gold.PLP.Chemscore.CHOScore>
0.0000

> <Gold.PLP.Chemscore.Metal>
0.0000

> <Gold.Chemscore.Hbonds>
donor molecule, donor type, donor heavy atom, donor atom, acceptor molecule, acceptor atom, score
      L1  H     6    24       P1  7948  0.89
      L1  H     9    25       P1  7948  1.00

> <Gold.PLP.Chemscore.Internal.Correction>
0.0073

> <Gold.Rescore>
     Score         DG    S(hbond)    S(metal)    S(lipo)     H(rot)  DE(clash)    DE(int)     intcor
     16.15     -17.24       1.93        0.00      74.29       1.32       0.07       1.02       ----

> <Gold.Chemscore.Fitness>
16.1517

> <Gold.Chemscore.DG>
-17.2414

> <Gold.Chemscore.ZeroCoef>
-5.4800

> <Gold.Chemscore.Hbond>
1.9305

> <Gold.Chemscore.Metal>
0.0000

> <Gold.Chemscore.Lipo>
74.2882

> <Gold.Chemscore.Internal_Hbond>
0.0000

> <Gold.Chemscore.DEClash>
0.0665

> <Gold.Chemscore.DEInternal>
1.0232

> <Gold.Chemscore.Rot>
1.3196

> <Gold.Chemscore.Internal.Correction>
   9.000000E+99

> <Gold.Chemscore.Hbonds>
donor molecule, donor type, donor heavy atom, donor atom, acceptor molecule, acceptor atom, score
      L1  H     6    24       P1  7948  0.81
      L1  H     9    25       P1  7948  0.99

> <Gold.Chemscore.Hbond.Weighted>
-6.4480

> <Gold.Chemscore.Metal.Weighted>
-0.0000

> <Gold.Chemscore.Lipo.Weighted>
-8.6917

> <Gold.Chemscore.Internal_Hbond.Weighted>
0.0000

> <Gold.Chemscore.DEClash.Weighted>
0.0665

> <Gold.Chemscore.DEInternal.Weighted>
1.0232

> <Gold.Chemscore.Rot.Weighted>
3.3783

> <Gold.Chemscore.Internal.Correction.Weighted>
   9.000000E+99

> <Gold.Protein.RotatedTorsions>
[ 6907 6896 6895 6894 ] final  -47.62 input  -60.11 | X-H torsion
[ 7974 7965 7964 7962 ] final  131.63 input  175.53 | X-H torsion
[ 8008 7997 7996 7995 ] final  140.18 input   59.86 | X-H torsion
[ 10167 10162 10161 10158 ] final  175.36 input  -65.29 | X-H torsion
[ 10718 10713 10712 10709 ] final  134.05 input   66.30 | X-H torsion
[ 10763 10752 10751 10750 ] final   22.96 input  -60.55 | X-H torsion
[ 11005 11000 10999 10996 ] final  -52.93 input  -57.11 | X-H torsion

> <Gold.Protein.ActiveResidues>
 VAL166  LYS551  ARG553  GLY616  TRP617  ASP618  TYR619  PRO620  LYS621  CYS622 
 ASP623  PHE694  ASN695  SER759  ASP760  ASP761  ALA762  ILE779  LEU786  VAL792 
 PHE793  MET794  SER795  GLU796  ALA797  LYS798  CYS799  TRP800  GLU811  SER814 

> <Gold.Protein.RotatedAtoms>
  150.8989  134.8399  159.7345 H   0  0  0  0  0  0  0  0  0  0  0  0  # atno 6907 bound_to 6896
  152.4881  134.4534  159.9591 H   0  0  0  0  0  0  0  0  0  0  0  0  # atno 6908 bound_to 6896
  151.4588  133.3559  159.2841 H   0  0  0  0  0  0  0  0  0  0  0  0  # atno 6909 bound_to 6896
  145.0053  139.4272  143.5272 H   0  0  0  0  0  0  0  0  0  0  0  0  # atno 7974 bound_to 7965
  156.2982  140.2348  156.4360 H   0  0  0  0  0  0  0  0  0  0  0  0  # atno 8008 bound_to 7997
  154.8228  140.0437  157.1443 H   0  0  0  0  0  0  0  0  0  0  0  0  # atno 8009 bound_to 7997
  154.9295  140.3014  155.5178 H   0  0  0  0  0  0  0  0  0  0  0  0  # atno 8010 bound_to 7997
  139.5174  144.3040  152.0353 H   0  0  0  0  0  0  0  0  0  0  0  0  # atno 10167 bound_to 10162
  157.4711  131.1080  150.9801 H   0  0  0  0  0  0  0  0  0  0  0  0  # atno 10718 bound_to 10713
  153.0875  135.6637  153.9920 H   0  0  0  0  0  0  0  0  0  0  0  0  # atno 10763 bound_to 10752
  153.9526  135.2982  155.3439 H   0  0  0  0  0  0  0  0  0  0  0  0  # atno 10764 bound_to 10752
  154.7285  135.5133  153.8998 H   0  0  0  0  0  0  0  0  0  0  0  0  # atno 10765 bound_to 10752
  141.0950  133.6626  156.4097 H   0  0  0  0  0  0  0  0  0  0  0  0  # atno 11005 bound_to 11000
  146.3460  139.9465  142.8734 LP  0  0  0  0  0  0  0  0  0  0  0  0  # atno 17320 bound_to 7965
  145.2097  140.9890  143.4108 LP  0  0  0  0  0  0  0  0  0  0  0  0  # atno 17321 bound_to 7965
  140.2486  144.4193  150.6231 LP  0  0  0  0  0  0  0  0  0  0  0  0  # atno 17342 bound_to 10162
  140.6240  143.2179  151.6635 LP  0  0  0  0  0  0  0  0  0  0  0  0  # atno 17343 bound_to 10162
  157.0566  130.5808  149.5379 LP  0  0  0  0  0  0  0  0  0  0  0  0  # atno 17370 bound_to 10713
  156.0074  130.5162  150.7875 LP  0  0  0  0  0  0  0  0  0  0  0  0  # atno 17371 bound_to 10713
  140.5162  134.6348  157.5302 LP  0  0  0  0  0  0  0  0  0  0  0  0  # atno 17394 bound_to 11000
  139.9784  134.7177  155.9905 LP  0  0  0  0  0  0  0  0  0  0  0  0  # atno 17395 bound_to 11000

$$$$
