AV-unprocessed.smi:20|AV-procd|sdf|118|dock6
  -GOLD-   2262015283D 1   1.00000     0.00000
 Structure written by MMmdl.
 57 61  0  0  0  0  0  0  0  0  1 V2000
  145.2016  137.5757  152.9506 O   0  0  0  0  0  0  0  0  0  0  0  0
  144.8301  136.5521  152.3813 C   0  0  0  0  0  0  0  0  0  0  0  0
  145.3988  136.0681  151.0576 C   0  0  0  0  0  0  0  0  0  0  0  0
  144.9061  134.6073  150.9690 C   0  0  1  0  0  0  0  0  0  0  0  0
  144.5613  134.2036  149.5175 C   0  0  0  0  0  0  0  0  0  0  0  0
  144.1760  132.7191  149.4210 C   0  0  0  0  0  0  0  0  0  0  0  0
  145.2796  131.8252  150.0037 C   0  0  0  0  0  0  0  0  0  0  0  0
  145.6229  132.2452  151.3622 N   0  0  0  0  0  0  0  0  0  0  0  0
  146.2265  131.3112  152.1422 C   0  0  0  0  0  0  0  0  0  0  0  0
  145.9556  130.0075  151.8716 N   0  0  0  0  0  0  0  0  0  0  0  0
  146.5054  129.0326  152.6002 C   0  0  0  0  0  0  0  0  0  0  0  0
  147.3436  129.1348  153.6319 N   0  0  0  0  0  0  0  0  0  0  0  0
  147.6252  130.4394  153.9101 C   0  0  0  0  0  0  0  0  0  0  0  0
  147.1171  131.5816  153.2257 C   0  0  0  0  0  0  0  0  0  0  0  0
  147.6462  132.7355  153.7967 N   0  0  0  0  0  0  0  0  0  0  0  0
  148.4105  132.3022  154.7612 C   0  0  0  0  0  0  0  0  0  0  0  0
  148.4518  130.9348  154.9017 N   0  0  0  0  0  0  0  0  0  0  0  0
  149.2146  130.1797  155.8799 C   0  0  0  0  0  0  0  0  0  0  0  0
  150.7385  130.1888  155.6030 C   0  0  2  0  0  0  0  0  0  0  0  0
  151.2683  128.8082  155.1458 C   0  0  0  0  0  0  0  0  0  0  0  0
  152.5385  128.9182  154.5362 O   0  0  0  0  0  0  0  0  0  0  0  0
  151.5314  130.7596  156.8057 C   0  0  1  0  0  0  0  0  0  0  0  0
  152.9591  131.1728  156.4940 C   0  0  0  0  0  0  0  0  0  0  0  0
  153.2912  132.0897  157.6655 C   0  0  0  0  0  0  0  0  0  0  0  0
  152.0687  132.7337  158.0039 O   0  0  0  0  0  0  0  0  0  0  0  0
  150.9784  132.0752  157.3663 C   0  0  0  0  0  0  0  0  0  0  0  0
  145.9946  133.6507  151.5227 C   0  0  0  0  0  0  0  0  0  0  0  0
  143.6663  134.6100  151.8988 C   0  0  0  0  0  0  0  0  0  0  0  0
  143.8891  135.7148  152.8113 N   0  0  0  0  0  0  0  0  0  0  0  0
  144.9854  136.6838  150.2578 H   0  0  0  0  0  0  0  0  0  0  0  0
  146.4855  136.1561  151.0286 H   0  0  0  0  0  0  0  0  0  0  0  0
  143.7520  134.8231  149.1290 H   0  0  0  0  0  0  0  0  0  0  0  0
  145.4227  134.3899  148.8748 H   0  0  0  0  0  0  0  0  0  0  0  0
  143.2425  132.5434  149.9568 H   0  0  0  0  0  0  0  0  0  0  0  0
  143.9899  132.4480  148.3815 H   0  0  0  0  0  0  0  0  0  0  0  0
  144.9496  130.7866  149.9720 H   0  0  0  0  0  0  0  0  0  0  0  0
  146.1755  131.8880  149.3848 H   0  0  0  0  0  0  0  0  0  0  0  0
  146.2346  128.0262  152.3157 H   0  0  0  0  0  0  0  0  0  0  0  0
  148.9652  132.9717  155.4026 H   0  0  0  0  0  0  0  0  0  0  0  0
  148.9984  130.6027  156.8609 H   0  0  0  0  0  0  0  0  0  0  0  0
  148.8385  129.1560  155.8973 H   0  0  0  0  0  0  0  0  0  0  0  0
  150.9025  130.8683  154.7653 H   0  0  0  0  0  0  0  0  0  0  0  0
  151.3420  128.1195  155.9875 H   0  0  0  0  0  0  0  0  0  0  0  0
  150.5806  128.3424  154.4403 H   0  0  0  0  0  0  0  0  0  0  0  0
  152.4684  128.6262  153.6400 H   0  0  0  0  0  0  0  0  0  0  0  0
  151.5537  130.0246  157.6122 H   0  0  0  0  0  0  0  0  0  0  0  0
  153.6463  130.3298  156.4194 H   0  0  0  0  0  0  0  0  0  0  0  0
  152.9997  131.7326  155.5583 H   0  0  0  0  0  0  0  0  0  0  0  0
  153.6248  131.5045  158.5233 H   0  0  0  0  0  0  0  0  0  0  0  0
  154.0710  132.8123  157.4237 H   0  0  0  0  0  0  0  0  0  0  0  0
  150.6168  132.7180  156.5623 H   0  0  0  0  0  0  0  0  0  0  0  0
  150.1566  131.9166  158.0649 H   0  0  0  0  0  0  0  0  0  0  0  0
  146.9345  133.8176  150.9950 H   0  0  0  0  0  0  0  0  0  0  0  0
  146.1736  133.8713  152.5759 H   0  0  0  0  0  0  0  0  0  0  0  0
  142.7477  134.8046  151.3434 H   0  0  0  0  0  0  0  0  0  0  0  0
  143.5342  133.6734  152.4414 H   0  0  0  0  0  0  0  0  0  0  0  0
  143.3704  135.8313  153.6698 H   0  0  0  0  0  0  0  0  0  0  0  0
  1  2  2  0  0  0  0
  2 29  1  0  0  0  0
  2  3  1  0  0  0  0
  3  4  1  0  0  0  0
  3 30  1  0  0  0  0
  3 31  1  0  0  0  0
  4 27  1  0  0  0  0
  4  5  1  0  0  0  0
  4 28  1  0  0  0  0
  5  6  1  0  0  0  0
  5 32  1  0  0  0  0
  5 33  1  0  0  0  0
  6  7  1  0  0  0  0
  6 34  1  0  0  0  0
  6 35  1  0  0  0  0
  7  8  1  0  0  0  0
  7 36  1  0  0  0  0
  7 37  1  0  0  0  0
  8  9  1  0  0  0  0
  8 27  1  0  0  0  0
  9 14  1  0  0  0  0
  9 10  2  0  0  0  0
 10 11  1  0  0  0  0
 11 12  2  0  0  0  0
 11 38  1  0  0  0  0
 12 13  1  0  0  0  0
 13 17  1  0  0  0  0
 13 14  2  0  0  0  0
 14 15  1  0  0  0  0
 15 16  2  0  0  0  0
 16 17  1  0  0  0  0
 16 39  1  0  0  0  0
 17 18  1  0  0  0  0
 18 19  1  0  0  0  0
 18 40  1  0  0  0  0
 18 41  1  0  0  0  0
 19 20  1  0  0  0  0
 19 22  1  0  0  0  0
 19 42  1  0  0  0  0
 20 21  1  0  0  0  0
 20 43  1  0  0  0  0
 20 44  1  0  0  0  0
 21 45  1  0  0  0  0
 22 26  1  0  0  0  0
 22 23  1  0  0  0  0
 22 46  1  0  0  0  0
 23 24  1  0  0  0  0
 23 47  1  0  0  0  0
 23 48  1  0  0  0  0
 24 25  1  0  0  0  0
 24 49  1  0  0  0  0
 24 50  1  0  0  0  0
 25 26  1  0  0  0  0
 26 51  1  0  0  0  0
 26 52  1  0  0  0  0
 27 53  1  0  0  0  0
 27 54  1  0  0  0  0
 28 29  1  0  0  0  0
 28 55  1  0  0  0  0
 28 56  1  0  0  0  0
 29 57  1  0  0  0  0
M  END
> <s_m_source_file>
AV-unprocessed.smi

> <i_m_source_file_index>
20

> <i_lp_mmshare_version>
43012

> <i_f3d_flags>
0

> <s_epik_input>
W0NIMl0xW05IXUMoPU8pW0NIMl1bQ0BAXTEyW0NIMl1bQ0gyXVtDSDJdTihbQ0gyXTIpYyhuW2NIXW4zKWMoYzM0KW5bY0hdbjRbQ0gyXVtDQEhdKFtDSDJdW09IXSlbQ0BASF01W0NIMl1bQ0gyXU9bQ0gyXTU=

> <s_epik_cmdline>
J2VwaWtfcHl0aG9uJywgJy1waCcsICc3LjAnLCAnLXRuJywgJzgnLCAnLW1hJywgJzIwMCcsICctbWV0YWxfYmluZGluZycsICctaW1hZScsICc8aW5maWxlLm1hZT4nLCAnLW9tYWUnLCAnPG91dGZpbGUubWFlPic=

> <r_lp_tautomer_probability>
1

> <r_epik_Ionization_Penalty>
0.0019697

> <r_epik_Ionization_Penalty_Charging>
0

> <r_epik_Ionization_Penalty_Neutral>
0.0019697

> <r_epik_State_Penalty>
0.00113613

> <r_epik_Charging_Adjusted_Penalty>
0.00113613

> <i_epik_Tot_Q>
0

> <i_epik_Tot_abs_Q>
0

> <r_epik_Metal_State_Penalty>
-0

> <b_epik_Metal_Only>
0

> <s_lp_Force_Field>
OPLS_2005

> <r_lp_Energy>
59.1367

> <b_lp_Chiralities_Consistent>
1

> <s_lp_Variant>
AV-unprocessed.smi:20-6

> <Gold.Version>
5.8.1

> <Gold.Id.Protein>
6NUR|6NUR_protein|mol2

> <Gold.PLP.Fitness>
47.3277

> <Gold.PLP.PLP>
-43.5868

> <Gold.PLP.part.hbond>
-2.0000

> <Gold.PLP.part.metal>
0.0000

> <Gold.PLP.part.buried>
-2.9323

> <Gold.PLP.part.nonpolar>
-40.2509

> <Gold.PLP.part.repulsive>
0.5615

> <Gold.PLP.ligand.clash>
0.0000

> <Gold.PLP.ligand.torsion>
1.2463

> <Gold.PLP.Chemscore.Hbond>
1.9440

> <Gold.PLP.Chemscore.CHOScore>
0.0000

> <Gold.PLP.Chemscore.Metal>
0.0000

> <Gold.Chemscore.Hbonds>
donor molecule, donor type, donor heavy atom, donor atom, acceptor molecule, acceptor atom, score
      L1  H    21    45       P1 10737  0.76
      P1  H  6896  6908       L1    25  0.77

> <Gold.PLP.Chemscore.Internal.Correction>
0.4015

> <Gold.Rescore>
     Score         DG    S(hbond)    S(metal)    S(lipo)     H(rot)  DE(clash)    DE(int)     intcor
     11.18     -15.65       1.86        0.00      86.99       2.43       1.76       2.71       ----

> <Gold.Chemscore.Fitness>
11.1792

> <Gold.Chemscore.DG>
-15.6541

> <Gold.Chemscore.ZeroCoef>
-5.4800

> <Gold.Chemscore.Hbond>
1.8620

> <Gold.Chemscore.Metal>
0.0000

> <Gold.Chemscore.Lipo>
86.9932

> <Gold.Chemscore.Internal_Hbond>
0.0000

> <Gold.Chemscore.DEClash>
1.7619

> <Gold.Chemscore.DEInternal>
2.7130

> <Gold.Chemscore.Rot>
2.4309

> <Gold.Chemscore.Internal.Correction>
   9.000000E+99

> <Gold.Chemscore.Hbonds>
donor molecule, donor type, donor heavy atom, donor atom, acceptor molecule, acceptor atom, score
      L1  H    21    45       P1 10737  0.26
      P1  H  6896  6908       L1    25  0.67

> <Gold.Chemscore.Hbond.Weighted>
-6.2190

> <Gold.Chemscore.Metal.Weighted>
-0.0000

> <Gold.Chemscore.Lipo.Weighted>
-10.1782

> <Gold.Chemscore.Internal_Hbond.Weighted>
0.0000

> <Gold.Chemscore.DEClash.Weighted>
1.7619

> <Gold.Chemscore.DEInternal.Weighted>
2.7130

> <Gold.Chemscore.Rot.Weighted>
6.2231

> <Gold.Chemscore.Internal.Correction.Weighted>
   9.000000E+99

> <Gold.Protein.RotatedTorsions>
[ 6907 6896 6895 6894 ] final   36.25 input  -60.11 | X-H torsion
[ 7974 7965 7964 7962 ] final  -93.36 input  175.53 | X-H torsion
[ 8008 7997 7996 7995 ] final  -24.26 input   59.86 | X-H torsion
[ 10167 10162 10161 10158 ] final  -41.44 input  -65.29 | X-H torsion
[ 10718 10713 10712 10709 ] final  123.37 input   66.30 | X-H torsion
[ 10763 10752 10751 10750 ] final  152.87 input  -60.55 | X-H torsion
[ 11005 11000 10999 10996 ] final   28.36 input  -57.11 | X-H torsion

> <Gold.Protein.ActiveResidues>
 VAL166  LYS551  ARG553  GLY616  TRP617  ASP618  TYR619  PRO620  LYS621  CYS622 
 ASP623  PHE694  ASN695  SER759  ASP760  ASP761  ALA762  ILE779  LEU786  VAL792 
 PHE793  MET794  SER795  GLU796  ALA797  LYS798  CYS799  TRP800  GLU811  SER814 

> <Gold.Protein.RotatedAtoms>
  152.1272  134.9162  160.0560 H   0  0  0  0  0  0  0  0  0  0  0  0  # atno 6907 bound_to 6896
  152.0280  133.3920  159.4293 H   0  0  0  0  0  0  0  0  0  0  0  0  # atno 6908 bound_to 6896
  150.6853  134.3474  159.4938 H   0  0  0  0  0  0  0  0  0  0  0  0  # atno 6909 bound_to 6896
  145.3876  140.9524  143.2359 H   0  0  0  0  0  0  0  0  0  0  0  0  # atno 7974 bound_to 7965
  154.4539  140.1958  156.0436 H   0  0  0  0  0  0  0  0  0  0  0  0  # atno 8008 bound_to 7997
  156.0706  140.3285  155.7543 H   0  0  0  0  0  0  0  0  0  0  0  0  # atno 8009 bound_to 7997
  155.5269  140.0574  157.2887 H   0  0  0  0  0  0  0  0  0  0  0  0  # atno 8010 bound_to 7997
  140.7002  143.3094  151.3067 H   0  0  0  0  0  0  0  0  0  0  0  0  # atno 10167 bound_to 10162
  157.5670  131.1086  150.8436 H   0  0  0  0  0  0  0  0  0  0  0  0  # atno 10718 bound_to 10713
  154.1271  135.2829  155.3194 H   0  0  0  0  0  0  0  0  0  0  0  0  # atno 10763 bound_to 10752
  154.6382  135.5411  153.7762 H   0  0  0  0  0  0  0  0  0  0  0  0  # atno 10764 bound_to 10752
  153.0293  135.6479  154.1422 H   0  0  0  0  0  0  0  0  0  0  0  0  # atno 10765 bound_to 10752
  140.3164  134.2592  155.7725 H   0  0  0  0  0  0  0  0  0  0  0  0  # atno 11005 bound_to 11000
  144.8463  139.5392  143.6877 LP  0  0  0  0  0  0  0  0  0  0  0  0  # atno 17320 bound_to 7965
  146.2813  139.6884  142.9227 LP  0  0  0  0  0  0  0  0  0  0  0  0  # atno 17321 bound_to 7965
  139.6512  144.0359  152.2627 LP  0  0  0  0  0  0  0  0  0  0  0  0  # atno 17342 bound_to 10162
  139.9896  144.6371  150.7826 LP  0  0  0  0  0  0  0  0  0  0  0  0  # atno 17343 bound_to 10162
  156.8918  130.5215  149.5286 LP  0  0  0  0  0  0  0  0  0  0  0  0  # atno 17370 bound_to 10713
  156.0717  130.5749  150.9397 LP  0  0  0  0  0  0  0  0  0  0  0  0  # atno 17371 bound_to 10713
  141.2096  133.7742  156.9982 LP  0  0  0  0  0  0  0  0  0  0  0  0  # atno 17394 bound_to 11000
  140.0980  134.9553  157.1879 LP  0  0  0  0  0  0  0  0  0  0  0  0  # atno 17395 bound_to 11000

$$$$
