AV-unprocessed.smi:946|AV-procd|sdf|4234|dock4
  -GOLD-   22720 2143D 1   1.00000     0.00000
 Structure written by MMmdl.
 42 43  0  0  0  0  0  0  0  0  1 V2000
  149.4213  138.3345  156.6626 C   0  0  0  0  0  0  0  0  0  0  0  0
  149.3944  138.5476  158.1835 C   0  0  2  0  0  0  0  0  0  0  0  0
  150.6204  139.1739  158.5504 O   0  0  0  0  0  0  0  0  0  0  0  0
  150.8301  140.4719  158.0065 C   0  0  0  0  0  0  0  0  0  0  0  0
  151.9223  141.1755  158.8220 C   0  0  2  0  0  0  0  0  0  0  0  0
  152.7916  140.1733  159.6070 C   0  0  0  0  0  0  0  0  0  0  0  0
  153.8116  140.9128  160.4806 C   0  0  0  0  0  0  0  0  0  0  0  0
  153.0913  141.9416  161.3588 C   0  0  0  0  0  0  0  0  0  0  0  0
  152.2001  142.8480  160.4955 C   0  0  0  0  0  0  0  0  0  0  0  0
  151.2848  142.0536  159.7476 O   0  0  0  0  0  0  0  0  0  0  0  0
  149.2288  137.2170  158.9355 C   0  0  0  0  0  0  0  0  0  0  0  0
  150.0273  136.3006  158.7373 O   0  0  0  0  0  0  0  0  0  0  0  0
  148.1966  137.1579  159.7980 N   0  0  0  0  0  0  0  0  0  0  0  0
  147.7934  136.0671  160.6124 C   0  0  0  0  0  0  0  0  0  0  0  0
  147.3040  136.4202  161.8893 C   0  0  0  0  0  0  0  0  0  0  0  0
  146.8769  135.4086  162.7700 C   0  0  0  0  0  0  0  0  0  0  0  0
  146.9474  134.0681  162.3515 C   0  0  0  0  0  0  0  0  0  0  0  0
  147.4458  133.7961  161.0596 C   0  0  0  0  0  0  0  0  0  0  0  0
  147.5516  132.3742  160.5270 C   0  0  0  0  0  0  0  0  0  0  0  0
  148.2914  131.6020  161.3240 F   0  0  0  0  0  0  0  0  0  0  0  0
  146.3345  131.8383  160.4326 F   0  0  0  0  0  0  0  0  0  0  0  0
  148.1103  132.3878  159.3165 F   0  0  0  0  0  0  0  0  0  0  0  0
  147.8558  134.7717  160.2178 N   0  0  0  0  0  0  0  0  0  0  0  0
  148.5167  137.8335  156.3160 H   0  0  0  0  0  0  0  0  0  0  0  0
  150.2775  137.7322  156.3562 H   0  0  0  0  0  0  0  0  0  0  0  0
  149.4889  139.2895  156.1411 H   0  0  0  0  0  0  0  0  0  0  0  0
  148.5608  139.2129  158.4177 H   0  0  0  0  0  0  0  0  0  0  0  0
  151.1210  140.4100  156.9566 H   0  0  0  0  0  0  0  0  0  0  0  0
  149.9081  141.0519  158.0579 H   0  0  0  0  0  0  0  0  0  0  0  0
  152.5556  141.7508  158.1442 H   0  0  0  0  0  0  0  0  0  0  0  0
  152.1567  139.5490  160.2372 H   0  0  0  0  0  0  0  0  0  0  0  0
  153.3086  139.5012  158.9213 H   0  0  0  0  0  0  0  0  0  0  0  0
  154.3693  140.2078  161.0979 H   0  0  0  0  0  0  0  0  0  0  0  0
  154.5394  141.4184  159.8449 H   0  0  0  0  0  0  0  0  0  0  0  0
  152.4778  141.4272  162.0994 H   0  0  0  0  0  0  0  0  0  0  0  0
  153.8159  142.5392  161.9122 H   0  0  0  0  0  0  0  0  0  0  0  0
  151.6364  143.5326  161.1294 H   0  0  0  0  0  0  0  0  0  0  0  0
  152.8017  143.4605  159.8222 H   0  0  0  0  0  0  0  0  0  0  0  0
  147.6367  137.9937  159.8810 H   0  0  0  0  0  0  0  0  0  0  0  0
  147.2557  137.4550  162.1960 H   0  0  0  0  0  0  0  0  0  0  0  0
  146.5011  135.6580  163.7512 H   0  0  0  0  0  0  0  0  0  0  0  0
  146.6247  133.2754  163.0103 H   0  0  0  0  0  0  0  0  0  0  0  0
  1  2  1  0  0  0  0
  1 24  1  0  0  0  0
  1 25  1  0  0  0  0
  1 26  1  0  0  0  0
  2  3  1  0  0  0  0
  2 11  1  0  0  0  0
  2 27  1  0  0  0  0
  3  4  1  0  0  0  0
  4  5  1  0  0  0  0
  4 28  1  0  0  0  0
  4 29  1  0  0  0  0
  5 10  1  0  0  0  0
  5  6  1  0  0  0  0
  5 30  1  0  0  0  0
  6  7  1  0  0  0  0
  6 31  1  0  0  0  0
  6 32  1  0  0  0  0
  7  8  1  0  0  0  0
  7 33  1  0  0  0  0
  7 34  1  0  0  0  0
  8  9  1  0  0  0  0
  8 35  1  0  0  0  0
  8 36  1  0  0  0  0
  9 10  1  0  0  0  0
  9 37  1  0  0  0  0
  9 38  1  0  0  0  0
 11 12  2  0  0  0  0
 11 13  1  0  0  0  0
 13 14  1  0  0  0  0
 13 39  1  0  0  0  0
 14 23  1  0  0  0  0
 14 15  2  0  0  0  0
 15 16  1  0  0  0  0
 15 40  1  0  0  0  0
 16 17  2  0  0  0  0
 16 41  1  0  0  0  0
 17 18  1  0  0  0  0
 17 42  1  0  0  0  0
 18 19  1  0  0  0  0
 18 23  2  0  0  0  0
 19 20  1  0  0  0  0
 19 21  1  0  0  0  0
 19 22  1  0  0  0  0
M  END
> <s_m_source_file>
AV-unprocessed.smi

> <i_m_source_file_index>
946

> <i_lp_mmshare_version>
43012

> <i_f3d_flags>
0

> <s_epik_input>
TzFbQ0gyXVtDSDJdW0NIMl1bQ0gyXVtDQEhdMVtDSDJdT1tDQEBIXShbQ0gzXSlDKD1PKVtOSF1jMltjSF1bY0hdW2NIXWMobjIpQyhGKShGKUY=

> <s_epik_cmdline>
J2VwaWtfcHl0aG9uJywgJy1waCcsICc3LjAnLCAnLXRuJywgJzgnLCAnLW1hJywgJzIwMCcsICctbWV0YWxfYmluZGluZycsICctaW1hZScsICc8aW5maWxlLm1hZT4nLCAnLW9tYWUnLCAnPG91dGZpbGUubWFlPic=

> <r_lp_tautomer_probability>
1

> <r_epik_Ionization_Penalty>
1.32683e-06

> <r_epik_Ionization_Penalty_Charging>
0

> <r_epik_Ionization_Penalty_Neutral>
1.32683e-06

> <r_epik_State_Penalty>
-0

> <r_epik_Charging_Adjusted_Penalty>
0

> <i_epik_Tot_Q>
0

> <i_epik_Tot_abs_Q>
0

> <r_epik_Metal_State_Penalty>
-0

> <b_epik_Metal_Only>
0

> <s_lp_Force_Field>
OPLS_2005

> <r_lp_Energy>
15.1486

> <b_lp_Chiralities_Consistent>
1

> <s_lp_Variant>
AV-unprocessed.smi:946-1

> <Gold.Version>
5.8.1

> <Gold.Id.Protein>
6NUR|6NUR_protein|mol2

> <Gold.PLP.Fitness>
45.9272

> <Gold.PLP.PLP>
-44.7478

> <Gold.PLP.part.hbond>
-1.6042

> <Gold.PLP.part.metal>
0.0000

> <Gold.PLP.part.buried>
-6.1239

> <Gold.PLP.part.nonpolar>
-36.7867

> <Gold.PLP.part.repulsive>
0.2329

> <Gold.PLP.ligand.clash>
0.0000

> <Gold.PLP.ligand.torsion>
0.9860

> <Gold.PLP.Chemscore.Hbond>
1.0000

> <Gold.PLP.Chemscore.CHOScore>
0.0000

> <Gold.PLP.Chemscore.Metal>
0.0000

> <Gold.Chemscore.Hbonds>
donor molecule, donor type, donor heavy atom, donor atom, acceptor molecule, acceptor atom, score
      P1  H  6896  6908       L1    12  1.00

> <Gold.PLP.Chemscore.Internal.Correction>
0.1513

> <Gold.Rescore>
     Score         DG    S(hbond)    S(metal)    S(lipo)     H(rot)  DE(clash)    DE(int)     intcor
     13.72     -15.52       0.98        0.00      96.28       1.76       0.04       1.77       ----

> <Gold.Chemscore.Fitness>
13.7171

> <Gold.Chemscore.DG>
-15.5245

> <Gold.Chemscore.ZeroCoef>
-5.4800

> <Gold.Chemscore.Hbond>
0.9804

> <Gold.Chemscore.Metal>
0.0000

> <Gold.Chemscore.Lipo>
96.2775

> <Gold.Chemscore.Internal_Hbond>
0.0000

> <Gold.Chemscore.DEClash>
0.0414

> <Gold.Chemscore.DEInternal>
1.7661

> <Gold.Chemscore.Rot>
1.7557

> <Gold.Chemscore.Internal.Correction>
   9.000000E+99

> <Gold.Chemscore.Hbonds>
donor molecule, donor type, donor heavy atom, donor atom, acceptor molecule, acceptor atom, score
      P1  H  6896  6908       L1    12  0.98

> <Gold.Chemscore.Hbond.Weighted>
-3.2747

> <Gold.Chemscore.Metal.Weighted>
-0.0000

> <Gold.Chemscore.Lipo.Weighted>
-11.2645

> <Gold.Chemscore.Internal_Hbond.Weighted>
0.0000

> <Gold.Chemscore.DEClash.Weighted>
0.0414

> <Gold.Chemscore.DEInternal.Weighted>
1.7661

> <Gold.Chemscore.Rot.Weighted>
4.4946

> <Gold.Chemscore.Internal.Correction.Weighted>
   9.000000E+99

> <Gold.Protein.RotatedTorsions>
[ 6907 6896 6895 6894 ] final -178.63 input  -60.11 | X-H torsion
[ 7974 7965 7964 7962 ] final -132.01 input  175.53 | X-H torsion
[ 8008 7997 7996 7995 ] final   87.89 input   59.86 | X-H torsion
[ 10167 10162 10161 10158 ] final   39.57 input  -65.29 | X-H torsion
[ 10718 10713 10712 10709 ] final    9.28 input   66.30 | X-H torsion
[ 10763 10752 10751 10750 ] final   68.44 input  -60.55 | X-H torsion
[ 11005 11000 10999 10996 ] final   94.79 input  -57.11 | X-H torsion

> <Gold.Protein.ActiveResidues>
 VAL166  LYS551  ARG553  GLY616  TRP617  ASP618  TYR619  PRO620  LYS621  CYS622 
 ASP623  PHE694  ASN695  SER759  ASP760  ASP761  ALA762  ILE779  LEU786  VAL792 
 PHE793  MET794  SER795  GLU796  ALA797  LYS798  CYS799  TRP800  GLU811  SER814 

> <Gold.Protein.RotatedAtoms>
  151.6403  133.3326  159.3128 H   0  0  0  0  0  0  0  0  0  0  0  0  # atno 6907 bound_to 6896
  150.8011  134.7110  159.6613 H   0  0  0  0  0  0  0  0  0  0  0  0  # atno 6908 bound_to 6896
  152.4104  134.6139  160.0084 H   0  0  0  0  0  0  0  0  0  0  0  0  # atno 6909 bound_to 6896
  144.9325  140.7145  143.4897 H   0  0  0  0  0  0  0  0  0  0  0  0  # atno 7974 bound_to 7965
  155.9810  140.3377  155.6663 H   0  0  0  0  0  0  0  0  0  0  0  0  # atno 8008 bound_to 7997
  155.6549  140.0709  157.2592 H   0  0  0  0  0  0  0  0  0  0  0  0  # atno 8009 bound_to 7997
  154.4192  140.1719  156.1701 H   0  0  0  0  0  0  0  0  0  0  0  0  # atno 8010 bound_to 7997
  140.3827  144.1959  150.6130 H   0  0  0  0  0  0  0  0  0  0  0  0  # atno 10167 bound_to 10162
  156.9641  130.5944  149.5664 H   0  0  0  0  0  0  0  0  0  0  0  0  # atno 10718 bound_to 10713
  153.0235  135.5247  154.7135 H   0  0  0  0  0  0  0  0  0  0  0  0  # atno 10763 bound_to 10752
  154.6210  135.2889  155.0328 H   0  0  0  0  0  0  0  0  0  0  0  0  # atno 10764 bound_to 10752
  154.1314  135.6592  153.4975 H   0  0  0  0  0  0  0  0  0  0  0  0  # atno 10765 bound_to 10752
  139.8795  134.8864  156.3915 H   0  0  0  0  0  0  0  0  0  0  0  0  # atno 11005 bound_to 11000
  145.3119  139.1816  143.4634 LP  0  0  0  0  0  0  0  0  0  0  0  0  # atno 17320 bound_to 7965
  146.3253  140.3125  142.8627 LP  0  0  0  0  0  0  0  0  0  0  0  0  # atno 17321 bound_to 7965
  140.4921  143.2344  151.8803 LP  0  0  0  0  0  0  0  0  0  0  0  0  # atno 17342 bound_to 10162
  139.4794  144.5154  151.8875 LP  0  0  0  0  0  0  0  0  0  0  0  0  # atno 17343 bound_to 10162
  156.0310  130.5401  150.8533 LP  0  0  0  0  0  0  0  0  0  0  0  0  # atno 17370 bound_to 10713
  157.5638  131.0946  150.9520 LP  0  0  0  0  0  0  0  0  0  0  0  0  # atno 17371 bound_to 10713
  140.9329  133.7567  156.0048 LP  0  0  0  0  0  0  0  0  0  0  0  0  # atno 17394 bound_to 11000
  140.8309  134.3179  157.5349 LP  0  0  0  0  0  0  0  0  0  0  0  0  # atno 17395 bound_to 11000

$$$$
