AV-unprocessed.smi:1743|AV-procd|sdf|7023|dock3
  -GOLD-   22720 8243D 1   1.00000     0.00000
 Structure written by MMmdl.
 38 39  0  0  0  0  0  0  0  0  1 V2000
  152.9316  130.7661  158.0252 C   0  0  0  0  0  0  0  0  0  0  0  0
  152.4932  132.1019  157.8017 O   0  0  0  0  0  0  0  0  0  0  0  0
  151.5083  132.3190  156.8600 C   0  0  0  0  0  0  0  0  0  0  0  0
  151.2064  131.2867  155.9496 C   0  0  0  0  0  0  0  0  0  0  0  0
  150.2043  131.5009  154.9840 C   0  0  0  0  0  0  0  0  0  0  0  0
  149.5382  132.7492  154.9551 C   0  0  0  0  0  0  0  0  0  0  0  0
  148.4983  133.0785  154.0445 N   0  0  0  0  0  0  0  0  0  0  0  0
  147.7811  132.2538  153.2621 C   0  0  0  0  0  0  0  0  0  0  0  0
  147.9457  131.0371  153.1749 O   0  0  0  0  0  0  0  0  0  0  0  0
  146.8632  132.9335  152.5595 N   0  0  0  0  0  0  0  0  0  0  0  0
  145.9229  132.3615  151.5992 C   0  0  2  0  0  0  0  0  0  0  0  0
  146.3557  132.7218  150.1659 C   0  0  0  0  0  0  0  0  0  0  0  0
  145.3490  132.2040  149.1231 C   0  0  0  0  0  0  0  0  0  0  0  0
  143.9123  132.6801  149.4102 C   0  0  2  0  0  0  0  0  0  0  0  0
  143.8044  134.0688  149.1672 O   0  0  0  0  0  0  0  0  0  0  0  0
  143.4885  132.3621  150.8567 C   0  0  0  0  0  0  0  0  0  0  0  0
  144.5033  132.8816  151.8903 C   0  0  0  0  0  0  0  0  0  0  0  0
  149.9031  133.7100  155.9207 C   0  0  0  0  0  0  0  0  0  0  0  0
  150.8640  133.5122  156.8475 N   0  0  0  0  0  0  0  0  0  0  0  0
  153.7071  130.7639  158.7910 H   0  0  0  0  0  0  0  0  0  0  0  0
  153.3581  130.3288  157.1214 H   0  0  0  0  0  0  0  0  0  0  0  0
  152.1161  130.1332  158.3780 H   0  0  0  0  0  0  0  0  0  0  0  0
  151.7317  130.3441  155.9935 H   0  0  0  0  0  0  0  0  0  0  0  0
  149.9584  130.7037  154.3000 H   0  0  0  0  0  0  0  0  0  0  0  0
  148.3122  134.0650  153.9385 H   0  0  0  0  0  0  0  0  0  0  0  0
  146.8116  133.9324  152.6960 H   0  0  0  0  0  0  0  0  0  0  0  0
  145.9060  131.2737  151.6880 H   0  0  0  0  0  0  0  0  0  0  0  0
  146.4533  133.8042  150.0692 H   0  0  0  0  0  0  0  0  0  0  0  0
  147.3422  132.3056  149.9590 H   0  0  0  0  0  0  0  0  0  0  0  0
  145.6558  132.5094  148.1220 H   0  0  0  0  0  0  0  0  0  0  0  0
  145.3681  131.1135  149.1266 H   0  0  0  0  0  0  0  0  0  0  0  0
  143.2283  132.1842  148.7206 H   0  0  0  0  0  0  0  0  0  0  0  0
  144.5620  134.3472  148.6760 H   0  0  0  0  0  0  0  0  0  0  0  0
  142.4998  132.7743  151.0615 H   0  0  0  0  0  0  0  0  0  0  0  0
  143.3949  131.2811  150.9688 H   0  0  0  0  0  0  0  0  0  0  0  0
  144.1936  132.5764  152.8906 H   0  0  0  0  0  0  0  0  0  0  0  0
  144.5001  133.9725  151.8875 H   0  0  0  0  0  0  0  0  0  0  0  0
  149.4125  134.6720  155.9495 H   0  0  0  0  0  0  0  0  0  0  0  0
  1  2  1  0  0  0  0
  1 20  1  0  0  0  0
  1 21  1  0  0  0  0
  1 22  1  0  0  0  0
  2  3  1  0  0  0  0
  3 19  1  0  0  0  0
  3  4  2  0  0  0  0
  4  5  1  0  0  0  0
  4 23  1  0  0  0  0
  5  6  2  0  0  0  0
  5 24  1  0  0  0  0
  6  7  1  0  0  0  0
  6 18  1  0  0  0  0
  7  8  1  0  0  0  0
  7 25  1  0  0  0  0
  8  9  2  0  0  0  0
  8 10  1  0  0  0  0
 10 11  1  0  0  0  0
 10 26  1  0  0  0  0
 11 17  1  0  0  0  0
 11 12  1  0  0  0  0
 11 27  1  0  0  0  0
 12 13  1  0  0  0  0
 12 28  1  0  0  0  0
 12 29  1  0  0  0  0
 13 14  1  0  0  0  0
 13 30  1  0  0  0  0
 13 31  1  0  0  0  0
 14 15  1  0  0  0  0
 14 16  1  0  0  0  0
 14 32  1  0  0  0  0
 15 33  1  0  0  0  0
 16 17  1  0  0  0  0
 16 34  1  0  0  0  0
 16 35  1  0  0  0  0
 17 36  1  0  0  0  0
 17 37  1  0  0  0  0
 18 19  2  0  0  0  0
 18 38  1  0  0  0  0
M  END
> <s_m_source_file>
AV-unprocessed.smi

> <i_m_source_file_index>
1743

> <i_lp_mmshare_version>
43012

> <i_f3d_flags>
0

> <s_epik_input>
W0NIM11PYzFbY0hdW2NIXWMoW2NIXW4xKVtOSF1DKD1PKVtOSF1bQ0BASF0yW0NIMl1bQ0gyXVtDQEBIXShbT0hdKVtDSDJdW0NIMl0y

> <s_epik_cmdline>
J2VwaWtfcHl0aG9uJywgJy1waCcsICc3LjAnLCAnLXRuJywgJzgnLCAnLW1hJywgJzIwMCcsICctbWV0YWxfYmluZGluZycsICctaW1hZScsICc8aW5maWxlLm1hZT4nLCAnLW9tYWUnLCAnPG91dGZpbGUubWFlPic=

> <r_lp_tautomer_probability>
1

> <r_epik_Ionization_Penalty>
9.95686e-05

> <r_epik_Ionization_Penalty_Charging>
0

> <r_epik_Ionization_Penalty_Neutral>
9.95686e-05

> <r_epik_State_Penalty>
-0

> <r_epik_Charging_Adjusted_Penalty>
0

> <i_epik_Tot_Q>
0

> <i_epik_Tot_abs_Q>
0

> <r_epik_Metal_State_Penalty>
-0

> <b_epik_Metal_Only>
0

> <s_lp_Force_Field>
OPLS_2005

> <r_lp_Energy>
13.581

> <b_lp_Chiralities_Consistent>
1

> <s_lp_Variant>
AV-unprocessed.smi:1743-2

> <Gold.Version>
5.8.1

> <Gold.Id.Protein>
6NUR|6NUR_protein|mol2

> <Gold.PLP.Fitness>
40.9442

> <Gold.PLP.PLP>
-35.7477

> <Gold.PLP.part.hbond>
-3.3060

> <Gold.PLP.part.metal>
0.0000

> <Gold.PLP.part.buried>
-5.0904

> <Gold.PLP.part.nonpolar>
-26.8911

> <Gold.PLP.part.repulsive>
0.1262

> <Gold.PLP.ligand.clash>
0.0476

> <Gold.PLP.ligand.torsion>
0.3798

> <Gold.PLP.Chemscore.Hbond>
2.0000

> <Gold.PLP.Chemscore.CHOScore>
0.0000

> <Gold.PLP.Chemscore.Metal>
0.0000

> <Gold.Chemscore.Hbonds>
donor molecule, donor type, donor heavy atom, donor atom, acceptor molecule, acceptor atom, score
      L1  H    15    33       P1  7921  1.00
      P1  H  6896  6909       L1     2  0.88

> <Gold.PLP.Chemscore.Internal.Correction>
0.0036

> <Gold.Rescore>
     Score         DG    S(hbond)    S(metal)    S(lipo)     H(rot)  DE(clash)    DE(int)     intcor
     14.60     -16.09       1.74        0.00      79.87       1.77       0.15       1.34       ----

> <Gold.Chemscore.Fitness>
14.5962

> <Gold.Chemscore.DG>
-16.0887

> <Gold.Chemscore.ZeroCoef>
-5.4800

> <Gold.Chemscore.Hbond>
1.7360

> <Gold.Chemscore.Metal>
0.0000

> <Gold.Chemscore.Lipo>
79.8744

> <Gold.Chemscore.Internal_Hbond>
0.0000

> <Gold.Chemscore.DEClash>
0.1476

> <Gold.Chemscore.DEInternal>
1.3449

> <Gold.Chemscore.Rot>
1.7714

> <Gold.Chemscore.Internal.Correction>
   9.000000E+99

> <Gold.Chemscore.Hbonds>
donor molecule, donor type, donor heavy atom, donor atom, acceptor molecule, acceptor atom, score
      L1  H    15    33       P1  7921  0.99
      P1  H  6896  6909       L1     2  0.50

> <Gold.Chemscore.Hbond.Weighted>
-5.7981

> <Gold.Chemscore.Metal.Weighted>
-0.0000

> <Gold.Chemscore.Lipo.Weighted>
-9.3453

> <Gold.Chemscore.Internal_Hbond.Weighted>
0.0000

> <Gold.Chemscore.DEClash.Weighted>
0.1476

> <Gold.Chemscore.DEInternal.Weighted>
1.3449

> <Gold.Chemscore.Rot.Weighted>
4.5347

> <Gold.Chemscore.Internal.Correction.Weighted>
   9.000000E+99

> <Gold.Protein.RotatedTorsions>
[ 6907 6896 6895 6894 ] final  -87.00 input  -60.11 | X-H torsion
[ 7974 7965 7964 7962 ] final -167.89 input  175.53 | X-H torsion
[ 8008 7997 7996 7995 ] final  138.53 input   59.86 | X-H torsion
[ 10167 10162 10161 10158 ] final -139.15 input  -65.29 | X-H torsion
[ 10718 10713 10712 10709 ] final  179.14 input   66.30 | X-H torsion
[ 10763 10752 10751 10750 ] final  -67.61 input  -60.55 | X-H torsion
[ 11005 11000 10999 10996 ] final -147.64 input  -57.11 | X-H torsion

> <Gold.Protein.ActiveResidues>
 VAL166  LYS551  ARG553  GLY616  TRP617  ASP618  TYR619  PRO620  LYS621  CYS622 
 ASP623  PHE694  ASN695  SER759  ASP760  ASP761  ALA762  ILE779  LEU786  VAL792 
 PHE793  MET794  SER795  GLU796  ALA797  LYS798  CYS799  TRP800  GLU811  SER814 

> <Gold.Protein.RotatedAtoms>
  150.6866  134.2964  159.4687 H   0  0  0  0  0  0  0  0  0  0  0  0  # atno 6907 bound_to 6896
  152.0864  134.9434  160.0582 H   0  0  0  0  0  0  0  0  0  0  0  0  # atno 6908 bound_to 6896
  152.0767  133.4098  159.4520 H   0  0  0  0  0  0  0  0  0  0  0  0  # atno 6909 bound_to 6896
  144.7214  140.2451  143.6286 H   0  0  0  0  0  0  0  0  0  0  0  0  # atno 7974 bound_to 7965
  156.2996  140.2391  156.4089 H   0  0  0  0  0  0  0  0  0  0  0  0  # atno 8008 bound_to 7997
  154.8459  140.0426  157.1592 H   0  0  0  0  0  0  0  0  0  0  0  0  # atno 8009 bound_to 7997
  154.9052  140.2982  155.5300 H   0  0  0  0  0  0  0  0  0  0  0  0  # atno 8010 bound_to 7997
  139.8408  143.7324  152.2663 H   0  0  0  0  0  0  0  0  0  0  0  0  # atno 10167 bound_to 10162
  156.8802  130.9813  151.3063 H   0  0  0  0  0  0  0  0  0  0  0  0  # atno 10718 bound_to 10713
  154.3771  135.6082  153.5770 H   0  0  0  0  0  0  0  0  0  0  0  0  # atno 10763 bound_to 10752
  152.9789  135.5852  154.4454 H   0  0  0  0  0  0  0  0  0  0  0  0  # atno 10764 bound_to 10752
  154.4217  135.2846  155.1948 H   0  0  0  0  0  0  0  0  0  0  0  0  # atno 10765 bound_to 10752
  140.7696  134.3205  157.5079 H   0  0  0  0  0  0  0  0  0  0  0  0  # atno 11005 bound_to 11000
  145.8282  139.2074  143.1898 LP  0  0  0  0  0  0  0  0  0  0  0  0  # atno 17320 bound_to 7965
  146.0454  140.8123  142.9808 LP  0  0  0  0  0  0  0  0  0  0  0  0  # atno 17321 bound_to 7965
  139.7561  144.7520  151.0433 LP  0  0  0  0  0  0  0  0  0  0  0  0  # atno 17342 bound_to 10162
  140.7798  143.4804  151.0026 LP  0  0  0  0  0  0  0  0  0  0  0  0  # atno 17343 bound_to 10162
  157.6145  130.8608  149.9005 LP  0  0  0  0  0  0  0  0  0  0  0  0  # atno 17370 bound_to 10713
  156.0681  130.3689  150.0834 LP  0  0  0  0  0  0  0  0  0  0  0  0  # atno 17371 bound_to 10713
  139.8758  134.9252  156.3370 LP  0  0  0  0  0  0  0  0  0  0  0  0  # atno 17394 bound_to 11000
  140.9586  133.7403  156.0370 LP  0  0  0  0  0  0  0  0  0  0  0  0  # atno 17395 bound_to 11000

$$$$
