AV-unprocessed.smi:1998|AV-procd|sdf|8091|dock1
  -GOLD-   2272010303D 1   1.00000     0.00000
 Structure written by MMmdl.
 48 49  0  0  0  0  0  0  0  0  2 V2000
  151.9165  144.3937  159.5083 C   0  0  0  0  0  0  0  0  0  0  0  0
  152.4952  143.0271  159.7282 C   0  0  0  0  0  0  0  0  0  0  0  0
  153.1463  142.5218  160.8882 C   0  0  0  0  0  0  0  0  0  0  0  0
  153.4734  141.2366  160.5588 C   0  0  0  0  0  0  0  0  0  0  0  0
  154.1730  140.1849  161.3553 C   0  0  0  0  0  0  0  0  0  0  0  0
  153.0255  141.0275  159.2664 N   0  0  0  0  0  0  0  0  0  0  0  0
  153.1248  139.8303  158.4433 C   0  0  0  0  0  0  0  0  0  0  0  0
  151.7611  139.3306  157.9505 C   0  0  0  0  0  0  0  0  0  0  0  0
  150.7125  139.8246  158.3673 O   0  0  0  0  0  0  0  0  0  0  0  0
  151.7961  138.3266  157.0603 N   0  0  0  0  0  0  0  0  0  0  0  0
  150.6316  137.6670  156.4686 C   0  0  0  0  0  0  0  0  0  0  0  0
  150.7019  137.5289  154.9162 C   0  0  0  0  0  0  0  0  0  0  0  0
  149.9757  138.7560  154.3031 C   0  0  0  0  0  0  0  0  0  0  0  0
  152.1714  137.5591  154.4279 C   0  0  0  0  0  0  0  0  0  0  0  0
  150.0236  136.2392  154.5191 N   0  3  0  0  0  0  0  0  0  0  0  0
  150.8117  134.9884  154.7182 C   0  0  0  0  0  0  0  0  0  0  0  0
  150.0657  133.7699  154.1452 C   0  0  0  0  0  0  0  0  0  0  0  0
  148.7767  133.6641  154.7305 O   0  0  0  0  0  0  0  0  0  0  0  0
  147.9831  134.8076  154.4523 C   0  0  0  0  0  0  0  0  0  0  0  0
  148.6498  136.0471  155.0686 C   0  0  0  0  0  0  0  0  0  0  0  0
  152.4246  142.1271  158.7613 N   0  0  0  0  0  0  0  0  0  0  0  0
  152.0233  145.0143  160.3982 H   0  0  0  0  0  0  0  0  0  0  0  0
  150.8543  144.3372  159.2692 H   0  0  0  0  0  0  0  0  0  0  0  0
  152.4175  144.9047  158.6857 H   0  0  0  0  0  0  0  0  0  0  0  0
  153.3443  143.0277  161.8218 H   0  0  0  0  0  0  0  0  0  0  0  0
  154.4830  140.5733  162.3255 H   0  0  0  0  0  0  0  0  0  0  0  0
  155.0636  139.8307  160.8360 H   0  0  0  0  0  0  0  0  0  0  0  0
  153.5184  139.3309  161.5296 H   0  0  0  0  0  0  0  0  0  0  0  0
  153.7713  140.0455  157.5918 H   0  0  0  0  0  0  0  0  0  0  0  0
  153.6085  139.0384  159.0171 H   0  0  0  0  0  0  0  0  0  0  0  0
  152.7028  137.9827  156.7786 H   0  0  0  0  0  0  0  0  0  0  0  0
  150.4913  136.7028  156.9548 H   0  0  0  0  0  0  0  0  0  0  0  0
  149.7558  138.2573  156.7402 H   0  0  0  0  0  0  0  0  0  0  0  0
  150.3917  139.6987  154.6587 H   0  0  0  0  0  0  0  0  0  0  0  0
  148.9140  138.7585  154.5520 H   0  0  0  0  0  0  0  0  0  0  0  0
  150.0710  138.7911  153.2177 H   0  0  0  0  0  0  0  0  0  0  0  0
  152.6249  138.5379  154.5867 H   0  0  0  0  0  0  0  0  0  0  0  0
  152.2474  137.3471  153.3615 H   0  0  0  0  0  0  0  0  0  0  0  0
  152.7938  136.8373  154.9573 H   0  0  0  0  0  0  0  0  0  0  0  0
  151.7731  135.0330  154.2094 H   0  0  0  0  0  0  0  0  0  0  0  0
  151.0107  134.8387  155.7799 H   0  0  0  0  0  0  0  0  0  0  0  0
  149.9780  133.8434  153.0600 H   0  0  0  0  0  0  0  0  0  0  0  0
  150.6229  132.8570  154.3559 H   0  0  0  0  0  0  0  0  0  0  0  0
  147.8481  134.9266  153.3759 H   0  0  0  0  0  0  0  0  0  0  0  0
  146.9926  134.6607  154.8831 H   0  0  0  0  0  0  0  0  0  0  0  0
  148.6918  135.9176  156.1506 H   0  0  0  0  0  0  0  0  0  0  0  0
  148.0139  136.9084  154.8773 H   0  0  0  0  0  0  0  0  0  0  0  0
  149.9084  136.3100  153.5180 H   0  0  0  0  0  0  0  0  0  0  0  0
  1  2  1  0  0  0  0
  1 22  1  0  0  0  0
  1 23  1  0  0  0  0
  1 24  1  0  0  0  0
  2 21  2  0  0  0  0
  2  3  1  0  0  0  0
  3  4  2  0  0  0  0
  3 25  1  0  0  0  0
  4  5  1  0  0  0  0
  4  6  1  0  0  0  0
  5 26  1  0  0  0  0
  5 27  1  0  0  0  0
  5 28  1  0  0  0  0
  6  7  1  0  0  0  0
  6 21  1  0  0  0  0
  7  8  1  0  0  0  0
  7 29  1  0  0  0  0
  7 30  1  0  0  0  0
  8  9  2  0  0  0  0
  8 10  1  0  0  0  0
 10 11  1  0  0  0  0
 10 31  1  0  0  0  0
 11 12  1  0  0  0  0
 11 32  1  0  0  0  0
 11 33  1  0  0  0  0
 12 13  1  0  0  0  0
 12 14  1  0  0  0  0
 12 15  1  0  0  0  0
 13 34  1  0  0  0  0
 13 35  1  0  0  0  0
 13 36  1  0  0  0  0
 14 37  1  0  0  0  0
 14 38  1  0  0  0  0
 14 39  1  0  0  0  0
 15 20  1  0  0  0  0
 15 16  1  0  0  0  0
 15 48  1  0  0  0  0
 16 17  1  0  0  0  0
 16 40  1  0  0  0  0
 16 41  1  0  0  0  0
 17 18  1  0  0  0  0
 17 42  1  0  0  0  0
 17 43  1  0  0  0  0
 18 19  1  0  0  0  0
 19 20  1  0  0  0  0
 19 44  1  0  0  0  0
 19 45  1  0  0  0  0
 20 46  1  0  0  0  0
 20 47  1  0  0  0  0
M  CHG  1  15   1
M  END
> <s_m_source_file>
AV-unprocessed.smi

> <i_m_source_file_index>
1998

> <i_lp_mmshare_version>
43012

> <i_f3d_flags>
0

> <s_epik_input>
W0NIM11jMVtjSF1jKFtDSDNdKW4objEpW0NIMl1DKD1PKVtOSF1bQ0gyXUMoW0NIM10pKFtDSDNdKU4yW0NIMl1bQ0gyXU9bQ0gyXVtDSDJdMg==

> <s_epik_cmdline>
J2VwaWtfcHl0aG9uJywgJy1waCcsICc3LjAnLCAnLXRuJywgJzgnLCAnLW1hJywgJzIwMCcsICctbWV0YWxfYmluZGluZycsICctaW1hZScsICc8aW5maWxlLm1hZT4nLCAnLW9tYWUnLCAnPG91dGZpbGUubWFlPic=

> <r_lp_tautomer_probability>
1

> <r_epik_Ionization_Penalty>
0.748602

> <r_epik_Ionization_Penalty_Charging>
0.748396

> <r_epik_Ionization_Penalty_Neutral>
0.000205295

> <r_epik_State_Penalty>
0.775162

> <r_epik_Charging_Adjusted_Penalty>
1.52356

> <i_epik_Tot_Q>
1

> <i_epik_Tot_abs_Q>
1

> <r_epik_Metal_State_Penalty>
0.775274

> <b_epik_Metal_Only>
0

> <s_lp_Force_Field>
OPLS_2005

> <r_lp_Energy>
25.5475

> <b_lp_Chiralities_Consistent>
1

> <s_lp_Variant>
AV-unprocessed.smi:1998-2

> <Gold.Version>
5.8.1

> <Gold.Id.Protein>
6NUR|6NUR_protein|mol2

> <Gold.PLP.Fitness>
43.9864

> <Gold.PLP.PLP>
-39.9803

> <Gold.PLP.part.hbond>
-1.0000

> <Gold.PLP.part.metal>
0.0000

> <Gold.PLP.part.buried>
-4.2805

> <Gold.PLP.part.nonpolar>
-33.9464

> <Gold.PLP.part.repulsive>
0.1619

> <Gold.PLP.ligand.clash>
0.0000

> <Gold.PLP.ligand.torsion>
1.0669

> <Gold.PLP.Chemscore.Hbond>
2.0000

> <Gold.PLP.Chemscore.CHOScore>
0.0000

> <Gold.PLP.Chemscore.Metal>
0.0000

> <Gold.Chemscore.Hbonds>
donor molecule, donor type, donor heavy atom, donor atom, acceptor molecule, acceptor atom, score
      L1  H    15    48       P1  7948  1.60

> <Gold.PLP.Chemscore.Internal.Correction>
0.1398

> <Gold.Rescore>
     Score         DG    S(hbond)    S(metal)    S(lipo)     H(rot)  DE(clash)    DE(int)     intcor
     14.16     -16.42       0.98        0.00     103.65       1.74       0.21       2.06       ----

> <Gold.Chemscore.Fitness>
14.1604

> <Gold.Chemscore.DG>
-16.4214

> <Gold.Chemscore.ZeroCoef>
-5.4800

> <Gold.Chemscore.Hbond>
0.9774

> <Gold.Chemscore.Metal>
0.0000

> <Gold.Chemscore.Lipo>
103.6493

> <Gold.Chemscore.Internal_Hbond>
0.0000

> <Gold.Chemscore.DEClash>
0.2059

> <Gold.Chemscore.DEInternal>
2.0551

> <Gold.Chemscore.Rot>
1.7383

> <Gold.Chemscore.Internal.Correction>
   9.000000E+99

> <Gold.Chemscore.Hbonds>
donor molecule, donor type, donor heavy atom, donor atom, acceptor molecule, acceptor atom, score
      L1  H    15    48       P1  7948  0.12

> <Gold.Chemscore.Hbond.Weighted>
-3.2646

> <Gold.Chemscore.Metal.Weighted>
-0.0000

> <Gold.Chemscore.Lipo.Weighted>
-12.1270

> <Gold.Chemscore.Internal_Hbond.Weighted>
0.0000

> <Gold.Chemscore.DEClash.Weighted>
0.2059

> <Gold.Chemscore.DEInternal.Weighted>
2.0551

> <Gold.Chemscore.Rot.Weighted>
4.4501

> <Gold.Chemscore.Internal.Correction.Weighted>
   9.000000E+99

> <Gold.Protein.RotatedTorsions>
[ 6907 6896 6895 6894 ] final  -57.64 input  -60.11 | X-H torsion
[ 7974 7965 7964 7962 ] final  109.34 input  175.53 | X-H torsion
[ 8008 7997 7996 7995 ] final   47.06 input   59.86 | X-H torsion
[ 10167 10162 10161 10158 ] final -149.87 input  -65.29 | X-H torsion
[ 10718 10713 10712 10709 ] final  112.09 input   66.30 | X-H torsion
[ 10763 10752 10751 10750 ] final  112.65 input  -60.55 | X-H torsion
[ 11005 11000 10999 10996 ] final  -56.77 input  -57.11 | X-H torsion

> <Gold.Protein.ActiveResidues>
 VAL166  LYS551  ARG553  GLY616  TRP617  ASP618  TYR619  PRO620  LYS621  CYS622 
 ASP623  PHE694  ASN695  SER759  ASP760  ASP761  ALA762  ILE779  LEU786  VAL792 
 PHE793  MET794  SER795  GLU796  ALA797  LYS798  CYS799  TRP800  GLU811  SER814 

> <Gold.Protein.RotatedAtoms>
  150.8070  134.7201  159.6652 H   0  0  0  0  0  0  0  0  0  0  0  0  # atno 6907 bound_to 6896
  152.4189  134.5987  160.0004 H   0  0  0  0  0  0  0  0  0  0  0  0  # atno 6908 bound_to 6896
  151.6208  133.3302  159.3123 H   0  0  0  0  0  0  0  0  0  0  0  0  # atno 6909 bound_to 6896
  145.2690  139.2674  143.3976 H   0  0  0  0  0  0  0  0  0  0  0  0  # atno 7974 bound_to 7965
  155.3628  140.3419  155.4241 H   0  0  0  0  0  0  0  0  0  0  0  0  # atno 8008 bound_to 7997
  156.1704  140.1630  156.8491 H   0  0  0  0  0  0  0  0  0  0  0  0  # atno 8009 bound_to 7997
  154.5228  140.0763  156.8185 H   0  0  0  0  0  0  0  0  0  0  0  0  # atno 8010 bound_to 7997
  139.7404  143.8671  152.2560 H   0  0  0  0  0  0  0  0  0  0  0  0  # atno 10167 bound_to 10162
  157.6411  131.0962  150.6844 H   0  0  0  0  0  0  0  0  0  0  0  0  # atno 10718 bound_to 10713
  153.4810  135.3679  155.2442 H   0  0  0  0  0  0  0  0  0  0  0  0  # atno 10763 bound_to 10752
  154.8755  135.3954  154.3700 H   0  0  0  0  0  0  0  0  0  0  0  0  # atno 10764 bound_to 10752
  153.4304  135.7082  153.6299 H   0  0  0  0  0  0  0  0  0  0  0  0  # atno 10765 bound_to 10752
  141.1135  133.6610  156.4669 H   0  0  0  0  0  0  0  0  0  0  0  0  # atno 11005 bound_to 11000
  146.3252  140.3128  142.8628 LP  0  0  0  0  0  0  0  0  0  0  0  0  # atno 17320 bound_to 7965
  144.9351  140.8018  143.5665 LP  0  0  0  0  0  0  0  0  0  0  0  0  # atno 17321 bound_to 7965
  139.8620  144.7112  150.9088 LP  0  0  0  0  0  0  0  0  0  0  0  0  # atno 17342 bound_to 10162
  140.7785  143.3810  151.1478 LP  0  0  0  0  0  0  0  0  0  0  0  0  # atno 17343 bound_to 10162
  156.7168  130.4668  149.5533 LP  0  0  0  0  0  0  0  0  0  0  0  0  # atno 17370 bound_to 10713
  156.1692  130.6426  151.0817 LP  0  0  0  0  0  0  0  0  0  0  0  0  # atno 17371 bound_to 10713
  140.4711  134.6753  157.5129 LP  0  0  0  0  0  0  0  0  0  0  0  0  # atno 17394 bound_to 11000
  140.0042  134.6789  155.9481 LP  0  0  0  0  0  0  0  0  0  0  0  0  # atno 17395 bound_to 11000

$$$$
