AV-unprocessed.smi:2448|AV-procd|sdf|9659|dock8
  -GOLD-   2272013293D 1   1.00000     0.00000
 Structure written by MMmdl.
 38 39  0  0  0  0  0  0  0  0  2 V2000
  146.7775  140.1503  152.2999 O   0  0  0  0  0  0  0  0  0  0  0  0
  146.8089  139.5589  153.5873 C   0  0  1  0  0  0  0  0  0  0  0  0
  146.3909  138.0808  153.4470 C   0  0  0  0  0  0  0  0  0  0  0  0
  145.1360  137.9328  152.7068 N   0  0  0  0  0  0  0  0  0  0  0  0
  144.4398  136.6446  152.8417 C   0  0  2  0  0  0  0  0  0  0  0  0
  144.0361  136.0264  151.4772 C   0  0  0  0  0  0  0  0  0  0  0  0
  144.8173  134.7898  151.0619 C   0  0  0  0  0  0  0  0  0  0  0  0
  144.3855  134.0060  149.9681 C   0  0  0  0  0  0  0  0  0  0  0  0
  145.1240  132.8614  149.6050 C   0  0  0  0  0  0  0  0  0  0  0  0
  146.2284  132.5233  150.3056 N   0  3  0  0  0  0  0  0  0  0  0  0
  146.6714  133.2382  151.3628 C   0  0  0  0  0  0  0  0  0  0  0  0
  145.9729  134.3923  151.7723 C   0  0  0  0  0  0  0  0  0  0  0  0
  143.2075  136.8220  153.7541 C   0  0  0  0  0  0  0  0  0  0  0  0
  143.5776  137.3645  154.9149 F   0  0  0  0  0  0  0  0  0  0  0  0
  142.3024  137.6133  153.1771 F   0  0  0  0  0  0  0  0  0  0  0  0
  142.6487  135.6391  154.0105 F   0  0  0  0  0  0  0  0  0  0  0  0
  148.2449  139.6925  154.1212 C   0  0  0  0  0  0  0  0  0  0  0  0
  148.4639  141.1543  154.5246 C   0  0  0  0  0  0  0  0  0  0  0  0
  146.8895  141.7887  155.1526 S   0  0  0  0  0  0  0  0  0  0  0  0
  145.9314  140.3680  154.5604 C   0  0  0  0  0  0  0  0  0  0  0  0
  147.6073  139.9960  151.8756 H   0  0  0  0  0  0  0  0  0  0  0  0
  147.1947  137.5283  152.9646 H   0  0  0  0  0  0  0  0  0  0  0  0
  146.2716  137.6530  154.4430 H   0  0  0  0  0  0  0  0  0  0  0  0
  144.5025  138.6847  152.9611 H   0  0  0  0  0  0  0  0  0  0  0  0
  145.0947  135.9457  153.3630 H   0  0  0  0  0  0  0  0  0  0  0  0
  142.9897  135.7229  151.5085 H   0  0  0  0  0  0  0  0  0  0  0  0
  144.0970  136.7854  150.6961 H   0  0  0  0  0  0  0  0  0  0  0  0
  143.5018  134.2785  149.4092 H   0  0  0  0  0  0  0  0  0  0  0  0
  144.8656  132.2106  148.7824 H   0  0  0  0  0  0  0  0  0  0  0  0
  147.5628  132.8666  151.8469 H   0  0  0  0  0  0  0  0  0  0  0  0
  146.3224  134.9619  152.6212 H   0  0  0  0  0  0  0  0  0  0  0  0
  148.3602  139.0674  155.0078 H   0  0  0  0  0  0  0  0  0  0  0  0
  148.9911  139.3566  153.3999 H   0  0  0  0  0  0  0  0  0  0  0  0
  149.2539  141.2613  155.2681 H   0  0  0  0  0  0  0  0  0  0  0  0
  148.7457  141.7465  153.6535 H   0  0  0  0  0  0  0  0  0  0  0  0
  144.9909  140.6905  154.1120 H   0  0  0  0  0  0  0  0  0  0  0  0
  145.6850  139.7607  155.4319 H   0  0  0  0  0  0  0  0  0  0  0  0
  146.7477  131.6903  150.0266 H   0  0  0  0  0  0  0  0  0  0  0  0
  1  2  1  0  0  0  0
  1 21  1  0  0  0  0
  2 20  1  0  0  0  0
  2  3  1  0  0  0  0
  2 17  1  0  0  0  0
  3  4  1  0  0  0  0
  3 22  1  0  0  0  0
  3 23  1  0  0  0  0
  4  5  1  0  0  0  0
  4 24  1  0  0  0  0
  5  6  1  0  0  0  0
  5 13  1  0  0  0  0
  5 25  1  0  0  0  0
  6  7  1  0  0  0  0
  6 26  1  0  0  0  0
  6 27  1  0  0  0  0
  7 12  1  0  0  0  0
  7  8  2  0  0  0  0
  8  9  1  0  0  0  0
  8 28  1  0  0  0  0
  9 10  2  0  0  0  0
  9 29  1  0  0  0  0
 10 11  1  0  0  0  0
 10 38  1  0  0  0  0
 11 12  2  0  0  0  0
 11 30  1  0  0  0  0
 12 31  1  0  0  0  0
 13 14  1  0  0  0  0
 13 15  1  0  0  0  0
 13 16  1  0  0  0  0
 17 18  1  0  0  0  0
 17 32  1  0  0  0  0
 17 33  1  0  0  0  0
 18 19  1  0  0  0  0
 18 34  1  0  0  0  0
 18 35  1  0  0  0  0
 19 20  1  0  0  0  0
 20 36  1  0  0  0  0
 20 37  1  0  0  0  0
M  CHG  1  10   1
M  END
> <s_m_source_file>
AV-unprocessed.smi

> <i_m_source_file_index>
2448

> <i_lp_mmshare_version>
43012

> <i_f3d_flags>
0

> <s_epik_input>
W0NIMl0xU1tDSDJdW0NIMl1bQ0BAXTEoW09IXSlbQ0gyXVtOSF1bQ0BASF0oQyhGKShGKUYpW0NIMl1jMltjSF1bY0hdbltjSF1bY0hdMg==

> <s_epik_cmdline>
J2VwaWtfcHl0aG9uJywgJy1waCcsICc3LjAnLCAnLXRuJywgJzgnLCAnLW1hJywgJzIwMCcsICctbWV0YWxfYmluZGluZycsICctaW1hZScsICc8aW5maWxlLm1hZT4nLCAnLW9tYWUnLCAnPG91dGZpbGUubWFlPic=

> <r_epik_Ionization_Penalty>
1.11129

> <r_epik_Ionization_Penalty_Charging>
1.08366

> <r_epik_Ionization_Penalty_Neutral>
0.0276276

> <r_epik_State_Penalty>
1.93785

> <r_epik_Charging_Adjusted_Penalty>
3.02151

> <i_epik_Tot_Q>
1

> <i_epik_Tot_abs_Q>
1

> <r_epik_Metal_State_Penalty>
5.97911

> <b_epik_Metal_Only>
0

> <s_lp_Force_Field>
OPLS_2005

> <r_lp_Energy>
39.4187

> <b_lp_Chiralities_Consistent>
1

> <s_lp_Variant>
AV-unprocessed.smi:2448-9

> <Gold.Version>
5.8.1

> <Gold.Id.Protein>
6NUR|6NUR_protein|mol2

> <Gold.PLP.Fitness>
40.1064

> <Gold.PLP.PLP>
-34.5850

> <Gold.PLP.part.hbond>
-4.2860

> <Gold.PLP.part.metal>
0.0000

> <Gold.PLP.part.buried>
-0.6292

> <Gold.PLP.part.nonpolar>
-29.8221

> <Gold.PLP.part.repulsive>
0.0539

> <Gold.PLP.ligand.clash>
0.0000

> <Gold.PLP.ligand.torsion>
1.6741

> <Gold.PLP.Chemscore.Hbond>
2.8233

> <Gold.PLP.Chemscore.CHOScore>
0.0000

> <Gold.PLP.Chemscore.Metal>
0.0000

> <Gold.Chemscore.Hbonds>
donor molecule, donor type, donor heavy atom, donor atom, acceptor molecule, acceptor atom, score
      L1  H     1    21       P1  7957  0.84
      L1  H     4    24       P1 10175  0.96
      L1  H    10    38       P1 10747  0.10

> <Gold.PLP.Chemscore.Internal.Correction>
0.3999

> <Gold.Rescore>
     Score         DG    S(hbond)    S(metal)    S(lipo)     H(rot)  DE(clash)    DE(int)     intcor
     15.19     -18.75       2.88        0.00      84.26       2.42       1.95       1.61       ----

> <Gold.Chemscore.Fitness>
15.1886

> <Gold.Chemscore.DG>
-18.7480

> <Gold.Chemscore.ZeroCoef>
-5.4800

> <Gold.Chemscore.Hbond>
2.8794

> <Gold.Chemscore.Metal>
0.0000

> <Gold.Chemscore.Lipo>
84.2582

> <Gold.Chemscore.Internal_Hbond>
0.0000

> <Gold.Chemscore.DEClash>
1.9452

> <Gold.Chemscore.DEInternal>
1.6143

> <Gold.Chemscore.Rot>
2.4247

> <Gold.Chemscore.Internal.Correction>
   9.000000E+99

> <Gold.Chemscore.Hbonds>
donor molecule, donor type, donor heavy atom, donor atom, acceptor molecule, acceptor atom, score
      L1  H     1    21       P1  7957  0.82
      L1  H     4    24       P1 10175  0.88
      L1  H    10    38       P1 10747  0.11

> <Gold.Chemscore.Hbond.Weighted>
-9.6171

> <Gold.Chemscore.Metal.Weighted>
-0.0000

> <Gold.Chemscore.Lipo.Weighted>
-9.8582

> <Gold.Chemscore.Internal_Hbond.Weighted>
0.0000

> <Gold.Chemscore.DEClash.Weighted>
1.9452

> <Gold.Chemscore.DEInternal.Weighted>
1.6143

> <Gold.Chemscore.Rot.Weighted>
6.2072

> <Gold.Chemscore.Internal.Correction.Weighted>
   9.000000E+99

> <Gold.Protein.RotatedTorsions>
[ 6907 6896 6895 6894 ] final -176.04 input  -60.11 | X-H torsion
[ 7974 7965 7964 7962 ] final  125.30 input  175.53 | X-H torsion
[ 8008 7997 7996 7995 ] final   44.12 input   59.86 | X-H torsion
[ 10167 10162 10161 10158 ] final   45.84 input  -65.29 | X-H torsion
[ 10718 10713 10712 10709 ] final  115.20 input   66.30 | X-H torsion
[ 10763 10752 10751 10750 ] final   64.57 input  -60.55 | X-H torsion
[ 11005 11000 10999 10996 ] final   17.07 input  -57.11 | X-H torsion

> <Gold.Protein.ActiveResidues>
 VAL166  LYS551  ARG553  GLY616  TRP617  ASP618  TYR619  PRO620  LYS621  CYS622 
 ASP623  PHE694  ASN695  SER759  ASP760  ASP761  ALA762  ILE779  LEU786  VAL792 
 PHE793  MET794  SER795  GLU796  ALA797  LYS798  CYS799  TRP800  GLU811  SER814 

> <Gold.Protein.RotatedAtoms>
  151.5984  133.3359  159.3041 H   0  0  0  0  0  0  0  0  0  0  0  0  # atno 6907 bound_to 6896
  150.8221  134.7438  159.6793 H   0  0  0  0  0  0  0  0  0  0  0  0  # atno 6908 bound_to 6896
  152.4314  134.5776  159.9990 H   0  0  0  0  0  0  0  0  0  0  0  0  # atno 6909 bound_to 6896
  145.0745  139.3704  143.4940 H   0  0  0  0  0  0  0  0  0  0  0  0  # atno 7974 bound_to 7965
  155.3140  140.3393  155.4243 H   0  0  0  0  0  0  0  0  0  0  0  0  # atno 8008 bound_to 7997
  156.1942  140.1708  156.8070 H   0  0  0  0  0  0  0  0  0  0  0  0  # atno 8009 bound_to 7997
  154.5478  140.0711  156.8601 H   0  0  0  0  0  0  0  0  0  0  0  0  # atno 8010 bound_to 7997
  140.3200  144.2716  150.6184 H   0  0  0  0  0  0  0  0  0  0  0  0  # atno 10167 bound_to 10162
  157.6236  131.1009  150.7295 H   0  0  0  0  0  0  0  0  0  0  0  0  # atno 10718 bound_to 10713
  153.0061  135.5388  154.6531 H   0  0  0  0  0  0  0  0  0  0  0  0  # atno 10763 bound_to 10752
  154.5758  135.2845  155.0784 H   0  0  0  0  0  0  0  0  0  0  0  0  # atno 10764 bound_to 10752
  154.1932  135.6496  153.5118 H   0  0  0  0  0  0  0  0  0  0  0  0  # atno 10765 bound_to 10752
  140.4401  134.1331  155.7689 H   0  0  0  0  0  0  0  0  0  0  0  0  # atno 11005 bound_to 11000
  146.3529  140.0506  142.8636 LP  0  0  0  0  0  0  0  0  0  0  0  0  # atno 17320 bound_to 7965
  145.1252  140.9486  143.4577 LP  0  0  0  0  0  0  0  0  0  0  0  0  # atno 17321 bound_to 7965
  140.5492  143.2209  151.7956 LP  0  0  0  0  0  0  0  0  0  0  0  0  # atno 17342 bound_to 10162
  139.4876  144.4499  151.9666 LP  0  0  0  0  0  0  0  0  0  0  0  0  # atno 17343 bound_to 10162
  156.7647  130.4810  149.5430 LP  0  0  0  0  0  0  0  0  0  0  0  0  # atno 17370 bound_to 10713
  156.1396  130.6235  151.0448 LP  0  0  0  0  0  0  0  0  0  0  0  0  # atno 17371 bound_to 10713
  141.1709  133.8610  157.1573 LP  0  0  0  0  0  0  0  0  0  0  0  0  # atno 17394 bound_to 11000
  140.0076  135.0002  157.0325 LP  0  0  0  0  0  0  0  0  0  0  0  0  # atno 17395 bound_to 11000

$$$$
