AV-unprocessed.smi:332|AV-procd|sdf|2353|dock5
  -GOLD-   2262022263D 1   1.00000     0.00000
 Structure written by MMmdl.
 42 44  0  0  0  0  0  0  0  0  1 V2000
  149.1252  140.6816  154.2944 C   0  0  0  0  0  0  0  0  0  0  0  0
  149.0526  140.9195  155.8117 C   0  0  1  0  0  0  0  0  0  0  0  0
  149.8410  142.1089  156.1309 N   0  0  0  0  0  0  0  0  0  0  0  0
  150.9796  142.1307  156.8408 C   0  0  0  0  0  0  0  0  0  0  0  0
  151.5353  141.1182  157.2677 O   0  0  0  0  0  0  0  0  0  0  0  0
  151.5875  143.5156  157.0973 C   0  0  0  0  0  0  0  0  0  0  0  0
  151.6760  143.8363  158.5315 N   0  0  0  0  0  0  0  0  0  0  0  0
  150.9231  144.9336  158.9948 C   0  0  0  0  0  0  0  0  0  0  0  0
  150.9397  145.3130  160.2824 C   0  0  0  0  0  0  0  0  0  0  0  0
  151.7591  144.5631  161.2049 C   0  0  0  0  0  0  0  0  0  0  0  0
  152.4845  143.5127  160.7721 C   0  0  0  0  0  0  0  0  0  0  0  0
  152.4693  143.0942  159.3655 C   0  0  0  0  0  0  0  0  0  0  0  0
  153.1292  142.1359  158.9616 O   0  0  0  0  0  0  0  0  0  0  0  0
  147.6029  141.1050  156.3258 C   0  0  2  0  0  0  0  0  0  0  0  0
  146.6588  139.9233  155.9839 C   0  0  0  0  0  0  0  0  0  0  0  0
  145.4695  140.6069  155.2883 C   0  0  1  0  0  0  0  0  0  0  0  0
  144.6789  141.4400  156.3131 C   0  0  0  0  0  0  0  0  0  0  0  0
  145.6187  142.6312  156.5769 C   0  0  0  0  0  0  0  0  0  0  0  0
  146.8417  142.3011  155.6997 C   0  0  2  0  0  0  0  0  0  0  0  0
  146.1743  141.6832  154.4746 C   0  0  0  0  0  0  0  0  0  0  0  0
  148.6224  139.7601  154.0040 H   0  0  0  0  0  0  0  0  0  0  0  0
  150.1608  140.5975  153.9627 H   0  0  0  0  0  0  0  0  0  0  0  0
  148.6652  141.5010  153.7410 H   0  0  0  0  0  0  0  0  0  0  0  0
  149.4815  140.0471  156.3068 H   0  0  0  0  0  0  0  0  0  0  0  0
  149.4689  142.9931  155.8159 H   0  0  0  0  0  0  0  0  0  0  0  0
  152.5731  143.5429  156.6308 H   0  0  0  0  0  0  0  0  0  0  0  0
  151.0049  144.2818  156.5817 H   0  0  0  0  0  0  0  0  0  0  0  0
  150.3431  145.4464  158.2412 H   0  0  0  0  0  0  0  0  0  0  0  0
  150.3591  146.1594  160.6187 H   0  0  0  0  0  0  0  0  0  0  0  0
  151.7919  144.8466  162.2466 H   0  0  0  0  0  0  0  0  0  0  0  0
  153.0933  142.9643  161.4759 H   0  0  0  0  0  0  0  0  0  0  0  0
  147.6461  141.2291  157.4092 H   0  0  0  0  0  0  0  0  0  0  0  0
  147.1266  139.2193  155.2944 H   0  0  0  0  0  0  0  0  0  0  0  0
  146.3577  139.3629  156.8696 H   0  0  0  0  0  0  0  0  0  0  0  0
  144.8503  139.9217  154.7087 H   0  0  0  0  0  0  0  0  0  0  0  0
  143.7333  141.7832  155.8915 H   0  0  0  0  0  0  0  0  0  0  0  0
  144.4574  140.8754  157.2195 H   0  0  0  0  0  0  0  0  0  0  0  0
  145.1528  143.5631  156.2535 H   0  0  0  0  0  0  0  0  0  0  0  0
  145.8751  142.7369  157.6317 H   0  0  0  0  0  0  0  0  0  0  0  0
  147.4570  143.1747  155.4888 H   0  0  0  0  0  0  0  0  0  0  0  0
  146.8807  141.2821  153.7461 H   0  0  0  0  0  0  0  0  0  0  0  0
  145.4862  142.3620  153.9676 H   0  0  0  0  0  0  0  0  0  0  0  0
  1  2  1  0  0  0  0
  1 21  1  0  0  0  0
  1 22  1  0  0  0  0
  1 23  1  0  0  0  0
  2  3  1  0  0  0  0
  2 14  1  0  0  0  0
  2 24  1  0  0  0  0
  3  4  1  0  0  0  0
  3 25  1  0  0  0  0
  4  5  2  0  0  0  0
  4  6  1  0  0  0  0
  6  7  1  0  0  0  0
  6 26  1  0  0  0  0
  6 27  1  0  0  0  0
  7 12  1  0  0  0  0
  7  8  1  0  0  0  0
  8  9  2  0  0  0  0
  8 28  1  0  0  0  0
  9 10  1  0  0  0  0
  9 29  1  0  0  0  0
 10 11  2  0  0  0  0
 10 30  1  0  0  0  0
 11 12  1  0  0  0  0
 11 31  1  0  0  0  0
 12 13  2  0  0  0  0
 14 19  1  0  0  0  0
 14 15  1  0  0  0  0
 14 32  1  0  0  0  0
 15 16  1  0  0  0  0
 15 33  1  0  0  0  0
 15 34  1  0  0  0  0
 16 20  1  0  0  0  0
 16 17  1  0  0  0  0
 16 35  1  0  0  0  0
 17 18  1  0  0  0  0
 17 36  1  0  0  0  0
 17 37  1  0  0  0  0
 18 19  1  0  0  0  0
 18 38  1  0  0  0  0
 18 39  1  0  0  0  0
 19 20  1  0  0  0  0
 19 40  1  0  0  0  0
 20 41  1  0  0  0  0
 20 42  1  0  0  0  0
M  END
> <s_m_source_file>
AV-unprocessed.smi

> <i_m_source_file_index>
332

> <i_lp_mmshare_version>
43012

> <i_f3d_flags>
0

> <s_epik_input>
W0NIMl0xW0NIMl1bQ0BIXShbQ0gyXTIpW0NAQEhdKFtDSDJdW0NAQEhdMTIpW0NASF0oW0NIM10pW05IXUMoPU8pW0NIMl1uM1tjSF1bY0hdW2NIXVtjSF1jMz1P

> <s_epik_cmdline>
J2VwaWtfcHl0aG9uJywgJy1waCcsICc3LjAnLCAnLXRuJywgJzgnLCAnLW1hJywgJzIwMCcsICctbWV0YWxfYmluZGluZycsICctaW1hZScsICc8aW5maWxlLm1hZT4nLCAnLW9tYWUnLCAnPG91dGZpbGUubWFlPic=

> <r_lp_tautomer_probability>
1

> <r_epik_Ionization_Penalty>
4.05802e-07

> <r_epik_Ionization_Penalty_Charging>
3.84175e-07

> <r_epik_Ionization_Penalty_Neutral>
2.16269e-08

> <r_epik_State_Penalty>
-0

> <r_epik_Charging_Adjusted_Penalty>
3.84175e-07

> <i_epik_Tot_Q>
0

> <i_epik_Tot_abs_Q>
0

> <r_epik_Metal_State_Penalty>
-0

> <b_epik_Metal_Only>
0

> <s_lp_Force_Field>
OPLS_2005

> <r_lp_Energy>
60.1573

> <b_lp_Chiralities_Consistent>
1

> <s_lp_Variant>
AV-unprocessed.smi:332-2

> <Gold.Version>
5.8.1

> <Gold.Id.Protein>
6NUR|6NUR_protein|mol2

> <Gold.PLP.Fitness>
40.1991

> <Gold.PLP.PLP>
-35.3342

> <Gold.PLP.part.hbond>
-1.0000

> <Gold.PLP.part.metal>
0.0000

> <Gold.PLP.part.buried>
-2.1224

> <Gold.PLP.part.nonpolar>
-33.0872

> <Gold.PLP.part.repulsive>
0.1066

> <Gold.PLP.ligand.clash>
0.0000

> <Gold.PLP.ligand.torsion>
0.0486

> <Gold.PLP.Chemscore.Hbond>
1.0000

> <Gold.PLP.Chemscore.CHOScore>
0.6436

> <Gold.PLP.Chemscore.Metal>
0.0000

> <Gold.Chemscore.Hbonds>
donor molecule, donor type, donor heavy atom, donor atom, acceptor molecule, acceptor atom, score
      L1  H     3    25       P1  8028  1.00
      L1  C     8    28       P1  8029  0.68

> <Gold.PLP.Chemscore.Internal.Correction>
0.0312

> <Gold.Rescore>
     Score         DG    S(hbond)    S(metal)    S(lipo)     H(rot)  DE(clash)    DE(int)     intcor
     12.78     -14.82       1.00        0.00      84.97       1.54       0.42       1.62       ----

> <Gold.Chemscore.Fitness>
12.7787

> <Gold.Chemscore.DG>
-14.8195

> <Gold.Chemscore.ZeroCoef>
-5.4800

> <Gold.Chemscore.Hbond>
0.9998

> <Gold.Chemscore.Metal>
0.0000

> <Gold.Chemscore.Lipo>
84.9732

> <Gold.Chemscore.Internal_Hbond>
0.0000

> <Gold.Chemscore.DEClash>
0.4158

> <Gold.Chemscore.DEInternal>
1.6249

> <Gold.Chemscore.Rot>
1.5398

> <Gold.Chemscore.Internal.Correction>
   9.000000E+99

> <Gold.Chemscore.Hbonds>
donor molecule, donor type, donor heavy atom, donor atom, acceptor molecule, acceptor atom, score
      L1  H     3    25       P1  8028  1.00

> <Gold.Chemscore.Hbond.Weighted>
-3.3395

> <Gold.Chemscore.Metal.Weighted>
-0.0000

> <Gold.Chemscore.Lipo.Weighted>
-9.9419

> <Gold.Chemscore.Internal_Hbond.Weighted>
0.0000

> <Gold.Chemscore.DEClash.Weighted>
0.4158

> <Gold.Chemscore.DEInternal.Weighted>
1.6249

> <Gold.Chemscore.Rot.Weighted>
3.9419

> <Gold.Chemscore.Internal.Correction.Weighted>
   9.000000E+99

> <Gold.Protein.RotatedTorsions>
[ 6907 6896 6895 6894 ] final  105.96 input  -60.11 | X-H torsion
[ 7974 7965 7964 7962 ] final   62.15 input  175.53 | X-H torsion
[ 8008 7997 7996 7995 ] final   22.52 input   59.86 | X-H torsion
[ 10167 10162 10161 10158 ] final  134.46 input  -65.29 | X-H torsion
[ 10718 10713 10712 10709 ] final  150.99 input   66.30 | X-H torsion
[ 10763 10752 10751 10750 ] final   98.36 input  -60.55 | X-H torsion
[ 11005 11000 10999 10996 ] final  -87.81 input  -57.11 | X-H torsion

> <Gold.Protein.ActiveResidues>
 VAL166  LYS551  ARG553  GLY616  TRP617  ASP618  TYR619  PRO620  LYS621  CYS622 
 ASP623  PHE694  ASN695  SER759  ASP760  ASP761  ALA762  ILE779  LEU786  VAL792 
 PHE793  MET794  SER795  GLU796  ALA797  LYS798  CYS799  TRP800  GLU811  SER814 

> <Gold.Protein.RotatedAtoms>
  152.5211  133.9451  159.7644 H   0  0  0  0  0  0  0  0  0  0  0  0  # atno 6907 bound_to 6896
  150.9772  133.6274  159.2735 H   0  0  0  0  0  0  0  0  0  0  0  0  # atno 6908 bound_to 6896
  151.3464  135.0880  159.9441 H   0  0  0  0  0  0  0  0  0  0  0  0  # atno 6909 bound_to 6896
  145.8766  139.3414  143.0731 H   0  0  0  0  0  0  0  0  0  0  0  0  # atno 7974 bound_to 7965
  154.9670  140.3085  155.5005 H   0  0  0  0  0  0  0  0  0  0  0  0  # atno 8008 bound_to 7997
  156.2970  140.2291  156.4698 H   0  0  0  0  0  0  0  0  0  0  0  0  # atno 8009 bound_to 7997
  154.7912  140.0439  157.1191 H   0  0  0  0  0  0  0  0  0  0  0  0  # atno 8010 bound_to 7997
  139.5255  144.6566  151.5142 H   0  0  0  0  0  0  0  0  0  0  0  0  # atno 10167 bound_to 10162
  157.2764  131.0827  151.1563 H   0  0  0  0  0  0  0  0  0  0  0  0  # atno 10718 bound_to 10713
  153.2881  135.4151  155.1141 H   0  0  0  0  0  0  0  0  0  0  0  0  # atno 10763 bound_to 10752
  154.8511  135.3511  154.6019 H   0  0  0  0  0  0  0  0  0  0  0  0  # atno 10764 bound_to 10752
  153.6441  135.7055  153.5289 H   0  0  0  0  0  0  0  0  0  0  0  0  # atno 10765 bound_to 10752
  141.1611  133.7533  156.9360 H   0  0  0  0  0  0  0  0  0  0  0  0  # atno 11005 bound_to 11000
  145.9073  140.9203  143.0472 LP  0  0  0  0  0  0  0  0  0  0  0  0  # atno 17320 bound_to 7965
  144.6726  140.1113  143.7455 LP  0  0  0  0  0  0  0  0  0  0  0  0  # atno 17321 bound_to 7965
  140.6395  143.8917  150.6678 LP  0  0  0  0  0  0  0  0  0  0  0  0  # atno 17342 bound_to 10162
  140.2247  143.3781  152.1614 LP  0  0  0  0  0  0  0  0  0  0  0  0  # atno 17343 bound_to 10162
  157.3014  130.6845  149.6166 LP  0  0  0  0  0  0  0  0  0  0  0  0  # atno 17370 bound_to 10713
  155.9664  130.4391  150.5244 LP  0  0  0  0  0  0  0  0  0  0  0  0  # atno 17371 bound_to 10713
  140.1354  134.9329  157.2394 LP  0  0  0  0  0  0  0  0  0  0  0  0  # atno 17394 bound_to 11000
  140.2902  134.3249  155.7317 LP  0  0  0  0  0  0  0  0  0  0  0  0  # atno 17395 bound_to 11000

$$$$
