AV-unprocessed.smi:676|AV-procd|sdf|3308|dock6
  -GOLD-   22720 0273D 1   1.00000     0.00000
 Structure written by MMmdl.
 42 43  0  0  0  0  0  0  0  0  1 V2000
  146.6464  137.6111  155.2421 C   0  0  0  0  0  0  0  0  0  0  0  0
  146.4538  139.0031  155.4614 O   0  0  0  0  0  0  0  0  0  0  0  0
  147.1500  139.9089  154.5943 C   0  0  2  0  0  0  0  0  0  0  0  0
  146.7401  139.6787  153.1342 C   0  0  0  0  0  0  0  0  0  0  0  0
  148.6458  139.9522  154.9607 C   0  0  0  0  0  0  0  0  0  0  0  0
  148.2761  140.9616  156.0456 C   0  0  1  0  0  0  0  0  0  0  0  0
  149.2744  142.0143  156.1970 N   0  0  0  0  0  0  0  0  0  0  0  0
  150.4823  141.8389  156.7516 C   0  0  0  0  0  0  0  0  0  0  0  0
  150.8866  140.7486  157.1570 O   0  0  0  0  0  0  0  0  0  0  0  0
  151.3686  143.0875  156.8510 C   0  0  0  0  0  0  0  0  0  0  0  0
  151.7543  143.4034  158.2359 N   0  0  0  0  0  0  0  0  0  0  0  0
  151.2587  144.6027  158.7852 C   0  0  0  0  0  0  0  0  0  0  0  0
  151.5539  144.9852  160.0376 C   0  0  0  0  0  0  0  0  0  0  0  0
  152.4054  144.1300  160.8297 C   0  0  0  0  0  0  0  0  0  0  0  0
  152.8868  142.9818  160.3135 C   0  0  0  0  0  0  0  0  0  0  0  0
  152.5676  142.5602  158.9446 C   0  0  0  0  0  0  0  0  0  0  0  0
  153.0043  141.5135  158.4645 O   0  0  0  0  0  0  0  0  0  0  0  0
  147.0395  141.3494  155.1932 C   0  0  0  0  0  0  0  0  0  0  0  0
  147.2211  142.5101  154.1962 C   0  0  0  0  0  0  0  0  0  0  0  0
  145.7602  141.6700  155.9742 C   0  0  0  0  0  0  0  0  0  0  0  0
  146.1890  137.0564  156.0611 H   0  0  0  0  0  0  0  0  0  0  0  0
  147.7002  137.3367  155.2057 H   0  0  0  0  0  0  0  0  0  0  0  0
  146.1658  137.2792  154.3221 H   0  0  0  0  0  0  0  0  0  0  0  0
  147.1782  140.4216  152.4684 H   0  0  0  0  0  0  0  0  0  0  0  0
  145.6577  139.7298  153.0143 H   0  0  0  0  0  0  0  0  0  0  0  0
  147.0736  138.7097  152.7642 H   0  0  0  0  0  0  0  0  0  0  0  0
  149.0752  139.0258  155.3402 H   0  0  0  0  0  0  0  0  0  0  0  0
  149.2639  140.3717  154.1650 H   0  0  0  0  0  0  0  0  0  0  0  0
  148.0094  140.4667  156.9823 H   0  0  0  0  0  0  0  0  0  0  0  0
  149.0206  142.9395  155.8826 H   0  0  0  0  0  0  0  0  0  0  0  0
  152.2506  142.9261  156.2301 H   0  0  0  0  0  0  0  0  0  0  0  0
  150.8566  143.9424  156.4047 H   0  0  0  0  0  0  0  0  0  0  0  0
  150.6352  145.1889  158.1261 H   0  0  0  0  0  0  0  0  0  0  0  0
  151.1676  145.9097  160.4406 H   0  0  0  0  0  0  0  0  0  0  0  0
  152.6592  144.4132  161.8404 H   0  0  0  0  0  0  0  0  0  0  0  0
  153.5237  142.3558  160.9209 H   0  0  0  0  0  0  0  0  0  0  0  0
  147.2999  143.4712  154.7059 H   0  0  0  0  0  0  0  0  0  0  0  0
  146.3779  142.5811  153.5085 H   0  0  0  0  0  0  0  0  0  0  0  0
  148.1208  142.3977  153.5911 H   0  0  0  0  0  0  0  0  0  0  0  0
  145.7944  142.6694  156.4094 H   0  0  0  0  0  0  0  0  0  0  0  0
  145.6014  140.9766  156.8000 H   0  0  0  0  0  0  0  0  0  0  0  0
  144.8794  141.6189  155.3335 H   0  0  0  0  0  0  0  0  0  0  0  0
  1  2  1  0  0  0  0
  1 21  1  0  0  0  0
  1 22  1  0  0  0  0
  1 23  1  0  0  0  0
  2  3  1  0  0  0  0
  3 18  1  0  0  0  0
  3  4  1  0  0  0  0
  3  5  1  0  0  0  0
  4 24  1  0  0  0  0
  4 25  1  0  0  0  0
  4 26  1  0  0  0  0
  5  6  1  0  0  0  0
  5 27  1  0  0  0  0
  5 28  1  0  0  0  0
  6  7  1  0  0  0  0
  6 18  1  0  0  0  0
  6 29  1  0  0  0  0
  7  8  1  0  0  0  0
  7 30  1  0  0  0  0
  8  9  2  0  0  0  0
  8 10  1  0  0  0  0
 10 11  1  0  0  0  0
 10 31  1  0  0  0  0
 10 32  1  0  0  0  0
 11 16  1  0  0  0  0
 11 12  1  0  0  0  0
 12 13  2  0  0  0  0
 12 33  1  0  0  0  0
 13 14  1  0  0  0  0
 13 34  1  0  0  0  0
 14 15  2  0  0  0  0
 14 35  1  0  0  0  0
 15 16  1  0  0  0  0
 15 36  1  0  0  0  0
 16 17  2  0  0  0  0
 18 19  1  0  0  0  0
 18 20  1  0  0  0  0
 19 37  1  0  0  0  0
 19 38  1  0  0  0  0
 19 39  1  0  0  0  0
 20 40  1  0  0  0  0
 20 41  1  0  0  0  0
 20 42  1  0  0  0  0
M  END
> <s_m_source_file>
AV-unprocessed.smi

> <i_m_source_file_index>
676

> <i_lp_mmshare_version>
43012

> <i_f3d_flags>
0

> <s_epik_input>
W0NIM11PW0NAQF0xKFtDSDNdKVtDSDJdW0NASF0oQzEoW0NIM10pW0NIM10pW05IXUMoPU8pW0NIMl1uMltjSF1bY0hdW2NIXVtjSF1jMj1P

> <s_epik_cmdline>
J2VwaWtfcHl0aG9uJywgJy1waCcsICc3LjAnLCAnLXRuJywgJzgnLCAnLW1hJywgJzIwMCcsICctbWV0YWxfYmluZGluZycsICctaW1hZScsICc8aW5maWxlLm1hZT4nLCAnLW9tYWUnLCAnPG91dGZpbGUubWFlPic=

> <r_lp_tautomer_probability>
1

> <r_epik_Ionization_Penalty>
4.09771e-07

> <r_epik_Ionization_Penalty_Charging>
3.90712e-07

> <r_epik_Ionization_Penalty_Neutral>
1.90591e-08

> <r_epik_State_Penalty>
-0

> <r_epik_Charging_Adjusted_Penalty>
3.90712e-07

> <i_epik_Tot_Q>
0

> <i_epik_Tot_abs_Q>
0

> <r_epik_Metal_State_Penalty>
-0

> <b_epik_Metal_Only>
0

> <s_lp_Force_Field>
OPLS_2005

> <r_lp_Energy>
31.4736

> <b_lp_Chiralities_Consistent>
1

> <s_lp_Variant>
AV-unprocessed.smi:676-2

> <Gold.Version>
5.8.1

> <Gold.Id.Protein>
6NUR|6NUR_protein|mol2

> <Gold.PLP.Fitness>
41.4752

> <Gold.PLP.PLP>
-36.4235

> <Gold.PLP.part.hbond>
-1.0000

> <Gold.PLP.part.metal>
0.0000

> <Gold.PLP.part.buried>
-4.4394

> <Gold.PLP.part.nonpolar>
-31.8613

> <Gold.PLP.part.repulsive>
0.0942

> <Gold.PLP.ligand.clash>
0.0000

> <Gold.PLP.ligand.torsion>
0.2238

> <Gold.PLP.Chemscore.Hbond>
1.0000

> <Gold.PLP.Chemscore.CHOScore>
0.7062

> <Gold.PLP.Chemscore.Metal>
0.0000

> <Gold.Chemscore.Hbonds>
donor molecule, donor type, donor heavy atom, donor atom, acceptor molecule, acceptor atom, score
      L1  H     7    30       P1  8028  1.00

> <Gold.PLP.Chemscore.Internal.Correction>
0.3808

> <Gold.Rescore>
     Score         DG    S(hbond)    S(metal)    S(lipo)     H(rot)  DE(clash)    DE(int)     intcor
     13.04     -14.97       1.00        0.00      88.02       1.62       0.10       1.83       ----

> <Gold.Chemscore.Fitness>
13.0385

> <Gold.Chemscore.DG>
-14.9741

> <Gold.Chemscore.ZeroCoef>
-5.4800

> <Gold.Chemscore.Hbond>
0.9991

> <Gold.Chemscore.Metal>
0.0000

> <Gold.Chemscore.Lipo>
88.0169

> <Gold.Chemscore.Internal_Hbond>
0.0000

> <Gold.Chemscore.DEClash>
0.1030

> <Gold.Chemscore.DEInternal>
1.8327

> <Gold.Chemscore.Rot>
1.6175

> <Gold.Chemscore.Internal.Correction>
   9.000000E+99

> <Gold.Chemscore.Hbonds>
donor molecule, donor type, donor heavy atom, donor atom, acceptor molecule, acceptor atom, score
      L1  H     7    30       P1  8028  1.00

> <Gold.Chemscore.Hbond.Weighted>
-3.3369

> <Gold.Chemscore.Metal.Weighted>
-0.0000

> <Gold.Chemscore.Lipo.Weighted>
-10.2980

> <Gold.Chemscore.Internal_Hbond.Weighted>
0.0000

> <Gold.Chemscore.DEClash.Weighted>
0.1030

> <Gold.Chemscore.DEInternal.Weighted>
1.8327

> <Gold.Chemscore.Rot.Weighted>
4.1408

> <Gold.Chemscore.Internal.Correction.Weighted>
   9.000000E+99

> <Gold.Protein.RotatedTorsions>
[ 6907 6896 6895 6894 ] final    9.55 input  -60.11 | X-H torsion
[ 7974 7965 7964 7962 ] final  -39.97 input  175.53 | X-H torsion
[ 8008 7997 7996 7995 ] final -140.35 input   59.86 | X-H torsion
[ 10167 10162 10161 10158 ] final  116.91 input  -65.29 | X-H torsion
[ 10718 10713 10712 10709 ] final   -0.04 input   66.30 | X-H torsion
[ 10763 10752 10751 10750 ] final -168.68 input  -60.55 | X-H torsion
[ 11005 11000 10999 10996 ] final -132.03 input  -57.11 | X-H torsion

> <Gold.Protein.ActiveResidues>
 VAL166  LYS551  ARG553  GLY616  TRP617  ASP618  TYR619  PRO620  LYS621  CYS622 
 ASP623  PHE694  ASN695  SER759  ASP760  ASP761  ALA762  ILE779  LEU786  VAL792 
 PHE793  MET794  SER795  GLU796  ALA797  LYS798  CYS799  TRP800  GLU811  SER814 

> <Gold.Protein.RotatedAtoms>
  151.7240  135.0888  160.0288 H   0  0  0  0  0  0  0  0  0  0  0  0  # atno 6907 bound_to 6896
  152.3584  133.6261  159.6005 H   0  0  0  0  0  0  0  0  0  0  0  0  # atno 6908 bound_to 6896
  150.7587  133.9380  159.3489 H   0  0  0  0  0  0  0  0  0  0  0  0  # atno 6909 bound_to 6896
  146.0348  140.6685  142.9115 H   0  0  0  0  0  0  0  0  0  0  0  0  # atno 7974 bound_to 7965
  155.4599  140.0545  157.2992 H   0  0  0  0  0  0  0  0  0  0  0  0  # atno 8008 bound_to 7997
  154.4742  140.2053  155.9875 H   0  0  0  0  0  0  0  0  0  0  0  0  # atno 8009 bound_to 7997
  156.1104  140.3205  155.8070 H   0  0  0  0  0  0  0  0  0  0  0  0  # atno 8010 bound_to 7997
  139.6215  144.7101  151.2625 H   0  0  0  0  0  0  0  0  0  0  0  0  # atno 10167 bound_to 10162
  156.8264  130.5473  149.5691 H   0  0  0  0  0  0  0  0  0  0  0  0  # atno 10718 bound_to 10713
  154.6603  135.2924  154.9874 H   0  0  0  0  0  0  0  0  0  0  0  0  # atno 10763 bound_to 10752
  154.0936  135.6587  153.4860 H   0  0  0  0  0  0  0  0  0  0  0  0  # atno 10764 bound_to 10752
  153.0426  135.5226  154.7551 H   0  0  0  0  0  0  0  0  0  0  0  0  # atno 10765 bound_to 10752
  140.9206  134.1449  157.4317 H   0  0  0  0  0  0  0  0  0  0  0  0  # atno 11005 bound_to 11000
  144.7046  140.3800  143.7128 LP  0  0  0  0  0  0  0  0  0  0  0  0  # atno 17320 bound_to 7965
  145.6982  139.1655  143.2608 LP  0  0  0  0  0  0  0  0  0  0  0  0  # atno 17321 bound_to 7965
  140.7384  143.6647  150.8133 LP  0  0  0  0  0  0  0  0  0  0  0  0  # atno 17342 bound_to 10162
  140.0259  143.5494  152.2781 LP  0  0  0  0  0  0  0  0  0  0  0  0  # atno 17343 bound_to 10162
  156.0959  130.5932  150.9813 LP  0  0  0  0  0  0  0  0  0  0  0  0  # atno 17370 bound_to 10713
  157.6430  131.0908  150.8212 LP  0  0  0  0  0  0  0  0  0  0  0  0  # atno 17371 bound_to 10713
  139.8775  134.9970  156.5823 LP  0  0  0  0  0  0  0  0  0  0  0  0  # atno 17394 bound_to 11000
  140.7993  133.8518  155.8712 LP  0  0  0  0  0  0  0  0  0  0  0  0  # atno 17395 bound_to 11000

$$$$
