AV-unprocessed.smi:1001|AV-procd|sdf|4357|dock10
  -GOLD-   22720 2253D 1   1.00000     0.00000
 Structure written by MMmdl.
 47 48  0  0  0  0  0  0  0  0  1 V2000
  150.1053  130.9369  161.7420 N   0  0  0  0  0  0  0  0  0  0  0  0
  150.0370  131.8241  160.7418 C   0  0  0  0  0  0  0  0  0  0  0  0
  150.3347  131.5206  159.5872 O   0  0  0  0  0  0  0  0  0  0  0  0
  149.5815  133.1922  161.1144 C   0  0  0  0  0  0  0  0  0  0  0  0
  149.4321  133.4829  162.5303 C   0  0  0  0  0  0  0  0  0  0  0  0
  149.0171  134.7166  162.8919 C   0  0  0  0  0  0  0  0  0  0  0  0
  148.7195  135.7543  161.9034 C   0  0  0  0  0  0  0  0  0  0  0  0
  148.3380  136.8844  162.2073 O   0  0  0  0  0  0  0  0  0  0  0  0
  148.9045  135.3557  160.6076 N   0  0  0  0  0  0  0  0  0  0  0  0
  148.6701  136.2796  159.4883 C   0  0  0  0  0  0  0  0  0  0  0  0
  149.9668  136.8585  158.9035 C   0  0  0  0  0  0  0  0  0  0  0  0
  151.0387  136.2688  159.0471 O   0  0  0  0  0  0  0  0  0  0  0  0
  149.8485  138.0133  158.2310 N   0  0  0  0  0  0  0  0  0  0  0  0
  150.9552  138.7437  157.6243 C   0  0  0  0  0  0  0  0  0  0  0  0
  151.2174  140.0707  158.3556 C   0  0  0  0  0  0  0  0  0  0  0  0
  151.4463  141.2431  157.3870 C   0  0  0  0  0  0  0  0  0  0  0  0
  151.8701  142.5546  158.0806 C   0  0  0  0  0  0  0  0  0  0  0  0
  152.0093  142.3986  159.6113 C   0  0  0  0  0  0  0  0  0  0  0  0
  152.4207  143.7188  160.2834 C   0  0  0  0  0  0  0  0  0  0  0  0
  151.4368  144.8485  159.9455 C   0  0  0  0  0  0  0  0  0  0  0  0
  151.2902  145.0150  158.4258 C   0  0  0  0  0  0  0  0  0  0  0  0
  150.8800  143.6928  157.7568 C   0  0  0  0  0  0  0  0  0  0  0  0
  149.3246  134.0928  160.2216 N   0  0  0  0  0  0  0  0  0  0  0  0
  150.4047  129.9910  161.5548 H   0  0  0  0  0  0  0  0  0  0  0  0
  149.8547  131.2166  162.6794 H   0  0  0  0  0  0  0  0  0  0  0  0
  149.6459  132.7363  163.2813 H   0  0  0  0  0  0  0  0  0  0  0  0
  148.9023  134.9467  163.9408 H   0  0  0  0  0  0  0  0  0  0  0  0
  148.1345  135.7717  158.6845 H   0  0  0  0  0  0  0  0  0  0  0  0
  148.0147  137.0917  159.8092 H   0  0  0  0  0  0  0  0  0  0  0  0
  148.9306  138.4270  158.1530 H   0  0  0  0  0  0  0  0  0  0  0  0
  151.8538  138.1246  157.6160 H   0  0  0  0  0  0  0  0  0  0  0  0
  150.7025  138.9378  156.5816 H   0  0  0  0  0  0  0  0  0  0  0  0
  150.3725  140.2860  159.0095 H   0  0  0  0  0  0  0  0  0  0  0  0
  152.0895  139.9653  159.0023 H   0  0  0  0  0  0  0  0  0  0  0  0
  152.2251  140.9523  156.6808 H   0  0  0  0  0  0  0  0  0  0  0  0
  150.5482  141.4124  156.7917 H   0  0  0  0  0  0  0  0  0  0  0  0
  152.8425  142.8446  157.6796 H   0  0  0  0  0  0  0  0  0  0  0  0
  151.0646  142.0546  160.0345 H   0  0  0  0  0  0  0  0  0  0  0  0
  152.7502  141.6372  159.8534 H   0  0  0  0  0  0  0  0  0  0  0  0
  152.4745  143.5842  161.3639 H   0  0  0  0  0  0  0  0  0  0  0  0
  153.4236  143.9970  159.9567 H   0  0  0  0  0  0  0  0  0  0  0  0
  150.4633  144.6295  160.3856 H   0  0  0  0  0  0  0  0  0  0  0  0
  151.7761  145.7836  160.3923 H   0  0  0  0  0  0  0  0  0  0  0  0
  150.5521  145.7869  158.2069 H   0  0  0  0  0  0  0  0  0  0  0  0
  152.2344  145.3608  158.0029 H   0  0  0  0  0  0  0  0  0  0  0  0
  150.8195  143.8398  156.6780 H   0  0  0  0  0  0  0  0  0  0  0  0
  149.8780  143.4145  158.0864 H   0  0  0  0  0  0  0  0  0  0  0  0
  1  2  1  0  0  0  0
  1 24  1  0  0  0  0
  1 25  1  0  0  0  0
  2  3  2  0  0  0  0
  2  4  1  0  0  0  0
  4 23  2  0  0  0  0
  4  5  1  0  0  0  0
  5  6  2  0  0  0  0
  5 26  1  0  0  0  0
  6  7  1  0  0  0  0
  6 27  1  0  0  0  0
  7  8  2  0  0  0  0
  7  9  1  0  0  0  0
  9 10  1  0  0  0  0
  9 23  1  0  0  0  0
 10 11  1  0  0  0  0
 10 28  1  0  0  0  0
 10 29  1  0  0  0  0
 11 12  2  0  0  0  0
 11 13  1  0  0  0  0
 13 14  1  0  0  0  0
 13 30  1  0  0  0  0
 14 15  1  0  0  0  0
 14 31  1  0  0  0  0
 14 32  1  0  0  0  0
 15 16  1  0  0  0  0
 15 33  1  0  0  0  0
 15 34  1  0  0  0  0
 16 17  1  0  0  0  0
 16 35  1  0  0  0  0
 16 36  1  0  0  0  0
 17 22  1  0  0  0  0
 17 18  1  0  0  0  0
 17 37  1  0  0  0  0
 18 19  1  0  0  0  0
 18 38  1  0  0  0  0
 18 39  1  0  0  0  0
 19 20  1  0  0  0  0
 19 40  1  0  0  0  0
 19 41  1  0  0  0  0
 20 21  1  0  0  0  0
 20 42  1  0  0  0  0
 20 43  1  0  0  0  0
 21 22  1  0  0  0  0
 21 44  1  0  0  0  0
 21 45  1  0  0  0  0
 22 46  1  0  0  0  0
 22 47  1  0  0  0  0
M  END
> <s_m_source_file>
AV-unprocessed.smi

> <i_m_source_file_index>
1001

> <i_lp_mmshare_version>
43012

> <i_f3d_flags>
0

> <s_epik_input>
W05IMl1DKD1PKWMxW2NIXVtjSF1jKD1PKW4objEpW0NIMl1DKD1PKVtOSF1bQ0gyXVtDSDJdW0NIMl1bQ0hdMltDSDJdW0NIMl1bQ0gyXVtDSDJdW0NIMl0y

> <s_epik_cmdline>
J2VwaWtfcHl0aG9uJywgJy1waCcsICc3LjAnLCAnLXRuJywgJzgnLCAnLW1hJywgJzIwMCcsICctbWV0YWxfYmluZGluZycsICctaW1hZScsICc8aW5maWxlLm1hZT4nLCAnLW9tYWUnLCAnPG91dGZpbGUubWFlPic=

> <r_lp_tautomer_probability>
1

> <r_epik_Ionization_Penalty>
2.90452e-06

> <r_epik_Ionization_Penalty_Charging>
3.08996e-10

> <r_epik_Ionization_Penalty_Neutral>
2.90421e-06

> <r_epik_State_Penalty>
-0

> <r_epik_Charging_Adjusted_Penalty>
3.08996e-10

> <i_epik_Tot_Q>
0

> <i_epik_Tot_abs_Q>
0

> <r_epik_Metal_State_Penalty>
-0

> <b_epik_Metal_Only>
0

> <s_lp_Force_Field>
OPLS_2005

> <r_lp_Energy>
27.0219

> <b_lp_Chiralities_Consistent>
1

> <s_lp_Variant>
AV-unprocessed.smi:1001-1

> <Gold.Version>
5.8.1

> <Gold.Id.Protein>
6NUR|6NUR_protein|mol2

> <Gold.PLP.Fitness>
53.3326

> <Gold.PLP.PLP>
-49.4293

> <Gold.PLP.part.hbond>
-3.0000

> <Gold.PLP.part.metal>
0.0000

> <Gold.PLP.part.buried>
-6.6967

> <Gold.PLP.part.nonpolar>
-39.9909

> <Gold.PLP.part.repulsive>
0.1483

> <Gold.PLP.ligand.clash>
0.0369

> <Gold.PLP.ligand.torsion>
1.7036

> <Gold.PLP.Chemscore.Hbond>
2.3920

> <Gold.PLP.Chemscore.CHOScore>
0.0000

> <Gold.PLP.Chemscore.Metal>
0.0000

> <Gold.Chemscore.Hbonds>
donor molecule, donor type, donor heavy atom, donor atom, acceptor molecule, acceptor atom, score
      P1  H  6896  6907       L1    12  0.69
      P1  H  6896  6909       L1     3  0.27
      P1  H  6931  6943       L1     8  1.00

> <Gold.PLP.Chemscore.Internal.Correction>
0.1715

> <Gold.Rescore>
     Score         DG    S(hbond)    S(metal)    S(lipo)     H(rot)  DE(clash)    DE(int)     intcor
     19.14     -20.65       2.72        0.00     105.86       2.46       0.02       1.48       ----

> <Gold.Chemscore.Fitness>
19.1441

> <Gold.Chemscore.DG>
-20.6502

> <Gold.Chemscore.ZeroCoef>
-5.4800

> <Gold.Chemscore.Hbond>
2.7188

> <Gold.Chemscore.Metal>
0.0000

> <Gold.Chemscore.Lipo>
105.8554

> <Gold.Chemscore.Internal_Hbond>
0.0000

> <Gold.Chemscore.DEClash>
0.0245

> <Gold.Chemscore.DEInternal>
1.4817

> <Gold.Chemscore.Rot>
2.4593

> <Gold.Chemscore.Internal.Correction>
   9.000000E+99

> <Gold.Chemscore.Hbonds>
donor molecule, donor type, donor heavy atom, donor atom, acceptor molecule, acceptor atom, score
      P1  H  6896  6907       L1    12  0.56
      P1  H  6896  6909       L1     3  0.02
      P1  H  6931  6943       L1     8  0.95

> <Gold.Chemscore.Hbond.Weighted>
-9.0809

> <Gold.Chemscore.Metal.Weighted>
-0.0000

> <Gold.Chemscore.Lipo.Weighted>
-12.3851

> <Gold.Chemscore.Internal_Hbond.Weighted>
0.0000

> <Gold.Chemscore.DEClash.Weighted>
0.0245

> <Gold.Chemscore.DEInternal.Weighted>
1.4817

> <Gold.Chemscore.Rot.Weighted>
6.2958

> <Gold.Chemscore.Internal.Correction.Weighted>
   9.000000E+99

> <Gold.Protein.RotatedTorsions>
[ 6907 6896 6895 6894 ] final  -47.11 input  -60.11 | X-H torsion
[ 7974 7965 7964 7962 ] final   16.85 input  175.53 | X-H torsion
[ 8008 7997 7996 7995 ] final  -36.85 input   59.86 | X-H torsion
[ 10167 10162 10161 10158 ] final  -99.73 input  -65.29 | X-H torsion
[ 10718 10713 10712 10709 ] final -148.18 input   66.30 | X-H torsion
[ 10763 10752 10751 10750 ] final -150.51 input  -60.55 | X-H torsion
[ 11005 11000 10999 10996 ] final   -6.74 input  -57.11 | X-H torsion

> <Gold.Protein.ActiveResidues>
 VAL166  LYS551  ARG553  GLY616  TRP617  ASP618  TYR619  PRO620  LYS621  CYS622 
 ASP623  PHE694  ASN695  SER759  ASP760  ASP761  ALA762  ILE779  LEU786  VAL792 
 PHE793  MET794  SER795  GLU796  ALA797  LYS798  CYS799  TRP800  GLU811  SER814 

> <Gold.Protein.RotatedAtoms>
  150.9042  134.8455  159.7380 H   0  0  0  0  0  0  0  0  0  0  0  0  # atno 6907 bound_to 6896
  152.4909  134.4457  159.9568 H   0  0  0  0  0  0  0  0  0  0  0  0  # atno 6908 bound_to 6896
  151.4506  133.3579  159.2830 H   0  0  0  0  0  0  0  0  0  0  0  0  # atno 6909 bound_to 6896
  146.2237  139.8688  142.8591 H   0  0  0  0  0  0  0  0  0  0  0  0  # atno 7974 bound_to 7965
  154.4065  140.1619  156.2441 H   0  0  0  0  0  0  0  0  0  0  0  0  # atno 8008 bound_to 7997
  155.9175  140.3423  155.6124 H   0  0  0  0  0  0  0  0  0  0  0  0  # atno 8009 bound_to 7997
  155.7262  140.0774  157.2300 H   0  0  0  0  0  0  0  0  0  0  0  0  # atno 8010 bound_to 7997
  140.2594  143.3418  152.0640 H   0  0  0  0  0  0  0  0  0  0  0  0  # atno 10167 bound_to 10162
  156.4170  130.8010  151.2231 H   0  0  0  0  0  0  0  0  0  0  0  0  # atno 10718 bound_to 10713
  154.8114  135.3282  154.7294 H   0  0  0  0  0  0  0  0  0  0  0  0  # atno 10763 bound_to 10752
  153.7942  135.6908  153.4871 H   0  0  0  0  0  0  0  0  0  0  0  0  # atno 10764 bound_to 10752
  153.1896  135.4556  155.0079 H   0  0  0  0  0  0  0  0  0  0  0  0  # atno 10765 bound_to 10752
  140.7052  133.8955  155.8711 H   0  0  0  0  0  0  0  0  0  0  0  0  # atno 11005 bound_to 11000
  145.2629  141.0083  143.3816 LP  0  0  0  0  0  0  0  0  0  0  0  0  # atno 17320 bound_to 7965
  144.9284  139.4327  143.6507 LP  0  0  0  0  0  0  0  0  0  0  0  0  # atno 17321 bound_to 7965
  139.5021  144.6728  151.6200 LP  0  0  0  0  0  0  0  0  0  0  0  0  # atno 17342 bound_to 10162
  140.5978  143.9665  150.6366 LP  0  0  0  0  0  0  0  0  0  0  0  0  # atno 17343 bound_to 10162
  157.7508  131.0240  150.3857 LP  0  0  0  0  0  0  0  0  0  0  0  0  # atno 17370 bound_to 10713
  156.4167  130.3945  149.6853 LP  0  0  0  0  0  0  0  0  0  0  0  0  # atno 17371 bound_to 10713
  141.0130  134.0994  157.4201 LP  0  0  0  0  0  0  0  0  0  0  0  0  # atno 17394 bound_to 11000
  139.8886  135.0099  156.6629 LP  0  0  0  0  0  0  0  0  0  0  0  0  # atno 17395 bound_to 11000

$$$$
