AV-unprocessed.smi:37|AV-procd|sdf|328|dock6
  -GOLD-   2262016153D 1   1.00000     0.00000
 Structure written by MMmdl.
 43 44  0  0  0  0  0  0  0  0  2 V2000
  150.0794  131.5740  154.9961 C   0  0  0  0  0  0  0  0  0  0  0  0
  149.2800  132.6154  154.2004 C   0  0  0  0  0  0  0  0  0  0  0  0
  148.8186  133.7785  155.0756 C   0  0  0  0  0  0  0  0  0  0  0  0
  149.1468  134.9393  154.8292 O   0  0  0  0  0  0  0  0  0  0  0  0
  148.0492  133.3780  156.0973 O   0  0  0  0  0  0  0  0  0  0  0  0
  147.5386  134.3281  157.0179 C   0  0  0  0  0  0  0  0  0  0  0  0
  148.6461  134.7571  157.9894 C   0  0  1  0  0  0  0  0  0  0  0  0
  149.7836  135.1820  157.2472 O   0  0  0  0  0  0  0  0  0  0  0  0
  150.3882  136.2283  157.9330 C   0  0  1  0  0  0  0  0  0  0  0  0
  151.2181  137.0574  156.9810 N   0  0  0  0  0  0  0  0  0  0  0  0
  150.9054  137.1348  155.6333 C   0  0  0  0  0  0  0  0  0  0  0  0
  151.6419  137.8846  154.7886 C   0  0  0  0  0  0  0  0  0  0  0  0
  151.3113  137.9459  153.4872 F   0  0  0  0  0  0  0  0  0  0  0  0
  152.7928  138.6283  155.2975 C   0  0  0  0  0  0  0  0  0  0  0  0
  153.4627  139.3075  154.5212 O   0  0  0  0  0  0  0  0  0  0  0  0
  153.0756  138.5344  156.6294 N   0  5  0  0  0  0  0  0  0  0  0  0
  152.3304  137.7798  157.4894 C   0  0  0  0  0  0  0  0  0  0  0  0
  152.5707  137.6925  158.6938 O   0  0  0  0  0  0  0  0  0  0  0  0
  149.2479  137.0247  158.5765 C   0  0  1  0  0  0  0  0  0  0  0  0
  148.3691  138.2763  157.2919 Br  0  0  0  0  0  0  0  0  0  0  0  0
  148.2636  135.9165  158.9311 C   0  0  2  0  0  0  0  0  0  0  0  0
  148.4587  135.4979  160.2772 O   0  0  0  0  0  0  0  0  0  0  0  0
  147.7564  136.0653  161.2756 C   0  0  0  0  0  0  0  0  0  0  0  0
  147.2967  137.2072  161.2774 O   0  0  0  0  0  0  0  0  0  0  0  0
  147.5838  135.1368  162.4754 C   0  0  0  0  0  0  0  0  0  0  0  0
  146.1166  134.7500  162.7068 C   0  0  0  0  0  0  0  0  0  0  0  0
  150.3782  130.7461  154.3530 H   0  0  0  0  0  0  0  0  0  0  0  0
  149.4880  131.1606  155.8136 H   0  0  0  0  0  0  0  0  0  0  0  0
  150.9875  132.0022  155.4213 H   0  0  0  0  0  0  0  0  0  0  0  0
  149.8877  133.0087  153.3852 H   0  0  0  0  0  0  0  0  0  0  0  0
  148.4071  132.1455  153.7467 H   0  0  0  0  0  0  0  0  0  0  0  0
  147.1567  135.1938  156.4758 H   0  0  0  0  0  0  0  0  0  0  0  0
  146.7065  133.8970  157.5764 H   0  0  0  0  0  0  0  0  0  0  0  0
  148.9474  133.8878  158.5762 H   0  0  0  0  0  0  0  0  0  0  0  0
  151.0840  135.8072  158.6616 H   0  0  0  0  0  0  0  0  0  0  0  0
  150.0541  136.6000  155.2396 H   0  0  0  0  0  0  0  0  0  0  0  0
  149.6017  137.6067  159.4282 H   0  0  0  0  0  0  0  0  0  0  0  0
  147.2303  136.2320  158.7777 H   0  0  0  0  0  0  0  0  0  0  0  0
  148.1864  134.2423  162.3176 H   0  0  0  0  0  0  0  0  0  0  0  0
  147.9793  135.6318  163.3628 H   0  0  0  0  0  0  0  0  0  0  0  0
  146.0202  134.1273  163.5964 H   0  0  0  0  0  0  0  0  0  0  0  0
  145.7138  134.1855  161.8651 H   0  0  0  0  0  0  0  0  0  0  0  0
  145.4918  135.6319  162.8517 H   0  0  0  0  0  0  0  0  0  0  0  0
  1  2  1  0  0  0  0
  1 27  1  0  0  0  0
  1 28  1  0  0  0  0
  1 29  1  0  0  0  0
  2  3  1  0  0  0  0
  2 30  1  0  0  0  0
  2 31  1  0  0  0  0
  3  4  2  0  0  0  0
  3  5  1  0  0  0  0
  5  6  1  0  0  0  0
  6  7  1  0  0  0  0
  6 32  1  0  0  0  0
  6 33  1  0  0  0  0
  7 21  1  0  0  0  0
  7  8  1  0  0  0  0
  7 34  1  0  0  0  0
  8  9  1  0  0  0  0
  9 10  1  0  0  0  0
  9 19  1  0  0  0  0
  9 35  1  0  0  0  0
 10 17  1  0  0  0  0
 10 11  1  0  0  0  0
 11 12  2  0  0  0  0
 11 36  1  0  0  0  0
 12 13  1  0  0  0  0
 12 14  1  0  0  0  0
 14 15  2  0  0  0  0
 14 16  1  0  0  0  0
 16 17  1  0  0  0  0
 17 18  2  0  0  0  0
 19 20  1  0  0  0  0
 19 21  1  0  0  0  0
 19 37  1  0  0  0  0
 21 22  1  0  0  0  0
 21 38  1  0  0  0  0
 22 23  1  0  0  0  0
 23 24  2  0  0  0  0
 23 25  1  0  0  0  0
 25 26  1  0  0  0  0
 25 39  1  0  0  0  0
 25 40  1  0  0  0  0
 26 41  1  0  0  0  0
 26 42  1  0  0  0  0
 26 43  1  0  0  0  0
M  CHG  1  16  -1
M  END
> <s_m_source_file>
AV-unprocessed.smi

> <i_m_source_file_index>
37

> <i_lp_mmshare_version>
43012

> <i_f3d_flags>
0

> <s_epik_input>
W0NIM11bQ0gyXUMoPU8pT1tDSDJdW0NAQEhdMU9bQ0BASF0objJbY0hdYyhGKWMoPU8pW25IXWMyPU8pW0NAQEhdKEJyKVtDQEhdMU9DKD1PKVtDSDJdW0NIM10=

> <s_epik_cmdline>
J2VwaWtfcHl0aG9uJywgJy1waCcsICc3LjAnLCAnLXRuJywgJzgnLCAnLW1hJywgJzIwMCcsICctbWV0YWxfYmluZGluZycsICctaW1hZScsICc8aW5maWxlLm1hZT4nLCAnLW9tYWUnLCAnPG91dGZpbGUubWFlPic=

> <r_epik_Ionization_Penalty>
1.08158

> <r_epik_Ionization_Penalty_Charging>
9.05154e-09

> <r_epik_Ionization_Penalty_Neutral>
1.08158

> <r_epik_State_Penalty>
1.13706

> <r_epik_Charging_Adjusted_Penalty>
1.13706

> <i_epik_Tot_Q>
-1

> <i_epik_Tot_abs_Q>
1

> <r_epik_Metal_State_Penalty>
0.00343535

> <b_epik_Metal_Only>
0

> <s_epik_Chemistry_Notes>
This compound has an ester and may undergo hydrolysis at high or low pH. This compound contains an acetal/aminal-like group ( X-CH(R)-Y where X, Y are N, S, or O) that may be acid/base labile, releasing an aldehyde.

> <s_lp_Force_Field>
OPLS_2005

> <r_lp_Energy>
31.9934

> <b_lp_Chiralities_Consistent>
1

> <s_lp_Variant>
AV-unprocessed.smi:37-26

> <Gold.Version>
5.8.1

> <Gold.Id.Protein>
6NUR|6NUR_protein|mol2

> <Gold.PLP.Fitness>
41.5576

> <Gold.PLP.PLP>
-33.1470

> <Gold.PLP.part.hbond>
-5.0000

> <Gold.PLP.part.metal>
0.0000

> <Gold.PLP.part.buried>
-2.1163

> <Gold.PLP.part.nonpolar>
-25.7582

> <Gold.PLP.part.repulsive>
0.4171

> <Gold.PLP.ligand.clash>
0.0000

> <Gold.PLP.ligand.torsion>
1.5816

> <Gold.PLP.Chemscore.Hbond>
3.7954

> <Gold.PLP.Chemscore.CHOScore>
0.0000

> <Gold.PLP.Chemscore.Metal>
0.0000

> <Gold.Chemscore.Hbonds>
donor molecule, donor type, donor heavy atom, donor atom, acceptor molecule, acceptor atom, score
      P1  H  6931  6943       L1    24  0.63
      P1  H  6934  6947       L1    24  1.00
      P1  H  7997  8008       L1    15  0.60
      P1  H  7997  8010       L1    16  0.81

> <Gold.PLP.Chemscore.Internal.Correction>
0.1875

> <Gold.Rescore>
     Score         DG    S(hbond)    S(metal)    S(lipo)     H(rot)  DE(clash)    DE(int)     intcor
      5.26     -10.79       2.24        0.00      53.04       3.27       1.20       4.33       ----

> <Gold.Chemscore.Fitness>
5.2624

> <Gold.Chemscore.DG>
-10.7882

> <Gold.Chemscore.ZeroCoef>
-5.4800

> <Gold.Chemscore.Hbond>
2.2353

> <Gold.Chemscore.Metal>
0.0000

> <Gold.Chemscore.Lipo>
53.0406

> <Gold.Chemscore.Internal_Hbond>
0.0000

> <Gold.Chemscore.DEClash>
1.1960

> <Gold.Chemscore.DEInternal>
4.3297

> <Gold.Chemscore.Rot>
3.2669

> <Gold.Chemscore.Internal.Correction>
   9.000000E+99

> <Gold.Chemscore.Hbonds>
donor molecule, donor type, donor heavy atom, donor atom, acceptor molecule, acceptor atom, score
      P1  H  6931  6943       L1    24  0.14
      P1  H  6934  6947       L1    24  0.95
      P1  H  7997  8008       L1    15  0.51
      P1  H  7997  8010       L1    16  0.22

> <Gold.Chemscore.Hbond.Weighted>
-7.4658

> <Gold.Chemscore.Metal.Weighted>
-0.0000

> <Gold.Chemscore.Lipo.Weighted>
-6.2057

> <Gold.Chemscore.Internal_Hbond.Weighted>
0.0000

> <Gold.Chemscore.DEClash.Weighted>
1.1960

> <Gold.Chemscore.DEInternal.Weighted>
4.3297

> <Gold.Chemscore.Rot.Weighted>
8.3634

> <Gold.Chemscore.Internal.Correction.Weighted>
   9.000000E+99

> <Gold.Protein.RotatedTorsions>
[ 6907 6896 6895 6894 ] final   11.24 input  -60.11 | X-H torsion
[ 7974 7965 7964 7962 ] final   -4.61 input  175.53 | X-H torsion
[ 8008 7997 7996 7995 ] final   31.07 input   59.86 | X-H torsion
[ 10167 10162 10161 10158 ] final  125.86 input  -65.29 | X-H torsion
[ 10718 10713 10712 10709 ] final  -29.82 input   66.30 | X-H torsion
[ 10763 10752 10751 10750 ] final  -66.26 input  -60.55 | X-H torsion
[ 11005 11000 10999 10996 ] final  118.54 input  -57.11 | X-H torsion

> <Gold.Protein.ActiveResidues>
 VAL166  LYS551  ARG553  GLY616  TRP617  ASP618  TYR619  PRO620  LYS621  CYS622 
 ASP623  PHE694  ASN695  SER759  ASP760  ASP761  ALA762  ILE779  LEU786  VAL792 
 PHE793  MET794  SER795  GLU796  ALA797  LYS798  CYS799  TRP800  GLU811  SER814 

> <Gold.Protein.RotatedAtoms>
  151.7512  135.0832  160.0330 H   0  0  0  0  0  0  0  0  0  0  0  0  # atno 6907 bound_to 6896
  152.3416  133.6069  159.5888 H   0  0  0  0  0  0  0  0  0  0  0  0  # atno 6908 bound_to 6896
  150.7483  133.9630  159.3563 H   0  0  0  0  0  0  0  0  0  0  0  0  # atno 6909 bound_to 6896
  146.2369  140.1897  142.8332 H   0  0  0  0  0  0  0  0  0  0  0  0  # atno 7974 bound_to 7965
  155.1005  140.3229  155.4548 H   0  0  0  0  0  0  0  0  0  0  0  0  # atno 8008 bound_to 7997
  156.2718  140.2062  156.6078 H   0  0  0  0  0  0  0  0  0  0  0  0  # atno 8009 bound_to 7997
  154.6833  140.0524  157.0275 H   0  0  0  0  0  0  0  0  0  0  0  0  # atno 8010 bound_to 7997
  139.5662  144.6913  151.3903 H   0  0  0  0  0  0  0  0  0  0  0  0  # atno 10167 bound_to 10162
  156.4076  130.4402  149.7276 H   0  0  0  0  0  0  0  0  0  0  0  0  # atno 10718 bound_to 10713
  154.3571  135.6124  153.5672 H   0  0  0  0  0  0  0  0  0  0  0  0  # atno 10763 bound_to 10752
  152.9795  135.5806  154.4676 H   0  0  0  0  0  0  0  0  0  0  0  0  # atno 10764 bound_to 10752
  154.4407  135.2850  155.1827 H   0  0  0  0  0  0  0  0  0  0  0  0  # atno 10765 bound_to 10752
  139.9113  134.9621  156.7519 H   0  0  0  0  0  0  0  0  0  0  0  0  # atno 11005 bound_to 11000
  144.9868  140.8510  143.5364 LP  0  0  0  0  0  0  0  0  0  0  0  0  # atno 17320 bound_to 7965
  145.1897  139.2307  143.5249 LP  0  0  0  0  0  0  0  0  0  0  0  0  # atno 17321 bound_to 7965
  140.6946  143.7780  150.7307 LP  0  0  0  0  0  0  0  0  0  0  0  0  # atno 17342 bound_to 10162
  140.1272  143.4558  152.2276 LP  0  0  0  0  0  0  0  0  0  0  0  0  # atno 17343 bound_to 10162
  156.4267  130.7795  151.2814 LP  0  0  0  0  0  0  0  0  0  0  0  0  # atno 17370 bound_to 10713
  157.7506  131.0166  150.3552 LP  0  0  0  0  0  0  0  0  0  0  0  0  # atno 17371 bound_to 10713
  140.6767  133.9511  155.7887 LP  0  0  0  0  0  0  0  0  0  0  0  0  # atno 17394 bound_to 11000
  141.0539  134.0444  157.3747 LP  0  0  0  0  0  0  0  0  0  0  0  0  # atno 17395 bound_to 11000

$$$$
