AV-unprocessed.smi:2390|AV-procd|sdf|9478|dock5
  -GOLD-   2272013103D 1   1.00000     0.00000
 Structure written by MMmdl.
 46 47  0  0  0  0  0  0  0  0  2 V2000
  153.9744  142.1592  160.0007 C   0  0  0  0  0  0  0  0  0  0  0  0
  152.7932  142.8960  159.4051 C   0  0  0  0  0  0  0  0  0  0  0  0
  152.3497  144.1164  159.9513 C   0  0  0  0  0  0  0  0  0  0  0  0
  151.2499  144.7522  159.3480 C   0  0  0  0  0  0  0  0  0  0  0  0
  150.6444  144.1471  158.2300 C   0  0  0  0  0  0  0  0  0  0  0  0
  151.1504  142.9204  157.7449 C   0  0  0  0  0  0  0  0  0  0  0  0
  150.4769  142.3980  156.6089 N   0  0  0  0  0  0  0  0  0  0  0  0
  150.7378  141.2607  155.9414 C   0  0  0  0  0  0  0  0  0  0  0  0
  151.5882  140.4272  156.2562 O   0  0  0  0  0  0  0  0  0  0  0  0
  149.9423  141.1323  154.8689 N   0  0  0  0  0  0  0  0  0  0  0  0
  149.9588  140.0088  153.9320 C   0  0  1  0  0  0  0  0  0  0  0  0
  151.4223  139.6562  153.6122 C   0  0  0  0  0  0  0  0  0  0  0  0
  149.1312  138.7909  154.4581 C   0  0  2  0  0  0  0  0  0  0  0  0
  149.9913  137.8786  155.3698 C   0  0  0  0  0  0  0  0  0  0  0  0
  148.4601  138.0305  153.3499 N   0  3  0  0  0  0  0  0  0  0  0  0
  147.7015  136.8312  153.8053 C   0  0  0  0  0  0  0  0  0  0  0  0
  147.0473  136.0934  152.6248 C   0  0  0  0  0  0  0  0  0  0  0  0
  146.2031  136.9812  151.9098 O   0  0  0  0  0  0  0  0  0  0  0  0
  146.9418  138.0602  151.3605 C   0  0  0  0  0  0  0  0  0  0  0  0
  147.5841  138.8783  152.4929 C   0  0  0  0  0  0  0  0  0  0  0  0
  152.2116  142.3146  158.3336 N   0  0  0  0  0  0  0  0  0  0  0  0
  154.2906  142.6134  160.9401 H   0  0  0  0  0  0  0  0  0  0  0  0
  154.8185  142.1790  159.3107 H   0  0  0  0  0  0  0  0  0  0  0  0
  153.7152  141.1185  160.1981 H   0  0  0  0  0  0  0  0  0  0  0  0
  152.8373  144.5564  160.8086 H   0  0  0  0  0  0  0  0  0  0  0  0
  150.8770  145.6892  159.7346 H   0  0  0  0  0  0  0  0  0  0  0  0
  149.7997  144.6237  157.7539 H   0  0  0  0  0  0  0  0  0  0  0  0
  149.7204  142.9649  156.2559 H   0  0  0  0  0  0  0  0  0  0  0  0
  149.2706  141.8642  154.6875 H   0  0  0  0  0  0  0  0  0  0  0  0
  149.5104  140.3948  153.0175 H   0  0  0  0  0  0  0  0  0  0  0  0
  151.4900  138.8659  152.8646 H   0  0  0  0  0  0  0  0  0  0  0  0
  151.9611  139.3227  154.4994 H   0  0  0  0  0  0  0  0  0  0  0  0
  151.9531  140.5218  153.2136 H   0  0  0  0  0  0  0  0  0  0  0  0
  148.3287  139.1821  155.0852 H   0  0  0  0  0  0  0  0  0  0  0  0
  150.5458  138.4457  156.1166 H   0  0  0  0  0  0  0  0  0  0  0  0
  150.7151  137.3020  154.7935 H   0  0  0  0  0  0  0  0  0  0  0  0
  149.3784  137.1793  155.9383 H   0  0  0  0  0  0  0  0  0  0  0  0
  148.3580  136.1193  154.3033 H   0  0  0  0  0  0  0  0  0  0  0  0
  146.9399  137.1334  154.5259 H   0  0  0  0  0  0  0  0  0  0  0  0
  147.8038  135.6731  151.9601 H   0  0  0  0  0  0  0  0  0  0  0  0
  146.4491  135.2588  152.9905 H   0  0  0  0  0  0  0  0  0  0  0  0
  147.6999  137.6879  150.6692 H   0  0  0  0  0  0  0  0  0  0  0  0
  146.2662  138.6892  150.7806 H   0  0  0  0  0  0  0  0  0  0  0  0
  146.8077  139.3389  153.1060 H   0  0  0  0  0  0  0  0  0  0  0  0
  148.1466  139.6842  152.0269 H   0  0  0  0  0  0  0  0  0  0  0  0
  149.1991  137.6856  152.7539 H   0  0  0  0  0  0  0  0  0  0  0  0
  1  2  1  0  0  0  0
  1 22  1  0  0  0  0
  1 23  1  0  0  0  0
  1 24  1  0  0  0  0
  2 21  1  0  0  0  0
  2  3  2  0  0  0  0
  3  4  1  0  0  0  0
  3 25  1  0  0  0  0
  4  5  2  0  0  0  0
  4 26  1  0  0  0  0
  5  6  1  0  0  0  0
  5 27  1  0  0  0  0
  6  7  1  0  0  0  0
  6 21  2  0  0  0  0
  7  8  1  0  0  0  0
  7 28  1  0  0  0  0
  8  9  2  0  0  0  0
  8 10  1  0  0  0  0
 10 11  1  0  0  0  0
 10 29  1  0  0  0  0
 11 12  1  0  0  0  0
 11 13  1  0  0  0  0
 11 30  1  0  0  0  0
 12 31  1  0  0  0  0
 12 32  1  0  0  0  0
 12 33  1  0  0  0  0
 13 14  1  0  0  0  0
 13 15  1  0  0  0  0
 13 34  1  0  0  0  0
 14 35  1  0  0  0  0
 14 36  1  0  0  0  0
 14 37  1  0  0  0  0
 15 20  1  0  0  0  0
 15 16  1  0  0  0  0
 15 46  1  0  0  0  0
 16 17  1  0  0  0  0
 16 38  1  0  0  0  0
 16 39  1  0  0  0  0
 17 18  1  0  0  0  0
 17 40  1  0  0  0  0
 17 41  1  0  0  0  0
 18 19  1  0  0  0  0
 19 20  1  0  0  0  0
 19 42  1  0  0  0  0
 19 43  1  0  0  0  0
 20 44  1  0  0  0  0
 20 45  1  0  0  0  0
M  CHG  1  15   1
M  END
> <s_m_source_file>
AV-unprocessed.smi

> <i_m_source_file_index>
2390

> <i_lp_mmshare_version>
43012

> <i_f3d_flags>
0

> <s_epik_input>
W0NIM11jMVtjSF1bY0hdW2NIXWMobjEpW05IXUMoPU8pW05IXVtDQEhdKFtDSDNdKVtDQEhdKFtDSDNdKU4yW0NIMl1bQ0gyXU9bQ0gyXVtDSDJdMg==

> <s_epik_cmdline>
J2VwaWtfcHl0aG9uJywgJy1waCcsICc3LjAnLCAnLXRuJywgJzgnLCAnLW1hJywgJzIwMCcsICctbWV0YWxfYmluZGluZycsICctaW1hZScsICc8aW5maWxlLm1hZT4nLCAnLW9tYWUnLCAnPG91dGZpbGUubWFlPic=

> <r_epik_Ionization_Penalty>
0.60259

> <r_epik_Ionization_Penalty_Charging>
0.602531

> <r_epik_Ionization_Penalty_Neutral>
5.9516e-05

> <r_epik_State_Penalty>
0.617039

> <r_epik_Charging_Adjusted_Penalty>
1.21957

> <i_epik_Tot_Q>
1

> <i_epik_Tot_abs_Q>
1

> <r_epik_Metal_State_Penalty>
0.617047

> <b_epik_Metal_Only>
0

> <s_lp_Force_Field>
OPLS_2005

> <r_lp_Energy>
24.4942

> <b_lp_Chiralities_Consistent>
1

> <s_lp_Variant>
AV-unprocessed.smi:2390-6

> <Gold.Version>
5.8.1

> <Gold.Id.Protein>
6NUR|6NUR_protein|mol2

> <Gold.PLP.Fitness>
44.8397

> <Gold.PLP.PLP>
-37.7232

> <Gold.PLP.part.hbond>
-2.0000

> <Gold.PLP.part.metal>
0.0000

> <Gold.PLP.part.buried>
-0.0863

> <Gold.PLP.part.nonpolar>
-35.9699

> <Gold.PLP.part.repulsive>
0.4752

> <Gold.PLP.ligand.clash>
0.0000

> <Gold.PLP.ligand.torsion>
0.9847

> <Gold.PLP.Chemscore.Hbond>
2.9913

> <Gold.PLP.Chemscore.CHOScore>
0.0000

> <Gold.PLP.Chemscore.Metal>
0.0000

> <Gold.Chemscore.Hbonds>
donor molecule, donor type, donor heavy atom, donor atom, acceptor molecule, acceptor atom, score
      L1  H     7    28       P1  8028  0.99
      L1  H    15    46       P1  7948  0.83

> <Gold.PLP.Chemscore.Internal.Correction>
0.1121

> <Gold.Rescore>
     Score         DG    S(hbond)    S(metal)    S(lipo)     H(rot)  DE(clash)    DE(int)     intcor
     14.73     -18.64       1.89        0.00      91.01       1.48       0.12       3.78       ----

> <Gold.Chemscore.Fitness>
14.7307

> <Gold.Chemscore.DG>
-18.6358

> <Gold.Chemscore.ZeroCoef>
-5.4800

> <Gold.Chemscore.Hbond>
1.8884

> <Gold.Chemscore.Metal>
0.0000

> <Gold.Chemscore.Lipo>
91.0131

> <Gold.Chemscore.Internal_Hbond>
0.0000

> <Gold.Chemscore.DEClash>
0.1232

> <Gold.Chemscore.DEInternal>
3.7820

> <Gold.Chemscore.Rot>
1.4844

> <Gold.Chemscore.Internal.Correction>
   9.000000E+99

> <Gold.Chemscore.Hbonds>
donor molecule, donor type, donor heavy atom, donor atom, acceptor molecule, acceptor atom, score
      L1  H     7    28       P1  8028  0.90
      L1  H    15    46       P1  7948  0.41

> <Gold.Chemscore.Hbond.Weighted>
-6.3073

> <Gold.Chemscore.Metal.Weighted>
-0.0000

> <Gold.Chemscore.Lipo.Weighted>
-10.6485

> <Gold.Chemscore.Internal_Hbond.Weighted>
0.0000

> <Gold.Chemscore.DEClash.Weighted>
0.1232

> <Gold.Chemscore.DEInternal.Weighted>
3.7820

> <Gold.Chemscore.Rot.Weighted>
3.8000

> <Gold.Chemscore.Internal.Correction.Weighted>
   9.000000E+99

> <Gold.Protein.RotatedTorsions>
[ 6907 6896 6895 6894 ] final  -57.36 input  -60.11 | X-H torsion
[ 7974 7965 7964 7962 ] final -136.45 input  175.53 | X-H torsion
[ 8008 7997 7996 7995 ] final   43.24 input   59.86 | X-H torsion
[ 10167 10162 10161 10158 ] final  -10.63 input  -65.29 | X-H torsion
[ 10718 10713 10712 10709 ] final  138.20 input   66.30 | X-H torsion
[ 10763 10752 10751 10750 ] final  101.43 input  -60.55 | X-H torsion
[ 11005 11000 10999 10996 ] final   15.93 input  -57.11 | X-H torsion

> <Gold.Protein.ActiveResidues>
 VAL166  LYS551  ARG553  GLY616  TRP617  ASP618  TYR619  PRO620  LYS621  CYS622 
 ASP623  PHE694  ASN695  SER759  ASP760  ASP761  ALA762  ILE779  LEU786  VAL792 
 PHE793  MET794  SER795  GLU796  ALA797  LYS798  CYS799  TRP800  GLU811  SER814 

> <Gold.Protein.RotatedAtoms>
  150.8092  134.7236  159.6672 H   0  0  0  0  0  0  0  0  0  0  0  0  # atno 6907 bound_to 6896
  152.4212  134.5948  159.9994 H   0  0  0  0  0  0  0  0  0  0  0  0  # atno 6908 bound_to 6896
  151.6163  133.3305  159.3114 H   0  0  0  0  0  0  0  0  0  0  0  0  # atno 6909 bound_to 6896
  144.8926  140.6662  143.5136 H   0  0  0  0  0  0  0  0  0  0  0  0  # atno 7974 bound_to 7965
  155.2995  140.3384  155.4248 H   0  0  0  0  0  0  0  0  0  0  0  0  # atno 8008 bound_to 7997
  156.2008  140.1732  156.7943 H   0  0  0  0  0  0  0  0  0  0  0  0  # atno 8009 bound_to 7997
  154.5556  140.0697  156.8722 H   0  0  0  0  0  0  0  0  0  0  0  0  # atno 8010 bound_to 7997
  140.7119  143.5727  150.9076 H   0  0  0  0  0  0  0  0  0  0  0  0  # atno 10167 bound_to 10162
  157.4279  131.1045  151.0282 H   0  0  0  0  0  0  0  0  0  0  0  0  # atno 10718 bound_to 10713
  153.3266  135.4045  155.1461 H   0  0  0  0  0  0  0  0  0  0  0  0  # atno 10763 bound_to 10752
  154.8613  135.3600  154.5526 H   0  0  0  0  0  0  0  0  0  0  0  0  # atno 10764 bound_to 10752
  153.5962  135.7072  153.5462 H   0  0  0  0  0  0  0  0  0  0  0  0  # atno 10765 bound_to 10752
  140.4528  134.1206  155.7705 H   0  0  0  0  0  0  0  0  0  0  0  0  # atno 11005 bound_to 11000
  145.3757  139.1648  143.4308 LP  0  0  0  0  0  0  0  0  0  0  0  0  # atno 17320 bound_to 7965
  146.3062  140.3833  142.8686 LP  0  0  0  0  0  0  0  0  0  0  0  0  # atno 17321 bound_to 7965
  139.9453  143.6335  152.3043 LP  0  0  0  0  0  0  0  0  0  0  0  0  # atno 17342 bound_to 10162
  139.6834  144.7653  151.1567 LP  0  0  0  0  0  0  0  0  0  0  0  0  # atno 17343 bound_to 10162
  157.1189  130.6053  149.5500 LP  0  0  0  0  0  0  0  0  0  0  0  0  # atno 17370 bound_to 10713
  155.9903  130.4953  150.7250 LP  0  0  0  0  0  0  0  0  0  0  0  0  # atno 17371 bound_to 10713
  141.1656  133.8709  157.1723 LP  0  0  0  0  0  0  0  0  0  0  0  0  # atno 17394 bound_to 11000
  139.9995  135.0033  157.0159 LP  0  0  0  0  0  0  0  0  0  0  0  0  # atno 17395 bound_to 11000

$$$$
