AV-unprocessed.smi:901|AV-procd|sdf|4092|dock6
  -GOLD-   22720 1583D 1   1.00000     0.00000
 Structure written by MMmdl.
 43 44  0  0  0  0  0  0  0  0  1 V2000
  152.7055  143.1685  161.8344 C   0  0  0  0  0  0  0  0  0  0  0  0
  152.5685  142.7120  160.3957 C   0  0  0  0  0  0  0  0  0  0  0  0
  153.4943  141.5751  160.0000 C   0  0  0  0  0  0  0  0  0  0  0  0
  151.6912  143.2864  159.5503 C   0  0  0  0  0  0  0  0  0  0  0  0
  151.4639  142.9181  158.1223 C   0  0  2  0  0  0  0  0  0  0  0  0
  150.0988  142.6196  157.5069 C   0  0  2  0  0  0  0  0  0  0  0  0
  148.8561  142.6172  158.3407 C   0  0  0  0  0  0  0  0  0  0  0  0
  148.0856  141.6590  158.3844 O   0  0  0  0  0  0  0  0  0  0  0  0
  148.7239  143.7317  159.0817 N   0  0  0  0  0  0  0  0  0  0  0  0
  147.6716  144.0850  159.9641 C   0  0  0  0  0  0  0  0  0  0  0  0
  147.2648  145.4121  160.2958 C   0  0  0  0  0  0  0  0  0  0  0  0
  146.2429  145.2133  161.1797 C   0  0  0  0  0  0  0  0  0  0  0  0
  146.0916  143.8503  161.3417 N   0  0  0  0  0  0  0  0  0  0  0  0
  145.1403  143.1425  162.1818 C   0  0  0  0  0  0  0  0  0  0  0  0
  143.7263  143.1763  161.5927 C   0  0  0  0  0  0  0  0  0  0  0  0
  143.5943  142.8200  160.3125 N   0  0  0  0  0  0  0  0  0  0  0  0
  142.7640  143.5156  162.2793 O   0  0  0  0  0  0  0  0  0  0  0  0
  146.9749  143.1539  160.5928 N   0  0  0  0  0  0  0  0  0  0  0  0
  151.1174  141.5017  157.6985 C   0  0  0  0  0  0  0  0  0  0  0  0
  151.7780  140.9196  156.4615 C   0  0  0  0  0  0  0  0  0  0  0  0
  150.9278  140.3984  158.7374 C   0  0  0  0  0  0  0  0  0  0  0  0
  153.7181  143.5264  162.0213 H   0  0  0  0  0  0  0  0  0  0  0  0
  152.5037  142.3406  162.5142 H   0  0  0  0  0  0  0  0  0  0  0  0
  152.0120  143.9768  162.0681 H   0  0  0  0  0  0  0  0  0  0  0  0
  154.5331  141.8764  160.1373 H   0  0  0  0  0  0  0  0  0  0  0  0
  153.3696  141.2769  158.9595 H   0  0  0  0  0  0  0  0  0  0  0  0
  153.3068  140.7020  160.6251 H   0  0  0  0  0  0  0  0  0  0  0  0
  151.0742  144.0883  159.9279 H   0  0  0  0  0  0  0  0  0  0  0  0
  152.1583  143.4555  157.4788 H   0  0  0  0  0  0  0  0  0  0  0  0
  149.9575  143.0032  156.4979 H   0  0  0  0  0  0  0  0  0  0  0  0
  149.4698  144.4079  159.0064 H   0  0  0  0  0  0  0  0  0  0  0  0
  147.6503  146.3612  159.9551 H   0  0  0  0  0  0  0  0  0  0  0  0
  145.6203  145.9211  161.7067 H   0  0  0  0  0  0  0  0  0  0  0  0
  145.4834  142.1134  162.2979 H   0  0  0  0  0  0  0  0  0  0  0  0
  145.1271  143.5909  163.1767 H   0  0  0  0  0  0  0  0  0  0  0  0
  142.6838  142.8274  159.8763 H   0  0  0  0  0  0  0  0  0  0  0  0
  144.4097  142.5456  159.7838 H   0  0  0  0  0  0  0  0  0  0  0  0
  151.1565  140.1326  156.0333 H   0  0  0  0  0  0  0  0  0  0  0  0
  152.7518  140.4984  156.7130 H   0  0  0  0  0  0  0  0  0  0  0  0
  151.9252  141.6885  155.7025 H   0  0  0  0  0  0  0  0  0  0  0  0
  150.2938  139.6072  158.3362 H   0  0  0  0  0  0  0  0  0  0  0  0
  150.4620  140.7716  159.6494 H   0  0  0  0  0  0  0  0  0  0  0  0
  151.8912  139.9647  159.0068 H   0  0  0  0  0  0  0  0  0  0  0  0
  1  2  1  0  0  0  0
  1 22  1  0  0  0  0
  1 23  1  0  0  0  0
  1 24  1  0  0  0  0
  2  3  1  0  0  0  0
  2  4  2  0  0  0  0
  3 25  1  0  0  0  0
  3 26  1  0  0  0  0
  3 27  1  0  0  0  0
  4  5  1  0  0  0  0
  4 28  1  0  0  0  0
  5 19  1  0  0  0  0
  5  6  1  0  0  0  0
  5 29  1  0  0  0  0
  6  7  1  0  0  0  0
  6 19  1  0  0  0  0
  6 30  1  0  0  0  0
  7  8  2  0  0  0  0
  7  9  1  0  0  0  0
  9 10  1  0  0  0  0
  9 31  1  0  0  0  0
 10 18  2  0  0  0  0
 10 11  1  0  0  0  0
 11 12  2  0  0  0  0
 11 32  1  0  0  0  0
 12 13  1  0  0  0  0
 12 33  1  0  0  0  0
 13 14  1  0  0  0  0
 13 18  1  0  0  0  0
 14 15  1  0  0  0  0
 14 34  1  0  0  0  0
 14 35  1  0  0  0  0
 15 16  1  0  0  0  0
 15 17  2  0  0  0  0
 16 36  1  0  0  0  0
 16 37  1  0  0  0  0
 19 20  1  0  0  0  0
 19 21  1  0  0  0  0
 20 38  1  0  0  0  0
 20 39  1  0  0  0  0
 20 40  1  0  0  0  0
 21 41  1  0  0  0  0
 21 42  1  0  0  0  0
 21 43  1  0  0  0  0
M  END
> <s_m_source_file>
AV-unprocessed.smi

> <i_m_source_file_index>
901

> <i_lp_mmshare_version>
43012

> <i_f3d_flags>
0

> <s_epik_input>
W0NIM11DKFtDSDNdKT1bQ0hdW0NAQEhdKEMxKFtDSDNdKVtDSDNdKVtDQEhdMUMoPU8pW05IXWMyW2NIXVtjSF1uKG4yKVtDSDJdQyg9TylbTkgyXQ==

> <s_epik_cmdline>
J2VwaWtfcHl0aG9uJywgJy1waCcsICc3LjAnLCAnLXRuJywgJzgnLCAnLW1hJywgJzIwMCcsICctbWV0YWxfYmluZGluZycsICctaW1hZScsICc8aW5maWxlLm1hZT4nLCAnLW9tYWUnLCAnPG91dGZpbGUubWFlPic=

> <r_lp_tautomer_probability>
1

> <r_epik_Ionization_Penalty>
1.01454e-05

> <r_epik_Ionization_Penalty_Charging>
0

> <r_epik_Ionization_Penalty_Neutral>
1.01454e-05

> <r_epik_State_Penalty>
-0

> <r_epik_Charging_Adjusted_Penalty>
0

> <i_epik_Tot_Q>
0

> <i_epik_Tot_abs_Q>
0

> <r_epik_Metal_State_Penalty>
-0

> <b_epik_Metal_Only>
0

> <s_lp_Force_Field>
OPLS_2005

> <r_lp_Energy>
21.7989

> <b_lp_Chiralities_Consistent>
1

> <s_lp_Variant>
AV-unprocessed.smi:901-3

> <Gold.Version>
5.8.1

> <Gold.Id.Protein>
6NUR|6NUR_protein|mol2

> <Gold.PLP.Fitness>
42.6997

> <Gold.PLP.PLP>
-40.4741

> <Gold.PLP.part.hbond>
-3.1839

> <Gold.PLP.part.metal>
0.0000

> <Gold.PLP.part.buried>
-3.5701

> <Gold.PLP.part.nonpolar>
-33.6427

> <Gold.PLP.part.repulsive>
0.3363

> <Gold.PLP.ligand.clash>
0.0000

> <Gold.PLP.ligand.torsion>
0.5469

> <Gold.PLP.Chemscore.Hbond>
1.0298

> <Gold.PLP.Chemscore.CHOScore>
0.0000

> <Gold.PLP.Chemscore.Metal>
0.0000

> <Gold.Chemscore.Hbonds>
donor molecule, donor type, donor heavy atom, donor atom, acceptor molecule, acceptor atom, score
      P1  H  6933  6944       L1    18  0.75
      P1  H  6934  6946       L1    18  0.29

> <Gold.PLP.Chemscore.Internal.Correction>
0.2298

> <Gold.Rescore>
     Score         DG    S(hbond)    S(metal)    S(lipo)     H(rot)  DE(clash)    DE(int)     intcor
     10.11     -13.07       0.79        0.00      89.00       2.13       0.17       2.79       ----

> <Gold.Chemscore.Fitness>
10.1108

> <Gold.Chemscore.DG>
-13.0704

> <Gold.Chemscore.ZeroCoef>
-5.4800

> <Gold.Chemscore.Hbond>
0.7884

> <Gold.Chemscore.Metal>
0.0000

> <Gold.Chemscore.Lipo>
88.9957

> <Gold.Chemscore.Internal_Hbond>
0.0000

> <Gold.Chemscore.DEClash>
0.1702

> <Gold.Chemscore.DEInternal>
2.7894

> <Gold.Chemscore.Rot>
2.1309

> <Gold.Chemscore.Internal.Correction>
   9.000000E+99

> <Gold.Chemscore.Hbonds>
donor molecule, donor type, donor heavy atom, donor atom, acceptor molecule, acceptor atom, score
      P1  H  6933  6944       L1    18  0.09
      P1  H  6934  6946       L1    18  0.28

> <Gold.Chemscore.Hbond.Weighted>
-2.6331

> <Gold.Chemscore.Metal.Weighted>
-0.0000

> <Gold.Chemscore.Lipo.Weighted>
-10.4125

> <Gold.Chemscore.Internal_Hbond.Weighted>
0.0000

> <Gold.Chemscore.DEClash.Weighted>
0.1702

> <Gold.Chemscore.DEInternal.Weighted>
2.7894

> <Gold.Chemscore.Rot.Weighted>
5.4552

> <Gold.Chemscore.Internal.Correction.Weighted>
   9.000000E+99

> <Gold.Protein.RotatedTorsions>
[ 6907 6896 6895 6894 ] final  116.68 input  -60.11 | X-H torsion
[ 7974 7965 7964 7962 ] final   97.73 input  175.53 | X-H torsion
[ 8008 7997 7996 7995 ] final  142.90 input   59.86 | X-H torsion
[ 10167 10162 10161 10158 ] final   23.80 input  -65.29 | X-H torsion
[ 10718 10713 10712 10709 ] final -142.41 input   66.30 | X-H torsion
[ 10763 10752 10751 10750 ] final  119.77 input  -60.55 | X-H torsion
[ 11005 11000 10999 10996 ] final   92.08 input  -57.11 | X-H torsion

> <Gold.Protein.ActiveResidues>
 VAL166  LYS551  ARG553  GLY616  TRP617  ASP618  TYR619  PRO620  LYS621  CYS622 
 ASP623  PHE694  ASN695  SER759  ASP760  ASP761  ALA762  ILE779  LEU786  VAL792 
 PHE793  MET794  SER795  GLU796  ALA797  LYS798  CYS799  TRP800  GLU811  SER814 

> <Gold.Protein.RotatedAtoms>
  152.4662  133.7928  159.6910 H   0  0  0  0  0  0  0  0  0  0  0  0  # atno 6907 bound_to 6896
  150.8628  133.7609  159.2993 H   0  0  0  0  0  0  0  0  0  0  0  0  # atno 6908 bound_to 6896
  151.5169  135.1069  159.9920 H   0  0  0  0  0  0  0  0  0  0  0  0  # atno 6909 bound_to 6896
  145.4216  139.2321  143.3193 H   0  0  0  0  0  0  0  0  0  0  0  0  # atno 7974 bound_to 7965
  156.2941  140.2276  156.4803 H   0  0  0  0  0  0  0  0  0  0  0  0  # atno 8008 bound_to 7997
  154.7858  140.0457  157.1184 H   0  0  0  0  0  0  0  0  0  0  0  0  # atno 8009 bound_to 7997
  154.9704  140.3065  155.4994 H   0  0  0  0  0  0  0  0  0  0  0  0  # atno 8010 bound_to 7997
  140.5240  143.9955  150.6431 H   0  0  0  0  0  0  0  0  0  0  0  0  # atno 10167 bound_to 10162
  156.3456  130.7661  151.1805 H   0  0  0  0  0  0  0  0  0  0  0  0  # atno 10718 bound_to 10713
  153.5882  135.3471  155.2901 H   0  0  0  0  0  0  0  0  0  0  0  0  # atno 10763 bound_to 10752
  154.8657  135.4198  154.2545 H   0  0  0  0  0  0  0  0  0  0  0  0  # atno 10764 bound_to 10752
  153.3346  135.7046  153.6989 H   0  0  0  0  0  0  0  0  0  0  0  0  # atno 10765 bound_to 10752
  139.8829  134.8712  156.3520 H   0  0  0  0  0  0  0  0  0  0  0  0  # atno 11005 bound_to 11000
  146.2653  140.4941  142.8836 LP  0  0  0  0  0  0  0  0  0  0  0  0  # atno 17320 bound_to 7965
  144.8241  140.6599  143.6333 LP  0  0  0  0  0  0  0  0  0  0  0  0  # atno 17321 bound_to 7965
  140.3312  143.3077  152.0686 LP  0  0  0  0  0  0  0  0  0  0  0  0  # atno 17342 bound_to 10162
  139.4932  144.6508  151.6680 LP  0  0  0  0  0  0  0  0  0  0  0  0  # atno 17343 bound_to 10162
  157.7453  131.0442  150.4782 LP  0  0  0  0  0  0  0  0  0  0  0  0  # atno 17370 bound_to 10713
  156.4969  130.4108  149.6375 LP  0  0  0  0  0  0  0  0  0  0  0  0  # atno 17371 bound_to 10713
  140.9587  133.7402  156.0372 LP  0  0  0  0  0  0  0  0  0  0  0  0  # atno 17394 bound_to 11000
  140.8016  134.3502  157.5438 LP  0  0  0  0  0  0  0  0  0  0  0  0  # atno 17395 bound_to 11000

$$$$
