AV-unprocessed.smi:3113|AV-procd|sdf|11855|dock1
  -GOLD-   2272017233D 1   1.00000     0.00000
 Structure written by MMmdl.
 34 35  0  0  0  0  0  0  0  0  1 V2000
  152.5955  142.6447  161.8384 C   0  0  0  0  0  0  0  0  0  0  0  0
  153.3781  141.9727  160.8581 C   0  0  0  0  0  0  0  0  0  0  0  0
  153.3582  142.5816  159.6834 N   0  0  0  0  0  0  0  0  0  0  0  0
  152.5644  143.6576  159.8740 N   0  0  0  0  0  0  0  0  0  0  0  0
  152.3042  144.5664  158.7719 C   0  0  0  0  0  0  0  0  0  0  0  0
  151.7604  143.8373  157.5330 C   0  0  0  0  0  0  0  0  0  0  0  0
  150.4048  143.3430  157.7563 N   0  0  0  0  0  0  0  0  0  0  0  0
  150.2996  141.8872  157.7337 C   0  0  0  0  0  0  0  0  0  0  0  0
  150.5751  141.3156  156.3326 C   0  0  1  0  0  0  0  0  0  0  0  0
  151.3883  140.0036  156.3431 C   0  0  0  0  0  0  0  0  0  0  0  0
  151.5845  139.4857  154.9143 C   0  0  0  0  0  0  0  0  0  0  0  0
  150.2269  139.3912  154.2092 C   0  0  0  0  0  0  0  0  0  0  0  0
  149.4828  140.7339  154.2958 C   0  0  0  0  0  0  0  0  0  0  0  0
  149.3329  141.1269  155.6571 O   0  0  0  0  0  0  0  0  0  0  0  0
  152.0899  143.7210  161.1673 C   0  0  0  0  0  0  0  0  0  0  0  0
  152.4301  142.3770  162.8713 H   0  0  0  0  0  0  0  0  0  0  0  0
  153.9558  141.0662  160.9644 H   0  0  0  0  0  0  0  0  0  0  0  0
  151.6050  145.3344  159.1051 H   0  0  0  0  0  0  0  0  0  0  0  0
  153.2341  145.0794  158.5217 H   0  0  0  0  0  0  0  0  0  0  0  0
  151.7640  144.5251  156.6869 H   0  0  0  0  0  0  0  0  0  0  0  0
  152.4242  143.0139  157.2667 H   0  0  0  0  0  0  0  0  0  0  0  0
  149.7747  143.7392  157.0659 H   0  0  0  0  0  0  0  0  0  0  0  0
  151.0025  141.4516  158.4448 H   0  0  0  0  0  0  0  0  0  0  0  0
  149.3031  141.5843  158.0574 H   0  0  0  0  0  0  0  0  0  0  0  0
  151.1421  142.0696  155.7835 H   0  0  0  0  0  0  0  0  0  0  0  0
  152.3555  140.1607  156.8210 H   0  0  0  0  0  0  0  0  0  0  0  0
  150.8707  139.2429  156.9286 H   0  0  0  0  0  0  0  0  0  0  0  0
  152.2385  140.1631  154.3636 H   0  0  0  0  0  0  0  0  0  0  0  0
  152.0768  138.5130  154.9260 H   0  0  0  0  0  0  0  0  0  0  0  0
  150.3634  139.1017  153.1670 H   0  0  0  0  0  0  0  0  0  0  0  0
  149.6248  138.6105  154.6753 H   0  0  0  0  0  0  0  0  0  0  0  0
  150.0141  141.5082  153.7405 H   0  0  0  0  0  0  0  0  0  0  0  0
  148.4941  140.6439  153.8459 H   0  0  0  0  0  0  0  0  0  0  0  0
  151.4360  144.5151  161.4965 H   0  0  0  0  0  0  0  0  0  0  0  0
  1 15  2  0  0  0  0
  1  2  1  0  0  0  0
  1 16  1  0  0  0  0
  2  3  2  0  0  0  0
  2 17  1  0  0  0  0
  3  4  1  0  0  0  0
  4  5  1  0  0  0  0
  4 15  1  0  0  0  0
  5  6  1  0  0  0  0
  5 18  1  0  0  0  0
  5 19  1  0  0  0  0
  6  7  1  0  0  0  0
  6 20  1  0  0  0  0
  6 21  1  0  0  0  0
  7  8  1  0  0  0  0
  7 22  1  0  0  0  0
  8  9  1  0  0  0  0
  8 23  1  0  0  0  0
  8 24  1  0  0  0  0
  9 14  1  0  0  0  0
  9 10  1  0  0  0  0
  9 25  1  0  0  0  0
 10 11  1  0  0  0  0
 10 26  1  0  0  0  0
 10 27  1  0  0  0  0
 11 12  1  0  0  0  0
 11 28  1  0  0  0  0
 11 29  1  0  0  0  0
 12 13  1  0  0  0  0
 12 30  1  0  0  0  0
 12 31  1  0  0  0  0
 13 14  1  0  0  0  0
 13 32  1  0  0  0  0
 13 33  1  0  0  0  0
 15 34  1  0  0  0  0
M  END
> <s_m_source_file>
AV-unprocessed.smi

> <i_m_source_file_index>
3113

> <i_lp_mmshare_version>
43012

> <i_f3d_flags>
0

> <s_epik_input>
W2NIXTFbY0hdW2NIXW5uMVtDSDJdW0NIMl1bTkhdW0NIMl1bQ0BASF0yW0NIMl1bQ0gyXVtDSDJdW0NIMl1PMg==

> <s_epik_cmdline>
J2VwaWtfcHl0aG9uJywgJy1waCcsICc3LjAnLCAnLXRuJywgJzgnLCAnLW1hJywgJzIwMCcsICctbWV0YWxfYmluZGluZycsICctaW1hZScsICc8aW5maWxlLm1hZT4nLCAnLW9tYWUnLCAnPG91dGZpbGUubWFlPic=

> <r_lp_tautomer_probability>
1

> <r_epik_Ionization_Penalty>
2.521

> <r_epik_Ionization_Penalty_Charging>
0

> <r_epik_Ionization_Penalty_Neutral>
2.521

> <r_epik_State_Penalty>
2.68614

> <r_epik_Charging_Adjusted_Penalty>
2.68614

> <i_epik_Tot_Q>
0

> <i_epik_Tot_abs_Q>
0

> <r_epik_Metal_State_Penalty>
2.68493

> <b_epik_Metal_Only>
0

> <s_lp_Force_Field>
OPLS_2005

> <r_lp_Energy>
15.0278

> <b_lp_Chiralities_Consistent>
1

> <s_lp_Variant>
AV-unprocessed.smi:3113-4

> <Gold.Version>
5.8.1

> <Gold.Id.Protein>
6NUR|6NUR_protein|mol2

> <Gold.PLP.Fitness>
43.7503

> <Gold.PLP.PLP>
-42.5769

> <Gold.PLP.part.hbond>
-1.0000

> <Gold.PLP.part.metal>
0.0000

> <Gold.PLP.part.buried>
-2.9661

> <Gold.PLP.part.nonpolar>
-38.8914

> <Gold.PLP.part.repulsive>
0.0809

> <Gold.PLP.ligand.clash>
0.0000

> <Gold.PLP.ligand.torsion>
0.9517

> <Gold.PLP.Chemscore.Hbond>
1.0000

> <Gold.PLP.Chemscore.CHOScore>
0.0000

> <Gold.PLP.Chemscore.Metal>
0.0000

> <Gold.Chemscore.Hbonds>
donor molecule, donor type, donor heavy atom, donor atom, acceptor molecule, acceptor atom, score
      L1  H     7    22       P1  8028  1.00

> <Gold.PLP.Chemscore.Internal.Correction>
0.0768

> <Gold.Rescore>
     Score         DG    S(hbond)    S(metal)    S(lipo)     H(rot)  DE(clash)    DE(int)     intcor
     15.90     -16.87       0.98        0.00     104.88       1.62       0.02       0.95       ----

> <Gold.Chemscore.Fitness>
15.8966

> <Gold.Chemscore.DG>
-16.8656

> <Gold.Chemscore.ZeroCoef>
-5.4800

> <Gold.Chemscore.Hbond>
0.9774

> <Gold.Chemscore.Metal>
0.0000

> <Gold.Chemscore.Lipo>
104.8845

> <Gold.Chemscore.Internal_Hbond>
0.0000

> <Gold.Chemscore.DEClash>
0.0191

> <Gold.Chemscore.DEInternal>
0.9499

> <Gold.Chemscore.Rot>
1.6213

> <Gold.Chemscore.Internal.Correction>
   9.000000E+99

> <Gold.Chemscore.Hbonds>
donor molecule, donor type, donor heavy atom, donor atom, acceptor molecule, acceptor atom, score
      L1  H     7    22       P1  8028  0.92

> <Gold.Chemscore.Hbond.Weighted>
-3.2646

> <Gold.Chemscore.Metal.Weighted>
-0.0000

> <Gold.Chemscore.Lipo.Weighted>
-12.2715

> <Gold.Chemscore.Internal_Hbond.Weighted>
0.0000

> <Gold.Chemscore.DEClash.Weighted>
0.0191

> <Gold.Chemscore.DEInternal.Weighted>
0.9499

> <Gold.Chemscore.Rot.Weighted>
4.1505

> <Gold.Chemscore.Internal.Correction.Weighted>
   9.000000E+99

> <Gold.Protein.RotatedTorsions>
[ 6907 6896 6895 6894 ] final  -28.25 input  -60.11 | X-H torsion
[ 7974 7965 7964 7962 ] final  107.03 input  175.53 | X-H torsion
[ 8008 7997 7996 7995 ] final  161.90 input   59.86 | X-H torsion
[ 10167 10162 10161 10158 ] final  116.01 input  -65.29 | X-H torsion
[ 10718 10713 10712 10709 ] final -108.07 input   66.30 | X-H torsion
[ 10763 10752 10751 10750 ] final -138.59 input  -60.55 | X-H torsion
[ 11005 11000 10999 10996 ] final  162.99 input  -57.11 | X-H torsion

> <Gold.Protein.ActiveResidues>
 VAL166  LYS551  ARG553  GLY616  TRP617  ASP618  TYR619  PRO620  LYS621  CYS622 
 ASP623  PHE694  ASN695  SER759  ASP760  ASP761  ALA762  ILE779  LEU786  VAL792 
 PHE793  MET794  SER795  GLU796  ALA797  LYS798  CYS799  TRP800  GLU811  SER814 

> <Gold.Protein.RotatedAtoms>
  151.1355  135.0152  159.8601 H   0  0  0  0  0  0  0  0  0  0  0  0  # atno 6907 bound_to 6896
  152.5452  134.1560  159.8548 H   0  0  0  0  0  0  0  0  0  0  0  0  # atno 6908 bound_to 6896
  151.1631  133.4787  159.2627 H   0  0  0  0  0  0  0  0  0  0  0  0  # atno 6909 bound_to 6896
  145.2989  139.2576  143.3824 H   0  0  0  0  0  0  0  0  0  0  0  0  # atno 7974 bound_to 7965
  156.2070  140.1765  156.7778 H   0  0  0  0  0  0  0  0  0  0  0  0  # atno 8008 bound_to 7997
  154.5669  140.0689  156.8935 H   0  0  0  0  0  0  0  0  0  0  0  0  # atno 8009 bound_to 7997
  155.2745  140.3345  155.4265 H   0  0  0  0  0  0  0  0  0  0  0  0  # atno 8010 bound_to 7997
  139.6277  144.7110  151.2499 H   0  0  0  0  0  0  0  0  0  0  0  0  # atno 10167 bound_to 10162
  156.0467  130.5694  150.7910 H   0  0  0  0  0  0  0  0  0  0  0  0  # atno 10718 bound_to 10713
  154.8633  135.3607  154.5409 H   0  0  0  0  0  0  0  0  0  0  0  0  # atno 10763 bound_to 10752
  153.6031  135.7012  153.5381 H   0  0  0  0  0  0  0  0  0  0  0  0  # atno 10764 bound_to 10752
  153.3274  135.4134  155.1428 H   0  0  0  0  0  0  0  0  0  0  0  0  # atno 10765 bound_to 10752
  140.2313  134.8122  157.3320 H   0  0  0  0  0  0  0  0  0  0  0  0  # atno 11005 bound_to 11000
  146.3159  140.3498  142.8655 LP  0  0  0  0  0  0  0  0  0  0  0  0  # atno 17320 bound_to 7965
  144.9110  140.7757  143.5807 LP  0  0  0  0  0  0  0  0  0  0  0  0  # atno 17321 bound_to 7965
  140.7420  143.6538  150.8225 LP  0  0  0  0  0  0  0  0  0  0  0  0  # atno 17342 bound_to 10162
  140.0158  143.5594  152.2820 LP  0  0  0  0  0  0  0  0  0  0  0  0  # atno 17343 bound_to 10162
  157.5350  131.0938  150.9904 LP  0  0  0  0  0  0  0  0  0  0  0  0  # atno 17370 bound_to 10713
  157.0201  130.5670  149.5330 LP  0  0  0  0  0  0  0  0  0  0  0  0  # atno 17371 bound_to 10713
  140.1748  134.4564  155.7809 LP  0  0  0  0  0  0  0  0  0  0  0  0  # atno 17394 bound_to 11000
  141.2217  133.6957  156.7768 LP  0  0  0  0  0  0  0  0  0  0  0  0  # atno 17395 bound_to 11000

$$$$
