AV-unprocessed.smi:798|AV-procd|sdf|3777|dock6
  -GOLD-   22720 1213D 1   1.00000     0.00000
 Structure written by MMmdl.
 33 35  0  0  0  0  0  0  0  0  2 V2000
  152.6402  139.6806  159.5298 O   0  0  0  0  0  0  0  0  0  0  0  0
  152.4845  140.0618  158.3673 C   0  0  0  0  0  0  0  0  0  0  0  0
  152.7742  139.3599  157.2481 N   0  5  0  0  0  0  0  0  0  0  0  0
  151.8590  139.2477  156.2713 C   0  0  0  0  0  0  0  0  0  0  0  0
  150.5685  139.5709  156.4531 N   0  0  0  0  0  0  0  0  0  0  0  0
  149.7920  139.3764  155.3186 N   0  0  0  0  0  0  0  0  0  0  0  0
  150.5195  138.9018  154.3077 C   0  0  0  0  0  0  0  0  0  0  0  0
  152.2172  138.6449  154.6506 S   0  0  0  0  0  0  0  0  0  0  0  0
  151.9735  141.2770  158.1255 N   0  0  0  0  0  0  0  0  0  0  0  0
  151.5477  142.2412  159.1393 C   0  0  2  0  0  0  0  0  0  0  0  0
  150.8010  143.4677  158.5528 C   0  0  2  0  0  0  0  0  0  0  0  0
  151.5940  144.1126  157.3959 C   0  0  0  0  0  0  0  0  0  0  0  0
  152.7999  144.7359  158.1227 C   0  0  0  0  0  0  0  0  0  0  0  0
  152.5180  144.4006  159.6009 C   0  0  1  0  0  0  0  0  0  0  0  0
  150.9980  144.5030  159.6523 C   0  0  0  0  0  0  0  0  0  0  0  0
  152.7670  142.8936  159.8446 C   0  0  1  0  0  0  0  0  0  0  0  0
  152.8709  142.5445  161.3421 C   0  0  0  0  0  0  0  0  0  0  0  0
  151.6145  142.6906  161.9688 O   0  0  0  0  0  0  0  0  0  0  0  0
  150.0532  138.6977  153.3556 H   0  0  0  0  0  0  0  0  0  0  0  0
  151.8673  141.5527  157.1603 H   0  0  0  0  0  0  0  0  0  0  0  0
  150.9106  141.7391  159.8701 H   0  0  0  0  0  0  0  0  0  0  0  0
  149.7595  143.2639  158.3029 H   0  0  0  0  0  0  0  0  0  0  0  0
  151.8884  143.4055  156.6203 H   0  0  0  0  0  0  0  0  0  0  0  0
  150.9993  144.8899  156.9147 H   0  0  0  0  0  0  0  0  0  0  0  0
  153.7500  144.3270  157.7773 H   0  0  0  0  0  0  0  0  0  0  0  0
  152.8243  145.8149  157.9657 H   0  0  0  0  0  0  0  0  0  0  0  0
  153.0469  145.0534  160.2960 H   0  0  0  0  0  0  0  0  0  0  0  0
  150.6214  145.4929  159.3884 H   0  0  0  0  0  0  0  0  0  0  0  0
  150.5677  144.2048  160.6093 H   0  0  0  0  0  0  0  0  0  0  0  0
  153.7048  142.6057  159.3652 H   0  0  0  0  0  0  0  0  0  0  0  0
  153.1950  141.5111  161.4667 H   0  0  0  0  0  0  0  0  0  0  0  0
  153.6012  143.1741  161.8506 H   0  0  0  0  0  0  0  0  0  0  0  0
  151.6219  143.4870  162.4771 H   0  0  0  0  0  0  0  0  0  0  0  0
  1  2  2  0  0  0  0
  2  3  1  0  0  0  0
  2  9  1  0  0  0  0
  3  4  1  0  0  0  0
  4  8  1  0  0  0  0
  4  5  2  0  0  0  0
  5  6  1  0  0  0  0
  6  7  2  0  0  0  0
  7  8  1  0  0  0  0
  7 19  1  0  0  0  0
  9 10  1  0  0  0  0
  9 20  1  0  0  0  0
 10 16  1  0  0  0  0
 10 11  1  0  0  0  0
 10 21  1  0  0  0  0
 11 15  1  0  0  0  0
 11 12  1  0  0  0  0
 11 22  1  0  0  0  0
 12 13  1  0  0  0  0
 12 23  1  0  0  0  0
 12 24  1  0  0  0  0
 13 14  1  0  0  0  0
 13 25  1  0  0  0  0
 13 26  1  0  0  0  0
 14 15  1  0  0  0  0
 14 16  1  0  0  0  0
 14 27  1  0  0  0  0
 15 28  1  0  0  0  0
 15 29  1  0  0  0  0
 16 17  1  0  0  0  0
 16 30  1  0  0  0  0
 17 18  1  0  0  0  0
 17 31  1  0  0  0  0
 17 32  1  0  0  0  0
 18 33  1  0  0  0  0
M  CHG  1   3  -1
M  END
> <s_m_source_file>
AV-unprocessed.smi

> <i_m_source_file_index>
798

> <i_lp_mmshare_version>
43012

> <i_f3d_flags>
0

> <s_epik_input>
W0NIMl0xW0NIMl1bQ0BASF0oW0NIMl0yKVtDQEBIXShbQ0gyXVtPSF0pW0NAQEhdKFtDQEhdMTIpW05IXUMoPU8pW05IXWMzbm5bY0hdczM=

> <s_epik_cmdline>
J2VwaWtfcHl0aG9uJywgJy1waCcsICc3LjAnLCAnLXRuJywgJzgnLCAnLW1hJywgJzIwMCcsICctbWV0YWxfYmluZGluZycsICctaW1hZScsICc8aW5maWxlLm1hZT4nLCAnLW9tYWUnLCAnPG91dGZpbGUubWFlPic=

> <r_lp_tautomer_probability>
1

> <r_epik_Ionization_Penalty>
4.53732

> <r_epik_Ionization_Penalty_Charging>
4.48632

> <r_epik_Ionization_Penalty_Neutral>
0.0510007

> <r_epik_State_Penalty>
4.48602

> <r_epik_Charging_Adjusted_Penalty>
8.97234

> <i_epik_Tot_Q>
-1

> <i_epik_Tot_abs_Q>
1

> <r_epik_Metal_State_Penalty>
0.812492

> <b_epik_Metal_Only>
1

> <s_lp_Force_Field>
OPLS_2005

> <r_lp_Energy>
46.8419

> <b_lp_Chiralities_Consistent>
1

> <s_lp_Variant>
AV-unprocessed.smi:798-9

> <Gold.Version>
5.8.1

> <Gold.Id.Protein>
6NUR|6NUR_protein|mol2

> <Gold.PLP.Fitness>
52.5645

> <Gold.PLP.PLP>
-42.4007

> <Gold.PLP.part.hbond>
-3.0000

> <Gold.PLP.part.metal>
0.0000

> <Gold.PLP.part.buried>
-5.9033

> <Gold.PLP.part.nonpolar>
-34.0029

> <Gold.PLP.part.repulsive>
0.1381

> <Gold.PLP.ligand.clash>
0.0000

> <Gold.PLP.ligand.torsion>
0.6608

> <Gold.PLP.Chemscore.Hbond>
2.8160

> <Gold.PLP.Chemscore.CHOScore>
1.0000

> <Gold.PLP.Chemscore.Metal>
0.0000

> <Gold.Chemscore.Hbonds>
donor molecule, donor type, donor heavy atom, donor atom, acceptor molecule, acceptor atom, score
      P1  H  6933  6945       L1    18  0.82
      P1  H  7997  8010       L1     3  2.00
      L1  C     7    19       P1  7957  0.83

> <Gold.PLP.Chemscore.Internal.Correction>
0.0374

> <Gold.Rescore>
     Score         DG    S(hbond)    S(metal)    S(lipo)     H(rot)  DE(clash)    DE(int)     intcor
     15.64     -18.72       1.63        0.00     108.81       1.92       1.33       1.75       ----

> <Gold.Chemscore.Fitness>
15.6382

> <Gold.Chemscore.DG>
-18.7240

> <Gold.Chemscore.ZeroCoef>
-5.4800

> <Gold.Chemscore.Hbond>
1.6258

> <Gold.Chemscore.Metal>
0.0000

> <Gold.Chemscore.Lipo>
108.8085

> <Gold.Chemscore.Internal_Hbond>
0.0000

> <Gold.Chemscore.DEClash>
1.3308

> <Gold.Chemscore.DEInternal>
1.7550

> <Gold.Chemscore.Rot>
1.9207

> <Gold.Chemscore.Internal.Correction>
   9.000000E+99

> <Gold.Chemscore.Hbonds>
donor molecule, donor type, donor heavy atom, donor atom, acceptor molecule, acceptor atom, score
      P1  H  6933  6945       L1    18  0.61
      P1  H  7997  8010       L1     3  0.37

> <Gold.Chemscore.Hbond.Weighted>
-5.4303

> <Gold.Chemscore.Metal.Weighted>
-0.0000

> <Gold.Chemscore.Lipo.Weighted>
-12.7306

> <Gold.Chemscore.Internal_Hbond.Weighted>
0.0000

> <Gold.Chemscore.DEClash.Weighted>
1.3308

> <Gold.Chemscore.DEInternal.Weighted>
1.7550

> <Gold.Chemscore.Rot.Weighted>
4.9169

> <Gold.Chemscore.Internal.Correction.Weighted>
   9.000000E+99

> <Gold.Protein.RotatedTorsions>
[ 6907 6896 6895 6894 ] final   83.42 input  -60.11 | X-H torsion
[ 7974 7965 7964 7962 ] final  160.10 input  175.53 | X-H torsion
[ 8008 7997 7996 7995 ] final   53.29 input   59.86 | X-H torsion
[ 10167 10162 10161 10158 ] final -146.15 input  -65.29 | X-H torsion
[ 10718 10713 10712 10709 ] final   -4.66 input   66.30 | X-H torsion
[ 10763 10752 10751 10750 ] final   -7.85 input  -60.55 | X-H torsion
[ 11005 11000 10999 10996 ] final   57.04 input  -57.11 | X-H torsion

> <Gold.Protein.ActiveResidues>
 VAL166  LYS551  ARG553  GLY616  TRP617  ASP618  TYR619  PRO620  LYS621  CYS622 
 ASP623  PHE694  ASN695  SER759  ASP760  ASP761  ALA762  ILE779  LEU786  VAL792 
 PHE793  MET794  SER795  GLU796  ALA797  LYS798  CYS799  TRP800  GLU811  SER814 

> <Gold.Protein.RotatedAtoms>
  152.5326  134.2898  159.9038 H   0  0  0  0  0  0  0  0  0  0  0  0  # atno 6907 bound_to 6896
  151.2851  133.4185  159.2637 H   0  0  0  0  0  0  0  0  0  0  0  0  # atno 6908 bound_to 6896
  151.0250  134.9512  159.8137 H   0  0  0  0  0  0  0  0  0  0  0  0  # atno 6909 bound_to 6896
  144.7755  139.7709  143.6280 H   0  0  0  0  0  0  0  0  0  0  0  0  # atno 7974 bound_to 7965
  155.4659  140.3463  155.4319 H   0  0  0  0  0  0  0  0  0  0  0  0  # atno 8008 bound_to 7997
  156.1131  140.1466  156.9340 H   0  0  0  0  0  0  0  0  0  0  0  0  # atno 8009 bound_to 7997
  154.4770  140.0882  156.7265 H   0  0  0  0  0  0  0  0  0  0  0  0  # atno 8010 bound_to 7997
  139.7740  143.8196  152.2629 H   0  0  0  0  0  0  0  0  0  0  0  0  # atno 10167 bound_to 10162
  156.7580  130.5260  149.5791 H   0  0  0  0  0  0  0  0  0  0  0  0  # atno 10718 bound_to 10713
  153.4321  135.7012  153.6224 H   0  0  0  0  0  0  0  0  0  0  0  0  # atno 10763 bound_to 10752
  153.4634  135.3731  155.2351 H   0  0  0  0  0  0  0  0  0  0  0  0  # atno 10764 bound_to 10752
  154.8726  135.4025  154.3707 H   0  0  0  0  0  0  0  0  0  0  0  0  # atno 10765 bound_to 10752
  140.0483  134.5774  155.9295 H   0  0  0  0  0  0  0  0  0  0  0  0  # atno 11005 bound_to 11000
  146.1931  139.5182  142.9792 LP  0  0  0  0  0  0  0  0  0  0  0  0  # atno 17320 bound_to 7965
  145.6199  141.0324  143.1920 LP  0  0  0  0  0  0  0  0  0  0  0  0  # atno 17321 bound_to 7965
  139.8239  144.7283  150.9537 LP  0  0  0  0  0  0  0  0  0  0  0  0  # atno 17342 bound_to 10162
  140.7815  143.4133  151.0958 LP  0  0  0  0  0  0  0  0  0  0  0  0  # atno 17343 bound_to 10162
  156.1358  130.6210  151.0398 LP  0  0  0  0  0  0  0  0  0  0  0  0  # atno 17370 bound_to 10713
  157.6747  131.0853  150.7523 LP  0  0  0  0  0  0  0  0  0  0  0  0  # atno 17371 bound_to 10713
  141.1918  133.6573  156.5471 LP  0  0  0  0  0  0  0  0  0  0  0  0  # atno 17394 bound_to 11000
  140.3958  134.7400  157.4750 LP  0  0  0  0  0  0  0  0  0  0  0  0  # atno 17395 bound_to 11000

$$$$
