AV-unprocessed.smi:1666|AV-procd|sdf|6672|dock3
  -GOLD-   22720 7383D 1   1.00000     0.00000
 Structure written by MMmdl.
 40 41  0  0  0  0  0  0  0  0  2 V2000
  147.8007  133.0158  152.3778 C   0  0  0  0  0  0  0  0  0  0  0  0
  146.3844  132.9671  151.8276 C   0  0  0  0  0  0  0  0  0  0  0  0
  145.7642  131.7154  151.6284 C   0  0  0  0  0  0  0  0  0  0  0  0
  144.4547  131.6719  151.1203 C   0  0  0  0  0  0  0  0  0  0  0  0
  143.8166  132.8900  150.8305 C   0  0  0  0  0  0  0  0  0  0  0  0
  144.4014  134.0905  151.0178 N   0  0  0  0  0  0  0  0  0  0  0  0
  145.6650  134.1500  151.5086 C   0  0  0  0  0  0  0  0  0  0  0  0
  146.3442  135.3810  151.7313 N   0  0  0  0  0  0  0  0  0  0  0  0
  145.8176  136.6028  151.9266 C   0  0  0  0  0  0  0  0  0  0  0  0
  144.6152  136.8683  151.9532 O   0  0  0  0  0  0  0  0  0  0  0  0
  146.7768  137.5253  152.0908 N   0  0  0  0  0  0  0  0  0  0  0  0
  146.5325  138.9442  152.3210 C   0  0  0  0  0  0  0  0  0  0  0  0
  146.6818  139.3069  153.8110 C   0  0  0  0  0  0  0  0  0  0  0  0
  146.0565  140.6112  154.1414 N   0  3  0  0  0  0  0  0  0  0  0  0
  145.6727  140.7064  155.5703 C   0  0  0  0  0  0  0  0  0  0  0  0
  144.9883  142.0536  155.8574 C   0  0  0  0  0  0  0  0  0  0  0  0
  145.8560  143.1173  155.4869 O   0  0  0  0  0  0  0  0  0  0  0  0
  146.1635  143.0929  154.0987 C   0  0  0  0  0  0  0  0  0  0  0  0
  146.8848  141.7796  153.7510 C   0  0  0  0  0  0  0  0  0  0  0  0
  148.1963  132.0135  152.5451 H   0  0  0  0  0  0  0  0  0  0  0  0
  147.8224  133.5475  153.3294 H   0  0  0  0  0  0  0  0  0  0  0  0
  148.4653  133.5256  151.6797 H   0  0  0  0  0  0  0  0  0  0  0  0
  146.2833  130.7973  151.8615 H   0  0  0  0  0  0  0  0  0  0  0  0
  143.9525  130.7298  150.9571 H   0  0  0  0  0  0  0  0  0  0  0  0
  142.8106  132.9020  150.4380 H   0  0  0  0  0  0  0  0  0  0  0  0
  147.3514  135.3207  151.7411 H   0  0  0  0  0  0  0  0  0  0  0  0
  147.7402  137.2249  152.0564 H   0  0  0  0  0  0  0  0  0  0  0  0
  147.2093  139.5276  151.6962 H   0  0  0  0  0  0  0  0  0  0  0  0
  145.5219  139.1739  151.9821 H   0  0  0  0  0  0  0  0  0  0  0  0
  146.2032  138.5217  154.3984 H   0  0  0  0  0  0  0  0  0  0  0  0
  147.7305  139.3192  154.1121 H   0  0  0  0  0  0  0  0  0  0  0  0
  144.9964  139.8906  155.8285 H   0  0  0  0  0  0  0  0  0  0  0  0
  146.5605  140.5977  156.1954 H   0  0  0  0  0  0  0  0  0  0  0  0
  144.0429  142.1340  155.3183 H   0  0  0  0  0  0  0  0  0  0  0  0
  144.7577  142.1395  156.9193 H   0  0  0  0  0  0  0  0  0  0  0  0
  145.2519  143.2050  153.5092 H   0  0  0  0  0  0  0  0  0  0  0  0
  146.8013  143.9453  153.8640 H   0  0  0  0  0  0  0  0  0  0  0  0
  147.8451  141.7368  154.2677 H   0  0  0  0  0  0  0  0  0  0  0  0
  147.0973  141.7592  152.6828 H   0  0  0  0  0  0  0  0  0  0  0  0
  145.1976  140.6644  153.6123 H   0  0  0  0  0  0  0  0  0  0  0  0
  1  2  1  0  0  0  0
  1 20  1  0  0  0  0
  1 21  1  0  0  0  0
  1 22  1  0  0  0  0
  2  7  1  0  0  0  0
  2  3  2  0  0  0  0
  3  4  1  0  0  0  0
  3 23  1  0  0  0  0
  4  5  2  0  0  0  0
  4 24  1  0  0  0  0
  5  6  1  0  0  0  0
  5 25  1  0  0  0  0
  6  7  2  0  0  0  0
  7  8  1  0  0  0  0
  8  9  1  0  0  0  0
  8 26  1  0  0  0  0
  9 10  2  0  0  0  0
  9 11  1  0  0  0  0
 11 12  1  0  0  0  0
 11 27  1  0  0  0  0
 12 13  1  0  0  0  0
 12 28  1  0  0  0  0
 12 29  1  0  0  0  0
 13 14  1  0  0  0  0
 13 30  1  0  0  0  0
 13 31  1  0  0  0  0
 14 19  1  0  0  0  0
 14 15  1  0  0  0  0
 14 40  1  0  0  0  0
 15 16  1  0  0  0  0
 15 32  1  0  0  0  0
 15 33  1  0  0  0  0
 16 17  1  0  0  0  0
 16 34  1  0  0  0  0
 16 35  1  0  0  0  0
 17 18  1  0  0  0  0
 18 19  1  0  0  0  0
 18 36  1  0  0  0  0
 18 37  1  0  0  0  0
 19 38  1  0  0  0  0
 19 39  1  0  0  0  0
M  CHG  1  14   1
M  END
> <s_m_source_file>
AV-unprocessed.smi

> <i_m_source_file_index>
1666

> <i_lp_mmshare_version>
43012

> <i_f3d_flags>
0

> <s_epik_input>
W0NIM11jMVtjSF1bY0hdW2NIXW5jMVtOSF1DKD1PKVtOSF1bQ0gyXVtDSDJdTjJbQ0gyXVtDSDJdT1tDSDJdW0NIMl0y

> <s_epik_cmdline>
J2VwaWtfcHl0aG9uJywgJy1waCcsICc3LjAnLCAnLXRuJywgJzgnLCAnLW1hJywgJzIwMCcsICctbWV0YWxfYmluZGluZycsICctaW1hZScsICc8aW5maWxlLm1hZT4nLCAnLW9tYWUnLCAnPG91dGZpbGUubWFlPic=

> <r_epik_Ionization_Penalty>
0.602573

> <r_epik_Ionization_Penalty_Charging>
0.602531

> <r_epik_Ionization_Penalty_Neutral>
4.20806e-05

> <r_epik_State_Penalty>
0.617039

> <r_epik_Charging_Adjusted_Penalty>
1.21957

> <i_epik_Tot_Q>
1

> <i_epik_Tot_abs_Q>
1

> <r_epik_Metal_State_Penalty>
0.617042

> <b_epik_Metal_Only>
0

> <s_lp_Force_Field>
OPLS_2005

> <r_lp_Energy>
16.3818

> <b_lp_Chiralities_Consistent>
1

> <s_lp_Variant>
AV-unprocessed.smi:1666-2

> <Gold.Version>
5.8.1

> <Gold.Id.Protein>
6NUR|6NUR_protein|mol2

> <Gold.PLP.Fitness>
46.4877

> <Gold.PLP.PLP>
-32.6659

> <Gold.PLP.part.hbond>
-2.9642

> <Gold.PLP.part.metal>
0.0000

> <Gold.PLP.part.buried>
-6.1452

> <Gold.PLP.part.nonpolar>
-26.6919

> <Gold.PLP.part.repulsive>
2.6227

> <Gold.PLP.ligand.clash>
0.0000

> <Gold.PLP.ligand.torsion>
0.5393

> <Gold.PLP.Chemscore.Hbond>
3.9600

> <Gold.PLP.Chemscore.CHOScore>
1.0000

> <Gold.PLP.Chemscore.Metal>
0.0000

> <Gold.Chemscore.Hbonds>
donor molecule, donor type, donor heavy atom, donor atom, acceptor molecule, acceptor atom, score
      L1  H     8    26       P1  7948  0.96
      L1  H    11    27       P1  7948  1.00
      L1  H    14    40       P1 10175  2.00
      L1  C     5    25       P1 10186  1.00

> <Gold.PLP.Chemscore.Internal.Correction>
0.0205

> <Gold.Rescore>
     Score         DG    S(hbond)    S(metal)    S(lipo)     H(rot)  DE(clash)    DE(int)     intcor
     16.94     -19.05       2.89        0.00      67.26       1.54       0.32       1.79       ----

> <Gold.Chemscore.Fitness>
16.9370

> <Gold.Chemscore.DG>
-19.0502

> <Gold.Chemscore.ZeroCoef>
-5.4800

> <Gold.Chemscore.Hbond>
2.8858

> <Gold.Chemscore.Metal>
0.0000

> <Gold.Chemscore.Lipo>
67.2560

> <Gold.Chemscore.Internal_Hbond>
0.0000

> <Gold.Chemscore.DEClash>
0.3214

> <Gold.Chemscore.DEInternal>
1.7918

> <Gold.Chemscore.Rot>
1.5381

> <Gold.Chemscore.Internal.Correction>
   9.000000E+99

> <Gold.Chemscore.Hbonds>
donor molecule, donor type, donor heavy atom, donor atom, acceptor molecule, acceptor atom, score
      L1  H     8    26       P1  7948  0.89
      L1  H    11    27       P1  7948  0.95
      L1  H    14    40       P1 10175  0.96

> <Gold.Chemscore.Hbond.Weighted>
-9.6387

> <Gold.Chemscore.Metal.Weighted>
-0.0000

> <Gold.Chemscore.Lipo.Weighted>
-7.8690

> <Gold.Chemscore.Internal_Hbond.Weighted>
0.0000

> <Gold.Chemscore.DEClash.Weighted>
0.3214

> <Gold.Chemscore.DEInternal.Weighted>
1.7918

> <Gold.Chemscore.Rot.Weighted>
3.9375

> <Gold.Chemscore.Internal.Correction.Weighted>
   9.000000E+99

> <Gold.Protein.RotatedTorsions>
[ 6907 6896 6895 6894 ] final  -88.78 input  -60.11 | X-H torsion
[ 7974 7965 7964 7962 ] final  -55.51 input  175.53 | X-H torsion
[ 8008 7997 7996 7995 ] final  102.31 input   59.86 | X-H torsion
[ 10167 10162 10161 10158 ] final -171.65 input  -65.29 | X-H torsion
[ 10718 10713 10712 10709 ] final  -86.05 input   66.30 | X-H torsion
[ 10763 10752 10751 10750 ] final  173.43 input  -60.55 | X-H torsion
[ 11005 11000 10999 10996 ] final  -18.51 input  -57.11 | X-H torsion

> <Gold.Protein.ActiveResidues>
 VAL166  LYS551  ARG553  GLY616  TRP617  ASP618  TYR619  PRO620  LYS621  CYS622 
 ASP623  PHE694  ASN695  SER759  ASP760  ASP761  ALA762  ILE779  LEU786  VAL792 
 PHE793  MET794  SER795  GLU796  ALA797  LYS798  CYS799  TRP800  GLU811  SER814 

> <Gold.Protein.RotatedAtoms>
  150.6870  134.2688  159.4579 H   0  0  0  0  0  0  0  0  0  0  0  0  # atno 6907 bound_to 6896
  152.0612  134.9590  160.0584 H   0  0  0  0  0  0  0  0  0  0  0  0  # atno 6908 bound_to 6896
  152.1016  133.4218  159.4627 H   0  0  0  0  0  0  0  0  0  0  0  0  # atno 6909 bound_to 6896
  145.8733  140.8199  142.9877 H   0  0  0  0  0  0  0  0  0  0  0  0  # atno 7974 bound_to 7965
  156.1380  140.3183  155.8451 H   0  0  0  0  0  0  0  0  0  0  0  0  # atno 8008 bound_to 7997
  155.4207  140.0512  157.3043 H   0  0  0  0  0  0  0  0  0  0  0  0  # atno 8009 bound_to 7997
  154.4953  140.2108  155.9473 H   0  0  0  0  0  0  0  0  0  0  0  0  # atno 8010 bound_to 7997
  139.5790  144.1467  152.1489 H   0  0  0  0  0  0  0  0  0  0  0  0  # atno 10167 bound_to 10162
  155.9992  130.4752  150.4655 H   0  0  0  0  0  0  0  0  0  0  0  0  # atno 10718 bound_to 10713
  154.4400  135.2762  155.1854 H   0  0  0  0  0  0  0  0  0  0  0  0  # atno 10763 bound_to 10752
  154.3724  135.6105  153.5751 H   0  0  0  0  0  0  0  0  0  0  0  0  # atno 10764 bound_to 10752
  152.9840  135.5860  154.4726 H   0  0  0  0  0  0  0  0  0  0  0  0  # atno 10765 bound_to 10752
  140.8275  133.8021  155.9724 H   0  0  0  0  0  0  0  0  0  0  0  0  # atno 11005 bound_to 11000
  144.6726  140.1273  143.7446 LP  0  0  0  0  0  0  0  0  0  0  0  0  # atno 17320 bound_to 7965
  145.9110  139.2487  143.1437 LP  0  0  0  0  0  0  0  0  0  0  0  0  # atno 17321 bound_to 7965
  140.1016  144.5535  150.6985 LP  0  0  0  0  0  0  0  0  0  0  0  0  # atno 17342 bound_to 10162
  140.7070  143.2475  151.4696 LP  0  0  0  0  0  0  0  0  0  0  0  0  # atno 17343 bound_to 10162
  157.2675  131.0580  151.2281 LP  0  0  0  0  0  0  0  0  0  0  0  0  # atno 17370 bound_to 10713
  157.3373  130.7015  149.6360 LP  0  0  0  0  0  0  0  0  0  0  0  0  # atno 17371 bound_to 10713
  140.9033  134.2351  157.5029 LP  0  0  0  0  0  0  0  0  0  0  0  0  # atno 17394 bound_to 11000
  139.8706  134.9717  156.4745 LP  0  0  0  0  0  0  0  0  0  0  0  0  # atno 17395 bound_to 11000

$$$$
