AV-unprocessed.smi:1871|AV-procd|sdf|7601|dock10
  -GOLD-   22720 9323D 1   1.00000     0.00000
 Structure written by MMmdl.
 41 43  0  0  0  0  0  0  0  0  2 V2000
  146.7089  137.9284  152.1061 O   0  0  0  0  0  0  0  0  0  0  0  0
  146.7889  139.2114  152.6854 C   0  0  0  0  0  0  0  0  0  0  0  0
  148.0559  139.4113  153.4518 C   0  0  0  0  0  0  0  0  0  0  0  0
  149.1025  138.5383  153.4843 N   0  3  0  0  0  0  0  0  0  0  0  0
  150.1129  139.0391  154.3058 C   0  0  0  0  0  0  0  0  0  0  0  0
  151.3556  138.5139  154.6463 C   0  0  0  0  0  0  0  0  0  0  0  0
  152.1520  139.2864  155.5170 C   0  0  0  0  0  0  0  0  0  0  0  0
  151.7045  140.5279  156.0142 C   0  0  0  0  0  0  0  0  0  0  0  0
  150.4422  141.0496  155.6622 C   0  0  0  0  0  0  0  0  0  0  0  0
  149.6614  140.2793  154.8005 C   0  0  0  0  0  0  0  0  0  0  0  0
  148.3883  140.4682  154.2511 N   0  0  0  0  0  0  0  0  0  0  0  0
  147.6415  141.6890  154.5954 C   0  0  0  0  0  0  0  0  0  0  0  0
  146.1771  141.4078  154.9885 C   0  0  2  0  0  0  0  0  0  0  0  0
  145.3091  142.2046  154.2065 O   0  0  0  0  0  0  0  0  0  0  0  0
  145.9599  141.6090  156.4796 C   0  0  0  0  0  0  0  0  0  0  0  0
  146.9372  142.2508  157.2702 C   0  0  0  0  0  0  0  0  0  0  0  0
  146.7304  142.4235  158.6523 C   0  0  0  0  0  0  0  0  0  0  0  0
  145.5469  141.9639  159.2641 C   0  0  0  0  0  0  0  0  0  0  0  0
  145.4097  142.1489  160.6211 O   0  0  0  0  0  0  0  0  0  0  0  0
  145.3586  143.4133  161.1183 C   0  0  0  0  0  0  0  0  0  0  0  0
  144.6843  143.4333  162.2942 F   0  0  0  0  0  0  0  0  0  0  0  0
  146.6141  143.8615  161.3598 F   0  0  0  0  0  0  0  0  0  0  0  0
  144.5750  141.3069  158.4721 C   0  0  0  0  0  0  0  0  0  0  0  0
  144.7806  141.1339  157.0897 C   0  0  0  0  0  0  0  0  0  0  0  0
  147.5803  137.6495  151.8691 H   0  0  0  0  0  0  0  0  0  0  0  0
  146.7274  139.9584  151.8938 H   0  0  0  0  0  0  0  0  0  0  0  0
  145.9277  139.3681  153.3337 H   0  0  0  0  0  0  0  0  0  0  0  0
  151.7000  137.5627  154.2676 H   0  0  0  0  0  0  0  0  0  0  0  0
  153.1253  138.9196  155.8097 H   0  0  0  0  0  0  0  0  0  0  0  0
  152.3425  141.0919  156.6794 H   0  0  0  0  0  0  0  0  0  0  0  0
  150.1079  142.0005  156.0497 H   0  0  0  0  0  0  0  0  0  0  0  0
  148.1692  142.1952  155.4047 H   0  0  0  0  0  0  0  0  0  0  0  0
  147.6821  142.3649  153.7415 H   0  0  0  0  0  0  0  0  0  0  0  0
  145.9384  140.3708  154.7500 H   0  0  0  0  0  0  0  0  0  0  0  0
  144.6236  141.6523  153.8626 H   0  0  0  0  0  0  0  0  0  0  0  0
  147.8514  142.6098  156.8205 H   0  0  0  0  0  0  0  0  0  0  0  0
  147.4863  142.9146  159.2476 H   0  0  0  0  0  0  0  0  0  0  0  0
  144.8878  144.1033  160.4177 H   0  0  0  0  0  0  0  0  0  0  0  0
  143.6681  140.9229  158.9146 H   0  0  0  0  0  0  0  0  0  0  0  0
  144.0290  140.6293  156.5005 H   0  0  0  0  0  0  0  0  0  0  0  0
  149.1171  137.6598  152.9827 H   0  0  0  0  0  0  0  0  0  0  0  0
  1  2  1  0  0  0  0
  1 25  1  0  0  0  0
  2  3  1  0  0  0  0
  2 26  1  0  0  0  0
  2 27  1  0  0  0  0
  3 11  1  0  0  0  0
  3  4  2  0  0  0  0
  4  5  1  0  0  0  0
  4 41  1  0  0  0  0
  5 10  2  0  0  0  0
  5  6  1  0  0  0  0
  6  7  2  0  0  0  0
  6 28  1  0  0  0  0
  7  8  1  0  0  0  0
  7 29  1  0  0  0  0
  8  9  2  0  0  0  0
  8 30  1  0  0  0  0
  9 10  1  0  0  0  0
  9 31  1  0  0  0  0
 10 11  1  0  0  0  0
 11 12  1  0  0  0  0
 12 13  1  0  0  0  0
 12 32  1  0  0  0  0
 12 33  1  0  0  0  0
 13 14  1  0  0  0  0
 13 15  1  0  0  0  0
 13 34  1  0  0  0  0
 14 35  1  0  0  0  0
 15 24  1  0  0  0  0
 15 16  2  0  0  0  0
 16 17  1  0  0  0  0
 16 36  1  0  0  0  0
 17 18  2  0  0  0  0
 17 37  1  0  0  0  0
 18 19  1  0  0  0  0
 18 23  1  0  0  0  0
 19 20  1  0  0  0  0
 20 21  1  0  0  0  0
 20 22  1  0  0  0  0
 20 38  1  0  0  0  0
 23 24  2  0  0  0  0
 23 39  1  0  0  0  0
 24 40  1  0  0  0  0
M  CHG  1   4   1
M  END
> <s_m_source_file>
AV-unprocessed.smi

> <i_m_source_file_index>
1871

> <i_lp_mmshare_version>
43012

> <i_f3d_flags>
0

> <s_epik_input>
W2NIXTFbY0hdW2NIXVtjSF1jKGMxMiluKGMobjIpW0NIMl1bT0hdKVtDSDJdW0NASF0oW09IXSljM1tjSF1bY0hdYyhPW0NIXShGKUYpW2NIXVtjSF0z

> <s_epik_cmdline>
J2VwaWtfcHl0aG9uJywgJy1waCcsICc3LjAnLCAnLXRuJywgJzgnLCAnLW1hJywgJzIwMCcsICctbWV0YWxfYmluZGluZycsICctaW1hZScsICc8aW5maWxlLm1hZT4nLCAnLW9tYWUnLCAnPG91dGZpbGUubWFlPic=

> <r_lp_tautomer_probability>
1

> <r_epik_Ionization_Penalty>
1.35642

> <r_epik_Ionization_Penalty_Charging>
1.35557

> <r_epik_Ionization_Penalty_Neutral>
0.000856035

> <r_epik_State_Penalty>
1.43401

> <r_epik_Charging_Adjusted_Penalty>
2.78958

> <i_epik_Tot_Q>
1

> <i_epik_Tot_abs_Q>
1

> <r_epik_Metal_State_Penalty>
5.47166

> <b_epik_Metal_Only>
0

> <s_lp_Force_Field>
OPLS_2005

> <r_lp_Energy>
13.1026

> <b_lp_Chiralities_Consistent>
1

> <s_lp_Variant>
AV-unprocessed.smi:1871-3

> <Gold.Version>
5.8.1

> <Gold.Id.Protein>
6NUR|6NUR_protein|mol2

> <Gold.PLP.Fitness>
54.4860

> <Gold.PLP.PLP>
-45.7168

> <Gold.PLP.part.hbond>
-4.9438

> <Gold.PLP.part.metal>
0.0000

> <Gold.PLP.part.buried>
-4.8561

> <Gold.PLP.part.nonpolar>
-37.6911

> <Gold.PLP.part.repulsive>
0.0669

> <Gold.PLP.ligand.clash>
0.0000

> <Gold.PLP.ligand.torsion>
1.4618

> <Gold.PLP.Chemscore.Hbond>
3.8653

> <Gold.PLP.Chemscore.CHOScore>
0.0000

> <Gold.PLP.Chemscore.Metal>
0.0000

> <Gold.Chemscore.Hbonds>
donor molecule, donor type, donor heavy atom, donor atom, acceptor molecule, acceptor atom, score
      L1  H     1    25       P1  7948  0.99
      L1  H     4    41       P1  7948  2.00
      L1  H    14    35       P1 10175  0.75
      P1  H  6934  6946       L1    19  0.20

> <Gold.PLP.Chemscore.Internal.Correction>
0.0969

> <Gold.Rescore>
     Score         DG    S(hbond)    S(metal)    S(lipo)     H(rot)  DE(clash)    DE(int)     intcor
     10.46     -12.33       2.07        0.00      73.04       3.37       0.47       1.40       ----

> <Gold.Chemscore.Fitness>
10.4630

> <Gold.Chemscore.DG>
-12.3308

> <Gold.Chemscore.ZeroCoef>
-5.4800

> <Gold.Chemscore.Hbond>
2.0725

> <Gold.Chemscore.Metal>
0.0000

> <Gold.Chemscore.Lipo>
73.0362

> <Gold.Chemscore.Internal_Hbond>
0.0000

> <Gold.Chemscore.DEClash>
0.4705

> <Gold.Chemscore.DEInternal>
1.3973

> <Gold.Chemscore.Rot>
3.3659

> <Gold.Chemscore.Internal.Correction>
   9.000000E+99

> <Gold.Chemscore.Hbonds>
donor molecule, donor type, donor heavy atom, donor atom, acceptor molecule, acceptor atom, score
      L1  H     1    25       P1  7948  0.94
      L1  H     4    41       P1  7948  1.00
      L1  H    14    35       P1 10175  0.09

> <Gold.Chemscore.Hbond.Weighted>
-6.9222

> <Gold.Chemscore.Metal.Weighted>
-0.0000

> <Gold.Chemscore.Lipo.Weighted>
-8.5452

> <Gold.Chemscore.Internal_Hbond.Weighted>
0.0000

> <Gold.Chemscore.DEClash.Weighted>
0.4705

> <Gold.Chemscore.DEInternal.Weighted>
1.3973

> <Gold.Chemscore.Rot.Weighted>
8.6167

> <Gold.Chemscore.Internal.Correction.Weighted>
   9.000000E+99

> <Gold.Protein.RotatedTorsions>
[ 6907 6896 6895 6894 ] final  109.89 input  -60.11 | X-H torsion
[ 7974 7965 7964 7962 ] final  -47.95 input  175.53 | X-H torsion
[ 8008 7997 7996 7995 ] final -123.22 input   59.86 | X-H torsion
[ 10167 10162 10161 10158 ] final  -28.72 input  -65.29 | X-H torsion
[ 10718 10713 10712 10709 ] final -146.16 input   66.30 | X-H torsion
[ 10763 10752 10751 10750 ] final   71.94 input  -60.55 | X-H torsion
[ 11005 11000 10999 10996 ] final   42.50 input  -57.11 | X-H torsion

> <Gold.Protein.ActiveResidues>
 VAL166  LYS551  ARG553  GLY616  TRP617  ASP618  TYR619  PRO620  LYS621  CYS622 
 ASP623  PHE694  ASN695  SER759  ASP760  ASP761  ALA762  ILE779  LEU786  VAL792 
 PHE793  MET794  SER795  GLU796  ALA797  LYS798  CYS799  TRP800  GLU811  SER814 

> <Gold.Protein.RotatedAtoms>
  152.5046  133.8879  159.7378 H   0  0  0  0  0  0  0  0  0  0  0  0  # atno 6907 bound_to 6896
  150.9325  133.6741  159.2814 H   0  0  0  0  0  0  0  0  0  0  0  0  # atno 6908 bound_to 6896
  151.4080  135.0985  159.9629 H   0  0  0  0  0  0  0  0  0  0  0  0  # atno 6909 bound_to 6896
  145.9562  140.7524  142.9480 H   0  0  0  0  0  0  0  0  0  0  0  0  # atno 7974 bound_to 7965
  155.1769  140.0409  157.2874 H   0  0  0  0  0  0  0  0  0  0  0  0  # atno 8008 bound_to 7997
  154.6230  140.2505  155.7498 H   0  0  0  0  0  0  0  0  0  0  0  0  # atno 8009 bound_to 7997
  156.2444  140.2891  156.0547 H   0  0  0  0  0  0  0  0  0  0  0  0  # atno 8010 bound_to 7997
  140.7267  143.3987  151.1303 H   0  0  0  0  0  0  0  0  0  0  0  0  # atno 10167 bound_to 10162
  156.3914  130.7887  151.2090 H   0  0  0  0  0  0  0  0  0  0  0  0  # atno 10718 bound_to 10713
  153.0428  135.5118  154.7668 H   0  0  0  0  0  0  0  0  0  0  0  0  # atno 10763 bound_to 10752
  154.6592  135.2936  154.9891 H   0  0  0  0  0  0  0  0  0  0  0  0  # atno 10764 bound_to 10752
  154.0748  135.6672  153.4882 H   0  0  0  0  0  0  0  0  0  0  0  0  # atno 10765 bound_to 10752
  140.1733  134.4195  155.8244 H   0  0  0  0  0  0  0  0  0  0  0  0  # atno 11005 bound_to 11000
  144.6805  140.2516  143.7331 LP  0  0  0  0  0  0  0  0  0  0  0  0  # atno 17320 bound_to 7965
  145.8103  139.2000  143.1997 LP  0  0  0  0  0  0  0  0  0  0  0  0  # atno 17321 bound_to 7965
  139.7603  143.8645  152.3098 LP  0  0  0  0  0  0  0  0  0  0  0  0  # atno 17342 bound_to 10162
  139.8529  144.7156  150.9193 LP  0  0  0  0  0  0  0  0  0  0  0  0  # atno 17343 bound_to 10162
  157.7499  131.0314  150.4181 LP  0  0  0  0  0  0  0  0  0  0  0  0  # atno 17370 bound_to 10713
  156.4444  130.3998  149.6676 LP  0  0  0  0  0  0  0  0  0  0  0  0  # atno 17371 bound_to 10713
  141.2219  133.6966  156.7802 LP  0  0  0  0  0  0  0  0  0  0  0  0  # atno 17394 bound_to 11000
  140.2352  134.8655  157.3517 LP  0  0  0  0  0  0  0  0  0  0  0  0  # atno 17395 bound_to 11000

$$$$
