AV-unprocessed.smi:598|AV-procd|sdf|3026|dock6
  -GOLD-   2262023533D 1   1.00000     0.00000
 Structure written by MMmdl.
 43 44  0  0  0  0  0  0  0  0  3 V2000
  154.3340  140.8591  161.8840 C   0  0  0  0  0  0  0  0  0  0  0  0
  153.1268  141.7369  161.5058 C   0  0  1  0  0  0  0  0  0  0  0  0
  153.3752  143.1831  161.9790 C   0  0  0  0  0  0  0  0  0  0  0  0
  152.1896  144.0993  161.6593 C   0  0  0  0  0  0  0  0  0  0  0  0
  151.8898  144.0875  160.1578 C   0  0  0  0  0  0  0  0  0  0  0  0
  151.6202  142.6577  159.6503 C   0  0  1  0  0  0  0  0  0  0  0  0
  151.3842  142.6966  158.2080 N   0  0  0  0  0  0  0  0  0  0  0  0
  150.2413  142.3511  157.5959 C   0  0  0  0  0  0  0  0  0  0  0  0
  149.2387  141.9705  158.2022 O   0  0  0  0  0  0  0  0  0  0  0  0
  150.2360  142.4788  156.0660 C   0  0  0  0  0  0  0  0  0  0  0  0
  150.0670  141.1894  155.3751 N   0  0  0  0  0  0  0  0  0  0  0  0
  151.1560  140.2962  155.4119 C   0  0  0  0  0  0  0  0  0  0  0  0
  151.1156  139.0926  154.8074 C   0  0  0  0  0  0  0  0  0  0  0  0
  152.2465  138.1917  154.8483 N   0  3  0  0  0  0  0  0  0  0  0  0
  153.2984  138.5891  155.3391 O   0  0  0  0  0  0  0  0  0  0  0  0
  152.1219  137.0588  154.3925 O   0  5  0  0  0  0  0  0  0  0  0  0
  149.8988  138.7310  154.1064 C   0  0  0  0  0  0  0  0  0  0  0  0
  148.8556  139.5828  154.0633 C   0  0  0  0  0  0  0  0  0  0  0  0
  148.9041  140.8950  154.7166 C   0  0  0  0  0  0  0  0  0  0  0  0
  147.9574  141.6811  154.6743 O   0  0  0  0  0  0  0  0  0  0  0  0
  152.7897  141.6928  159.9878 C   0  0  2  0  0  0  0  0  0  0  0  0
  152.4799  140.2579  159.5069 C   0  0  0  0  0  0  0  0  0  0  0  0
  155.2169  141.1269  161.3030 H   0  0  0  0  0  0  0  0  0  0  0  0
  154.1339  139.8000  161.7256 H   0  0  0  0  0  0  0  0  0  0  0  0
  154.5858  140.9747  162.9386 H   0  0  0  0  0  0  0  0  0  0  0  0
  152.2630  141.3574  162.0536 H   0  0  0  0  0  0  0  0  0  0  0  0
  153.5593  143.1980  163.0539 H   0  0  0  0  0  0  0  0  0  0  0  0
  154.2763  143.5776  161.5077 H   0  0  0  0  0  0  0  0  0  0  0  0
  151.3091  143.7744  162.2150 H   0  0  0  0  0  0  0  0  0  0  0  0
  152.4069  145.1161  161.9872 H   0  0  0  0  0  0  0  0  0  0  0  0
  151.0304  144.7280  159.9554 H   0  0  0  0  0  0  0  0  0  0  0  0
  152.7319  144.5212  159.6164 H   0  0  0  0  0  0  0  0  0  0  0  0
  150.7241  142.2799  160.1471 H   0  0  0  0  0  0  0  0  0  0  0  0
  152.1547  143.0029  157.6316 H   0  0  0  0  0  0  0  0  0  0  0  0
  149.4387  143.1688  155.7858 H   0  0  0  0  0  0  0  0  0  0  0  0
  151.1584  142.9636  155.7407 H   0  0  0  0  0  0  0  0  0  0  0  0
  152.0172  140.6622  155.9524 H   0  0  0  0  0  0  0  0  0  0  0  0
  149.8157  137.7753  153.6099 H   0  0  0  0  0  0  0  0  0  0  0  0
  147.9595  139.2934  153.5338 H   0  0  0  0  0  0  0  0  0  0  0  0
  153.6708  142.0368  159.4433 H   0  0  0  0  0  0  0  0  0  0  0  0
  151.6381  139.8321  160.0536 H   0  0  0  0  0  0  0  0  0  0  0  0
  153.3335  139.5938  159.6361 H   0  0  0  0  0  0  0  0  0  0  0  0
  152.2315  140.2277  158.4461 H   0  0  0  0  0  0  0  0  0  0  0  0
  1  2  1  0  0  0  0
  1 23  1  0  0  0  0
  1 24  1  0  0  0  0
  1 25  1  0  0  0  0
  2 21  1  0  0  0  0
  2  3  1  0  0  0  0
  2 26  1  0  0  0  0
  3  4  1  0  0  0  0
  3 27  1  0  0  0  0
  3 28  1  0  0  0  0
  4  5  1  0  0  0  0
  4 29  1  0  0  0  0
  4 30  1  0  0  0  0
  5  6  1  0  0  0  0
  5 31  1  0  0  0  0
  5 32  1  0  0  0  0
  6  7  1  0  0  0  0
  6 21  1  0  0  0  0
  6 33  1  0  0  0  0
  7  8  1  0  0  0  0
  7 34  1  0  0  0  0
  8  9  2  0  0  0  0
  8 10  1  0  0  0  0
 10 11  1  0  0  0  0
 10 35  1  0  0  0  0
 10 36  1  0  0  0  0
 11 19  1  0  0  0  0
 11 12  1  0  0  0  0
 12 13  2  0  0  0  0
 12 37  1  0  0  0  0
 13 14  1  0  0  0  0
 13 17  1  0  0  0  0
 14 15  2  0  0  0  0
 14 16  1  0  0  0  0
 17 18  2  0  0  0  0
 17 38  1  0  0  0  0
 18 19  1  0  0  0  0
 18 39  1  0  0  0  0
 19 20  2  0  0  0  0
 21 22  1  0  0  0  0
 21 40  1  0  0  0  0
 22 41  1  0  0  0  0
 22 42  1  0  0  0  0
 22 43  1  0  0  0  0
M  CHG  1  14   1
M  CHG  1  16  -1
M  END
> <s_m_source_file>
AV-unprocessed.smi

> <i_m_source_file_index>
598

> <i_lp_mmshare_version>
43012

> <i_f3d_flags>
0

> <s_epik_input>
W0NIM11bQ0BASF0xW0NIMl1bQ0gyXVtDSDJdW0NASF0oW0NASF0xW0NIM10pW05IXUMoPU8pW0NIMl1uMltjSF1jKFtOK10oPU8pW08tXSlbY0hdW2NIXWMyPU8=

> <s_epik_cmdline>
J2VwaWtfcHl0aG9uJywgJy1waCcsICc3LjAnLCAnLXRuJywgJzgnLCAnLW1hJywgJzIwMCcsICctbWV0YWxfYmluZGluZycsICctaW1hZScsICc8aW5maWxlLm1hZT4nLCAnLW9tYWUnLCAnPG91dGZpbGUubWFlPic=

> <r_lp_tautomer_probability>
1

> <r_epik_Ionization_Penalty>
1.91291e-08

> <r_epik_Ionization_Penalty_Charging>
8.21931e-11

> <r_epik_Ionization_Penalty_Neutral>
1.90469e-08

> <r_epik_State_Penalty>
-0

> <r_epik_Charging_Adjusted_Penalty>
8.21931e-11

> <i_epik_Tot_Q>
0

> <i_epik_Tot_abs_Q>
2

> <r_epik_Metal_State_Penalty>
-0

> <b_epik_Metal_Only>
0

> <s_lp_Force_Field>
OPLS_2005

> <r_lp_Energy>
23.592

> <b_lp_Chiralities_Consistent>
1

> <s_lp_Variant>
AV-unprocessed.smi:598-6

> <Gold.Version>
5.8.1

> <Gold.Id.Protein>
6NUR|6NUR_protein|mol2

> <Gold.PLP.Fitness>
48.6725

> <Gold.PLP.PLP>
-43.5085

> <Gold.PLP.part.hbond>
-1.6614

> <Gold.PLP.part.metal>
0.0000

> <Gold.PLP.part.buried>
0.9698

> <Gold.PLP.part.nonpolar>
-42.2116

> <Gold.PLP.part.repulsive>
0.4173

> <Gold.PLP.ligand.clash>
0.0000

> <Gold.PLP.ligand.torsion>
0.1583

> <Gold.PLP.Chemscore.Hbond>
1.8240

> <Gold.PLP.Chemscore.CHOScore>
0.0000

> <Gold.PLP.Chemscore.Metal>
0.0000

> <Gold.Chemscore.Hbonds>
donor molecule, donor type, donor heavy atom, donor atom, acceptor molecule, acceptor atom, score
      P1  H  7997  8008       L1    15  0.95
      P1  H 10752 10765       L1    16  0.94

> <Gold.PLP.Chemscore.Internal.Correction>
0.0086

> <Gold.Rescore>
     Score         DG    S(hbond)    S(metal)    S(lipo)     H(rot)  DE(clash)    DE(int)     intcor
     17.64     -21.24       1.75        0.00     118.36       1.54       3.42       0.18       ----

> <Gold.Chemscore.Fitness>
17.6413

> <Gold.Chemscore.DG>
-21.2419

> <Gold.Chemscore.ZeroCoef>
-5.4800

> <Gold.Chemscore.Hbond>
1.7527

> <Gold.Chemscore.Metal>
0.0000

> <Gold.Chemscore.Lipo>
118.3632

> <Gold.Chemscore.Internal_Hbond>
0.0000

> <Gold.Chemscore.DEClash>
3.4162

> <Gold.Chemscore.DEInternal>
0.1845

> <Gold.Chemscore.Rot>
1.5393

> <Gold.Chemscore.Internal.Correction>
   9.000000E+99

> <Gold.Chemscore.Hbonds>
donor molecule, donor type, donor heavy atom, donor atom, acceptor molecule, acceptor atom, score
      P1  H  7997  8008       L1    15  0.85
      P1  H 10752 10765       L1    16  0.90

> <Gold.Chemscore.Hbond.Weighted>
-5.8541

> <Gold.Chemscore.Metal.Weighted>
-0.0000

> <Gold.Chemscore.Lipo.Weighted>
-13.8485

> <Gold.Chemscore.Internal_Hbond.Weighted>
0.0000

> <Gold.Chemscore.DEClash.Weighted>
3.4162

> <Gold.Chemscore.DEInternal.Weighted>
0.1845

> <Gold.Chemscore.Rot.Weighted>
3.9407

> <Gold.Chemscore.Internal.Correction.Weighted>
   9.000000E+99

> <Gold.Protein.RotatedTorsions>
[ 6907 6896 6895 6894 ] final -145.41 input  -60.11 | X-H torsion
[ 7974 7965 7964 7962 ] final   -1.83 input  175.53 | X-H torsion
[ 8008 7997 7996 7995 ] final  -29.42 input   59.86 | X-H torsion
[ 10167 10162 10161 10158 ] final  -57.15 input  -65.29 | X-H torsion
[ 10718 10713 10712 10709 ] final  137.75 input   66.30 | X-H torsion
[ 10763 10752 10751 10750 ] final  157.33 input  -60.55 | X-H torsion
[ 11005 11000 10999 10996 ] final   45.25 input  -57.11 | X-H torsion

> <Gold.Protein.ActiveResidues>
 VAL166  LYS551  ARG553  GLY616  TRP617  ASP618  TYR619  PRO620  LYS621  CYS622 
 ASP623  PHE694  ASN695  SER759  ASP760  ASP761  ALA762  ILE779  LEU786  VAL792 
 PHE793  MET794  SER795  GLU796  ALA797  LYS798  CYS799  TRP800  GLU811  SER814 

> <Gold.Protein.RotatedAtoms>
  151.1275  133.5060  159.2599 H   0  0  0  0  0  0  0  0  0  0  0  0  # atno 6907 bound_to 6896
  151.1794  135.0354  159.8796 H   0  0  0  0  0  0  0  0  0  0  0  0  # atno 6908 bound_to 6896
  152.5458  134.1128  159.8419 H   0  0  0  0  0  0  0  0  0  0  0  0  # atno 6909 bound_to 6896
  146.2412  140.1480  142.8334 H   0  0  0  0  0  0  0  0  0  0  0  0  # atno 7974 bound_to 7965
  154.4291  140.1819  156.1245 H   0  0  0  0  0  0  0  0  0  0  0  0  # atno 8008 bound_to 7997
  156.0117  140.3350  155.6922 H   0  0  0  0  0  0  0  0  0  0  0  0  # atno 8009 bound_to 7997
  155.6102  140.0649  157.2699 H   0  0  0  0  0  0  0  0  0  0  0  0  # atno 8010 bound_to 7997
  140.6275  143.2444  151.5326 H   0  0  0  0  0  0  0  0  0  0  0  0  # atno 10167 bound_to 10162
  157.4328  131.1050  151.0231 H   0  0  0  0  0  0  0  0  0  0  0  0  # atno 10718 bound_to 10713
  154.1985  135.2791  155.2998 H   0  0  0  0  0  0  0  0  0  0  0  0  # atno 10763 bound_to 10752
  154.5873  135.5571  153.7247 H   0  0  0  0  0  0  0  0  0  0  0  0  # atno 10764 bound_to 10752
  153.0094  135.6359  154.2124 H   0  0  0  0  0  0  0  0  0  0  0  0  # atno 10765 bound_to 10752
  140.1477  134.4501  155.8404 H   0  0  0  0  0  0  0  0  0  0  0  0  # atno 11005 bound_to 11000
  145.0191  140.8779  143.5177 LP  0  0  0  0  0  0  0  0  0  0  0  0  # atno 17320 bound_to 7965
  145.1526  139.2505  143.5433 LP  0  0  0  0  0  0  0  0  0  0  0  0  # atno 17321 bound_to 7965
  139.5493  144.2437  152.1501 LP  0  0  0  0  0  0  0  0  0  0  0  0  # atno 17342 bound_to 10162
  140.1672  144.4970  150.6599 LP  0  0  0  0  0  0  0  0  0  0  0  0  # atno 17343 bound_to 10162
  157.1122  130.6026  149.5484 LP  0  0  0  0  0  0  0  0  0  0  0  0  # atno 17370 bound_to 10713
  155.9919  130.4975  150.7319 LP  0  0  0  0  0  0  0  0  0  0  0  0  # atno 17371 bound_to 10713
  141.2195  133.6859  156.7364 LP  0  0  0  0  0  0  0  0  0  0  0  0  # atno 17394 bound_to 11000
  140.2643  134.8442  157.3788 LP  0  0  0  0  0  0  0  0  0  0  0  0  # atno 17395 bound_to 11000

$$$$
