AV-unprocessed.smi:683|AV-procd|sdf|3330|dock7
  -GOLD-   22720 0303D 1   1.00000     0.00000
 Structure written by MMmdl.
 30 31  0  0  0  0  0  0  0  0  1 V2000
  151.3116  145.6894  159.7476 N   0  0  0  0  0  0  0  0  0  0  0  0
  151.7283  144.6101  159.7420 C   0  0  0  0  0  0  0  0  0  0  0  0
  152.2519  143.2543  159.7344 C   0  0  0  0  0  0  0  0  0  0  0  0
  153.3394  142.9148  160.5636 C   0  0  0  0  0  0  0  0  0  0  0  0
  153.8450  141.6018  160.5535 C   0  0  0  0  0  0  0  0  0  0  0  0
  153.2646  140.6301  159.7164 C   0  0  0  0  0  0  0  0  0  0  0  0
  152.1757  140.9534  158.8808 C   0  0  0  0  0  0  0  0  0  0  0  0
  151.6702  139.9406  158.0941 O   0  0  0  0  0  0  0  0  0  0  0  0
  150.3951  140.1260  157.4957 C   0  0  0  0  0  0  0  0  0  0  0  0
  150.5967  140.7044  156.0867 C   0  0  0  0  0  0  0  0  0  0  0  0
  149.5578  140.3140  155.1665 N   0  0  0  0  0  0  0  0  0  0  0  0
  148.3873  141.0408  155.0128 C   0  0  0  0  0  0  0  0  0  0  0  0
  147.3949  140.6792  154.1639 C   0  0  0  0  0  0  0  0  0  0  0  0
  145.9641  141.6376  154.0285 Cl  0  0  0  0  0  0  0  0  0  0  0  0
  147.5283  139.4675  153.3556 C   0  0  0  0  0  0  0  0  0  0  0  0
  146.6939  139.0501  152.5550 O   0  0  0  0  0  0  0  0  0  0  0  0
  148.7200  138.7626  153.5499 N   0  0  0  0  0  0  0  0  0  0  0  0
  149.7455  139.1258  154.4234 C   0  0  0  0  0  0  0  0  0  0  0  0
  150.7497  138.4200  154.5188 O   0  0  0  0  0  0  0  0  0  0  0  0
  151.6719  142.2792  158.8965 C   0  0  0  0  0  0  0  0  0  0  0  0
  148.8486  137.9172  153.0128 H   0  0  0  0  0  0  0  0  0  0  0  0
  153.7899  143.6556  161.2090 H   0  0  0  0  0  0  0  0  0  0  0  0
  154.6784  141.3393  161.1883 H   0  0  0  0  0  0  0  0  0  0  0  0
  153.6590  139.6245  159.7162 H   0  0  0  0  0  0  0  0  0  0  0  0
  149.8671  139.1728  157.4402 H   0  0  0  0  0  0  0  0  0  0  0  0
  149.7951  140.8147  158.0931 H   0  0  0  0  0  0  0  0  0  0  0  0
  150.5875  141.7952  156.1131 H   0  0  0  0  0  0  0  0  0  0  0  0
  151.5547  140.4168  155.6481 H   0  0  0  0  0  0  0  0  0  0  0  0
  148.2536  141.9397  155.5980 H   0  0  0  0  0  0  0  0  0  0  0  0
  150.8399  142.5675  158.2711 H   0  0  0  0  0  0  0  0  0  0  0  0
  1  2  3  0  0  0  0
  2  3  1  0  0  0  0
  3 20  1  0  0  0  0
  3  4  2  0  0  0  0
  4  5  1  0  0  0  0
  4 22  1  0  0  0  0
  5  6  2  0  0  0  0
  5 23  1  0  0  0  0
  6  7  1  0  0  0  0
  6 24  1  0  0  0  0
  7  8  1  0  0  0  0
  7 20  2  0  0  0  0
  8  9  1  0  0  0  0
  9 10  1  0  0  0  0
  9 25  1  0  0  0  0
  9 26  1  0  0  0  0
 10 11  1  0  0  0  0
 10 27  1  0  0  0  0
 10 28  1  0  0  0  0
 11 18  1  0  0  0  0
 11 12  1  0  0  0  0
 12 13  2  0  0  0  0
 12 29  1  0  0  0  0
 13 14  1  0  0  0  0
 13 15  1  0  0  0  0
 15 16  2  0  0  0  0
 15 17  1  0  0  0  0
 17 21  1  0  0  0  0
 17 18  1  0  0  0  0
 18 19  2  0  0  0  0
 20 30  1  0  0  0  0
M  END
> <s_m_source_file>
AV-unprocessed.smi

> <i_m_source_file_index>
683

> <i_lp_mmshare_version>
43012

> <i_f3d_flags>
0

> <s_epik_input>
TiNDYzFbY0hdW2NIXVtjSF1jKFtjSF0xKU9bQ0gyXVtDSDJdbjJbY0hdYyhDbCljKD1PKVtuSF1jMj1P

> <s_epik_cmdline>
J2VwaWtfcHl0aG9uJywgJy1waCcsICc3LjAnLCAnLXRuJywgJzgnLCAnLW1hJywgJzIwMCcsICctbWV0YWxfYmluZGluZycsICctaW1hZScsICc8aW5maWxlLm1hZT4nLCAnLW9tYWUnLCAnPG91dGZpbGUubWFlPic=

> <r_lp_tautomer_probability>
0.999537

> <r_epik_Ionization_Penalty>
0.0498777

> <r_epik_Ionization_Penalty_Charging>
0.0498777

> <r_epik_Ionization_Penalty_Neutral>
0

> <r_epik_State_Penalty>
0.042632

> <r_epik_Charging_Adjusted_Penalty>
0.0925097

> <i_epik_Tot_Q>
0

> <i_epik_Tot_abs_Q>
0

> <r_epik_Metal_State_Penalty>
2.56282

> <b_epik_Metal_Only>
0

> <s_lp_Force_Field>
OPLS_2005

> <r_lp_Energy>
12.7666

> <b_lp_Chiralities_Consistent>
1

> <s_lp_Variant>
AV-unprocessed.smi:683-1

> <Gold.Version>
5.8.1

> <Gold.Id.Protein>
6NUR|6NUR_protein|mol2

> <Gold.PLP.Fitness>
47.3417

> <Gold.PLP.PLP>
-44.1664

> <Gold.PLP.part.hbond>
-2.5685

> <Gold.PLP.part.metal>
0.0000

> <Gold.PLP.part.buried>
-5.6060

> <Gold.PLP.part.nonpolar>
-36.9516

> <Gold.PLP.part.repulsive>
1.3806

> <Gold.PLP.ligand.clash>
0.0000

> <Gold.PLP.ligand.torsion>
0.9708

> <Gold.PLP.Chemscore.Hbond>
0.6988

> <Gold.PLP.Chemscore.CHOScore>
1.0000

> <Gold.PLP.Chemscore.Metal>
0.0000

> <Gold.Chemscore.Hbonds>
donor molecule, donor type, donor heavy atom, donor atom, acceptor molecule, acceptor atom, score
      L1  H    17    21       P1  7948  1.00
      L1  C    12    29       P1  8028  0.23

> <Gold.PLP.Chemscore.Internal.Correction>
0.0207

> <Gold.Rescore>
     Score         DG    S(hbond)    S(metal)    S(lipo)     H(rot)  DE(clash)    DE(int)     intcor
     12.29     -13.71       0.91        0.00      88.66       2.03       0.56       0.86       ----

> <Gold.Chemscore.Fitness>
12.2877

> <Gold.Chemscore.DG>
-13.7135

> <Gold.Chemscore.ZeroCoef>
-5.4800

> <Gold.Chemscore.Hbond>
0.9121

> <Gold.Chemscore.Metal>
0.0000

> <Gold.Chemscore.Lipo>
88.6598

> <Gold.Chemscore.Internal_Hbond>
0.0000

> <Gold.Chemscore.DEClash>
0.5649

> <Gold.Chemscore.DEInternal>
0.8610

> <Gold.Chemscore.Rot>
2.0258

> <Gold.Chemscore.Internal.Correction>
   9.000000E+99

> <Gold.Chemscore.Hbonds>
donor molecule, donor type, donor heavy atom, donor atom, acceptor molecule, acceptor atom, score
      L1  H    17    21       P1  7948  0.94

> <Gold.Chemscore.Hbond.Weighted>
-3.0463

> <Gold.Chemscore.Metal.Weighted>
-0.0000

> <Gold.Chemscore.Lipo.Weighted>
-10.3732

> <Gold.Chemscore.Internal_Hbond.Weighted>
0.0000

> <Gold.Chemscore.DEClash.Weighted>
0.5649

> <Gold.Chemscore.DEInternal.Weighted>
0.8610

> <Gold.Chemscore.Rot.Weighted>
5.1860

> <Gold.Chemscore.Internal.Correction.Weighted>
   9.000000E+99

> <Gold.Protein.RotatedTorsions>
[ 6907 6896 6895 6894 ] final  173.06 input  -60.11 | X-H torsion
[ 7974 7965 7964 7962 ] final -168.88 input  175.53 | X-H torsion
[ 8008 7997 7996 7995 ] final   69.77 input   59.86 | X-H torsion
[ 10167 10162 10161 10158 ] final   52.31 input  -65.29 | X-H torsion
[ 10718 10713 10712 10709 ] final  -46.67 input   66.30 | X-H torsion
[ 10763 10752 10751 10750 ] final   21.42 input  -60.55 | X-H torsion
[ 11005 11000 10999 10996 ] final  134.08 input  -57.11 | X-H torsion

> <Gold.Protein.ActiveResidues>
 VAL166  LYS551  ARG553  GLY616  TRP617  ASP618  TYR619  PRO620  LYS621  CYS622 
 ASP623  PHE694  ASN695  SER759  ASP760  ASP761  ALA762  ILE779  LEU786  VAL792 
 PHE793  MET794  SER795  GLU796  ALA797  LYS798  CYS799  TRP800  GLU811  SER814 

> <Gold.Protein.RotatedAtoms>
  151.7743  133.3344  159.3453 H   0  0  0  0  0  0  0  0  0  0  0  0  # atno 6907 bound_to 6896
  150.7450  134.5989  159.6036 H   0  0  0  0  0  0  0  0  0  0  0  0  # atno 6908 bound_to 6896
  152.3319  134.7249  160.0338 H   0  0  0  0  0  0  0  0  0  0  0  0  # atno 6909 bound_to 6896
  144.7195  140.2304  143.6305 H   0  0  0  0  0  0  0  0  0  0  0  0  # atno 7974 bound_to 7965
  155.7286  140.3492  155.5049 H   0  0  0  0  0  0  0  0  0  0  0  0  # atno 8008 bound_to 7997
  155.9203  140.1066  157.1233 H   0  0  0  0  0  0  0  0  0  0  0  0  # atno 8009 bound_to 7997
  154.4069  140.1251  156.4658 H   0  0  0  0  0  0  0  0  0  0  0  0  # atno 8010 bound_to 7997
  140.2528  144.3460  150.6343 H   0  0  0  0  0  0  0  0  0  0  0  0  # atno 10167 bound_to 10162
  156.2160  130.4163  149.9053 H   0  0  0  0  0  0  0  0  0  0  0  0  # atno 10718 bound_to 10713
  153.0997  135.6669  153.9697 H   0  0  0  0  0  0  0  0  0  0  0  0  # atno 10763 bound_to 10752
  153.9271  135.3008  155.3448 H   0  0  0  0  0  0  0  0  0  0  0  0  # atno 10764 bound_to 10752
  154.7417  135.5076  153.9209 H   0  0  0  0  0  0  0  0  0  0  0  0  # atno 10765 bound_to 10752
  139.9892  134.9521  156.9816 H   0  0  0  0  0  0  0  0  0  0  0  0  # atno 11005 bound_to 11000
  145.8416  139.2133  143.1824 LP  0  0  0  0  0  0  0  0  0  0  0  0  # atno 17320 bound_to 7965
  146.0341  140.8229  142.9861 LP  0  0  0  0  0  0  0  0  0  0  0  0  # atno 17321 bound_to 7965
  140.6027  143.2167  151.7040 LP  0  0  0  0  0  0  0  0  0  0  0  0  # atno 17342 bound_to 10162
  139.5041  144.3767  152.0417 LP  0  0  0  0  0  0  0  0  0  0  0  0  # atno 17343 bound_to 10162
  156.6715  130.8822  151.3563 LP  0  0  0  0  0  0  0  0  0  0  0  0  # atno 17370 bound_to 10713
  157.7063  130.9389  150.0943 LP  0  0  0  0  0  0  0  0  0  0  0  0  # atno 17371 bound_to 10713
  140.4941  134.1163  155.7238 LP  0  0  0  0  0  0  0  0  0  0  0  0  # atno 17394 bound_to 11000
  141.1551  133.8897  157.1997 LP  0  0  0  0  0  0  0  0  0  0  0  0  # atno 17395 bound_to 11000

$$$$
