AV-unprocessed.smi:2310|AV-procd|sdf|9260|dock5
  -GOLD-   2272012483D 1   1.00000     0.00000
 Structure written by MMmdl.
 45 46  0  0  0  0  0  0  0  0  3 V2000
  155.1649  140.9610  170.3159 C   0  0  0  0  0  0  0  0  0  0  0  0
  156.1136  141.2066  169.1266 C   0  0  0  0  0  0  0  0  0  0  0  0
  155.4636  141.8988  167.9072 C   0  0  1  0  0  0  0  0  0  0  0  0
  155.0513  143.3518  168.2180 C   0  0  0  0  0  0  0  0  0  0  0  0
  156.1696  144.2797  168.4673 C   0  0  0  0  0  0  0  0  0  0  0  0
  157.0456  145.0113  168.6663 N   0  0  0  0  0  0  0  0  0  0  0  0
  156.3989  141.8867  166.7765 N   0  5  0  0  0  0  0  0  0  0  0  0
  156.0376  141.9052  165.4659 C   0  0  0  0  0  0  0  0  0  0  0  0
  156.6536  141.4285  164.5055 O   0  0  0  0  0  0  0  0  0  0  0  0
  154.8487  142.5040  165.2780 N   0  0  0  0  0  0  0  0  0  0  0  0
  154.1510  142.7282  164.0601 C   0  0  0  0  0  0  0  0  0  0  0  0
  154.1105  141.7732  163.0158 C   0  0  0  0  0  0  0  0  0  0  0  0
  153.4230  142.0724  161.8227 C   0  0  0  0  0  0  0  0  0  0  0  0
  152.7921  143.3293  161.6738 C   0  0  0  0  0  0  0  0  0  0  0  0
  152.0830  143.6969  160.5147 N   0  0  0  0  0  0  0  0  0  0  0  0
  151.3996  144.9796  160.4082 C   0  0  0  0  0  0  0  0  0  0  0  0
  151.3789  145.3113  158.9118 C   0  0  0  0  0  0  0  0  0  0  0  0
  151.5614  143.9566  158.2272 C   0  0  0  0  0  0  0  0  0  0  0  0
  152.4528  143.1906  159.2037 C   0  0  0  0  0  0  0  0  0  0  0  0
  152.8692  144.2160  162.6942 N   0  3  0  0  0  0  0  0  0  0  0  0
  153.5160  143.9753  163.8565 C   0  0  0  0  0  0  0  0  0  0  0  0
  153.5139  145.0760  164.9013 C   0  0  0  0  0  0  0  0  0  0  0  0
  155.7074  140.4990  171.1408 H   0  0  0  0  0  0  0  0  0  0  0  0
  154.3450  140.2887  170.0569 H   0  0  0  0  0  0  0  0  0  0  0  0
  154.7328  141.8886  170.6955 H   0  0  0  0  0  0  0  0  0  0  0  0
  156.9388  141.8267  169.4782 H   0  0  0  0  0  0  0  0  0  0  0  0
  156.5626  140.2593  168.8248 H   0  0  0  0  0  0  0  0  0  0  0  0
  154.5496  141.3513  167.6709 H   0  0  0  0  0  0  0  0  0  0  0  0
  154.4487  143.7624  167.4072 H   0  0  0  0  0  0  0  0  0  0  0  0
  154.4235  143.3694  169.1090 H   0  0  0  0  0  0  0  0  0  0  0  0
  154.3541  142.7580  166.1205 H   0  0  0  0  0  0  0  0  0  0  0  0
  154.6088  140.8198  163.1072 H   0  0  0  0  0  0  0  0  0  0  0  0
  153.3943  141.3328  161.0367 H   0  0  0  0  0  0  0  0  0  0  0  0
  150.3856  144.8705  160.7941 H   0  0  0  0  0  0  0  0  0  0  0  0
  151.8987  145.7666  160.9750 H   0  0  0  0  0  0  0  0  0  0  0  0
  150.4676  145.8248  158.6040 H   0  0  0  0  0  0  0  0  0  0  0  0
  152.2237  145.9570  158.6693 H   0  0  0  0  0  0  0  0  0  0  0  0
  150.5959  143.4564  158.1376 H   0  0  0  0  0  0  0  0  0  0  0  0
  151.9948  144.0361  157.2301 H   0  0  0  0  0  0  0  0  0  0  0  0
  153.5055  143.4050  159.0140 H   0  0  0  0  0  0  0  0  0  0  0  0
  152.2973  142.1141  159.1279 H   0  0  0  0  0  0  0  0  0  0  0  0
  154.5336  145.3958  165.1169 H   0  0  0  0  0  0  0  0  0  0  0  0
  153.0633  144.7182  165.8273 H   0  0  0  0  0  0  0  0  0  0  0  0
  152.9485  145.9455  164.5642 H   0  0  0  0  0  0  0  0  0  0  0  0
  152.4126  145.1208  162.5805 H   0  0  0  0  0  0  0  0  0  0  0  0
  1  2  1  0  0  0  0
  1 23  1  0  0  0  0
  1 24  1  0  0  0  0
  1 25  1  0  0  0  0
  2  3  1  0  0  0  0
  2 26  1  0  0  0  0
  2 27  1  0  0  0  0
  3  4  1  0  0  0  0
  3  7  1  0  0  0  0
  3 28  1  0  0  0  0
  4  5  1  0  0  0  0
  4 29  1  0  0  0  0
  4 30  1  0  0  0  0
  5  6  3  0  0  0  0
  7  8  1  0  0  0  0
  8  9  2  0  0  0  0
  8 10  1  0  0  0  0
 10 11  1  0  0  0  0
 10 31  1  0  0  0  0
 11 21  1  0  0  0  0
 11 12  2  0  0  0  0
 12 13  1  0  0  0  0
 12 32  1  0  0  0  0
 13 14  2  0  0  0  0
 13 33  1  0  0  0  0
 14 15  1  0  0  0  0
 14 20  1  0  0  0  0
 15 19  1  0  0  0  0
 15 16  1  0  0  0  0
 16 17  1  0  0  0  0
 16 34  1  0  0  0  0
 16 35  1  0  0  0  0
 17 18  1  0  0  0  0
 17 36  1  0  0  0  0
 17 37  1  0  0  0  0
 18 19  1  0  0  0  0
 18 38  1  0  0  0  0
 18 39  1  0  0  0  0
 19 40  1  0  0  0  0
 19 41  1  0  0  0  0
 20 21  2  0  0  0  0
 20 45  1  0  0  0  0
 21 22  1  0  0  0  0
 22 42  1  0  0  0  0
 22 43  1  0  0  0  0
 22 44  1  0  0  0  0
M  CHG  1   7  -1
M  CHG  1  20   1
M  END
> <s_m_source_file>
AV-unprocessed.smi

> <i_m_source_file_index>
2310

> <i_lp_mmshare_version>
43012

> <i_f3d_flags>
0

> <s_epik_input>
TiNDW0NIMl1bQ0BASF0oW0NIMl1bQ0gzXSlbTkhdQyg9TylbTkhdYzFbY0hdW2NIXWMobmMxW0NIM10pTjJbQ0gyXVtDSDJdW0NIMl1bQ0gyXTI=

> <s_epik_cmdline>
J2VwaWtfcHl0aG9uJywgJy1waCcsICc3LjAnLCAnLXRuJywgJzgnLCAnLW1hJywgJzIwMCcsICctbWV0YWxfYmluZGluZycsICctaW1hZScsICc8aW5maWxlLm1hZT4nLCAnLW9tYWUnLCAnPG91dGZpbGUubWFlPic=

> <r_lp_tautomer_probability>
0.999994

> <r_epik_Ionization_Penalty>
7.34515

> <r_epik_Ionization_Penalty_Charging>
7.34514

> <r_epik_Ionization_Penalty_Neutral>
2.56118e-06

> <r_epik_State_Penalty>
6.99243

> <r_epik_Charging_Adjusted_Penalty>
14.3376

> <i_epik_Tot_Q>
0

> <i_epik_Tot_abs_Q>
2

> <r_epik_Metal_State_Penalty>
3.10684

> <b_epik_Metal_Only>
1

> <s_lp_Force_Field>
OPLS_2005

> <r_lp_Energy>
34.805

> <b_lp_Chiralities_Consistent>
1

> <s_lp_Variant>
AV-unprocessed.smi:2310-6

> <Gold.Version>
5.8.1

> <Gold.Id.Protein>
6NUR|6NUR_protein|mol2

> <Gold.PLP.Fitness>
46.0078

> <Gold.PLP.PLP>
-47.8770

> <Gold.PLP.part.hbond>
-2.1130

> <Gold.PLP.part.metal>
0.0000

> <Gold.PLP.part.buried>
-3.5325

> <Gold.PLP.part.nonpolar>
-40.3670

> <Gold.PLP.part.repulsive>
0.2189

> <Gold.PLP.ligand.clash>
0.0000

> <Gold.PLP.ligand.torsion>
1.0873

> <Gold.PLP.Chemscore.Hbond>
0.0000

> <Gold.PLP.Chemscore.CHOScore>
0.0000

> <Gold.PLP.Chemscore.Metal>
0.0000

> <Gold.PLP.Chemscore.Internal.Correction>
0.3053

> <Gold.Rescore>
     Score         DG    S(hbond)    S(metal)    S(lipo)     H(rot)  DE(clash)    DE(int)     intcor
      9.90     -16.20       0.00        0.00     123.30       1.45       4.03       2.27       ----

> <Gold.Chemscore.Fitness>
9.8964

> <Gold.Chemscore.DG>
-16.1962

> <Gold.Chemscore.ZeroCoef>
-5.4800

> <Gold.Chemscore.Hbond>
0.0000

> <Gold.Chemscore.Metal>
0.0000

> <Gold.Chemscore.Lipo>
123.3004

> <Gold.Chemscore.Internal_Hbond>
0.0000

> <Gold.Chemscore.DEClash>
4.0323

> <Gold.Chemscore.DEInternal>
2.2675

> <Gold.Chemscore.Rot>
1.4492

> <Gold.Chemscore.Internal.Correction>
   9.000000E+99

> <Gold.Chemscore.Hbond.Weighted>
-0.0000

> <Gold.Chemscore.Metal.Weighted>
-0.0000

> <Gold.Chemscore.Lipo.Weighted>
-14.4262

> <Gold.Chemscore.Internal_Hbond.Weighted>
0.0000

> <Gold.Chemscore.DEClash.Weighted>
4.0323

> <Gold.Chemscore.DEInternal.Weighted>
2.2675

> <Gold.Chemscore.Rot.Weighted>
3.7100

> <Gold.Chemscore.Internal.Correction.Weighted>
   9.000000E+99

> <Gold.Protein.RotatedTorsions>
[ 6907 6896 6895 6894 ] final  172.54 input  -60.11 | X-H torsion
[ 7974 7965 7964 7962 ] final   94.95 input  175.53 | X-H torsion
[ 8008 7997 7996 7995 ] final  175.15 input   59.86 | X-H torsion
[ 10167 10162 10161 10158 ] final -147.06 input  -65.29 | X-H torsion
[ 10718 10713 10712 10709 ] final  -85.92 input   66.30 | X-H torsion
[ 10763 10752 10751 10750 ] final  107.77 input  -60.55 | X-H torsion
[ 11005 11000 10999 10996 ] final  127.16 input  -57.11 | X-H torsion

> <Gold.Protein.ActiveResidues>
 VAL166  LYS551  ARG553  GLY616  TRP617  ASP618  TYR619  PRO620  LYS621  CYS622 
 ASP623  PHE694  ASN695  SER759  ASP760  ASP761  ALA762  ILE779  LEU786  VAL792 
 PHE793  MET794  SER795  GLU796  ALA797  LYS798  CYS799  TRP800  GLU811  SER814 

> <Gold.Protein.RotatedAtoms>
  151.7826  133.3351  159.3475 H   0  0  0  0  0  0  0  0  0  0  0  0  # atno 6907 bound_to 6896
  150.7421  134.5917  159.6000 H   0  0  0  0  0  0  0  0  0  0  0  0  # atno 6908 bound_to 6896
  152.3266  134.7315  160.0352 H   0  0  0  0  0  0  0  0  0  0  0  0  # atno 6909 bound_to 6896
  145.4587  139.2288  143.3000 H   0  0  0  0  0  0  0  0  0  0  0  0  # atno 7974 bound_to 7965
  156.0900  140.1416  156.9604 H   0  0  0  0  0  0  0  0  0  0  0  0  # atno 8008 bound_to 7997
  154.4636  140.0934  156.7008 H   0  0  0  0  0  0  0  0  0  0  0  0  # atno 8009 bound_to 7997
  155.4935  140.3449  155.4361 H   0  0  0  0  0  0  0  0  0  0  0  0  # atno 8010 bound_to 7997
  139.7656  143.8312  152.2615 H   0  0  0  0  0  0  0  0  0  0  0  0  # atno 10167 bound_to 10162
  155.9993  130.4747  150.4636 H   0  0  0  0  0  0  0  0  0  0  0  0  # atno 10718 bound_to 10713
  153.4113  135.3833  155.2052 H   0  0  0  0  0  0  0  0  0  0  0  0  # atno 10763 bound_to 10752
  154.8738  135.3795  154.4497 H   0  0  0  0  0  0  0  0  0  0  0  0  # atno 10764 bound_to 10752
  153.5006  135.7088  153.5896 H   0  0  0  0  0  0  0  0  0  0  0  0  # atno 10765 bound_to 10752
  139.9493  134.9624  156.8814 H   0  0  0  0  0  0  0  0  0  0  0  0  # atno 11005 bound_to 11000
  146.2464  140.5353  142.8912 LP  0  0  0  0  0  0  0  0  0  0  0  0  # atno 17320 bound_to 7965
  144.8016  140.6224  143.6474 LP  0  0  0  0  0  0  0  0  0  0  0  0  # atno 17321 bound_to 7965
  139.8331  144.7244  150.9425 LP  0  0  0  0  0  0  0  0  0  0  0  0  # atno 17342 bound_to 10162
  140.7810  143.4051  151.1084 LP  0  0  0  0  0  0  0  0  0  0  0  0  # atno 17343 bound_to 10162
  157.2658  131.0576  151.2291 LP  0  0  0  0  0  0  0  0  0  0  0  0  # atno 17370 bound_to 10713
  157.3390  130.7023  149.6370 LP  0  0  0  0  0  0  0  0  0  0  0  0  # atno 17371 bound_to 10713
  140.5757  134.0400  155.7446 LP  0  0  0  0  0  0  0  0  0  0  0  0  # atno 17394 bound_to 11000
  141.1152  133.9552  157.2836 LP  0  0  0  0  0  0  0  0  0  0  0  0  # atno 17395 bound_to 11000

$$$$
