AV-unprocessed.smi:618|AV-procd|sdf|3081|dock4
  -GOLD-   22720 0 03D 1   1.00000     0.00000
 Structure written by MMmdl.
 41 43  0  0  0  0  0  0  0  0  2 V2000
  150.8383  135.1330  155.8856 O   0  0  0  0  0  0  0  0  0  0  0  0
  150.3444  135.4327  154.7989 C   0  0  0  0  0  0  0  0  0  0  0  0
  149.7053  134.5559  154.0115 N   0  0  0  0  0  0  0  0  0  0  0  0
  149.5049  133.1427  154.3174 C   0  0  0  0  0  0  0  0  0  0  0  0
  148.6871  132.4293  153.2259 C   0  0  1  0  0  0  0  0  0  0  0  0
  148.2939  130.9945  153.6528 C   0  0  0  0  0  0  0  0  0  0  0  0
  147.4250  130.4200  152.6092 N   0  3  1  0  0  0  0  0  0  0  0  0
  146.9348  129.0421  152.7855 C   0  0  0  0  0  0  0  0  0  0  0  0
  145.6530  128.9680  151.9312 C   0  0  0  0  0  0  0  0  0  0  0  0
  145.3905  130.4054  151.4447 C   0  0  0  0  0  0  0  0  0  0  0  0
  146.2378  131.2491  152.3914 C   0  0  2  0  0  0  0  0  0  0  0  0
  146.6802  132.6419  151.9267 C   0  0  0  0  0  0  0  0  0  0  0  0
  147.5052  133.1924  152.9544 O   0  0  0  0  0  0  0  0  0  0  0  0
  150.3477  136.6621  154.2559 N   0  0  0  0  0  0  0  0  0  0  0  0
  150.9215  137.8538  154.7754 C   0  0  0  0  0  0  0  0  0  0  0  0
  151.9677  137.8829  155.7293 C   0  0  0  0  0  0  0  0  0  0  0  0
  152.4649  139.1297  156.1545 C   0  0  0  0  0  0  0  0  0  0  0  0
  151.9056  140.2999  155.6061 C   0  0  0  0  0  0  0  0  0  0  0  0
  150.9186  140.2869  154.6855 N   0  0  0  0  0  0  0  0  0  0  0  0
  150.4473  139.0880  154.2818 C   0  0  0  0  0  0  0  0  0  0  0  0
  149.3321  134.8895  153.1346 H   0  0  0  0  0  0  0  0  0  0  0  0
  150.4913  132.6847  154.3933 H   0  0  0  0  0  0  0  0  0  0  0  0
  149.0340  133.0188  155.2943 H   0  0  0  0  0  0  0  0  0  0  0  0
  149.2857  132.3768  152.3145 H   0  0  0  0  0  0  0  0  0  0  0  0
  149.1807  130.3718  153.7755 H   0  0  0  0  0  0  0  0  0  0  0  0
  147.7683  131.0065  154.6091 H   0  0  0  0  0  0  0  0  0  0  0  0
  147.6872  128.3160  152.4765 H   0  0  0  0  0  0  0  0  0  0  0  0
  146.6973  128.8613  153.8350 H   0  0  0  0  0  0  0  0  0  0  0  0
  145.7694  128.2872  151.0871 H   0  0  0  0  0  0  0  0  0  0  0  0
  144.8201  128.6035  152.5342 H   0  0  0  0  0  0  0  0  0  0  0  0
  145.7431  130.5209  150.4187 H   0  0  0  0  0  0  0  0  0  0  0  0
  144.3342  130.6755  151.4708 H   0  0  0  0  0  0  0  0  0  0  0  0
  145.7003  131.3453  153.3376 H   0  0  0  0  0  0  0  0  0  0  0  0
  147.2264  132.5970  150.9831 H   0  0  0  0  0  0  0  0  0  0  0  0
  145.8159  133.2886  151.7748 H   0  0  0  0  0  0  0  0  0  0  0  0
  149.8274  136.7716  153.3978 H   0  0  0  0  0  0  0  0  0  0  0  0
  152.4050  136.9816  156.1298 H   0  0  0  0  0  0  0  0  0  0  0  0
  153.2615  139.1870  156.8813 H   0  0  0  0  0  0  0  0  0  0  0  0
  152.2648  141.2717  155.9107 H   0  0  0  0  0  0  0  0  0  0  0  0
  149.6598  139.1164  153.5428 H   0  0  0  0  0  0  0  0  0  0  0  0
  147.9446  130.4300  151.7430 H   0  0  0  0  0  0  0  0  0  0  0  0
  1  2  2  0  0  0  0
  2  3  1  0  0  0  0
  2 14  1  0  0  0  0
  3  4  1  0  0  0  0
  3 21  1  0  0  0  0
  4  5  1  0  0  0  0
  4 22  1  0  0  0  0
  4 23  1  0  0  0  0
  5 13  1  0  0  0  0
  5  6  1  0  0  0  0
  5 24  1  0  0  0  0
  6  7  1  0  0  0  0
  6 25  1  0  0  0  0
  6 26  1  0  0  0  0
  7 11  1  0  0  0  0
  7  8  1  0  0  0  0
  7 41  1  0  0  0  0
  8  9  1  0  0  0  0
  8 27  1  0  0  0  0
  8 28  1  0  0  0  0
  9 10  1  0  0  0  0
  9 29  1  0  0  0  0
  9 30  1  0  0  0  0
 10 11  1  0  0  0  0
 10 31  1  0  0  0  0
 10 32  1  0  0  0  0
 11 12  1  0  0  0  0
 11 33  1  0  0  0  0
 12 13  1  0  0  0  0
 12 34  1  0  0  0  0
 12 35  1  0  0  0  0
 14 15  1  0  0  0  0
 14 36  1  0  0  0  0
 15 20  1  0  0  0  0
 15 16  2  0  0  0  0
 16 17  1  0  0  0  0
 16 37  1  0  0  0  0
 17 18  2  0  0  0  0
 17 38  1  0  0  0  0
 18 19  1  0  0  0  0
 18 39  1  0  0  0  0
 19 20  2  0  0  0  0
 20 40  1  0  0  0  0
M  CHG  1   7   1
M  END
> <s_m_source_file>
AV-unprocessed.smi

> <i_m_source_file_index>
618

> <i_lp_mmshare_version>
43012

> <i_f3d_flags>
0

> <s_epik_input>
W2NIXTFuW2NIXVtjSF1bY0hdYzFbTkhdQyg9TylbTkhdW0NIMl1bQ0BIXShbQ0gyXTIpT1tDSDJdW0NAQEhdKE4yMylbQ0gyXVtDSDJdW0NIMl0z

> <s_epik_cmdline>
J2VwaWtfcHl0aG9uJywgJy1waCcsICc3LjAnLCAnLXRuJywgJzgnLCAnLW1hJywgJzIwMCcsICctbWV0YWxfYmluZGluZycsICctaW1hZScsICc8aW5maWxlLm1hZT4nLCAnLW9tYWUnLCAnPG91dGZpbGUubWFlPic=

> <r_epik_Ionization_Penalty>
0.111044

> <r_epik_Ionization_Penalty_Charging>
0.10673

> <r_epik_Ionization_Penalty_Neutral>
0.00431361

> <r_epik_State_Penalty>
0.0978747

> <r_epik_Charging_Adjusted_Penalty>
0.204605

> <i_epik_Tot_Q>
1

> <i_epik_Tot_abs_Q>
1

> <r_epik_Metal_State_Penalty>
0.0947591

> <b_epik_Metal_Only>
0

> <s_lp_Force_Field>
OPLS_2005

> <r_lp_Energy>
39.3215

> <b_lp_Chiralities_Consistent>
1

> <s_lp_Variant>
AV-unprocessed.smi:618-8

> <Gold.Version>
5.8.1

> <Gold.Id.Protein>
6NUR|6NUR_protein|mol2

> <Gold.PLP.Fitness>
51.3313

> <Gold.PLP.PLP>
-37.8584

> <Gold.PLP.part.hbond>
-4.7676

> <Gold.PLP.part.metal>
0.0000

> <Gold.PLP.part.buried>
-3.5726

> <Gold.PLP.part.nonpolar>
-29.9683

> <Gold.PLP.part.repulsive>
0.3546

> <Gold.PLP.ligand.clash>
0.0000

> <Gold.PLP.ligand.torsion>
0.1466

> <Gold.PLP.Chemscore.Hbond>
3.6000

> <Gold.PLP.Chemscore.CHOScore>
0.9881

> <Gold.PLP.Chemscore.Metal>
0.0000

> <Gold.Chemscore.Hbonds>
donor molecule, donor type, donor heavy atom, donor atom, acceptor molecule, acceptor atom, score
      L1  H     3    21       P1  7948  0.40
      L1  H     7    41       P1 10747  1.00
      L1  H    14    36       P1  7948  1.00
      P1  H  7989  7998       L1    19  0.93
      L1  C    20    40       P1  7957  0.95

> <Gold.PLP.Chemscore.Internal.Correction>
0.0019

> <Gold.Rescore>
     Score         DG    S(hbond)    S(metal)    S(lipo)     H(rot)  DE(clash)    DE(int)     intcor
     19.20     -20.49       2.27        0.00      91.14       1.27       0.06       1.23       ----

> <Gold.Chemscore.Fitness>
19.1964

> <Gold.Chemscore.DG>
-20.4893

> <Gold.Chemscore.ZeroCoef>
-5.4800

> <Gold.Chemscore.Hbond>
2.2714

> <Gold.Chemscore.Metal>
0.0000

> <Gold.Chemscore.Lipo>
91.1352

> <Gold.Chemscore.Internal_Hbond>
0.0000

> <Gold.Chemscore.DEClash>
0.0596

> <Gold.Chemscore.DEInternal>
1.2332

> <Gold.Chemscore.Rot>
1.2656

> <Gold.Chemscore.Internal.Correction>
   9.000000E+99

> <Gold.Chemscore.Hbonds>
donor molecule, donor type, donor heavy atom, donor atom, acceptor molecule, acceptor atom, score
      L1  H     3    21       P1  7948  0.01
      L1  H     7    41       P1 10747  1.00
      L1  H    14    36       P1  7948  0.34
      P1  H  7989  7998       L1    19  0.15

> <Gold.Chemscore.Hbond.Weighted>
-7.5863

> <Gold.Chemscore.Metal.Weighted>
-0.0000

> <Gold.Chemscore.Lipo.Weighted>
-10.6628

> <Gold.Chemscore.Internal_Hbond.Weighted>
0.0000

> <Gold.Chemscore.DEClash.Weighted>
0.0596

> <Gold.Chemscore.DEInternal.Weighted>
1.2332

> <Gold.Chemscore.Rot.Weighted>
3.2399

> <Gold.Chemscore.Internal.Correction.Weighted>
   9.000000E+99

> <Gold.Protein.RotatedTorsions>
[ 6907 6896 6895 6894 ] final  115.77 input  -60.11 | X-H torsion
[ 7974 7965 7964 7962 ] final   59.31 input  175.53 | X-H torsion
[ 8008 7997 7996 7995 ] final -101.93 input   59.86 | X-H torsion
[ 10167 10162 10161 10158 ] final  -43.12 input  -65.29 | X-H torsion
[ 10718 10713 10712 10709 ] final -144.23 input   66.30 | X-H torsion
[ 10763 10752 10751 10750 ] final -132.56 input  -60.55 | X-H torsion
[ 11005 11000 10999 10996 ] final  161.38 input  -57.11 | X-H torsion

> <Gold.Protein.ActiveResidues>
 VAL166  LYS551  ARG553  GLY616  TRP617  ASP618  TYR619  PRO620  LYS621  CYS622 
 ASP623  PHE694  ASN695  SER759  ASP760  ASP761  ALA762  ILE779  LEU786  VAL792 
 PHE793  MET794  SER795  GLU796  ALA797  LYS798  CYS799  TRP800  GLU811  SER814 

> <Gold.Protein.RotatedAtoms>
  152.4721  133.8053  159.6974 H   0  0  0  0  0  0  0  0  0  0  0  0  # atno 6907 bound_to 6896
  150.8715  133.7488  159.2966 H   0  0  0  0  0  0  0  0  0  0  0  0  # atno 6908 bound_to 6896
  151.5022  135.1065  159.9884 H   0  0  0  0  0  0  0  0  0  0  0  0  # atno 6909 bound_to 6896
  145.9085  139.3636  143.0549 H   0  0  0  0  0  0  0  0  0  0  0  0  # atno 7974 bound_to 7965
  154.8494  140.0431  157.1594 H   0  0  0  0  0  0  0  0  0  0  0  0  # atno 8008 bound_to 7997
  154.8959  140.2993  155.5324 H   0  0  0  0  0  0  0  0  0  0  0  0  # atno 8009 bound_to 7997
  156.2995  140.2385  156.3980 H   0  0  0  0  0  0  0  0  0  0  0  0  # atno 8010 bound_to 7997
  140.6945  143.3000  151.3307 H   0  0  0  0  0  0  0  0  0  0  0  0  # atno 10167 bound_to 10162
  156.3675  130.7771  151.1947 H   0  0  0  0  0  0  0  0  0  0  0  0  # atno 10718 bound_to 10713
  154.8742  135.3794  154.4430 H   0  0  0  0  0  0  0  0  0  0  0  0  # atno 10763 bound_to 10752
  153.5113  135.7029  153.5784 H   0  0  0  0  0  0  0  0  0  0  0  0  # atno 10764 bound_to 10752
  153.4072  135.3933  155.1993 H   0  0  0  0  0  0  0  0  0  0  0  0  # atno 10765 bound_to 10752
  140.2152  134.8237  157.3163 H   0  0  0  0  0  0  0  0  0  0  0  0  # atno 11005 bound_to 11000
  145.8701  140.9425  143.0655 LP  0  0  0  0  0  0  0  0  0  0  0  0  # atno 17320 bound_to 7965
  144.6741  140.0644  143.7475 LP  0  0  0  0  0  0  0  0  0  0  0  0  # atno 17321 bound_to 7965
  139.6384  144.0586  152.2534 LP  0  0  0  0  0  0  0  0  0  0  0  0  # atno 17342 bound_to 10162
  140.0083  144.6242  150.7669 LP  0  0  0  0  0  0  0  0  0  0  0  0  # atno 17343 bound_to 10162
  157.7480  131.0382  150.4491 LP  0  0  0  0  0  0  0  0  0  0  0  0  # atno 17370 bound_to 10713
  156.4712  130.4053  149.6517 LP  0  0  0  0  0  0  0  0  0  0  0  0  # atno 17371 bound_to 10713
  140.1908  134.4374  155.7717 LP  0  0  0  0  0  0  0  0  0  0  0  0  # atno 17394 bound_to 11000
  141.2225  133.7026  156.8023 LP  0  0  0  0  0  0  0  0  0  0  0  0  # atno 17395 bound_to 11000

$$$$
