AV-unprocessed.smi:805|AV-procd|sdf|3796|dock3
  -GOLD-   22720 1233D 1   1.00000     0.00000
 Structure written by MMmdl.
 40 41  0  0  0  0  0  0  0  0  1 V2000
  144.2058  132.3894  149.5616 C   0  0  0  0  0  0  0  0  0  0  0  0
  145.6584  132.2215  150.0117 C   0  0  0  0  0  0  0  0  0  0  0  0
  145.7040  132.2623  151.4278 O   0  0  0  0  0  0  0  0  0  0  0  0
  146.2325  133.4792  151.9310 C   0  0  2  0  0  0  0  0  0  0  0  0
  146.3060  133.5591  153.4586 C   0  0  0  0  0  0  0  0  0  0  0  0
  145.7923  134.9979  153.3383 C   0  0  1  0  0  0  0  0  0  0  0  0
  146.9048  135.9479  153.2862 N   0  0  0  0  0  0  0  0  0  0  0  0
  146.9428  137.1111  153.9497 C   0  0  0  0  0  0  0  0  0  0  0  0
  146.0358  137.5024  154.6840 O   0  0  0  0  0  0  0  0  0  0  0  0
  148.0916  137.7670  153.7138 N   0  0  0  0  0  0  0  0  0  0  0  0
  148.4895  139.0495  154.1788 C   0  0  0  0  0  0  0  0  0  0  0  0
  147.6134  140.1530  154.3189 C   0  0  0  0  0  0  0  0  0  0  0  0
  148.1349  141.3816  154.7677 C   0  0  0  0  0  0  0  0  0  0  0  0
  149.5114  141.4639  155.0541 C   0  0  0  0  0  0  0  0  0  0  0  0
  150.3601  140.4240  154.9130 N   0  0  0  0  0  0  0  0  0  0  0  0
  149.8533  139.2497  154.4806 C   0  0  0  0  0  0  0  0  0  0  0  0
  145.1987  134.6306  151.9470 C   0  0  0  0  0  0  0  0  0  0  0  0
  145.3190  135.6511  150.8087 C   0  0  0  0  0  0  0  0  0  0  0  0
  143.7250  134.2037  151.9920 C   0  0  0  0  0  0  0  0  0  0  0  0
  144.1293  132.3685  148.4745 H   0  0  0  0  0  0  0  0  0  0  0  0
  143.7959  133.3382  149.9087 H   0  0  0  0  0  0  0  0  0  0  0  0
  143.5798  131.5889  149.9566 H   0  0  0  0  0  0  0  0  0  0  0  0
  146.0521  131.2730  149.6445 H   0  0  0  0  0  0  0  0  0  0  0  0
  146.2737  133.0194  149.5934 H   0  0  0  0  0  0  0  0  0  0  0  0
  147.1684  133.7723  151.4500 H   0  0  0  0  0  0  0  0  0  0  0  0
  145.5959  132.8962  153.9555 H   0  0  0  0  0  0  0  0  0  0  0  0
  147.3091  133.4510  153.8730 H   0  0  0  0  0  0  0  0  0  0  0  0
  145.0391  135.2393  154.0905 H   0  0  0  0  0  0  0  0  0  0  0  0
  147.6934  135.6997  152.7070 H   0  0  0  0  0  0  0  0  0  0  0  0
  148.7798  137.2743  153.1635 H   0  0  0  0  0  0  0  0  0  0  0  0
  146.5637  140.0881  154.0784 H   0  0  0  0  0  0  0  0  0  0  0  0
  147.4943  142.2431  154.8852 H   0  0  0  0  0  0  0  0  0  0  0  0
  149.9433  142.3917  155.3990 H   0  0  0  0  0  0  0  0  0  0  0  0
  150.5621  138.4412  154.3751 H   0  0  0  0  0  0  0  0  0  0  0  0
  144.7551  136.5587  151.0264 H   0  0  0  0  0  0  0  0  0  0  0  0
  144.9432  135.2473  149.8681 H   0  0  0  0  0  0  0  0  0  0  0  0
  146.3535  135.9454  150.6309 H   0  0  0  0  0  0  0  0  0  0  0  0
  143.0710  135.0536  152.1895 H   0  0  0  0  0  0  0  0  0  0  0  0
  143.5367  133.4674  152.7738 H   0  0  0  0  0  0  0  0  0  0  0  0
  143.4067  133.7573  151.0491 H   0  0  0  0  0  0  0  0  0  0  0  0
  1  2  1  0  0  0  0
  1 20  1  0  0  0  0
  1 21  1  0  0  0  0
  1 22  1  0  0  0  0
  2  3  1  0  0  0  0
  2 23  1  0  0  0  0
  2 24  1  0  0  0  0
  3  4  1  0  0  0  0
  4 17  1  0  0  0  0
  4  5  1  0  0  0  0
  4 25  1  0  0  0  0
  5  6  1  0  0  0  0
  5 26  1  0  0  0  0
  5 27  1  0  0  0  0
  6  7  1  0  0  0  0
  6 17  1  0  0  0  0
  6 28  1  0  0  0  0
  7  8  1  0  0  0  0
  7 29  1  0  0  0  0
  8  9  2  0  0  0  0
  8 10  1  0  0  0  0
 10 11  1  0  0  0  0
 10 30  1  0  0  0  0
 11 16  1  0  0  0  0
 11 12  2  0  0  0  0
 12 13  1  0  0  0  0
 12 31  1  0  0  0  0
 13 14  2  0  0  0  0
 13 32  1  0  0  0  0
 14 15  1  0  0  0  0
 14 33  1  0  0  0  0
 15 16  2  0  0  0  0
 16 34  1  0  0  0  0
 17 18  1  0  0  0  0
 17 19  1  0  0  0  0
 18 35  1  0  0  0  0
 18 36  1  0  0  0  0
 18 37  1  0  0  0  0
 19 38  1  0  0  0  0
 19 39  1  0  0  0  0
 19 40  1  0  0  0  0
M  END
> <s_m_source_file>
AV-unprocessed.smi

> <i_m_source_file_index>
805

> <i_lp_mmshare_version>
43012

> <i_f3d_flags>
0

> <s_epik_input>
W0NIM11bQ0gyXU9bQ0BASF0oQzEoW0NIM10pW0NIM10pW0NIMl1bQ0BIXTFbTkhdQyg9TylbTkhdYzJbY0hdW2NIXVtjSF1uW2NIXTI=

> <s_epik_cmdline>
J2VwaWtfcHl0aG9uJywgJy1waCcsICc3LjAnLCAnLXRuJywgJzgnLCAnLW1hJywgJzIwMCcsICctbWV0YWxfYmluZGluZycsICctaW1hZScsICc8aW5maWxlLm1hZT4nLCAnLW9tYWUnLCAnPG91dGZpbGUubWFlPic=

> <r_epik_Ionization_Penalty>
0.00485231

> <r_epik_Ionization_Penalty_Charging>
0

> <r_epik_Ionization_Penalty_Neutral>
0.00485231

> <r_epik_State_Penalty>
0.00349213

> <r_epik_Charging_Adjusted_Penalty>
0.00349213

> <i_epik_Tot_Q>
0

> <i_epik_Tot_abs_Q>
0

> <r_epik_Metal_State_Penalty>
-0

> <b_epik_Metal_Only>
0

> <s_lp_Force_Field>
OPLS_2005

> <r_lp_Energy>
23.2605

> <b_lp_Chiralities_Consistent>
1

> <s_lp_Variant>
AV-unprocessed.smi:805-1

> <Gold.Version>
5.8.1

> <Gold.Id.Protein>
6NUR|6NUR_protein|mol2

> <Gold.PLP.Fitness>
43.2549

> <Gold.PLP.PLP>
-32.8173

> <Gold.PLP.part.hbond>
-3.0000

> <Gold.PLP.part.metal>
0.0000

> <Gold.PLP.part.buried>
-5.1049

> <Gold.PLP.part.nonpolar>
-26.0680

> <Gold.PLP.part.repulsive>
0.2924

> <Gold.PLP.ligand.clash>
0.0000

> <Gold.PLP.ligand.torsion>
0.8079

> <Gold.PLP.Chemscore.Hbond>
2.9120

> <Gold.PLP.Chemscore.CHOScore>
1.0000

> <Gold.PLP.Chemscore.Metal>
0.0000

> <Gold.Chemscore.Hbonds>
donor molecule, donor type, donor heavy atom, donor atom, acceptor molecule, acceptor atom, score
      L1  H     7    29       P1  7948  0.96
      L1  H    10    30       P1  7948  0.88
      P1  H  7989  7998       L1    15  1.00
      L1  C    14    33       P1  8028  0.91

> <Gold.PLP.Chemscore.Internal.Correction>
0.3174

> <Gold.Rescore>
     Score         DG    S(hbond)    S(metal)    S(lipo)     H(rot)  DE(clash)    DE(int)     intcor
     18.09     -19.99       2.52        0.00      81.66       1.36       0.10       1.80       ----

> <Gold.Chemscore.Fitness>
18.0909

> <Gold.Chemscore.DG>
-19.9933

> <Gold.Chemscore.ZeroCoef>
-5.4800

> <Gold.Chemscore.Hbond>
2.5235

> <Gold.Chemscore.Metal>
0.0000

> <Gold.Chemscore.Lipo>
81.6578

> <Gold.Chemscore.Internal_Hbond>
0.0000

> <Gold.Chemscore.DEClash>
0.0978

> <Gold.Chemscore.DEInternal>
1.8046

> <Gold.Chemscore.Rot>
1.3551

> <Gold.Chemscore.Internal.Correction>
   9.000000E+99

> <Gold.Chemscore.Hbonds>
donor molecule, donor type, donor heavy atom, donor atom, acceptor molecule, acceptor atom, score
      L1  H     7    29       P1  7948  0.91
      L1  H    10    30       P1  7948  0.86
      P1  H  7989  7998       L1    15  0.23

> <Gold.Chemscore.Hbond.Weighted>
-8.4285

> <Gold.Chemscore.Metal.Weighted>
-0.0000

> <Gold.Chemscore.Lipo.Weighted>
-9.5540

> <Gold.Chemscore.Internal_Hbond.Weighted>
0.0000

> <Gold.Chemscore.DEClash.Weighted>
0.0978

> <Gold.Chemscore.DEInternal.Weighted>
1.8046

> <Gold.Chemscore.Rot.Weighted>
3.4691

> <Gold.Chemscore.Internal.Correction.Weighted>
   9.000000E+99

> <Gold.Protein.RotatedTorsions>
[ 6907 6896 6895 6894 ] final  -65.46 input  -60.11 | X-H torsion
[ 7974 7965 7964 7962 ] final -134.54 input  175.53 | X-H torsion
[ 8008 7997 7996 7995 ] final    1.24 input   59.86 | X-H torsion
[ 10167 10162 10161 10158 ] final   34.77 input  -65.29 | X-H torsion
[ 10718 10713 10712 10709 ] final  -92.55 input   66.30 | X-H torsion
[ 10763 10752 10751 10750 ] final    9.29 input  -60.55 | X-H torsion
[ 11005 11000 10999 10996 ] final    4.44 input  -57.11 | X-H torsion

> <Gold.Protein.ActiveResidues>
 VAL166  LYS551  ARG553  GLY616  TRP617  ASP618  TYR619  PRO620  LYS621  CYS622 
 ASP623  PHE694  ASN695  SER759  ASP760  ASP761  ALA762  ILE779  LEU786  VAL792 
 PHE793  MET794  SER795  GLU796  ALA797  LYS798  CYS799  TRP800  GLU811  SER814 

> <Gold.Protein.RotatedAtoms>
  150.7523  134.6157  159.6109 H   0  0  0  0  0  0  0  0  0  0  0  0  # atno 6907 bound_to 6896
  152.3478  134.7044  160.0254 H   0  0  0  0  0  0  0  0  0  0  0  0  # atno 6908 bound_to 6896
  151.7475  133.3289  159.3419 H   0  0  0  0  0  0  0  0  0  0  0  0  # atno 6909 bound_to 6896
  144.9093  140.6874  143.5035 H   0  0  0  0  0  0  0  0  0  0  0  0  # atno 7974 bound_to 7965
  154.6774  140.2625  155.6944 H   0  0  0  0  0  0  0  0  0  0  0  0  # atno 8008 bound_to 7997
  156.2683  140.2817  156.1228 H   0  0  0  0  0  0  0  0  0  0  0  0  # atno 8009 bound_to 7997
  155.1081  140.0375  157.2706 H   0  0  0  0  0  0  0  0  0  0  0  0  # atno 8010 bound_to 7997
  140.4284  144.1360  150.6156 H   0  0  0  0  0  0  0  0  0  0  0  0  # atno 10167 bound_to 10162
  156.0003  130.4991  150.5642 H   0  0  0  0  0  0  0  0  0  0  0  0  # atno 10718 bound_to 10713
  153.2156  135.6874  153.8061 H   0  0  0  0  0  0  0  0  0  0  0  0  # atno 10763 bound_to 10752
  153.7279  135.3257  155.3281 H   0  0  0  0  0  0  0  0  0  0  0  0  # atno 10764 bound_to 10752
  154.8244  135.4628  154.0982 H   0  0  0  0  0  0  0  0  0  0  0  0  # atno 10765 bound_to 10752
  140.5819  134.0005  155.8051 H   0  0  0  0  0  0  0  0  0  0  0  0  # atno 11005 bound_to 11000
  145.3481  139.1713  143.4449 LP  0  0  0  0  0  0  0  0  0  0  0  0  # atno 17320 bound_to 7965
  146.3150  140.3530  142.8658 LP  0  0  0  0  0  0  0  0  0  0  0  0  # atno 17321 bound_to 7965
  140.4455  143.2508  151.9417 LP  0  0  0  0  0  0  0  0  0  0  0  0  # atno 17342 bound_to 10162
  139.4784  144.5613  151.8234 LP  0  0  0  0  0  0  0  0  0  0  0  0  # atno 17343 bound_to 10162
  157.3547  131.0739  151.1685 LP  0  0  0  0  0  0  0  0  0  0  0  0  # atno 17370 bound_to 10713
  157.2490  130.6605  149.5923 LP  0  0  0  0  0  0  0  0  0  0  0  0  # atno 17371 bound_to 10713
  141.0991  133.9797  157.3110 LP  0  0  0  0  0  0  0  0  0  0  0  0  # atno 17394 bound_to 11000
  139.9313  135.0199  156.8410 LP  0  0  0  0  0  0  0  0  0  0  0  0  # atno 17395 bound_to 11000

$$$$
