AV-unprocessed.smi:171|AV-procd|sdf|1415|dock2
  -GOLD-   2262019183D 1   1.00000     0.00000
 Structure written by MMmdl.
 56 59  0  0  0  0  0  0  0  0  1 V2000
  152.0221  142.9361  159.0087 C   0  0  0  0  0  0  0  0  0  0  0  0
  151.2737  142.2655  157.8458 C   0  0  0  0  0  0  0  0  0  0  0  0
  149.8184  141.9785  158.2474 C   0  0  0  0  0  0  0  0  0  0  0  0
  151.9571  140.9772  157.3304 C   0  0  0  0  0  0  0  0  0  0  0  0
  151.2558  140.2889  156.1196 C   0  0  1  0  0  0  0  0  0  0  0  0
  152.1937  139.5031  155.1688 C   0  0  0  0  0  0  0  0  0  0  0  0
  153.3812  139.8020  155.0644 O   0  0  0  0  0  0  0  0  0  0  0  0
  151.6680  138.4886  154.4586 N   0  0  0  0  0  0  0  0  0  0  0  0
  150.2857  138.0094  154.5368 C   0  0  0  0  0  0  0  0  0  0  0  0
  149.3635  138.9119  155.3838 C   0  0  0  0  0  0  0  0  0  0  0  0
  150.0876  139.4823  156.5172 N   0  0  0  0  0  0  0  0  0  0  0  0
  150.1621  138.6262  157.5726 C   0  0  0  0  0  0  0  0  0  0  0  0
  151.3435  138.4120  158.2110 N   0  0  0  0  0  0  0  0  0  0  0  0
  151.4107  137.5609  159.2382 C   0  0  0  0  0  0  0  0  0  0  0  0
  150.4344  136.8332  159.7828 N   0  0  0  0  0  0  0  0  0  0  0  0
  149.2448  137.0449  159.1492 C   0  0  0  0  0  0  0  0  0  0  0  0
  149.0266  137.9098  158.0408 C   0  0  0  0  0  0  0  0  0  0  0  0
  147.6940  137.8583  157.6550 N   0  0  0  0  0  0  0  0  0  0  0  0
  147.1551  137.0104  158.4880 C   0  0  0  0  0  0  0  0  0  0  0  0
  148.0067  136.4960  159.4429 N   0  0  0  0  0  0  0  0  0  0  0  0
  147.6949  135.5296  160.4909 C   0  0  0  0  0  0  0  0  0  0  0  0
  146.6431  135.9827  161.5431 C   0  0  1  0  0  0  0  0  0  0  0  0
  147.0893  137.1972  162.1224 O   0  0  0  0  0  0  0  0  0  0  0  0
  145.2916  136.2686  160.9000 C   0  0  0  0  0  0  0  0  0  0  0  0
  144.3260  136.1269  162.0658 C   0  0  0  0  0  0  0  0  0  0  0  0
  144.8445  135.0120  162.7683 O   0  0  0  0  0  0  0  0  0  0  0  0
  146.2709  135.0128  162.7043 C   0  0  1  0  0  0  0  0  0  0  0  0
  146.6766  133.5393  162.5552 C   0  0  0  0  0  0  0  0  0  0  0  0
  152.1383  142.2540  159.8515 H   0  0  0  0  0  0  0  0  0  0  0  0
  151.4848  143.8148  159.3658 H   0  0  0  0  0  0  0  0  0  0  0  0
  153.0135  143.2713  158.7054 H   0  0  0  0  0  0  0  0  0  0  0  0
  151.2403  142.9783  157.0210 H   0  0  0  0  0  0  0  0  0  0  0  0
  149.7688  141.2648  159.0705 H   0  0  0  0  0  0  0  0  0  0  0  0
  149.2517  141.5642  157.4130 H   0  0  0  0  0  0  0  0  0  0  0  0
  149.3099  142.8891  158.5658 H   0  0  0  0  0  0  0  0  0  0  0  0
  153.0069  141.1746  157.1080 H   0  0  0  0  0  0  0  0  0  0  0  0
  151.9749  140.2853  158.1733 H   0  0  0  0  0  0  0  0  0  0  0  0
  150.8363  141.0872  155.5059 H   0  0  0  0  0  0  0  0  0  0  0  0
  152.2849  137.9892  153.8344 H   0  0  0  0  0  0  0  0  0  0  0  0
  149.8813  137.8864  153.5321 H   0  0  0  0  0  0  0  0  0  0  0  0
  150.3200  137.0144  154.9817 H   0  0  0  0  0  0  0  0  0  0  0  0
  149.0021  139.7378  154.7695 H   0  0  0  0  0  0  0  0  0  0  0  0
  148.4731  138.3630  155.6931 H   0  0  0  0  0  0  0  0  0  0  0  0
  152.3859  137.4482  159.6886 H   0  0  0  0  0  0  0  0  0  0  0  0
  146.1116  136.7417  158.4209 H   0  0  0  0  0  0  0  0  0  0  0  0
  147.3535  134.6161  160.0018 H   0  0  0  0  0  0  0  0  0  0  0  0
  148.6231  135.2605  160.9955 H   0  0  0  0  0  0  0  0  0  0  0  0
  146.8518  137.1966  163.0372 H   0  0  0  0  0  0  0  0  0  0  0  0
  145.2336  137.2418  160.4106 H   0  0  0  0  0  0  0  0  0  0  0  0
  145.0603  135.5078  160.1530 H   0  0  0  0  0  0  0  0  0  0  0  0
  144.3494  137.0083  162.7084 H   0  0  0  0  0  0  0  0  0  0  0  0
  143.2975  135.9580  161.7460 H   0  0  0  0  0  0  0  0  0  0  0  0
  146.6559  135.3835  163.6558 H   0  0  0  0  0  0  0  0  0  0  0  0
  147.7488  133.4051  162.6797 H   0  0  0  0  0  0  0  0  0  0  0  0
  146.3830  133.1347  161.5865 H   0  0  0  0  0  0  0  0  0  0  0  0
  146.1979  132.9314  163.3233 H   0  0  0  0  0  0  0  0  0  0  0  0
  1  2  1  0  0  0  0
  1 29  1  0  0  0  0
  1 30  1  0  0  0  0
  1 31  1  0  0  0  0
  2  3  1  0  0  0  0
  2  4  1  0  0  0  0
  2 32  1  0  0  0  0
  3 33  1  0  0  0  0
  3 34  1  0  0  0  0
  3 35  1  0  0  0  0
  4  5  1  0  0  0  0
  4 36  1  0  0  0  0
  4 37  1  0  0  0  0
  5 11  1  0  0  0  0
  5  6  1  0  0  0  0
  5 38  1  0  0  0  0
  6  7  2  0  0  0  0
  6  8  1  0  0  0  0
  8  9  1  0  0  0  0
  8 39  1  0  0  0  0
  9 10  1  0  0  0  0
  9 40  1  0  0  0  0
  9 41  1  0  0  0  0
 10 11  1  0  0  0  0
 10 42  1  0  0  0  0
 10 43  1  0  0  0  0
 11 12  1  0  0  0  0
 12 17  1  0  0  0  0
 12 13  2  0  0  0  0
 13 14  1  0  0  0  0
 14 15  2  0  0  0  0
 14 44  1  0  0  0  0
 15 16  1  0  0  0  0
 16 20  1  0  0  0  0
 16 17  2  0  0  0  0
 17 18  1  0  0  0  0
 18 19  2  0  0  0  0
 19 20  1  0  0  0  0
 19 45  1  0  0  0  0
 20 21  1  0  0  0  0
 21 22  1  0  0  0  0
 21 46  1  0  0  0  0
 21 47  1  0  0  0  0
 22 27  1  0  0  0  0
 22 23  1  0  0  0  0
 22 24  1  0  0  0  0
 23 48  1  0  0  0  0
 24 25  1  0  0  0  0
 24 49  1  0  0  0  0
 24 50  1  0  0  0  0
 25 26  1  0  0  0  0
 25 51  1  0  0  0  0
 25 52  1  0  0  0  0
 26 27  1  0  0  0  0
 27 28  1  0  0  0  0
 27 53  1  0  0  0  0
 28 54  1  0  0  0  0
 28 55  1  0  0  0  0
 28 56  1  0  0  0  0
M  END
> <s_m_source_file>
AV-unprocessed.smi

> <i_m_source_file_index>
171

> <i_lp_mmshare_version>
43012

> <i_f3d_flags>
0

> <s_epik_input>
W0NIM11bQ0hdKFtDSDNdKVtDSDJdW0NAQEhdMUMoPU8pW05IXVtDSDJdW0NIMl1OMWMobltjSF1uMiljKGMyMyluW2NIXW4zW0NIMl1bQ0BAXTQoW09IXSlbQ0gyXVtDSDJdT1tDQEhdNFtDSDNd

> <s_epik_cmdline>
J2VwaWtfcHl0aG9uJywgJy1waCcsICc3LjAnLCAnLXRuJywgJzgnLCAnLW1hJywgJzIwMCcsICctbWV0YWxfYmluZGluZycsICctaW1hZScsICc8aW5maWxlLm1hZT4nLCAnLW9tYWUnLCAnPG91dGZpbGUubWFlPic=

> <r_lp_tautomer_probability>
1

> <r_epik_Ionization_Penalty>
0.000670584

> <r_epik_Ionization_Penalty_Charging>
0

> <r_epik_Ionization_Penalty_Neutral>
0.000670584

> <r_epik_State_Penalty>
0.000304767

> <r_epik_Charging_Adjusted_Penalty>
0.000304767

> <i_epik_Tot_Q>
0

> <i_epik_Tot_abs_Q>
0

> <r_epik_Metal_State_Penalty>
-0

> <b_epik_Metal_Only>
0

> <s_lp_Force_Field>
OPLS_2005

> <r_lp_Energy>
47.4038

> <b_lp_Chiralities_Consistent>
1

> <s_lp_Variant>
AV-unprocessed.smi:171-2

> <Gold.Version>
5.8.1

> <Gold.Id.Protein>
6NUR|6NUR_protein|mol2

> <Gold.PLP.Fitness>
49.3048

> <Gold.PLP.PLP>
-39.4365

> <Gold.PLP.part.hbond>
-5.0000

> <Gold.PLP.part.metal>
0.0000

> <Gold.PLP.part.buried>
-2.9586

> <Gold.PLP.part.nonpolar>
-30.5403

> <Gold.PLP.part.repulsive>
0.1930

> <Gold.PLP.ligand.clash>
0.0000

> <Gold.PLP.ligand.torsion>
0.4608

> <Gold.PLP.Chemscore.Hbond>
3.4590

> <Gold.PLP.Chemscore.CHOScore>
0.0000

> <Gold.PLP.Chemscore.Metal>
0.0000

> <Gold.Chemscore.Hbonds>
donor molecule, donor type, donor heavy atom, donor atom, acceptor molecule, acceptor atom, score
      P1  H  6896  6908       L1    15  1.00
      P1  H  6931  6943       L1    23  0.44
      P1  H  6934  6947       L1    23  0.49
      P1  H  7997  8008       L1     7  0.75

> <Gold.PLP.Chemscore.Internal.Correction>
0.4131

> <Gold.Rescore>
     Score         DG    S(hbond)    S(metal)    S(lipo)     H(rot)  DE(clash)    DE(int)     intcor
     14.66     -17.59       2.52        0.00      88.50       2.61       0.40       2.53       ----

> <Gold.Chemscore.Fitness>
14.6646

> <Gold.Chemscore.DG>
-17.5922

> <Gold.Chemscore.ZeroCoef>
-5.4800

> <Gold.Chemscore.Hbond>
2.5248

> <Gold.Chemscore.Metal>
0.0000

> <Gold.Chemscore.Lipo>
88.4964

> <Gold.Chemscore.Internal_Hbond>
0.0000

> <Gold.Chemscore.DEClash>
0.4022

> <Gold.Chemscore.DEInternal>
2.5254

> <Gold.Chemscore.Rot>
2.6074

> <Gold.Chemscore.Internal.Correction>
   9.000000E+99

> <Gold.Chemscore.Hbonds>
donor molecule, donor type, donor heavy atom, donor atom, acceptor molecule, acceptor atom, score
      P1  H  6896  6908       L1    15  0.48
      P1  H  6931  6943       L1    23  0.28
      P1  H  6934  6947       L1    23  0.46
      P1  H  7997  8008       L1     7  0.73

> <Gold.Chemscore.Hbond.Weighted>
-8.4329

> <Gold.Chemscore.Metal.Weighted>
-0.0000

> <Gold.Chemscore.Lipo.Weighted>
-10.3541

> <Gold.Chemscore.Internal_Hbond.Weighted>
0.0000

> <Gold.Chemscore.DEClash.Weighted>
0.4022

> <Gold.Chemscore.DEInternal.Weighted>
2.5254

> <Gold.Chemscore.Rot.Weighted>
6.6748

> <Gold.Chemscore.Internal.Correction.Weighted>
   9.000000E+99

> <Gold.Protein.RotatedTorsions>
[ 6907 6896 6895 6894 ] final -148.83 input  -60.11 | X-H torsion
[ 7974 7965 7964 7962 ] final  -97.76 input  175.53 | X-H torsion
[ 8008 7997 7996 7995 ] final  -22.75 input   59.86 | X-H torsion
[ 10167 10162 10161 10158 ] final   -2.79 input  -65.29 | X-H torsion
[ 10718 10713 10712 10709 ] final  -93.84 input   66.30 | X-H torsion
[ 10763 10752 10751 10750 ] final   86.16 input  -60.55 | X-H torsion
[ 11005 11000 10999 10996 ] final   36.94 input  -57.11 | X-H torsion

> <Gold.Protein.ActiveResidues>
 VAL166  LYS551  ARG553  GLY616  TRP617  ASP618  TYR619  PRO620  LYS621  CYS622 
 ASP623  PHE694  ASN695  SER759  ASP760  ASP761  ALA762  ILE779  LEU786  VAL792 
 PHE793  MET794  SER795  GLU796  ALA797  LYS798  CYS799  TRP800  GLU811  SER814 

> <Gold.Protein.RotatedAtoms>
  151.1755  133.4757  159.2593 H   0  0  0  0  0  0  0  0  0  0  0  0  # atno 6907 bound_to 6896
  151.1312  135.0131  159.8593 H   0  0  0  0  0  0  0  0  0  0  0  0  # atno 6908 bound_to 6896
  152.5460  134.1657  159.8629 H   0  0  0  0  0  0  0  0  0  0  0  0  # atno 6909 bound_to 6896
  145.3294  140.9438  143.2670 H   0  0  0  0  0  0  0  0  0  0  0  0  # atno 7974 bound_to 7965
  154.4625  140.1999  156.0206 H   0  0  0  0  0  0  0  0  0  0  0  0  # atno 8008 bound_to 7997
  156.0867  140.3264  155.7734 H   0  0  0  0  0  0  0  0  0  0  0  0  # atno 8009 bound_to 7997
  155.5024  140.0555  157.2927 H   0  0  0  0  0  0  0  0  0  0  0  0  # atno 8010 bound_to 7997
  140.6865  143.6615  150.8262 H   0  0  0  0  0  0  0  0  0  0  0  0  # atno 10167 bound_to 10162
  156.0019  130.5043  150.5837 H   0  0  0  0  0  0  0  0  0  0  0  0  # atno 10718 bound_to 10713
  153.1543  135.4591  154.9682 H   0  0  0  0  0  0  0  0  0  0  0  0  # atno 10763 bound_to 10752
  154.7849  135.3201  154.7910 H   0  0  0  0  0  0  0  0  0  0  0  0  # atno 10764 bound_to 10752
  153.8410  135.6930  153.4857 H   0  0  0  0  0  0  0  0  0  0  0  0  # atno 10765 bound_to 10752
  140.2275  134.3567  155.7978 H   0  0  0  0  0  0  0  0  0  0  0  0  # atno 11005 bound_to 11000
  144.8876  139.4818  143.6693 LP  0  0  0  0  0  0  0  0  0  0  0  0  # atno 17320 bound_to 7965
  146.3051  139.7554  142.9062 LP  0  0  0  0  0  0  0  0  0  0  0  0  # atno 17321 bound_to 7965
  140.0323  143.5431  152.2755 LP  0  0  0  0  0  0  0  0  0  0  0  0  # atno 17342 bound_to 10162
  139.6228  144.7632  151.2703 LP  0  0  0  0  0  0  0  0  0  0  0  0  # atno 17343 bound_to 10162
  157.3713  131.0766  151.1555 LP  0  0  0  0  0  0  0  0  0  0  0  0  # atno 17370 bound_to 10713
  157.2307  130.6524  149.5848 LP  0  0  0  0  0  0  0  0  0  0  0  0  # atno 17371 bound_to 10713
  141.2220  133.7227  156.8677 LP  0  0  0  0  0  0  0  0  0  0  0  0  # atno 17394 bound_to 11000
  140.1785  134.9050  157.2920 LP  0  0  0  0  0  0  0  0  0  0  0  0  # atno 17395 bound_to 11000

$$$$
