AV-unprocessed.smi:3112|AV-procd|sdf|11850|dock1
  -GOLD-   2272017233D 1   1.00000     0.00000
 Structure written by MMmdl.
 36 36  0  0  0  0  0  0  0  0  1 V2000
  147.0473  141.8491  153.7906 C   0  0  0  0  0  0  0  0  0  0  0  0
  147.9713  141.5470  154.9781 C   0  0  0  0  0  0  0  0  0  0  0  0
  149.4682  141.6770  154.6322 C   0  0  2  0  0  0  0  0  0  0  0  0
  149.8883  140.6177  153.7957 O   0  0  0  0  0  0  0  0  0  0  0  0
  150.4002  141.7493  155.8564 C   0  0  0  0  0  0  0  0  0  0  0  0
  149.7985  142.4841  156.9727 N   0  0  0  0  0  0  0  0  0  0  0  0
  150.3963  142.2177  158.2845 C   0  0  1  0  0  0  0  0  0  0  0  0
  150.5197  140.6917  158.4552 C   0  0  0  0  0  0  0  0  0  0  0  0
  151.7655  142.9431  158.4530 C   0  0  1  0  0  0  0  0  0  0  0  0
  151.7131  144.4662  158.2320 C   0  0  0  0  0  0  0  0  0  0  0  0
  152.3737  142.6606  159.7479 N   0  0  0  0  0  0  0  0  0  0  0  0
  153.5116  141.9268  160.0148 C   0  0  0  0  0  0  0  0  0  0  0  0
  153.6951  141.9339  161.3678 C   0  0  0  0  0  0  0  0  0  0  0  0
  152.6050  142.7089  161.8522 C   0  0  0  0  0  0  0  0  0  0  0  0
  151.8166  143.1425  160.8825 N   0  0  0  0  0  0  0  0  0  0  0  0
  146.0007  141.7773  154.0871 H   0  0  0  0  0  0  0  0  0  0  0  0
  147.2073  141.1457  152.9731 H   0  0  0  0  0  0  0  0  0  0  0  0
  147.2148  142.8553  153.4058 H   0  0  0  0  0  0  0  0  0  0  0  0
  147.7313  142.2385  155.7869 H   0  0  0  0  0  0  0  0  0  0  0  0
  147.7551  140.5472  155.3566 H   0  0  0  0  0  0  0  0  0  0  0  0
  149.6105  142.5962  154.0627 H   0  0  0  0  0  0  0  0  0  0  0  0
  149.4575  140.7067  152.9595 H   0  0  0  0  0  0  0  0  0  0  0  0
  150.6946  140.7438  156.1506 H   0  0  0  0  0  0  0  0  0  0  0  0
  151.3212  142.2523  155.5595 H   0  0  0  0  0  0  0  0  0  0  0  0
  149.8459  143.4784  156.7749 H   0  0  0  0  0  0  0  0  0  0  0  0
  149.7182  142.5638  159.0662 H   0  0  0  0  0  0  0  0  0  0  0  0
  150.8363  140.4193  159.4621 H   0  0  0  0  0  0  0  0  0  0  0  0
  151.2401  140.2702  157.7533 H   0  0  0  0  0  0  0  0  0  0  0  0
  149.5619  140.1996  158.2831 H   0  0  0  0  0  0  0  0  0  0  0  0
  152.4458  142.5368  157.7026 H   0  0  0  0  0  0  0  0  0  0  0  0
  151.5042  144.7099  157.1908 H   0  0  0  0  0  0  0  0  0  0  0  0
  152.6704  144.9292  158.4742 H   0  0  0  0  0  0  0  0  0  0  0  0
  150.9505  144.9361  158.8536 H   0  0  0  0  0  0  0  0  0  0  0  0
  154.0894  141.4644  159.2283 H   0  0  0  0  0  0  0  0  0  0  0  0
  154.4871  141.4579  161.9262 H   0  0  0  0  0  0  0  0  0  0  0  0
  152.3648  142.9676  162.8729 H   0  0  0  0  0  0  0  0  0  0  0  0
  1  2  1  0  0  0  0
  1 16  1  0  0  0  0
  1 17  1  0  0  0  0
  1 18  1  0  0  0  0
  2  3  1  0  0  0  0
  2 19  1  0  0  0  0
  2 20  1  0  0  0  0
  3  4  1  0  0  0  0
  3  5  1  0  0  0  0
  3 21  1  0  0  0  0
  4 22  1  0  0  0  0
  5  6  1  0  0  0  0
  5 23  1  0  0  0  0
  5 24  1  0  0  0  0
  6  7  1  0  0  0  0
  6 25  1  0  0  0  0
  7  8  1  0  0  0  0
  7  9  1  0  0  0  0
  7 26  1  0  0  0  0
  8 27  1  0  0  0  0
  8 28  1  0  0  0  0
  8 29  1  0  0  0  0
  9 10  1  0  0  0  0
  9 11  1  0  0  0  0
  9 30  1  0  0  0  0
 10 31  1  0  0  0  0
 10 32  1  0  0  0  0
 10 33  1  0  0  0  0
 11 15  1  0  0  0  0
 11 12  1  0  0  0  0
 12 13  2  0  0  0  0
 12 34  1  0  0  0  0
 13 14  1  0  0  0  0
 13 35  1  0  0  0  0
 14 15  2  0  0  0  0
 14 36  1  0  0  0  0
M  END
> <s_m_source_file>
AV-unprocessed.smi

> <i_m_source_file_index>
3112

> <i_lp_mmshare_version>
43012

> <i_f3d_flags>
0

> <s_epik_input>
W0NIM11bQ0gyXVtDQEhdKFtPSF0pW0NIMl1bTkhdW0NASF0oW0NIM10pW0NASF0oW0NIM10pbjFbY0hdW2NIXVtjSF1uMQ==

> <s_epik_cmdline>
J2VwaWtfcHl0aG9uJywgJy1waCcsICc3LjAnLCAnLXRuJywgJzgnLCAnLW1hJywgJzIwMCcsICctbWV0YWxfYmluZGluZycsICctaW1hZScsICc8aW5maWxlLm1hZT4nLCAnLW9tYWUnLCAnPG91dGZpbGUubWFlPic=

> <r_lp_tautomer_probability>
1

> <r_epik_Ionization_Penalty>
2.16876

> <r_epik_Ionization_Penalty_Charging>
0

> <r_epik_Ionization_Penalty_Neutral>
2.16876

> <r_epik_State_Penalty>
2.30854

> <r_epik_Charging_Adjusted_Penalty>
2.30854

> <i_epik_Tot_Q>
0

> <i_epik_Tot_abs_Q>
0

> <r_epik_Metal_State_Penalty>
2.3073

> <b_epik_Metal_Only>
0

> <s_lp_Force_Field>
OPLS_2005

> <r_lp_Energy>
23.3331

> <b_lp_Chiralities_Consistent>
1

> <s_lp_Variant>
AV-unprocessed.smi:3112-15

> <Gold.Version>
5.8.1

> <Gold.Id.Protein>
6NUR|6NUR_protein|mol2

> <Gold.PLP.Fitness>
48.5852

> <Gold.PLP.PLP>
-41.5826

> <Gold.PLP.part.hbond>
-3.3307

> <Gold.PLP.part.metal>
0.0000

> <Gold.PLP.part.buried>
-5.1260

> <Gold.PLP.part.nonpolar>
-33.3205

> <Gold.PLP.part.repulsive>
0.0959

> <Gold.PLP.ligand.clash>
0.0000

> <Gold.PLP.ligand.torsion>
0.5825

> <Gold.PLP.Chemscore.Hbond>
2.6240

> <Gold.PLP.Chemscore.CHOScore>
0.0000

> <Gold.PLP.Chemscore.Metal>
0.0000

> <Gold.Chemscore.Hbonds>
donor molecule, donor type, donor heavy atom, donor atom, acceptor molecule, acceptor atom, score
      L1  H     4    22       P1  7957  0.78
      L1  H     6    25       P1  8028  0.74
      P1  H  7989  7998       L1     4  0.56

> <Gold.PLP.Chemscore.Internal.Correction>
0.2956

> <Gold.Rescore>
     Score         DG    S(hbond)    S(metal)    S(lipo)     H(rot)  DE(clash)    DE(int)     intcor
     16.94     -17.53       2.06        0.00      94.80       2.31       0.03       0.56       ----

> <Gold.Chemscore.Fitness>
16.9443

> <Gold.Chemscore.DG>
-17.5284

> <Gold.Chemscore.ZeroCoef>
-5.4800

> <Gold.Chemscore.Hbond>
2.0577

> <Gold.Chemscore.Metal>
0.0000

> <Gold.Chemscore.Lipo>
94.7971

> <Gold.Chemscore.Internal_Hbond>
0.0000

> <Gold.Chemscore.DEClash>
0.0291

> <Gold.Chemscore.DEInternal>
0.5550

> <Gold.Chemscore.Rot>
2.3108

> <Gold.Chemscore.Internal.Correction>
   9.000000E+99

> <Gold.Chemscore.Hbonds>
donor molecule, donor type, donor heavy atom, donor atom, acceptor molecule, acceptor atom, score
      L1  H     4    22       P1  7957  0.79
      L1  H     6    25       P1  8028  0.74
      P1  H  7989  7998       L1     4  0.15

> <Gold.Chemscore.Hbond.Weighted>
-6.8728

> <Gold.Chemscore.Metal.Weighted>
-0.0000

> <Gold.Chemscore.Lipo.Weighted>
-11.0913

> <Gold.Chemscore.Internal_Hbond.Weighted>
0.0000

> <Gold.Chemscore.DEClash.Weighted>
0.0291

> <Gold.Chemscore.DEInternal.Weighted>
0.5550

> <Gold.Chemscore.Rot.Weighted>
5.9157

> <Gold.Chemscore.Internal.Correction.Weighted>
   9.000000E+99

> <Gold.Protein.RotatedTorsions>
[ 6907 6896 6895 6894 ] final  100.33 input  -60.11 | X-H torsion
[ 7974 7965 7964 7962 ] final  -18.35 input  175.53 | X-H torsion
[ 8008 7997 7996 7995 ] final -122.02 input   59.86 | X-H torsion
[ 10167 10162 10161 10158 ] final  110.19 input  -65.29 | X-H torsion
[ 10718 10713 10712 10709 ] final -151.47 input   66.30 | X-H torsion
[ 10763 10752 10751 10750 ] final   95.06 input  -60.55 | X-H torsion
[ 11005 11000 10999 10996 ] final -101.82 input  -57.11 | X-H torsion

> <Gold.Protein.ActiveResidues>
 VAL166  LYS551  ARG553  GLY616  TRP617  ASP618  TYR619  PRO620  LYS621  CYS622 
 ASP623  PHE694  ASN695  SER759  ASP760  ASP761  ALA762  ILE779  LEU786  VAL792 
 PHE793  MET794  SER795  GLU796  ALA797  LYS798  CYS799  TRP800  GLU811  SER814 

> <Gold.Protein.RotatedAtoms>
  152.5374  134.0293  159.8017 H   0  0  0  0  0  0  0  0  0  0  0  0  # atno 6907 bound_to 6896
  151.0467  133.5652  159.2653 H   0  0  0  0  0  0  0  0  0  0  0  0  # atno 6908 bound_to 6896
  151.2601  135.0658  159.9148 H   0  0  0  0  0  0  0  0  0  0  0  0  # atno 6909 bound_to 6896
  146.1897  140.3908  142.8463 H   0  0  0  0  0  0  0  0  0  0  0  0  # atno 7974 bound_to 7965
  155.1574  140.0405  157.2835 H   0  0  0  0  0  0  0  0  0  0  0  0  # atno 8008 bound_to 7997
  154.6360  140.2535  155.7350 H   0  0  0  0  0  0  0  0  0  0  0  0  # atno 8009 bound_to 7997
  156.2509  140.2865  156.0733 H   0  0  0  0  0  0  0  0  0  0  0  0  # atno 8010 bound_to 7997
  139.6707  144.7125  151.1693 H   0  0  0  0  0  0  0  0  0  0  0  0  # atno 10167 bound_to 10162
  156.4596  130.8207  151.2438 H   0  0  0  0  0  0  0  0  0  0  0  0  # atno 10718 bound_to 10713
  153.2488  135.4267  155.0775 H   0  0  0  0  0  0  0  0  0  0  0  0  # atno 10763 bound_to 10752
  154.8372  135.3420  154.6543 H   0  0  0  0  0  0  0  0  0  0  0  0  # atno 10764 bound_to 10752
  153.6965  135.7031  153.5132 H   0  0  0  0  0  0  0  0  0  0  0  0  # atno 10765 bound_to 10752
  141.1215  133.8508  157.1281 H   0  0  0  0  0  0  0  0  0  0  0  0  # atno 11005 bound_to 11000
  144.8462  140.6933  143.6197 LP  0  0  0  0  0  0  0  0  0  0  0  0  # atno 17320 bound_to 7965
  145.3832  139.1632  143.4269 LP  0  0  0  0  0  0  0  0  0  0  0  0  # atno 17321 bound_to 7965
  140.7617  143.5848  150.8857 LP  0  0  0  0  0  0  0  0  0  0  0  0  # atno 17342 bound_to 10162
  139.9513  143.6268  152.3028 LP  0  0  0  0  0  0  0  0  0  0  0  0  # atno 17343 bound_to 10162
  157.7498  131.0111  150.3333 LP  0  0  0  0  0  0  0  0  0  0  0  0  # atno 17370 bound_to 10713
  156.3730  130.3867  149.7160 LP  0  0  0  0  0  0  0  0  0  0  0  0  # atno 17371 bound_to 10713
  140.0176  134.9960  157.0526 LP  0  0  0  0  0  0  0  0  0  0  0  0  # atno 17394 bound_to 11000
  140.4493  134.1599  155.7180 LP  0  0  0  0  0  0  0  0  0  0  0  0  # atno 17395 bound_to 11000

$$$$
