AV-unprocessed.smi:3047|AV-procd|sdf|11622|dock9
  -GOLD-   2272017 13D 1   1.00000     0.00000
 Structure written by MMmdl.
 38 39  0  0  0  0  0  0  0  0  2 V2000
  151.6035  129.6590  154.8665 C   0  0  0  0  0  0  0  0  0  0  0  0
  149.9143  130.3327  155.1500 S   0  0  0  0  0  0  0  0  0  0  0  0
  149.1416  130.1537  153.9115 O   0  0  0  0  0  0  0  0  0  0  0  0
  149.4004  129.8000  156.4214 O   0  0  0  0  0  0  0  0  0  0  0  0
  150.1897  132.0348  155.3473 N   0  0  0  0  0  0  0  0  0  0  0  0
  150.7342  132.5975  156.5805 C   0  0  0  0  0  0  0  0  0  0  0  0
  151.0128  134.0571  156.2344 C   0  0  0  0  0  0  0  0  0  0  0  0
  149.9428  134.4012  155.2017 C   0  0  0  0  0  0  0  0  0  0  0  0
  149.6840  133.0826  154.4418 C   0  0  2  0  0  0  0  0  0  0  0  0
  148.2138  132.9326  154.0197 C   0  0  0  0  0  0  0  0  0  0  0  0
  147.5145  132.0308  154.4827 O   0  0  0  0  0  0  0  0  0  0  0  0
  147.7634  133.8111  153.1129 N   0  0  0  0  0  0  0  0  0  0  0  0
  146.4255  133.7892  152.5412 C   0  0  0  0  0  0  0  0  0  0  0  0
  146.2005  132.4959  151.7473 C   0  0  0  0  0  0  0  0  0  0  0  0
  145.1415  132.6524  150.7493 N   0  0  0  0  0  0  0  0  0  0  0  0
  145.2274  132.4184  149.4010 C   0  0  0  0  0  0  0  0  0  0  0  0
  143.9938  132.7059  148.8756 C   0  0  0  0  0  0  0  0  0  0  0  0
  143.2083  133.1034  149.9246 N   0  3  0  0  0  0  0  0  0  0  0  0
  143.9087  133.0710  151.0632 C   0  0  0  0  0  0  0  0  0  0  0  0
  151.5317  128.5956  154.6400 H   0  0  0  0  0  0  0  0  0  0  0  0
  152.2158  129.7914  155.7566 H   0  0  0  0  0  0  0  0  0  0  0  0
  152.0663  130.1750  154.0258 H   0  0  0  0  0  0  0  0  0  0  0  0
  149.9879  132.5151  157.3715 H   0  0  0  0  0  0  0  0  0  0  0  0
  151.6352  132.0688  156.8921 H   0  0  0  0  0  0  0  0  0  0  0  0
  150.9858  134.7107  157.1065 H   0  0  0  0  0  0  0  0  0  0  0  0
  152.0011  134.1433  155.7810 H   0  0  0  0  0  0  0  0  0  0  0  0
  149.0530  134.7589  155.7217 H   0  0  0  0  0  0  0  0  0  0  0  0
  150.2701  135.2001  154.5355 H   0  0  0  0  0  0  0  0  0  0  0  0
  150.3133  133.0650  153.5504 H   0  0  0  0  0  0  0  0  0  0  0  0
  148.4026  134.5151  152.7723 H   0  0  0  0  0  0  0  0  0  0  0  0
  145.6892  133.8676  153.3430 H   0  0  0  0  0  0  0  0  0  0  0  0
  146.2941  134.6580  151.8942 H   0  0  0  0  0  0  0  0  0  0  0  0
  147.1113  132.1982  151.2256 H   0  0  0  0  0  0  0  0  0  0  0  0
  145.9259  131.6744  152.4113 H   0  0  0  0  0  0  0  0  0  0  0  0
  146.1360  132.0745  148.9280 H   0  0  0  0  0  0  0  0  0  0  0  0
  143.6260  132.6591  147.8608 H   0  0  0  0  0  0  0  0  0  0  0  0
  143.5491  133.3327  152.0426 H   0  0  0  0  0  0  0  0  0  0  0  0
  142.2377  133.3818  149.8516 H   0  0  0  0  0  0  0  0  0  0  0  0
  1  2  1  0  0  0  0
  1 20  1  0  0  0  0
  1 21  1  0  0  0  0
  1 22  1  0  0  0  0
  2  3  2  0  0  0  0
  2  4  2  0  0  0  0
  2  5  1  0  0  0  0
  5  9  1  0  0  0  0
  5  6  1  0  0  0  0
  6  7  1  0  0  0  0
  6 23  1  0  0  0  0
  6 24  1  0  0  0  0
  7  8  1  0  0  0  0
  7 25  1  0  0  0  0
  7 26  1  0  0  0  0
  8  9  1  0  0  0  0
  8 27  1  0  0  0  0
  8 28  1  0  0  0  0
  9 10  1  0  0  0  0
  9 29  1  0  0  0  0
 10 11  2  0  0  0  0
 10 12  1  0  0  0  0
 12 13  1  0  0  0  0
 12 30  1  0  0  0  0
 13 14  1  0  0  0  0
 13 31  1  0  0  0  0
 13 32  1  0  0  0  0
 14 15  1  0  0  0  0
 14 33  1  0  0  0  0
 14 34  1  0  0  0  0
 15 19  1  0  0  0  0
 15 16  1  0  0  0  0
 16 17  2  0  0  0  0
 16 35  1  0  0  0  0
 17 18  1  0  0  0  0
 17 36  1  0  0  0  0
 18 19  2  0  0  0  0
 18 38  1  0  0  0  0
 19 37  1  0  0  0  0
M  CHG  1  18   1
M  END
> <s_m_source_file>
AV-unprocessed.smi

> <i_m_source_file_index>
3047

> <i_lp_mmshare_version>
43012

> <i_f3d_flags>
0

> <s_epik_input>
W0NIM11TKD1PKSg9TylOMVtDSDJdW0NIMl1bQ0gyXVtDQEhdMUMoPU8pW05IXVtDSDJdW0NIMl1uMltjSF1bY0hdbltjSF0y

> <s_epik_cmdline>
J2VwaWtfcHl0aG9uJywgJy1waCcsICc3LjAnLCAnLXRuJywgJzgnLCAnLW1hJywgJzIwMCcsICctbWV0YWxfYmluZGluZycsICctaW1hZScsICc8aW5maWxlLm1hZT4nLCAnLW9tYWUnLCAnPG91dGZpbGUubWFlPic=

> <r_lp_tautomer_probability>
1

> <r_epik_Ionization_Penalty>
0.281738

> <r_epik_Ionization_Penalty_Charging>
0

> <r_epik_Ionization_Penalty_Neutral>
0.281738

> <r_epik_State_Penalty>
0.274352

> <r_epik_Charging_Adjusted_Penalty>
0.274352

> <i_epik_Tot_Q>
1

> <i_epik_Tot_abs_Q>
1

> <r_epik_Metal_State_Penalty>
0.555562

> <b_epik_Metal_Only>
0

> <s_lp_Force_Field>
OPLS_2005

> <r_lp_Energy>
11.563

> <b_lp_Chiralities_Consistent>
1

> <s_lp_Variant>
AV-unprocessed.smi:3047-2

> <Gold.Version>
5.8.1

> <Gold.Id.Protein>
6NUR|6NUR_protein|mol2

> <Gold.PLP.Fitness>
45.0653

> <Gold.PLP.PLP>
-36.4972

> <Gold.PLP.part.hbond>
-2.0000

> <Gold.PLP.part.metal>
0.0000

> <Gold.PLP.part.buried>
-5.4762

> <Gold.PLP.part.nonpolar>
-28.5929

> <Gold.PLP.part.repulsive>
0.2008

> <Gold.PLP.ligand.clash>
0.0000

> <Gold.PLP.ligand.torsion>
1.2401

> <Gold.PLP.Chemscore.Hbond>
3.0000

> <Gold.PLP.Chemscore.CHOScore>
0.0000

> <Gold.PLP.Chemscore.Metal>
0.0000

> <Gold.Chemscore.Hbonds>
donor molecule, donor type, donor heavy atom, donor atom, acceptor molecule, acceptor atom, score
      L1  H    12    30       P1  7948  1.00
      L1  H    18    38       P1 10186  2.00

> <Gold.PLP.Chemscore.Internal.Correction>
2.0482

> <Gold.Rescore>
     Score         DG    S(hbond)    S(metal)    S(lipo)     H(rot)  DE(clash)    DE(int)     intcor
      8.14     -13.16       1.88        0.00      57.70       2.10       0.04       4.98       ----

> <Gold.Chemscore.Fitness>
8.1351

> <Gold.Chemscore.DG>
-13.1553

> <Gold.Chemscore.ZeroCoef>
-5.4800

> <Gold.Chemscore.Hbond>
1.8828

> <Gold.Chemscore.Metal>
0.0000

> <Gold.Chemscore.Lipo>
57.7016

> <Gold.Chemscore.Internal_Hbond>
0.0000

> <Gold.Chemscore.DEClash>
0.0402

> <Gold.Chemscore.DEInternal>
4.9800

> <Gold.Chemscore.Rot>
2.0954

> <Gold.Chemscore.Internal.Correction>
   9.000000E+99

> <Gold.Chemscore.Hbonds>
donor molecule, donor type, donor heavy atom, donor atom, acceptor molecule, acceptor atom, score
      L1  H    12    30       P1  7948  0.25
      L1  H    18    38       P1 10186  0.98

> <Gold.Chemscore.Hbond.Weighted>
-6.2885

> <Gold.Chemscore.Metal.Weighted>
-0.0000

> <Gold.Chemscore.Lipo.Weighted>
-6.7511

> <Gold.Chemscore.Internal_Hbond.Weighted>
0.0000

> <Gold.Chemscore.DEClash.Weighted>
0.0402

> <Gold.Chemscore.DEInternal.Weighted>
4.9800

> <Gold.Chemscore.Rot.Weighted>
5.3643

> <Gold.Chemscore.Internal.Correction.Weighted>
   9.000000E+99

> <Gold.Protein.RotatedTorsions>
[ 6907 6896 6895 6894 ] final -158.69 input  -60.11 | X-H torsion
[ 7974 7965 7964 7962 ] final  -60.78 input  175.53 | X-H torsion
[ 8008 7997 7996 7995 ] final  147.04 input   59.86 | X-H torsion
[ 10167 10162 10161 10158 ] final  178.52 input  -65.29 | X-H torsion
[ 10718 10713 10712 10709 ] final -156.80 input   66.30 | X-H torsion
[ 10763 10752 10751 10750 ] final  -61.47 input  -60.55 | X-H torsion
[ 11005 11000 10999 10996 ] final -104.56 input  -57.11 | X-H torsion

> <Gold.Protein.ActiveResidues>
 VAL166  LYS551  ARG553  GLY616  TRP617  ASP618  TYR619  PRO620  LYS621  CYS622 
 ASP623  PHE694  ASN695  SER759  ASP760  ASP761  ALA762  ILE779  LEU786  VAL792 
 PHE793  MET794  SER795  GLU796  ALA797  LYS798  CYS799  TRP800  GLU811  SER814 

> <Gold.Protein.RotatedAtoms>
  151.3220  133.4036  159.2655 H   0  0  0  0  0  0  0  0  0  0  0  0  # atno 6907 bound_to 6896
  151.0027  134.9335  159.7973 H   0  0  0  0  0  0  0  0  0  0  0  0  # atno 6908 bound_to 6896
  152.5279  134.3185  159.9192 H   0  0  0  0  0  0  0  0  0  0  0  0  # atno 6909 bound_to 6896
  145.8114  140.8596  143.0180 H   0  0  0  0  0  0  0  0  0  0  0  0  # atno 7974 bound_to 7965
  156.2837  140.2166  156.5474 H   0  0  0  0  0  0  0  0  0  0  0  0  # atno 8008 bound_to 7997
  154.7319  140.0495  157.0756 H   0  0  0  0  0  0  0  0  0  0  0  0  # atno 8009 bound_to 7997
  155.0342  140.3138  155.4750 H   0  0  0  0  0  0  0  0  0  0  0  0  # atno 8010 bound_to 7997
  139.5297  144.2670  152.0660 H   0  0  0  0  0  0  0  0  0  0  0  0  # atno 10167 bound_to 10162
  156.5315  130.8523  151.2718 H   0  0  0  0  0  0  0  0  0  0  0  0  # atno 10718 bound_to 10713
  154.2851  135.6264  153.5362 H   0  0  0  0  0  0  0  0  0  0  0  0  # atno 10763 bound_to 10752
  152.9860  135.5642  154.5452 H   0  0  0  0  0  0  0  0  0  0  0  0  # atno 10764 bound_to 10752
  154.5051  135.2874  155.1365 H   0  0  0  0  0  0  0  0  0  0  0  0  # atno 10765 bound_to 10752
  141.1094  133.8734  157.1627 H   0  0  0  0  0  0  0  0  0  0  0  0  # atno 11005 bound_to 11000
  144.6757  140.0401  143.7481 LP  0  0  0  0  0  0  0  0  0  0  0  0  # atno 17320 bound_to 7965
  145.9773  139.2914  143.1063 LP  0  0  0  0  0  0  0  0  0  0  0  0  # atno 17321 bound_to 7965
  140.2131  144.4542  150.6376 LP  0  0  0  0  0  0  0  0  0  0  0  0  # atno 17342 bound_to 10162
  140.6467  143.2215  151.6169 LP  0  0  0  0  0  0  0  0  0  0  0  0  # atno 17343 bound_to 10162
  157.7421  130.9883  150.2491 LP  0  0  0  0  0  0  0  0  0  0  0  0  # atno 17370 bound_to 10713
  156.3055  130.3764  149.7710 LP  0  0  0  0  0  0  0  0  0  0  0  0  # atno 17371 bound_to 10713
  139.9981  135.0039  157.0127 LP  0  0  0  0  0  0  0  0  0  0  0  0  # atno 17394 bound_to 11000
  140.4815  134.1285  155.7217 LP  0  0  0  0  0  0  0  0  0  0  0  0  # atno 17395 bound_to 11000

$$$$
