AV-unprocessed.smi:1535|AV-procd|sdf|6179|dock10
  -GOLD-   22720 6333D 1   1.00000     0.00000
 Structure written by MMmdl.
 47 48  0  0  0  0  0  0  0  0  2 V2000
  151.9145  144.4790  159.2024 C   0  0  0  0  0  0  0  0  0  0  0  0
  152.5526  143.2471  159.8200 C   0  0  0  0  0  0  0  0  0  0  0  0
  152.9288  142.1744  158.9803 C   0  0  0  0  0  0  0  0  0  0  0  0
  153.5269  141.0121  159.5143 C   0  0  0  0  0  0  0  0  0  0  0  0
  153.9697  139.8595  158.8886 N   0  0  0  0  0  0  0  0  0  0  0  0
  154.4232  139.1518  159.9191 C   0  0  0  0  0  0  0  0  0  0  0  0
  154.3236  139.7098  161.1413 N   0  0  0  0  0  0  0  0  0  0  0  0
  154.7373  139.1343  162.4084 C   0  0  0  0  0  0  0  0  0  0  0  0
  156.0017  139.8112  162.9708 C   0  0  1  0  0  0  0  0  0  0  0  0
  156.6502  140.5243  161.9346 O   0  0  0  0  0  0  0  0  0  0  0  0
  155.6726  140.7896  164.1155 C   0  0  0  0  0  0  0  0  0  0  0  0
  156.8149  140.9670  165.0513 N   0  3  2  0  0  0  0  0  0  0  0  0
  157.2241  139.6954  165.6969 C   0  0  0  0  0  0  0  0  0  0  0  0
  156.5819  142.0581  166.0347 C   0  0  0  0  0  0  0  0  0  0  0  0
  155.3228  141.8350  166.8955 C   0  0  2  0  0  0  0  0  0  0  0  0
  154.8303  143.1475  167.5183 C   0  0  0  0  0  0  0  0  0  0  0  0
  155.5599  140.8220  167.9370 C   0  0  0  0  0  0  0  0  0  0  0  0
  155.7428  140.0239  168.7535 N   0  0  0  0  0  0  0  0  0  0  0  0
  153.7367  140.9508  160.9230 C   0  0  0  0  0  0  0  0  0  0  0  0
  153.3665  142.0108  161.7690 C   0  0  0  0  0  0  0  0  0  0  0  0
  152.7737  143.1665  161.2185 C   0  0  0  0  0  0  0  0  0  0  0  0
  152.3822  144.3087  162.1391 C   0  0  0  0  0  0  0  0  0  0  0  0
  151.7792  144.3604  158.1270 H   0  0  0  0  0  0  0  0  0  0  0  0
  152.5414  145.3556  159.3667 H   0  0  0  0  0  0  0  0  0  0  0  0
  150.9350  144.6655  159.6430 H   0  0  0  0  0  0  0  0  0  0  0  0
  152.7612  142.2359  157.9152 H   0  0  0  0  0  0  0  0  0  0  0  0
  154.8468  138.1681  159.7781 H   0  0  0  0  0  0  0  0  0  0  0  0
  153.9106  139.2109  163.1164 H   0  0  0  0  0  0  0  0  0  0  0  0
  154.9170  138.0697  162.2532 H   0  0  0  0  0  0  0  0  0  0  0  0
  156.6811  139.0345  163.3207 H   0  0  0  0  0  0  0  0  0  0  0  0
  156.1615  141.3134  161.7553 H   0  0  0  0  0  0  0  0  0  0  0  0
  155.3884  141.7449  163.6719 H   0  0  0  0  0  0  0  0  0  0  0  0
  154.8001  140.4481  164.6751 H   0  0  0  0  0  0  0  0  0  0  0  0
  156.4505  139.3359  166.3764 H   0  0  0  0  0  0  0  0  0  0  0  0
  158.1451  139.8170  166.2650 H   0  0  0  0  0  0  0  0  0  0  0  0
  157.4131  138.9143  164.9618 H   0  0  0  0  0  0  0  0  0  0  0  0
  157.4352  142.1255  166.7114 H   0  0  0  0  0  0  0  0  0  0  0  0
  156.5266  143.0142  165.5119 H   0  0  0  0  0  0  0  0  0  0  0  0
  154.5160  141.4493  166.2736 H   0  0  0  0  0  0  0  0  0  0  0  0
  153.9241  142.9860  168.1027 H   0  0  0  0  0  0  0  0  0  0  0  0
  154.6003  143.8866  166.7506 H   0  0  0  0  0  0  0  0  0  0  0  0
  155.5810  143.5769  168.1828 H   0  0  0  0  0  0  0  0  0  0  0  0
  153.5392  141.9356  162.8322 H   0  0  0  0  0  0  0  0  0  0  0  0
  152.6548  144.0978  163.1736 H   0  0  0  0  0  0  0  0  0  0  0  0
  151.3056  144.4755  162.1035 H   0  0  0  0  0  0  0  0  0  0  0  0
  152.8859  145.2289  161.8421 H   0  0  0  0  0  0  0  0  0  0  0  0
  157.5879  141.2716  164.4756 H   0  0  0  0  0  0  0  0  0  0  0  0
  1  2  1  0  0  0  0
  1 23  1  0  0  0  0
  1 24  1  0  0  0  0
  1 25  1  0  0  0  0
  2 21  1  0  0  0  0
  2  3  2  0  0  0  0
  3  4  1  0  0  0  0
  3 26  1  0  0  0  0
  4 19  2  0  0  0  0
  4  5  1  0  0  0  0
  5  6  2  0  0  0  0
  6  7  1  0  0  0  0
  6 27  1  0  0  0  0
  7  8  1  0  0  0  0
  7 19  1  0  0  0  0
  8  9  1  0  0  0  0
  8 28  1  0  0  0  0
  8 29  1  0  0  0  0
  9 10  1  0  0  0  0
  9 11  1  0  0  0  0
  9 30  1  0  0  0  0
 10 31  1  0  0  0  0
 11 12  1  0  0  0  0
 11 32  1  0  0  0  0
 11 33  1  0  0  0  0
 12 13  1  0  0  0  0
 12 14  1  0  0  0  0
 12 47  1  0  0  0  0
 13 34  1  0  0  0  0
 13 35  1  0  0  0  0
 13 36  1  0  0  0  0
 14 15  1  0  0  0  0
 14 37  1  0  0  0  0
 14 38  1  0  0  0  0
 15 16  1  0  0  0  0
 15 17  1  0  0  0  0
 15 39  1  0  0  0  0
 16 40  1  0  0  0  0
 16 41  1  0  0  0  0
 16 42  1  0  0  0  0
 17 18  3  0  0  0  0
 19 20  1  0  0  0  0
 20 21  2  0  0  0  0
 20 43  1  0  0  0  0
 21 22  1  0  0  0  0
 22 44  1  0  0  0  0
 22 45  1  0  0  0  0
 22 46  1  0  0  0  0
M  CHG  1  12   1
M  END
> <s_m_source_file>
AV-unprocessed.smi

> <i_m_source_file_index>
1535

> <i_lp_mmshare_version>
43012

> <i_f3d_flags>
0

> <s_epik_input>
W0NIM11jKFtjSF0xKWMoW0NIM10pW2NIXWMoYzEyKW4oW2NIXW4yKVtDSDJdW0NASF0oW09IXSlbQ0gyXU4oW0NIM10pW0NIMl1bQ0BIXShbQ0gzXSlDI04=

> <s_epik_cmdline>
J2VwaWtfcHl0aG9uJywgJy1waCcsICc3LjAnLCAnLXRuJywgJzgnLCAnLW1hJywgJzIwMCcsICctbWV0YWxfYmluZGluZycsICctaW1hZScsICc8aW5maWxlLm1hZT4nLCAnLW9tYWUnLCAnPG91dGZpbGUubWFlPic=

> <r_epik_Ionization_Penalty>
2.21058

> <r_epik_Ionization_Penalty_Charging>
2.12381

> <r_epik_Ionization_Penalty_Neutral>
0.0867699

> <r_epik_State_Penalty>
2.36208

> <r_epik_Charging_Adjusted_Penalty>
4.48589

> <i_epik_Tot_Q>
1

> <i_epik_Tot_abs_Q>
1

> <r_epik_Metal_State_Penalty>
2.2818

> <b_epik_Metal_Only>
0

> <s_lp_Force_Field>
OPLS_2005

> <r_lp_Energy>
14.9944

> <b_lp_Chiralities_Consistent>
1

> <s_lp_Variant>
AV-unprocessed.smi:1535-10

> <Gold.Version>
5.8.1

> <Gold.Id.Protein>
6NUR|6NUR_protein|mol2

> <Gold.PLP.Fitness>
47.1699

> <Gold.PLP.PLP>
-46.5540

> <Gold.PLP.part.hbond>
-2.9578

> <Gold.PLP.part.metal>
0.0000

> <Gold.PLP.part.buried>
-3.5198

> <Gold.PLP.part.nonpolar>
-38.8316

> <Gold.PLP.part.repulsive>
0.1090

> <Gold.PLP.ligand.clash>
0.0000

> <Gold.PLP.ligand.torsion>
1.2391

> <Gold.PLP.Chemscore.Hbond>
1.0000

> <Gold.PLP.Chemscore.CHOScore>
0.0000

> <Gold.PLP.Chemscore.Metal>
0.0000

> <Gold.Chemscore.Hbonds>
donor molecule, donor type, donor heavy atom, donor atom, acceptor molecule, acceptor atom, score
      P1  H  7997  8009       L1     5  1.00

> <Gold.PLP.Chemscore.Internal.Correction>
0.0941

> <Gold.Rescore>
     Score         DG    S(hbond)    S(metal)    S(lipo)     H(rot)  DE(clash)    DE(int)     intcor
     14.20     -17.20       0.94        0.00     130.26       2.60       1.85       1.15       ----

> <Gold.Chemscore.Fitness>
14.2008

> <Gold.Chemscore.DG>
-17.2039

> <Gold.Chemscore.ZeroCoef>
-5.4800

> <Gold.Chemscore.Hbond>
0.9423

> <Gold.Chemscore.Metal>
0.0000

> <Gold.Chemscore.Lipo>
130.2612

> <Gold.Chemscore.Internal_Hbond>
0.0000

> <Gold.Chemscore.DEClash>
1.8525

> <Gold.Chemscore.DEInternal>
1.1506

> <Gold.Chemscore.Rot>
2.6031

> <Gold.Chemscore.Internal.Correction>
   9.000000E+99

> <Gold.Chemscore.Hbonds>
donor molecule, donor type, donor heavy atom, donor atom, acceptor molecule, acceptor atom, score
      P1  H  7997  8009       L1     5  0.90

> <Gold.Chemscore.Hbond.Weighted>
-3.1473

> <Gold.Chemscore.Metal.Weighted>
-0.0000

> <Gold.Chemscore.Lipo.Weighted>
-15.2406

> <Gold.Chemscore.Internal_Hbond.Weighted>
0.0000

> <Gold.Chemscore.DEClash.Weighted>
1.8525

> <Gold.Chemscore.DEInternal.Weighted>
1.1506

> <Gold.Chemscore.Rot.Weighted>
6.6640

> <Gold.Chemscore.Internal.Correction.Weighted>
   9.000000E+99

> <Gold.Protein.RotatedTorsions>
[ 6907 6896 6895 6894 ] final -149.31 input  -60.11 | X-H torsion
[ 7974 7965 7964 7962 ] final   71.11 input  175.53 | X-H torsion
[ 8008 7997 7996 7995 ] final  124.17 input   59.86 | X-H torsion
[ 10167 10162 10161 10158 ] final  150.04 input  -65.29 | X-H torsion
[ 10718 10713 10712 10709 ] final  -90.86 input   66.30 | X-H torsion
[ 10763 10752 10751 10750 ] final   51.33 input  -60.55 | X-H torsion
[ 11005 11000 10999 10996 ] final   56.29 input  -57.11 | X-H torsion

> <Gold.Protein.ActiveResidues>
 VAL166  LYS551  ARG553  GLY616  TRP617  ASP618  TYR619  PRO620  LYS621  CYS622 
 ASP623  PHE694  ASN695  SER759  ASP760  ASP761  ALA762  ILE779  LEU786  VAL792 
 PHE793  MET794  SER795  GLU796  ALA797  LYS798  CYS799  TRP800  GLU811  SER814 

> <Gold.Protein.RotatedAtoms>
  151.1823  133.4718  159.2593 H   0  0  0  0  0  0  0  0  0  0  0  0  # atno 6907 bound_to 6896
  151.1247  135.0098  159.8565 H   0  0  0  0  0  0  0  0  0  0  0  0  # atno 6908 bound_to 6896
  152.5457  134.1731  159.8658 H   0  0  0  0  0  0  0  0  0  0  0  0  # atno 6909 bound_to 6896
  145.7698  139.2838  143.1327 H   0  0  0  0  0  0  0  0  0  0  0  0  # atno 7974 bound_to 7965
  156.2792  140.2746  156.1746 H   0  0  0  0  0  0  0  0  0  0  0  0  # atno 8008 bound_to 7997
  155.0620  140.0386  157.2597 H   0  0  0  0  0  0  0  0  0  0  0  0  # atno 8009 bound_to 7997
  154.7110  140.2668  155.6635 H   0  0  0  0  0  0  0  0  0  0  0  0  # atno 8010 bound_to 7997
  139.4854  144.5554  151.7327 H   0  0  0  0  0  0  0  0  0  0  0  0  # atno 10167 bound_to 10162
  155.9990  130.4926  150.5387 H   0  0  0  0  0  0  0  0  0  0  0  0  # atno 10718 bound_to 10713
  152.9785  135.5849  154.4399 H   0  0  0  0  0  0  0  0  0  0  0  0  # atno 10763 bound_to 10752
  154.4001  135.2768  155.2104 H   0  0  0  0  0  0  0  0  0  0  0  0  # atno 10764 bound_to 10752
  154.3938  135.6119  153.5912 H   0  0  0  0  0  0  0  0  0  0  0  0  # atno 10765 bound_to 10752
  140.0541  134.5695  155.9229 H   0  0  0  0  0  0  0  0  0  0  0  0  # atno 11005 bound_to 11000
  146.0181  140.8374  142.9937 LP  0  0  0  0  0  0  0  0  0  0  0  0  # atno 17320 bound_to 7965
  144.6814  140.2588  143.7322 LP  0  0  0  0  0  0  0  0  0  0  0  0  # atno 17321 bound_to 7965
  140.5115  144.1018  150.5996 LP  0  0  0  0  0  0  0  0  0  0  0  0  # atno 17342 bound_to 10162
  140.3945  143.2735  152.0021 LP  0  0  0  0  0  0  0  0  0  0  0  0  # atno 17343 bound_to 10162
  157.3326  131.0702  151.1849 LP  0  0  0  0  0  0  0  0  0  0  0  0  # atno 17370 bound_to 10713
  157.2725  130.6711  149.6026 LP  0  0  0  0  0  0  0  0  0  0  0  0  # atno 17371 bound_to 10713
  141.1944  133.6582  156.5592 LP  0  0  0  0  0  0  0  0  0  0  0  0  # atno 17394 bound_to 11000
  140.3872  134.7472  157.4698 LP  0  0  0  0  0  0  0  0  0  0  0  0  # atno 17395 bound_to 11000

$$$$
