AV-unprocessed.smi:113|AV-procd|sdf|1099|dock5
  -GOLD-   2262018213D 1   1.00000     0.00000
 Structure written by MMmdl.
 53 56  0  0  0  0  0  0  0  0  2 V2000
  154.0865  142.7914  164.4431 C   0  0  0  0  0  0  0  0  0  0  0  0
  153.7401  142.6956  162.9725 C   0  0  0  0  0  0  0  0  0  0  0  0
  154.3534  141.7586  162.1185 C   0  0  0  0  0  0  0  0  0  0  0  0
  153.9937  141.7082  160.7488 C   0  0  0  0  0  0  0  0  0  0  0  0
  154.6435  140.6991  159.7960 C   0  0  0  0  0  0  0  0  0  0  0  0
  155.3651  139.5891  160.4024 N   0  0  0  0  0  0  0  0  0  0  0  0
  156.7347  139.7751  160.7058 C   0  0  0  0  0  0  0  0  0  0  0  0
  157.3084  140.8409  160.4713 O   0  0  0  0  0  0  0  0  0  0  0  0
  157.4058  138.6083  161.2818 C   0  0  0  0  0  0  0  0  0  0  0  0
  158.8889  138.7211  161.5998 C   0  0  0  0  0  0  0  0  0  0  0  0
  156.7074  137.4675  161.4990 C   0  0  0  0  0  0  0  0  0  0  0  0
  155.3555  137.3181  161.2197 N   0  0  0  0  0  0  0  0  0  0  0  0
  154.6080  136.0016  161.3953 C   0  0  2  0  0  0  0  0  0  0  0  0
  155.4078  134.8879  162.0804 C   0  0  0  0  0  0  0  0  0  0  0  0
  155.9825  134.0925  160.9063 C   0  0  1  0  0  0  0  0  0  0  0  0
  155.6615  132.7212  161.0479 O   0  0  0  0  0  0  0  0  0  0  0  0
  155.3722  134.7516  159.6469 C   0  0  1  0  0  0  0  0  0  0  0  0
  154.9159  133.8203  158.5094 C   0  0  0  0  0  0  0  0  0  0  0  0
  154.2091  134.5508  157.5290 O   0  0  0  0  0  0  0  0  0  0  0  0
  154.2727  135.5089  160.1379 O   0  0  0  0  0  0  0  0  0  0  0  0
  154.6604  138.3819  160.6059 C   0  0  0  0  0  0  0  0  0  0  0  0
  153.4853  138.2529  160.2530 O   0  0  0  0  0  0  0  0  0  0  0  0
  153.0091  142.6191  160.2767 C   0  0  0  0  0  0  0  0  0  0  0  0
  152.5891  142.6420  158.9249 C   0  0  0  0  0  0  0  0  0  0  0  0
  151.6128  143.5620  158.4946 C   0  0  0  0  0  0  0  0  0  0  0  0
  151.0413  144.4692  159.4062 C   0  0  0  0  0  0  0  0  0  0  0  0
  151.4457  144.4590  160.7539 C   0  0  0  0  0  0  0  0  0  0  0  0
  152.4236  143.5409  161.1862 C   0  0  0  0  0  0  0  0  0  0  0  0
  152.8095  143.5381  162.4796 N   0  3  0  0  0  0  0  0  0  0  0  0
  155.0972  142.4263  164.6271 H   0  0  0  0  0  0  0  0  0  0  0  0
  153.3923  142.1928  165.0336 H   0  0  0  0  0  0  0  0  0  0  0  0
  154.0319  143.8241  164.7891 H   0  0  0  0  0  0  0  0  0  0  0  0
  155.0949  141.0888  162.5278 H   0  0  0  0  0  0  0  0  0  0  0  0
  153.8914  140.2767  159.1277 H   0  0  0  0  0  0  0  0  0  0  0  0
  155.3409  141.2069  159.1274 H   0  0  0  0  0  0  0  0  0  0  0  0
  159.2851  137.8002  162.0284 H   0  0  0  0  0  0  0  0  0  0  0  0
  159.0655  139.5238  162.3167 H   0  0  0  0  0  0  0  0  0  0  0  0
  159.4576  138.9381  160.6950 H   0  0  0  0  0  0  0  0  0  0  0  0
  157.2605  136.6343  161.9004 H   0  0  0  0  0  0  0  0  0  0  0  0
  153.7170  136.2523  161.9732 H   0  0  0  0  0  0  0  0  0  0  0  0
  156.1441  135.2706  162.7868 H   0  0  0  0  0  0  0  0  0  0  0  0
  154.7001  134.2815  162.6480 H   0  0  0  0  0  0  0  0  0  0  0  0
  157.0691  134.1752  160.8733 H   0  0  0  0  0  0  0  0  0  0  0  0
  156.4652  132.2259  161.0879 H   0  0  0  0  0  0  0  0  0  0  0  0
  156.0904  135.4665  159.2414 H   0  0  0  0  0  0  0  0  0  0  0  0
  155.7572  133.2975  158.0540 H   0  0  0  0  0  0  0  0  0  0  0  0
  154.2474  133.0554  158.9053 H   0  0  0  0  0  0  0  0  0  0  0  0
  153.3245  134.6841  157.8336 H   0  0  0  0  0  0  0  0  0  0  0  0
  153.0036  141.9614  158.1967 H   0  0  0  0  0  0  0  0  0  0  0  0
  151.3016  143.5716  157.4601 H   0  0  0  0  0  0  0  0  0  0  0  0
  150.2929  145.1726  159.0710 H   0  0  0  0  0  0  0  0  0  0  0  0
  151.0035  145.1580  161.4491 H   0  0  0  0  0  0  0  0  0  0  0  0
  152.3767  144.2075  163.1157 H   0  0  0  0  0  0  0  0  0  0  0  0
  1  2  1  0  0  0  0
  1 30  1  0  0  0  0
  1 31  1  0  0  0  0
  1 32  1  0  0  0  0
  2 29  1  0  0  0  0
  2  3  2  0  0  0  0
  3  4  1  0  0  0  0
  3 33  1  0  0  0  0
  4  5  1  0  0  0  0
  4 23  2  0  0  0  0
  5  6  1  0  0  0  0
  5 34  1  0  0  0  0
  5 35  1  0  0  0  0
  6 21  1  0  0  0  0
  6  7  1  0  0  0  0
  7  8  2  0  0  0  0
  7  9  1  0  0  0  0
  9 10  1  0  0  0  0
  9 11  2  0  0  0  0
 10 36  1  0  0  0  0
 10 37  1  0  0  0  0
 10 38  1  0  0  0  0
 11 12  1  0  0  0  0
 11 39  1  0  0  0  0
 12 13  1  0  0  0  0
 12 21  1  0  0  0  0
 13 20  1  0  0  0  0
 13 14  1  0  0  0  0
 13 40  1  0  0  0  0
 14 15  1  0  0  0  0
 14 41  1  0  0  0  0
 14 42  1  0  0  0  0
 15 16  1  0  0  0  0
 15 17  1  0  0  0  0
 15 43  1  0  0  0  0
 16 44  1  0  0  0  0
 17 18  1  0  0  0  0
 17 20  1  0  0  0  0
 17 45  1  0  0  0  0
 18 19  1  0  0  0  0
 18 46  1  0  0  0  0
 18 47  1  0  0  0  0
 19 48  1  0  0  0  0
 21 22  2  0  0  0  0
 23 28  1  0  0  0  0
 23 24  1  0  0  0  0
 24 25  2  0  0  0  0
 24 49  1  0  0  0  0
 25 26  1  0  0  0  0
 25 50  1  0  0  0  0
 26 27  2  0  0  0  0
 26 51  1  0  0  0  0
 27 28  1  0  0  0  0
 27 52  1  0  0  0  0
 28 29  2  0  0  0  0
 29 53  1  0  0  0  0
M  CHG  1  29   1
M  END
> <s_m_source_file>
AV-unprocessed.smi

> <i_m_source_file_index>
113

> <i_lp_mmshare_version>
43012

> <i_f3d_flags>
0

> <s_epik_input>
W2NIXTFbY0hdW2NIXVtjSF1jKGMxMiluYyhbQ0gzXSlbY0hdYzJbQ0gyXW4zYyg9TyljKFtDSDNdKVtjSF1uKGMzPU8pW0NAQEhdNFtDSDJdW0NAQEhdKFtPSF0pW0NASF0oTzQpW0NIMl1bT0hd

> <s_epik_cmdline>
J2VwaWtfcHl0aG9uJywgJy1waCcsICc3LjAnLCAnLXRuJywgJzgnLCAnLW1hJywgJzIwMCcsICctbWV0YWxfYmluZGluZycsICctaW1hZScsICc8aW5maWxlLm1hZT4nLCAnLW9tYWUnLCAnPG91dGZpbGUubWFlPic=

> <r_lp_tautomer_probability>
1

> <r_epik_Ionization_Penalty>
0.705471

> <r_epik_Ionization_Penalty_Charging>
0.70547

> <r_epik_Ionization_Penalty_Neutral>
1.19947e-07

> <r_epik_State_Penalty>
0.728574

> <r_epik_Charging_Adjusted_Penalty>
1.43404

> <i_epik_Tot_Q>
1

> <i_epik_Tot_abs_Q>
1

> <r_epik_Metal_State_Penalty>
4.61665

> <b_epik_Metal_Only>
0

> <s_epik_Chemistry_Notes>
This compound contains an acetal/aminal-like group ( X-CH(R)-Y where X, Y are N, S, or O) that may be acid/base labile, releasing an aldehyde.

> <s_lp_Force_Field>
OPLS_2005

> <r_lp_Energy>
45.3358

> <b_lp_Chiralities_Consistent>
1

> <s_lp_Variant>
AV-unprocessed.smi:113-9

> <Gold.Version>
5.8.1

> <Gold.Id.Protein>
6NUR|6NUR_protein|mol2

> <Gold.PLP.Fitness>
52.3929

> <Gold.PLP.PLP>
-47.6793

> <Gold.PLP.part.hbond>
-3.0570

> <Gold.PLP.part.metal>
0.0000

> <Gold.PLP.part.buried>
-0.8688

> <Gold.PLP.part.nonpolar>
-42.2103

> <Gold.PLP.part.repulsive>
0.0911

> <Gold.PLP.ligand.clash>
0.0000

> <Gold.PLP.ligand.torsion>
0.6743

> <Gold.PLP.Chemscore.Hbond>
2.0000

> <Gold.PLP.Chemscore.CHOScore>
0.0000

> <Gold.PLP.Chemscore.Metal>
0.0000

> <Gold.Chemscore.Hbonds>
donor molecule, donor type, donor heavy atom, donor atom, acceptor molecule, acceptor atom, score
      P1  H  6896  6907       L1    20  1.00
      P1  H 10752 10765       L1    19  0.42

> <Gold.PLP.Chemscore.Internal.Correction>
0.0622

> <Gold.Rescore>
     Score         DG    S(hbond)    S(metal)    S(lipo)     H(rot)  DE(clash)    DE(int)     intcor
     15.80     -18.96       1.63        0.00     134.45       3.01       1.24       1.92       ----

> <Gold.Chemscore.Fitness>
15.8000

> <Gold.Chemscore.DG>
-18.9594

> <Gold.Chemscore.ZeroCoef>
-5.4800

> <Gold.Chemscore.Hbond>
1.6346

> <Gold.Chemscore.Metal>
0.0000

> <Gold.Chemscore.Lipo>
134.4499

> <Gold.Chemscore.Internal_Hbond>
0.0000

> <Gold.Chemscore.DEClash>
1.2443

> <Gold.Chemscore.DEInternal>
1.9151

> <Gold.Chemscore.Rot>
3.0120

> <Gold.Chemscore.Internal.Correction>
   9.000000E+99

> <Gold.Chemscore.Hbonds>
donor molecule, donor type, donor heavy atom, donor atom, acceptor molecule, acceptor atom, score
      P1  H  6896  6907       L1    20  0.80
      P1  H 10752 10765       L1    19  0.09

> <Gold.Chemscore.Hbond.Weighted>
-5.4596

> <Gold.Chemscore.Metal.Weighted>
-0.0000

> <Gold.Chemscore.Lipo.Weighted>
-15.7306

> <Gold.Chemscore.Internal_Hbond.Weighted>
0.0000

> <Gold.Chemscore.DEClash.Weighted>
1.2443

> <Gold.Chemscore.DEInternal.Weighted>
1.9151

> <Gold.Chemscore.Rot.Weighted>
7.7108

> <Gold.Chemscore.Internal.Correction.Weighted>
   9.000000E+99

> <Gold.Protein.RotatedTorsions>
[ 6907 6896 6895 6894 ] final   53.06 input  -60.11 | X-H torsion
[ 7974 7965 7964 7962 ] final -149.42 input  175.53 | X-H torsion
[ 8008 7997 7996 7995 ] final  169.58 input   59.86 | X-H torsion
[ 10167 10162 10161 10158 ] final   82.43 input  -65.29 | X-H torsion
[ 10718 10713 10712 10709 ] final   63.39 input   66.30 | X-H torsion
[ 10763 10752 10751 10750 ] final  -96.69 input  -60.55 | X-H torsion
[ 11005 11000 10999 10996 ] final   98.11 input  -57.11 | X-H torsion

> <Gold.Protein.ActiveResidues>
 VAL166  LYS551  ARG553  GLY616  TRP617  ASP618  TYR619  PRO620  LYS621  CYS622 
 ASP623  PHE694  ASN695  SER759  ASP760  ASP761  ALA762  ILE779  LEU786  VAL792 
 PHE793  MET794  SER795  GLU796  ALA797  LYS798  CYS799  TRP800  GLU811  SER814 

> <Gold.Protein.RotatedAtoms>
  152.3298  134.7274  160.0292 H   0  0  0  0  0  0  0  0  0  0  0  0  # atno 6907 bound_to 6896
  151.7695  133.3334  159.3448 H   0  0  0  0  0  0  0  0  0  0  0  0  # atno 6908 bound_to 6896
  150.7416  134.5963  159.6058 H   0  0  0  0  0  0  0  0  0  0  0  0  # atno 6909 bound_to 6896
  144.7969  140.5067  143.5734 H   0  0  0  0  0  0  0  0  0  0  0  0  # atno 7974 bound_to 7965
  156.1444  140.1560  156.8869 H   0  0  0  0  0  0  0  0  0  0  0  0  # atno 8008 bound_to 7997
  154.5016  140.0824  156.7846 H   0  0  0  0  0  0  0  0  0  0  0  0  # atno 8009 bound_to 7997
  155.4016  140.3414  155.4259 H   0  0  0  0  0  0  0  0  0  0  0  0  # atno 8010 bound_to 7997
  139.9289  144.6165  150.8365 H   0  0  0  0  0  0  0  0  0  0  0  0  # atno 10167 bound_to 10162
  157.5968  130.9102  149.9710 H   0  0  0  0  0  0  0  0  0  0  0  0  # atno 10718 bound_to 10713
  154.7262  135.5074  153.8890 H   0  0  0  0  0  0  0  0  0  0  0  0  # atno 10763 bound_to 10752
  153.0907  135.6658  153.9868 H   0  0  0  0  0  0  0  0  0  0  0  0  # atno 10764 bound_to 10752
  153.9680  135.3041  155.3408 H   0  0  0  0  0  0  0  0  0  0  0  0  # atno 10765 bound_to 10752
  139.8773  134.9033  156.4408 H   0  0  0  0  0  0  0  0  0  0  0  0  # atno 11005 bound_to 11000
  145.5651  139.1481  143.3319 LP  0  0  0  0  0  0  0  0  0  0  0  0  # atno 17320 bound_to 7965
  146.2239  140.5786  142.9005 LP  0  0  0  0  0  0  0  0  0  0  0  0  # atno 17321 bound_to 7965
  140.7643  143.3244  151.2548 LP  0  0  0  0  0  0  0  0  0  0  0  0  # atno 17342 bound_to 10162
  139.6799  143.9872  152.2802 LP  0  0  0  0  0  0  0  0  0  0  0  0  # atno 17343 bound_to 10162
  156.1032  130.3654  150.0181 LP  0  0  0  0  0  0  0  0  0  0  0  0  # atno 17370 bound_to 10713
  156.8292  130.9386  151.3638 LP  0  0  0  0  0  0  0  0  0  0  0  0  # atno 17371 bound_to 10713
  140.9001  133.7786  155.9670 LP  0  0  0  0  0  0  0  0  0  0  0  0  # atno 17394 bound_to 11000
  140.8660  134.2783  157.5213 LP  0  0  0  0  0  0  0  0  0  0  0  0  # atno 17395 bound_to 11000

$$$$
