AV-unprocessed.smi:79|AV-procd|sdf|784|dock6
  -GOLD-   2262017153D 1   1.00000     0.00000
 Structure written by MMmdl.
 56 59  0  0  0  0  0  0  0  0  2 V2000
  146.5534  139.1606  152.3522 C   0  0  0  0  0  0  0  0  0  0  0  0
  147.5741  139.2695  153.4922 C   0  0  1  0  0  0  0  0  0  0  0  0
  148.6853  138.4585  153.1674 O   0  0  0  0  0  0  0  0  0  0  0  0
  148.0499  140.7200  153.7068 C   0  0  0  0  0  0  0  0  0  0  0  0
  148.5765  140.9527  155.0762 N   0  3  1  0  0  0  0  0  0  0  0  0
  147.6857  140.3959  156.1265 C   0  0  0  0  0  0  0  0  0  0  0  0
  148.1950  140.7491  157.5345 C   0  0  0  0  0  0  0  0  0  0  0  0
  149.5901  140.3450  157.6952 N   0  0  0  0  0  0  0  0  0  0  0  0
  149.7818  139.1058  158.2187 C   0  0  0  0  0  0  0  0  0  0  0  0
  151.0406  138.6073  158.3456 N   0  0  0  0  0  0  0  0  0  0  0  0
  151.2370  137.3885  158.8567 C   0  0  0  0  0  0  0  0  0  0  0  0
  150.3319  136.5138  159.2982 N   0  0  0  0  0  0  0  0  0  0  0  0
  149.0665  137.0068  159.1758 C   0  0  0  0  0  0  0  0  0  0  0  0
  148.7058  138.2797  158.6503 C   0  0  0  0  0  0  0  0  0  0  0  0
  147.3256  138.4346  158.6945 N   0  0  0  0  0  0  0  0  0  0  0  0
  146.8951  137.3157  159.2106 C   0  0  0  0  0  0  0  0  0  0  0  0
  147.8727  136.3978  159.5229 N   0  0  0  0  0  0  0  0  0  0  0  0
  147.6769  135.0831  160.1153 C   0  0  0  0  0  0  0  0  0  0  0  0
  146.7219  135.0792  161.3234 C   0  0  0  0  0  0  0  0  0  0  0  0
  147.3747  135.8817  162.4667 C   0  0  0  0  0  0  0  0  0  0  0  0
  147.5559  137.2446  162.1376 O   0  0  0  0  0  0  0  0  0  0  0  0
  145.2625  135.4272  160.9973 C   0  0  0  0  0  0  0  0  0  0  0  0
  144.7719  134.2324  161.6445 O   0  0  0  0  0  0  0  0  0  0  0  0
  146.1212  133.7207  161.7121 C   0  0  0  0  0  0  0  0  0  0  0  0
  150.5140  140.8398  156.6691 C   0  0  2  0  0  0  0  0  0  0  0  0
  150.7878  142.3440  156.8397 C   0  0  0  0  0  0  0  0  0  0  0  0
  149.9868  140.5112  155.2538 C   0  0  0  0  0  0  0  0  0  0  0  0
  145.6647  139.7552  152.5649 H   0  0  0  0  0  0  0  0  0  0  0  0
  146.2307  138.1285  152.2102 H   0  0  0  0  0  0  0  0  0  0  0  0
  146.9699  139.5124  151.4077 H   0  0  0  0  0  0  0  0  0  0  0  0
  147.1161  138.8745  154.3982 H   0  0  0  0  0  0  0  0  0  0  0  0
  148.4089  137.7968  152.5514 H   0  0  0  0  0  0  0  0  0  0  0  0
  148.8266  140.9398  152.9723 H   0  0  0  0  0  0  0  0  0  0  0  0
  147.2391  141.4230  153.5096 H   0  0  0  0  0  0  0  0  0  0  0  0
  146.6750  140.7864  156.0031 H   0  0  0  0  0  0  0  0  0  0  0  0
  147.6253  139.3124  156.0115 H   0  0  0  0  0  0  0  0  0  0  0  0
  148.1185  141.8237  157.7012 H   0  0  0  0  0  0  0  0  0  0  0  0
  147.5504  140.2835  158.2794 H   0  0  0  0  0  0  0  0  0  0  0  0
  152.2667  137.0688  158.9221 H   0  0  0  0  0  0  0  0  0  0  0  0
  145.8446  137.1316  159.3824 H   0  0  0  0  0  0  0  0  0  0  0  0
  147.3193  134.4038  159.3403 H   0  0  0  0  0  0  0  0  0  0  0  0
  148.6585  134.7057  160.4043 H   0  0  0  0  0  0  0  0  0  0  0  0
  146.7648  135.8488  163.3690 H   0  0  0  0  0  0  0  0  0  0  0  0
  148.3486  135.4654  162.7261 H   0  0  0  0  0  0  0  0  0  0  0  0
  146.8074  137.5362  161.6402 H   0  0  0  0  0  0  0  0  0  0  0  0
  144.8999  136.3412  161.4687 H   0  0  0  0  0  0  0  0  0  0  0  0
  145.0340  135.4290  159.9307 H   0  0  0  0  0  0  0  0  0  0  0  0
  146.2850  132.9325  160.9767 H   0  0  0  0  0  0  0  0  0  0  0  0
  146.3931  133.3808  162.7119 H   0  0  0  0  0  0  0  0  0  0  0  0
  151.4794  140.3470  156.7933 H   0  0  0  0  0  0  0  0  0  0  0  0
  151.5321  142.6877  156.1209 H   0  0  0  0  0  0  0  0  0  0  0  0
  151.1739  142.5588  157.8365 H   0  0  0  0  0  0  0  0  0  0  0  0
  149.8902  142.9452  156.6941 H   0  0  0  0  0  0  0  0  0  0  0  0
  150.0410  139.4360  155.0785 H   0  0  0  0  0  0  0  0  0  0  0  0
  150.6358  140.9739  154.5115 H   0  0  0  0  0  0  0  0  0  0  0  0
  148.5688  141.9539  155.2112 H   0  0  0  0  0  0  0  0  0  0  0  0
  1  2  1  0  0  0  0
  1 28  1  0  0  0  0
  1 29  1  0  0  0  0
  1 30  1  0  0  0  0
  2  3  1  0  0  0  0
  2  4  1  0  0  0  0
  2 31  1  0  0  0  0
  3 32  1  0  0  0  0
  4  5  1  0  0  0  0
  4 33  1  0  0  0  0
  4 34  1  0  0  0  0
  5 27  1  0  0  0  0
  5  6  1  0  0  0  0
  5 56  1  0  0  0  0
  6  7  1  0  0  0  0
  6 35  1  0  0  0  0
  6 36  1  0  0  0  0
  7  8  1  0  0  0  0
  7 37  1  0  0  0  0
  7 38  1  0  0  0  0
  8  9  1  0  0  0  0
  8 25  1  0  0  0  0
  9 14  1  0  0  0  0
  9 10  2  0  0  0  0
 10 11  1  0  0  0  0
 11 12  2  0  0  0  0
 11 39  1  0  0  0  0
 12 13  1  0  0  0  0
 13 17  1  0  0  0  0
 13 14  2  0  0  0  0
 14 15  1  0  0  0  0
 15 16  2  0  0  0  0
 16 17  1  0  0  0  0
 16 40  1  0  0  0  0
 17 18  1  0  0  0  0
 18 19  1  0  0  0  0
 18 41  1  0  0  0  0
 18 42  1  0  0  0  0
 19 24  1  0  0  0  0
 19 20  1  0  0  0  0
 19 22  1  0  0  0  0
 20 21  1  0  0  0  0
 20 43  1  0  0  0  0
 20 44  1  0  0  0  0
 21 45  1  0  0  0  0
 22 23  1  0  0  0  0
 22 46  1  0  0  0  0
 22 47  1  0  0  0  0
 23 24  1  0  0  0  0
 24 48  1  0  0  0  0
 24 49  1  0  0  0  0
 25 26  1  0  0  0  0
 25 27  1  0  0  0  0
 25 50  1  0  0  0  0
 26 51  1  0  0  0  0
 26 52  1  0  0  0  0
 26 53  1  0  0  0  0
 27 54  1  0  0  0  0
 27 55  1  0  0  0  0
M  CHG  1   5   1
M  END
> <s_m_source_file>
AV-unprocessed.smi

> <i_m_source_file_index>
79

> <i_lp_mmshare_version>
43012

> <i_f3d_flags>
0

> <s_epik_input>
W0NIM11bQ0BIXShbT0hdKVtDSDJdTjFbQ0gyXVtDSDJdTihbQ0BASF0oW0NIM10pW0NIMl0xKWMobltjSF1uMiljKGMyMyluW2NIXW4zW0NIMl1DNChbQ0gyXVtPSF0pW0NIMl1PW0NIMl00

> <s_epik_cmdline>
J2VwaWtfcHl0aG9uJywgJy1waCcsICc3LjAnLCAnLXRuJywgJzgnLCAnLW1hJywgJzIwMCcsICctbWV0YWxfYmluZGluZycsICctaW1hZScsICc8aW5maWxlLm1hZT4nLCAnLW9tYWUnLCAnPG91dGZpbGUubWFlPic=

> <r_lp_tautomer_probability>
1

> <r_epik_Ionization_Penalty>
0.00515943

> <r_epik_Ionization_Penalty_Charging>
0.00509693

> <r_epik_Ionization_Penalty_Neutral>
6.25007e-05

> <r_epik_State_Penalty>
-0

> <r_epik_Charging_Adjusted_Penalty>
0.00509693

> <i_epik_Tot_Q>
1

> <i_epik_Tot_abs_Q>
1

> <r_epik_Metal_State_Penalty>
-0

> <b_epik_Metal_Only>
0

> <s_lp_Force_Field>
OPLS_2005

> <r_lp_Energy>
50.645

> <b_lp_Chiralities_Consistent>
1

> <s_lp_Variant>
AV-unprocessed.smi:79-8

> <Gold.Version>
5.8.1

> <Gold.Id.Protein>
6NUR|6NUR_protein|mol2

> <Gold.PLP.Fitness>
47.8485

> <Gold.PLP.PLP>
-40.6463

> <Gold.PLP.part.hbond>
-6.0000

> <Gold.PLP.part.metal>
0.0000

> <Gold.PLP.part.buried>
-1.5988

> <Gold.PLP.part.nonpolar>
-32.7734

> <Gold.PLP.part.repulsive>
0.1192

> <Gold.PLP.ligand.clash>
0.6873

> <Gold.PLP.ligand.torsion>
0.9453

> <Gold.PLP.Chemscore.Hbond>
3.0073

> <Gold.PLP.Chemscore.CHOScore>
0.0000

> <Gold.PLP.Chemscore.Metal>
0.0000

> <Gold.Chemscore.Hbonds>
donor molecule, donor type, donor heavy atom, donor atom, acceptor molecule, acceptor atom, score
      L1  H     3    32       P1  7948  0.80
      P1  H  6896  6908       L1    12  1.00
      P1  H  6931  6943       L1    21  0.90

> <Gold.PLP.Chemscore.Internal.Correction>
0.7582

> <Gold.Rescore>
     Score         DG    S(hbond)    S(metal)    S(lipo)     H(rot)  DE(clash)    DE(int)     intcor
     12.23     -16.16       2.86        0.00      83.66       3.39       0.20       3.73       ----

> <Gold.Chemscore.Fitness>
12.2298

> <Gold.Chemscore.DG>
-16.1614

> <Gold.Chemscore.ZeroCoef>
-5.4800

> <Gold.Chemscore.Hbond>
2.8632

> <Gold.Chemscore.Metal>
0.0000

> <Gold.Chemscore.Lipo>
83.6620

> <Gold.Chemscore.Internal_Hbond>
0.0000

> <Gold.Chemscore.DEClash>
0.2035

> <Gold.Chemscore.DEInternal>
3.7281

> <Gold.Chemscore.Rot>
3.3868

> <Gold.Chemscore.Internal.Correction>
   9.000000E+99

> <Gold.Chemscore.Hbonds>
donor molecule, donor type, donor heavy atom, donor atom, acceptor molecule, acceptor atom, score
      L1  H     3    32       P1  7948  0.80
      P1  H  6896  6908       L1    12  0.70
      P1  H  6931  6943       L1    21  0.78

> <Gold.Chemscore.Hbond.Weighted>
-9.5630

> <Gold.Chemscore.Metal.Weighted>
-0.0000

> <Gold.Chemscore.Lipo.Weighted>
-9.7885

> <Gold.Chemscore.Internal_Hbond.Weighted>
0.0000

> <Gold.Chemscore.DEClash.Weighted>
0.2035

> <Gold.Chemscore.DEInternal.Weighted>
3.7281

> <Gold.Chemscore.Rot.Weighted>
8.6701

> <Gold.Chemscore.Internal.Correction.Weighted>
   9.000000E+99

> <Gold.Protein.RotatedTorsions>
[ 6907 6896 6895 6894 ] final -144.62 input  -60.11 | X-H torsion
[ 7974 7965 7964 7962 ] final   -2.42 input  175.53 | X-H torsion
[ 8008 7997 7996 7995 ] final  171.01 input   59.86 | X-H torsion
[ 10167 10162 10161 10158 ] final  -31.06 input  -65.29 | X-H torsion
[ 10718 10713 10712 10709 ] final   47.51 input   66.30 | X-H torsion
[ 10763 10752 10751 10750 ] final  159.75 input  -60.55 | X-H torsion
[ 11005 11000 10999 10996 ] final  -38.73 input  -57.11 | X-H torsion

> <Gold.Protein.ActiveResidues>
 VAL166  LYS551  ARG553  GLY616  TRP617  ASP618  TYR619  PRO620  LYS621  CYS622 
 ASP623  PHE694  ASN695  SER759  ASP760  ASP761  ALA762  ILE779  LEU786  VAL792 
 PHE793  MET794  SER795  GLU796  ALA797  LYS798  CYS799  TRP800  GLU811  SER814 

> <Gold.Protein.RotatedAtoms>
  151.1166  133.5134  159.2603 H   0  0  0  0  0  0  0  0  0  0  0  0  # atno 6907 bound_to 6896
  151.1908  135.0401  159.8841 H   0  0  0  0  0  0  0  0  0  0  0  0  # atno 6908 bound_to 6896
  152.5453  134.1006  159.8370 H   0  0  0  0  0  0  0  0  0  0  0  0  # atno 6909 bound_to 6896
  146.2404  140.1569  142.8333 H   0  0  0  0  0  0  0  0  0  0  0  0  # atno 7974 bound_to 7965
  156.1311  140.1523  156.9064 H   0  0  0  0  0  0  0  0  0  0  0  0  # atno 8008 bound_to 7997
  154.4910  140.0851  156.7634 H   0  0  0  0  0  0  0  0  0  0  0  0  # atno 8009 bound_to 7997
  155.4254  140.3425  155.4277 H   0  0  0  0  0  0  0  0  0  0  0  0  # atno 8010 bound_to 7997
  140.7241  143.3800  151.1619 H   0  0  0  0  0  0  0  0  0  0  0  0  # atno 10167 bound_to 10162
  157.4592  130.8186  149.7868 H   0  0  0  0  0  0  0  0  0  0  0  0  # atno 10718 bound_to 10713
  154.2366  135.2776  155.2870 H   0  0  0  0  0  0  0  0  0  0  0  0  # atno 10763 bound_to 10752
  154.5580  135.5655  153.6985 H   0  0  0  0  0  0  0  0  0  0  0  0  # atno 10764 bound_to 10752
  153.0009  135.6291  154.2509 H   0  0  0  0  0  0  0  0  0  0  0  0  # atno 10765 bound_to 10752
  141.0049  133.6936  156.2092 H   0  0  0  0  0  0  0  0  0  0  0  0  # atno 11005 bound_to 11000
  145.0122  140.8723  143.5217 LP  0  0  0  0  0  0  0  0  0  0  0  0  # atno 17320 bound_to 7965
  145.1604  139.2462  143.5394 LP  0  0  0  0  0  0  0  0  0  0  0  0  # atno 17321 bound_to 7965
  139.7387  143.8959  152.3043 LP  0  0  0  0  0  0  0  0  0  0  0  0  # atno 17342 bound_to 10162
  139.8772  144.7037  150.8919 LP  0  0  0  0  0  0  0  0  0  0  0  0  # atno 17343 bound_to 10162
  156.0021  130.3875  150.2568 LP  0  0  0  0  0  0  0  0  0  0  0  0  # atno 17370 bound_to 10713
  157.0744  131.0126  151.3179 LP  0  0  0  0  0  0  0  0  0  0  0  0  # atno 17371 bound_to 10713
  140.6829  134.4748  157.5589 LP  0  0  0  0  0  0  0  0  0  0  0  0  # atno 17394 bound_to 11000
  139.9058  134.8452  156.1712 LP  0  0  0  0  0  0  0  0  0  0  0  0  # atno 17395 bound_to 11000

$$$$
