AV-unprocessed.smi:2439|AV-procd|sdf|9611|dock2
  -GOLD-   2272013243D 1   1.00000     0.00000
 Structure written by MMmdl.
 40 42  0  0  0  0  0  0  0  0  1 V2000
  153.7054  135.8284  160.0520 N   0  0  0  0  0  0  0  0  0  0  0  0
  154.0455  136.4010  160.9981 C   0  0  0  0  0  0  0  0  0  0  0  0
  154.4735  137.1230  162.1902 C   0  0  0  0  0  0  0  0  0  0  0  0
  154.5533  136.4296  163.4162 C   0  0  0  0  0  0  0  0  0  0  0  0
  154.9665  137.1208  164.5697 C   0  0  0  0  0  0  0  0  0  0  0  0
  155.2820  138.4861  164.4501 C   0  0  0  0  0  0  0  0  0  0  0  0
  155.2077  139.1617  163.2845 N   0  0  0  0  0  0  0  0  0  0  0  0
  154.8150  138.5022  162.1667 C   0  0  0  0  0  0  0  0  0  0  0  0
  154.7467  139.2319  160.9650 N   0  0  0  0  0  0  0  0  0  0  0  0
  153.5264  139.2941  160.1692 C   0  0  0  0  0  0  0  0  0  0  0  0
  153.3095  140.6767  159.5327 C   0  0  2  0  0  0  0  0  0  0  0  0
  152.8887  141.7234  160.5802 C   0  0  0  0  0  0  0  0  0  0  0  0
  152.6097  143.0183  159.9727 N   0  0  0  0  0  0  0  0  0  0  0  0
  152.2063  144.0010  160.9770 C   0  0  0  0  0  0  0  0  0  0  0  0
  151.9395  145.3859  160.3670 C   0  0  0  0  0  0  0  0  0  0  0  0
  150.8774  145.2864  159.2626 C   0  0  0  0  0  0  0  0  0  0  0  0
  151.2798  144.2135  158.2389 C   0  0  0  0  0  0  0  0  0  0  0  0
  151.5833  142.8713  158.9363 C   0  0  1  0  0  0  0  0  0  0  0  0
  151.9930  141.8009  157.9043 C   0  0  0  0  0  0  0  0  0  0  0  0
  152.2682  140.5699  158.5650 O   0  0  0  0  0  0  0  0  0  0  0  0
  154.3023  135.3803  163.4773 H   0  0  0  0  0  0  0  0  0  0  0  0
  155.0391  136.6170  165.5221 H   0  0  0  0  0  0  0  0  0  0  0  0
  155.6019  139.0516  165.3128 H   0  0  0  0  0  0  0  0  0  0  0  0
  155.4876  139.8823  160.7455 H   0  0  0  0  0  0  0  0  0  0  0  0
  153.5835  138.5341  159.3896 H   0  0  0  0  0  0  0  0  0  0  0  0
  152.6726  139.0232  160.7913 H   0  0  0  0  0  0  0  0  0  0  0  0
  154.2269  141.0100  159.0441 H   0  0  0  0  0  0  0  0  0  0  0  0
  152.0058  141.3677  161.1141 H   0  0  0  0  0  0  0  0  0  0  0  0
  153.6798  141.8300  161.3235 H   0  0  0  0  0  0  0  0  0  0  0  0
  151.3104  143.6544  161.4946 H   0  0  0  0  0  0  0  0  0  0  0  0
  152.9851  144.0904  161.7352 H   0  0  0  0  0  0  0  0  0  0  0  0
  151.6142  146.0822  161.1403 H   0  0  0  0  0  0  0  0  0  0  0  0
  152.8651  145.7882  159.9531 H   0  0  0  0  0  0  0  0  0  0  0  0
  149.9143  145.0272  159.7040 H   0  0  0  0  0  0  0  0  0  0  0  0
  150.7483  146.2510  158.7713 H   0  0  0  0  0  0  0  0  0  0  0  0
  150.4830  144.0866  157.5052 H   0  0  0  0  0  0  0  0  0  0  0  0
  152.1592  144.5493  157.6876 H   0  0  0  0  0  0  0  0  0  0  0  0
  150.6617  142.5294  159.4107 H   0  0  0  0  0  0  0  0  0  0  0  0
  151.1906  141.6393  157.1842 H   0  0  0  0  0  0  0  0  0  0  0  0
  152.8707  142.1185  157.3387 H   0  0  0  0  0  0  0  0  0  0  0  0
  1  2  3  0  0  0  0
  2  3  1  0  0  0  0
  3  8  1  0  0  0  0
  3  4  2  0  0  0  0
  4  5  1  0  0  0  0
  4 21  1  0  0  0  0
  5  6  2  0  0  0  0
  5 22  1  0  0  0  0
  6  7  1  0  0  0  0
  6 23  1  0  0  0  0
  7  8  2  0  0  0  0
  8  9  1  0  0  0  0
  9 10  1  0  0  0  0
  9 24  1  0  0  0  0
 10 11  1  0  0  0  0
 10 25  1  0  0  0  0
 10 26  1  0  0  0  0
 11 20  1  0  0  0  0
 11 12  1  0  0  0  0
 11 27  1  0  0  0  0
 12 13  1  0  0  0  0
 12 28  1  0  0  0  0
 12 29  1  0  0  0  0
 13 18  1  0  0  0  0
 13 14  1  0  0  0  0
 14 15  1  0  0  0  0
 14 30  1  0  0  0  0
 14 31  1  0  0  0  0
 15 16  1  0  0  0  0
 15 32  1  0  0  0  0
 15 33  1  0  0  0  0
 16 17  1  0  0  0  0
 16 34  1  0  0  0  0
 16 35  1  0  0  0  0
 17 18  1  0  0  0  0
 17 36  1  0  0  0  0
 17 37  1  0  0  0  0
 18 19  1  0  0  0  0
 18 38  1  0  0  0  0
 19 20  1  0  0  0  0
 19 39  1  0  0  0  0
 19 40  1  0  0  0  0
M  END
> <s_m_source_file>
AV-unprocessed.smi

> <i_m_source_file_index>
2439

> <i_lp_mmshare_version>
43012

> <i_f3d_flags>
0

> <s_epik_input>
TiNDYzFbY0hdW2NIXVtjSF1uYzFbTkhdW0NIMl1bQ0BIXShbQ0gyXTIpT1tDSDJdW0NAQEhdKE4yMylbQ0gyXVtDSDJdW0NIMl1bQ0gyXTM=

> <s_epik_cmdline>
J2VwaWtfcHl0aG9uJywgJy1waCcsICc3LjAnLCAnLXRuJywgJzgnLCAnLW1hJywgJzIwMCcsICctbWV0YWxfYmluZGluZycsICctaW1hZScsICc8aW5maWxlLm1hZT4nLCAnLW9tYWUnLCAnPG91dGZpbGUubWFlPic=

> <r_epik_Ionization_Penalty>
1.22355

> <r_epik_Ionization_Penalty_Charging>
0

> <r_epik_Ionization_Penalty_Neutral>
1.22355

> <r_epik_State_Penalty>
1.29103

> <r_epik_Charging_Adjusted_Penalty>
1.29103

> <i_epik_Tot_Q>
0

> <i_epik_Tot_abs_Q>
0

> <r_epik_Metal_State_Penalty>
1.29103

> <b_epik_Metal_Only>
0

> <s_lp_Force_Field>
OPLS_2005

> <r_lp_Energy>
37.4104

> <b_lp_Chiralities_Consistent>
1

> <s_lp_Variant>
AV-unprocessed.smi:2439-9

> <Gold.Version>
5.8.1

> <Gold.Id.Protein>
6NUR|6NUR_protein|mol2

> <Gold.PLP.Fitness>
42.1742

> <Gold.PLP.PLP>
-40.6635

> <Gold.PLP.part.hbond>
-1.0000

> <Gold.PLP.part.metal>
0.0000

> <Gold.PLP.part.buried>
-6.8911

> <Gold.PLP.part.nonpolar>
-33.4496

> <Gold.PLP.part.repulsive>
0.0130

> <Gold.PLP.ligand.clash>
0.0000

> <Gold.PLP.ligand.torsion>
0.7456

> <Gold.PLP.Chemscore.Hbond>
1.0000

> <Gold.PLP.Chemscore.CHOScore>
0.0000

> <Gold.PLP.Chemscore.Metal>
0.0000

> <Gold.Chemscore.Hbonds>
donor molecule, donor type, donor heavy atom, donor atom, acceptor molecule, acceptor atom, score
      P1  H  6896  6909       L1     1  1.00

> <Gold.PLP.Chemscore.Internal.Correction>
0.0019

> <Gold.Rescore>
     Score         DG    S(hbond)    S(metal)    S(lipo)     H(rot)  DE(clash)    DE(int)     intcor
     18.39     -19.23       0.99        0.00     116.58       1.25       0.05       0.79       ----

> <Gold.Chemscore.Fitness>
18.3928

> <Gold.Chemscore.DG>
-19.2348

> <Gold.Chemscore.ZeroCoef>
-5.4800

> <Gold.Chemscore.Hbond>
0.9913

> <Gold.Chemscore.Metal>
0.0000

> <Gold.Chemscore.Lipo>
116.5814

> <Gold.Chemscore.Internal_Hbond>
0.0000

> <Gold.Chemscore.DEClash>
0.0489

> <Gold.Chemscore.DEInternal>
0.7931

> <Gold.Chemscore.Rot>
1.2485

> <Gold.Chemscore.Internal.Correction>
   9.000000E+99

> <Gold.Chemscore.Hbonds>
donor molecule, donor type, donor heavy atom, donor atom, acceptor molecule, acceptor atom, score
      P1  H  6896  6909       L1     1  0.99

> <Gold.Chemscore.Hbond.Weighted>
-3.3109

> <Gold.Chemscore.Metal.Weighted>
-0.0000

> <Gold.Chemscore.Lipo.Weighted>
-13.6400

> <Gold.Chemscore.Internal_Hbond.Weighted>
0.0000

> <Gold.Chemscore.DEClash.Weighted>
0.0489

> <Gold.Chemscore.DEInternal.Weighted>
0.7931

> <Gold.Chemscore.Rot.Weighted>
3.1961

> <Gold.Chemscore.Internal.Correction.Weighted>
   9.000000E+99

> <Gold.Protein.RotatedTorsions>
[ 6907 6896 6895 6894 ] final -171.40 input  -60.11 | X-H torsion
[ 7974 7965 7964 7962 ] final  140.29 input  175.53 | X-H torsion
[ 8008 7997 7996 7995 ] final  152.39 input   59.86 | X-H torsion
[ 10167 10162 10161 10158 ] final  165.85 input  -65.29 | X-H torsion
[ 10718 10713 10712 10709 ] final  -72.08 input   66.30 | X-H torsion
[ 10763 10752 10751 10750 ] final -134.21 input  -60.55 | X-H torsion
[ 11005 11000 10999 10996 ] final -103.85 input  -57.11 | X-H torsion

> <Gold.Protein.ActiveResidues>
 VAL166  LYS551  ARG553  GLY616  TRP617  ASP618  TYR619  PRO620  LYS621  CYS622 
 ASP623  PHE694  ASN695  SER759  ASP760  ASP761  ALA762  ILE779  LEU786  VAL792 
 PHE793  MET794  SER795  GLU796  ALA797  LYS798  CYS799  TRP800  GLU811  SER814 

> <Gold.Protein.RotatedAtoms>
  151.5232  133.3462  159.2904 H   0  0  0  0  0  0  0  0  0  0  0  0  # atno 6907 bound_to 6896
  150.8639  134.8000  159.7115 H   0  0  0  0  0  0  0  0  0  0  0  0  # atno 6908 bound_to 6896
  152.4650  134.5105  159.9804 H   0  0  0  0  0  0  0  0  0  0  0  0  # atno 6909 bound_to 6896
  144.9200  139.5180  143.5668 H   0  0  0  0  0  0  0  0  0  0  0  0  # atno 7974 bound_to 7965
  156.2631  140.2022  156.6325 H   0  0  0  0  0  0  0  0  0  0  0  0  # atno 8008 bound_to 7997
  154.6671  140.0554  157.0150 H   0  0  0  0  0  0  0  0  0  0  0  0  # atno 8009 bound_to 7997
  155.1190  140.3223  155.4505 H   0  0  0  0  0  0  0  0  0  0  0  0  # atno 8010 bound_to 7997
  139.4913  144.4089  151.9323 H   0  0  0  0  0  0  0  0  0  0  0  0  # atno 10167 bound_to 10162
  156.0335  130.4364  150.2539 H   0  0  0  0  0  0  0  0  0  0  0  0  # atno 10718 bound_to 10713
  154.8722  135.3741  154.4699 H   0  0  0  0  0  0  0  0  0  0  0  0  # atno 10763 bound_to 10752
  153.5360  135.7027  153.5665 H   0  0  0  0  0  0  0  0  0  0  0  0  # atno 10764 bound_to 10752
  153.3848  135.3987  155.1847 H   0  0  0  0  0  0  0  0  0  0  0  0  # atno 10765 bound_to 10752
  141.1127  133.8674  157.1537 H   0  0  0  0  0  0  0  0  0  0  0  0  # atno 11005 bound_to 11000
  146.3200  139.8072  142.8953 LP  0  0  0  0  0  0  0  0  0  0  0  0  # atno 17320 bound_to 7965
  145.3312  141.0267  143.3445 LP  0  0  0  0  0  0  0  0  0  0  0  0  # atno 17321 bound_to 7965
  140.3529  144.3066  150.5946 LP  0  0  0  0  0  0  0  0  0  0  0  0  # atno 17342 bound_to 10162
  140.5469  143.2213  151.7992 LP  0  0  0  0  0  0  0  0  0  0  0  0  # atno 17343 bound_to 10162
  157.0640  131.0098  151.3213 LP  0  0  0  0  0  0  0  0  0  0  0  0  # atno 17370 bound_to 10713
  157.5049  130.7903  149.7644 LP  0  0  0  0  0  0  0  0  0  0  0  0  # atno 17371 bound_to 10713
  140.0030  135.0020  157.0232 LP  0  0  0  0  0  0  0  0  0  0  0  0  # atno 17394 bound_to 11000
  140.4731  134.1366  155.7206 LP  0  0  0  0  0  0  0  0  0  0  0  0  # atno 17395 bound_to 11000

$$$$
