AV-unprocessed.smi:1875|AV-procd|sdf|7613|dock3
  -GOLD-   22720 9333D 1   1.00000     0.00000
 Structure written by MMmdl.
 48 50  0  0  0  0  0  0  0  0  2 V2000
  144.9834  134.9816  153.2391 C   0  0  0  0  0  0  0  0  0  0  0  0
  145.5189  136.2661  152.6408 C   0  0  0  0  0  0  0  0  0  0  0  0
  145.4967  136.3656  151.3083 N   0  0  0  0  0  0  0  0  0  0  0  0
  145.9820  137.5060  150.7706 C   0  0  0  0  0  0  0  0  0  0  0  0
  146.4924  138.5459  151.5742 C   0  0  0  0  0  0  0  0  0  0  0  0
  146.4614  138.3280  152.9676 C   0  0  0  0  0  0  0  0  0  0  0  0
  146.9915  139.3599  153.9406 C   0  0  0  0  0  0  0  0  0  0  0  0
  147.5531  140.5109  153.2105 N   0  3  0  0  0  0  0  0  0  0  0  0
  148.2453  141.4904  154.0706 C   0  0  0  0  0  0  0  0  0  0  0  0
  149.4140  140.8381  154.8323 C   0  0  1  0  0  0  0  0  0  0  0  0
  150.1941  140.1036  153.9094 O   0  0  0  0  0  0  0  0  0  0  0  0
  150.3140  141.8532  155.5713 C   0  0  0  0  0  0  0  0  0  0  0  0
  151.1807  141.2506  156.5719 N   0  0  0  0  0  0  0  0  0  0  0  0
  151.8099  140.0618  156.4909 C   0  0  0  0  0  0  0  0  0  0  0  0
  152.5573  139.6949  157.5272 N   0  0  0  0  0  0  0  0  0  0  0  0
  152.4076  140.7779  158.3761 C   0  0  0  0  0  0  0  0  0  0  0  0
  152.9520  141.0207  159.6560 C   0  0  0  0  0  0  0  0  0  0  0  0
  152.6635  142.2163  160.3516 C   0  0  0  0  0  0  0  0  0  0  0  0
  153.2708  142.4362  161.7262 C   0  0  0  0  0  0  0  0  0  0  0  0
  151.8175  143.1920  159.7660 C   0  0  0  0  0  0  0  0  0  0  0  0
  151.4951  144.4851  160.4938 C   0  0  0  0  0  0  0  0  0  0  0  0
  151.2645  142.9651  158.4882 C   0  0  0  0  0  0  0  0  0  0  0  0
  151.5569  141.7704  157.8067 C   0  0  0  0  0  0  0  0  0  0  0  0
  145.9788  137.1825  153.4993 N   0  0  0  0  0  0  0  0  0  0  0  0
  144.2535  134.5136  152.5774 H   0  0  0  0  0  0  0  0  0  0  0  0
  144.4952  135.1713  154.1957 H   0  0  0  0  0  0  0  0  0  0  0  0
  145.7985  134.2764  153.4035 H   0  0  0  0  0  0  0  0  0  0  0  0
  145.9661  137.5884  149.6939 H   0  0  0  0  0  0  0  0  0  0  0  0
  146.8822  139.4556  151.1414 H   0  0  0  0  0  0  0  0  0  0  0  0
  146.1882  139.6957  154.5977 H   0  0  0  0  0  0  0  0  0  0  0  0
  147.7591  138.9088  154.5711 H   0  0  0  0  0  0  0  0  0  0  0  0
  148.2050  140.1622  152.5225 H   0  0  0  0  0  0  0  0  0  0  0  0
  148.5973  142.3236  153.4605 H   0  0  0  0  0  0  0  0  0  0  0  0
  147.5239  141.8952  154.7816 H   0  0  0  0  0  0  0  0  0  0  0  0
  149.0191  140.1360  155.5680 H   0  0  0  0  0  0  0  0  0  0  0  0
  149.7605  140.1168  153.0692 H   0  0  0  0  0  0  0  0  0  0  0  0
  150.9427  142.3784  154.8510 H   0  0  0  0  0  0  0  0  0  0  0  0
  149.7053  142.6178  156.0558 H   0  0  0  0  0  0  0  0  0  0  0  0
  151.7074  139.4254  155.6243 H   0  0  0  0  0  0  0  0  0  0  0  0
  153.5978  140.2780  160.1011 H   0  0  0  0  0  0  0  0  0  0  0  0
  153.8699  143.3469  161.7394 H   0  0  0  0  0  0  0  0  0  0  0  0
  153.9178  141.6068  162.0132 H   0  0  0  0  0  0  0  0  0  0  0  0
  152.4873  142.5257  162.4791 H   0  0  0  0  0  0  0  0  0  0  0  0
  150.8084  145.1056  159.9176 H   0  0  0  0  0  0  0  0  0  0  0  0
  152.4040  145.0623  160.6657 H   0  0  0  0  0  0  0  0  0  0  0  0
  151.0289  144.2767  161.4571 H   0  0  0  0  0  0  0  0  0  0  0  0
  150.6196  143.7012  158.0317 H   0  0  0  0  0  0  0  0  0  0  0  0
  146.8007  140.9838  152.7304 H   0  0  0  0  0  0  0  0  0  0  0  0
  1  2  1  0  0  0  0
  1 25  1  0  0  0  0
  1 26  1  0  0  0  0
  1 27  1  0  0  0  0
  2 24  1  0  0  0  0
  2  3  2  0  0  0  0
  3  4  1  0  0  0  0
  4  5  2  0  0  0  0
  4 28  1  0  0  0  0
  5  6  1  0  0  0  0
  5 29  1  0  0  0  0
  6  7  1  0  0  0  0
  6 24  2  0  0  0  0
  7  8  1  0  0  0  0
  7 30  1  0  0  0  0
  7 31  1  0  0  0  0
  8  9  1  0  0  0  0
  8 32  1  0  0  0  0
  8 48  1  0  0  0  0
  9 10  1  0  0  0  0
  9 33  1  0  0  0  0
  9 34  1  0  0  0  0
 10 11  1  0  0  0  0
 10 12  1  0  0  0  0
 10 35  1  0  0  0  0
 11 36  1  0  0  0  0
 12 13  1  0  0  0  0
 12 37  1  0  0  0  0
 12 38  1  0  0  0  0
 13 23  1  0  0  0  0
 13 14  1  0  0  0  0
 14 15  2  0  0  0  0
 14 39  1  0  0  0  0
 15 16  1  0  0  0  0
 16 23  2  0  0  0  0
 16 17  1  0  0  0  0
 17 18  2  0  0  0  0
 17 40  1  0  0  0  0
 18 19  1  0  0  0  0
 18 20  1  0  0  0  0
 19 41  1  0  0  0  0
 19 42  1  0  0  0  0
 19 43  1  0  0  0  0
 20 21  1  0  0  0  0
 20 22  2  0  0  0  0
 21 44  1  0  0  0  0
 21 45  1  0  0  0  0
 21 46  1  0  0  0  0
 22 23  1  0  0  0  0
 22 47  1  0  0  0  0
M  CHG  1   8   1
M  END
> <s_m_source_file>
AV-unprocessed.smi

> <i_m_source_file_index>
1875

> <i_lp_mmshare_version>
43012

> <i_f3d_flags>
0

> <s_epik_input>
W0NIM11jMW5bY0hdW2NIXWMobjEpW0NIMl1bTkhdW0NIMl1bQ0BIXShbT0hdKVtDSDJdbihbY0hdbjIpYyhjMjMpW2NIXWMoW0NIM10pYyhbY0hdMylbQ0gzXQ==

> <s_epik_cmdline>
J2VwaWtfcHl0aG9uJywgJy1waCcsICc3LjAnLCAnLXRuJywgJzgnLCAnLW1hJywgJzIwMCcsICctbWV0YWxfYmluZGluZycsICctaW1hZScsICc8aW5maWxlLm1hZT4nLCAnLW9tYWUnLCAnPG91dGZpbGUubWFlPic=

> <r_lp_tautomer_probability>
1

> <r_epik_Ionization_Penalty>
0.192455

> <r_epik_Ionization_Penalty_Charging>
0.102343

> <r_epik_Ionization_Penalty_Neutral>
0.0901122

> <r_epik_State_Penalty>
0.175389

> <r_epik_Charging_Adjusted_Penalty>
0.277732

> <i_epik_Tot_Q>
1

> <i_epik_Tot_abs_Q>
1

> <r_epik_Metal_State_Penalty>
0.167659

> <b_epik_Metal_Only>
0

> <s_epik_Chemistry_Notes>
This compound contains an electron-poor aromatic ring that is susceptible to covalent hydrolysis at low pH, typically resulting in measured values for nitrogen ring protonation that are around two units higher than predicted values.

> <s_lp_Force_Field>
OPLS_2005

> <r_lp_Energy>
1.49454

> <b_lp_Chiralities_Consistent>
1

> <s_lp_Variant>
AV-unprocessed.smi:1875-2

> <Gold.Version>
5.8.1

> <Gold.Id.Protein>
6NUR|6NUR_protein|mol2

> <Gold.PLP.Fitness>
59.7615

> <Gold.PLP.PLP>
-48.1787

> <Gold.PLP.part.hbond>
-4.0000

> <Gold.PLP.part.metal>
0.0000

> <Gold.PLP.part.buried>
-1.6965

> <Gold.PLP.part.nonpolar>
-44.1212

> <Gold.PLP.part.repulsive>
0.4513

> <Gold.PLP.ligand.clash>
0.0000

> <Gold.PLP.ligand.torsion>
0.5151

> <Gold.PLP.Chemscore.Hbond>
3.8960

> <Gold.PLP.Chemscore.CHOScore>
0.2732

> <Gold.PLP.Chemscore.Metal>
0.0000

> <Gold.Chemscore.Hbonds>
donor molecule, donor type, donor heavy atom, donor atom, acceptor molecule, acceptor atom, score
      L1  H     8    32       P1  7957  1.00
      L1  H    11    36       P1  7957  1.00
      P1  H  7989  7998       L1    11  0.81
      P1  H  7997  8008       L1    15  0.94
      L1  C     4    28       P1 10171  0.22

> <Gold.PLP.Chemscore.Internal.Correction>
0.1053

> <Gold.Rescore>
     Score         DG    S(hbond)    S(metal)    S(lipo)     H(rot)  DE(clash)    DE(int)     intcor
     20.81     -22.97       2.84        0.00     129.86       2.80       1.63       0.54       ----

> <Gold.Chemscore.Fitness>
20.8067

> <Gold.Chemscore.DG>
-22.9712

> <Gold.Chemscore.ZeroCoef>
-5.4800

> <Gold.Chemscore.Hbond>
2.8376

> <Gold.Chemscore.Metal>
0.0000

> <Gold.Chemscore.Lipo>
129.8608

> <Gold.Chemscore.Internal_Hbond>
0.0000

> <Gold.Chemscore.DEClash>
1.6286

> <Gold.Chemscore.DEInternal>
0.5359

> <Gold.Chemscore.Rot>
2.8047

> <Gold.Chemscore.Internal.Correction>
   9.000000E+99

> <Gold.Chemscore.Hbonds>
donor molecule, donor type, donor heavy atom, donor atom, acceptor molecule, acceptor atom, score
      L1  H     8    32       P1  7957  0.99
      L1  H    11    36       P1  7957  0.98
      P1  H  7989  7998       L1    11  0.14
      P1  H  7997  8008       L1    15  0.08

> <Gold.Chemscore.Hbond.Weighted>
-9.4775

> <Gold.Chemscore.Metal.Weighted>
-0.0000

> <Gold.Chemscore.Lipo.Weighted>
-15.1937

> <Gold.Chemscore.Internal_Hbond.Weighted>
0.0000

> <Gold.Chemscore.DEClash.Weighted>
1.6286

> <Gold.Chemscore.DEInternal.Weighted>
0.5359

> <Gold.Chemscore.Rot.Weighted>
7.1801

> <Gold.Chemscore.Internal.Correction.Weighted>
   9.000000E+99

> <Gold.Protein.RotatedTorsions>
[ 6907 6896 6895 6894 ] final   56.26 input  -60.11 | X-H torsion
[ 7974 7965 7964 7962 ] final  133.83 input  175.53 | X-H torsion
[ 8008 7997 7996 7995 ] final  -72.06 input   59.86 | X-H torsion
[ 10167 10162 10161 10158 ] final   71.68 input  -65.29 | X-H torsion
[ 10718 10713 10712 10709 ] final -145.57 input   66.30 | X-H torsion
[ 10763 10752 10751 10750 ] final   64.04 input  -60.55 | X-H torsion
[ 11005 11000 10999 10996 ] final -179.69 input  -57.11 | X-H torsion

> <Gold.Protein.ActiveResidues>
 VAL166  LYS551  ARG553  GLY616  TRP617  ASP618  TYR619  PRO620  LYS621  CYS622 
 ASP623  PHE694  ASN695  SER759  ASP760  ASP761  ALA762  ILE779  LEU786  VAL792 
 PHE793  MET794  SER795  GLU796  ALA797  LYS798  CYS799  TRP800  GLU811  SER814 

> <Gold.Protein.RotatedAtoms>
  152.3619  134.6860  160.0204 H   0  0  0  0  0  0  0  0  0  0  0  0  # atno 6907 bound_to 6896
  151.7181  133.3308  159.3316 H   0  0  0  0  0  0  0  0  0  0  0  0  # atno 6908 bound_to 6896
  150.7610  134.6407  159.6280 H   0  0  0  0  0  0  0  0  0  0  0  0  # atno 6909 bound_to 6896
  144.9825  139.4489  143.5379 H   0  0  0  0  0  0  0  0  0  0  0  0  # atno 7974 bound_to 7965
  154.5136  140.0804  156.8038 H   0  0  0  0  0  0  0  0  0  0  0  0  # atno 8008 bound_to 7997
  155.3730  140.3424  155.4226 H   0  0  0  0  0  0  0  0  0  0  0  0  # atno 8009 bound_to 7997
  156.1602  140.1586  156.8612 H   0  0  0  0  0  0  0  0  0  0  0  0  # atno 8010 bound_to 7997
  140.0435  144.5370  150.7416 H   0  0  0  0  0  0  0  0  0  0  0  0  # atno 10167 bound_to 10162
  156.3841  130.7852  151.2047 H   0  0  0  0  0  0  0  0  0  0  0  0  # atno 10718 bound_to 10713
  153.0040  135.5407  154.6447 H   0  0  0  0  0  0  0  0  0  0  0  0  # atno 10763 bound_to 10752
  154.5693  135.2840  155.0845 H   0  0  0  0  0  0  0  0  0  0  0  0  # atno 10764 bound_to 10752
  154.2016  135.6483  153.5141 H   0  0  0  0  0  0  0  0  0  0  0  0  # atno 10765 bound_to 10752
  140.4159  134.6650  157.4638 H   0  0  0  0  0  0  0  0  0  0  0  0  # atno 11005 bound_to 11000
  146.3412  139.9107  142.8781 LP  0  0  0  0  0  0  0  0  0  0  0  0  # atno 17320 bound_to 7965
  145.2400  141.0006  143.3941 LP  0  0  0  0  0  0  0  0  0  0  0  0  # atno 17321 bound_to 7965
  140.7249  143.2626  151.4154 LP  0  0  0  0  0  0  0  0  0  0  0  0  # atno 17342 bound_to 10162
  139.5998  144.1319  152.2185 LP  0  0  0  0  0  0  0  0  0  0  0  0  # atno 17343 bound_to 10162
  157.7494  131.0335  150.4276 LP  0  0  0  0  0  0  0  0  0  0  0  0  # atno 17370 bound_to 10713
  156.4525  130.4014  149.6627 LP  0  0  0  0  0  0  0  0  0  0  0  0  # atno 17371 bound_to 10713
  140.0234  134.6513  155.9207 LP  0  0  0  0  0  0  0  0  0  0  0  0  # atno 17394 bound_to 11000
  141.1803  133.6545  156.4993 LP  0  0  0  0  0  0  0  0  0  0  0  0  # atno 17395 bound_to 11000

$$$$
