AV-unprocessed.smi:2774|AV-procd|sdf|10683|dock2
  -GOLD-   2272015123D 1   1.00000     0.00000
 Structure written by MMmdl.
 35 36  0  0  0  0  0  0  0  0  2 V2000
  148.8990  141.7477  155.2569 O   0  0  0  0  0  0  0  0  0  0  0  0
  150.2846  141.6153  155.5062 C   0  0  1  0  0  0  0  0  0  0  0  0
  150.5796  142.1193  156.9301 C   0  0  0  0  0  0  0  0  0  0  0  0
  151.2688  143.4279  156.9080 N   0  3  0  0  0  0  0  0  0  0  0  0
  151.9432  143.8084  158.1689 C   0  0  1  0  0  0  0  0  0  0  0  0
  150.9976  144.6921  159.0061 C   0  0  0  0  0  0  0  0  0  0  0  0
  151.6501  145.2093  160.2989 C   0  0  0  0  0  0  0  0  0  0  0  0
  152.0757  144.0714  161.2362 C   0  0  0  0  0  0  0  0  0  0  0  0
  153.3152  143.0081  160.4499 S   0  0  0  0  0  0  0  0  0  0  0  0
  152.3841  142.5592  158.9597 C   0  0  0  0  0  0  0  0  0  0  0  0
  150.7489  140.1794  155.3215 C   0  0  0  0  0  0  0  0  0  0  0  0
  149.8958  139.2181  154.7399 C   0  0  0  0  0  0  0  0  0  0  0  0
  150.3722  137.9007  154.5844 C   0  0  0  0  0  0  0  0  0  0  0  0
  151.6079  137.5095  154.9624 N   0  0  0  0  0  0  0  0  0  0  0  0
  152.4206  138.4332  155.5183 C   0  0  0  0  0  0  0  0  0  0  0  0
  152.0420  139.7756  155.7191 C   0  0  0  0  0  0  0  0  0  0  0  0
  148.6542  142.6501  155.3988 H   0  0  0  0  0  0  0  0  0  0  0  0
  150.8083  142.2454  154.7857 H   0  0  0  0  0  0  0  0  0  0  0  0
  149.6539  142.1894  157.5012 H   0  0  0  0  0  0  0  0  0  0  0  0
  151.2184  141.4011  157.4459 H   0  0  0  0  0  0  0  0  0  0  0  0
  151.9708  143.3837  156.1835 H   0  0  0  0  0  0  0  0  0  0  0  0
  152.8230  144.4019  157.9152 H   0  0  0  0  0  0  0  0  0  0  0  0
  150.6776  145.5478  158.4099 H   0  0  0  0  0  0  0  0  0  0  0  0
  150.0911  144.1378  159.2530 H   0  0  0  0  0  0  0  0  0  0  0  0
  152.5144  145.8284  160.0555 H   0  0  0  0  0  0  0  0  0  0  0  0
  150.9475  145.8595  160.8210 H   0  0  0  0  0  0  0  0  0  0  0  0
  152.4962  144.4772  162.1566 H   0  0  0  0  0  0  0  0  0  0  0  0
  151.2135  143.4662  161.5179 H   0  0  0  0  0  0  0  0  0  0  0  0
  151.5177  141.9639  159.2507 H   0  0  0  0  0  0  0  0  0  0  0  0
  153.0235  141.9146  158.3576 H   0  0  0  0  0  0  0  0  0  0  0  0
  148.8975  139.4770  154.4188 H   0  0  0  0  0  0  0  0  0  0  0  0
  149.7439  137.1411  154.1431 H   0  0  0  0  0  0  0  0  0  0  0  0
  153.4030  138.0931  155.8108 H   0  0  0  0  0  0  0  0  0  0  0  0
  152.7320  140.4757  156.1670 H   0  0  0  0  0  0  0  0  0  0  0  0
  150.6026  144.1467  156.6627 H   0  0  0  0  0  0  0  0  0  0  0  0
  1  2  1  0  0  0  0
  1 17  1  0  0  0  0
  2  3  1  0  0  0  0
  2 11  1  0  0  0  0
  2 18  1  0  0  0  0
  3  4  1  0  0  0  0
  3 19  1  0  0  0  0
  3 20  1  0  0  0  0
  4  5  1  0  0  0  0
  4 21  1  0  0  0  0
  4 35  1  0  0  0  0
  5 10  1  0  0  0  0
  5  6  1  0  0  0  0
  5 22  1  0  0  0  0
  6  7  1  0  0  0  0
  6 23  1  0  0  0  0
  6 24  1  0  0  0  0
  7  8  1  0  0  0  0
  7 25  1  0  0  0  0
  7 26  1  0  0  0  0
  8  9  1  0  0  0  0
  8 27  1  0  0  0  0
  8 28  1  0  0  0  0
  9 10  1  0  0  0  0
 10 29  1  0  0  0  0
 10 30  1  0  0  0  0
 11 16  1  0  0  0  0
 11 12  2  0  0  0  0
 12 13  1  0  0  0  0
 12 31  1  0  0  0  0
 13 14  2  0  0  0  0
 13 32  1  0  0  0  0
 14 15  1  0  0  0  0
 15 16  2  0  0  0  0
 15 33  1  0  0  0  0
 16 34  1  0  0  0  0
M  CHG  1   4   1
M  END
> <s_m_source_file>
AV-unprocessed.smi

> <i_m_source_file_index>
2774

> <i_lp_mmshare_version>
43012

> <i_f3d_flags>
0

> <s_epik_input>
W2NIXTFbY0hdbltjSF1bY0hdYzFbQ0BIXShbT0hdKVtDSDJdW05IXVtDQEBIXTJbQ0gyXVtDSDJdW0NIMl1TW0NIMl0y

> <s_epik_cmdline>
J2VwaWtfcHl0aG9uJywgJy1waCcsICc3LjAnLCAnLXRuJywgJzgnLCAnLW1hJywgJzIwMCcsICctbWV0YWxfYmluZGluZycsICctaW1hZScsICc8aW5maWxlLm1hZT4nLCAnLW9tYWUnLCAnPG91dGZpbGUubWFlPic=

> <r_epik_Ionization_Penalty>
0.0205977

> <r_epik_Ionization_Penalty_Charging>
0.0185619

> <r_epik_Ionization_Penalty_Neutral>
0.00203589

> <r_epik_State_Penalty>
0.0147768

> <r_epik_Charging_Adjusted_Penalty>
0.0333386

> <i_epik_Tot_Q>
1

> <i_epik_Tot_abs_Q>
1

> <r_epik_Metal_State_Penalty>
0.0152254

> <b_epik_Metal_Only>
0

> <s_lp_Force_Field>
OPLS_2005

> <r_lp_Energy>
9.96731

> <b_lp_Chiralities_Consistent>
1

> <s_lp_Variant>
AV-unprocessed.smi:2774-4

> <Gold.Version>
5.8.1

> <Gold.Id.Protein>
6NUR|6NUR_protein|mol2

> <Gold.PLP.Fitness>
50.9988

> <Gold.PLP.PLP>
-41.6096

> <Gold.PLP.part.hbond>
-2.3422

> <Gold.PLP.part.metal>
0.0000

> <Gold.PLP.part.buried>
-1.7597

> <Gold.PLP.part.nonpolar>
-37.0657

> <Gold.PLP.part.repulsive>
0.1397

> <Gold.PLP.ligand.clash>
0.0000

> <Gold.PLP.ligand.torsion>
1.4120

> <Gold.PLP.Chemscore.Hbond>
3.0644

> <Gold.PLP.Chemscore.CHOScore>
1.0000

> <Gold.PLP.Chemscore.Metal>
0.0000

> <Gold.Chemscore.Hbonds>
donor molecule, donor type, donor heavy atom, donor atom, acceptor molecule, acceptor atom, score
      L1  H     1    17       P1  8028  0.86
      L1  H     4    35       P1  8028  1.92
      P1  H 10752 10764       L1    14  0.16
      L1  C    13    32       P1  7948  0.95

> <Gold.PLP.Chemscore.Internal.Correction>
0.0199

> <Gold.Rescore>
     Score         DG    S(hbond)    S(metal)    S(lipo)     H(rot)  DE(clash)    DE(int)     intcor
     19.42     -20.90       1.92        0.00     120.02       1.97       0.39       1.09       ----

> <Gold.Chemscore.Fitness>
19.4200

> <Gold.Chemscore.DG>
-20.8990

> <Gold.Chemscore.ZeroCoef>
-5.4800

> <Gold.Chemscore.Hbond>
1.9210

> <Gold.Chemscore.Metal>
0.0000

> <Gold.Chemscore.Lipo>
120.0216

> <Gold.Chemscore.Internal_Hbond>
0.0000

> <Gold.Chemscore.DEClash>
0.3890

> <Gold.Chemscore.DEInternal>
1.0900

> <Gold.Chemscore.Rot>
1.9686

> <Gold.Chemscore.Internal.Correction>
   9.000000E+99

> <Gold.Chemscore.Hbonds>
donor molecule, donor type, donor heavy atom, donor atom, acceptor molecule, acceptor atom, score
      L1  H     1    17       P1  8028  0.83
      L1  H     4    35       P1  8028  0.87
      P1  H 10752 10764       L1    14  0.08

> <Gold.Chemscore.Hbond.Weighted>
-6.4161

> <Gold.Chemscore.Metal.Weighted>
-0.0000

> <Gold.Chemscore.Lipo.Weighted>
-14.0425

> <Gold.Chemscore.Internal_Hbond.Weighted>
0.0000

> <Gold.Chemscore.DEClash.Weighted>
0.3890

> <Gold.Chemscore.DEInternal.Weighted>
1.0900

> <Gold.Chemscore.Rot.Weighted>
5.0396

> <Gold.Chemscore.Internal.Correction.Weighted>
   9.000000E+99

> <Gold.Protein.RotatedTorsions>
[ 6907 6896 6895 6894 ] final  -31.61 input  -60.11 | X-H torsion
[ 7974 7965 7964 7962 ] final   88.42 input  175.53 | X-H torsion
[ 8008 7997 7996 7995 ] final  134.28 input   59.86 | X-H torsion
[ 10167 10162 10161 10158 ] final -146.86 input  -65.29 | X-H torsion
[ 10718 10713 10712 10709 ] final -162.16 input   66.30 | X-H torsion
[ 10763 10752 10751 10750 ] final  -55.54 input  -60.55 | X-H torsion
[ 11005 11000 10999 10996 ] final  121.98 input  -57.11 | X-H torsion

> <Gold.Protein.ActiveResidues>
 VAL166  LYS551  ARG553  GLY616  TRP617  ASP618  TYR619  PRO620  LYS621  CYS622 
 ASP623  PHE694  ASN695  SER759  ASP760  ASP761  ALA762  ILE779  LEU786  VAL792 
 PHE793  MET794  SER795  GLU796  ALA797  LYS798  CYS799  TRP800  GLU811  SER814 

> <Gold.Protein.RotatedAtoms>
  151.0898  134.9909  159.8396 H   0  0  0  0  0  0  0  0  0  0  0  0  # atno 6907 bound_to 6896
  152.5428  134.2079  159.8748 H   0  0  0  0  0  0  0  0  0  0  0  0  # atno 6908 bound_to 6896
  151.2115  133.4509  159.2631 H   0  0  0  0  0  0  0  0  0  0  0  0  # atno 6909 bound_to 6896
  145.5459  139.2292  143.2539 H   0  0  0  0  0  0  0  0  0  0  0  0  # atno 7974 bound_to 7965
  156.2998  140.2500  156.3391 H   0  0  0  0  0  0  0  0  0  0  0  0  # atno 8008 bound_to 7997
  154.9072  140.0404  157.1945 H   0  0  0  0  0  0  0  0  0  0  0  0  # atno 8009 bound_to 7997
  154.8442  140.2895  155.5644 H   0  0  0  0  0  0  0  0  0  0  0  0  # atno 8010 bound_to 7997
  139.7674  143.8287  152.2618 H   0  0  0  0  0  0  0  0  0  0  0  0  # atno 10167 bound_to 10162
  156.6064  130.8832  151.2926 H   0  0  0  0  0  0  0  0  0  0  0  0  # atno 10718 bound_to 10713
  154.1924  135.6425  153.5064 H   0  0  0  0  0  0  0  0  0  0  0  0  # atno 10763 bound_to 10752
  153.0032  135.5432  154.6401 H   0  0  0  0  0  0  0  0  0  0  0  0  # atno 10764 bound_to 10752
  154.5793  135.2924  155.0722 H   0  0  0  0  0  0  0  0  0  0  0  0  # atno 10765 bound_to 10752
  139.9249  134.9640  156.8040 H   0  0  0  0  0  0  0  0  0  0  0  0  # atno 11005 bound_to 11000
  146.1949  140.6281  142.9128 LP  0  0  0  0  0  0  0  0  0  0  0  0  # atno 17320 bound_to 7965
  144.7553  140.5293  143.6773 LP  0  0  0  0  0  0  0  0  0  0  0  0  # atno 17321 bound_to 7965
  139.8312  144.7253  150.9448 LP  0  0  0  0  0  0  0  0  0  0  0  0  # atno 17342 bound_to 10162
  140.7812  143.4068  151.1057 LP  0  0  0  0  0  0  0  0  0  0  0  0  # atno 17343 bound_to 10162
  157.7266  130.9631  150.1662 LP  0  0  0  0  0  0  0  0  0  0  0  0  # atno 17370 bound_to 10713
  156.2426  130.3692  149.8320 LP  0  0  0  0  0  0  0  0  0  0  0  0  # atno 17371 bound_to 10713
  140.6366  133.9856  155.7687 LP  0  0  0  0  0  0  0  0  0  0  0  0  # atno 17394 bound_to 11000
  141.0798  134.0079  157.3403 LP  0  0  0  0  0  0  0  0  0  0  0  0  # atno 17395 bound_to 11000

$$$$
