AV-unprocessed.smi:701|AV-procd|sdf|3415|dock8
  -GOLD-   22720 0403D 1   1.00000     0.00000
 Structure written by MMmdl.
 48 50  0  0  0  0  0  0  0  0  2 V2000
  140.3896  135.8113  153.9721 C   0  0  0  0  0  0  0  0  0  0  0  0
  141.6778  136.5754  153.6601 C   0  0  0  0  0  0  0  0  0  0  0  0
  142.6446  135.6587  153.1761 O   0  0  0  0  0  0  0  0  0  0  0  0
  143.9478  136.2125  153.1032 C   0  0  1  0  0  0  0  0  0  0  0  0
  144.7483  136.1168  154.4049 C   0  0  0  0  0  0  0  0  0  0  0  0
  145.9665  135.7683  153.5426 C   0  0  2  0  0  0  0  0  0  0  0  0
  146.7306  136.9643  153.1879 N   0  0  0  0  0  0  0  0  0  0  0  0
  146.9930  137.9801  154.0209 C   0  0  0  0  0  0  0  0  0  0  0  0
  146.5865  138.0255  155.1823 O   0  0  0  0  0  0  0  0  0  0  0  0
  147.8168  139.1356  153.4405 C   0  0  0  0  0  0  0  0  0  0  0  0
  149.1475  139.2340  154.0590 N   0  0  0  0  0  0  0  0  0  0  0  0
  149.8474  138.0398  154.3058 C   0  0  0  0  0  0  0  0  0  0  0  0
  151.0729  138.0375  154.8639 C   0  0  0  0  0  0  0  0  0  0  0  0
  151.6741  139.3182  155.2147 C   0  0  0  0  0  0  0  0  0  0  0  0
  152.7902  139.3348  155.7300 O   0  0  0  0  0  0  0  0  0  0  0  0
  150.9573  140.4498  154.9502 N   0  5  0  0  0  0  0  0  0  0  0  0
  149.7127  140.4372  154.3800 C   0  0  0  0  0  0  0  0  0  0  0  0
  149.0836  141.4704  154.1474 O   0  0  0  0  0  0  0  0  0  0  0  0
  144.9977  135.2954  152.4205 C   0  0  0  0  0  0  0  0  0  0  0  0
  144.7251  133.7728  152.4595 C   0  0  0  0  0  0  0  0  0  0  0  0
  143.6919  133.2849  151.4263 C   0  0  0  0  0  0  0  0  0  0  0  0
  144.0651  133.7202  150.0057 C   0  0  0  0  0  0  0  0  0  0  0  0
  144.3107  135.2308  149.9447 C   0  0  0  0  0  0  0  0  0  0  0  0
  145.3733  135.6586  150.9686 C   0  0  0  0  0  0  0  0  0  0  0  0
  139.6179  136.4836  154.3471 H   0  0  0  0  0  0  0  0  0  0  0  0
  140.5623  135.0450  154.7281 H   0  0  0  0  0  0  0  0  0  0  0  0
  140.0011  135.3206  153.0793 H   0  0  0  0  0  0  0  0  0  0  0  0
  141.4805  137.3446  152.9121 H   0  0  0  0  0  0  0  0  0  0  0  0
  142.0429  137.0733  154.5592 H   0  0  0  0  0  0  0  0  0  0  0  0
  143.9546  137.2212  152.6842 H   0  0  0  0  0  0  0  0  0  0  0  0
  144.8204  137.0496  154.9658 H   0  0  0  0  0  0  0  0  0  0  0  0
  144.4318  135.2909  155.0432 H   0  0  0  0  0  0  0  0  0  0  0  0
  146.5742  134.9620  153.9574 H   0  0  0  0  0  0  0  0  0  0  0  0
  147.1053  137.0099  152.2515 H   0  0  0  0  0  0  0  0  0  0  0  0
  147.9103  139.0295  152.3577 H   0  0  0  0  0  0  0  0  0  0  0  0
  147.2567  140.0595  153.5892 H   0  0  0  0  0  0  0  0  0  0  0  0
  149.3346  137.1363  154.0102 H   0  0  0  0  0  0  0  0  0  0  0  0
  151.5987  137.1116  155.0442 H   0  0  0  0  0  0  0  0  0  0  0  0
  145.6593  133.2348  152.2924 H   0  0  0  0  0  0  0  0  0  0  0  0
  144.3925  133.4672  153.4519 H   0  0  0  0  0  0  0  0  0  0  0  0
  143.6133  132.1983  151.4693 H   0  0  0  0  0  0  0  0  0  0  0  0
  142.7019  133.6667  151.6732 H   0  0  0  0  0  0  0  0  0  0  0  0
  144.9648  133.1923  149.6873 H   0  0  0  0  0  0  0  0  0  0  0  0
  143.2763  133.4385  149.3076 H   0  0  0  0  0  0  0  0  0  0  0  0
  144.6275  135.5139  148.9407 H   0  0  0  0  0  0  0  0  0  0  0  0
  143.3790  135.7641  150.1383 H   0  0  0  0  0  0  0  0  0  0  0  0
  145.5220  136.7336  150.8644 H   0  0  0  0  0  0  0  0  0  0  0  0
  146.3294  135.2029  150.7067 H   0  0  0  0  0  0  0  0  0  0  0  0
  1  2  1  0  0  0  0
  1 25  1  0  0  0  0
  1 26  1  0  0  0  0
  1 27  1  0  0  0  0
  2  3  1  0  0  0  0
  2 28  1  0  0  0  0
  2 29  1  0  0  0  0
  3  4  1  0  0  0  0
  4 19  1  0  0  0  0
  4  5  1  0  0  0  0
  4 30  1  0  0  0  0
  5  6  1  0  0  0  0
  5 31  1  0  0  0  0
  5 32  1  0  0  0  0
  6  7  1  0  0  0  0
  6 19  1  0  0  0  0
  6 33  1  0  0  0  0
  7  8  1  0  0  0  0
  7 34  1  0  0  0  0
  8  9  2  0  0  0  0
  8 10  1  0  0  0  0
 10 11  1  0  0  0  0
 10 35  1  0  0  0  0
 10 36  1  0  0  0  0
 11 17  1  0  0  0  0
 11 12  1  0  0  0  0
 12 13  2  0  0  0  0
 12 37  1  0  0  0  0
 13 14  1  0  0  0  0
 13 38  1  0  0  0  0
 14 15  2  0  0  0  0
 14 16  1  0  0  0  0
 16 17  1  0  0  0  0
 17 18  2  0  0  0  0
 19 24  1  0  0  0  0
 19 20  1  0  0  0  0
 20 21  1  0  0  0  0
 20 39  1  0  0  0  0
 20 40  1  0  0  0  0
 21 22  1  0  0  0  0
 21 41  1  0  0  0  0
 21 42  1  0  0  0  0
 22 23  1  0  0  0  0
 22 43  1  0  0  0  0
 22 44  1  0  0  0  0
 23 24  1  0  0  0  0
 23 45  1  0  0  0  0
 23 46  1  0  0  0  0
 24 47  1  0  0  0  0
 24 48  1  0  0  0  0
M  CHG  1  16  -1
M  END
> <s_m_source_file>
AV-unprocessed.smi

> <i_m_source_file_index>
701

> <i_lp_mmshare_version>
43012

> <i_f3d_flags>
0

> <s_epik_input>
W0NIMl0xW0NIMl1bQ0gyXVtDSDJdW0NIMl1DMTJbQ0BIXShPW0NIMl1bQ0gzXSlbQ0gyXVtDQEhdMltOSF1DKD1PKVtDSDJdbjNbY0hdW2NIXWMoPU8pW25IXWMzPU8=

> <s_epik_cmdline>
J2VwaWtfcHl0aG9uJywgJy1waCcsICc3LjAnLCAnLXRuJywgJzgnLCAnLW1hJywgJzIwMCcsICctbWV0YWxfYmluZGluZycsICctaW1hZScsICc8aW5maWxlLm1hZT4nLCAnLW9tYWUnLCAnPG91dGZpbGUubWFlPic=

> <r_lp_tautomer_probability>
0.999537

> <r_epik_Ionization_Penalty>
3.12423

> <r_epik_Ionization_Penalty_Charging>
2.92877e-08

> <r_epik_Ionization_Penalty_Neutral>
3.12423

> <r_epik_State_Penalty>
3.12332

> <r_epik_Charging_Adjusted_Penalty>
3.12332

> <i_epik_Tot_Q>
-1

> <i_epik_Tot_abs_Q>
1

> <r_epik_Metal_State_Penalty>
0.463873

> <b_epik_Metal_Only>
1

> <s_lp_Force_Field>
OPLS_2005

> <r_lp_Energy>
37.69

> <b_lp_Chiralities_Consistent>
1

> <s_lp_Variant>
AV-unprocessed.smi:701-8

> <Gold.Version>
5.8.1

> <Gold.Id.Protein>
6NUR|6NUR_protein|mol2

> <Gold.PLP.Fitness>
45.2402

> <Gold.PLP.PLP>
-36.0535

> <Gold.PLP.part.hbond>
-4.4154

> <Gold.PLP.part.metal>
0.0000

> <Gold.PLP.part.buried>
1.0404

> <Gold.PLP.part.nonpolar>
-32.5967

> <Gold.PLP.part.repulsive>
0.4601

> <Gold.PLP.ligand.clash>
0.0000

> <Gold.PLP.ligand.torsion>
0.7917

> <Gold.PLP.Chemscore.Hbond>
2.5023

> <Gold.PLP.Chemscore.CHOScore>
0.9765

> <Gold.PLP.Chemscore.Metal>
0.0000

> <Gold.Chemscore.Hbonds>
donor molecule, donor type, donor heavy atom, donor atom, acceptor molecule, acceptor atom, score
      L1  H     7    34       P1  7948  0.42
      P1  H  7989  7998       L1    16  0.55
      P1  H  7997  8010       L1    15  1.00
      P1  H  8011  8017       L1    18  0.44
      L1  C    12    37       P1  7948  0.99

> <Gold.PLP.Chemscore.Internal.Correction>
0.3335

> <Gold.Rescore>
     Score         DG    S(hbond)    S(metal)    S(lipo)     H(rot)  DE(clash)    DE(int)     intcor
     12.13     -15.56       2.03        0.00      72.89       2.04       1.02       2.40       ----

> <Gold.Chemscore.Fitness>
12.1307

> <Gold.Chemscore.DG>
-15.5553

> <Gold.Chemscore.ZeroCoef>
-5.4800

> <Gold.Chemscore.Hbond>
2.0266

> <Gold.Chemscore.Metal>
0.0000

> <Gold.Chemscore.Lipo>
72.8928

> <Gold.Chemscore.Internal_Hbond>
0.0000

> <Gold.Chemscore.DEClash>
1.0246

> <Gold.Chemscore.DEInternal>
2.4000

> <Gold.Chemscore.Rot>
2.0399

> <Gold.Chemscore.Internal.Correction>
   9.000000E+99

> <Gold.Chemscore.Hbonds>
donor molecule, donor type, donor heavy atom, donor atom, acceptor molecule, acceptor atom, score
      L1  H     7    34       P1  7948  0.39
      P1  H  7989  7998       L1    16  0.01
      P1  H  7997  8010       L1    15  1.00
      P1  H  8011  8017       L1    18  0.35

> <Gold.Chemscore.Hbond.Weighted>
-6.7690

> <Gold.Chemscore.Metal.Weighted>
-0.0000

> <Gold.Chemscore.Lipo.Weighted>
-8.5285

> <Gold.Chemscore.Internal_Hbond.Weighted>
0.0000

> <Gold.Chemscore.DEClash.Weighted>
1.0246

> <Gold.Chemscore.DEInternal.Weighted>
2.4000

> <Gold.Chemscore.Rot.Weighted>
5.2222

> <Gold.Chemscore.Internal.Correction.Weighted>
   9.000000E+99

> <Gold.Protein.RotatedTorsions>
[ 6907 6896 6895 6894 ] final -166.95 input  -60.11 | X-H torsion
[ 7974 7965 7964 7962 ] final  -53.65 input  175.53 | X-H torsion
[ 8008 7997 7996 7995 ] final   87.88 input   59.86 | X-H torsion
[ 10167 10162 10161 10158 ] final   26.83 input  -65.29 | X-H torsion
[ 10718 10713 10712 10709 ] final  -85.73 input   66.30 | X-H torsion
[ 10763 10752 10751 10750 ] final  119.95 input  -60.55 | X-H torsion
[ 11005 11000 10999 10996 ] final   54.46 input  -57.11 | X-H torsion

> <Gold.Protein.ActiveResidues>
 VAL166  LYS551  ARG553  GLY616  TRP617  ASP618  TYR619  PRO620  LYS621  CYS622 
 ASP623  PHE694  ASN695  SER759  ASP760  ASP761  ALA762  ILE779  LEU786  VAL792 
 PHE793  MET794  SER795  GLU796  ALA797  LYS798  CYS799  TRP800  GLU811  SER814 

> <Gold.Protein.RotatedAtoms>
  151.4518  133.3615  159.2796 H   0  0  0  0  0  0  0  0  0  0  0  0  # atno 6907 bound_to 6896
  150.9085  134.8503  159.7420 H   0  0  0  0  0  0  0  0  0  0  0  0  # atno 6908 bound_to 6896
  152.4919  134.4446  159.9606 H   0  0  0  0  0  0  0  0  0  0  0  0  # atno 6909 bound_to 6896
  145.8944  140.8044  142.9775 H   0  0  0  0  0  0  0  0  0  0  0  0  # atno 7974 bound_to 7965
  155.9808  140.3377  155.6661 H   0  0  0  0  0  0  0  0  0  0  0  0  # atno 8008 bound_to 7997
  155.6551  140.0710  157.2591 H   0  0  0  0  0  0  0  0  0  0  0  0  # atno 8009 bound_to 7997
  154.4191  140.1718  156.1703 H   0  0  0  0  0  0  0  0  0  0  0  0  # atno 8010 bound_to 7997
  140.4990  144.0346  150.6325 H   0  0  0  0  0  0  0  0  0  0  0  0  # atno 10167 bound_to 10162
  155.9994  130.4741  150.4607 H   0  0  0  0  0  0  0  0  0  0  0  0  # atno 10718 bound_to 10713
  153.5910  135.3466  155.2911 H   0  0  0  0  0  0  0  0  0  0  0  0  # atno 10763 bound_to 10752
  154.8652  135.4205  154.2516 H   0  0  0  0  0  0  0  0  0  0  0  0  # atno 10764 bound_to 10752
  153.3323  135.7045  153.7008 H   0  0  0  0  0  0  0  0  0  0  0  0  # atno 10765 bound_to 10752
  140.0685  134.5503  155.9073 H   0  0  0  0  0  0  0  0  0  0  0  0  # atno 11005 bound_to 11000
  144.6732  140.1580  143.7424 LP  0  0  0  0  0  0  0  0  0  0  0  0  # atno 17320 bound_to 7965
  145.8868  139.2353  143.1573 LP  0  0  0  0  0  0  0  0  0  0  0  0  # atno 17321 bound_to 7965
  140.3637  143.2894  152.0356 LP  0  0  0  0  0  0  0  0  0  0  0  0  # atno 17342 bound_to 10162
  139.4867  144.6284  151.7119 LP  0  0  0  0  0  0  0  0  0  0  0  0  # atno 17343 bound_to 10162
  157.2631  131.0571  151.2307 LP  0  0  0  0  0  0  0  0  0  0  0  0  # atno 17370 bound_to 10713
  157.3415  130.7035  149.6384 LP  0  0  0  0  0  0  0  0  0  0  0  0  # atno 17371 bound_to 10713
  141.2002  133.6611  156.5886 LP  0  0  0  0  0  0  0  0  0  0  0  0  # atno 17394 bound_to 11000
  140.3663  134.7644  157.4568 LP  0  0  0  0  0  0  0  0  0  0  0  0  # atno 17395 bound_to 11000

$$$$
