AV-unprocessed.smi:793|AV-procd|sdf|3754|dock5
  -GOLD-   22720 1183D 1   1.00000     0.00000
 Structure written by MMmdl.
 38 39  0  0  0  0  0  0  0  0  2 V2000
  147.1082  135.2359  155.2558 C   0  0  0  0  0  0  0  0  0  0  0  0
  148.6159  135.5114  155.3146 C   0  0  0  0  0  0  0  0  0  0  0  0
  149.0578  136.1158  156.6609 C   0  0  2  0  0  0  0  0  0  0  0  0
  150.4493  136.4265  156.5638 O   0  0  0  0  0  0  0  0  0  0  0  0
  150.8326  137.4031  155.5969 C   0  0  0  0  0  0  0  0  0  0  0  0
  152.2848  137.8700  155.7360 C   0  0  0  0  0  0  0  0  0  0  0  0
  152.3138  139.2649  155.1019 C   0  0  0  0  0  0  0  0  0  0  0  0
  150.8677  139.7846  155.1359 C   0  0  0  0  0  0  0  0  0  0  0  0
  150.0342  138.6881  155.8078 C   0  0  0  0  0  0  0  0  0  0  0  0
  148.8033  135.1475  157.8287 C   0  0  0  0  0  0  0  0  0  0  0  0
  149.2760  134.0109  157.7985 O   0  0  0  0  0  0  0  0  0  0  0  0
  148.0780  135.6484  158.8447 N   0  0  0  0  0  0  0  0  0  0  0  0
  147.7184  135.0304  160.0732 C   0  0  0  0  0  0  0  0  0  0  0  0
  147.4561  133.6439  160.2039 C   0  0  0  0  0  0  0  0  0  0  0  0
  147.0950  133.0591  161.3666 N   0  0  0  0  0  0  0  0  0  0  0  0
  146.9742  133.8445  162.4574 C   0  0  0  0  0  0  0  0  0  0  0  0
  147.1949  135.2352  162.4386 C   0  0  0  0  0  0  0  0  0  0  0  0
  147.5691  135.8407  161.2234 C   0  0  0  0  0  0  0  0  0  0  0  0
  147.7851  137.1909  161.1794 O   0  5  0  0  0  0  0  0  0  0  0  0
  146.8301  134.8036  154.2946 H   0  0  0  0  0  0  0  0  0  0  0  0
  146.5336  136.1532  155.3868 H   0  0  0  0  0  0  0  0  0  0  0  0
  146.8051  134.5365  156.0353 H   0  0  0  0  0  0  0  0  0  0  0  0
  149.1472  134.5750  155.1384 H   0  0  0  0  0  0  0  0  0  0  0  0
  148.8915  136.1792  154.4973 H   0  0  0  0  0  0  0  0  0  0  0  0
  148.4829  137.0287  156.8243 H   0  0  0  0  0  0  0  0  0  0  0  0
  150.6525  137.0535  154.5794 H   0  0  0  0  0  0  0  0  0  0  0  0
  152.5456  137.9456  156.7926 H   0  0  0  0  0  0  0  0  0  0  0  0
  152.9932  137.1871  155.2662 H   0  0  0  0  0  0  0  0  0  0  0  0
  152.9985  139.9274  155.6325 H   0  0  0  0  0  0  0  0  0  0  0  0
  152.6577  139.2000  154.0688 H   0  0  0  0  0  0  0  0  0  0  0  0
  150.7858  140.7314  155.6705 H   0  0  0  0  0  0  0  0  0  0  0  0
  150.5140  139.9529  154.1180 H   0  0  0  0  0  0  0  0  0  0  0  0
  149.0224  138.6232  155.4068 H   0  0  0  0  0  0  0  0  0  0  0  0
  149.9536  138.8985  156.8751 H   0  0  0  0  0  0  0  0  0  0  0  0
  147.8353  136.6265  158.7763 H   0  0  0  0  0  0  0  0  0  0  0  0
  147.5100  132.9734  159.3603 H   0  0  0  0  0  0  0  0  0  0  0  0
  146.6865  133.3501  163.3734 H   0  0  0  0  0  0  0  0  0  0  0  0
  147.0781  135.8218  163.3382 H   0  0  0  0  0  0  0  0  0  0  0  0
  1  2  1  0  0  0  0
  1 20  1  0  0  0  0
  1 21  1  0  0  0  0
  1 22  1  0  0  0  0
  2  3  1  0  0  0  0
  2 23  1  0  0  0  0
  2 24  1  0  0  0  0
  3  4  1  0  0  0  0
  3 10  1  0  0  0  0
  3 25  1  0  0  0  0
  4  5  1  0  0  0  0
  5  9  1  0  0  0  0
  5  6  1  0  0  0  0
  5 26  1  0  0  0  0
  6  7  1  0  0  0  0
  6 27  1  0  0  0  0
  6 28  1  0  0  0  0
  7  8  1  0  0  0  0
  7 29  1  0  0  0  0
  7 30  1  0  0  0  0
  8  9  1  0  0  0  0
  8 31  1  0  0  0  0
  8 32  1  0  0  0  0
  9 33  1  0  0  0  0
  9 34  1  0  0  0  0
 10 11  2  0  0  0  0
 10 12  1  0  0  0  0
 12 35  1  0  0  0  0
 12 13  1  0  0  0  0
 13 18  1  0  0  0  0
 13 14  2  0  0  0  0
 14 36  1  0  0  0  0
 14 15  1  0  0  0  0
 15 16  2  0  0  0  0
 16 37  1  0  0  0  0
 16 17  1  0  0  0  0
 17 18  2  0  0  0  0
 17 38  1  0  0  0  0
 18 19  1  0  0  0  0
M  CHG  1  19  -1
M  END
> <s_m_source_file>
AV-unprocessed.smi

> <i_m_source_file_index>
793

> <i_lp_mmshare_version>
43012

> <i_f3d_flags>
0

> <s_epik_input>
W0NIMl0xW0NIMl1bQ0gyXVtDSDJdW0NIXTFPW0NAQEhdKFtDSDJdW0NIM10pQyg9TylbTkhdYzJbY0hdbltjSF1bY0hdYzJbT0hd

> <s_epik_cmdline>
J2VwaWtfcHl0aG9uJywgJy1waCcsICc3LjAnLCAnLXRuJywgJzgnLCAnLW1hJywgJzIwMCcsICctbWV0YWxfYmluZGluZycsICctaW1hZScsICc8aW5maWxlLm1hZT4nLCAnLW9tYWUnLCAnPG91dGZpbGUubWFlPic=

> <r_lp_tautomer_probability>
1

> <r_epik_Ionization_Penalty>
5.91611

> <r_epik_Ionization_Penalty_Charging>
1.01889

> <r_epik_Ionization_Penalty_Neutral>
4.89722

> <r_epik_State_Penalty>
4.89706

> <r_epik_Charging_Adjusted_Penalty>
5.91595

> <i_epik_Tot_Q>
-1

> <i_epik_Tot_abs_Q>
1

> <r_epik_Metal_State_Penalty>
1.05012

> <b_epik_Metal_Only>
1

> <s_lp_Force_Field>
OPLS_2005

> <r_lp_Energy>
28.2146

> <b_lp_Chiralities_Consistent>
1

> <s_lp_Variant>
AV-unprocessed.smi:793-3

> <Gold.Version>
5.8.1

> <Gold.Id.Protein>
6NUR|6NUR_protein|mol2

> <Gold.PLP.Fitness>
41.8645

> <Gold.PLP.PLP>
-28.4144

> <Gold.PLP.part.hbond>
-3.0000

> <Gold.PLP.part.metal>
0.0000

> <Gold.PLP.part.buried>
-2.2405

> <Gold.PLP.part.nonpolar>
-23.0518

> <Gold.PLP.part.repulsive>
0.0618

> <Gold.PLP.ligand.clash>
0.0000

> <Gold.PLP.ligand.torsion>
0.3296

> <Gold.PLP.Chemscore.Hbond>
4.6800

> <Gold.PLP.Chemscore.CHOScore>
0.0000

> <Gold.PLP.Chemscore.Metal>
0.0000

> <Gold.Chemscore.Hbonds>
donor molecule, donor type, donor heavy atom, donor atom, acceptor molecule, acceptor atom, score
      P1  H  6896  6909       L1    11  0.86
      P1  H  6931  6943       L1    19  1.92
      P1  H  6934  6947       L1    19  1.63

> <Gold.PLP.Chemscore.Internal.Correction>
0.0694

> <Gold.Rescore>
     Score         DG    S(hbond)    S(metal)    S(lipo)     H(rot)  DE(clash)    DE(int)     intcor
     18.23     -19.15       2.74        0.00      71.40       1.49       0.00       0.93       ----

> <Gold.Chemscore.Fitness>
18.2265

> <Gold.Chemscore.DG>
-19.1526

> <Gold.Chemscore.ZeroCoef>
-5.4800

> <Gold.Chemscore.Hbond>
2.7368

> <Gold.Chemscore.Metal>
0.0000

> <Gold.Chemscore.Lipo>
71.4034

> <Gold.Chemscore.Internal_Hbond>
0.0000

> <Gold.Chemscore.DEClash>
0.0009

> <Gold.Chemscore.DEInternal>
0.9252

> <Gold.Chemscore.Rot>
1.4932

> <Gold.Chemscore.Internal.Correction>
   9.000000E+99

> <Gold.Chemscore.Hbonds>
donor molecule, donor type, donor heavy atom, donor atom, acceptor molecule, acceptor atom, score
      P1  H  6896  6909       L1    11  0.55
      P1  H  6931  6943       L1    19  0.92
      P1  H  6934  6947       L1    19  0.81

> <Gold.Chemscore.Hbond.Weighted>
-9.1410

> <Gold.Chemscore.Metal.Weighted>
-0.0000

> <Gold.Chemscore.Lipo.Weighted>
-8.3542

> <Gold.Chemscore.Internal_Hbond.Weighted>
0.0000

> <Gold.Chemscore.DEClash.Weighted>
0.0009

> <Gold.Chemscore.DEInternal.Weighted>
0.9252

> <Gold.Chemscore.Rot.Weighted>
3.8226

> <Gold.Chemscore.Internal.Correction.Weighted>
   9.000000E+99

> <Gold.Protein.RotatedTorsions>
[ 6907 6896 6895 6894 ] final    6.10 input  -60.11 | X-H torsion
[ 7974 7965 7964 7962 ] final  -13.84 input  175.53 | X-H torsion
[ 8008 7997 7996 7995 ] final  113.06 input   59.86 | X-H torsion
[ 10167 10162 10161 10158 ] final  107.85 input  -65.29 | X-H torsion
[ 10718 10713 10712 10709 ] final   24.09 input   66.30 | X-H torsion
[ 10763 10752 10751 10750 ] final -148.07 input  -60.55 | X-H torsion
[ 11005 11000 10999 10996 ] final -177.41 input  -57.11 | X-H torsion

> <Gold.Protein.ActiveResidues>
 VAL166  LYS551  ARG553  GLY616  TRP617  ASP618  TYR619  PRO620  LYS621  CYS622 
 ASP623  PHE694  ASN695  SER759  ASP760  ASP761  ALA762  ILE779  LEU786  VAL792 
 PHE793  MET794  SER795  GLU796  ALA797  LYS798  CYS799  TRP800  GLU811  SER814 

> <Gold.Protein.RotatedAtoms>
  151.6682  135.0980  160.0192 H   0  0  0  0  0  0  0  0  0  0  0  0  # atno 6907 bound_to 6896
  152.3907  133.6671  159.6244 H   0  0  0  0  0  0  0  0  0  0  0  0  # atno 6908 bound_to 6896
  150.7823  133.8876  159.3345 H   0  0  0  0  0  0  0  0  0  0  0  0  # atno 6909 bound_to 6896
  146.2098  140.3262  142.8395 H   0  0  0  0  0  0  0  0  0  0  0  0  # atno 7974 bound_to 7965
  156.2234  140.2987  156.0006 H   0  0  0  0  0  0  0  0  0  0  0  0  # atno 8008 bound_to 7997
  155.2422  140.0423  157.2993 H   0  0  0  0  0  0  0  0  0  0  0  0  # atno 8009 bound_to 7997
  154.5876  140.2392  155.7974 H   0  0  0  0  0  0  0  0  0  0  0  0  # atno 8010 bound_to 7997
  139.6894  144.7109  151.1375 H   0  0  0  0  0  0  0  0  0  0  0  0  # atno 10167 bound_to 10162
  157.1750  130.6776  149.6091 H   0  0  0  0  0  0  0  0  0  0  0  0  # atno 10718 bound_to 10713
  154.8253  135.3344  154.6916 H   0  0  0  0  0  0  0  0  0  0  0  0  # atno 10763 bound_to 10752
  153.7543  135.6937  153.4943 H   0  0  0  0  0  0  0  0  0  0  0  0  # atno 10764 bound_to 10752
  153.2154  135.4467  155.0378 H   0  0  0  0  0  0  0  0  0  0  0  0  # atno 10765 bound_to 10752
  140.4413  134.6429  157.4758 H   0  0  0  0  0  0  0  0  0  0  0  0  # atno 11005 bound_to 11000
  144.8884  140.7492  143.5942 LP  0  0  0  0  0  0  0  0  0  0  0  0  # atno 17320 bound_to 7965
  145.3184  139.1796  143.4601 LP  0  0  0  0  0  0  0  0  0  0  0  0  # atno 17321 bound_to 7965
  140.7678  143.5582  150.9129 LP  0  0  0  0  0  0  0  0  0  0  0  0  # atno 17342 bound_to 10162
  139.9258  143.6552  152.3087 LP  0  0  0  0  0  0  0  0  0  0  0  0  # atno 17343 bound_to 10162
  155.9733  130.4666  150.6295 LP  0  0  0  0  0  0  0  0  0  0  0  0  # atno 17370 bound_to 10713
  157.4007  131.0809  151.1311 LP  0  0  0  0  0  0  0  0  0  0  0  0  # atno 17371 bound_to 10713
  140.0068  134.6751  155.9442 LP  0  0  0  0  0  0  0  0  0  0  0  0  # atno 17394 bound_to 11000
  141.1704  133.6537  156.4632 LP  0  0  0  0  0  0  0  0  0  0  0  0  # atno 17395 bound_to 11000

$$$$
