AV-unprocessed.smi:72|AV-procd|sdf|672|dock4
  -GOLD-   2262016573D 1   1.00000     0.00000
 Structure written by MMmdl.
 29 30  0  0  0  0  0  0  0  0  1 V2000
  147.2946  142.8597  154.1245 N   0  0  0  0  0  0  0  0  0  0  0  0
  148.0192  141.8210  154.3446 C   0  0  0  0  0  0  0  0  0  0  0  0
  147.7846  140.5421  153.8197 N   0  0  0  0  0  0  0  0  0  0  0  0
  148.6209  139.5912  154.1003 C   0  0  0  0  0  0  0  0  0  0  0  0
  149.8202  139.8130  154.9010 N   0  0  0  0  0  0  0  0  0  0  0  0
  150.7818  138.6925  155.2794 C   0  0  1  0  0  0  0  0  0  0  0  0
  150.9200  138.6817  156.6647 O   0  0  0  0  0  0  0  0  0  0  0  0
  149.9952  137.7505  157.2055 C   0  0  2  0  0  0  0  0  0  0  0  0
  150.4065  137.3401  158.6313 C   0  0  0  0  0  0  0  0  0  0  0  0
  151.5910  136.5695  158.6438 O   0  0  0  0  0  0  0  0  0  0  0  0
  149.8832  136.6239  156.1606 C   0  0  1  0  0  0  0  0  0  0  0  0
  148.5403  136.1932  156.0609 O   0  0  0  0  0  0  0  0  0  0  0  0
  150.3364  137.2773  154.8485 C   0  0  2  0  0  0  0  0  0  0  0  0
  151.4180  136.5562  154.2935 O   0  0  0  0  0  0  0  0  0  0  0  0
  150.0152  141.0792  155.5110 C   0  0  0  0  0  0  0  0  0  0  0  0
  150.9480  141.3099  156.2801 O   0  0  0  0  0  0  0  0  0  0  0  0
  149.1151  142.0335  155.1894 N   0  0  0  0  0  0  0  0  0  0  0  0
  151.7289  138.9628  154.8099 H   0  0  0  0  0  0  0  0  0  0  0  0
  149.0436  138.2805  157.2747 H   0  0  0  0  0  0  0  0  0  0  0  0
  150.5152  135.7711  156.4106 H   0  0  0  0  0  0  0  0  0  0  0  0
  149.5622  137.3163  154.0827 H   0  0  0  0  0  0  0  0  0  0  0  0
  147.6621  143.6607  154.6172 H   0  0  0  0  0  0  0  0  0  0  0  0
  148.4669  138.5690  153.7581 H   0  0  0  0  0  0  0  0  0  0  0  0
  150.5387  138.2212  159.2596 H   0  0  0  0  0  0  0  0  0  0  0  0
  149.6143  136.7425  159.0830 H   0  0  0  0  0  0  0  0  0  0  0  0
  152.2934  137.0912  158.2864 H   0  0  0  0  0  0  0  0  0  0  0  0
  148.0094  136.9312  155.8026 H   0  0  0  0  0  0  0  0  0  0  0  0
  151.2783  136.4733  153.3625 H   0  0  0  0  0  0  0  0  0  0  0  0
  149.2436  142.9487  155.5953 H   0  0  0  0  0  0  0  0  0  0  0  0
  1  2  2  0  0  0  0
  1 22  1  0  0  0  0
  2 17  1  0  0  0  0
  2  3  1  0  0  0  0
  3  4  2  0  0  0  0
  4  5  1  0  0  0  0
  4 23  1  0  0  0  0
  5  6  1  0  0  0  0
  5 15  1  0  0  0  0
  6 18  1  0  0  0  0
  6 13  1  0  0  0  0
  6  7  1  0  0  0  0
  7  8  1  0  0  0  0
  8 19  1  0  0  0  0
  8  9  1  0  0  0  0
  8 11  1  0  0  0  0
  9 10  1  0  0  0  0
  9 24  1  0  0  0  0
  9 25  1  0  0  0  0
 10 26  1  0  0  0  0
 11 20  1  0  0  0  0
 11 12  1  0  0  0  0
 11 13  1  0  0  0  0
 12 27  1  0  0  0  0
 13 21  1  0  0  0  0
 13 14  1  0  0  0  0
 14 28  1  0  0  0  0
 15 16  2  0  0  0  0
 15 17  1  0  0  0  0
 17 29  1  0  0  0  0
M  END
> <s_m_source_file>
AV-unprocessed.smi

> <i_m_source_file_index>
72

> <i_lp_mmshare_version>
43012

> <i_f3d_flags>
0

> <s_epik_input>
W05IMl1jMW5bY0hdbihjKD1PKW4xKVtDQEBIXTJPW0NASF0oW0NIMl1bT0hdKVtDQEBIXShbT0hdKVtDQEhdMltPSF0=

> <s_epik_cmdline>
J2VwaWtfcHl0aG9uJywgJy1waCcsICc3LjAnLCAnLXRuJywgJzgnLCAnLW1hJywgJzIwMCcsICctbWV0YWxfYmluZGluZycsICctaW1hZScsICc8aW5maWxlLm1hZT4nLCAnLW9tYWUnLCAnPG91dGZpbGUubWFlPic=

> <r_lp_tautomer_probability>
7.17554e-07

> <r_epik_Ionization_Penalty>
0.0066451

> <r_epik_Ionization_Penalty_Charging>
0.00663793

> <r_epik_Ionization_Penalty_Neutral>
7.17052e-06

> <r_epik_State_Penalty>
0.419231

> <r_epik_Charging_Adjusted_Penalty>
0.425868

> <i_epik_Tot_Q>
0

> <i_epik_Tot_abs_Q>
0

> <r_epik_Metal_State_Penalty>
1.44144

> <b_epik_Metal_Only>
0

> <s_epik_Chemistry_Notes>
This compound contains an acetal/aminal-like group ( X-CH(R)-Y where X, Y are N, S, or O) that may be acid/base labile, releasing an aldehyde.

> <s_lp_Force_Field>
OPLS_2005

> <r_lp_Energy>
39.4446

> <b_lp_Chiralities_Consistent>
1

> <s_lp_Variant>
AV-unprocessed.smi:72-10

> <Gold.Version>
5.8.1

> <Gold.Id.Protein>
6NUR|6NUR_protein|mol2

> <Gold.PLP.Fitness>
37.6076

> <Gold.PLP.PLP>
-23.6997

> <Gold.PLP.part.hbond>
-5.7767

> <Gold.PLP.part.metal>
0.0000

> <Gold.PLP.part.buried>
-4.0515

> <Gold.PLP.part.nonpolar>
-15.0773

> <Gold.PLP.part.repulsive>
0.3936

> <Gold.PLP.ligand.clash>
0.0000

> <Gold.PLP.ligand.torsion>
0.2131

> <Gold.PLP.Chemscore.Hbond>
4.7520

> <Gold.PLP.Chemscore.CHOScore>
0.0000

> <Gold.PLP.Chemscore.Metal>
0.0000

> <Gold.Chemscore.Hbonds>
donor molecule, donor type, donor heavy atom, donor atom, acceptor molecule, acceptor atom, score
      L1  H     1    22       P1  8028  1.00
      L1  H    14    28       P1  7949  1.00
      L1  H    17    29       P1  8028  1.00
      P1  H  6896  6908       L1    10  0.74
      P1  H 10752 10764       L1    14  1.00

> <Gold.PLP.Chemscore.Internal.Correction>
0.0781

> <Gold.Rescore>
     Score         DG    S(hbond)    S(metal)    S(lipo)     H(rot)  DE(clash)    DE(int)     intcor
      3.95      -6.07       2.78        0.00      14.38       4.06       0.00       2.11       ----

> <Gold.Chemscore.Fitness>
3.9490

> <Gold.Chemscore.DG>
-6.0657

> <Gold.Chemscore.ZeroCoef>
-5.4800

> <Gold.Chemscore.Hbond>
2.7834

> <Gold.Chemscore.Metal>
0.0000

> <Gold.Chemscore.Lipo>
14.3820

> <Gold.Chemscore.Internal_Hbond>
0.0000

> <Gold.Chemscore.DEClash>
0.0021

> <Gold.Chemscore.DEInternal>
2.1145

> <Gold.Chemscore.Rot>
4.0600

> <Gold.Chemscore.Internal.Correction>
   9.000000E+99

> <Gold.Chemscore.Hbonds>
donor molecule, donor type, donor heavy atom, donor atom, acceptor molecule, acceptor atom, score
      L1  H     1    22       P1  8028  0.25
      L1  H    14    28       P1  7949  0.60
      L1  H    17    29       P1  8028  0.95
      P1  H  6896  6908       L1    10  0.55
      P1  H 10752 10764       L1    14  0.48

> <Gold.Chemscore.Hbond.Weighted>
-9.2966

> <Gold.Chemscore.Metal.Weighted>
-0.0000

> <Gold.Chemscore.Lipo.Weighted>
-1.6827

> <Gold.Chemscore.Internal_Hbond.Weighted>
0.0000

> <Gold.Chemscore.DEClash.Weighted>
0.0021

> <Gold.Chemscore.DEInternal.Weighted>
2.1145

> <Gold.Chemscore.Rot.Weighted>
10.3936

> <Gold.Chemscore.Internal.Correction.Weighted>
   9.000000E+99

> <Gold.Protein.RotatedTorsions>
[ 6907 6896 6895 6894 ] final -129.27 input  -60.11 | X-H torsion
[ 7974 7965 7964 7962 ] final -118.47 input  175.53 | X-H torsion
[ 8008 7997 7996 7995 ] final   20.01 input   59.86 | X-H torsion
[ 10167 10162 10161 10158 ] final  141.92 input  -65.29 | X-H torsion
[ 10718 10713 10712 10709 ] final -145.82 input   66.30 | X-H torsion
[ 10763 10752 10751 10750 ] final  -56.09 input  -60.55 | X-H torsion
[ 11005 11000 10999 10996 ] final -122.36 input  -57.11 | X-H torsion

> <Gold.Protein.ActiveResidues>
 VAL166  LYS551  ARG553  GLY616  TRP617  ASP618  TYR619  PRO620  LYS621  CYS622 
 ASP623  PHE694  ASN695  SER759  ASP760  ASP761  ALA762  ILE779  LEU786  VAL792 
 PHE793  MET794  SER795  GLU796  ALA797  LYS798  CYS799  TRP800  GLU811  SER814 

> <Gold.Protein.RotatedAtoms>
  150.9269  133.6813  159.2819 H   0  0  0  0  0  0  0  0  0  0  0  0  # atno 6907 bound_to 6896
  151.4249  135.1001  159.9634 H   0  0  0  0  0  0  0  0  0  0  0  0  # atno 6908 bound_to 6896
  152.5007  133.8712  159.7354 H   0  0  0  0  0  0  0  0  0  0  0  0  # atno 6909 bound_to 6896
  145.0734  140.8375  143.4082 H   0  0  0  0  0  0  0  0  0  0  0  0  # atno 7974 bound_to 7965
  154.9293  140.3038  155.5176 H   0  0  0  0  0  0  0  0  0  0  0  0  # atno 8008 bound_to 7997
  156.3004  140.2357  156.4288 H   0  0  0  0  0  0  0  0  0  0  0  0  # atno 8009 bound_to 7997
  154.8253  140.0421  157.1428 H   0  0  0  0  0  0  0  0  0  0  0  0  # atno 8010 bound_to 7997
  139.5008  144.6141  151.6205 H   0  0  0  0  0  0  0  0  0  0  0  0  # atno 10167 bound_to 10162
  156.3872  130.7867  151.2065 H   0  0  0  0  0  0  0  0  0  0  0  0  # atno 10718 bound_to 10713
  154.2011  135.6411  153.5087 H   0  0  0  0  0  0  0  0  0  0  0  0  # atno 10763 bound_to 10752
  153.0012  135.5451  154.6314 H   0  0  0  0  0  0  0  0  0  0  0  0  # atno 10764 bound_to 10752
  154.5727  135.2918  155.0784 H   0  0  0  0  0  0  0  0  0  0  0  0  # atno 10765 bound_to 10752
  141.0001  134.0416  157.3549 H   0  0  0  0  0  0  0  0  0  0  0  0  # atno 11005 bound_to 11000
  145.1265  139.2660  143.5561 LP  0  0  0  0  0  0  0  0  0  0  0  0  # atno 17320 bound_to 7965
  146.3529  140.0903  142.8613 LP  0  0  0  0  0  0  0  0  0  0  0  0  # atno 17321 bound_to 7965
  140.5823  143.9924  150.6275 LP  0  0  0  0  0  0  0  0  0  0  0  0  # atno 17342 bound_to 10162
  140.3077  143.3218  152.0910 LP  0  0  0  0  0  0  0  0  0  0  0  0  # atno 17343 bound_to 10162
  157.7496  131.0326  150.4236 LP  0  0  0  0  0  0  0  0  0  0  0  0  # atno 17370 bound_to 10713
  156.4491  130.4007  149.6648 LP  0  0  0  0  0  0  0  0  0  0  0  0  # atno 17371 bound_to 10713
  139.9034  135.0172  156.7375 LP  0  0  0  0  0  0  0  0  0  0  0  0  # atno 17394 bound_to 11000
  140.6903  133.9396  155.7962 LP  0  0  0  0  0  0  0  0  0  0  0  0  # atno 17395 bound_to 11000

$$$$
