AV-unprocessed.smi:2151|AV-procd|sdf|8758|dock1
  -GOLD-   2272011533D 1   1.00000     0.00000
 Structure written by MMmdl.
 39 40  0  0  0  0  0  0  0  0  1 V2000
  150.9834  137.7320  154.2516 C   0  0  0  0  0  0  0  0  0  0  0  0
  150.8611  139.2015  154.6920 C   0  0  2  0  0  0  0  0  0  0  0  0
  150.7882  139.2744  156.1489 N   0  0  0  0  0  0  0  0  0  0  0  0
  151.8381  139.3923  156.9759 C   0  0  0  0  0  0  0  0  0  0  0  0
  153.0054  139.4281  156.5837 O   0  0  0  0  0  0  0  0  0  0  0  0
  151.5075  139.4573  158.4738 C   0  0  0  0  0  0  0  0  0  0  0  0
  152.1042  140.6200  159.1521 N   0  0  0  0  0  0  0  0  0  0  0  0
  151.5481  141.8826  158.8674 C   0  0  0  0  0  0  0  0  0  0  0  0
  152.0035  143.0250  159.4168 C   0  0  0  0  0  0  0  0  0  0  0  0
  151.3404  144.3659  159.1428 C   0  0  0  0  0  0  0  0  0  0  0  0
  151.8315  145.3148  159.9401 F   0  0  0  0  0  0  0  0  0  0  0  0
  151.5605  144.7303  157.8805 F   0  0  0  0  0  0  0  0  0  0  0  0
  150.0218  144.3007  159.3323 F   0  0  0  0  0  0  0  0  0  0  0  0
  153.0977  142.8959  160.3590 C   0  0  0  0  0  0  0  0  0  0  0  0
  153.6315  141.6943  160.6533 C   0  0  0  0  0  0  0  0  0  0  0  0
  153.1347  140.4625  160.0360 C   0  0  0  0  0  0  0  0  0  0  0  0
  153.6138  139.3589  160.2973 O   0  0  0  0  0  0  0  0  0  0  0  0
  149.6197  139.8879  154.0909 C   0  0  2  0  0  0  0  0  0  0  0  0
  149.3653  141.3113  154.5946 C   0  0  0  0  0  0  0  0  0  0  0  0
  147.8555  141.4768  154.4933 C   0  0  0  0  0  0  0  0  0  0  0  0
  147.3445  140.0703  154.1760 C   0  0  0  0  0  0  0  0  0  0  0  0
  148.4336  139.2151  154.4864 O   0  0  0  0  0  0  0  0  0  0  0  0
  151.0773  137.6485  153.1688 H   0  0  0  0  0  0  0  0  0  0  0  0
  150.1111  137.1527  154.5559 H   0  0  0  0  0  0  0  0  0  0  0  0
  151.8643  137.2600  154.6879 H   0  0  0  0  0  0  0  0  0  0  0  0
  151.7469  139.7428  154.3538 H   0  0  0  0  0  0  0  0  0  0  0  0
  149.8647  139.2540  156.5569 H   0  0  0  0  0  0  0  0  0  0  0  0
  150.4237  139.4591  158.6049 H   0  0  0  0  0  0  0  0  0  0  0  0
  151.8480  138.5304  158.9374 H   0  0  0  0  0  0  0  0  0  0  0  0
  150.7148  141.8604  158.1801 H   0  0  0  0  0  0  0  0  0  0  0  0
  153.4984  143.7783  160.8356 H   0  0  0  0  0  0  0  0  0  0  0  0
  154.4466  141.6362  161.3598 H   0  0  0  0  0  0  0  0  0  0  0  0
  149.6744  139.8868  153.0002 H   0  0  0  0  0  0  0  0  0  0  0  0
  149.6705  141.4066  155.6376 H   0  0  0  0  0  0  0  0  0  0  0  0
  149.9100  142.0589  154.0176 H   0  0  0  0  0  0  0  0  0  0  0  0
  147.4488  141.8404  155.4375 H   0  0  0  0  0  0  0  0  0  0  0  0
  147.5719  142.1820  153.7115 H   0  0  0  0  0  0  0  0  0  0  0  0
  146.4553  139.8063  154.7487 H   0  0  0  0  0  0  0  0  0  0  0  0
  147.1073  139.9779  153.1152 H   0  0  0  0  0  0  0  0  0  0  0  0
  1  2  1  0  0  0  0
  1 23  1  0  0  0  0
  1 24  1  0  0  0  0
  1 25  1  0  0  0  0
  2  3  1  0  0  0  0
  2 18  1  0  0  0  0
  2 26  1  0  0  0  0
  3  4  1  0  0  0  0
  3 27  1  0  0  0  0
  4  5  2  0  0  0  0
  4  6  1  0  0  0  0
  6  7  1  0  0  0  0
  6 28  1  0  0  0  0
  6 29  1  0  0  0  0
  7 16  1  0  0  0  0
  7  8  1  0  0  0  0
  8  9  2  0  0  0  0
  8 30  1  0  0  0  0
  9 10  1  0  0  0  0
  9 14  1  0  0  0  0
 10 11  1  0  0  0  0
 10 12  1  0  0  0  0
 10 13  1  0  0  0  0
 14 15  2  0  0  0  0
 14 31  1  0  0  0  0
 15 16  1  0  0  0  0
 15 32  1  0  0  0  0
 16 17  2  0  0  0  0
 18 22  1  0  0  0  0
 18 19  1  0  0  0  0
 18 33  1  0  0  0  0
 19 20  1  0  0  0  0
 19 34  1  0  0  0  0
 19 35  1  0  0  0  0
 20 21  1  0  0  0  0
 20 36  1  0  0  0  0
 20 37  1  0  0  0  0
 21 22  1  0  0  0  0
 21 38  1  0  0  0  0
 21 39  1  0  0  0  0
M  END
> <s_m_source_file>
AV-unprocessed.smi

> <i_m_source_file_index>
2151

> <i_lp_mmshare_version>
43012

> <i_f3d_flags>
0

> <s_epik_input>
TzFbQ0gyXVtDSDJdW0NIMl1bQ0BIXTFbQ0BIXShbQ0gzXSlbTkhdQyg9TylbQ0gyXW4yW2NIXWMoQyhGKShGKUYpW2NIXVtjSF1jMj1P

> <s_epik_cmdline>
J2VwaWtfcHl0aG9uJywgJy1waCcsICc3LjAnLCAnLXRuJywgJzgnLCAnLW1hJywgJzIwMCcsICctbWV0YWxfYmluZGluZycsICctaW1hZScsICc8aW5maWxlLm1hZT4nLCAnLW9tYWUnLCAnPG91dGZpbGUubWFlPic=

> <r_lp_tautomer_probability>
1

> <r_epik_Ionization_Penalty>
4.20109e-08

> <r_epik_Ionization_Penalty_Charging>
1.89977e-08

> <r_epik_Ionization_Penalty_Neutral>
2.30132e-08

> <r_epik_State_Penalty>
-0

> <r_epik_Charging_Adjusted_Penalty>
1.89977e-08

> <i_epik_Tot_Q>
0

> <i_epik_Tot_abs_Q>
0

> <r_epik_Metal_State_Penalty>
-0

> <b_epik_Metal_Only>
0

> <s_lp_Force_Field>
OPLS_2005

> <r_lp_Energy>
29.9007

> <b_lp_Chiralities_Consistent>
1

> <s_lp_Variant>
AV-unprocessed.smi:2151-1

> <Gold.Version>
5.8.1

> <Gold.Id.Protein>
6NUR|6NUR_protein|mol2

> <Gold.PLP.Fitness>
52.2941

> <Gold.PLP.PLP>
-50.5720

> <Gold.PLP.part.hbond>
-0.9737

> <Gold.PLP.part.metal>
0.0000

> <Gold.PLP.part.buried>
-4.5611

> <Gold.PLP.part.nonpolar>
-45.6626

> <Gold.PLP.part.repulsive>
0.1662

> <Gold.PLP.ligand.clash>
0.0000

> <Gold.PLP.ligand.torsion>
0.7216

> <Gold.PLP.Chemscore.Hbond>
1.0000

> <Gold.PLP.Chemscore.CHOScore>
0.0000

> <Gold.PLP.Chemscore.Metal>
0.0000

> <Gold.Chemscore.Hbonds>
donor molecule, donor type, donor heavy atom, donor atom, acceptor molecule, acceptor atom, score
      P1  H  7997  8009       L1     5  0.99

> <Gold.PLP.Chemscore.Internal.Correction>
0.1654

> <Gold.Rescore>
     Score         DG    S(hbond)    S(metal)    S(lipo)     H(rot)  DE(clash)    DE(int)     intcor
     15.35     -15.84       0.99        0.00     100.25       1.82       0.01       0.48       ----

> <Gold.Chemscore.Fitness>
15.3462

> <Gold.Chemscore.DG>
-15.8405

> <Gold.Chemscore.ZeroCoef>
-5.4800

> <Gold.Chemscore.Hbond>
0.9873

> <Gold.Chemscore.Metal>
0.0000

> <Gold.Chemscore.Lipo>
100.2516

> <Gold.Chemscore.Internal_Hbond>
0.0000

> <Gold.Chemscore.DEClash>
0.0139

> <Gold.Chemscore.DEInternal>
0.4804

> <Gold.Chemscore.Rot>
1.8228

> <Gold.Chemscore.Internal.Correction>
   9.000000E+99

> <Gold.Chemscore.Hbonds>
donor molecule, donor type, donor heavy atom, donor atom, acceptor molecule, acceptor atom, score
      P1  H  7997  8009       L1     5  0.92

> <Gold.Chemscore.Hbond.Weighted>
-3.2976

> <Gold.Chemscore.Metal.Weighted>
-0.0000

> <Gold.Chemscore.Lipo.Weighted>
-11.7294

> <Gold.Chemscore.Internal_Hbond.Weighted>
0.0000

> <Gold.Chemscore.DEClash.Weighted>
0.0139

> <Gold.Chemscore.DEInternal.Weighted>
0.4804

> <Gold.Chemscore.Rot.Weighted>
4.6665

> <Gold.Chemscore.Internal.Correction.Weighted>
   9.000000E+99

> <Gold.Protein.RotatedTorsions>
[ 6907 6896 6895 6894 ] final  145.19 input  -60.11 | X-H torsion
[ 7974 7965 7964 7962 ] final  -37.10 input  175.53 | X-H torsion
[ 8008 7997 7996 7995 ] final  177.40 input   59.86 | X-H torsion
[ 10167 10162 10161 10158 ] final -164.38 input  -65.29 | X-H torsion
[ 10718 10713 10712 10709 ] final -143.39 input   66.30 | X-H torsion
[ 10763 10752 10751 10750 ] final   38.49 input  -60.55 | X-H torsion
[ 11005 11000 10999 10996 ] final  -77.19 input  -57.11 | X-H torsion

> <Gold.Protein.ActiveResidues>
 VAL166  LYS551  ARG553  GLY616  TRP617  ASP618  TYR619  PRO620  LYS621  CYS622 
 ASP623  PHE694  ASN695  SER759  ASP760  ASP761  ALA762  ILE779  LEU786  VAL792 
 PHE793  MET794  SER795  GLU796  ALA797  LYS798  CYS799  TRP800  GLU811  SER814 

> <Gold.Protein.RotatedAtoms>
  152.1840  133.4727  159.4972 H   0  0  0  0  0  0  0  0  0  0  0  0  # atno 6907 bound_to 6896
  150.6939  134.1797  159.4253 H   0  0  0  0  0  0  0  0  0  0  0  0  # atno 6908 bound_to 6896
  151.9709  135.0077  160.0603 H   0  0  0  0  0  0  0  0  0  0  0  0  # atno 6909 bound_to 6896
  146.0604  140.6357  142.9000 H   0  0  0  0  0  0  0  0  0  0  0  0  # atno 7974 bound_to 7965
  156.0661  140.1359  156.9884 H   0  0  0  0  0  0  0  0  0  0  0  0  # atno 8008 bound_to 7997
  154.4507  140.0981  156.6660 H   0  0  0  0  0  0  0  0  0  0  0  0  # atno 8009 bound_to 7997
  155.5302  140.3458  155.4427 H   0  0  0  0  0  0  0  0  0  0  0  0  # atno 8010 bound_to 7997
  139.6254  144.0542  152.1970 H   0  0  0  0  0  0  0  0  0  0  0  0  # atno 10167 bound_to 10162
  156.3574  130.7720  151.1882 H   0  0  0  0  0  0  0  0  0  0  0  0  # atno 10718 bound_to 10713
  152.9999  135.6248  154.2313 H   0  0  0  0  0  0  0  0  0  0  0  0  # atno 10763 bound_to 10752
  154.2055  135.2802  155.2978 H   0  0  0  0  0  0  0  0  0  0  0  0  # atno 10764 bound_to 10752
  154.5649  135.5694  153.7100 H   0  0  0  0  0  0  0  0  0  0  0  0  # atno 10765 bound_to 10752
  141.1659  133.7013  156.7783 H   0  0  0  0  0  0  0  0  0  0  0  0  # atno 11005 bound_to 11000
  144.7171  140.4248  143.7036 LP  0  0  0  0  0  0  0  0  0  0  0  0  # atno 17320 bound_to 7965
  145.6570  139.1575  143.2829 LP  0  0  0  0  0  0  0  0  0  0  0  0  # atno 17321 bound_to 7965
  140.0194  144.6164  150.7579 LP  0  0  0  0  0  0  0  0  0  0  0  0  # atno 17342 bound_to 10162
  140.7408  143.2809  151.3602 LP  0  0  0  0  0  0  0  0  0  0  0  0  # atno 17343 bound_to 10162
  157.7469  131.0410  150.4625 LP  0  0  0  0  0  0  0  0  0  0  0  0  # atno 17370 bound_to 10713
  156.4830  130.4078  149.6450 LP  0  0  0  0  0  0  0  0  0  0  0  0  # atno 17371 bound_to 10713
  140.2413  134.8611  157.3576 LP  0  0  0  0  0  0  0  0  0  0  0  0  # atno 17394 bound_to 11000
  140.1793  134.4510  155.7782 LP  0  0  0  0  0  0  0  0  0  0  0  0  # atno 17395 bound_to 11000

$$$$
