AV-unprocessed.smi:1574|AV-procd|sdf|6336|dock1
  -GOLD-   22720 6553D 1   1.00000     0.00000
 Structure written by MMmdl.
 40 41  0  0  0  0  0  0  0  0  1 V2000
  151.2693  145.3126  159.0140 C   0  0  0  0  0  0  0  0  0  0  0  0
  152.1931  144.3074  159.7187 C   0  0  1  0  0  0  0  0  0  0  0  0
  151.8155  144.1351  161.2035 C   0  0  0  0  0  0  0  0  0  0  0  0
  152.7700  143.1675  161.9207 C   0  0  0  0  0  0  0  0  0  0  0  0
  152.8281  141.8084  161.2075 C   0  0  0  0  0  0  0  0  0  0  0  0
  153.2037  141.9719  159.7249 C   0  0  0  0  0  0  0  0  0  0  0  0
  152.2539  142.9402  158.9963 C   0  0  1  0  0  0  0  0  0  0  0  0
  150.9639  142.3424  158.9786 O   0  0  0  0  0  0  0  0  0  0  0  0
  150.9138  141.0510  158.3936 C   0  0  0  0  0  0  0  0  0  0  0  0
  151.2634  141.1613  156.9029 C   0  0  0  0  0  0  0  0  0  0  0  0
  150.0796  141.4366  156.0956 N   0  0  0  0  0  0  0  0  0  0  0  0
  149.7496  140.7999  154.9609 C   0  0  0  0  0  0  0  0  0  0  0  0
  150.4310  139.9080  154.4561 O   0  0  0  0  0  0  0  0  0  0  0  0
  148.4497  141.2369  154.2871 C   0  0  0  0  0  0  0  0  0  0  0  0
  147.5301  140.1216  154.1736 N   0  0  0  0  0  0  0  0  0  0  0  0
  147.6149  138.9822  153.4840 C   0  0  0  0  0  0  0  0  0  0  0  0
  146.5361  138.2314  153.6465 N   0  0  0  0  0  0  0  0  0  0  0  0
  145.7514  138.9886  154.5004 N   0  0  0  0  0  0  0  0  0  0  0  0
  146.3358  140.1115  154.8165 N   0  0  0  0  0  0  0  0  0  0  0  0
  150.2291  144.9874  159.0429 H   0  0  0  0  0  0  0  0  0  0  0  0
  151.5523  145.4413  157.9691 H   0  0  0  0  0  0  0  0  0  0  0  0
  151.3211  146.2910  159.4919 H   0  0  0  0  0  0  0  0  0  0  0  0
  153.1979  144.7312  159.6865 H   0  0  0  0  0  0  0  0  0  0  0  0
  151.8336  145.1022  161.7070 H   0  0  0  0  0  0  0  0  0  0  0  0
  150.7924  143.7664  161.2863 H   0  0  0  0  0  0  0  0  0  0  0  0
  153.7695  143.6022  161.9594 H   0  0  0  0  0  0  0  0  0  0  0  0
  152.4514  143.0304  162.9546 H   0  0  0  0  0  0  0  0  0  0  0  0
  153.5497  141.1589  161.7038 H   0  0  0  0  0  0  0  0  0  0  0  0
  151.8602  141.3116  161.2896 H   0  0  0  0  0  0  0  0  0  0  0  0
  154.2259  142.3451  159.6516 H   0  0  0  0  0  0  0  0  0  0  0  0
  153.1967  141.0003  159.2299 H   0  0  0  0  0  0  0  0  0  0  0  0
  152.6304  143.0823  157.9811 H   0  0  0  0  0  0  0  0  0  0  0  0
  151.6022  140.3661  158.8907 H   0  0  0  0  0  0  0  0  0  0  0  0
  149.9083  140.6451  158.5119 H   0  0  0  0  0  0  0  0  0  0  0  0
  151.9600  141.9868  156.7559 H   0  0  0  0  0  0  0  0  0  0  0  0
  151.7739  140.2609  156.5570 H   0  0  0  0  0  0  0  0  0  0  0  0
  149.4600  142.1606  156.4295 H   0  0  0  0  0  0  0  0  0  0  0  0
  147.9749  142.0244  154.8738 H   0  0  0  0  0  0  0  0  0  0  0  0
  148.6498  141.6487  153.2965 H   0  0  0  0  0  0  0  0  0  0  0  0
  148.4573  138.7084  152.8662 H   0  0  0  0  0  0  0  0  0  0  0  0
  1  2  1  0  0  0  0
  1 20  1  0  0  0  0
  1 21  1  0  0  0  0
  1 22  1  0  0  0  0
  2  7  1  0  0  0  0
  2  3  1  0  0  0  0
  2 23  1  0  0  0  0
  3  4  1  0  0  0  0
  3 24  1  0  0  0  0
  3 25  1  0  0  0  0
  4  5  1  0  0  0  0
  4 26  1  0  0  0  0
  4 27  1  0  0  0  0
  5  6  1  0  0  0  0
  5 28  1  0  0  0  0
  5 29  1  0  0  0  0
  6  7  1  0  0  0  0
  6 30  1  0  0  0  0
  6 31  1  0  0  0  0
  7  8  1  0  0  0  0
  7 32  1  0  0  0  0
  8  9  1  0  0  0  0
  9 10  1  0  0  0  0
  9 33  1  0  0  0  0
  9 34  1  0  0  0  0
 10 11  1  0  0  0  0
 10 35  1  0  0  0  0
 10 36  1  0  0  0  0
 11 12  1  0  0  0  0
 11 37  1  0  0  0  0
 12 13  2  0  0  0  0
 12 14  1  0  0  0  0
 14 15  1  0  0  0  0
 14 38  1  0  0  0  0
 14 39  1  0  0  0  0
 15 19  1  0  0  0  0
 15 16  1  0  0  0  0
 16 17  2  0  0  0  0
 16 40  1  0  0  0  0
 17 18  1  0  0  0  0
 18 19  2  0  0  0  0
M  END
> <s_m_source_file>
AV-unprocessed.smi

> <i_m_source_file_index>
1574

> <i_lp_mmshare_version>
43012

> <i_f3d_flags>
0

> <s_epik_input>
W0NIM11bQ0BASF0xW0NIMl1bQ0gyXVtDSDJdW0NIMl1bQ0BIXTFPW0NIMl1bQ0gyXVtOSF1DKD1PKVtDSDJdbjJbY0hdbm5uMg==

> <s_epik_cmdline>
J2VwaWtfcHl0aG9uJywgJy1waCcsICc3LjAnLCAnLXRuJywgJzgnLCAnLW1hJywgJzIwMCcsICctbWV0YWxfYmluZGluZycsICctaW1hZScsICc8aW5maWxlLm1hZT4nLCAnLW9tYWUnLCAnPG91dGZpbGUubWFlPic=

> <r_lp_tautomer_probability>
1

> <r_epik_Ionization_Penalty>
1.44269e-06

> <r_epik_Ionization_Penalty_Charging>
0

> <r_epik_Ionization_Penalty_Neutral>
1.44269e-06

> <r_epik_State_Penalty>
-0

> <r_epik_Charging_Adjusted_Penalty>
0

> <i_epik_Tot_Q>
0

> <i_epik_Tot_abs_Q>
0

> <r_epik_Metal_State_Penalty>
-0

> <b_epik_Metal_Only>
0

> <s_lp_Force_Field>
OPLS_2005

> <r_lp_Energy>
13.6049

> <b_lp_Chiralities_Consistent>
1

> <s_lp_Variant>
AV-unprocessed.smi:1574-2

> <Gold.Version>
5.8.1

> <Gold.Id.Protein>
6NUR|6NUR_protein|mol2

> <Gold.PLP.Fitness>
48.5891

> <Gold.PLP.PLP>
-41.4508

> <Gold.PLP.part.hbond>
-1.0000

> <Gold.PLP.part.metal>
0.0000

> <Gold.PLP.part.buried>
-5.3593

> <Gold.PLP.part.nonpolar>
-35.8106

> <Gold.PLP.part.repulsive>
0.5788

> <Gold.PLP.ligand.clash>
0.0000

> <Gold.PLP.ligand.torsion>
0.2730

> <Gold.PLP.Chemscore.Hbond>
1.0000

> <Gold.PLP.Chemscore.CHOScore>
1.5407

> <Gold.PLP.Chemscore.Metal>
0.0000

> <Gold.Chemscore.Hbonds>
donor molecule, donor type, donor heavy atom, donor atom, acceptor molecule, acceptor atom, score
      P1  H  7989  7998       L1    13  1.00
      L1  C    16    40       P1  7948  0.56
      L1  C    16    40       P1  7957  0.99

> <Gold.PLP.Chemscore.Internal.Correction>
0.0623

> <Gold.Rescore>
     Score         DG    S(hbond)    S(metal)    S(lipo)     H(rot)  DE(clash)    DE(int)     intcor
     12.61     -12.95       0.93        0.00     100.93       2.90       0.09       0.25       ----

> <Gold.Chemscore.Fitness>
12.6140

> <Gold.Chemscore.DG>
-12.9539

> <Gold.Chemscore.ZeroCoef>
-5.4800

> <Gold.Chemscore.Hbond>
0.9285

> <Gold.Chemscore.Metal>
0.0000

> <Gold.Chemscore.Lipo>
100.9338

> <Gold.Chemscore.Internal_Hbond>
0.0000

> <Gold.Chemscore.DEClash>
0.0890

> <Gold.Chemscore.DEInternal>
0.2510

> <Gold.Chemscore.Rot>
2.9050

> <Gold.Chemscore.Internal.Correction>
   9.000000E+99

> <Gold.Chemscore.Hbonds>
donor molecule, donor type, donor heavy atom, donor atom, acceptor molecule, acceptor atom, score
      P1  H  7989  7998       L1    13  0.35

> <Gold.Chemscore.Hbond.Weighted>
-3.1013

> <Gold.Chemscore.Metal.Weighted>
-0.0000

> <Gold.Chemscore.Lipo.Weighted>
-11.8093

> <Gold.Chemscore.Internal_Hbond.Weighted>
0.0000

> <Gold.Chemscore.DEClash.Weighted>
0.0890

> <Gold.Chemscore.DEInternal.Weighted>
0.2510

> <Gold.Chemscore.Rot.Weighted>
7.4367

> <Gold.Chemscore.Internal.Correction.Weighted>
   9.000000E+99

> <Gold.Protein.RotatedTorsions>
[ 6907 6896 6895 6894 ] final  139.15 input  -60.11 | X-H torsion
[ 7974 7965 7964 7962 ] final  -31.19 input  175.53 | X-H torsion
[ 8008 7997 7996 7995 ] final -121.92 input   59.86 | X-H torsion
[ 10167 10162 10161 10158 ] final  -94.14 input  -65.29 | X-H torsion
[ 10718 10713 10712 10709 ] final  -72.55 input   66.30 | X-H torsion
[ 10763 10752 10751 10750 ] final  -25.30 input  -60.55 | X-H torsion
[ 11005 11000 10999 10996 ] final   62.26 input  -57.11 | X-H torsion

> <Gold.Protein.ActiveResidues>
 VAL166  LYS551  ARG553  GLY616  TRP617  ASP618  TYR619  PRO620  LYS621  CYS622 
 ASP623  PHE694  ASN695  SER759  ASP760  ASP761  ALA762  ILE779  LEU786  VAL792 
 PHE793  MET794  SER795  GLU796  ALA797  LYS798  CYS799  TRP800  GLU811  SER814 

> <Gold.Protein.RotatedAtoms>
  152.2583  133.5275  159.5366 H   0  0  0  0  0  0  0  0  0  0  0  0  # atno 6907 bound_to 6896
  150.7116  134.0865  159.3925 H   0  0  0  0  0  0  0  0  0  0  0  0  # atno 6908 bound_to 6896
  151.8783  135.0463  160.0537 H   0  0  0  0  0  0  0  0  0  0  0  0  # atno 6909 bound_to 6896
  146.1086  140.5636  142.8788 H   0  0  0  0  0  0  0  0  0  0  0  0  # atno 7974 bound_to 7965
  155.1559  140.0405  157.2831 H   0  0  0  0  0  0  0  0  0  0  0  0  # atno 8008 bound_to 7997
  154.6371  140.2538  155.7338 H   0  0  0  0  0  0  0  0  0  0  0  0  # atno 8009 bound_to 7997
  156.2514  140.2863  156.0748 H   0  0  0  0  0  0  0  0  0  0  0  0  # atno 8010 bound_to 7997
  140.3175  143.3068  152.0082 H   0  0  0  0  0  0  0  0  0  0  0  0  # atno 10167 bound_to 10162
  156.0316  130.4374  150.2609 H   0  0  0  0  0  0  0  0  0  0  0  0  # atno 10718 bound_to 10713
  153.6977  135.6958  153.5072 H   0  0  0  0  0  0  0  0  0  0  0  0  # atno 10763 bound_to 10752
  153.2366  135.4320  155.0652 H   0  0  0  0  0  0  0  0  0  0  0  0  # atno 10764 bound_to 10752
  154.8354  135.3497  154.6517 H   0  0  0  0  0  0  0  0  0  0  0  0  # atno 10765 bound_to 10752
  140.0104  134.6305  155.9789 H   0  0  0  0  0  0  0  0  0  0  0  0  # atno 11005 bound_to 11000
  144.7492  140.5147  143.6814 LP  0  0  0  0  0  0  0  0  0  0  0  0  # atno 17320 bound_to 7965
  145.5709  139.1483  143.3289 LP  0  0  0  0  0  0  0  0  0  0  0  0  # atno 17321 bound_to 7965
  139.4881  144.6337  151.7019 LP  0  0  0  0  0  0  0  0  0  0  0  0  # atno 17342 bound_to 10162
  140.5513  144.0421  150.6128 LP  0  0  0  0  0  0  0  0  0  0  0  0  # atno 17343 bound_to 10162
  157.0711  131.0117  151.3190 LP  0  0  0  0  0  0  0  0  0  0  0  0  # atno 17370 bound_to 10713
  157.4999  130.7873  149.7593 LP  0  0  0  0  0  0  0  0  0  0  0  0  # atno 17371 bound_to 10713
  141.1707  133.6537  156.4640 LP  0  0  0  0  0  0  0  0  0  0  0  0  # atno 17394 bound_to 11000
  140.4565  134.6881  157.5065 LP  0  0  0  0  0  0  0  0  0  0  0  0  # atno 17395 bound_to 11000

$$$$
