AV-unprocessed.smi:271|AV-procd|sdf|2049|dock7
  -GOLD-   2262021283D 1   1.00000     0.00000
 Structure written by MMmdl.
 58 60  0  0  0  0  0  0  0  0  1 V2000
  146.6117  134.2625  162.2912 C   0  0  0  0  0  0  0  0  0  0  0  0
  147.6120  135.3965  162.0190 C   0  0  0  0  0  0  0  0  0  0  0  0
  147.5238  136.4654  163.1218 C   0  0  0  0  0  0  0  0  0  0  0  0
  147.3958  135.9881  160.6124 C   0  0  0  0  0  0  0  0  0  0  0  0
  147.7174  135.0020  159.4692 C   0  0  0  0  0  0  0  0  0  0  0  0
  147.4593  135.5427  158.1345 N   0  0  0  0  0  0  0  0  0  0  0  0
  147.7734  134.6326  157.0350 C   0  0  0  0  0  0  0  0  0  0  0  0
  149.2822  134.4285  156.8230 C   0  0  0  0  0  0  0  0  0  0  0  0
  149.8180  133.3338  157.6450 C   0  0  0  0  0  0  0  0  0  0  0  0
  150.2399  132.4724  158.2919 N   0  0  0  0  0  0  0  0  0  0  0  0
  147.9599  136.7854  157.9479 C   0  0  0  0  0  0  0  0  0  0  0  0
  147.1183  137.7233  157.4481 N   0  0  0  0  0  0  0  0  0  0  0  0
  147.5531  138.9711  157.2511 C   0  0  0  0  0  0  0  0  0  0  0  0
  148.7647  139.4793  157.4852 N   0  0  0  0  0  0  0  0  0  0  0  0
  149.6127  138.5386  157.9910 C   0  0  0  0  0  0  0  0  0  0  0  0
  149.2967  137.1745  158.2442 C   0  0  0  0  0  0  0  0  0  0  0  0
  150.4119  136.5129  158.7422 N   0  0  0  0  0  0  0  0  0  0  0  0
  151.3342  137.4347  158.7837 C   0  0  0  0  0  0  0  0  0  0  0  0
  150.9361  138.6875  158.3718 N   0  0  0  0  0  0  0  0  0  0  0  0
  151.7582  139.8888  158.3325 C   0  0  0  0  0  0  0  0  0  0  0  0
  151.1044  141.0886  157.5917 C   0  0  2  0  0  0  0  0  0  0  0  0
  151.6124  141.2335  156.1368 C   0  0  0  0  0  0  0  0  0  0  0  0
  151.4114  140.0410  155.4067 O   0  0  0  0  0  0  0  0  0  0  0  0
  151.2611  142.4174  158.3770 C   0  0  2  0  0  0  0  0  0  0  0  0
  151.1486  143.6728  157.5272 C   0  0  0  0  0  0  0  0  0  0  0  0
  151.7645  144.7313  158.4346 C   0  0  0  0  0  0  0  0  0  0  0  0
  152.7700  144.0547  159.1803 O   0  0  0  0  0  0  0  0  0  0  0  0
  152.6427  142.6478  158.9999 C   0  0  0  0  0  0  0  0  0  0  0  0
  145.5837  134.6260  162.2660 H   0  0  0  0  0  0  0  0  0  0  0  0
  146.7816  133.8135  163.2701 H   0  0  0  0  0  0  0  0  0  0  0  0
  146.7024  133.4695  161.5483 H   0  0  0  0  0  0  0  0  0  0  0  0
  148.6115  134.9610  162.0535 H   0  0  0  0  0  0  0  0  0  0  0  0
  146.5562  136.9680  163.1108 H   0  0  0  0  0  0  0  0  0  0  0  0
  148.2959  137.2260  163.0094 H   0  0  0  0  0  0  0  0  0  0  0  0
  147.6547  136.0204  164.1085 H   0  0  0  0  0  0  0  0  0  0  0  0
  146.3546  136.2986  160.5130 H   0  0  0  0  0  0  0  0  0  0  0  0
  147.9930  136.8958  160.5154 H   0  0  0  0  0  0  0  0  0  0  0  0
  148.7554  134.6756  159.5281 H   0  0  0  0  0  0  0  0  0  0  0  0
  147.1095  134.1056  159.5968 H   0  0  0  0  0  0  0  0  0  0  0  0
  147.2875  133.6708  157.2033 H   0  0  0  0  0  0  0  0  0  0  0  0
  147.3411  135.0373  156.1193 H   0  0  0  0  0  0  0  0  0  0  0  0
  149.4931  134.1958  155.7791 H   0  0  0  0  0  0  0  0  0  0  0  0
  149.8433  135.3280  157.0777 H   0  0  0  0  0  0  0  0  0  0  0  0
  146.8262  139.6623  156.8505 H   0  0  0  0  0  0  0  0  0  0  0  0
  152.3361  137.2266  159.1297 H   0  0  0  0  0  0  0  0  0  0  0  0
  151.9840  140.1698  159.3616 H   0  0  0  0  0  0  0  0  0  0  0  0
  152.7201  139.6358  157.8868 H   0  0  0  0  0  0  0  0  0  0  0  0
  150.0353  140.8779  157.5335 H   0  0  0  0  0  0  0  0  0  0  0  0
  151.0704  142.0199  155.6121 H   0  0  0  0  0  0  0  0  0  0  0  0
  152.6665  141.5088  156.1069 H   0  0  0  0  0  0  0  0  0  0  0  0
  151.3482  139.3221  156.0172 H   0  0  0  0  0  0  0  0  0  0  0  0
  150.5205  142.4627  159.1768 H   0  0  0  0  0  0  0  0  0  0  0  0
  151.7427  143.5716  156.6178 H   0  0  0  0  0  0  0  0  0  0  0  0
  150.1292  143.9211  157.2356 H   0  0  0  0  0  0  0  0  0  0  0  0
  152.1770  145.5720  157.8763 H   0  0  0  0  0  0  0  0  0  0  0  0
  151.0172  145.1179  159.1287 H   0  0  0  0  0  0  0  0  0  0  0  0
  152.7676  142.1228  159.9472 H   0  0  0  0  0  0  0  0  0  0  0  0
  153.4323  142.3173  158.3235 H   0  0  0  0  0  0  0  0  0  0  0  0
  1  2  1  0  0  0  0
  1 29  1  0  0  0  0
  1 30  1  0  0  0  0
  1 31  1  0  0  0  0
  2  3  1  0  0  0  0
  2  4  1  0  0  0  0
  2 32  1  0  0  0  0
  3 33  1  0  0  0  0
  3 34  1  0  0  0  0
  3 35  1  0  0  0  0
  4  5  1  0  0  0  0
  4 36  1  0  0  0  0
  4 37  1  0  0  0  0
  5  6  1  0  0  0  0
  5 38  1  0  0  0  0
  5 39  1  0  0  0  0
  6  7  1  0  0  0  0
  6 11  1  0  0  0  0
  7  8  1  0  0  0  0
  7 40  1  0  0  0  0
  7 41  1  0  0  0  0
  8  9  1  0  0  0  0
  8 42  1  0  0  0  0
  8 43  1  0  0  0  0
  9 10  3  0  0  0  0
 11 16  1  0  0  0  0
 11 12  2  0  0  0  0
 12 13  1  0  0  0  0
 13 14  2  0  0  0  0
 13 44  1  0  0  0  0
 14 15  1  0  0  0  0
 15 19  1  0  0  0  0
 15 16  2  0  0  0  0
 16 17  1  0  0  0  0
 17 18  2  0  0  0  0
 18 19  1  0  0  0  0
 18 45  1  0  0  0  0
 19 20  1  0  0  0  0
 20 21  1  0  0  0  0
 20 46  1  0  0  0  0
 20 47  1  0  0  0  0
 21 22  1  0  0  0  0
 21 24  1  0  0  0  0
 21 48  1  0  0  0  0
 22 23  1  0  0  0  0
 22 49  1  0  0  0  0
 22 50  1  0  0  0  0
 23 51  1  0  0  0  0
 24 28  1  0  0  0  0
 24 25  1  0  0  0  0
 24 52  1  0  0  0  0
 25 26  1  0  0  0  0
 25 53  1  0  0  0  0
 25 54  1  0  0  0  0
 26 27  1  0  0  0  0
 26 55  1  0  0  0  0
 26 56  1  0  0  0  0
 27 28  1  0  0  0  0
 28 57  1  0  0  0  0
 28 58  1  0  0  0  0
M  END
> <s_m_source_file>
AV-unprocessed.smi

> <i_m_source_file_index>
271

> <i_lp_mmshare_version>
43012

> <i_f3d_flags>
0

> <s_epik_input>
W0NIM11bQ0hdKFtDSDNdKVtDSDJdW0NIMl1OKFtDSDJdW0NIMl1DI04pYyhuW2NIXW4xKWMoYzEyKW5bY0hdbjJbQ0gyXVtDQEhdKFtDSDJdW09IXSlbQ0BASF0zW0NIMl1bQ0gyXU9bQ0gyXTM=

> <s_epik_cmdline>
J2VwaWtfcHl0aG9uJywgJy1waCcsICc3LjAnLCAnLXRuJywgJzgnLCAnLW1hJywgJzIwMCcsICctbWV0YWxfYmluZGluZycsICctaW1hZScsICc8aW5maWxlLm1hZT4nLCAnLW9tYWUnLCAnPG91dGZpbGUubWFlPic=

> <r_lp_tautomer_probability>
1

> <r_epik_Ionization_Penalty>
0.000825874

> <r_epik_Ionization_Penalty_Charging>
0

> <r_epik_Ionization_Penalty_Neutral>
0.000825874

> <r_epik_State_Penalty>
0.000396768

> <r_epik_Charging_Adjusted_Penalty>
0.000396768

> <i_epik_Tot_Q>
0

> <i_epik_Tot_abs_Q>
0

> <r_epik_Metal_State_Penalty>
-0

> <b_epik_Metal_Only>
0

> <s_lp_Force_Field>
OPLS_2005

> <r_lp_Energy>
34.7872

> <b_lp_Chiralities_Consistent>
1

> <s_lp_Variant>
AV-unprocessed.smi:271-1

> <Gold.Version>
5.8.1

> <Gold.Id.Protein>
6NUR|6NUR_protein|mol2

> <Gold.PLP.Fitness>
48.8739

> <Gold.PLP.PLP>
-43.2530

> <Gold.PLP.part.hbond>
-3.0000

> <Gold.PLP.part.metal>
0.0000

> <Gold.PLP.part.buried>
-6.8230

> <Gold.PLP.part.nonpolar>
-33.3188

> <Gold.PLP.part.repulsive>
0.0000

> <Gold.PLP.ligand.clash>
0.0000

> <Gold.PLP.ligand.torsion>
1.8746

> <Gold.PLP.Chemscore.Hbond>
2.9338

> <Gold.PLP.Chemscore.CHOScore>
0.0000

> <Gold.PLP.Chemscore.Metal>
0.0000

> <Gold.Chemscore.Hbonds>
donor molecule, donor type, donor heavy atom, donor atom, acceptor molecule, acceptor atom, score
      P1  H  6896  6907       L1    17  1.00
      P1  H  6896  6909       L1    10  0.85
      P1  H  7989  7998       L1    23  0.73

> <Gold.PLP.Chemscore.Internal.Correction>
0.5689

> <Gold.Rescore>
     Score         DG    S(hbond)    S(metal)    S(lipo)     H(rot)  DE(clash)    DE(int)     intcor
     11.17     -15.45       2.22        0.00     104.31       3.77       1.38       2.91       ----

> <Gold.Chemscore.Fitness>
11.1719

> <Gold.Chemscore.DG>
-15.4543

> <Gold.Chemscore.ZeroCoef>
-5.4800

> <Gold.Chemscore.Hbond>
2.2208

> <Gold.Chemscore.Metal>
0.0000

> <Gold.Chemscore.Lipo>
104.3057

> <Gold.Chemscore.Internal_Hbond>
0.0000

> <Gold.Chemscore.DEClash>
1.3754

> <Gold.Chemscore.DEInternal>
2.9070

> <Gold.Chemscore.Rot>
3.7683

> <Gold.Chemscore.Internal.Correction>
   9.000000E+99

> <Gold.Chemscore.Hbonds>
donor molecule, donor type, donor heavy atom, donor atom, acceptor molecule, acceptor atom, score
      P1  H  6896  6907       L1    17  0.63
      P1  H  6896  6909       L1    10  0.14
      P1  H  7989  7998       L1    23  0.12

> <Gold.Chemscore.Hbond.Weighted>
-7.4173

> <Gold.Chemscore.Metal.Weighted>
-0.0000

> <Gold.Chemscore.Lipo.Weighted>
-12.2038

> <Gold.Chemscore.Internal_Hbond.Weighted>
0.0000

> <Gold.Chemscore.DEClash.Weighted>
1.3754

> <Gold.Chemscore.DEInternal.Weighted>
2.9070

> <Gold.Chemscore.Rot.Weighted>
9.6468

> <Gold.Chemscore.Internal.Correction.Weighted>
   9.000000E+99

> <Gold.Protein.RotatedTorsions>
[ 6907 6896 6895 6894 ] final  -34.15 input  -60.11 | X-H torsion
[ 7974 7965 7964 7962 ] final   67.23 input  175.53 | X-H torsion
[ 8008 7997 7996 7995 ] final   99.31 input   59.86 | X-H torsion
[ 10167 10162 10161 10158 ] final  -99.00 input  -65.29 | X-H torsion
[ 10718 10713 10712 10709 ] final  -90.67 input   66.30 | X-H torsion
[ 10763 10752 10751 10750 ] final  158.78 input  -60.55 | X-H torsion
[ 11005 11000 10999 10996 ] final -178.34 input  -57.11 | X-H torsion

> <Gold.Protein.ActiveResidues>
 VAL166  LYS551  ARG553  GLY616  TRP617  ASP618  TYR619  PRO620  LYS621  CYS622 
 ASP623  PHE694  ASN695  SER759  ASP760  ASP761  ALA762  ILE779  LEU786  VAL792 
 PHE793  MET794  SER795  GLU796  ALA797  LYS798  CYS799  TRP800  GLU811  SER814 

> <Gold.Protein.RotatedAtoms>
  151.0563  134.9707  159.8237 H   0  0  0  0  0  0  0  0  0  0  0  0  # atno 6907 bound_to 6896
  152.5388  134.2474  159.8895 H   0  0  0  0  0  0  0  0  0  0  0  0  # atno 6908 bound_to 6896
  151.2492  133.4316  159.2644 H   0  0  0  0  0  0  0  0  0  0  0  0  # atno 6909 bound_to 6896
  145.8171  139.3064  143.1065 H   0  0  0  0  0  0  0  0  0  0  0  0  # atno 7974 bound_to 7965
  156.1092  140.3230  155.8049 H   0  0  0  0  0  0  0  0  0  0  0  0  # atno 8008 bound_to 7997
  155.4703  140.0546  157.2997 H   0  0  0  0  0  0  0  0  0  0  0  0  # atno 8009 bound_to 7997
  154.4748  140.2027  155.9919 H   0  0  0  0  0  0  0  0  0  0  0  0  # atno 8010 bound_to 7997
  140.2671  143.3369  152.0570 H   0  0  0  0  0  0  0  0  0  0  0  0  # atno 10167 bound_to 10162
  155.9989  130.4918  150.5358 H   0  0  0  0  0  0  0  0  0  0  0  0  # atno 10718 bound_to 10713
  154.2214  135.2782  155.2923 H   0  0  0  0  0  0  0  0  0  0  0  0  # atno 10763 bound_to 10752
  154.5698  135.5622  153.7088 H   0  0  0  0  0  0  0  0  0  0  0  0  # atno 10764 bound_to 10752
  153.0041  135.6318  154.2355 H   0  0  0  0  0  0  0  0  0  0  0  0  # atno 10765 bound_to 10752
  140.4309  134.6520  157.4711 H   0  0  0  0  0  0  0  0  0  0  0  0  # atno 11005 bound_to 11000
  145.9715  140.8757  143.0160 LP  0  0  0  0  0  0  0  0  0  0  0  0  # atno 17320 bound_to 7965
  144.6751  140.1952  143.7392 LP  0  0  0  0  0  0  0  0  0  0  0  0  # atno 17321 bound_to 7965
  139.4999  144.6681  151.6308 LP  0  0  0  0  0  0  0  0  0  0  0  0  # atno 17342 bound_to 10162
  140.5920  143.9763  150.6330 LP  0  0  0  0  0  0  0  0  0  0  0  0  # atno 17343 bound_to 10162
  157.3301  131.0698  151.1867 LP  0  0  0  0  0  0  0  0  0  0  0  0  # atno 17370 bound_to 10713
  157.2751  130.6723  149.6038 LP  0  0  0  0  0  0  0  0  0  0  0  0  # atno 17371 bound_to 10713
  140.0135  134.6654  155.9345 LP  0  0  0  0  0  0  0  0  0  0  0  0  # atno 17394 bound_to 11000
  141.1746  133.6539  156.4779 LP  0  0  0  0  0  0  0  0  0  0  0  0  # atno 17395 bound_to 11000

$$$$
