AV-unprocessed.smi:1892|AV-procd|sdf|7670|dock9
  -GOLD-   22720 9403D 1   1.00000     0.00000
 Structure written by MMmdl.
 43 44  0  0  0  0  0  0  0  0  2 V2000
  150.2085  141.5622  157.9072 C   0  0  0  0  0  0  0  0  0  0  0  0
  150.5668  140.3564  157.0358 C   0  0  0  0  0  0  0  0  0  0  0  0
  151.0446  139.3654  157.5875 O   0  0  0  0  0  0  0  0  0  0  0  0
  150.3528  140.4168  155.6996 N   0  0  0  0  0  0  0  0  0  0  0  0
  149.7274  141.5692  155.0455 C   0  0  0  0  0  0  0  0  0  0  0  0
  148.3513  141.1500  154.4970 C   0  0  0  0  0  0  0  0  0  0  0  0
  148.4559  139.9746  153.5901 N   0  3  0  0  0  0  0  0  0  0  0  0
  147.1322  139.5683  153.0545 C   0  0  0  0  0  0  0  0  0  0  0  0
  146.5630  138.3198  153.7564 C   0  0  0  0  0  0  0  0  0  0  0  0
  146.7723  137.1161  152.9598 N   0  0  0  0  0  0  0  0  0  0  0  0
  145.7944  136.3128  152.5163 C   0  0  0  0  0  0  0  0  0  0  0  0
  144.6017  136.5112  152.7500 O   0  0  0  0  0  0  0  0  0  0  0  0
  146.2896  135.2847  151.8049 N   0  0  0  0  0  0  0  0  0  0  0  0
  145.5760  134.2341  151.1687 C   0  0  0  0  0  0  0  0  0  0  0  0
  146.3797  133.2865  150.4954 C   0  0  0  0  0  0  0  0  0  0  0  0
  145.7672  132.2067  149.8303 C   0  0  0  0  0  0  0  0  0  0  0  0
  144.3651  132.1023  149.8554 C   0  0  0  0  0  0  0  0  0  0  0  0
  143.6393  133.0883  150.5486 C   0  0  0  0  0  0  0  0  0  0  0  0
  144.2240  134.1238  151.1871 N   0  0  0  0  0  0  0  0  0  0  0  0
  149.2239  138.8498  154.1940 C   0  0  0  0  0  0  0  0  0  0  0  0
  150.5795  139.3241  154.7495 C   0  0  0  0  0  0  0  0  0  0  0  0
  150.7677  142.4451  157.5966 H   0  0  0  0  0  0  0  0  0  0  0  0
  150.4518  141.3663  158.9522 H   0  0  0  0  0  0  0  0  0  0  0  0
  149.1414  141.7780  157.8498 H   0  0  0  0  0  0  0  0  0  0  0  0
  149.6123  142.4251  155.7118 H   0  0  0  0  0  0  0  0  0  0  0  0
  150.3686  141.9110  154.2317 H   0  0  0  0  0  0  0  0  0  0  0  0
  147.6828  140.9077  155.3249 H   0  0  0  0  0  0  0  0  0  0  0  0
  147.9031  141.9881  153.9619 H   0  0  0  0  0  0  0  0  0  0  0  0
  146.4333  140.4032  153.1249 H   0  0  0  0  0  0  0  0  0  0  0  0
  147.2411  139.3470  151.9917 H   0  0  0  0  0  0  0  0  0  0  0  0
  147.0122  138.1962  154.7435 H   0  0  0  0  0  0  0  0  0  0  0  0
  145.4894  138.4168  153.9130 H   0  0  0  0  0  0  0  0  0  0  0  0
  147.7259  136.8834  152.7226 H   0  0  0  0  0  0  0  0  0  0  0  0
  147.2930  135.2494  151.7036 H   0  0  0  0  0  0  0  0  0  0  0  0
  147.4557  133.3818  150.4856 H   0  0  0  0  0  0  0  0  0  0  0  0
  146.3639  131.4722  149.3096 H   0  0  0  0  0  0  0  0  0  0  0  0
  143.8590  131.2893  149.3566 H   0  0  0  0  0  0  0  0  0  0  0  0
  142.5611  133.0455  150.5912 H   0  0  0  0  0  0  0  0  0  0  0  0
  148.6359  138.3984  154.9948 H   0  0  0  0  0  0  0  0  0  0  0  0
  149.4009  138.0714  153.4529 H   0  0  0  0  0  0  0  0  0  0  0  0
  151.2074  139.6888  153.9353 H   0  0  0  0  0  0  0  0  0  0  0  0
  151.1185  138.4784  155.1742 H   0  0  0  0  0  0  0  0  0  0  0  0
  148.9956  140.2937  152.7981 H   0  0  0  0  0  0  0  0  0  0  0  0
  1  2  1  0  0  0  0
  1 22  1  0  0  0  0
  1 23  1  0  0  0  0
  1 24  1  0  0  0  0
  2  3  2  0  0  0  0
  2  4  1  0  0  0  0
  4 21  1  0  0  0  0
  4  5  1  0  0  0  0
  5  6  1  0  0  0  0
  5 25  1  0  0  0  0
  5 26  1  0  0  0  0
  6  7  1  0  0  0  0
  6 27  1  0  0  0  0
  6 28  1  0  0  0  0
  7  8  1  0  0  0  0
  7 20  1  0  0  0  0
  7 43  1  0  0  0  0
  8  9  1  0  0  0  0
  8 29  1  0  0  0  0
  8 30  1  0  0  0  0
  9 10  1  0  0  0  0
  9 31  1  0  0  0  0
  9 32  1  0  0  0  0
 10 11  1  0  0  0  0
 10 33  1  0  0  0  0
 11 12  2  0  0  0  0
 11 13  1  0  0  0  0
 13 14  1  0  0  0  0
 13 34  1  0  0  0  0
 14 19  1  0  0  0  0
 14 15  2  0  0  0  0
 15 16  1  0  0  0  0
 15 35  1  0  0  0  0
 16 17  2  0  0  0  0
 16 36  1  0  0  0  0
 17 18  1  0  0  0  0
 17 37  1  0  0  0  0
 18 19  2  0  0  0  0
 18 38  1  0  0  0  0
 20 21  1  0  0  0  0
 20 39  1  0  0  0  0
 20 40  1  0  0  0  0
 21 41  1  0  0  0  0
 21 42  1  0  0  0  0
M  CHG  1   7   1
M  END
> <s_m_source_file>
AV-unprocessed.smi

> <i_m_source_file_index>
1892

> <i_lp_mmshare_version>
43012

> <i_f3d_flags>
0

> <s_epik_input>
W0NIM11DKD1PKU4xW0NIMl1bQ0gyXU4oW0NIMl1bQ0gyXTEpW0NIMl1bQ0gyXVtOSF1DKD1PKVtOSF1jMltjSF1bY0hdW2NIXVtjSF1uMg==

> <s_epik_cmdline>
J2VwaWtfcHl0aG9uJywgJy1waCcsICc3LjAnLCAnLXRuJywgJzgnLCAnLW1hJywgJzIwMCcsICctbWV0YWxfYmluZGluZycsICctaW1hZScsICc8aW5maWxlLm1hZT4nLCAnLW9tYWUnLCAnPG91dGZpbGUubWFlPic=

> <r_epik_Ionization_Penalty>
0.630068

> <r_epik_Ionization_Penalty_Charging>
0.630034

> <r_epik_Ionization_Penalty_Neutral>
3.4348e-05

> <r_epik_State_Penalty>
0.646805

> <r_epik_Charging_Adjusted_Penalty>
1.27684

> <i_epik_Tot_Q>
1

> <i_epik_Tot_abs_Q>
1

> <r_epik_Metal_State_Penalty>
0.646808

> <b_epik_Metal_Only>
0

> <s_lp_Force_Field>
OPLS_2005

> <r_lp_Energy>
41.8075

> <b_lp_Chiralities_Consistent>
1

> <s_lp_Variant>
AV-unprocessed.smi:1892-2

> <Gold.Version>
5.8.1

> <Gold.Id.Protein>
6NUR|6NUR_protein|mol2

> <Gold.PLP.Fitness>
48.7030

> <Gold.PLP.PLP>
-38.5425

> <Gold.PLP.part.hbond>
-3.0000

> <Gold.PLP.part.metal>
0.0000

> <Gold.PLP.part.buried>
-2.0781

> <Gold.PLP.part.nonpolar>
-32.5036

> <Gold.PLP.part.repulsive>
0.4905

> <Gold.PLP.ligand.clash>
0.0635

> <Gold.PLP.ligand.torsion>
0.8209

> <Gold.PLP.Chemscore.Hbond>
2.9520

> <Gold.PLP.Chemscore.CHOScore>
0.9897

> <Gold.PLP.Chemscore.Metal>
0.0000

> <Gold.Chemscore.Hbonds>
donor molecule, donor type, donor heavy atom, donor atom, acceptor molecule, acceptor atom, score
      L1  H     7    43       P1  7957  1.00
      L1  H    10    33       P1  7948  1.00
      L1  H    13    34       P1  7948  0.94
      L1  C    18    38       P1 10186  0.99

> <Gold.PLP.Chemscore.Internal.Correction>
0.0405

> <Gold.Rescore>
     Score         DG    S(hbond)    S(metal)    S(lipo)     H(rot)  DE(clash)    DE(int)     intcor
     18.35     -20.42       2.83        0.00      82.74       1.64       0.01       2.06       ----

> <Gold.Chemscore.Fitness>
18.3502

> <Gold.Chemscore.DG>
-20.4217

> <Gold.Chemscore.ZeroCoef>
-5.4800

> <Gold.Chemscore.Hbond>
2.8314

> <Gold.Chemscore.Metal>
0.0000

> <Gold.Chemscore.Lipo>
82.7373

> <Gold.Chemscore.Internal_Hbond>
0.0000

> <Gold.Chemscore.DEClash>
0.0124

> <Gold.Chemscore.DEInternal>
2.0591

> <Gold.Chemscore.Rot>
1.6388

> <Gold.Chemscore.Internal.Correction>
   9.000000E+99

> <Gold.Chemscore.Hbonds>
donor molecule, donor type, donor heavy atom, donor atom, acceptor molecule, acceptor atom, score
      L1  H     7    43       P1  7957  0.94
      L1  H    10    33       P1  7948  0.98
      L1  H    13    34       P1  7948  0.87

> <Gold.Chemscore.Hbond.Weighted>
-9.4567

> <Gold.Chemscore.Metal.Weighted>
-0.0000

> <Gold.Chemscore.Lipo.Weighted>
-9.6803

> <Gold.Chemscore.Internal_Hbond.Weighted>
0.0000

> <Gold.Chemscore.DEClash.Weighted>
0.0124

> <Gold.Chemscore.DEInternal.Weighted>
2.0591

> <Gold.Chemscore.Rot.Weighted>
4.1952

> <Gold.Chemscore.Internal.Correction.Weighted>
   9.000000E+99

> <Gold.Protein.RotatedTorsions>
[ 6907 6896 6895 6894 ] final   73.22 input  -60.11 | X-H torsion
[ 7974 7965 7964 7962 ] final  -96.37 input  175.53 | X-H torsion
[ 8008 7997 7996 7995 ] final   85.95 input   59.86 | X-H torsion
[ 10167 10162 10161 10158 ] final   -4.36 input  -65.29 | X-H torsion
[ 10718 10713 10712 10709 ] final   -9.01 input   66.30 | X-H torsion
[ 10763 10752 10751 10750 ] final  -42.66 input  -60.55 | X-H torsion
[ 11005 11000 10999 10996 ] final  151.76 input  -57.11 | X-H torsion

> <Gold.Protein.ActiveResidues>
 VAL166  LYS551  ARG553  GLY616  TRP617  ASP618  TYR619  PRO620  LYS621  CYS622 
 ASP623  PHE694  ASN695  SER759  ASP760  ASP761  ALA762  ILE779  LEU786  VAL792 
 PHE793  MET794  SER795  GLU796  ALA797  LYS798  CYS799  TRP800  GLU811  SER814 

> <Gold.Protein.RotatedAtoms>
  152.4911  134.4454  159.9556 H   0  0  0  0  0  0  0  0  0  0  0  0  # atno 6907 bound_to 6896
  151.4441  133.3629  159.2793 H   0  0  0  0  0  0  0  0  0  0  0  0  # atno 6908 bound_to 6896
  150.9067  134.8506  159.7457 H   0  0  0  0  0  0  0  0  0  0  0  0  # atno 6909 bound_to 6896
  145.3478  140.9471  143.2571 H   0  0  0  0  0  0  0  0  0  0  0  0  # atno 7974 bound_to 7965
  155.9566  140.3397  155.6454 H   0  0  0  0  0  0  0  0  0  0  0  0  # atno 8008 bound_to 7997
  155.6852  140.0742  157.2488 H   0  0  0  0  0  0  0  0  0  0  0  0  # atno 8009 bound_to 7997
  154.4133  140.1667  156.2013 H   0  0  0  0  0  0  0  0  0  0  0  0  # atno 8010 bound_to 7997
  140.6925  143.6432  150.8416 H   0  0  0  0  0  0  0  0  0  0  0  0  # atno 10167 bound_to 10162
  156.6943  130.5074  149.5935 H   0  0  0  0  0  0  0  0  0  0  0  0  # atno 10718 bound_to 10713
  153.9827  135.6715  153.4751 H   0  0  0  0  0  0  0  0  0  0  0  0  # atno 10763 bound_to 10752
  153.0741  135.4958  154.8363 H   0  0  0  0  0  0  0  0  0  0  0  0  # atno 10764 bound_to 10752
  154.7155  135.3106  154.9092 H   0  0  0  0  0  0  0  0  0  0  0  0  # atno 10765 bound_to 10752
  140.1248  134.8840  157.2122 H   0  0  0  0  0  0  0  0  0  0  0  0  # atno 11005 bound_to 11000
  144.8741  139.4997  143.6754 LP  0  0  0  0  0  0  0  0  0  0  0  0  # atno 17320 bound_to 7965
  146.2981  139.7339  142.9112 LP  0  0  0  0  0  0  0  0  0  0  0  0  # atno 17321 bound_to 7965
  140.0147  143.5606  152.2825 LP  0  0  0  0  0  0  0  0  0  0  0  0  # atno 17342 bound_to 10162
  139.6342  144.7648  151.2472 LP  0  0  0  0  0  0  0  0  0  0  0  0  # atno 17343 bound_to 10162
  156.1775  130.6477  151.0911 LP  0  0  0  0  0  0  0  0  0  0  0  0  # atno 17370 bound_to 10713
  157.6997  131.0780  150.6859 LP  0  0  0  0  0  0  0  0  0  0  0  0  # atno 17371 bound_to 10713
  140.2919  134.3231  155.7313 LP  0  0  0  0  0  0  0  0  0  0  0  0  # atno 17394 bound_to 11000
  141.2159  133.7539  156.9515 LP  0  0  0  0  0  0  0  0  0  0  0  0  # atno 17395 bound_to 11000

$$$$
