AV-unprocessed.smi:1873|AV-procd|sdf|7609|dock5
  -GOLD-   22720 9333D 1   1.00000     0.00000
 Structure written by MMmdl.
 37 39  0  0  0  0  0  0  0  0  2 V2000
  144.6525  137.9203  153.1036 O   0  0  0  0  0  0  0  0  0  0  0  0
  145.8977  137.8020  152.4422 C   0  0  2  0  0  0  0  0  0  0  0  0
  146.3393  136.3251  152.4323 C   0  0  0  0  0  0  0  0  0  0  0  0
  145.4226  135.4661  151.6724 N   0  0  0  0  0  0  0  0  0  0  0  0
  144.3253  135.7912  150.9369 C   0  0  0  0  0  0  0  0  0  0  0  0
  143.8231  134.6369  150.4166 N   0  3  0  0  0  0  0  0  0  0  0  0
  144.6107  133.5587  150.8270 C   0  0  0  0  0  0  0  0  0  0  0  0
  144.5055  132.1972  150.5595 C   0  0  0  0  0  0  0  0  0  0  0  0
  145.4829  131.3610  151.1388 C   0  0  0  0  0  0  0  0  0  0  0  0
  146.5131  131.8849  151.9470 C   0  0  0  0  0  0  0  0  0  0  0  0
  146.6110  133.2671  152.2105 C   0  0  0  0  0  0  0  0  0  0  0  0
  145.6402  134.0856  151.6350 C   0  0  0  0  0  0  0  0  0  0  0  0
  146.9638  138.6954  153.0549 C   0  0  0  0  0  0  0  0  0  0  0  0
  148.1351  138.1409  153.6134 C   0  0  0  0  0  0  0  0  0  0  0  0
  149.1200  138.9786  154.1715 C   0  0  0  0  0  0  0  0  0  0  0  0
  148.9557  140.3784  154.1717 C   0  0  0  0  0  0  0  0  0  0  0  0
  149.9473  141.1434  154.7429 O   0  0  0  0  0  0  0  0  0  0  0  0
  150.4460  140.7873  155.9566 C   0  0  0  0  0  0  0  0  0  0  0  0
  151.4682  139.9089  155.8097 F   0  0  0  0  0  0  0  0  0  0  0  0
  150.9345  141.8808  156.5898 F   0  0  0  0  0  0  0  0  0  0  0  0
  147.7762  140.9317  153.6185 C   0  0  0  0  0  0  0  0  0  0  0  0
  146.7908  140.0950  153.0602 C   0  0  0  0  0  0  0  0  0  0  0  0
  144.2027  138.6778  152.7613 H   0  0  0  0  0  0  0  0  0  0  0  0
  145.7330  138.1280  151.4145 H   0  0  0  0  0  0  0  0  0  0  0  0
  147.3396  136.2186  152.0103 H   0  0  0  0  0  0  0  0  0  0  0  0
  146.3892  135.9334  153.4493 H   0  0  0  0  0  0  0  0  0  0  0  0
  143.9293  136.7857  150.7877 H   0  0  0  0  0  0  0  0  0  0  0  0
  143.7181  131.7930  149.9403 H   0  0  0  0  0  0  0  0  0  0  0  0
  145.4416  130.2964  150.9592 H   0  0  0  0  0  0  0  0  0  0  0  0
  147.2436  131.2128  152.3740 H   0  0  0  0  0  0  0  0  0  0  0  0
  147.4037  133.6599  152.8299 H   0  0  0  0  0  0  0  0  0  0  0  0
  148.2833  137.0709  153.6149 H   0  0  0  0  0  0  0  0  0  0  0  0
  150.0114  138.5432  154.5988 H   0  0  0  0  0  0  0  0  0  0  0  0
  149.6789  140.3482  156.5952 H   0  0  0  0  0  0  0  0  0  0  0  0
  147.6111  141.9989  153.6203 H   0  0  0  0  0  0  0  0  0  0  0  0
  145.8993  140.5347  152.6377 H   0  0  0  0  0  0  0  0  0  0  0  0
  143.0042  134.5922  149.8238 H   0  0  0  0  0  0  0  0  0  0  0  0
  1  2  1  0  0  0  0
  1 23  1  0  0  0  0
  2  3  1  0  0  0  0
  2 13  1  0  0  0  0
  2 24  1  0  0  0  0
  3  4  1  0  0  0  0
  3 25  1  0  0  0  0
  3 26  1  0  0  0  0
  4 12  1  0  0  0  0
  4  5  1  0  0  0  0
  5  6  2  0  0  0  0
  5 27  1  0  0  0  0
  6  7  1  0  0  0  0
  6 37  1  0  0  0  0
  7 12  2  0  0  0  0
  7  8  1  0  0  0  0
  8  9  2  0  0  0  0
  8 28  1  0  0  0  0
  9 10  1  0  0  0  0
  9 29  1  0  0  0  0
 10 11  2  0  0  0  0
 10 30  1  0  0  0  0
 11 12  1  0  0  0  0
 11 31  1  0  0  0  0
 13 22  1  0  0  0  0
 13 14  2  0  0  0  0
 14 15  1  0  0  0  0
 14 32  1  0  0  0  0
 15 16  2  0  0  0  0
 15 33  1  0  0  0  0
 16 17  1  0  0  0  0
 16 21  1  0  0  0  0
 17 18  1  0  0  0  0
 18 19  1  0  0  0  0
 18 20  1  0  0  0  0
 18 34  1  0  0  0  0
 21 22  2  0  0  0  0
 21 35  1  0  0  0  0
 22 36  1  0  0  0  0
M  CHG  1   6   1
M  END
> <s_m_source_file>
AV-unprocessed.smi

> <i_m_source_file_index>
1873

> <i_lp_mmshare_version>
43012

> <i_f3d_flags>
0

> <s_epik_input>
RltDSF0oRilPYyhbY0hdW2NIXTEpW2NIXVtjSF1jMVtDQEhdKFtPSF0pW0NIMl1uKFtjSF1uMiljKGMyMylbY0hdW2NIXVtjSF1bY0hdMw==

> <s_epik_cmdline>
J2VwaWtfcHl0aG9uJywgJy1waCcsICc3LjAnLCAnLXRuJywgJzgnLCAnLW1hJywgJzIwMCcsICctbWV0YWxfYmluZGluZycsICctaW1hZScsICc8aW5maWxlLm1hZT4nLCAnLW9tYWUnLCAnPG91dGZpbGUubWFlPic=

> <r_lp_tautomer_probability>
1

> <r_epik_Ionization_Penalty>
1.3029

> <r_epik_Ionization_Penalty_Charging>
1.3029

> <r_epik_Ionization_Penalty_Neutral>
2.50501e-07

> <r_epik_State_Penalty>
1.377

> <r_epik_Charging_Adjusted_Penalty>
2.6799

> <i_epik_Tot_Q>
1

> <i_epik_Tot_abs_Q>
1

> <r_epik_Metal_State_Penalty>
5.40879

> <b_epik_Metal_Only>
0

> <s_lp_Force_Field>
OPLS_2005

> <r_lp_Energy>
14.9016

> <b_lp_Chiralities_Consistent>
1

> <s_lp_Variant>
AV-unprocessed.smi:1873-3

> <Gold.Version>
5.8.1

> <Gold.Id.Protein>
6NUR|6NUR_protein|mol2

> <Gold.PLP.Fitness>
51.0408

> <Gold.PLP.PLP>
-38.2643

> <Gold.PLP.part.hbond>
-3.0000

> <Gold.PLP.part.metal>
0.0000

> <Gold.PLP.part.buried>
6.6105

> <Gold.PLP.part.nonpolar>
-41.3816

> <Gold.PLP.part.repulsive>
0.1650

> <Gold.PLP.ligand.clash>
0.0000

> <Gold.PLP.ligand.torsion>
0.5202

> <Gold.PLP.Chemscore.Hbond>
3.5710

> <Gold.PLP.Chemscore.CHOScore>
1.0000

> <Gold.PLP.Chemscore.Metal>
0.0000

> <Gold.Chemscore.Hbonds>
donor molecule, donor type, donor heavy atom, donor atom, acceptor molecule, acceptor atom, score
      L1  H     1    23       P1 10175  1.00
      L1  H     6    37       P1 10186  2.00
      P1  H  7989  7998       L1    17  0.49
      L1  C     5    27       P1 10171  1.00

> <Gold.PLP.Chemscore.Internal.Correction>
0.1040

> <Gold.Rescore>
     Score         DG    S(hbond)    S(metal)    S(lipo)     H(rot)  DE(clash)    DE(int)     intcor
     12.37     -17.85       2.02        0.00     102.00       2.47       3.50       1.98       ----

> <Gold.Chemscore.Fitness>
12.3689

> <Gold.Chemscore.DG>
-17.8520

> <Gold.Chemscore.ZeroCoef>
-5.4800

> <Gold.Chemscore.Hbond>
2.0219

> <Gold.Chemscore.Metal>
0.0000

> <Gold.Chemscore.Lipo>
101.9984

> <Gold.Chemscore.Internal_Hbond>
0.0000

> <Gold.Chemscore.DEClash>
3.5039

> <Gold.Chemscore.DEInternal>
1.9792

> <Gold.Chemscore.Rot>
2.4668

> <Gold.Chemscore.Internal.Correction>
   9.000000E+99

> <Gold.Chemscore.Hbonds>
donor molecule, donor type, donor heavy atom, donor atom, acceptor molecule, acceptor atom, score
      L1  H     1    23       P1 10175  1.00
      L1  H     6    37       P1 10186  0.81
      P1  H  7989  7998       L1    17  0.08

> <Gold.Chemscore.Hbond.Weighted>
-6.7533

> <Gold.Chemscore.Metal.Weighted>
-0.0000

> <Gold.Chemscore.Lipo.Weighted>
-11.9338

> <Gold.Chemscore.Internal_Hbond.Weighted>
0.0000

> <Gold.Chemscore.DEClash.Weighted>
3.5039

> <Gold.Chemscore.DEInternal.Weighted>
1.9792

> <Gold.Chemscore.Rot.Weighted>
6.3151

> <Gold.Chemscore.Internal.Correction.Weighted>
   9.000000E+99

> <Gold.Protein.RotatedTorsions>
[ 6907 6896 6895 6894 ] final  -76.89 input  -60.11 | X-H torsion
[ 7974 7965 7964 7962 ] final   43.07 input  175.53 | X-H torsion
[ 8008 7997 7996 7995 ] final  151.45 input   59.86 | X-H torsion
[ 10167 10162 10161 10158 ] final  163.97 input  -65.29 | X-H torsion
[ 10718 10713 10712 10709 ] final    2.36 input   66.30 | X-H torsion
[ 10763 10752 10751 10750 ] final -108.84 input  -60.55 | X-H torsion
[ 11005 11000 10999 10996 ] final  -75.20 input  -57.11 | X-H torsion

> <Gold.Protein.ActiveResidues>
 VAL166  LYS551  ARG553  GLY616  TRP617  ASP618  TYR619  PRO620  LYS621  CYS622 
 ASP623  PHE694  ASN695  SER759  ASP760  ASP761  ALA762  ILE779  LEU786  VAL792 
 PHE793  MET794  SER795  GLU796  ALA797  LYS798  CYS799  TRP800  GLU811  SER814 

> <Gold.Protein.RotatedAtoms>
  150.7014  134.4505  159.5333 H   0  0  0  0  0  0  0  0  0  0  0  0  # atno 6907 bound_to 6896
  152.2198  134.8420  160.0496 H   0  0  0  0  0  0  0  0  0  0  0  0  # atno 6908 bound_to 6896
  151.9275  133.3567  159.3956 H   0  0  0  0  0  0  0  0  0  0  0  0  # atno 6909 bound_to 6896
  146.0687  139.5229  142.9612 H   0  0  0  0  0  0  0  0  0  0  0  0  # atno 7974 bound_to 7965
  156.2673  140.2047  156.6178 H   0  0  0  0  0  0  0  0  0  0  0  0  # atno 8008 bound_to 7997
  154.6781  140.0543  157.0261 H   0  0  0  0  0  0  0  0  0  0  0  0  # atno 8009 bound_to 7997
  155.1040  140.3209  155.4542 H   0  0  0  0  0  0  0  0  0  0  0  0  # atno 8010 bound_to 7997
  139.4881  144.4283  151.9102 H   0  0  0  0  0  0  0  0  0  0  0  0  # atno 10167 bound_to 10162
  156.8619  130.5590  149.5662 H   0  0  0  0  0  0  0  0  0  0  0  0  # atno 10718 bound_to 10713
  154.8159  135.4623  154.0642 H   0  0  0  0  0  0  0  0  0  0  0  0  # atno 10763 bound_to 10752
  153.2035  135.6872  153.8208 H   0  0  0  0  0  0  0  0  0  0  0  0  # atno 10764 bound_to 10752
  153.7684  135.3274  155.3325 H   0  0  0  0  0  0  0  0  0  0  0  0  # atno 10765 bound_to 10752
  141.1643  133.6938  156.7480 H   0  0  0  0  0  0  0  0  0  0  0  0  # atno 11005 bound_to 11000
  145.6430  141.0280  143.1801 LP  0  0  0  0  0  0  0  0  0  0  0  0  # atno 17320 bound_to 7965
  144.7218  139.8005  143.7379 LP  0  0  0  0  0  0  0  0  0  0  0  0  # atno 17321 bound_to 7965
  140.3730  144.2832  150.5917 LP  0  0  0  0  0  0  0  0  0  0  0  0  # atno 17342 bound_to 10162
  140.5302  143.2245  151.8251 LP  0  0  0  0  0  0  0  0  0  0  0  0  # atno 17343 bound_to 10162
  156.0772  130.5791  150.9496 LP  0  0  0  0  0  0  0  0  0  0  0  0  # atno 17370 bound_to 10713
  157.6245  131.0927  150.8560 LP  0  0  0  0  0  0  0  0  0  0  0  0  # atno 17371 bound_to 10713
  140.2625  134.8455  157.3772 LP  0  0  0  0  0  0  0  0  0  0  0  0  # atno 17394 bound_to 11000
  140.1597  134.4744  155.7903 LP  0  0  0  0  0  0  0  0  0  0  0  0  # atno 17395 bound_to 11000

$$$$
