AV-unprocessed.smi:966|AV-procd|sdf|4284|dock5
  -GOLD-   22720 2193D 1   1.00000     0.00000
 Structure written by MMmdl.
 30 31  0  0  0  0  0  0  0  0  2 V2000
  153.8144  142.4905  163.5937 C   0  0  0  0  0  0  0  0  0  0  0  0
  153.3463  142.6008  162.1539 C   0  0  0  0  0  0  0  0  0  0  0  0
  152.5210  143.7200  161.7590 C   0  0  0  0  0  0  0  0  0  0  0  0
  152.1112  143.8134  160.4430 C   0  0  0  0  0  0  0  0  0  0  0  0
  151.3892  144.6805  159.8971 O   0  5  0  0  0  0  0  0  0  0  0  0
  152.5001  142.8218  159.4808 N   0  0  0  0  0  0  0  0  0  0  0  0
  152.0832  142.9135  158.0507 C   0  0  0  0  0  0  0  0  0  0  0  0
  151.0537  141.8274  157.6790 C   0  0  1  0  0  0  0  0  0  0  0  0
  150.2562  142.1509  156.4164 C   0  0  0  0  0  0  0  0  0  0  0  0
  149.8442  140.7730  155.9522 C   0  0  0  0  0  0  0  0  0  0  0  0
  151.0962  139.9602  156.2638 C   0  0  0  0  0  0  0  0  0  0  0  0
  151.6913  140.5819  157.3993 O   0  0  0  0  0  0  0  0  0  0  0  0
  153.2555  141.7349  159.8391 C   0  0  0  0  0  0  0  0  0  0  0  0
  153.5654  140.8550  159.0317 O   0  0  0  0  0  0  0  0  0  0  0  0
  153.6834  141.6680  161.2396 C   0  0  0  0  0  0  0  0  0  0  0  0
  154.4911  140.5409  161.5849 C   0  0  0  0  0  0  0  0  0  0  0  0
  155.1607  139.6420  161.8765 N   0  0  0  0  0  0  0  0  0  0  0  0
  153.4605  143.3326  164.1892 H   0  0  0  0  0  0  0  0  0  0  0  0
  154.9036  142.4779  163.6415 H   0  0  0  0  0  0  0  0  0  0  0  0
  153.4367  141.5740  164.0480 H   0  0  0  0  0  0  0  0  0  0  0  0
  152.2218  144.4648  162.4821 H   0  0  0  0  0  0  0  0  0  0  0  0
  151.6798  143.9005  157.8199 H   0  0  0  0  0  0  0  0  0  0  0  0
  152.9329  142.8488  157.3693 H   0  0  0  0  0  0  0  0  0  0  0  0
  150.3550  141.6628  158.5005 H   0  0  0  0  0  0  0  0  0  0  0  0
  149.4096  142.8109  156.6071 H   0  0  0  0  0  0  0  0  0  0  0  0
  150.8949  142.6198  155.6662 H   0  0  0  0  0  0  0  0  0  0  0  0
  149.0031  140.4129  156.5461 H   0  0  0  0  0  0  0  0  0  0  0  0
  149.5619  140.7384  154.8997 H   0  0  0  0  0  0  0  0  0  0  0  0
  150.8746  138.9097  156.4528 H   0  0  0  0  0  0  0  0  0  0  0  0
  151.8010  140.0137  155.4334 H   0  0  0  0  0  0  0  0  0  0  0  0
  1  2  1  0  0  0  0
  1 18  1  0  0  0  0
  1 19  1  0  0  0  0
  1 20  1  0  0  0  0
  2 15  2  0  0  0  0
  2  3  1  0  0  0  0
  3  4  2  0  0  0  0
  3 21  1  0  0  0  0
  4  5  1  0  0  0  0
  4  6  1  0  0  0  0
  6  7  1  0  0  0  0
  6 13  1  0  0  0  0
  7  8  1  0  0  0  0
  7 22  1  0  0  0  0
  7 23  1  0  0  0  0
  8 12  1  0  0  0  0
  8  9  1  0  0  0  0
  8 24  1  0  0  0  0
  9 10  1  0  0  0  0
  9 25  1  0  0  0  0
  9 26  1  0  0  0  0
 10 11  1  0  0  0  0
 10 27  1  0  0  0  0
 10 28  1  0  0  0  0
 11 12  1  0  0  0  0
 11 29  1  0  0  0  0
 11 30  1  0  0  0  0
 13 14  2  0  0  0  0
 13 15  1  0  0  0  0
 15 16  1  0  0  0  0
 16 17  3  0  0  0  0
M  CHG  1   5  -1
M  END
> <s_m_source_file>
AV-unprocessed.smi

> <i_m_source_file_index>
966

> <i_lp_mmshare_version>
43012

> <i_f3d_flags>
0

> <s_epik_input>
W0NIM11jMVtjSF1jKFtPSF0pbihjKD1PKWMxQyNOKVtDSDJdW0NAQEhdMltDSDJdW0NIMl1bQ0gyXU8y

> <s_epik_cmdline>
J2VwaWtfcHl0aG9uJywgJy1waCcsICc3LjAnLCAnLXRuJywgJzgnLCAnLW1hJywgJzIwMCcsICctbWV0YWxfYmluZGluZycsICctaW1hZScsICc8aW5maWxlLm1hZT4nLCAnLW9tYWUnLCAnPG91dGZpbGUubWFlPic=

> <r_lp_tautomer_probability>
1

> <r_epik_Ionization_Penalty>
3.48555e-06

> <r_epik_Ionization_Penalty_Charging>
3.48554e-06

> <r_epik_Ionization_Penalty_Neutral>
1.71861e-11

> <r_epik_State_Penalty>
-0

> <r_epik_Charging_Adjusted_Penalty>
3.48554e-06

> <i_epik_Tot_Q>
-1

> <i_epik_Tot_abs_Q>
1

> <r_epik_Metal_State_Penalty>
-0

> <b_epik_Metal_Only>
0

> <s_lp_Force_Field>
OPLS_2005

> <r_lp_Energy>
36.155

> <b_lp_Chiralities_Consistent>
1

> <s_lp_Variant>
AV-unprocessed.smi:966-2

> <Gold.Version>
5.8.1

> <Gold.Id.Protein>
6NUR|6NUR_protein|mol2

> <Gold.PLP.Fitness>
39.9910

> <Gold.PLP.PLP>
-39.9160

> <Gold.PLP.part.hbond>
-1.0537

> <Gold.PLP.part.metal>
0.0000

> <Gold.PLP.part.buried>
-3.4321

> <Gold.PLP.part.nonpolar>
-34.3420

> <Gold.PLP.part.repulsive>
0.0779

> <Gold.PLP.ligand.clash>
0.0000

> <Gold.PLP.ligand.torsion>
0.2809

> <Gold.PLP.Chemscore.Hbond>
0.2116

> <Gold.PLP.Chemscore.CHOScore>
0.0000

> <Gold.PLP.Chemscore.Metal>
0.0000

> <Gold.Chemscore.Hbonds>
donor molecule, donor type, donor heavy atom, donor atom, acceptor molecule, acceptor atom, score
      P1  H  7997  8010       L1    14  0.08

> <Gold.PLP.Chemscore.Internal.Correction>
0.0019

> <Gold.Rescore>
     Score         DG    S(hbond)    S(metal)    S(lipo)     H(rot)  DE(clash)    DE(int)     intcor
     10.01     -12.01       0.00        0.00      83.16       1.25       0.04       1.95       ----

> <Gold.Chemscore.Fitness>
10.0142

> <Gold.Chemscore.DG>
-12.0065

> <Gold.Chemscore.ZeroCoef>
-5.4800

> <Gold.Chemscore.Hbond>
0.0000

> <Gold.Chemscore.Metal>
0.0000

> <Gold.Chemscore.Lipo>
83.1633

> <Gold.Chemscore.Internal_Hbond>
0.0000

> <Gold.Chemscore.DEClash>
0.0420

> <Gold.Chemscore.DEInternal>
1.9503

> <Gold.Chemscore.Rot>
1.2514

> <Gold.Chemscore.Internal.Correction>
   9.000000E+99

> <Gold.Chemscore.Hbonds>
donor molecule, donor type, donor heavy atom, donor atom, acceptor molecule, acceptor atom, score
      P1  H  7997  8010       L1    14  0.09

> <Gold.Chemscore.Hbond.Weighted>
-0.0000

> <Gold.Chemscore.Metal.Weighted>
-0.0000

> <Gold.Chemscore.Lipo.Weighted>
-9.7301

> <Gold.Chemscore.Internal_Hbond.Weighted>
0.0000

> <Gold.Chemscore.DEClash.Weighted>
0.0420

> <Gold.Chemscore.DEInternal.Weighted>
1.9503

> <Gold.Chemscore.Rot.Weighted>
3.2036

> <Gold.Chemscore.Internal.Correction.Weighted>
   9.000000E+99

> <Gold.Protein.RotatedTorsions>
[ 6907 6896 6895 6894 ] final   99.46 input  -60.11 | X-H torsion
[ 7974 7965 7964 7962 ] final -124.75 input  175.53 | X-H torsion
[ 8008 7997 7996 7995 ] final    7.54 input   59.86 | X-H torsion
[ 10167 10162 10161 10158 ] final  -62.38 input  -65.29 | X-H torsion
[ 10718 10713 10712 10709 ] final  -58.34 input   66.30 | X-H torsion
[ 10763 10752 10751 10750 ] final  146.39 input  -60.55 | X-H torsion
[ 11005 11000 10999 10996 ] final  102.15 input  -57.11 | X-H torsion

> <Gold.Protein.ActiveResidues>
 VAL166  LYS551  ARG553  GLY616  TRP617  ASP618  TYR619  PRO620  LYS621  CYS622 
 ASP623  PHE694  ASN695  SER759  ASP760  ASP761  ALA762  ILE779  LEU786  VAL792 
 PHE793  MET794  SER795  GLU796  ALA797  LYS798  CYS799  TRP800  GLU811  SER814 

> <Gold.Protein.RotatedAtoms>
  152.5391  134.0425  159.8073 H   0  0  0  0  0  0  0  0  0  0  0  0  # atno 6907 bound_to 6896
  151.0579  133.5561  159.2644 H   0  0  0  0  0  0  0  0  0  0  0  0  # atno 6908 bound_to 6896
  151.2471  135.0617  159.9101 H   0  0  0  0  0  0  0  0  0  0  0  0  # atno 6909 bound_to 6896
  145.0048  140.7853  143.4474 H   0  0  0  0  0  0  0  0  0  0  0  0  # atno 7974 bound_to 7965
  154.7552  140.2774  155.6260 H   0  0  0  0  0  0  0  0  0  0  0  0  # atno 8008 bound_to 7997
  156.2904  140.2671  156.2242 H   0  0  0  0  0  0  0  0  0  0  0  0  # atno 8009 bound_to 7997
  155.0087  140.0372  157.2380 H   0  0  0  0  0  0  0  0  0  0  0  0  # atno 8010 bound_to 7997
  140.5943  143.2347  151.6071 H   0  0  0  0  0  0  0  0  0  0  0  0  # atno 10167 bound_to 10162
  156.1142  130.4172  150.0564 H   0  0  0  0  0  0  0  0  0  0  0  0  # atno 10718 bound_to 10713
  154.0211  135.2906  155.3381 H   0  0  0  0  0  0  0  0  0  0  0  0  # atno 10763 bound_to 10752
  154.7045  135.5175  153.8579 H   0  0  0  0  0  0  0  0  0  0  0  0  # atno 10764 bound_to 10752
  153.0681  135.6638  154.0433 H   0  0  0  0  0  0  0  0  0  0  0  0  # atno 10765 bound_to 10752
  139.8776  134.9212  156.5014 H   0  0  0  0  0  0  0  0  0  0  0  0  # atno 11005 bound_to 11000
  145.2103  139.2208  143.5146 LP  0  0  0  0  0  0  0  0  0  0  0  0  # atno 17320 bound_to 7965
  146.3459  140.1940  142.8589 LP  0  0  0  0  0  0  0  0  0  0  0  0  # atno 17321 bound_to 7965
  139.5247  144.3094  152.1005 LP  0  0  0  0  0  0  0  0  0  0  0  0  # atno 17342 bound_to 10162
  140.2264  144.4413  150.6319 LP  0  0  0  0  0  0  0  0  0  0  0  0  # atno 17343 bound_to 10162
  156.8519  130.9462  151.3625 LP  0  0  0  0  0  0  0  0  0  0  0  0  # atno 17370 bound_to 10713
  157.6325  130.8740  149.9300 LP  0  0  0  0  0  0  0  0  0  0  0  0  # atno 17371 bound_to 10713
  140.8587  133.8076  155.9242 LP  0  0  0  0  0  0  0  0  0  0  0  0  # atno 17394 bound_to 11000
  140.9071  134.2306  157.5007 LP  0  0  0  0  0  0  0  0  0  0  0  0  # atno 17395 bound_to 11000

$$$$
