AV-unprocessed.smi:1055|AV-procd|sdf|4625|dock2
  -GOLD-   22720 3123D 1   1.00000     0.00000
 Structure written by MMmdl.
 52 53  0  0  0  0  0  0  0  0  3 V2000
  143.5164  132.4253  150.7164 C   0  0  0  0  0  0  0  0  0  0  0  0
  144.6303  132.3649  151.4648 C   0  0  0  0  0  0  0  0  0  0  0  0
  145.6503  131.2541  151.2989 C   0  0  0  0  0  0  0  0  0  0  0  0
  144.9419  133.4009  152.5333 C   0  0  0  0  0  0  0  0  0  0  0  0
  144.9177  134.7817  151.9893 N   0  3  2  0  0  0  0  0  0  0  0  0
  146.0497  135.0389  151.0635 C   0  0  0  0  0  0  0  0  0  0  0  0
  145.9182  136.4175  150.3914 C   0  0  0  0  0  0  0  0  0  0  0  0
  145.7827  137.5542  151.4194 C   0  0  2  0  0  0  0  0  0  0  0  0
  147.0577  137.7915  152.0967 N   0  0  0  0  0  0  0  0  0  0  0  0
  147.3296  138.8434  152.8829 C   0  0  0  0  0  0  0  0  0  0  0  0
  146.5097  139.7228  153.1444 O   0  0  0  0  0  0  0  0  0  0  0  0
  148.5894  138.7922  153.3497 N   0  0  0  0  0  0  0  0  0  0  0  0
  149.2648  139.7309  154.1770 C   0  0  0  0  0  0  0  0  0  0  0  0
  150.4750  139.3281  154.7788 C   0  0  0  0  0  0  0  0  0  0  0  0
  151.1886  140.2299  155.5947 C   0  0  0  0  0  0  0  0  0  0  0  0
  150.6919  141.5407  155.7985 C   0  0  0  0  0  0  0  0  0  0  0  0
  151.3490  142.5008  156.5982 N   0  0  0  0  0  0  0  0  0  0  0  0
  152.0097  142.0877  157.8313 C   0  0  0  0  0  0  0  0  0  0  0  0
  151.3816  143.8952  156.1776 C   0  0  0  0  0  0  0  0  0  0  0  0
  149.5313  141.8853  155.1893 N   0  3  0  0  0  0  0  0  0  0  0  0
  148.8150  141.0537  154.4026 C   0  0  0  0  0  0  0  0  0  0  0  0
  144.6550  137.2255  152.4179 C   0  0  0  0  0  0  0  0  0  0  0  0
  144.8211  135.8284  153.0411 C   0  0  0  0  0  0  0  0  0  0  0  0
  143.3062  131.6807  149.9622 H   0  0  0  0  0  0  0  0  0  0  0  0
  142.7963  133.2201  150.8451 H   0  0  0  0  0  0  0  0  0  0  0  0
  145.7751  130.7115  152.2364 H   0  0  0  0  0  0  0  0  0  0  0  0
  146.6182  131.6608  151.0054 H   0  0  0  0  0  0  0  0  0  0  0  0
  145.3395  130.5408  150.5346 H   0  0  0  0  0  0  0  0  0  0  0  0
  144.2417  133.3204  153.3665 H   0  0  0  0  0  0  0  0  0  0  0  0
  145.9315  133.1740  152.9325 H   0  0  0  0  0  0  0  0  0  0  0  0
  146.9918  134.9692  151.6095 H   0  0  0  0  0  0  0  0  0  0  0  0
  146.0750  134.2681  150.2923 H   0  0  0  0  0  0  0  0  0  0  0  0
  146.7705  136.5988  149.7353 H   0  0  0  0  0  0  0  0  0  0  0  0
  145.0376  136.4139  149.7474 H   0  0  0  0  0  0  0  0  0  0  0  0
  145.5159  138.4635  150.8775 H   0  0  0  0  0  0  0  0  0  0  0  0
  147.7910  137.1162  151.9378 H   0  0  0  0  0  0  0  0  0  0  0  0
  149.1185  137.9664  153.1111 H   0  0  0  0  0  0  0  0  0  0  0  0
  150.8578  138.3300  154.6223 H   0  0  0  0  0  0  0  0  0  0  0  0
  152.1096  139.8991  156.0505 H   0  0  0  0  0  0  0  0  0  0  0  0
  151.2984  141.6142  158.5088 H   0  0  0  0  0  0  0  0  0  0  0  0
  152.4478  142.9396  158.3519 H   0  0  0  0  0  0  0  0  0  0  0  0
  152.8102  141.3791  157.6169 H   0  0  0  0  0  0  0  0  0  0  0  0
  150.3704  144.2957  156.1008 H   0  0  0  0  0  0  0  0  0  0  0  0
  151.8704  143.9924  155.2078 H   0  0  0  0  0  0  0  0  0  0  0  0
  151.9305  144.5118  156.8896 H   0  0  0  0  0  0  0  0  0  0  0  0
  147.9225  141.4899  153.9806 H   0  0  0  0  0  0  0  0  0  0  0  0
  144.6027  137.9816  153.2020 H   0  0  0  0  0  0  0  0  0  0  0  0
  143.6971  137.2679  151.8979 H   0  0  0  0  0  0  0  0  0  0  0  0
  143.9692  135.6316  153.6921 H   0  0  0  0  0  0  0  0  0  0  0  0
  145.7111  135.7976  153.6715 H   0  0  0  0  0  0  0  0  0  0  0  0
  144.0773  134.8495  151.4327 H   0  0  0  0  0  0  0  0  0  0  0  0
  149.1774  142.8317  155.3303 H   0  0  0  0  0  0  0  0  0  0  0  0
  1  2  2  0  0  0  0
  1 24  1  0  0  0  0
  1 25  1  0  0  0  0
  2  3  1  0  0  0  0
  2  4  1  0  0  0  0
  3 26  1  0  0  0  0
  3 27  1  0  0  0  0
  3 28  1  0  0  0  0
  4  5  1  0  0  0  0
  4 29  1  0  0  0  0
  4 30  1  0  0  0  0
  5 23  1  0  0  0  0
  5  6  1  0  0  0  0
  5 51  1  0  0  0  0
  6  7  1  0  0  0  0
  6 31  1  0  0  0  0
  6 32  1  0  0  0  0
  7  8  1  0  0  0  0
  7 33  1  0  0  0  0
  7 34  1  0  0  0  0
  8  9  1  0  0  0  0
  8 22  1  0  0  0  0
  8 35  1  0  0  0  0
  9 10  1  0  0  0  0
  9 36  1  0  0  0  0
 10 11  2  0  0  0  0
 10 12  1  0  0  0  0
 12 13  1  0  0  0  0
 12 37  1  0  0  0  0
 13 21  1  0  0  0  0
 13 14  2  0  0  0  0
 14 15  1  0  0  0  0
 14 38  1  0  0  0  0
 15 16  2  0  0  0  0
 15 39  1  0  0  0  0
 16 17  1  0  0  0  0
 16 20  1  0  0  0  0
 17 18  1  0  0  0  0
 17 19  1  0  0  0  0
 18 40  1  0  0  0  0
 18 41  1  0  0  0  0
 18 42  1  0  0  0  0
 19 43  1  0  0  0  0
 19 44  1  0  0  0  0
 19 45  1  0  0  0  0
 20 21  2  0  0  0  0
 20 52  1  0  0  0  0
 21 46  1  0  0  0  0
 22 23  1  0  0  0  0
 22 47  1  0  0  0  0
 22 48  1  0  0  0  0
 23 49  1  0  0  0  0
 23 50  1  0  0  0  0
M  CHG  1   5   1
M  CHG  1  20   1
M  END
> <s_m_source_file>
AV-unprocessed.smi

> <i_m_source_file_index>
1055

> <i_lp_mmshare_version>
43012

> <i_f3d_flags>
0

> <s_epik_input>
W0NIMl09QyhbQ0gzXSlbQ0gyXU4xW0NIMl1bQ0gyXVtDSF0oW0NIMl1bQ0gyXTEpW05IXUMoPU8pW05IXWMyW2NIXVtjSF1jKE4oW0NIM10pW0NIM10pbltjSF0y

> <s_epik_cmdline>
J2VwaWtfcHl0aG9uJywgJy1waCcsICc3LjAnLCAnLXRuJywgJzgnLCAnLW1hJywgJzIwMCcsICctbWV0YWxfYmluZGluZycsICctaW1hZScsICc8aW5maWxlLm1hZT4nLCAnLW9tYWUnLCAnPG91dGZpbGUubWFlPic=

> <r_lp_tautomer_probability>
0.999994

> <r_epik_Ionization_Penalty>
0.344238

> <r_epik_Ionization_Penalty_Charging>
0.344219

> <r_epik_Ionization_Penalty_Neutral>
1.87459e-05

> <r_epik_State_Penalty>
0.320654

> <r_epik_Charging_Adjusted_Penalty>
0.664873

> <i_epik_Tot_Q>
2

> <i_epik_Tot_abs_Q>
2

> <r_epik_Metal_State_Penalty>
0.58246

> <b_epik_Metal_Only>
0

> <s_lp_Force_Field>
OPLS_2005

> <r_lp_Energy>
26.4869

> <b_lp_Chiralities_Consistent>
1

> <s_lp_Variant>
AV-unprocessed.smi:1055-2

> <Gold.Version>
5.8.1

> <Gold.Id.Protein>
6NUR|6NUR_protein|mol2

> <Gold.PLP.Fitness>
46.6867

> <Gold.PLP.PLP>
-37.6304

> <Gold.PLP.part.hbond>
-4.0000

> <Gold.PLP.part.metal>
0.0000

> <Gold.PLP.part.buried>
2.0686

> <Gold.PLP.part.nonpolar>
-37.4037

> <Gold.PLP.part.repulsive>
1.3960

> <Gold.PLP.ligand.clash>
0.0000

> <Gold.PLP.ligand.torsion>
0.8465

> <Gold.PLP.Chemscore.Hbond>
3.5650

> <Gold.PLP.Chemscore.CHOScore>
0.0000

> <Gold.PLP.Chemscore.Metal>
0.0000

> <Gold.Chemscore.Hbonds>
donor molecule, donor type, donor heavy atom, donor atom, acceptor molecule, acceptor atom, score
      L1  H     9    36       P1  7948  0.78
      L1  H    12    37       P1  7948  0.62
      L1  H    20    52       P1  8028  2.00

> <Gold.PLP.Chemscore.Internal.Correction>
0.0544

> <Gold.Rescore>
     Score         DG    S(hbond)    S(metal)    S(lipo)     H(rot)  DE(clash)    DE(int)     intcor
     16.15     -21.29       1.98        0.00     108.03       1.35       3.19       1.94       ----

> <Gold.Chemscore.Fitness>
16.1535

> <Gold.Chemscore.DG>
-21.2853

> <Gold.Chemscore.ZeroCoef>
-5.4800

> <Gold.Chemscore.Hbond>
1.9798

> <Gold.Chemscore.Metal>
0.0000

> <Gold.Chemscore.Lipo>
108.0331

> <Gold.Chemscore.Internal_Hbond>
0.0000

> <Gold.Chemscore.DEClash>
3.1900

> <Gold.Chemscore.DEInternal>
1.9419

> <Gold.Chemscore.Rot>
1.3465

> <Gold.Chemscore.Internal.Correction>
   9.000000E+99

> <Gold.Chemscore.Hbonds>
donor molecule, donor type, donor heavy atom, donor atom, acceptor molecule, acceptor atom, score
      L1  H     9    36       P1  7948  0.77
      L1  H    12    37       P1  7948  0.62
      L1  H    20    52       P1  8028  0.99

> <Gold.Chemscore.Hbond.Weighted>
-6.6125

> <Gold.Chemscore.Metal.Weighted>
-0.0000

> <Gold.Chemscore.Lipo.Weighted>
-12.6399

> <Gold.Chemscore.Internal_Hbond.Weighted>
0.0000

> <Gold.Chemscore.DEClash.Weighted>
3.1900

> <Gold.Chemscore.DEInternal.Weighted>
1.9419

> <Gold.Chemscore.Rot.Weighted>
3.4470

> <Gold.Chemscore.Internal.Correction.Weighted>
   9.000000E+99

> <Gold.Protein.RotatedTorsions>
[ 6907 6896 6895 6894 ] final  140.71 input  -60.11 | X-H torsion
[ 7974 7965 7964 7962 ] final  141.84 input  175.53 | X-H torsion
[ 8008 7997 7996 7995 ] final  -44.02 input   59.86 | X-H torsion
[ 10167 10162 10161 10158 ] final -176.63 input  -65.29 | X-H torsion
[ 10718 10713 10712 10709 ] final  140.24 input   66.30 | X-H torsion
[ 10763 10752 10751 10750 ] final   41.24 input  -60.55 | X-H torsion
[ 11005 11000 10999 10996 ] final -102.77 input  -57.11 | X-H torsion

> <Gold.Protein.ActiveResidues>
 VAL166  LYS551  ARG553  GLY616  TRP617  ASP618  TYR619  PRO620  LYS621  CYS622 
 ASP623  PHE694  ASN695  SER759  ASP760  ASP761  ALA762  ILE779  LEU786  VAL792 
 PHE793  MET794  SER795  GLU796  ALA797  LYS798  CYS799  TRP800  GLU811  SER814 

> <Gold.Protein.RotatedAtoms>
  152.2397  133.5125  159.5262 H   0  0  0  0  0  0  0  0  0  0  0  0  # atno 6907 bound_to 6896
  150.7061  134.1105  159.4007 H   0  0  0  0  0  0  0  0  0  0  0  0  # atno 6908 bound_to 6896
  151.9026  135.0372  160.0558 H   0  0  0  0  0  0  0  0  0  0  0  0  # atno 6909 bound_to 6896
  144.9060  139.5357  143.5731 H   0  0  0  0  0  0  0  0  0  0  0  0  # atno 7974 bound_to 7965
  154.3997  140.1433  156.3614 H   0  0  0  0  0  0  0  0  0  0  0  0  # atno 8008 bound_to 7997
  155.8177  140.3470  155.5475 H   0  0  0  0  0  0  0  0  0  0  0  0  # atno 8009 bound_to 7997
  155.8320  140.0913  157.1777 H   0  0  0  0  0  0  0  0  0  0  0  0  # atno 8010 bound_to 7997
  139.5520  144.2085  152.1094 H   0  0  0  0  0  0  0  0  0  0  0  0  # atno 10167 bound_to 10162
  157.4055  131.1022  151.0508 H   0  0  0  0  0  0  0  0  0  0  0  0  # atno 10718 bound_to 10713
  152.9913  135.6167  154.2756 H   0  0  0  0  0  0  0  0  0  0  0  0  # atno 10763 bound_to 10752
  154.2487  135.2786  155.2827 H   0  0  0  0  0  0  0  0  0  0  0  0  # atno 10764 bound_to 10752
  154.5306  135.5789  153.6813 H   0  0  0  0  0  0  0  0  0  0  0  0  # atno 10765 bound_to 10752
  141.1175  133.8585  157.1401 H   0  0  0  0  0  0  0  0  0  0  0  0  # atno 11005 bound_to 11000
  146.3134  139.7828  142.9002 LP  0  0  0  0  0  0  0  0  0  0  0  0  # atno 17320 bound_to 7965
  145.3535  141.0312  143.3325 LP  0  0  0  0  0  0  0  0  0  0  0  0  # atno 17321 bound_to 7965
  140.1582  144.5051  150.6648 LP  0  0  0  0  0  0  0  0  0  0  0  0  # atno 17342 bound_to 10162
  140.6785  143.2315  151.5446 LP  0  0  0  0  0  0  0  0  0  0  0  0  # atno 17343 bound_to 10162
  157.1491  130.6176  149.5577 LP  0  0  0  0  0  0  0  0  0  0  0  0  # atno 17370 bound_to 10713
  155.9835  130.4855  150.6937 LP  0  0  0  0  0  0  0  0  0  0  0  0  # atno 17371 bound_to 10713
  140.0107  134.9989  157.0390 LP  0  0  0  0  0  0  0  0  0  0  0  0  # atno 17394 bound_to 11000
  140.4604  134.1490  155.7190 LP  0  0  0  0  0  0  0  0  0  0  0  0  # atno 17395 bound_to 11000

$$$$
