AV-unprocessed.smi:964|AV-procd|sdf|4279|dock3
  -GOLD-   22720 2183D 1   1.00000     0.00000
 Structure written by MMmdl.
 20 20  0  0  0  0  0  0  0  0  2 V2000
  152.2032  140.4979  158.2416 C   0  0  0  0  0  0  0  0  0  0  0  0
  151.7026  140.2876  156.8527 C   0  0  0  0  0  0  0  0  0  0  0  0
  150.4140  140.4691  156.5302 N   0  0  0  0  0  0  0  0  0  0  0  0
  150.3926  140.1889  155.2187 C   0  0  0  0  0  0  0  0  0  0  0  0
  149.1382  140.2503  154.4100 C   0  0  0  0  0  0  0  0  0  0  0  0
  148.5716  138.8582  154.0987 C   0  0  0  0  0  0  0  0  0  0  0  0
  148.0140  138.7974  152.7372 N   0  3  0  0  0  0  0  0  0  0  0  0
  151.5897  139.8426  154.7365 N   0  0  0  0  0  0  0  0  0  0  0  0
  152.4552  139.9089  155.8153 N   0  0  0  0  0  0  0  0  0  0  0  0
  149.6520  140.7525  157.1291 H   0  0  0  0  0  0  0  0  0  0  0  0
  153.2874  140.3865  158.2773 H   0  0  0  0  0  0  0  0  0  0  0  0
  151.7553  139.7677  158.9159 H   0  0  0  0  0  0  0  0  0  0  0  0
  151.9458  141.4999  158.5856 H   0  0  0  0  0  0  0  0  0  0  0  0
  149.3540  140.7828  153.4827 H   0  0  0  0  0  0  0  0  0  0  0  0
  148.3990  140.8468  154.9470 H   0  0  0  0  0  0  0  0  0  0  0  0
  149.3525  138.1021  154.1882 H   0  0  0  0  0  0  0  0  0  0  0  0
  147.7887  138.5987  154.8120 H   0  0  0  0  0  0  0  0  0  0  0  0
  148.1498  137.8705  152.3591 H   0  0  0  0  0  0  0  0  0  0  0  0
  148.4853  139.4706  152.1497 H   0  0  0  0  0  0  0  0  0  0  0  0
  147.0265  139.0078  152.7644 H   0  0  0  0  0  0  0  0  0  0  0  0
  1 11  1  0  0  0  0
  1 12  1  0  0  0  0
  1 13  1  0  0  0  0
  1  2  1  0  0  0  0
  2  3  1  0  0  0  0
  2  9  2  0  0  0  0
  3 10  1  0  0  0  0
  3  4  1  0  0  0  0
  4  8  2  0  0  0  0
  4  5  1  0  0  0  0
  5  6  1  0  0  0  0
  5 14  1  0  0  0  0
  5 15  1  0  0  0  0
  6  7  1  0  0  0  0
  6 16  1  0  0  0  0
  6 17  1  0  0  0  0
  7 18  1  0  0  0  0
  7 19  1  0  0  0  0
  7 20  1  0  0  0  0
  8  9  1  0  0  0  0
M  CHG  1   7   1
M  END
> <s_m_source_file>
AV-unprocessed.smi

> <i_m_source_file_index>
964

> <i_lp_mmshare_version>
43012

> <i_f3d_flags>
0

> <s_epik_input>
W0NIM11jMW5jKG5bbkhdMSlbQ0gyXVtDSDJdW05IMl0=

> <s_epik_cmdline>
J2VwaWtfcHl0aG9uJywgJy1waCcsICc3LjAnLCAnLXRuJywgJzgnLCAnLW1hJywgJzIwMCcsICctbWV0YWxfYmluZGluZycsICctaW1hZScsICc8aW5maWxlLm1hZT4nLCAnLW9tYWUnLCAnPG91dGZpbGUubWFlPic=

> <r_lp_tautomer_probability>
0.0517155

> <r_epik_Ionization_Penalty>
0.0139864

> <r_epik_Ionization_Penalty_Charging>
0.00465044

> <r_epik_Ionization_Penalty_Neutral>
0.00933595

> <r_epik_State_Penalty>
2.23303

> <r_epik_Charging_Adjusted_Penalty>
2.23768

> <i_epik_Tot_Q>
1

> <i_epik_Tot_abs_Q>
1

> <r_epik_Metal_State_Penalty>
2.43351

> <b_epik_Metal_Only>
0

> <s_lp_Force_Field>
OPLS_2005

> <r_lp_Energy>
2.69796

> <b_lp_Chiralities_Consistent>
1

> <s_lp_Variant>
AV-unprocessed.smi:964-3

> <Gold.Version>
5.8.1

> <Gold.Id.Protein>
6NUR|6NUR_protein|mol2

> <Gold.PLP.Fitness>
30.4224

> <Gold.PLP.PLP>
-16.3443

> <Gold.PLP.part.hbond>
-3.9971

> <Gold.PLP.part.metal>
0.0000

> <Gold.PLP.part.buried>
-1.9326

> <Gold.PLP.part.nonpolar>
-10.2955

> <Gold.PLP.part.repulsive>
0.1820

> <Gold.PLP.ligand.clash>
0.0000

> <Gold.PLP.ligand.torsion>
0.4612

> <Gold.PLP.Chemscore.Hbond>
5.0000

> <Gold.PLP.Chemscore.CHOScore>
0.0000

> <Gold.PLP.Chemscore.Metal>
0.0000

> <Gold.Chemscore.Hbonds>
donor molecule, donor type, donor heavy atom, donor atom, acceptor molecule, acceptor atom, score
      L1  H     7    18       P1  7948  2.00
      L1  H     7    19       P1  7957  1.00
      P1  H  7989  7998       L1     8  0.95
      P1  H  7997  8009       L1     9  1.00

> <Gold.PLP.Chemscore.Internal.Correction>
0.0004

> <Gold.Rescore>
     Score         DG    S(hbond)    S(metal)    S(lipo)     H(rot)  DE(clash)    DE(int)     intcor
     15.62     -16.26       3.77        0.00      17.46       1.51       0.07       0.57       ----

> <Gold.Chemscore.Fitness>
15.6194

> <Gold.Chemscore.DG>
-16.2550

> <Gold.Chemscore.ZeroCoef>
-5.4800

> <Gold.Chemscore.Hbond>
3.7703

> <Gold.Chemscore.Metal>
0.0000

> <Gold.Chemscore.Lipo>
17.4645

> <Gold.Chemscore.Internal_Hbond>
0.0000

> <Gold.Chemscore.DEClash>
0.0650

> <Gold.Chemscore.DEInternal>
0.5706

> <Gold.Chemscore.Rot>
1.5082

> <Gold.Chemscore.Internal.Correction>
   9.000000E+99

> <Gold.Chemscore.Hbonds>
donor molecule, donor type, donor heavy atom, donor atom, acceptor molecule, acceptor atom, score
      L1  H     7    18       P1  7948  1.00
      L1  H     7    19       P1  7957  0.97
      P1  H  7989  7998       L1     8  0.21
      P1  H  7997  8009       L1     9  0.89

> <Gold.Chemscore.Hbond.Weighted>
-12.5928

> <Gold.Chemscore.Metal.Weighted>
-0.0000

> <Gold.Chemscore.Lipo.Weighted>
-2.0434

> <Gold.Chemscore.Internal_Hbond.Weighted>
0.0000

> <Gold.Chemscore.DEClash.Weighted>
0.0650

> <Gold.Chemscore.DEInternal.Weighted>
0.5706

> <Gold.Chemscore.Rot.Weighted>
3.8611

> <Gold.Chemscore.Internal.Correction.Weighted>
   9.000000E+99

> <Gold.Protein.RotatedTorsions>
[ 6907 6896 6895 6894 ] final   82.98 input  -60.11 | X-H torsion
[ 7974 7965 7964 7962 ] final   91.53 input  175.53 | X-H torsion
[ 8008 7997 7996 7995 ] final -144.03 input   59.86 | X-H torsion
[ 10167 10162 10161 10158 ] final -126.73 input  -65.29 | X-H torsion
[ 10718 10713 10712 10709 ] final  140.25 input   66.30 | X-H torsion
[ 10763 10752 10751 10750 ] final   18.27 input  -60.55 | X-H torsion
[ 11005 11000 10999 10996 ] final   20.36 input  -57.11 | X-H torsion

> <Gold.Protein.ActiveResidues>
 VAL166  LYS551  ARG553  GLY616  TRP617  ASP618  TYR619  PRO620  LYS621  CYS622 
 ASP623  PHE694  ASN695  SER759  ASP760  ASP761  ALA762  ILE779  LEU786  VAL792 
 PHE793  MET794  SER795  GLU796  ALA797  LYS798  CYS799  TRP800  GLU811  SER814 

> <Gold.Protein.RotatedAtoms>
  152.5314  134.2966  159.9062 H   0  0  0  0  0  0  0  0  0  0  0  0  # atno 6907 bound_to 6896
  151.2917  133.4156  159.2641 H   0  0  0  0  0  0  0  0  0  0  0  0  # atno 6908 bound_to 6896
  151.0195  134.9474  159.8108 H   0  0  0  0  0  0  0  0  0  0  0  0  # atno 6909 bound_to 6896
  145.5044  139.2276  143.2759 H   0  0  0  0  0  0  0  0  0  0  0  0  # atno 7974 bound_to 7965
  155.5203  140.0591  157.2908 H   0  0  0  0  0  0  0  0  0  0  0  0  # atno 8008 bound_to 7997
  154.4520  140.1953  156.0438 H   0  0  0  0  0  0  0  0  0  0  0  0  # atno 8009 bound_to 7997
  156.0723  140.3258  155.7595 H   0  0  0  0  0  0  0  0  0  0  0  0  # atno 8010 bound_to 7997
  139.9684  143.5873  152.2421 H   0  0  0  0  0  0  0  0  0  0  0  0  # atno 10167 bound_to 10162
  157.4054  131.1022  151.0509 H   0  0  0  0  0  0  0  0  0  0  0  0  # atno 10718 bound_to 10713
  153.1264  135.6730  153.9250 H   0  0  0  0  0  0  0  0  0  0  0  0  # atno 10763 bound_to 10752
  153.8750  135.3065  155.3444 H   0  0  0  0  0  0  0  0  0  0  0  0  # atno 10764 bound_to 10752
  154.7668  135.4960  153.9651 H   0  0  0  0  0  0  0  0  0  0  0  0  # atno 10765 bound_to 10752
  140.4034  134.1694  155.7664 H   0  0  0  0  0  0  0  0  0  0  0  0  # atno 11005 bound_to 11000
  146.2206  140.5847  142.9019 LP  0  0  0  0  0  0  0  0  0  0  0  0  # atno 17320 bound_to 7965
  144.7762  140.5744  143.6636 LP  0  0  0  0  0  0  0  0  0  0  0  0  # atno 17321 bound_to 7965
  139.6500  144.7660  151.2166 LP  0  0  0  0  0  0  0  0  0  0  0  0  # atno 17342 bound_to 10162
  140.7530  143.6176  150.8544 LP  0  0  0  0  0  0  0  0  0  0  0  0  # atno 17343 bound_to 10162
  157.1493  130.6177  149.5577 LP  0  0  0  0  0  0  0  0  0  0  0  0  # atno 17370 bound_to 10713
  155.9835  130.4855  150.6936 LP  0  0  0  0  0  0  0  0  0  0  0  0  # atno 17371 bound_to 10713
  141.1848  133.8336  157.1127 LP  0  0  0  0  0  0  0  0  0  0  0  0  # atno 17394 bound_to 11000
  140.0319  134.9897  157.0797 LP  0  0  0  0  0  0  0  0  0  0  0  0  # atno 17395 bound_to 11000

$$$$
