AV-unprocessed.smi:1603|AV-procd|sdf|6445|dock6
  -GOLD-   22720 7 93D 1   1.00000     0.00000
 Structure written by MMmdl.
 44 46  0  0  0  0  0  0  0  0  1 V2000
  152.4784  138.5714  158.9617 O   0  0  0  0  0  0  0  0  0  0  0  0
  152.2828  139.7872  158.9540 C   0  0  0  0  0  0  0  0  0  0  0  0
  153.0580  140.7351  159.7691 C   0  0  0  0  0  0  0  0  0  0  0  0
  154.1754  140.1768  160.6462 C   0  0  0  0  0  0  0  0  0  0  0  0
  155.3548  140.2084  160.0237 F   0  0  0  0  0  0  0  0  0  0  0  0
  154.2871  140.8871  161.7692 F   0  0  0  0  0  0  0  0  0  0  0  0
  153.9237  138.9096  160.9776 F   0  0  0  0  0  0  0  0  0  0  0  0
  152.7795  142.0605  159.7197 C   0  0  0  0  0  0  0  0  0  0  0  0
  151.7139  142.5525  158.8706 C   0  0  0  0  0  0  0  0  0  0  0  0
  151.3375  144.0038  158.7819 C   0  0  0  0  0  0  0  0  0  0  0  0
  152.3040  145.0603  158.2968 C   0  0  0  0  0  0  0  0  0  0  0  0
  151.8874  145.0257  159.7494 C   0  0  0  0  0  0  0  0  0  0  0  0
  151.0427  141.7202  158.1484 N   0  0  0  0  0  0  0  0  0  0  0  0
  151.3224  140.3675  158.1744 N   0  0  0  0  0  0  0  0  0  0  0  0
  150.4695  139.5745  157.2771 C   0  0  0  0  0  0  0  0  0  0  0  0
  150.4967  140.0963  155.8231 C   0  0  2  0  0  0  0  0  0  0  0  0
  151.8546  140.2097  155.4461 O   0  0  0  0  0  0  0  0  0  0  0  0
  149.8104  141.4694  155.6404 C   0  0  0  0  0  0  0  0  0  0  0  0
  148.3830  141.4138  155.3278 N   0  0  0  0  0  0  0  0  0  0  0  0
  147.5942  142.0660  156.3676 C   0  0  0  0  0  0  0  0  0  0  0  0
  146.0874  142.0186  156.0609 C   0  0  0  0  0  0  0  0  0  0  0  0
  145.8413  142.6179  154.7932 O   0  0  0  0  0  0  0  0  0  0  0  0
  146.5578  141.9841  153.7384 C   0  0  0  0  0  0  0  0  0  0  0  0
  148.0665  142.0242  154.0385 C   0  0  0  0  0  0  0  0  0  0  0  0
  153.3412  142.7718  160.3066 H   0  0  0  0  0  0  0  0  0  0  0  0
  150.2969  144.1142  158.4821 H   0  0  0  0  0  0  0  0  0  0  0  0
  153.3248  144.7610  158.0661 H   0  0  0  0  0  0  0  0  0  0  0  0
  151.9029  145.8605  157.6782 H   0  0  0  0  0  0  0  0  0  0  0  0
  151.2089  145.8018  160.0976 H   0  0  0  0  0  0  0  0  0  0  0  0
  152.6296  144.6960  160.4742 H   0  0  0  0  0  0  0  0  0  0  0  0
  150.7175  138.5120  157.2996 H   0  0  0  0  0  0  0  0  0  0  0  0
  149.4488  139.6314  157.6609 H   0  0  0  0  0  0  0  0  0  0  0  0
  150.0319  139.3550  155.1712 H   0  0  0  0  0  0  0  0  0  0  0  0
  152.3857  140.1860  156.2272 H   0  0  0  0  0  0  0  0  0  0  0  0
  149.9127  142.0235  156.5719 H   0  0  0  0  0  0  0  0  0  0  0  0
  150.3419  142.0669  154.8977 H   0  0  0  0  0  0  0  0  0  0  0  0
  147.7797  141.5868  157.3295 H   0  0  0  0  0  0  0  0  0  0  0  0
  147.9070  143.1062  156.4718 H   0  0  0  0  0  0  0  0  0  0  0  0
  145.7247  140.9895  156.0624 H   0  0  0  0  0  0  0  0  0  0  0  0
  145.5275  142.5577  156.8250 H   0  0  0  0  0  0  0  0  0  0  0  0
  146.2143  140.9546  153.6246 H   0  0  0  0  0  0  0  0  0  0  0  0
  146.3437  142.4987  152.8017 H   0  0  0  0  0  0  0  0  0  0  0  0
  148.4108  143.0594  154.0249 H   0  0  0  0  0  0  0  0  0  0  0  0
  148.5954  141.5083  153.2375 H   0  0  0  0  0  0  0  0  0  0  0  0
  1  2  2  0  0  0  0
  2 14  1  0  0  0  0
  2  3  1  0  0  0  0
  3  4  1  0  0  0  0
  3  8  2  0  0  0  0
  4  5  1  0  0  0  0
  4  6  1  0  0  0  0
  4  7  1  0  0  0  0
  8  9  1  0  0  0  0
  8 25  1  0  0  0  0
  9 10  1  0  0  0  0
  9 13  2  0  0  0  0
 10 12  1  0  0  0  0
 10 11  1  0  0  0  0
 10 26  1  0  0  0  0
 11 12  1  0  0  0  0
 11 27  1  0  0  0  0
 11 28  1  0  0  0  0
 12 29  1  0  0  0  0
 12 30  1  0  0  0  0
 13 14  1  0  0  0  0
 14 15  1  0  0  0  0
 15 16  1  0  0  0  0
 15 31  1  0  0  0  0
 15 32  1  0  0  0  0
 16 17  1  0  0  0  0
 16 18  1  0  0  0  0
 16 33  1  0  0  0  0
 17 34  1  0  0  0  0
 18 19  1  0  0  0  0
 18 35  1  0  0  0  0
 18 36  1  0  0  0  0
 19 24  1  0  0  0  0
 19 20  1  0  0  0  0
 20 21  1  0  0  0  0
 20 37  1  0  0  0  0
 20 38  1  0  0  0  0
 21 22  1  0  0  0  0
 21 39  1  0  0  0  0
 21 40  1  0  0  0  0
 22 23  1  0  0  0  0
 23 24  1  0  0  0  0
 23 41  1  0  0  0  0
 23 42  1  0  0  0  0
 24 43  1  0  0  0  0
 24 44  1  0  0  0  0
M  END
> <s_m_source_file>
AV-unprocessed.smi

> <i_m_source_file_index>
1603

> <i_lp_mmshare_version>
43012

> <i_f3d_flags>
0

> <s_epik_input>
Tz1jMWMoQyhGKShGKUYpW2NIXWMoW0NIXTJbQ0gyXVtDSDJdMilubjFbQ0gyXVtDQEhdKFtPSF0pW0NIMl1OM1tDSDJdW0NIMl1PW0NIMl1bQ0gyXTM=

> <s_epik_cmdline>
J2VwaWtfcHl0aG9uJywgJy1waCcsICc3LjAnLCAnLXRuJywgJzgnLCAnLW1hJywgJzIwMCcsICctbWV0YWxfYmluZGluZycsICctaW1hZScsICc8aW5maWxlLm1hZT4nLCAnLW9tYWUnLCAnPG91dGZpbGUubWFlPic=

> <r_lp_tautomer_probability>
1

> <r_epik_Ionization_Penalty>
0.450313

> <r_epik_Ionization_Penalty_Charging>
7.22079e-10

> <r_epik_Ionization_Penalty_Neutral>
0.450313

> <r_epik_State_Penalty>
0.45306

> <r_epik_Charging_Adjusted_Penalty>
0.45306

> <i_epik_Tot_Q>
0

> <i_epik_Tot_abs_Q>
0

> <r_epik_Metal_State_Penalty>
0.45306

> <b_epik_Metal_Only>
0

> <s_lp_Force_Field>
OPLS_2005

> <r_lp_Energy>
49.46

> <b_lp_Chiralities_Consistent>
1

> <s_lp_Variant>
AV-unprocessed.smi:1603-3

> <Gold.Version>
5.8.1

> <Gold.Id.Protein>
6NUR|6NUR_protein|mol2

> <Gold.PLP.Fitness>
46.0472

> <Gold.PLP.PLP>
-47.6701

> <Gold.PLP.part.hbond>
-1.0000

> <Gold.PLP.part.metal>
0.0000

> <Gold.PLP.part.buried>
-5.5297

> <Gold.PLP.part.nonpolar>
-41.1520

> <Gold.PLP.part.repulsive>
0.3170

> <Gold.PLP.ligand.clash>
0.0306

> <Gold.PLP.ligand.torsion>
2.3901

> <Gold.PLP.Chemscore.Hbond>
0.8089

> <Gold.PLP.Chemscore.CHOScore>
0.0000

> <Gold.PLP.Chemscore.Metal>
0.0000

> <Gold.Chemscore.Hbonds>
donor molecule, donor type, donor heavy atom, donor atom, acceptor molecule, acceptor atom, score
      P1  H  7989  7998       L1    17  0.77

> <Gold.PLP.Chemscore.Internal.Correction>
0.7613

> <Gold.Rescore>
     Score         DG    S(hbond)    S(metal)    S(lipo)     H(rot)  DE(clash)    DE(int)     intcor
      9.72     -14.72       0.91        0.00     106.03       2.43       0.02       4.98       ----

> <Gold.Chemscore.Fitness>
9.7170

> <Gold.Chemscore.DG>
-14.7195

> <Gold.Chemscore.ZeroCoef>
-5.4800

> <Gold.Chemscore.Hbond>
0.9125

> <Gold.Chemscore.Metal>
0.0000

> <Gold.Chemscore.Lipo>
106.0284

> <Gold.Chemscore.Internal_Hbond>
0.0000

> <Gold.Chemscore.DEClash>
0.0242

> <Gold.Chemscore.DEInternal>
4.9783

> <Gold.Chemscore.Rot>
2.4272

> <Gold.Chemscore.Internal.Correction>
   9.000000E+99

> <Gold.Chemscore.Hbonds>
donor molecule, donor type, donor heavy atom, donor atom, acceptor molecule, acceptor atom, score
      P1  H  7989  7998       L1    17  0.22

> <Gold.Chemscore.Hbond.Weighted>
-3.0476

> <Gold.Chemscore.Metal.Weighted>
-0.0000

> <Gold.Chemscore.Lipo.Weighted>
-12.4053

> <Gold.Chemscore.Internal_Hbond.Weighted>
0.0000

> <Gold.Chemscore.DEClash.Weighted>
0.0242

> <Gold.Chemscore.DEInternal.Weighted>
4.9783

> <Gold.Chemscore.Rot.Weighted>
6.2135

> <Gold.Chemscore.Internal.Correction.Weighted>
   9.000000E+99

> <Gold.Protein.RotatedTorsions>
[ 6907 6896 6895 6894 ] final  -57.02 input  -60.11 | X-H torsion
[ 7974 7965 7964 7962 ] final  -35.18 input  175.53 | X-H torsion
[ 8008 7997 7996 7995 ] final  130.57 input   59.86 | X-H torsion
[ 10167 10162 10161 10158 ] final  167.62 input  -65.29 | X-H torsion
[ 10718 10713 10712 10709 ] final -120.48 input   66.30 | X-H torsion
[ 10763 10752 10751 10750 ] final   50.24 input  -60.55 | X-H torsion
[ 11005 11000 10999 10996 ] final  154.43 input  -57.11 | X-H torsion

> <Gold.Protein.ActiveResidues>
 VAL166  LYS551  ARG553  GLY616  TRP617  ASP618  TYR619  PRO620  LYS621  CYS622 
 ASP623  PHE694  ASN695  SER759  ASP760  ASP761  ALA762  ILE779  LEU786  VAL792 
 PHE793  MET794  SER795  GLU796  ALA797  LYS798  CYS799  TRP800  GLU811  SER814 

> <Gold.Protein.RotatedAtoms>
  150.8119  134.7279  159.6695 H   0  0  0  0  0  0  0  0  0  0  0  0  # atno 6907 bound_to 6896
  152.4239  134.5901  159.9981 H   0  0  0  0  0  0  0  0  0  0  0  0  # atno 6908 bound_to 6896
  151.6108  133.3310  159.3103 H   0  0  0  0  0  0  0  0  0  0  0  0  # atno 6909 bound_to 6896
  146.0768  140.6128  142.8927 H   0  0  0  0  0  0  0  0  0  0  0  0  # atno 7974 bound_to 7965
  156.2956  140.2592  156.2784 H   0  0  0  0  0  0  0  0  0  0  0  0  # atno 8008 bound_to 7997
  154.9626  140.0392  157.2216 H   0  0  0  0  0  0  0  0  0  0  0  0  # atno 8009 bound_to 7997
  154.7933  140.2815  155.5980 H   0  0  0  0  0  0  0  0  0  0  0  0  # atno 8010 bound_to 7997
  139.4949  144.3902  151.9525 H   0  0  0  0  0  0  0  0  0  0  0  0  # atno 10167 bound_to 10162
  156.1262  130.6360  150.9546 H   0  0  0  0  0  0  0  0  0  0  0  0  # atno 10718 bound_to 10713
  152.9785  135.5885  154.4220 H   0  0  0  0  0  0  0  0  0  0  0  0  # atno 10763 bound_to 10752
  154.3843  135.2767  155.2194 H   0  0  0  0  0  0  0  0  0  0  0  0  # atno 10764 bound_to 10752
  154.4094  135.6085  153.5998 H   0  0  0  0  0  0  0  0  0  0  0  0  # atno 10765 bound_to 10752
  140.1489  134.8688  157.2428 H   0  0  0  0  0  0  0  0  0  0  0  0  # atno 11005 bound_to 11000
  144.7266  140.4545  143.6968 LP  0  0  0  0  0  0  0  0  0  0  0  0  # atno 17320 bound_to 7965
  145.6292  139.1534  143.2979 LP  0  0  0  0  0  0  0  0  0  0  0  0  # atno 17321 bound_to 7965
  140.3340  144.3283  150.5981 LP  0  0  0  0  0  0  0  0  0  0  0  0  # atno 17342 bound_to 10162
  140.5622  143.2191  151.7746 LP  0  0  0  0  0  0  0  0  0  0  0  0  # atno 17343 bound_to 10162
  157.6443  131.0906  150.8186 LP  0  0  0  0  0  0  0  0  0  0  0  0  # atno 17370 bound_to 10713
  156.8276  130.5005  149.5335 LP  0  0  0  0  0  0  0  0  0  0  0  0  # atno 17371 bound_to 10713
  140.2629  134.3549  155.7400 LP  0  0  0  0  0  0  0  0  0  0  0  0  # atno 17394 bound_to 11000
  141.2196  133.7380  156.9108 LP  0  0  0  0  0  0  0  0  0  0  0  0  # atno 17395 bound_to 11000

$$$$
