AV-unprocessed.smi:111|AV-procd|sdf|1081|dock5
  -GOLD-   2262018173D 1   1.00000     0.00000
 Structure written by MMmdl.
 46 48  0  0  0  0  0  0  0  0  1 V2000
  152.8945  138.0841  159.1358 O   0  0  0  0  0  0  0  0  0  0  0  0
  152.4151  139.2039  158.9507 C   0  0  0  0  0  0  0  0  0  0  0  0
  152.8764  140.3948  159.6559 C   0  0  0  0  0  0  0  0  0  0  0  0
  153.8908  140.2968  160.5320 F   0  0  0  0  0  0  0  0  0  0  0  0
  152.2980  141.5973  159.4491 C   0  0  0  0  0  0  0  0  0  0  0  0
  151.2475  141.7884  158.5672 N   0  0  0  0  0  0  0  0  0  0  0  0
  150.6157  143.1496  158.3705 C   0  0  2  0  0  0  0  0  0  0  0  0
  151.6171  144.1114  157.7237 C   0  0  0  0  0  0  0  0  0  0  0  0
  152.2636  144.7430  158.9371 C   0  0  0  0  0  0  0  0  0  0  0  0
  151.0905  144.8161  159.9089 C   0  0  0  0  0  0  0  0  0  0  0  0
  150.2741  143.6831  159.6176 O   0  0  0  0  0  0  0  0  0  0  0  0
  150.7538  140.6971  157.8207 C   0  0  0  0  0  0  0  0  0  0  0  0
  149.8360  140.8500  157.0112 O   0  0  0  0  0  0  0  0  0  0  0  0
  151.3512  139.4332  158.0415 N   0  0  0  0  0  0  0  0  0  0  0  0
  150.7905  138.2968  157.3232 C   0  0  0  0  0  0  0  0  0  0  0  0
  149.2620  138.1402  157.4947 C   0  0  1  0  0  0  0  0  0  0  0  0
  148.8266  137.0992  156.6449 O   0  0  0  0  0  0  0  0  0  0  0  0
  148.8118  137.8302  158.9396 C   0  0  0  0  0  0  0  0  0  0  0  0
  149.1598  136.4068  159.4123 C   0  0  0  0  0  0  0  0  0  0  0  0
  148.3307  135.9641  160.6071 C   0  0  0  0  0  0  0  0  0  0  0  0
  148.2847  136.7612  161.7710 C   0  0  0  0  0  0  0  0  0  0  0  0
  147.4932  136.3694  162.8678 C   0  0  0  0  0  0  0  0  0  0  0  0
  146.7485  135.1759  162.8081 C   0  0  0  0  0  0  0  0  0  0  0  0
  146.7955  134.3746  161.6511 C   0  0  0  0  0  0  0  0  0  0  0  0
  147.5846  134.7676  160.5524 C   0  0  0  0  0  0  0  0  0  0  0  0
  152.6874  142.4390  160.0018 H   0  0  0  0  0  0  0  0  0  0  0  0
  149.7130  142.9806  157.7808 H   0  0  0  0  0  0  0  0  0  0  0  0
  152.3163  143.6031  157.0585 H   0  0  0  0  0  0  0  0  0  0  0  0
  151.0639  144.8576  157.1525 H   0  0  0  0  0  0  0  0  0  0  0  0
  153.0436  144.0905  159.3309 H   0  0  0  0  0  0  0  0  0  0  0  0
  152.7064  145.7172  158.7292 H   0  0  0  0  0  0  0  0  0  0  0  0
  151.4102  144.8205  160.9510 H   0  0  0  0  0  0  0  0  0  0  0  0
  150.5065  145.7193  159.7291 H   0  0  0  0  0  0  0  0  0  0  0  0
  151.0562  138.4434  156.2742 H   0  0  0  0  0  0  0  0  0  0  0  0
  151.3196  137.3908  157.6195 H   0  0  0  0  0  0  0  0  0  0  0  0
  148.7789  139.0520  157.1464 H   0  0  0  0  0  0  0  0  0  0  0  0
  147.8886  137.1621  156.5492 H   0  0  0  0  0  0  0  0  0  0  0  0
  149.2406  138.5637  159.6232 H   0  0  0  0  0  0  0  0  0  0  0  0
  147.7329  137.9464  159.0266 H   0  0  0  0  0  0  0  0  0  0  0  0
  149.0354  135.6996  158.5913 H   0  0  0  0  0  0  0  0  0  0  0  0
  150.2127  136.3634  159.6930 H   0  0  0  0  0  0  0  0  0  0  0  0
  148.8501  137.6800  161.8223 H   0  0  0  0  0  0  0  0  0  0  0  0
  147.4564  136.9852  163.7542 H   0  0  0  0  0  0  0  0  0  0  0  0
  146.1413  134.8750  163.6491 H   0  0  0  0  0  0  0  0  0  0  0  0
  146.2233  133.4598  161.6049 H   0  0  0  0  0  0  0  0  0  0  0  0
  147.6073  134.1522  159.6651 H   0  0  0  0  0  0  0  0  0  0  0  0
  1  2  2  0  0  0  0
  2 14  1  0  0  0  0
  2  3  1  0  0  0  0
  3  4  1  0  0  0  0
  3  5  2  0  0  0  0
  5  6  1  0  0  0  0
  5 26  1  0  0  0  0
  6  7  1  0  0  0  0
  6 12  1  0  0  0  0
  7 11  1  0  0  0  0
  7  8  1  0  0  0  0
  7 27  1  0  0  0  0
  8  9  1  0  0  0  0
  8 28  1  0  0  0  0
  8 29  1  0  0  0  0
  9 10  1  0  0  0  0
  9 30  1  0  0  0  0
  9 31  1  0  0  0  0
 10 11  1  0  0  0  0
 10 32  1  0  0  0  0
 10 33  1  0  0  0  0
 12 13  2  0  0  0  0
 12 14  1  0  0  0  0
 14 15  1  0  0  0  0
 15 16  1  0  0  0  0
 15 34  1  0  0  0  0
 15 35  1  0  0  0  0
 16 17  1  0  0  0  0
 16 18  1  0  0  0  0
 16 36  1  0  0  0  0
 17 37  1  0  0  0  0
 18 19  1  0  0  0  0
 18 38  1  0  0  0  0
 18 39  1  0  0  0  0
 19 20  1  0  0  0  0
 19 40  1  0  0  0  0
 19 41  1  0  0  0  0
 20 25  1  0  0  0  0
 20 21  2  0  0  0  0
 21 22  1  0  0  0  0
 21 42  1  0  0  0  0
 22 23  2  0  0  0  0
 22 43  1  0  0  0  0
 23 24  1  0  0  0  0
 23 44  1  0  0  0  0
 24 25  2  0  0  0  0
 24 45  1  0  0  0  0
 25 46  1  0  0  0  0
M  END
> <s_m_source_file>
AV-unprocessed.smi

> <i_m_source_file_index>
111

> <i_lp_mmshare_version>
43012

> <i_f3d_flags>
0

> <s_epik_input>
TzFbQ0gyXVtDSDJdW0NIMl1bQ0BIXTFuKFtjSF1jKEYpYzI9TyljKD1PKW4yW0NIMl1bQ0BIXShbT0hdKVtDSDJdW0NIMl1jM1tjSF1bY0hdW2NIXVtjSF1bY0hdMw==

> <s_epik_cmdline>
J2VwaWtfcHl0aG9uJywgJy1waCcsICc3LjAnLCAnLXRuJywgJzgnLCAnLW1hJywgJzIwMCcsICctbWV0YWxfYmluZGluZycsICctaW1hZScsICc8aW5maWxlLm1hZT4nLCAnLW9tYWUnLCAnPG91dGZpbGUubWFlPic=

> <r_lp_tautomer_probability>
1

> <r_epik_Ionization_Penalty>
1.88248e-07

> <r_epik_Ionization_Penalty_Charging>
4.03974e-08

> <r_epik_Ionization_Penalty_Neutral>
1.47851e-07

> <r_epik_State_Penalty>
-0

> <r_epik_Charging_Adjusted_Penalty>
4.03974e-08

> <i_epik_Tot_Q>
0

> <i_epik_Tot_abs_Q>
0

> <r_epik_Metal_State_Penalty>
-0

> <b_epik_Metal_Only>
0

> <s_epik_Chemistry_Notes>
This compound contains an acetal/aminal-like group ( X-CH(R)-Y where X, Y are N, S, or O) that may be acid/base labile, releasing an aldehyde.

> <s_lp_Force_Field>
OPLS_2005

> <r_lp_Energy>
35.2037

> <b_lp_Chiralities_Consistent>
1

> <s_lp_Variant>
AV-unprocessed.smi:111-3

> <Gold.Version>
5.8.1

> <Gold.Id.Protein>
6NUR|6NUR_protein|mol2

> <Gold.PLP.Fitness>
47.4365

> <Gold.PLP.PLP>
-48.0416

> <Gold.PLP.part.hbond>
-0.5245

> <Gold.PLP.part.metal>
0.0000

> <Gold.PLP.part.buried>
-3.4475

> <Gold.PLP.part.nonpolar>
-45.2072

> <Gold.PLP.part.repulsive>
0.1500

> <Gold.PLP.ligand.clash>
0.0000

> <Gold.PLP.ligand.torsion>
0.3487

> <Gold.PLP.Chemscore.Hbond>
0.0000

> <Gold.PLP.Chemscore.CHOScore>
0.0000

> <Gold.PLP.Chemscore.Metal>
0.0000

> <Gold.PLP.Chemscore.Internal.Correction>
0.0923

> <Gold.Rescore>
     Score         DG    S(hbond)    S(metal)    S(lipo)     H(rot)  DE(clash)    DE(int)     intcor
      9.48     -12.60       0.00        0.00     119.37       2.67       1.37       1.75       ----

> <Gold.Chemscore.Fitness>
9.4823

> <Gold.Chemscore.DG>
-12.6003

> <Gold.Chemscore.ZeroCoef>
-5.4800

> <Gold.Chemscore.Hbond>
0.0000

> <Gold.Chemscore.Metal>
0.0000

> <Gold.Chemscore.Lipo>
119.3727

> <Gold.Chemscore.Internal_Hbond>
0.0000

> <Gold.Chemscore.DEClash>
1.3685

> <Gold.Chemscore.DEInternal>
1.7495

> <Gold.Chemscore.Rot>
2.6743

> <Gold.Chemscore.Internal.Correction>
   9.000000E+99

> <Gold.Chemscore.Hbond.Weighted>
-0.0000

> <Gold.Chemscore.Metal.Weighted>
-0.0000

> <Gold.Chemscore.Lipo.Weighted>
-13.9666

> <Gold.Chemscore.Internal_Hbond.Weighted>
0.0000

> <Gold.Chemscore.DEClash.Weighted>
1.3685

> <Gold.Chemscore.DEInternal.Weighted>
1.7495

> <Gold.Chemscore.Rot.Weighted>
6.8463

> <Gold.Chemscore.Internal.Correction.Weighted>
   9.000000E+99

> <Gold.Protein.RotatedTorsions>
[ 6907 6896 6895 6894 ] final  151.79 input  -60.11 | X-H torsion
[ 7974 7965 7964 7962 ] final    4.69 input  175.53 | X-H torsion
[ 8008 7997 7996 7995 ] final   90.83 input   59.86 | X-H torsion
[ 10167 10162 10161 10158 ] final  -73.74 input  -65.29 | X-H torsion
[ 10718 10713 10712 10709 ] final  -66.08 input   66.30 | X-H torsion
[ 10763 10752 10751 10750 ] final  -45.27 input  -60.55 | X-H torsion
[ 11005 11000 10999 10996 ] final   87.72 input  -57.11 | X-H torsion

> <Gold.Protein.ActiveResidues>
 VAL166  LYS551  ARG553  GLY616  TRP617  ASP618  TYR619  PRO620  LYS621  CYS622 
 ASP623  PHE694  ASN695  SER759  ASP760  ASP761  ALA762  ILE779  LEU786  VAL792 
 PHE793  MET794  SER795  GLU796  ALA797  LYS798  CYS799  TRP800  GLU811  SER814 

> <Gold.Protein.RotatedAtoms>
  152.0958  133.4224  159.4564 H   0  0  0  0  0  0  0  0  0  0  0  0  # atno 6907 bound_to 6896
  150.6863  134.2819  159.4640 H   0  0  0  0  0  0  0  0  0  0  0  0  # atno 6908 bound_to 6896
  152.0674  134.9555  160.0625 H   0  0  0  0  0  0  0  0  0  0  0  0  # atno 6909 bound_to 6896
  146.2443  140.0497  142.8376 H   0  0  0  0  0  0  0  0  0  0  0  0  # atno 7974 bound_to 7965
  156.0166  140.3345  155.6996 H   0  0  0  0  0  0  0  0  0  0  0  0  # atno 8008 bound_to 7997
  155.6081  140.0662  157.2731 H   0  0  0  0  0  0  0  0  0  0  0  0  # atno 8009 bound_to 7997
  154.4301  140.1798  156.1231 H   0  0  0  0  0  0  0  0  0  0  0  0  # atno 8010 bound_to 7997
  140.5085  143.2349  151.7633 H   0  0  0  0  0  0  0  0  0  0  0  0  # atno 10167 bound_to 10162
  156.0633  130.4256  150.1656 H   0  0  0  0  0  0  0  0  0  0  0  0  # atno 10718 bound_to 10713
  154.0258  135.6663  153.4776 H   0  0  0  0  0  0  0  0  0  0  0  0  # atno 10763 bound_to 10752
  153.0561  135.5055  154.7980 H   0  0  0  0  0  0  0  0  0  0  0  0  # atno 10764 bound_to 10752
  154.6909  135.3061  154.9445 H   0  0  0  0  0  0  0  0  0  0  0  0  # atno 10765 bound_to 10752
  139.8913  134.8440  156.2899 H   0  0  0  0  0  0  0  0  0  0  0  0  # atno 11005 bound_to 11000
  145.0995  140.9337  143.4721 LP  0  0  0  0  0  0  0  0  0  0  0  0  # atno 17320 bound_to 7965
  145.0687  139.3048  143.5843 LP  0  0  0  0  0  0  0  0  0  0  0  0  # atno 17321 bound_to 7965
  139.4890  144.4424  151.9749 LP  0  0  0  0  0  0  0  0  0  0  0  0  # atno 17342 bound_to 10162
  140.3515  144.3083  150.5948 LP  0  0  0  0  0  0  0  0  0  0  0  0  # atno 17343 bound_to 10162
  156.9721  130.9838  151.3456 LP  0  0  0  0  0  0  0  0  0  0  0  0  # atno 17370 bound_to 10713
  157.5657  130.8276  149.8324 LP  0  0  0  0  0  0  0  0  0  0  0  0  # atno 17371 bound_to 10713
  140.9983  133.7167  156.0920 LP  0  0  0  0  0  0  0  0  0  0  0  0  # atno 17394 bound_to 11000
  140.7532  134.4021  157.5538 LP  0  0  0  0  0  0  0  0  0  0  0  0  # atno 17395 bound_to 11000

$$$$
