AV-unprocessed.smi:1387|AV-procd|sdf|5640|dock2
  -GOLD-   22720 5253D 1   1.00000     0.00000
 Structure written by MMmdl.
 34 35  0  0  0  0  0  0  0  0  1 V2000
  147.7880  141.2374  154.3563 C   0  0  0  0  0  0  0  0  0  0  0  0
  148.9239  141.2053  155.2130 O   0  0  0  0  0  0  0  0  0  0  0  0
  149.8001  140.1418  155.1069 C   0  0  0  0  0  0  0  0  0  0  0  0
  149.4892  139.1295  154.2587 N   0  0  0  0  0  0  0  0  0  0  0  0
  150.3464  138.0930  154.1544 C   0  0  0  0  0  0  0  0  0  0  0  0
  151.5514  138.0131  154.8768 C   0  0  0  0  0  0  0  0  0  0  0  0
  151.8758  139.0619  155.7572 C   0  0  0  0  0  0  0  0  0  0  0  0
  150.9781  140.1481  155.8887 C   0  0  0  0  0  0  0  0  0  0  0  0
  151.2184  141.2649  156.7328 N   0  0  0  0  0  0  0  0  0  0  0  0
  152.1197  141.3858  157.7261 C   0  0  0  0  0  0  0  0  0  0  0  0
  152.9222  140.5135  158.0521 O   0  0  0  0  0  0  0  0  0  0  0  0
  152.0524  142.5561  158.3867 N   0  0  0  0  0  0  0  0  0  0  0  0
  152.8790  143.0072  159.5097 C   0  0  0  0  0  0  0  0  0  0  0  0
  152.8669  141.9675  160.6461 C   0  0  0  0  0  0  0  0  0  0  0  0
  152.6705  142.7594  161.9393 C   0  0  0  0  0  0  0  0  0  0  0  0
  151.8285  143.9592  161.5187 C   0  0  0  0  0  0  0  0  0  0  0  0
  152.3538  144.3208  160.1288 C   0  0  0  0  0  0  0  0  0  0  0  0
  147.2008  142.1302  154.5704 H   0  0  0  0  0  0  0  0  0  0  0  0
  147.1437  140.3716  154.5157 H   0  0  0  0  0  0  0  0  0  0  0  0
  148.0812  141.2783  153.3064 H   0  0  0  0  0  0  0  0  0  0  0  0
  150.0663  137.3064  153.4696 H   0  0  0  0  0  0  0  0  0  0  0  0
  152.2136  137.1689  154.7548 H   0  0  0  0  0  0  0  0  0  0  0  0
  152.8071  139.0223  156.3009 H   0  0  0  0  0  0  0  0  0  0  0  0
  150.5610  142.0256  156.6400 H   0  0  0  0  0  0  0  0  0  0  0  0
  151.3093  143.1825  158.1127 H   0  0  0  0  0  0  0  0  0  0  0  0
  153.9077  143.1498  159.1737 H   0  0  0  0  0  0  0  0  0  0  0  0
  152.0295  141.2780  160.5269 H   0  0  0  0  0  0  0  0  0  0  0  0
  153.7772  141.3675  160.6672 H   0  0  0  0  0  0  0  0  0  0  0  0
  152.1994  142.1697  162.7262 H   0  0  0  0  0  0  0  0  0  0  0  0
  153.6367  143.1017  162.3120 H   0  0  0  0  0  0  0  0  0  0  0  0
  150.7802  143.6657  161.4501 H   0  0  0  0  0  0  0  0  0  0  0  0
  151.8973  144.7893  162.2224 H   0  0  0  0  0  0  0  0  0  0  0  0
  153.1810  145.0252  160.2267 H   0  0  0  0  0  0  0  0  0  0  0  0
  151.5885  144.8119  159.5263 H   0  0  0  0  0  0  0  0  0  0  0  0
  1  2  1  0  0  0  0
  1 18  1  0  0  0  0
  1 19  1  0  0  0  0
  1 20  1  0  0  0  0
  2  3  1  0  0  0  0
  3  8  1  0  0  0  0
  3  4  2  0  0  0  0
  4  5  1  0  0  0  0
  5  6  2  0  0  0  0
  5 21  1  0  0  0  0
  6  7  1  0  0  0  0
  6 22  1  0  0  0  0
  7  8  2  0  0  0  0
  7 23  1  0  0  0  0
  8  9  1  0  0  0  0
  9 10  1  0  0  0  0
  9 24  1  0  0  0  0
 10 11  2  0  0  0  0
 10 12  1  0  0  0  0
 12 13  1  0  0  0  0
 12 25  1  0  0  0  0
 13 17  1  0  0  0  0
 13 14  1  0  0  0  0
 13 26  1  0  0  0  0
 14 15  1  0  0  0  0
 14 27  1  0  0  0  0
 14 28  1  0  0  0  0
 15 16  1  0  0  0  0
 15 29  1  0  0  0  0
 15 30  1  0  0  0  0
 16 17  1  0  0  0  0
 16 31  1  0  0  0  0
 16 32  1  0  0  0  0
 17 33  1  0  0  0  0
 17 34  1  0  0  0  0
M  END
> <s_m_source_file>
AV-unprocessed.smi

> <i_m_source_file_index>
1387

> <i_lp_mmshare_version>
43012

> <i_f3d_flags>
0

> <s_epik_input>
W0NIM11PYzFuW2NIXVtjSF1bY0hdYzFbTkhdQyg9TylbTkhdW0NIXTJbQ0gyXVtDSDJdW0NIMl1bQ0gyXTI=

> <s_epik_cmdline>
J2VwaWtfcHl0aG9uJywgJy1waCcsICc3LjAnLCAnLXRuJywgJzgnLCAnLW1hJywgJzIwMCcsICctbWV0YWxfYmluZGluZycsICctaW1hZScsICc8aW5maWxlLm1hZT4nLCAnLW9tYWUnLCAnPG91dGZpbGUubWFlPic=

> <r_lp_tautomer_probability>
1

> <r_epik_Ionization_Penalty>
0.000100079

> <r_epik_Ionization_Penalty_Charging>
0

> <r_epik_Ionization_Penalty_Neutral>
0.000100079

> <r_epik_State_Penalty>
-0

> <r_epik_Charging_Adjusted_Penalty>
0

> <i_epik_Tot_Q>
0

> <i_epik_Tot_abs_Q>
0

> <r_epik_Metal_State_Penalty>
-0

> <b_epik_Metal_Only>
0

> <s_lp_Force_Field>
OPLS_2005

> <r_lp_Energy>
31.3495

> <b_lp_Chiralities_Consistent>
1

> <s_lp_Variant>
AV-unprocessed.smi:1387-1

> <Gold.Version>
5.8.1

> <Gold.Id.Protein>
6NUR|6NUR_protein|mol2

> <Gold.PLP.Fitness>
42.2351

> <Gold.PLP.PLP>
-36.7504

> <Gold.PLP.part.hbond>
-1.0000

> <Gold.PLP.part.metal>
0.0000

> <Gold.PLP.part.buried>
-2.9888

> <Gold.PLP.part.nonpolar>
-31.9517

> <Gold.PLP.part.repulsive>
0.9836

> <Gold.PLP.ligand.clash>
0.0000

> <Gold.PLP.ligand.torsion>
0.1239

> <Gold.PLP.Chemscore.Hbond>
0.8640

> <Gold.PLP.Chemscore.CHOScore>
1.0436

> <Gold.PLP.Chemscore.Metal>
0.0000

> <Gold.Chemscore.Hbonds>
donor molecule, donor type, donor heavy atom, donor atom, acceptor molecule, acceptor atom, score
      P1  H  7997  8010       L1    11  0.80
      L1  C     5    21       P1  7948  1.00
      L1  C     5    21       P1  7949  0.04

> <Gold.PLP.Chemscore.Internal.Correction>
0.0097

> <Gold.Rescore>
     Score         DG    S(hbond)    S(metal)    S(lipo)     H(rot)  DE(clash)    DE(int)     intcor
     13.68     -16.16       0.80        0.00      95.33       1.23       0.15       2.34       ----

> <Gold.Chemscore.Fitness>
13.6777

> <Gold.Chemscore.DG>
-16.1626

> <Gold.Chemscore.ZeroCoef>
-5.4800

> <Gold.Chemscore.Hbond>
0.8030

> <Gold.Chemscore.Metal>
0.0000

> <Gold.Chemscore.Lipo>
95.3275

> <Gold.Chemscore.Internal_Hbond>
0.0000

> <Gold.Chemscore.DEClash>
0.1464

> <Gold.Chemscore.DEInternal>
2.3385

> <Gold.Chemscore.Rot>
1.2315

> <Gold.Chemscore.Internal.Correction>
   9.000000E+99

> <Gold.Chemscore.Hbonds>
donor molecule, donor type, donor heavy atom, donor atom, acceptor molecule, acceptor atom, score
      P1  H  7997  8010       L1    11  0.76

> <Gold.Chemscore.Hbond.Weighted>
-2.6819

> <Gold.Chemscore.Metal.Weighted>
-0.0000

> <Gold.Chemscore.Lipo.Weighted>
-11.1533

> <Gold.Chemscore.Internal_Hbond.Weighted>
0.0000

> <Gold.Chemscore.DEClash.Weighted>
0.1464

> <Gold.Chemscore.DEInternal.Weighted>
2.3385

> <Gold.Chemscore.Rot.Weighted>
3.1526

> <Gold.Chemscore.Internal.Correction.Weighted>
   9.000000E+99

> <Gold.Protein.RotatedTorsions>
[ 6907 6896 6895 6894 ] final   22.88 input  -60.11 | X-H torsion
[ 7974 7965 7964 7962 ] final   19.82 input  175.53 | X-H torsion
[ 8008 7997 7996 7995 ] final   42.10 input   59.86 | X-H torsion
[ 10167 10162 10161 10158 ] final   56.19 input  -65.29 | X-H torsion
[ 10718 10713 10712 10709 ] final  131.13 input   66.30 | X-H torsion
[ 10763 10752 10751 10750 ] final  -57.61 input  -60.55 | X-H torsion
[ 11005 11000 10999 10996 ] final -111.29 input  -57.11 | X-H torsion

> <Gold.Protein.ActiveResidues>
 VAL166  LYS551  ARG553  GLY616  TRP617  ASP618  TYR619  PRO620  LYS621  CYS622 
 ASP623  PHE694  ASN695  SER759  ASP760  ASP761  ALA762  ILE779  LEU786  VAL792 
 PHE793  MET794  SER795  GLU796  ALA797  LYS798  CYS799  TRP800  GLU811  SER814 

> <Gold.Protein.RotatedAtoms>
  151.9339  135.0244  160.0530 H   0  0  0  0  0  0  0  0  0  0  0  0  # atno 6907 bound_to 6896
  152.2094  133.4895  159.5110 H   0  0  0  0  0  0  0  0  0  0  0  0  # atno 6908 bound_to 6896
  150.6972  134.1403  159.4145 H   0  0  0  0  0  0  0  0  0  0  0  0  # atno 6909 bound_to 6896
  146.2135  139.8258  142.8670 H   0  0  0  0  0  0  0  0  0  0  0  0  # atno 7974 bound_to 7965
  155.2806  140.3372  155.4258 H   0  0  0  0  0  0  0  0  0  0  0  0  # atno 8008 bound_to 7997
  156.2091  140.1763  156.7775 H   0  0  0  0  0  0  0  0  0  0  0  0  # atno 8009 bound_to 7997
  154.5662  140.0678  156.8879 H   0  0  0  0  0  0  0  0  0  0  0  0  # atno 8010 bound_to 7997
  140.2114  144.3885  150.6487 H   0  0  0  0  0  0  0  0  0  0  0  0  # atno 10167 bound_to 10162
  157.4996  131.1093  150.9445 H   0  0  0  0  0  0  0  0  0  0  0  0  # atno 10718 bound_to 10713
  154.2251  135.6371  153.5157 H   0  0  0  0  0  0  0  0  0  0  0  0  # atno 10763 bound_to 10752
  152.9960  135.5506  154.6073 H   0  0  0  0  0  0  0  0  0  0  0  0  # atno 10764 bound_to 10752
  154.5542  135.2904  155.0954 H   0  0  0  0  0  0  0  0  0  0  0  0  # atno 10765 bound_to 10752
  141.0743  133.9328  157.2422 H   0  0  0  0  0  0  0  0  0  0  0  0  # atno 11005 bound_to 11000
  145.3049  141.0204  143.3588 LP  0  0  0  0  0  0  0  0  0  0  0  0  # atno 17320 bound_to 7965
  144.8979  139.4688  143.6647 LP  0  0  0  0  0  0  0  0  0  0  0  0  # atno 17321 bound_to 7965
  140.6321  143.2189  151.6474 LP  0  0  0  0  0  0  0  0  0  0  0  0  # atno 17342 bound_to 10162
  139.5178  144.3302  152.0833 LP  0  0  0  0  0  0  0  0  0  0  0  0  # atno 17343 bound_to 10162
  157.0120  130.5640  149.5322 LP  0  0  0  0  0  0  0  0  0  0  0  0  # atno 17370 bound_to 10713
  156.0221  130.5316  150.8305 LP  0  0  0  0  0  0  0  0  0  0  0  0  # atno 17371 bound_to 10713
  139.9555  135.0166  156.9116 LP  0  0  0  0  0  0  0  0  0  0  0  0  # atno 17394 bound_to 11000
  140.5608  134.0537  155.7398 LP  0  0  0  0  0  0  0  0  0  0  0  0  # atno 17395 bound_to 11000

$$$$
