AV-unprocessed.smi:2012|AV-procd|sdf|8156|dock4
  -GOLD-   2272010393D 1   1.00000     0.00000
 Structure written by MMmdl.
 50 51  0  0  0  0  0  0  0  0  1 V2000
  147.9158  133.5254  158.7416 C   0  0  0  0  0  0  0  0  0  0  0  0
  148.6592  134.2170  157.6037 C   0  0  0  0  0  0  0  0  0  0  0  0
  149.8192  134.5879  157.7730 O   0  0  0  0  0  0  0  0  0  0  0  0
  147.9667  134.3906  156.4635 N   0  0  0  0  0  0  0  0  0  0  0  0
  148.4108  134.9879  155.1960 C   0  0  1  0  0  0  0  0  0  0  0  0
  148.6740  136.4960  155.3548 C   0  0  0  0  0  0  0  0  0  0  0  0
  148.7168  137.0068  156.4743 O   0  0  0  0  0  0  0  0  0  0  0  0
  148.8796  137.1924  154.2255 N   0  0  0  0  0  0  0  0  0  0  0  0
  149.2010  138.6142  154.1709 C   0  0  0  0  0  0  0  0  0  0  0  0
  150.5028  138.9621  154.8752 C   0  0  0  0  0  0  0  0  0  0  0  0
  151.7173  138.3931  154.4482 C   0  0  0  0  0  0  0  0  0  0  0  0
  152.8955  138.7516  155.1265 C   0  0  0  0  0  0  0  0  0  0  0  0
  152.9176  139.6103  156.1669 N   0  0  0  0  0  0  0  0  0  0  0  0
  151.7566  140.1622  156.5973 C   0  0  0  0  0  0  0  0  0  0  0  0
  151.8440  141.0642  157.6844 N   0  0  0  0  0  0  0  0  0  0  0  0
  150.7241  141.9670  157.9422 C   0  0  0  0  0  0  0  0  0  0  0  0
  151.1320  143.0784  158.9235 C   0  0  0  0  0  0  0  0  0  0  0  0
  151.6700  142.5034  160.1080 O   0  0  0  0  0  0  0  0  0  0  0  0
  152.8466  141.7521  159.8351 C   0  0  0  0  0  0  0  0  0  0  0  0
  152.5121  140.5824  158.8941 C   0  0  0  0  0  0  0  0  0  0  0  0
  150.5219  139.8524  155.9707 C   0  0  0  0  0  0  0  0  0  0  0  0
  149.5294  134.1836  154.4613 C   0  0  0  0  0  0  0  0  0  0  0  0
  149.1273  132.7240  154.1722 C   0  0  0  0  0  0  0  0  0  0  0  0
  150.8592  134.2006  155.2394 C   0  0  0  0  0  0  0  0  0  0  0  0
  147.1203  132.8827  158.3626 H   0  0  0  0  0  0  0  0  0  0  0  0
  147.4728  134.2680  159.4055 H   0  0  0  0  0  0  0  0  0  0  0  0
  148.6006  132.9086  159.3244 H   0  0  0  0  0  0  0  0  0  0  0  0
  147.0152  134.0540  156.4666 H   0  0  0  0  0  0  0  0  0  0  0  0
  147.5274  134.9088  154.5600 H   0  0  0  0  0  0  0  0  0  0  0  0
  148.8355  136.6989  153.3460 H   0  0  0  0  0  0  0  0  0  0  0  0
  149.2904  138.9045  153.1240 H   0  0  0  0  0  0  0  0  0  0  0  0
  148.3777  139.1991  154.5846 H   0  0  0  0  0  0  0  0  0  0  0  0
  151.7507  137.7034  153.6175 H   0  0  0  0  0  0  0  0  0  0  0  0
  153.8470  138.3393  154.8254 H   0  0  0  0  0  0  0  0  0  0  0  0
  150.3911  142.4361  157.0169 H   0  0  0  0  0  0  0  0  0  0  0  0
  149.8867  141.3962  158.3457 H   0  0  0  0  0  0  0  0  0  0  0  0
  151.8616  143.7501  158.4679 H   0  0  0  0  0  0  0  0  0  0  0  0
  150.2640  143.6838  159.1849 H   0  0  0  0  0  0  0  0  0  0  0  0
  153.6107  142.3965  159.3974 H   0  0  0  0  0  0  0  0  0  0  0  0
  153.2511  141.3733  160.7738 H   0  0  0  0  0  0  0  0  0  0  0  0
  151.8555  139.8725  159.3979 H   0  0  0  0  0  0  0  0  0  0  0  0
  153.4363  140.0536  158.6627 H   0  0  0  0  0  0  0  0  0  0  0  0
  149.5888  140.2757  156.3090 H   0  0  0  0  0  0  0  0  0  0  0  0
  149.7138  134.6389  153.4889 H   0  0  0  0  0  0  0  0  0  0  0  0
  148.8483  132.1995  155.0866 H   0  0  0  0  0  0  0  0  0  0  0  0
  149.9482  132.1733  153.7120 H   0  0  0  0  0  0  0  0  0  0  0  0
  148.2867  132.6669  153.4808 H   0  0  0  0  0  0  0  0  0  0  0  0
  150.7437  133.7575  156.2288 H   0  0  0  0  0  0  0  0  0  0  0  0
  151.2416  135.2125  155.3709 H   0  0  0  0  0  0  0  0  0  0  0  0
  151.6293  133.6368  154.7123 H   0  0  0  0  0  0  0  0  0  0  0  0
  1  2  1  0  0  0  0
  1 25  1  0  0  0  0
  1 26  1  0  0  0  0
  1 27  1  0  0  0  0
  2  3  2  0  0  0  0
  2  4  1  0  0  0  0
  4  5  1  0  0  0  0
  4 28  1  0  0  0  0
  5  6  1  0  0  0  0
  5 22  1  0  0  0  0
  5 29  1  0  0  0  0
  6  7  2  0  0  0  0
  6  8  1  0  0  0  0
  8  9  1  0  0  0  0
  8 30  1  0  0  0  0
  9 10  1  0  0  0  0
  9 31  1  0  0  0  0
  9 32  1  0  0  0  0
 10 21  1  0  0  0  0
 10 11  2  0  0  0  0
 11 12  1  0  0  0  0
 11 33  1  0  0  0  0
 12 13  2  0  0  0  0
 12 34  1  0  0  0  0
 13 14  1  0  0  0  0
 14 15  1  0  0  0  0
 14 21  2  0  0  0  0
 15 20  1  0  0  0  0
 15 16  1  0  0  0  0
 16 17  1  0  0  0  0
 16 35  1  0  0  0  0
 16 36  1  0  0  0  0
 17 18  1  0  0  0  0
 17 37  1  0  0  0  0
 17 38  1  0  0  0  0
 18 19  1  0  0  0  0
 19 20  1  0  0  0  0
 19 39  1  0  0  0  0
 19 40  1  0  0  0  0
 20 41  1  0  0  0  0
 20 42  1  0  0  0  0
 21 43  1  0  0  0  0
 22 23  1  0  0  0  0
 22 24  1  0  0  0  0
 22 44  1  0  0  0  0
 23 45  1  0  0  0  0
 23 46  1  0  0  0  0
 23 47  1  0  0  0  0
 24 48  1  0  0  0  0
 24 49  1  0  0  0  0
 24 50  1  0  0  0  0
M  END
> <s_m_source_file>
AV-unprocessed.smi

> <i_m_source_file_index>
2012

> <i_lp_mmshare_version>
43012

> <i_f3d_flags>
0

> <s_epik_input>
W0NIM11DKD1PKVtOSF1bQ0BASF0oW0NIXShbQ0gzXSlbQ0gzXSlDKD1PKVtOSF1bQ0gyXWMxW2NIXVtjSF1uYyhbY0hdMSlOMltDSDJdW0NIMl1PW0NIMl1bQ0gyXTI=

> <s_epik_cmdline>
J2VwaWtfcHl0aG9uJywgJy1waCcsICc3LjAnLCAnLXRuJywgJzgnLCAnLW1hJywgJzIwMCcsICctbWV0YWxfYmluZGluZycsICctaW1hZScsICc8aW5maWxlLm1hZT4nLCAnLW9tYWUnLCAnPG91dGZpbGUubWFlPic=

> <r_lp_tautomer_probability>
1

> <r_epik_Ionization_Penalty>
0.00518786

> <r_epik_Ionization_Penalty_Charging>
0

> <r_epik_Ionization_Penalty_Neutral>
0.00518786

> <r_epik_State_Penalty>
0.00378052

> <r_epik_Charging_Adjusted_Penalty>
0.00378052

> <i_epik_Tot_Q>
0

> <i_epik_Tot_abs_Q>
0

> <r_epik_Metal_State_Penalty>
-0

> <b_epik_Metal_Only>
0

> <s_lp_Force_Field>
OPLS_2005

> <r_lp_Energy>
18.0004

> <b_lp_Chiralities_Consistent>
1

> <s_lp_Variant>
AV-unprocessed.smi:2012-2

> <Gold.Version>
5.8.1

> <Gold.Id.Protein>
6NUR|6NUR_protein|mol2

> <Gold.PLP.Fitness>
46.8902

> <Gold.PLP.PLP>
-37.9510

> <Gold.PLP.part.hbond>
-3.1736

> <Gold.PLP.part.metal>
0.0000

> <Gold.PLP.part.buried>
-4.4275

> <Gold.PLP.part.nonpolar>
-29.6030

> <Gold.PLP.part.repulsive>
0.0259

> <Gold.PLP.ligand.clash>
0.0000

> <Gold.PLP.ligand.torsion>
0.4585

> <Gold.PLP.Chemscore.Hbond>
3.0000

> <Gold.PLP.Chemscore.CHOScore>
0.0000

> <Gold.PLP.Chemscore.Metal>
0.0000

> <Gold.Chemscore.Hbonds>
donor molecule, donor type, donor heavy atom, donor atom, acceptor molecule, acceptor atom, score
      L1  H     8    30       P1  7948  1.00
      P1  H  6896  6909       L1     3  0.98
      P1  H  7997  8009       L1    13  1.00

> <Gold.PLP.Chemscore.Internal.Correction>
0.8562

> <Gold.Rescore>
     Score         DG    S(hbond)    S(metal)    S(lipo)     H(rot)  DE(clash)    DE(int)     intcor
     17.99     -20.00       2.89        0.00      89.39       2.18       0.00       2.00       ----

> <Gold.Chemscore.Fitness>
17.9938

> <Gold.Chemscore.DG>
-19.9950

> <Gold.Chemscore.ZeroCoef>
-5.4800

> <Gold.Chemscore.Hbond>
2.8864

> <Gold.Chemscore.Metal>
0.0000

> <Gold.Chemscore.Lipo>
89.3889

> <Gold.Chemscore.Internal_Hbond>
0.0000

> <Gold.Chemscore.DEClash>
0.0038

> <Gold.Chemscore.DEInternal>
1.9975

> <Gold.Chemscore.Rot>
2.1813

> <Gold.Chemscore.Internal.Correction>
   9.000000E+99

> <Gold.Chemscore.Hbonds>
donor molecule, donor type, donor heavy atom, donor atom, acceptor molecule, acceptor atom, score
      L1  H     8    30       P1  7948  0.95
      P1  H  6896  6909       L1     3  0.89
      P1  H  7997  8009       L1    13  0.37

> <Gold.Chemscore.Hbond.Weighted>
-9.6407

> <Gold.Chemscore.Metal.Weighted>
-0.0000

> <Gold.Chemscore.Lipo.Weighted>
-10.4585

> <Gold.Chemscore.Internal_Hbond.Weighted>
0.0000

> <Gold.Chemscore.DEClash.Weighted>
0.0038

> <Gold.Chemscore.DEInternal.Weighted>
1.9975

> <Gold.Chemscore.Rot.Weighted>
5.5842

> <Gold.Chemscore.Internal.Correction.Weighted>
   9.000000E+99

> <Gold.Protein.RotatedTorsions>
[ 6907 6896 6895 6894 ] final   19.15 input  -60.11 | X-H torsion
[ 7974 7965 7964 7962 ] final  -55.25 input  175.53 | X-H torsion
[ 8008 7997 7996 7995 ] final -148.88 input   59.86 | X-H torsion
[ 10167 10162 10161 10158 ] final  100.59 input  -65.29 | X-H torsion
[ 10718 10713 10712 10709 ] final   25.56 input   66.30 | X-H torsion
[ 10763 10752 10751 10750 ] final   98.63 input  -60.55 | X-H torsion
[ 11005 11000 10999 10996 ] final  103.00 input  -57.11 | X-H torsion

> <Gold.Protein.ActiveResidues>
 VAL166  LYS551  ARG553  GLY616  TRP617  ASP618  TYR619  PRO620  LYS621  CYS622 
 ASP623  PHE694  ASN695  SER759  ASP760  ASP761  ALA762  ILE779  LEU786  VAL792 
 PHE793  MET794  SER795  GLU796  ALA797  LYS798  CYS799  TRP800  GLU811  SER814 

> <Gold.Protein.RotatedAtoms>
  151.8764  135.0470  160.0484 H   0  0  0  0  0  0  0  0  0  0  0  0  # atno 6907 bound_to 6896
  152.2547  133.5241  159.5355 H   0  0  0  0  0  0  0  0  0  0  0  0  # atno 6908 bound_to 6896
  150.7096  134.0828  159.3946 H   0  0  0  0  0  0  0  0  0  0  0  0  # atno 6909 bound_to 6896
  145.8763  140.8178  142.9863 H   0  0  0  0  0  0  0  0  0  0  0  0  # atno 7974 bound_to 7965
  155.5987  140.0660  157.2739 H   0  0  0  0  0  0  0  0  0  0  0  0  # atno 8008 bound_to 7997
  154.4285  140.1822  156.1197 H   0  0  0  0  0  0  0  0  0  0  0  0  # atno 8009 bound_to 7997
  156.0176  140.3320  155.7009 H   0  0  0  0  0  0  0  0  0  0  0  0  # atno 8010 bound_to 7997
  139.7514  144.6983  151.0427 H   0  0  0  0  0  0  0  0  0  0  0  0  # atno 10167 bound_to 10162
  157.1949  130.6863  149.6165 H   0  0  0  0  0  0  0  0  0  0  0  0  # atno 10718 bound_to 10713
  153.2915  135.4141  155.1171 H   0  0  0  0  0  0  0  0  0  0  0  0  # atno 10763 bound_to 10752
  154.8522  135.3519  154.5975 H   0  0  0  0  0  0  0  0  0  0  0  0  # atno 10764 bound_to 10752
  153.6398  135.7057  153.5304 H   0  0  0  0  0  0  0  0  0  0  0  0  # atno 10765 bound_to 10752
  139.8781  134.9246  156.5143 H   0  0  0  0  0  0  0  0  0  0  0  0  # atno 11005 bound_to 11000
  144.6726  140.1315  143.7443 LP  0  0  0  0  0  0  0  0  0  0  0  0  # atno 17320 bound_to 7965
  145.9077  139.2468  143.1456 LP  0  0  0  0  0  0  0  0  0  0  0  0  # atno 17321 bound_to 7965
  140.7798  143.4805  151.0025 LP  0  0  0  0  0  0  0  0  0  0  0  0  # atno 17342 bound_to 10162
  139.8492  143.7460  152.3178 LP  0  0  0  0  0  0  0  0  0  0  0  0  # atno 17343 bound_to 10162
  155.9707  130.4602  150.6064 LP  0  0  0  0  0  0  0  0  0  0  0  0  # atno 17370 bound_to 10713
  157.3824  131.0783  151.1465 LP  0  0  0  0  0  0  0  0  0  0  0  0  # atno 17371 bound_to 10713
  140.8497  133.8141  155.9157 LP  0  0  0  0  0  0  0  0  0  0  0  0  # atno 17394 bound_to 11000
  140.9156  134.2206  157.4959 LP  0  0  0  0  0  0  0  0  0  0  0  0  # atno 17395 bound_to 11000

$$$$
