AV-unprocessed.smi:1056|AV-procd|sdf|4633|dock7
  -GOLD-   22720 3133D 1   1.00000     0.00000
 Structure written by MMmdl.
 45 47  0  0  0  0  0  0  0  0  2 V2000
  153.4107  143.0691  163.4288 C   0  0  0  0  0  0  0  0  0  0  0  0
  152.9707  142.8503  161.9920 C   0  0  0  0  0  0  0  0  0  0  0  0
  152.1048  143.7900  161.3884 C   0  0  0  0  0  0  0  0  0  0  0  0
  151.6710  143.6229  160.0552 C   0  0  0  0  0  0  0  0  0  0  0  0
  150.8363  144.4050  159.2752 N   0  0  0  0  0  0  0  0  0  0  0  0
  150.8200  143.7246  158.1327 C   0  0  0  0  0  0  0  0  0  0  0  0
  151.5429  142.5890  158.0824 N   0  0  0  0  0  0  0  0  0  0  0  0
  151.6824  141.6838  156.9572 C   0  0  0  0  0  0  0  0  0  0  0  0
  150.4501  141.7083  156.0298 C   0  0  1  0  0  0  0  0  0  0  0  0
  150.5086  140.6042  155.1496 O   0  0  0  0  0  0  0  0  0  0  0  0
  149.1181  141.6325  156.8024 C   0  0  0  0  0  0  0  0  0  0  0  0
  147.9840  142.2324  156.0547 N   0  3  1  0  0  0  0  0  0  0  0  0
  147.6714  141.5401  154.7813 C   0  0  0  0  0  0  0  0  0  0  0  0
  146.6415  142.3524  153.9766 C   0  0  0  0  0  0  0  0  0  0  0  0
  145.5523  142.8713  154.8008 N   0  0  0  0  0  0  0  0  0  0  0  0
  145.5518  142.9304  156.1426 C   0  0  0  0  0  0  0  0  0  0  0  0
  144.6022  143.3928  156.7691 O   0  0  0  0  0  0  0  0  0  0  0  0
  146.7762  142.3992  156.9031 C   0  0  0  0  0  0  0  0  0  0  0  0
  152.1313  142.4809  159.3373 C   0  0  0  0  0  0  0  0  0  0  0  0
  152.9939  141.5392  159.9258 C   0  0  0  0  0  0  0  0  0  0  0  0
  153.4158  141.7204  161.2595 C   0  0  0  0  0  0  0  0  0  0  0  0
  154.3433  140.6961  161.8887 C   0  0  0  0  0  0  0  0  0  0  0  0
  153.0406  144.0182  163.8183 H   0  0  0  0  0  0  0  0  0  0  0  0
  154.4984  143.0819  163.5006 H   0  0  0  0  0  0  0  0  0  0  0  0
  153.0299  142.2726  164.0683 H   0  0  0  0  0  0  0  0  0  0  0  0
  151.7649  144.6501  161.9468 H   0  0  0  0  0  0  0  0  0  0  0  0
  150.2468  144.0695  157.2844 H   0  0  0  0  0  0  0  0  0  0  0  0
  152.5855  141.9452  156.4036 H   0  0  0  0  0  0  0  0  0  0  0  0
  151.8412  140.6818  157.3573 H   0  0  0  0  0  0  0  0  0  0  0  0
  150.4744  142.6038  155.4098 H   0  0  0  0  0  0  0  0  0  0  0  0
  150.0106  139.8928  155.5237 H   0  0  0  0  0  0  0  0  0  0  0  0
  148.8748  140.5984  157.0526 H   0  0  0  0  0  0  0  0  0  0  0  0
  149.2407  142.1553  157.7525 H   0  0  0  0  0  0  0  0  0  0  0  0
  148.5648  141.3977  154.1747 H   0  0  0  0  0  0  0  0  0  0  0  0
  147.2775  140.5465  155.0019 H   0  0  0  0  0  0  0  0  0  0  0  0
  147.1347  143.2055  153.5091 H   0  0  0  0  0  0  0  0  0  0  0  0
  146.2284  141.7482  153.1685 H   0  0  0  0  0  0  0  0  0  0  0  0
  144.7376  143.2190  154.3146 H   0  0  0  0  0  0  0  0  0  0  0  0
  146.5084  141.4389  157.3467 H   0  0  0  0  0  0  0  0  0  0  0  0
  147.0024  143.0803  157.7248 H   0  0  0  0  0  0  0  0  0  0  0  0
  153.3264  140.6840  159.3569 H   0  0  0  0  0  0  0  0  0  0  0  0
  154.5506  139.8729  161.2042 H   0  0  0  0  0  0  0  0  0  0  0  0
  153.8948  140.2762  162.7894 H   0  0  0  0  0  0  0  0  0  0  0  0
  155.2943  141.1563  162.1573 H   0  0  0  0  0  0  0  0  0  0  0  0
  148.2723  143.1678  155.8059 H   0  0  0  0  0  0  0  0  0  0  0  0
  1  2  1  0  0  0  0
  1 23  1  0  0  0  0
  1 24  1  0  0  0  0
  1 25  1  0  0  0  0
  2 21  1  0  0  0  0
  2  3  2  0  0  0  0
  3  4  1  0  0  0  0
  3 26  1  0  0  0  0
  4 19  2  0  0  0  0
  4  5  1  0  0  0  0
  5  6  2  0  0  0  0
  6  7  1  0  0  0  0
  6 27  1  0  0  0  0
  7  8  1  0  0  0  0
  7 19  1  0  0  0  0
  8  9  1  0  0  0  0
  8 28  1  0  0  0  0
  8 29  1  0  0  0  0
  9 10  1  0  0  0  0
  9 11  1  0  0  0  0
  9 30  1  0  0  0  0
 10 31  1  0  0  0  0
 11 12  1  0  0  0  0
 11 32  1  0  0  0  0
 11 33  1  0  0  0  0
 12 18  1  0  0  0  0
 12 13  1  0  0  0  0
 12 45  1  0  0  0  0
 13 14  1  0  0  0  0
 13 34  1  0  0  0  0
 13 35  1  0  0  0  0
 14 15  1  0  0  0  0
 14 36  1  0  0  0  0
 14 37  1  0  0  0  0
 15 16  1  0  0  0  0
 15 38  1  0  0  0  0
 16 17  2  0  0  0  0
 16 18  1  0  0  0  0
 18 39  1  0  0  0  0
 18 40  1  0  0  0  0
 19 20  1  0  0  0  0
 20 21  2  0  0  0  0
 20 41  1  0  0  0  0
 21 22  1  0  0  0  0
 22 42  1  0  0  0  0
 22 43  1  0  0  0  0
 22 44  1  0  0  0  0
M  CHG  1  12   1
M  END
> <s_m_source_file>
AV-unprocessed.smi

> <i_m_source_file_index>
1056

> <i_lp_mmshare_version>
43012

> <i_f3d_flags>
0

> <s_epik_input>
W0NIM11jKFtjSF0xKWMoW0NIM10pW2NIXWMoYzEyKW4oW2NIXW4yKVtDSDJdW0NASF0oW09IXSlbQ0gyXU4zW0NIMl1bQ0gyXVtOSF1DKD1PKVtDSDJdMw==

> <s_epik_cmdline>
J2VwaWtfcHl0aG9uJywgJy1waCcsICc3LjAnLCAnLXRuJywgJzgnLCAnLW1hJywgJzIwMCcsICctbWV0YWxfYmluZGluZycsICctaW1hZScsICc8aW5maWxlLm1hZT4nLCAnLW9tYWUnLCAnPG91dGZpbGUubWFlPic=

> <r_epik_Ionization_Penalty>
0.153633

> <r_epik_Ionization_Penalty_Charging>
0.0674887

> <r_epik_Ionization_Penalty_Neutral>
0.0861443

> <r_epik_State_Penalty>
0.135155

> <r_epik_Charging_Adjusted_Penalty>
0.202644

> <i_epik_Tot_Q>
1

> <i_epik_Tot_abs_Q>
1

> <r_epik_Metal_State_Penalty>
0.190685

> <b_epik_Metal_Only>
0

> <s_lp_Force_Field>
OPLS_2005

> <r_lp_Energy>
24.5126

> <b_lp_Chiralities_Consistent>
1

> <s_lp_Variant>
AV-unprocessed.smi:1056-4

> <Gold.Version>
5.8.1

> <Gold.Id.Protein>
6NUR|6NUR_protein|mol2

> <Gold.PLP.Fitness>
59.2494

> <Gold.PLP.PLP>
-48.9249

> <Gold.PLP.part.hbond>
-2.0000

> <Gold.PLP.part.metal>
0.0000

> <Gold.PLP.part.buried>
-6.6610

> <Gold.PLP.part.nonpolar>
-38.6394

> <Gold.PLP.part.repulsive>
0.3009

> <Gold.PLP.ligand.clash>
0.0000

> <Gold.PLP.ligand.torsion>
0.7684

> <Gold.PLP.Chemscore.Hbond>
2.9440

> <Gold.PLP.Chemscore.CHOScore>
1.0000

> <Gold.PLP.Chemscore.Metal>
0.0000

> <Gold.Chemscore.Hbonds>
donor molecule, donor type, donor heavy atom, donor atom, acceptor molecule, acceptor atom, score
      L1  H    12    45       P1  8028  2.00
      P1  H  7989  7998       L1    10  0.94
      L1  C     6    27       P1  8028  1.00

> <Gold.PLP.Chemscore.Internal.Correction>
0.0293

> <Gold.Rescore>
     Score         DG    S(hbond)    S(metal)    S(lipo)     H(rot)  DE(clash)    DE(int)     intcor
     17.14     -20.25       1.84        0.00     125.68       2.38       1.39       1.71       ----

> <Gold.Chemscore.Fitness>
17.1437

> <Gold.Chemscore.DG>
-20.2465

> <Gold.Chemscore.ZeroCoef>
-5.4800

> <Gold.Chemscore.Hbond>
1.8415

> <Gold.Chemscore.Metal>
0.0000

> <Gold.Chemscore.Lipo>
125.6788

> <Gold.Chemscore.Internal_Hbond>
0.0000

> <Gold.Chemscore.DEClash>
1.3893

> <Gold.Chemscore.DEInternal>
1.7135

> <Gold.Chemscore.Rot>
2.3783

> <Gold.Chemscore.Internal.Correction>
   9.000000E+99

> <Gold.Chemscore.Hbonds>
donor molecule, donor type, donor heavy atom, donor atom, acceptor molecule, acceptor atom, score
      L1  H    12    45       P1  8028  0.88
      P1  H  7989  7998       L1    10  0.79

> <Gold.Chemscore.Hbond.Weighted>
-6.1504

> <Gold.Chemscore.Metal.Weighted>
-0.0000

> <Gold.Chemscore.Lipo.Weighted>
-14.7044

> <Gold.Chemscore.Internal_Hbond.Weighted>
0.0000

> <Gold.Chemscore.DEClash.Weighted>
1.3893

> <Gold.Chemscore.DEInternal.Weighted>
1.7135

> <Gold.Chemscore.Rot.Weighted>
6.0884

> <Gold.Chemscore.Internal.Correction.Weighted>
   9.000000E+99

> <Gold.Protein.RotatedTorsions>
[ 6907 6896 6895 6894 ] final  152.20 input  -60.11 | X-H torsion
[ 7974 7965 7964 7962 ] final  -30.11 input  175.53 | X-H torsion
[ 8008 7997 7996 7995 ] final  -46.42 input   59.86 | X-H torsion
[ 10167 10162 10161 10158 ] final  -65.32 input  -65.29 | X-H torsion
[ 10718 10713 10712 10709 ] final -179.07 input   66.30 | X-H torsion
[ 10763 10752 10751 10750 ] final -139.65 input  -60.55 | X-H torsion
[ 11005 11000 10999 10996 ] final    2.37 input  -57.11 | X-H torsion

> <Gold.Protein.ActiveResidues>
 VAL166  LYS551  ARG553  GLY616  TRP617  ASP618  TYR619  PRO620  LYS621  CYS622 
 ASP623  PHE694  ASN695  SER759  ASP760  ASP761  ALA762  ILE779  LEU786  VAL792 
 PHE793  MET794  SER795  GLU796  ALA797  LYS798  CYS799  TRP800  GLU811  SER814 

> <Gold.Protein.RotatedAtoms>
  152.0900  133.4195  159.4539 H   0  0  0  0  0  0  0  0  0  0  0  0  # atno 6907 bound_to 6896
  150.6862  134.2883  159.4665 H   0  0  0  0  0  0  0  0  0  0  0  0  # atno 6908 bound_to 6896
  152.0733  134.9519  160.0625 H   0  0  0  0  0  0  0  0  0  0  0  0  # atno 6909 bound_to 6896
  146.1167  140.5499  142.8753 H   0  0  0  0  0  0  0  0  0  0  0  0  # atno 7974 bound_to 7965
  154.4007  140.1372  156.4009 H   0  0  0  0  0  0  0  0  0  0  0  0  # atno 8008 bound_to 7997
  155.7825  140.3481  155.5285 H   0  0  0  0  0  0  0  0  0  0  0  0  # atno 8009 bound_to 7997
  155.8659  140.0964  157.1573 H   0  0  0  0  0  0  0  0  0  0  0  0  # atno 8010 bound_to 7997
  140.5738  143.2320  151.6484 H   0  0  0  0  0  0  0  0  0  0  0  0  # atno 10167 bound_to 10162
  156.8537  130.9728  151.3090 H   0  0  0  0  0  0  0  0  0  0  0  0  # atno 10718 bound_to 10713
  154.8603  135.3576  154.5581 H   0  0  0  0  0  0  0  0  0  0  0  0  # atno 10763 bound_to 10752
  153.6197  135.7006  153.5320 H   0  0  0  0  0  0  0  0  0  0  0  0  # atno 10764 bound_to 10752
  153.3139  135.4170  155.1320 H   0  0  0  0  0  0  0  0  0  0  0  0  # atno 10765 bound_to 10752
  140.6051  133.9800  155.8150 H   0  0  0  0  0  0  0  0  0  0  0  0  # atno 11005 bound_to 11000
  144.7559  140.5307  143.6769 LP  0  0  0  0  0  0  0  0  0  0  0  0  # atno 17320 bound_to 7965
  145.5552  139.1477  143.3372 LP  0  0  0  0  0  0  0  0  0  0  0  0  # atno 17321 bound_to 7965
  139.5132  144.3452  152.0703 LP  0  0  0  0  0  0  0  0  0  0  0  0  # atno 17342 bound_to 10162
  140.2593  144.4085  150.6192 LP  0  0  0  0  0  0  0  0  0  0  0  0  # atno 17343 bound_to 10162
  157.6289  130.8713  149.9239 LP  0  0  0  0  0  0  0  0  0  0  0  0  # atno 17370 bound_to 10713
  156.0814  130.3672  150.0573 LP  0  0  0  0  0  0  0  0  0  0  0  0  # atno 17371 bound_to 10713
  141.0846  134.0010  157.3333 LP  0  0  0  0  0  0  0  0  0  0  0  0  # atno 17394 bound_to 11000
  139.9216  135.0200  156.8084 LP  0  0  0  0  0  0  0  0  0  0  0  0  # atno 17395 bound_to 11000

$$$$
