AV-unprocessed.smi:2534|AV-procd|sdf|9975|dock5
  -GOLD-   2272014 23D 1   1.00000     0.00000
 Structure written by MMmdl.
 40 42  0  0  0  0  0  0  0  0  1 V2000
  149.8649  135.0079  156.2166 C   0  0  0  0  0  0  0  0  0  0  0  0
  149.7768  136.3801  155.5339 C   0  0  2  0  0  0  0  0  0  0  0  0
  151.0834  136.7274  154.7938 C   0  0  0  0  0  0  0  0  0  0  0  0
  151.0000  138.1092  154.1226 C   0  0  0  0  0  0  0  0  0  0  0  0
  150.6565  139.2294  155.1333 C   0  0  2  0  0  0  0  0  0  0  0  0
  150.3944  140.3957  154.3764 O   0  0  0  0  0  0  0  0  0  0  0  0
  151.7981  139.5566  156.1380 C   0  0  0  0  0  0  0  0  0  0  0  0
  151.5806  140.7583  156.9351 N   0  0  0  0  0  0  0  0  0  0  0  0
  150.6894  141.6938  156.5145 N   0  0  0  0  0  0  0  0  0  0  0  0
  150.7151  142.6599  157.4295 C   0  0  0  0  0  0  0  0  0  0  0  0
  151.6435  142.3824  158.4695 C   0  0  0  0  0  0  0  0  0  0  0  0
  152.0734  143.0720  159.6810 C   0  0  0  0  0  0  0  0  0  0  0  0
  152.9814  142.5109  160.4162 N   0  0  0  0  0  0  0  0  0  0  0  0
  153.5442  141.2780  160.0683 N   0  0  0  0  0  0  0  0  0  0  0  0
  154.5585  140.8128  161.0132 C   0  0  0  0  0  0  0  0  0  0  0  0
  153.2089  140.5508  158.9578 C   0  0  0  0  0  0  0  0  0  0  0  0
  153.7116  139.4678  158.6596 O   0  0  0  0  0  0  0  0  0  0  0  0
  152.1664  141.1834  158.1126 C   0  0  0  0  0  0  0  0  0  0  0  0
  149.3459  138.8708  155.8691 C   0  0  0  0  0  0  0  0  0  0  0  0
  149.4075  137.4867  156.5408 C   0  0  0  0  0  0  0  0  0  0  0  0
  150.6494  134.9912  156.9739 H   0  0  0  0  0  0  0  0  0  0  0  0
  150.0839  134.2222  155.4931 H   0  0  0  0  0  0  0  0  0  0  0  0
  148.9248  134.7517  156.7058 H   0  0  0  0  0  0  0  0  0  0  0  0
  148.9784  136.3260  154.7921 H   0  0  0  0  0  0  0  0  0  0  0  0
  151.9252  136.7015  155.4864 H   0  0  0  0  0  0  0  0  0  0  0  0
  151.2912  135.9705  154.0367 H   0  0  0  0  0  0  0  0  0  0  0  0
  151.9261  138.3261  153.5910 H   0  0  0  0  0  0  0  0  0  0  0  0
  150.2271  138.0678  153.3532 H   0  0  0  0  0  0  0  0  0  0  0  0
  149.7470  140.1877  153.7202 H   0  0  0  0  0  0  0  0  0  0  0  0
  151.9540  138.7177  156.8157 H   0  0  0  0  0  0  0  0  0  0  0  0
  152.7461  139.6750  155.6134 H   0  0  0  0  0  0  0  0  0  0  0  0
  150.0720  143.5190  157.3062 H   0  0  0  0  0  0  0  0  0  0  0  0
  151.6391  144.0331  159.9552 H   0  0  0  0  0  0  0  0  0  0  0  0
  155.0021  139.8521  160.7483 H   0  0  0  0  0  0  0  0  0  0  0  0
  154.1229  140.7073  162.0075 H   0  0  0  0  0  0  0  0  0  0  0  0
  155.3695  141.5393  161.0776 H   0  0  0  0  0  0  0  0  0  0  0  0
  149.1058  139.6329  156.6115 H   0  0  0  0  0  0  0  0  0  0  0  0
  148.5168  138.8716  155.1597 H   0  0  0  0  0  0  0  0  0  0  0  0
  148.4413  137.2640  156.9951 H   0  0  0  0  0  0  0  0  0  0  0  0
  150.1280  137.5013  157.3589 H   0  0  0  0  0  0  0  0  0  0  0  0
  1  2  1  0  0  0  0
  1 21  1  0  0  0  0
  1 22  1  0  0  0  0
  1 23  1  0  0  0  0
  2 20  1  0  0  0  0
  2  3  1  0  0  0  0
  2 24  1  0  0  0  0
  3  4  1  0  0  0  0
  3 25  1  0  0  0  0
  3 26  1  0  0  0  0
  4  5  1  0  0  0  0
  4 27  1  0  0  0  0
  4 28  1  0  0  0  0
  5  6  1  0  0  0  0
  5  7  1  0  0  0  0
  5 19  1  0  0  0  0
  6 29  1  0  0  0  0
  7  8  1  0  0  0  0
  7 30  1  0  0  0  0
  7 31  1  0  0  0  0
  8 18  1  0  0  0  0
  8  9  1  0  0  0  0
  9 10  2  0  0  0  0
 10 11  1  0  0  0  0
 10 32  1  0  0  0  0
 11 18  2  0  0  0  0
 11 12  1  0  0  0  0
 12 13  2  0  0  0  0
 12 33  1  0  0  0  0
 13 14  1  0  0  0  0
 14 15  1  0  0  0  0
 14 16  1  0  0  0  0
 15 34  1  0  0  0  0
 15 35  1  0  0  0  0
 15 36  1  0  0  0  0
 16 17  2  0  0  0  0
 16 18  1  0  0  0  0
 19 20  1  0  0  0  0
 19 37  1  0  0  0  0
 19 38  1  0  0  0  0
 20 39  1  0  0  0  0
 20 40  1  0  0  0  0
M  END
> <s_m_source_file>
AV-unprocessed.smi

> <i_m_source_file_index>
2534

> <i_lp_mmshare_version>
43012

> <i_f3d_flags>
0

> <s_epik_input>
W0NIMl0xW0NIMl1bQ0BIXShbQ0gzXSlbQ0gyXVtDSDJdW0NAQF0xKFtPSF0pW0NIMl1uKG5bY0hdMiljKGMyMyljKD1PKW4oW0NIM10pbltjSF0z

> <s_epik_cmdline>
J2VwaWtfcHl0aG9uJywgJy1waCcsICc3LjAnLCAnLXRuJywgJzgnLCAnLW1hJywgJzIwMCcsICctbWV0YWxfYmluZGluZycsICctaW1hZScsICc8aW5maWxlLm1hZT4nLCAnLW9tYWUnLCAnPG91dGZpbGUubWFlPic=

> <r_lp_tautomer_probability>
1

> <r_epik_Ionization_Penalty>
4.4666e-07

> <r_epik_Ionization_Penalty_Charging>
3.10141e-10

> <r_epik_Ionization_Penalty_Neutral>
4.46349e-07

> <r_epik_State_Penalty>
-0

> <r_epik_Charging_Adjusted_Penalty>
3.10141e-10

> <i_epik_Tot_Q>
0

> <i_epik_Tot_abs_Q>
0

> <r_epik_Metal_State_Penalty>
-0

> <b_epik_Metal_Only>
0

> <s_lp_Force_Field>
OPLS_2005

> <r_lp_Energy>
31.0433

> <b_lp_Chiralities_Consistent>
1

> <s_lp_Variant>
AV-unprocessed.smi:2534-2

> <Gold.Version>
5.8.1

> <Gold.Id.Protein>
6NUR|6NUR_protein|mol2

> <Gold.PLP.Fitness>
43.0123

> <Gold.PLP.PLP>
-34.6392

> <Gold.PLP.part.hbond>
-1.9735

> <Gold.PLP.part.metal>
0.0000

> <Gold.PLP.part.buried>
-4.1401

> <Gold.PLP.part.nonpolar>
-27.9348

> <Gold.PLP.part.repulsive>
0.0725

> <Gold.PLP.ligand.clash>
0.0000

> <Gold.PLP.ligand.torsion>
0.3169

> <Gold.PLP.Chemscore.Hbond>
2.0000

> <Gold.PLP.Chemscore.CHOScore>
1.0000

> <Gold.PLP.Chemscore.Metal>
0.0000

> <Gold.Chemscore.Hbonds>
donor molecule, donor type, donor heavy atom, donor atom, acceptor molecule, acceptor atom, score
      P1  H  7989  7998       L1     6  1.00
      P1  H  7997  8008       L1    17  0.95
      L1  C    10    32       P1  8028  1.00

> <Gold.PLP.Chemscore.Internal.Correction>
0.0069

> <Gold.Rescore>
     Score         DG    S(hbond)    S(metal)    S(lipo)     H(rot)  DE(clash)    DE(int)     intcor
     13.40     -16.59       1.72        0.00      82.56       1.68       1.22       1.98       ----

> <Gold.Chemscore.Fitness>
13.3953

> <Gold.Chemscore.DG>
-16.5907

> <Gold.Chemscore.ZeroCoef>
-5.4800

> <Gold.Chemscore.Hbond>
1.7189

> <Gold.Chemscore.Metal>
0.0000

> <Gold.Chemscore.Lipo>
82.5611

> <Gold.Chemscore.Internal_Hbond>
0.0000

> <Gold.Chemscore.DEClash>
1.2158

> <Gold.Chemscore.DEInternal>
1.9797

> <Gold.Chemscore.Rot>
1.6758

> <Gold.Chemscore.Internal.Correction>
   9.000000E+99

> <Gold.Chemscore.Hbonds>
donor molecule, donor type, donor heavy atom, donor atom, acceptor molecule, acceptor atom, score
      P1  H  7989  7998       L1     6  0.29
      P1  H  7997  8008       L1    17  0.22

> <Gold.Chemscore.Hbond.Weighted>
-5.7410

> <Gold.Chemscore.Metal.Weighted>
-0.0000

> <Gold.Chemscore.Lipo.Weighted>
-9.6596

> <Gold.Chemscore.Internal_Hbond.Weighted>
0.0000

> <Gold.Chemscore.DEClash.Weighted>
1.2158

> <Gold.Chemscore.DEInternal.Weighted>
1.9797

> <Gold.Chemscore.Rot.Weighted>
4.2899

> <Gold.Chemscore.Internal.Correction.Weighted>
   9.000000E+99

> <Gold.Protein.RotatedTorsions>
[ 6907 6896 6895 6894 ] final  143.83 input  -60.11 | X-H torsion
[ 7974 7965 7964 7962 ] final  -39.60 input  175.53 | X-H torsion
[ 8008 7997 7996 7995 ] final  -98.20 input   59.86 | X-H torsion
[ 10167 10162 10161 10158 ] final   80.37 input  -65.29 | X-H torsion
[ 10718 10713 10712 10709 ] final    0.51 input   66.30 | X-H torsion
[ 10763 10752 10751 10750 ] final  -26.36 input  -60.55 | X-H torsion
[ 11005 11000 10999 10996 ] final   81.61 input  -57.11 | X-H torsion

> <Gold.Protein.ActiveResidues>
 VAL166  LYS551  ARG553  GLY616  TRP617  ASP618  TYR619  PRO620  LYS621  CYS622 
 ASP623  PHE694  ASN695  SER759  ASP760  ASP761  ALA762  ILE779  LEU786  VAL792 
 PHE793  MET794  SER795  GLU796  ALA797  LYS798  CYS799  TRP800  GLU811  SER814 

> <Gold.Protein.RotatedAtoms>
  152.2014  133.4843  159.5060 H   0  0  0  0  0  0  0  0  0  0  0  0  # atno 6907 bound_to 6896
  150.6970  134.1586  159.4176 H   0  0  0  0  0  0  0  0  0  0  0  0  # atno 6908 bound_to 6896
  151.9503  135.0172  160.0592 H   0  0  0  0  0  0  0  0  0  0  0  0  # atno 6909 bound_to 6896
  146.0381  140.6645  142.9100 H   0  0  0  0  0  0  0  0  0  0  0  0  # atno 7974 bound_to 7965
  154.7981  140.0457  157.1252 H   0  0  0  0  0  0  0  0  0  0  0  0  # atno 8008 bound_to 7997
  154.9512  140.3065  155.5054 H   0  0  0  0  0  0  0  0  0  0  0  0  # atno 8009 bound_to 7997
  156.2958  140.2288  156.4589 H   0  0  0  0  0  0  0  0  0  0  0  0  # atno 8010 bound_to 7997
  139.9504  144.6030  150.8166 H   0  0  0  0  0  0  0  0  0  0  0  0  # atno 10167 bound_to 10162
  156.8345  130.5500  149.5683 H   0  0  0  0  0  0  0  0  0  0  0  0  # atno 10718 bound_to 10713
  153.7147  135.6948  153.5028 H   0  0  0  0  0  0  0  0  0  0  0  0  # atno 10763 bound_to 10752
  153.2247  135.4358  155.0527 H   0  0  0  0  0  0  0  0  0  0  0  0  # atno 10764 bound_to 10752
  154.8303  135.3469  154.6683 H   0  0  0  0  0  0  0  0  0  0  0  0  # atno 10765 bound_to 10752
  139.9092  134.8010  156.2065 H   0  0  0  0  0  0  0  0  0  0  0  0  # atno 11005 bound_to 11000
  144.7061  140.3858  143.7117 LP  0  0  0  0  0  0  0  0  0  0  0  0  # atno 17320 bound_to 7965
  145.6930  139.1643  143.2636 LP  0  0  0  0  0  0  0  0  0  0  0  0  # atno 17321 bound_to 7965
  140.7584  143.3107  151.2851 LP  0  0  0  0  0  0  0  0  0  0  0  0  # atno 17342 bound_to 10162
  139.6633  144.0150  152.2706 LP  0  0  0  0  0  0  0  0  0  0  0  0  # atno 17343 bound_to 10162
  156.0915  130.5899  150.9741 LP  0  0  0  0  0  0  0  0  0  0  0  0  # atno 17370 bound_to 10713
  157.6389  131.0912  150.8292 LP  0  0  0  0  0  0  0  0  0  0  0  0  # atno 17371 bound_to 10713
  141.0492  133.6897  156.1741 LP  0  0  0  0  0  0  0  0  0  0  0  0  # atno 17394 bound_to 11000
  140.6836  134.4741  157.5589 LP  0  0  0  0  0  0  0  0  0  0  0  0  # atno 17395 bound_to 11000

$$$$
