AV-unprocessed.smi:807|AV-procd|sdf|3803|dock6
  -GOLD-   22720 1243D 1   1.00000     0.00000
 Structure written by MMmdl.
 35 37  0  0  0  0  0  0  0  0  1 V2000
  150.1422  137.1545  154.5776 C   0  0  0  0  0  0  0  0  0  0  0  0
  150.0992  135.8231  153.9947 N   0  0  0  0  0  0  0  0  0  0  0  0
  150.7346  134.7452  154.6274 C   0  0  0  0  0  0  0  0  0  0  0  0
  151.7890  134.9670  155.4460 N   0  0  0  0  0  0  0  0  0  0  0  0
  152.3623  133.9063  156.0297 C   0  0  0  0  0  0  0  0  0  0  0  0
  152.0417  132.6070  155.9252 N   0  0  0  0  0  0  0  0  0  0  0  0
  150.9994  132.3768  155.1149 C   0  0  0  0  0  0  0  0  0  0  0  0
  150.4552  131.1382  154.8211 N   0  0  0  0  0  0  0  0  0  0  0  0
  149.4706  131.4663  153.9875 C   0  0  0  0  0  0  0  0  0  0  0  0
  149.3071  132.7732  153.7028 N   0  0  0  0  0  0  0  0  0  0  0  0
  148.3081  133.3521  152.8218 C   0  0  0  0  0  0  0  0  0  0  0  0
  146.8827  132.8578  153.1449 C   0  0  1  0  0  0  0  0  0  0  0  0
  146.3735  133.5081  154.2934 O   0  0  0  0  0  0  0  0  0  0  0  0
  145.9515  132.9535  151.9386 C   0  0  0  0  0  0  0  0  0  0  0  0
  145.6214  134.2384  151.4514 C   0  0  0  0  0  0  0  0  0  0  0  0
  144.7643  134.3920  150.3458 C   0  0  0  0  0  0  0  0  0  0  0  0
  144.2231  133.2582  149.7146 C   0  0  0  0  0  0  0  0  0  0  0  0
  144.5390  131.9736  150.1932 C   0  0  0  0  0  0  0  0  0  0  0  0
  145.3967  131.8118  151.3002 C   0  0  0  0  0  0  0  0  0  0  0  0
  145.7286  130.2014  151.8373 Cl  0  0  0  0  0  0  0  0  0  0  0  0
  150.3018  133.4185  154.4332 C   0  0  0  0  0  0  0  0  0  0  0  0
  149.5924  137.8541  153.9483 H   0  0  0  0  0  0  0  0  0  0  0  0
  151.1709  137.5067  154.6617 H   0  0  0  0  0  0  0  0  0  0  0  0
  149.6882  137.1578  155.5692 H   0  0  0  0  0  0  0  0  0  0  0  0
  149.6137  135.6829  153.1205 H   0  0  0  0  0  0  0  0  0  0  0  0
  153.1996  134.1279  156.6747 H   0  0  0  0  0  0  0  0  0  0  0  0
  148.8314  130.7109  153.5542 H   0  0  0  0  0  0  0  0  0  0  0  0
  148.3721  134.4378  152.8926 H   0  0  0  0  0  0  0  0  0  0  0  0
  148.5730  133.0987  151.7950 H   0  0  0  0  0  0  0  0  0  0  0  0
  146.9505  131.8060  153.4243 H   0  0  0  0  0  0  0  0  0  0  0  0
  145.4689  133.2576  154.4037 H   0  0  0  0  0  0  0  0  0  0  0  0
  146.0258  135.1205  151.9264 H   0  0  0  0  0  0  0  0  0  0  0  0
  144.5218  135.3799  149.9828 H   0  0  0  0  0  0  0  0  0  0  0  0
  143.5649  133.3732  148.8660 H   0  0  0  0  0  0  0  0  0  0  0  0
  144.1183  131.1054  149.7074 H   0  0  0  0  0  0  0  0  0  0  0  0
  1  2  1  0  0  0  0
  1 22  1  0  0  0  0
  1 23  1  0  0  0  0
  1 24  1  0  0  0  0
  2  3  1  0  0  0  0
  2 25  1  0  0  0  0
  3 21  1  0  0  0  0
  3  4  2  0  0  0  0
  4  5  1  0  0  0  0
  5  6  2  0  0  0  0
  5 26  1  0  0  0  0
  6  7  1  0  0  0  0
  7 21  2  0  0  0  0
  7  8  1  0  0  0  0
  8  9  2  0  0  0  0
  9 10  1  0  0  0  0
  9 27  1  0  0  0  0
 10 11  1  0  0  0  0
 10 21  1  0  0  0  0
 11 12  1  0  0  0  0
 11 28  1  0  0  0  0
 11 29  1  0  0  0  0
 12 13  1  0  0  0  0
 12 14  1  0  0  0  0
 12 30  1  0  0  0  0
 13 31  1  0  0  0  0
 14 19  1  0  0  0  0
 14 15  2  0  0  0  0
 15 16  1  0  0  0  0
 15 32  1  0  0  0  0
 16 17  2  0  0  0  0
 16 33  1  0  0  0  0
 17 18  1  0  0  0  0
 17 34  1  0  0  0  0
 18 19  2  0  0  0  0
 18 35  1  0  0  0  0
 19 20  1  0  0  0  0
M  END
> <s_m_source_file>
AV-unprocessed.smi

> <i_m_source_file_index>
807

> <i_lp_mmshare_version>
43012

> <i_f3d_flags>
0

> <s_epik_input>
bjFbY0hdbmMoW05IXVtDSDNdKWMoYzEyKW4oW2NIXW4yKVtDSDJdW0NASF0oW09IXSljM1tjSF1bY0hdW2NIXVtjSF1jM0Ns

> <s_epik_cmdline>
J2VwaWtfcHl0aG9uJywgJy1waCcsICc3LjAnLCAnLXRuJywgJzgnLCAnLW1hJywgJzIwMCcsICctbWV0YWxfYmluZGluZycsICctaW1hZScsICc8aW5maWxlLm1hZT4nLCAnLW9tYWUnLCAnPG91dGZpbGUubWFlPic=

> <r_lp_tautomer_probability>
1

> <r_epik_Ionization_Penalty>
0.00695285

> <r_epik_Ionization_Penalty_Charging>
0

> <r_epik_Ionization_Penalty_Neutral>
0.00695285

> <r_epik_State_Penalty>
-0

> <r_epik_Charging_Adjusted_Penalty>
0

> <i_epik_Tot_Q>
0

> <i_epik_Tot_abs_Q>
0

> <r_epik_Metal_State_Penalty>
-0

> <b_epik_Metal_Only>
0

> <s_lp_Force_Field>
OPLS_2005

> <r_lp_Energy>
12.6911

> <b_lp_Chiralities_Consistent>
1

> <s_lp_Variant>
AV-unprocessed.smi:807-2

> <Gold.Version>
5.8.1

> <Gold.Id.Protein>
6NUR|6NUR_protein|mol2

> <Gold.PLP.Fitness>
40.3415

> <Gold.PLP.PLP>
-36.4624

> <Gold.PLP.part.hbond>
-2.2092

> <Gold.PLP.part.metal>
0.0000

> <Gold.PLP.part.buried>
-2.3499

> <Gold.PLP.part.nonpolar>
-29.8257

> <Gold.PLP.part.repulsive>
0.0717

> <Gold.PLP.ligand.clash>
0.0000

> <Gold.PLP.ligand.torsion>
0.4676

> <Gold.PLP.Chemscore.Hbond>
1.5829

> <Gold.PLP.Chemscore.CHOScore>
0.0000

> <Gold.PLP.Chemscore.Metal>
0.0000

> <Gold.Chemscore.Hbonds>
donor molecule, donor type, donor heavy atom, donor atom, acceptor molecule, acceptor atom, score
      L1  H     2    25       P1  7948  0.43
      P1  H 10752 10763       L1     4  0.51

> <Gold.PLP.Chemscore.Internal.Correction>
0.0657

> <Gold.Rescore>
     Score         DG    S(hbond)    S(metal)    S(lipo)     H(rot)  DE(clash)    DE(int)     intcor
     10.91     -11.54       0.98        0.00      74.37       2.31       0.05       0.58       ----

> <Gold.Chemscore.Fitness>
10.9113

> <Gold.Chemscore.DG>
-11.5409

> <Gold.Chemscore.ZeroCoef>
-5.4800

> <Gold.Chemscore.Hbond>
0.9810

> <Gold.Chemscore.Metal>
0.0000

> <Gold.Chemscore.Lipo>
74.3747

> <Gold.Chemscore.Internal_Hbond>
0.0000

> <Gold.Chemscore.DEClash>
0.0464

> <Gold.Chemscore.DEInternal>
0.5832

> <Gold.Chemscore.Rot>
2.3115

> <Gold.Chemscore.Internal.Correction>
   9.000000E+99

> <Gold.Chemscore.Hbonds>
donor molecule, donor type, donor heavy atom, donor atom, acceptor molecule, acceptor atom, score
      L1  H     2    25       P1  7948  0.02
      P1  H 10752 10763       L1     4  0.07

> <Gold.Chemscore.Hbond.Weighted>
-3.2764

> <Gold.Chemscore.Metal.Weighted>
-0.0000

> <Gold.Chemscore.Lipo.Weighted>
-8.7018

> <Gold.Chemscore.Internal_Hbond.Weighted>
0.0000

> <Gold.Chemscore.DEClash.Weighted>
0.0464

> <Gold.Chemscore.DEInternal.Weighted>
0.5832

> <Gold.Chemscore.Rot.Weighted>
5.9174

> <Gold.Chemscore.Internal.Correction.Weighted>
   9.000000E+99

> <Gold.Protein.RotatedTorsions>
[ 6907 6896 6895 6894 ] final   14.43 input  -60.11 | X-H torsion
[ 7974 7965 7964 7962 ] final -152.12 input  175.53 | X-H torsion
[ 8008 7997 7996 7995 ] final  -94.20 input   59.86 | X-H torsion
[ 10167 10162 10161 10158 ] final -141.69 input  -65.29 | X-H torsion
[ 10718 10713 10712 10709 ] final   55.74 input   66.30 | X-H torsion
[ 10763 10752 10751 10750 ] final   74.03 input  -60.55 | X-H torsion
[ 11005 11000 10999 10996 ] final   95.01 input  -57.11 | X-H torsion

> <Gold.Protein.ActiveResidues>
 VAL166  LYS551  ARG553  GLY616  TRP617  ASP618  TYR619  PRO620  LYS621  CYS622 
 ASP623  PHE694  ASN695  SER759  ASP760  ASP761  ALA762  ILE779  LEU786  VAL792 
 PHE793  MET794  SER795  GLU796  ALA797  LYS798  CYS799  TRP800  GLU811  SER814 

> <Gold.Protein.RotatedAtoms>
  151.8021  135.0706  160.0401 H   0  0  0  0  0  0  0  0  0  0  0  0  # atno 6907 bound_to 6896
  152.3082  133.5720  159.5671 H   0  0  0  0  0  0  0  0  0  0  0  0  # atno 6908 bound_to 6896
  150.7306  134.0108  159.3711 H   0  0  0  0  0  0  0  0  0  0  0  0  # atno 6909 bound_to 6896
  144.7812  140.4705  143.5838 H   0  0  0  0  0  0  0  0  0  0  0  0  # atno 7974 bound_to 7965
  154.7454  140.0491  157.0847 H   0  0  0  0  0  0  0  0  0  0  0  0  # atno 8008 bound_to 7997
  155.0125  140.3137  155.4805 H   0  0  0  0  0  0  0  0  0  0  0  0  # atno 8009 bound_to 7997
  156.2873  140.2181  156.5240 H   0  0  0  0  0  0  0  0  0  0  0  0  # atno 8010 bound_to 7997
  139.8160  143.7638  152.2665 H   0  0  0  0  0  0  0  0  0  0  0  0  # atno 10167 bound_to 10162
  157.5371  130.8671  149.8768 H   0  0  0  0  0  0  0  0  0  0  0  0  # atno 10718 bound_to 10713
  153.0560  135.5041  154.7981 H   0  0  0  0  0  0  0  0  0  0  0  0  # atno 10763 bound_to 10752
  154.6807  135.2968  154.9619 H   0  0  0  0  0  0  0  0  0  0  0  0  # atno 10764 bound_to 10752
  154.0406  135.6717  153.4842 H   0  0  0  0  0  0  0  0  0  0  0  0  # atno 10765 bound_to 10752
  139.8793  134.8876  156.3948 H   0  0  0  0  0  0  0  0  0  0  0  0  # atno 11005 bound_to 11000
  145.6046  139.1507  143.3110 LP  0  0  0  0  0  0  0  0  0  0  0  0  # atno 17320 bound_to 7965
  146.2020  140.6166  142.9098 LP  0  0  0  0  0  0  0  0  0  0  0  0  # atno 17321 bound_to 7965
  139.7801  144.7447  151.0100 LP  0  0  0  0  0  0  0  0  0  0  0  0  # atno 17342 bound_to 10162
  140.7816  143.4551  151.0357 LP  0  0  0  0  0  0  0  0  0  0  0  0  # atno 17343 bound_to 10162
  156.0467  130.3726  150.1301 LP  0  0  0  0  0  0  0  0  0  0  0  0  # atno 17370 bound_to 10713
  156.9483  130.9766  151.3503 LP  0  0  0  0  0  0  0  0  0  0  0  0  # atno 17371 bound_to 10713
  140.9308  133.7581  156.0022 LP  0  0  0  0  0  0  0  0  0  0  0  0  # atno 17394 bound_to 11000
  140.8333  134.3153  157.5341 LP  0  0  0  0  0  0  0  0  0  0  0  0  # atno 17395 bound_to 11000

$$$$
