AV-unprocessed.smi:2424|AV-procd|sdf|9560|dock2
  -GOLD-   2272013193D 1   1.00000     0.00000
 Structure written by MMmdl.
 50 51  0  0  0  0  0  0  0  0  1 V2000
  148.8817  137.1320  156.5621 C   0  0  0  0  0  0  0  0  0  0  0  0
  149.0717  138.6508  156.4228 C   0  0  0  0  0  0  0  0  0  0  0  0
  148.9937  139.1959  154.9781 C   0  0  0  0  0  0  0  0  0  0  0  0
  150.1775  138.6188  154.1572 C   0  0  0  0  0  0  0  0  0  0  0  0
  151.5728  138.8648  154.7547 C   0  0  0  0  0  0  0  0  0  0  0  0
  147.5861  139.1043  154.3290 C   0  0  2  0  0  0  0  0  0  0  0  0
  147.4471  138.0445  153.3333 N   0  0  0  0  0  0  0  0  0  0  0  0
  146.4077  137.2050  153.2386 C   0  0  0  0  0  0  0  0  0  0  0  0
  145.4293  137.2549  153.9828 O   0  0  0  0  0  0  0  0  0  0  0  0
  146.5933  136.3283  152.2351 N   0  0  0  0  0  0  0  0  0  0  0  0
  145.7760  135.2662  151.8242 C   0  0  0  0  0  0  0  0  0  0  0  0
  144.6308  135.5684  151.1885 C   0  0  0  0  0  0  0  0  0  0  0  0
  143.7563  134.5755  150.7413 N   0  0  0  0  0  0  0  0  0  0  0  0
  143.9695  133.2491  150.8954 C   0  0  0  0  0  0  0  0  0  0  0  0
  143.1498  132.4337  150.4763 O   0  0  0  0  0  0  0  0  0  0  0  0
  145.2213  132.8846  151.5786 C   0  0  0  0  0  0  0  0  0  0  0  0
  145.5254  131.4092  151.7701 C   0  0  0  0  0  0  0  0  0  0  0  0
  146.0669  133.8482  152.0125 C   0  0  0  0  0  0  0  0  0  0  0  0
  147.8036  140.4782  153.6895 C   0  0  1  0  0  0  0  0  0  0  0  0
  146.6203  141.4150  153.4809 C   0  0  0  0  0  0  0  0  0  0  0  0
  148.8057  140.7354  154.8265 C   0  0  1  0  0  0  0  0  0  0  0  0
  148.1582  141.3558  155.9316 O   0  0  0  0  0  0  0  0  0  0  0  0
  149.0388  141.6216  157.0104 C   0  0  0  0  0  0  0  0  0  0  0  0
  142.9129  134.8811  150.2776 H   0  0  0  0  0  0  0  0  0  0  0  0
  148.8613  136.8466  157.6139 H   0  0  0  0  0  0  0  0  0  0  0  0
  149.6910  136.5724  156.0949 H   0  0  0  0  0  0  0  0  0  0  0  0
  147.9422  136.8047  156.1190 H   0  0  0  0  0  0  0  0  0  0  0  0
  148.2966  139.1179  157.0304 H   0  0  0  0  0  0  0  0  0  0  0  0
  150.0065  138.9398  156.9005 H   0  0  0  0  0  0  0  0  0  0  0  0
  150.0494  137.5502  153.9866 H   0  0  0  0  0  0  0  0  0  0  0  0
  150.1813  139.0524  153.1574 H   0  0  0  0  0  0  0  0  0  0  0  0
  152.3463  138.5360  154.0604 H   0  0  0  0  0  0  0  0  0  0  0  0
  151.7220  138.3115  155.6814 H   0  0  0  0  0  0  0  0  0  0  0  0
  151.7449  139.9213  154.9598 H   0  0  0  0  0  0  0  0  0  0  0  0
  146.7860  139.1383  155.0724 H   0  0  0  0  0  0  0  0  0  0  0  0
  148.2070  137.9366  152.6778 H   0  0  0  0  0  0  0  0  0  0  0  0
  147.4404  136.4407  151.6978 H   0  0  0  0  0  0  0  0  0  0  0  0
  144.2961  136.5740  150.9784 H   0  0  0  0  0  0  0  0  0  0  0  0
  146.4793  131.2605  152.2769 H   0  0  0  0  0  0  0  0  0  0  0  0
  145.5737  130.9019  150.8060 H   0  0  0  0  0  0  0  0  0  0  0  0
  144.7479  130.9348  152.3698 H   0  0  0  0  0  0  0  0  0  0  0  0
  146.9747  133.5284  152.4965 H   0  0  0  0  0  0  0  0  0  0  0  0
  148.3594  140.3727  152.7560 H   0  0  0  0  0  0  0  0  0  0  0  0
  146.0032  141.4902  154.3764 H   0  0  0  0  0  0  0  0  0  0  0  0
  145.9802  141.0618  152.6725 H   0  0  0  0  0  0  0  0  0  0  0  0
  146.9540  142.4204  153.2238 H   0  0  0  0  0  0  0  0  0  0  0  0
  149.6837  141.2813  154.4772 H   0  0  0  0  0  0  0  0  0  0  0  0
  148.4793  142.0466  157.8434 H   0  0  0  0  0  0  0  0  0  0  0  0
  149.8050  142.3408  156.7190 H   0  0  0  0  0  0  0  0  0  0  0  0
  149.5309  140.7149  157.3626 H   0  0  0  0  0  0  0  0  0  0  0  0
  1  2  1  0  0  0  0
  1 25  1  0  0  0  0
  1 26  1  0  0  0  0
  1 27  1  0  0  0  0
  2  3  1  0  0  0  0
  2 28  1  0  0  0  0
  2 29  1  0  0  0  0
  3 21  1  0  0  0  0
  3  4  1  0  0  0  0
  3  6  1  0  0  0  0
  4  5  1  0  0  0  0
  4 30  1  0  0  0  0
  4 31  1  0  0  0  0
  5 32  1  0  0  0  0
  5 33  1  0  0  0  0
  5 34  1  0  0  0  0
  6  7  1  0  0  0  0
  6 19  1  0  0  0  0
  6 35  1  0  0  0  0
  7  8  1  0  0  0  0
  7 36  1  0  0  0  0
  8  9  2  0  0  0  0
  8 10  1  0  0  0  0
 10 11  1  0  0  0  0
 10 37  1  0  0  0  0
 11 18  1  0  0  0  0
 11 12  2  0  0  0  0
 12 13  1  0  0  0  0
 12 38  1  0  0  0  0
 13 24  1  0  0  0  0
 13 14  1  0  0  0  0
 14 15  2  0  0  0  0
 14 16  1  0  0  0  0
 16 17  1  0  0  0  0
 16 18  2  0  0  0  0
 17 39  1  0  0  0  0
 17 40  1  0  0  0  0
 17 41  1  0  0  0  0
 18 42  1  0  0  0  0
 19 20  1  0  0  0  0
 19 21  1  0  0  0  0
 19 43  1  0  0  0  0
 20 44  1  0  0  0  0
 20 45  1  0  0  0  0
 20 46  1  0  0  0  0
 21 22  1  0  0  0  0
 21 47  1  0  0  0  0
 22 23  1  0  0  0  0
 23 48  1  0  0  0  0
 23 49  1  0  0  0  0
 23 50  1  0  0  0  0
M  END
> <s_m_source_file>
AV-unprocessed.smi

> <i_m_source_file_index>
2424

> <i_lp_mmshare_version>
43012

> <i_f3d_flags>
0

> <s_epik_input>
W0NIM11PW0NAQEhdMVtDQEhdKFtDSDNdKVtDQEBIXShDMShbQ0gyXVtDSDNdKVtDSDJdW0NIM10pW05IXUMoPU8pW05IXWMyW2NIXVtuSF1jKD1PKWMoW0NIM10pW2NIXTI=

> <s_epik_cmdline>
J2VwaWtfcHl0aG9uJywgJy1waCcsICc3LjAnLCAnLXRuJywgJzgnLCAnLW1hJywgJzIwMCcsICctbWV0YWxfYmluZGluZycsICctaW1hZScsICc8aW5maWxlLm1hZT4nLCAnLW9tYWUnLCAnPG91dGZpbGUubWFlPic=

> <r_lp_tautomer_probability>
1

> <r_epik_Ionization_Penalty>
4.7326e-05

> <r_epik_Ionization_Penalty_Charging>
2.70169e-05

> <r_epik_Ionization_Penalty_Neutral>
2.0309e-05

> <r_epik_State_Penalty>
-0

> <r_epik_Charging_Adjusted_Penalty>
2.70169e-05

> <i_epik_Tot_Q>
0

> <i_epik_Tot_abs_Q>
0

> <r_epik_Metal_State_Penalty>
0.0198736

> <b_epik_Metal_Only>
0

> <s_lp_Force_Field>
OPLS_2005

> <r_lp_Energy>
37.5965

> <b_lp_Chiralities_Consistent>
1

> <s_lp_Variant>
AV-unprocessed.smi:2424-2

> <Gold.Version>
5.8.1

> <Gold.Id.Protein>
6NUR|6NUR_protein|mol2

> <Gold.PLP.Fitness>
39.9690

> <Gold.PLP.PLP>
-31.6785

> <Gold.PLP.part.hbond>
-2.4801

> <Gold.PLP.part.metal>
0.0000

> <Gold.PLP.part.buried>
-4.3419

> <Gold.PLP.part.nonpolar>
-26.3935

> <Gold.PLP.part.repulsive>
0.6620

> <Gold.PLP.ligand.clash>
0.0000

> <Gold.PLP.ligand.torsion>
1.0613

> <Gold.PLP.Chemscore.Hbond>
2.2339

> <Gold.PLP.Chemscore.CHOScore>
1.0000

> <Gold.PLP.Chemscore.Metal>
0.0000

> <Gold.Chemscore.Hbonds>
donor molecule, donor type, donor heavy atom, donor atom, acceptor molecule, acceptor atom, score
      L1  H     7    36       P1  7948  0.61
      L1  H    10    37       P1  7948  0.77
      L1  H    13    24       P1 10186  0.89
      L1  C    12    38       P1 10171  1.00

> <Gold.PLP.Chemscore.Internal.Correction>
0.7114

> <Gold.Rescore>
     Score         DG    S(hbond)    S(metal)    S(lipo)     H(rot)  DE(clash)    DE(int)     intcor
     16.17     -17.57       2.08        0.00      77.76       1.55       0.23       1.17       ----

> <Gold.Chemscore.Fitness>
16.1666

> <Gold.Chemscore.DG>
-17.5674

> <Gold.Chemscore.ZeroCoef>
-5.4800

> <Gold.Chemscore.Hbond>
2.0832

> <Gold.Chemscore.Metal>
0.0000

> <Gold.Chemscore.Lipo>
77.7599

> <Gold.Chemscore.Internal_Hbond>
0.0000

> <Gold.Chemscore.DEClash>
0.2344

> <Gold.Chemscore.DEInternal>
1.1664

> <Gold.Chemscore.Rot>
1.5502

> <Gold.Chemscore.Internal.Correction>
   9.000000E+99

> <Gold.Chemscore.Hbonds>
donor molecule, donor type, donor heavy atom, donor atom, acceptor molecule, acceptor atom, score
      L1  H     7    36       P1  7948  0.57
      L1  H    10    37       P1  7948  0.73
      L1  H    13    24       P1 10186  0.24

> <Gold.Chemscore.Hbond.Weighted>
-6.9580

> <Gold.Chemscore.Metal.Weighted>
-0.0000

> <Gold.Chemscore.Lipo.Weighted>
-9.0979

> <Gold.Chemscore.Internal_Hbond.Weighted>
0.0000

> <Gold.Chemscore.DEClash.Weighted>
0.2344

> <Gold.Chemscore.DEInternal.Weighted>
1.1664

> <Gold.Chemscore.Rot.Weighted>
3.9685

> <Gold.Chemscore.Internal.Correction.Weighted>
   9.000000E+99

> <Gold.Protein.RotatedTorsions>
[ 6907 6896 6895 6894 ] final  -87.16 input  -60.11 | X-H torsion
[ 7974 7965 7964 7962 ] final  137.89 input  175.53 | X-H torsion
[ 8008 7997 7996 7995 ] final  139.67 input   59.86 | X-H torsion
[ 10167 10162 10161 10158 ] final  166.58 input  -65.29 | X-H torsion
[ 10718 10713 10712 10709 ] final   63.11 input   66.30 | X-H torsion
[ 10763 10752 10751 10750 ] final  -54.97 input  -60.55 | X-H torsion
[ 11005 11000 10999 10996 ] final    1.88 input  -57.11 | X-H torsion

> <Gold.Protein.ActiveResidues>
 VAL166  LYS551  ARG553  GLY616  TRP617  ASP618  TYR619  PRO620  LYS621  CYS622 
 ASP623  PHE694  ASN695  SER759  ASP760  ASP761  ALA762  ILE779  LEU786  VAL792 
 PHE793  MET794  SER795  GLU796  ALA797  LYS798  CYS799  TRP800  GLU811  SER814 

> <Gold.Protein.RotatedAtoms>
  150.6866  134.2939  159.4678 H   0  0  0  0  0  0  0  0  0  0  0  0  # atno 6907 bound_to 6896
  152.0842  134.9448  160.0582 H   0  0  0  0  0  0  0  0  0  0  0  0  # atno 6908 bound_to 6896
  152.0789  133.4108  159.4529 H   0  0  0  0  0  0  0  0  0  0  0  0  # atno 6909 bound_to 6896
  144.9424  139.4915  143.5565 H   0  0  0  0  0  0  0  0  0  0  0  0  # atno 7974 bound_to 7965
  156.2987  140.2361  156.4275 H   0  0  0  0  0  0  0  0  0  0  0  0  # atno 8008 bound_to 7997
  154.8300  140.0433  157.1491 H   0  0  0  0  0  0  0  0  0  0  0  0  # atno 8009 bound_to 7997
  154.9218  140.3004  155.5216 H   0  0  0  0  0  0  0  0  0  0  0  0  # atno 8010 bound_to 7997
  139.4927  144.4012  151.9407 H   0  0  0  0  0  0  0  0  0  0  0  0  # atno 10167 bound_to 10162
  157.5948  130.9087  149.9673 H   0  0  0  0  0  0  0  0  0  0  0  0  # atno 10718 bound_to 10713
  154.1834  135.6439  153.5040 H   0  0  0  0  0  0  0  0  0  0  0  0  # atno 10763 bound_to 10752
  153.0053  135.5411  154.6490 H   0  0  0  0  0  0  0  0  0  0  0  0  # atno 10764 bound_to 10752
  154.5861  135.2929  155.0656 H   0  0  0  0  0  0  0  0  0  0  0  0  # atno 10765 bound_to 10752
  140.6105  133.9752  155.8175 H   0  0  0  0  0  0  0  0  0  0  0  0  # atno 11005 bound_to 11000
  146.3291  139.8453  142.8883 LP  0  0  0  0  0  0  0  0  0  0  0  0  # atno 17320 bound_to 7965
  145.2970  141.0183  143.3630 LP  0  0  0  0  0  0  0  0  0  0  0  0  # atno 17321 bound_to 7965
  140.3452  144.3156  150.5959 LP  0  0  0  0  0  0  0  0  0  0  0  0  # atno 17342 bound_to 10162
  140.5532  143.2203  151.7891 LP  0  0  0  0  0  0  0  0  0  0  0  0  # atno 17343 bound_to 10162
  156.1008  130.3656  150.0221 LP  0  0  0  0  0  0  0  0  0  0  0  0  # atno 17370 bound_to 10713
  156.8336  130.9401  151.3636 LP  0  0  0  0  0  0  0  0  0  0  0  0  # atno 17371 bound_to 10713
  141.0811  134.0061  157.3384 LP  0  0  0  0  0  0  0  0  0  0  0  0  # atno 17394 bound_to 11000
  139.9194  135.0199  156.8007 LP  0  0  0  0  0  0  0  0  0  0  0  0  # atno 17395 bound_to 11000

$$$$
