AV-unprocessed.smi:196|AV-procd|sdf|1542|dock6
  -GOLD-   2262019403D 1   1.00000     0.00000
 Structure written by MMmdl.
 47 50  0  0  0  0  0  0  0  0  1 V2000
  148.9181  140.3432  154.4861 C   0  0  0  0  0  0  0  0  0  0  0  0
  149.5297  140.0892  155.8735 C   0  0  2  0  0  0  0  0  0  0  0  0
  149.5957  141.2994  156.6273 O   0  0  0  0  0  0  0  0  0  0  0  0
  150.9259  141.5293  157.0708 C   0  0  0  0  0  0  0  0  0  0  0  0
  151.5569  140.1438  157.1171 C   0  0  0  0  0  0  0  0  0  0  0  0
  150.9424  139.4620  155.9034 C   0  0  2  0  0  0  0  0  0  0  0  0
  151.6879  139.8348  154.7547 O   0  0  0  0  0  0  0  0  0  0  0  0
  150.9171  137.9179  155.9917 C   0  0  0  0  0  0  0  0  0  0  0  0
  150.4578  137.4190  157.2783 N   0  0  0  0  0  0  0  0  0  0  0  0
  151.1298  137.4944  158.4784 C   0  0  0  0  0  0  0  0  0  0  0  0
  150.5086  136.9705  159.4997 N   0  0  0  0  0  0  0  0  0  0  0  0
  149.3241  136.4884  158.9589 C   0  0  0  0  0  0  0  0  0  0  0  0
  148.2045  135.8019  159.4947 C   0  0  0  0  0  0  0  0  0  0  0  0
  148.1274  135.4809  160.8052 N   0  0  0  0  0  0  0  0  0  0  0  0
  148.3298  136.5887  161.7334 C   0  0  0  0  0  0  0  0  0  0  0  0
  147.2908  136.4120  162.8440 C   0  0  1  0  0  0  0  0  0  0  0  0
  146.2248  137.1683  162.5768 F   0  0  0  0  0  0  0  0  0  0  0  0
  146.9068  134.9390  162.7417 C   0  0  0  0  0  0  0  0  0  0  0  0
  146.9905  134.6648  161.2350 C   0  0  2  0  0  0  0  0  0  0  0  0
  147.1989  133.1739  160.9301 C   0  0  0  0  0  0  0  0  0  0  0  0
  146.3031  132.5929  160.1291 N   0  0  0  0  0  0  0  0  0  0  0  0
  148.1421  132.5511  161.4154 O   0  0  0  0  0  0  0  0  0  0  0  0
  147.1905  135.4772  158.6506 N   0  0  0  0  0  0  0  0  0  0  0  0
  147.2746  135.7971  157.3556 C   0  0  0  0  0  0  0  0  0  0  0  0
  148.2607  136.4283  156.7134 N   0  0  0  0  0  0  0  0  0  0  0  0
  149.2746  136.7603  157.5640 C   0  0  0  0  0  0  0  0  0  0  0  0
  147.6581  136.6987  163.8298 H   0  0  0  0  0  0  0  0  0  0  0  0
  146.0713  135.0119  160.7587 H   0  0  0  0  0  0  0  0  0  0  0  0
  148.8805  139.4252  153.8995 H   0  0  0  0  0  0  0  0  0  0  0  0
  149.4898  141.0821  153.9237 H   0  0  0  0  0  0  0  0  0  0  0  0
  147.8992  140.7201  154.5777 H   0  0  0  0  0  0  0  0  0  0  0  0
  148.8494  139.4420  156.4289 H   0  0  0  0  0  0  0  0  0  0  0  0
  151.4383  142.1620  156.3450 H   0  0  0  0  0  0  0  0  0  0  0  0
  150.9452  142.0334  158.0372 H   0  0  0  0  0  0  0  0  0  0  0  0
  152.6475  140.1663  157.1071 H   0  0  0  0  0  0  0  0  0  0  0  0
  151.2408  139.6410  158.0318 H   0  0  0  0  0  0  0  0  0  0  0  0
  152.4467  139.2746  154.6963 H   0  0  0  0  0  0  0  0  0  0  0  0
  150.2695  137.5048  155.2171 H   0  0  0  0  0  0  0  0  0  0  0  0
  151.9124  137.5136  155.8028 H   0  0  0  0  0  0  0  0  0  0  0  0
  152.1015  137.9573  158.5739 H   0  0  0  0  0  0  0  0  0  0  0  0
  149.3363  136.4979  162.1431 H   0  0  0  0  0  0  0  0  0  0  0  0
  148.2560  137.5712  161.2632 H   0  0  0  0  0  0  0  0  0  0  0  0
  147.6332  134.3351  163.2886 H   0  0  0  0  0  0  0  0  0  0  0  0
  145.9195  134.7315  163.1560 H   0  0  0  0  0  0  0  0  0  0  0  0
  146.3920  131.6139  159.8985 H   0  0  0  0  0  0  0  0  0  0  0  0
  145.5369  133.1363  159.7584 H   0  0  0  0  0  0  0  0  0  0  0  0
  146.4318  135.5053  156.7466 H   0  0  0  0  0  0  0  0  0  0  0  0
  1  2  1  0  0  0  0
  1 29  1  0  0  0  0
  1 30  1  0  0  0  0
  1 31  1  0  0  0  0
  2  6  1  0  0  0  0
  2  3  1  0  0  0  0
  2 32  1  0  0  0  0
  3  4  1  0  0  0  0
  4  5  1  0  0  0  0
  4 33  1  0  0  0  0
  4 34  1  0  0  0  0
  5  6  1  0  0  0  0
  5 35  1  0  0  0  0
  5 36  1  0  0  0  0
  6  7  1  0  0  0  0
  6  8  1  0  0  0  0
  7 37  1  0  0  0  0
  8  9  1  0  0  0  0
  8 38  1  0  0  0  0
  8 39  1  0  0  0  0
  9 26  1  0  0  0  0
  9 10  1  0  0  0  0
 10 11  2  0  0  0  0
 10 40  1  0  0  0  0
 11 12  1  0  0  0  0
 12 26  2  0  0  0  0
 12 13  1  0  0  0  0
 13 14  1  0  0  0  0
 13 23  2  0  0  0  0
 14 19  1  0  0  0  0
 14 15  1  0  0  0  0
 15 16  1  0  0  0  0
 15 41  1  0  0  0  0
 15 42  1  0  0  0  0
 16 27  1  0  0  0  0
 16 17  1  0  0  0  0
 16 18  1  0  0  0  0
 18 19  1  0  0  0  0
 18 43  1  0  0  0  0
 18 44  1  0  0  0  0
 19 28  1  0  0  0  0
 19 20  1  0  0  0  0
 20 21  1  0  0  0  0
 20 22  2  0  0  0  0
 21 45  1  0  0  0  0
 21 46  1  0  0  0  0
 23 24  1  0  0  0  0
 24 25  2  0  0  0  0
 24 47  1  0  0  0  0
 25 26  1  0  0  0  0
M  END
> <s_m_source_file>
AV-unprocessed.smi

> <i_m_source_file_index>
196

> <i_lp_mmshare_version>
43012

> <i_f3d_flags>
0

> <s_epik_input>
W0NIMl0xW0NIMl1PW0NAQEhdKFtDSDNdKVtDQEBdMShbT0hdKVtDSDJdbihbY0hdbjIpYyhjMjMpbltjSF1uYzNONFtDSDJdW0NASF0oRilbQ0gyXVtDQEhdNEMoPU8pW05IMl0=

> <s_epik_cmdline>
J2VwaWtfcHl0aG9uJywgJy1waCcsICc3LjAnLCAnLXRuJywgJzgnLCAnLW1hJywgJzIwMCcsICctbWV0YWxfYmluZGluZycsICctaW1hZScsICc8aW5maWxlLm1hZT4nLCAnLW9tYWUnLCAnPG91dGZpbGUubWFlPic=

> <r_lp_tautomer_probability>
1

> <r_epik_Ionization_Penalty>
0.000857933

> <r_epik_Ionization_Penalty_Charging>
0

> <r_epik_Ionization_Penalty_Neutral>
0.000857933

> <r_epik_State_Penalty>
0.000462053

> <r_epik_Charging_Adjusted_Penalty>
0.000462053

> <i_epik_Tot_Q>
0

> <i_epik_Tot_abs_Q>
0

> <r_epik_Metal_State_Penalty>
-0

> <b_epik_Metal_Only>
0

> <s_lp_Force_Field>
OPLS_2005

> <r_lp_Energy>
44.722

> <b_lp_Chiralities_Consistent>
1

> <s_lp_Variant>
AV-unprocessed.smi:196-15

> <Gold.Version>
5.8.1

> <Gold.Id.Protein>
6NUR|6NUR_protein|mol2

> <Gold.PLP.Fitness>
39.3723

> <Gold.PLP.PLP>
-33.7984

> <Gold.PLP.part.hbond>
-2.0000

> <Gold.PLP.part.metal>
0.0000

> <Gold.PLP.part.buried>
-3.7237

> <Gold.PLP.part.nonpolar>
-29.0028

> <Gold.PLP.part.repulsive>
0.0766

> <Gold.PLP.ligand.clash>
0.0000

> <Gold.PLP.ligand.torsion>
0.3038

> <Gold.PLP.Chemscore.Hbond>
2.0000

> <Gold.PLP.Chemscore.CHOScore>
0.0000

> <Gold.PLP.Chemscore.Metal>
0.0000

> <Gold.Chemscore.Hbonds>
donor molecule, donor type, donor heavy atom, donor atom, acceptor molecule, acceptor atom, score
      P1  H  6896  6907       L1    11  0.85
      P1  H  7989  7998       L1     7  1.00

> <Gold.PLP.Chemscore.Internal.Correction>
0.1815

> <Gold.Rescore>
     Score         DG    S(hbond)    S(metal)    S(lipo)     H(rot)  DE(clash)    DE(int)     intcor
      9.91     -10.19       1.34        0.00      68.49       3.04       0.02       0.26       ----

> <Gold.Chemscore.Fitness>
9.9077

> <Gold.Chemscore.DG>
-10.1907

> <Gold.Chemscore.ZeroCoef>
-5.4800

> <Gold.Chemscore.Hbond>
1.3424

> <Gold.Chemscore.Metal>
0.0000

> <Gold.Chemscore.Lipo>
68.4858

> <Gold.Chemscore.Internal_Hbond>
0.0000

> <Gold.Chemscore.DEClash>
0.0202

> <Gold.Chemscore.DEInternal>
0.2627

> <Gold.Chemscore.Rot>
3.0413

> <Gold.Chemscore.Internal.Correction>
   9.000000E+99

> <Gold.Chemscore.Hbonds>
donor molecule, donor type, donor heavy atom, donor atom, acceptor molecule, acceptor atom, score
      P1  H  6896  6907       L1    11  0.11
      P1  H  7989  7998       L1     7  0.72

> <Gold.Chemscore.Hbond.Weighted>
-4.4835

> <Gold.Chemscore.Metal.Weighted>
-0.0000

> <Gold.Chemscore.Lipo.Weighted>
-8.0128

> <Gold.Chemscore.Internal_Hbond.Weighted>
0.0000

> <Gold.Chemscore.DEClash.Weighted>
0.0202

> <Gold.Chemscore.DEInternal.Weighted>
0.2627

> <Gold.Chemscore.Rot.Weighted>
7.7856

> <Gold.Chemscore.Internal.Correction.Weighted>
   9.000000E+99

> <Gold.Protein.RotatedTorsions>
[ 6907 6896 6895 6894 ] final  -10.70 input  -60.11 | X-H torsion
[ 7974 7965 7964 7962 ] final   61.06 input  175.53 | X-H torsion
[ 8008 7997 7996 7995 ] final  175.08 input   59.86 | X-H torsion
[ 10167 10162 10161 10158 ] final  160.98 input  -65.29 | X-H torsion
[ 10718 10713 10712 10709 ] final  123.88 input   66.30 | X-H torsion
[ 10763 10752 10751 10750 ] final  -31.37 input  -60.55 | X-H torsion
[ 11005 11000 10999 10996 ] final   31.13 input  -57.11 | X-H torsion

> <Gold.Protein.ActiveResidues>
 VAL166  LYS551  ARG553  GLY616  TRP617  ASP618  TYR619  PRO620  LYS621  CYS622 
 ASP623  PHE694  ASN695  SER759  ASP760  ASP761  ALA762  ILE779  LEU786  VAL792 
 PHE793  MET794  SER795  GLU796  ALA797  LYS798  CYS799  TRP800  GLU811  SER814 

> <Gold.Protein.RotatedAtoms>
  151.3978  135.0966  159.9546 H   0  0  0  0  0  0  0  0  0  0  0  0  # atno 6907 bound_to 6896
  152.5060  133.8917  159.7408 H   0  0  0  0  0  0  0  0  0  0  0  0  # atno 6908 bound_to 6896
  150.9385  133.6628  159.2824 H   0  0  0  0  0  0  0  0  0  0  0  0  # atno 6909 bound_to 6896
  145.8890  139.3497  143.0661 H   0  0  0  0  0  0  0  0  0  0  0  0  # atno 7974 bound_to 7965
  156.0908  140.1418  156.9595 H   0  0  0  0  0  0  0  0  0  0  0  0  # atno 8008 bound_to 7997
  154.4640  140.0933  156.7019 H   0  0  0  0  0  0  0  0  0  0  0  0  # atno 8009 bound_to 7997
  155.4923  140.3448  155.4359 H   0  0  0  0  0  0  0  0  0  0  0  0  # atno 8010 bound_to 7997
  139.4845  144.4581  151.8741 H   0  0  0  0  0  0  0  0  0  0  0  0  # atno 10167 bound_to 10162
  157.5629  131.1088  150.8506 H   0  0  0  0  0  0  0  0  0  0  0  0  # atno 10718 bound_to 10713
  153.7963  135.6894  153.4863 H   0  0  0  0  0  0  0  0  0  0  0  0  # atno 10763 bound_to 10752
  153.1717  135.4540  154.9910 H   0  0  0  0  0  0  0  0  0  0  0  0  # atno 10764 bound_to 10752
  154.8024  135.3343  154.7455 H   0  0  0  0  0  0  0  0  0  0  0  0  # atno 10765 bound_to 10752
  140.2871  134.2906  155.7785 H   0  0  0  0  0  0  0  0  0  0  0  0  # atno 11005 bound_to 11000
  145.8932  140.9290  143.0541 LP  0  0  0  0  0  0  0  0  0  0  0  0  # atno 17320 bound_to 7965
  144.6729  140.0933  143.7464 LP  0  0  0  0  0  0  0  0  0  0  0  0  # atno 17321 bound_to 7965
  140.4042  144.2453  150.5891 LP  0  0  0  0  0  0  0  0  0  0  0  0  # atno 17342 bound_to 10162
  140.5028  143.2313  151.8653 LP  0  0  0  0  0  0  0  0  0  0  0  0  # atno 17343 bound_to 10162
  156.8999  130.5243  149.5283 LP  0  0  0  0  0  0  0  0  0  0  0  0  # atno 17370 bound_to 10713
  156.0680  130.5719  150.9327 LP  0  0  0  0  0  0  0  0  0  0  0  0  # atno 17371 bound_to 10713
  141.2153  133.7562  156.9569 LP  0  0  0  0  0  0  0  0  0  0  0  0  # atno 17394 bound_to 11000
  140.1229  134.9405  157.2229 LP  0  0  0  0  0  0  0  0  0  0  0  0  # atno 17395 bound_to 11000

$$$$
