AV-unprocessed.smi:2831|AV-procd|sdf|10911|dock10
  -GOLD-   2272015353D 1   1.00000     0.00000
 Structure written by MMmdl.
 29 30  0  0  0  0  0  0  0  0  2 V2000
  145.9298  136.0263  162.1396 C   0  0  0  0  0  0  0  0  0  0  0  0
  147.0002  136.2918  161.1373 C   0  0  0  0  0  0  0  0  0  0  0  0
  147.2964  137.5194  160.7036 N   0  0  0  0  0  0  0  0  0  0  0  0
  148.3286  137.5109  159.7763 N   0  0  0  0  0  0  0  0  0  0  0  0
  148.8051  136.2820  159.5308 C   0  0  0  0  0  0  0  0  0  0  0  0
  149.8055  136.0562  158.6632 N   0  5  0  0  0  0  0  0  0  0  0  0
  150.6499  137.0582  158.3289 C   0  0  0  0  0  0  0  0  0  0  0  0
  151.4643  137.6010  159.0785 O   0  0  0  0  0  0  0  0  0  0  0  0
  150.5387  137.4449  157.0467 N   0  0  0  0  0  0  0  0  0  0  0  0
  151.2726  138.4903  156.3188 C   0  0  2  0  0  0  0  0  0  0  0  0
  152.7686  138.1296  156.3810 C   0  0  0  0  0  0  0  0  0  0  0  0
  151.0387  139.9022  156.8850 C   0  0  0  0  0  0  0  0  0  0  0  0
  150.3779  140.6638  155.7374 C   0  0  0  0  0  0  0  0  0  0  0  0
  150.8665  140.0071  154.5808 O   0  0  0  0  0  0  0  0  0  0  0  0
  150.8115  138.6152  154.8508 C   0  0  0  0  0  0  0  0  0  0  0  0
  147.9758  135.0137  160.4328 S   0  0  0  0  0  0  0  0  0  0  0  0
  146.3038  136.2238  163.1443 H   0  0  0  0  0  0  0  0  0  0  0  0
  145.6090  134.9861  162.0829 H   0  0  0  0  0  0  0  0  0  0  0  0
  145.0679  136.6670  161.9517 H   0  0  0  0  0  0  0  0  0  0  0  0
  149.8482  136.9473  156.5038 H   0  0  0  0  0  0  0  0  0  0  0  0
  153.3752  138.8514  155.8327 H   0  0  0  0  0  0  0  0  0  0  0  0
  152.9582  137.1469  155.9472 H   0  0  0  0  0  0  0  0  0  0  0  0
  153.1279  138.1099  157.4106 H   0  0  0  0  0  0  0  0  0  0  0  0
  150.4316  139.9263  157.7907 H   0  0  0  0  0  0  0  0  0  0  0  0
  151.9866  140.3818  157.1324 H   0  0  0  0  0  0  0  0  0  0  0  0
  149.2918  140.5716  155.7782 H   0  0  0  0  0  0  0  0  0  0  0  0
  150.6308  141.7241  155.7354 H   0  0  0  0  0  0  0  0  0  0  0  0
  151.4394  138.0565  154.1560 H   0  0  0  0  0  0  0  0  0  0  0  0
  149.7856  138.2770  154.7012 H   0  0  0  0  0  0  0  0  0  0  0  0
  1  2  1  0  0  0  0
  1 17  1  0  0  0  0
  1 18  1  0  0  0  0
  1 19  1  0  0  0  0
  2 16  1  0  0  0  0
  2  3  2  0  0  0  0
  3  4  1  0  0  0  0
  4  5  2  0  0  0  0
  5  6  1  0  0  0  0
  5 16  1  0  0  0  0
  6  7  1  0  0  0  0
  7  8  2  0  0  0  0
  7  9  1  0  0  0  0
  9 10  1  0  0  0  0
  9 20  1  0  0  0  0
 10 15  1  0  0  0  0
 10 11  1  0  0  0  0
 10 12  1  0  0  0  0
 11 21  1  0  0  0  0
 11 22  1  0  0  0  0
 11 23  1  0  0  0  0
 12 13  1  0  0  0  0
 12 24  1  0  0  0  0
 12 25  1  0  0  0  0
 13 14  1  0  0  0  0
 13 26  1  0  0  0  0
 13 27  1  0  0  0  0
 14 15  1  0  0  0  0
 15 28  1  0  0  0  0
 15 29  1  0  0  0  0
M  CHG  1   6  -1
M  END
> <s_m_source_file>
AV-unprocessed.smi

> <i_m_source_file_index>
2831

> <i_lp_mmshare_version>
43012

> <i_f3d_flags>
0

> <s_epik_input>
W0NIM11jMW5uYyhzMSlbTkhdQyg9TylbTkhdW0NAQF0yKFtDSDNdKVtDSDJdW0NIMl1PW0NIMl0y

> <s_epik_cmdline>
J2VwaWtfcHl0aG9uJywgJy1waCcsICc3LjAnLCAnLXRuJywgJzgnLCAnLW1hJywgJzIwMCcsICctbWV0YWxfYmluZGluZycsICctaW1hZScsICc8aW5maWxlLm1hZT4nLCAnLW9tYWUnLCAnPG91dGZpbGUubWFlPic=

> <r_lp_tautomer_probability>
1

> <r_epik_Ionization_Penalty>
3.33648

> <r_epik_Ionization_Penalty_Charging>
3.18522

> <r_epik_Ionization_Penalty_Neutral>
0.151254

> <r_epik_State_Penalty>
3.18248

> <r_epik_Charging_Adjusted_Penalty>
6.3677

> <i_epik_Tot_Q>
-1

> <i_epik_Tot_abs_Q>
1

> <r_epik_Metal_State_Penalty>
0.469716

> <b_epik_Metal_Only>
1

> <s_lp_Force_Field>
OPLS_2005

> <r_lp_Energy>
14.5797

> <b_lp_Chiralities_Consistent>
1

> <s_lp_Variant>
AV-unprocessed.smi:2831-4

> <Gold.Version>
5.8.1

> <Gold.Id.Protein>
6NUR|6NUR_protein|mol2

> <Gold.PLP.Fitness>
33.4823

> <Gold.PLP.PLP>
-22.9750

> <Gold.PLP.part.hbond>
-5.8338

> <Gold.PLP.part.metal>
0.0000

> <Gold.PLP.part.buried>
-3.2621

> <Gold.PLP.part.nonpolar>
-14.9152

> <Gold.PLP.part.repulsive>
0.1221

> <Gold.PLP.ligand.clash>
0.0000

> <Gold.PLP.ligand.torsion>
0.7387

> <Gold.PLP.Chemscore.Hbond>
3.9913

> <Gold.PLP.Chemscore.CHOScore>
0.0000

> <Gold.PLP.Chemscore.Metal>
0.0000

> <Gold.Chemscore.Hbonds>
donor molecule, donor type, donor heavy atom, donor atom, acceptor molecule, acceptor atom, score
      P1  H  6896  6907       L1     6  2.00
      P1  H  6934  6947       L1     3  0.93
      P1  H  7989  7998       L1    14  1.00

> <Gold.PLP.Chemscore.Internal.Correction>
0.0109

> <Gold.Rescore>
     Score         DG    S(hbond)    S(metal)    S(lipo)     H(rot)  DE(clash)    DE(int)     intcor
     14.16     -15.00       2.02        0.00      45.47       1.00       0.00       0.84       ----

> <Gold.Chemscore.Fitness>
14.1566

> <Gold.Chemscore.DG>
-14.9987

> <Gold.Chemscore.ZeroCoef>
-5.4800

> <Gold.Chemscore.Hbond>
2.0235

> <Gold.Chemscore.Metal>
0.0000

> <Gold.Chemscore.Lipo>
45.4719

> <Gold.Chemscore.Internal_Hbond>
0.0000

> <Gold.Chemscore.DEClash>
0.0000

> <Gold.Chemscore.DEInternal>
0.8421

> <Gold.Chemscore.Rot>
1.0000

> <Gold.Chemscore.Internal.Correction>
   9.000000E+99

> <Gold.Chemscore.Hbonds>
donor molecule, donor type, donor heavy atom, donor atom, acceptor molecule, acceptor atom, score
      P1  H  6896  6907       L1     6  0.18
      P1  H  6934  6947       L1     3  0.20
      P1  H  7989  7998       L1    14  0.94

> <Gold.Chemscore.Hbond.Weighted>
-6.7585

> <Gold.Chemscore.Metal.Weighted>
-0.0000

> <Gold.Chemscore.Lipo.Weighted>
-5.3202

> <Gold.Chemscore.Internal_Hbond.Weighted>
0.0000

> <Gold.Chemscore.DEClash.Weighted>
0.0000

> <Gold.Chemscore.DEInternal.Weighted>
0.8421

> <Gold.Chemscore.Rot.Weighted>
2.5600

> <Gold.Chemscore.Internal.Correction.Weighted>
   9.000000E+99

> <Gold.Protein.RotatedTorsions>
[ 6907 6896 6895 6894 ] final  -59.41 input  -60.11 | X-H torsion
[ 7974 7965 7964 7962 ] final   63.77 input  175.53 | X-H torsion
[ 8008 7997 7996 7995 ] final -136.75 input   59.86 | X-H torsion
[ 10167 10162 10161 10158 ] final   22.06 input  -65.29 | X-H torsion
[ 10718 10713 10712 10709 ] final    2.29 input   66.30 | X-H torsion
[ 10763 10752 10751 10750 ] final  -55.12 input  -60.55 | X-H torsion
[ 11005 11000 10999 10996 ] final -157.05 input  -57.11 | X-H torsion

> <Gold.Protein.ActiveResidues>
 VAL166  LYS551  ARG553  GLY616  TRP617  ASP618  TYR619  PRO620  LYS621  CYS622 
 ASP623  PHE694  ASN695  SER759  ASP760  ASP761  ALA762  ILE779  LEU786  VAL792 
 PHE793  MET794  SER795  GLU796  ALA797  LYS798  CYS799  TRP800  GLU811  SER814 

> <Gold.Protein.RotatedAtoms>
  150.7932  134.6972  159.6529 H   0  0  0  0  0  0  0  0  0  0  0  0  # atno 6907 bound_to 6896
  152.4041  134.6234  160.0066 H   0  0  0  0  0  0  0  0  0  0  0  0  # atno 6908 bound_to 6896
  151.6496  133.3285  159.3185 H   0  0  0  0  0  0  0  0  0  0  0  0  # atno 6909 bound_to 6896
  145.8579  139.3296  143.0836 H   0  0  0  0  0  0  0  0  0  0  0  0  # atno 7974 bound_to 7965
  155.4004  140.0505  157.3037 H   0  0  0  0  0  0  0  0  0  0  0  0  # atno 8008 bound_to 7997
  154.4993  140.2150  155.9340 H   0  0  0  0  0  0  0  0  0  0  0  0  # atno 8009 bound_to 7997
  156.1447  140.3147  155.8556 H   0  0  0  0  0  0  0  0  0  0  0  0  # atno 8010 bound_to 7997
  140.5378  143.9730  150.6501 H   0  0  0  0  0  0  0  0  0  0  0  0  # atno 10167 bound_to 10162
  156.8608  130.5586  149.5663 H   0  0  0  0  0  0  0  0  0  0  0  0  # atno 10718 bound_to 10713
  154.1857  135.6436  153.5046 H   0  0  0  0  0  0  0  0  0  0  0  0  # atno 10763 bound_to 10752
  153.0048  135.5416  154.6468 H   0  0  0  0  0  0  0  0  0  0  0  0  # atno 10764 bound_to 10752
  154.5844  135.2928  155.0673 H   0  0  0  0  0  0  0  0  0  0  0  0  # atno 10765 bound_to 10752
  140.6688  134.4269  157.5232 H   0  0  0  0  0  0  0  0  0  0  0  0  # atno 11005 bound_to 11000
  145.9282  140.9067  143.0370 LP  0  0  0  0  0  0  0  0  0  0  0  0  # atno 17320 bound_to 7965
  144.6727  140.1382  143.7439 LP  0  0  0  0  0  0  0  0  0  0  0  0  # atno 17321 bound_to 7965
  140.3123  143.3190  152.0867 LP  0  0  0  0  0  0  0  0  0  0  0  0  # atno 17342 bound_to 10162
  139.4977  144.6628  151.6425 LP  0  0  0  0  0  0  0  0  0  0  0  0  # atno 17343 bound_to 10162
  156.0777  130.5795  150.9505 LP  0  0  0  0  0  0  0  0  0  0  0  0  # atno 17370 bound_to 10713
  157.6251  131.0926  150.8549 LP  0  0  0  0  0  0  0  0  0  0  0  0  # atno 17371 bound_to 10713
  139.8988  134.8605  156.1985 LP  0  0  0  0  0  0  0  0  0  0  0  0  # atno 17394 bound_to 11000
  141.0408  133.6939  156.1594 LP  0  0  0  0  0  0  0  0  0  0  0  0  # atno 17395 bound_to 11000

$$$$
