AV-unprocessed.smi:109|AV-procd|sdf|1040|dock6
  -GOLD-   2262018 63D 1   1.00000     0.00000
 Structure written by MMmdl.
 58 61  0  0  0  0  0  0  0  0  1 V2000
  149.4793  133.8599  157.7616 O   0  0  0  0  0  0  0  0  0  0  0  0
  148.3091  134.4864  158.2401 C   0  0  0  0  0  0  0  0  0  0  0  0
  148.3696  135.9958  157.9562 C   0  0  0  0  0  0  0  0  0  0  0  0
  147.1107  136.7484  158.4336 C   0  0  1  0  0  0  0  0  0  0  0  0
  145.9811  136.4453  157.5529 N   0  0  0  0  0  0  0  0  0  0  0  0
  145.9460  136.8324  156.2583 C   0  0  0  0  0  0  0  0  0  0  0  0
  146.6026  137.9411  155.8267 N   0  0  0  0  0  0  0  0  0  0  0  0
  146.5498  138.2932  154.5383 C   0  0  0  0  0  0  0  0  0  0  0  0
  145.9135  137.6878  153.5325 N   0  0  0  0  0  0  0  0  0  0  0  0
  145.2533  136.5741  153.9632 C   0  0  0  0  0  0  0  0  0  0  0  0
  145.2196  136.0834  155.2974 C   0  0  0  0  0  0  0  0  0  0  0  0
  144.4523  134.9268  155.3535 N   0  0  0  0  0  0  0  0  0  0  0  0
  144.0637  134.7453  154.1195 C   0  0  0  0  0  0  0  0  0  0  0  0
  144.5035  135.6921  153.2184 N   0  0  0  0  0  0  0  0  0  0  0  0
  144.2640  135.7793  151.7468 C   0  0  2  0  0  0  0  0  0  0  0  0
  143.5707  134.6296  151.3614 O   0  0  0  0  0  0  0  0  0  0  0  0
  144.2630  133.9456  150.3214 C   0  0  2  0  0  0  0  0  0  0  0  0
  143.9854  132.4328  150.3727 C   0  0  0  0  0  0  0  0  0  0  0  0
  143.0057  132.0875  149.4172 O   0  0  0  0  0  0  0  0  0  0  0  0
  145.7296  134.3579  150.5054 C   0  0  2  0  0  0  0  0  0  0  0  0
  146.3838  133.5452  151.4639 O   0  0  0  0  0  0  0  0  0  0  0  0
  145.6132  135.7875  151.0111 C   0  0  1  0  0  0  0  0  0  0  0  0
  145.6032  136.7051  149.9361 O   0  0  0  0  0  0  0  0  0  0  0  0
  146.7729  136.4578  159.9198 C   0  0  0  0  0  0  0  0  0  0  0  0
  145.5768  137.2757  160.4622 C   0  0  0  0  0  0  0  0  0  0  0  0
  145.2527  136.9074  161.9196 C   0  0  0  0  0  0  0  0  0  0  0  0
  146.4820  137.0710  162.8259 C   0  0  0  0  0  0  0  0  0  0  0  0
  147.6703  136.2529  162.2984 C   0  0  0  0  0  0  0  0  0  0  0  0
  147.9988  136.6254  160.8439 C   0  0  0  0  0  0  0  0  0  0  0  0
  143.6659  136.6823  151.6151 H   0  0  0  0  0  0  0  0  0  0  0  0
  143.9224  134.3550  149.3684 H   0  0  0  0  0  0  0  0  0  0  0  0
  146.2909  134.2903  149.5725 H   0  0  0  0  0  0  0  0  0  0  0  0
  146.4308  136.0657  151.6787 H   0  0  0  0  0  0  0  0  0  0  0  0
  149.6906  134.2260  156.9162 H   0  0  0  0  0  0  0  0  0  0  0  0
  147.4417  134.0371  157.7557 H   0  0  0  0  0  0  0  0  0  0  0  0
  148.2213  134.2938  159.3098 H   0  0  0  0  0  0  0  0  0  0  0  0
  149.2609  136.4173  158.4222 H   0  0  0  0  0  0  0  0  0  0  0  0
  148.4892  136.1400  156.8816 H   0  0  0  0  0  0  0  0  0  0  0  0
  147.3647  137.8064  158.3710 H   0  0  0  0  0  0  0  0  0  0  0  0
  145.2328  135.9174  157.9789 H   0  0  0  0  0  0  0  0  0  0  0  0
  147.0974  139.1864  154.2761 H   0  0  0  0  0  0  0  0  0  0  0  0
  143.4480  133.9052  153.8329 H   0  0  0  0  0  0  0  0  0  0  0  0
  144.8898  131.8762  150.1259 H   0  0  0  0  0  0  0  0  0  0  0  0
  143.6698  132.1195  151.3683 H   0  0  0  0  0  0  0  0  0  0  0  0
  142.4057  132.8118  149.3257 H   0  0  0  0  0  0  0  0  0  0  0  0
  146.7598  132.8005  151.0201 H   0  0  0  0  0  0  0  0  0  0  0  0
  145.8792  136.2520  149.1539 H   0  0  0  0  0  0  0  0  0  0  0  0
  146.4920  135.4048  159.9755 H   0  0  0  0  0  0  0  0  0  0  0  0
  145.7941  138.3429  160.4035 H   0  0  0  0  0  0  0  0  0  0  0  0
  144.6902  137.1074  159.8516 H   0  0  0  0  0  0  0  0  0  0  0  0
  144.4356  137.5296  162.2864 H   0  0  0  0  0  0  0  0  0  0  0  0
  144.9001  135.8761  161.9655 H   0  0  0  0  0  0  0  0  0  0  0  0
  146.7587  138.1246  162.8807 H   0  0  0  0  0  0  0  0  0  0  0  0
  146.2393  136.7606  163.8426 H   0  0  0  0  0  0  0  0  0  0  0  0
  148.5439  136.4179  162.9294 H   0  0  0  0  0  0  0  0  0  0  0  0
  147.4393  135.1888  162.3613 H   0  0  0  0  0  0  0  0  0  0  0  0
  148.8223  136.0055  160.4879 H   0  0  0  0  0  0  0  0  0  0  0  0
  148.3531  137.6564  160.8138 H   0  0  0  0  0  0  0  0  0  0  0  0
  1  2  1  0  0  0  0
  1 34  1  0  0  0  0
  2  3  1  0  0  0  0
  2 35  1  0  0  0  0
  2 36  1  0  0  0  0
  3  4  1  0  0  0  0
  3 37  1  0  0  0  0
  3 38  1  0  0  0  0
  4  5  1  0  0  0  0
  4 24  1  0  0  0  0
  4 39  1  0  0  0  0
  5  6  1  0  0  0  0
  5 40  1  0  0  0  0
  6 11  1  0  0  0  0
  6  7  2  0  0  0  0
  7  8  1  0  0  0  0
  8  9  2  0  0  0  0
  8 41  1  0  0  0  0
  9 10  1  0  0  0  0
 10 14  1  0  0  0  0
 10 11  2  0  0  0  0
 11 12  1  0  0  0  0
 12 13  2  0  0  0  0
 13 14  1  0  0  0  0
 13 42  1  0  0  0  0
 14 15  1  0  0  0  0
 15 30  1  0  0  0  0
 15 22  1  0  0  0  0
 15 16  1  0  0  0  0
 16 17  1  0  0  0  0
 17 31  1  0  0  0  0
 17 18  1  0  0  0  0
 17 20  1  0  0  0  0
 18 19  1  0  0  0  0
 18 43  1  0  0  0  0
 18 44  1  0  0  0  0
 19 45  1  0  0  0  0
 20 32  1  0  0  0  0
 20 21  1  0  0  0  0
 20 22  1  0  0  0  0
 21 46  1  0  0  0  0
 22 33  1  0  0  0  0
 22 23  1  0  0  0  0
 23 47  1  0  0  0  0
 24 29  1  0  0  0  0
 24 25  1  0  0  0  0
 24 48  1  0  0  0  0
 25 26  1  0  0  0  0
 25 49  1  0  0  0  0
 25 50  1  0  0  0  0
 26 27  1  0  0  0  0
 26 51  1  0  0  0  0
 26 52  1  0  0  0  0
 27 28  1  0  0  0  0
 27 53  1  0  0  0  0
 27 54  1  0  0  0  0
 28 29  1  0  0  0  0
 28 55  1  0  0  0  0
 28 56  1  0  0  0  0
 29 57  1  0  0  0  0
 29 58  1  0  0  0  0
M  END
> <s_m_source_file>
AV-unprocessed.smi

> <i_m_source_file_index>
109

> <i_lp_mmshare_version>
43012

> <i_f3d_flags>
0

> <s_epik_input>
W0NIMl0xW0NIMl1bQ0gyXVtDSDJdW0NIMl1bQ0hdMVtDQEhdKFtDSDJdW0NIMl1bT0hdKVtOSF1jKG5bY0hdbjIpYyhjMjMpbltjSF1uM1tDQEBIXTRPW0NASF0oW0NIMl1bT0hdKVtDQEBIXShbT0hdKVtDQEhdNFtPSF0=

> <s_epik_cmdline>
J2VwaWtfcHl0aG9uJywgJy1waCcsICc3LjAnLCAnLXRuJywgJzgnLCAnLW1hJywgJzIwMCcsICctbWV0YWxfYmluZGluZycsICctaW1hZScsICc8aW5maWxlLm1hZT4nLCAnLW9tYWUnLCAnPG91dGZpbGUubWFlPic=

> <r_lp_tautomer_probability>
1

> <r_epik_Ionization_Penalty>
0.000793976

> <r_epik_Ionization_Penalty_Charging>
0

> <r_epik_Ionization_Penalty_Neutral>
0.000793976

> <r_epik_State_Penalty>
-0

> <r_epik_Charging_Adjusted_Penalty>
0

> <i_epik_Tot_Q>
0

> <i_epik_Tot_abs_Q>
0

> <r_epik_Metal_State_Penalty>
-0

> <b_epik_Metal_Only>
0

> <s_epik_Chemistry_Notes>
This compound contains an acetal/aminal-like group ( X-CH(R)-Y where X, Y are N, S, or O) that may be acid/base labile, releasing an aldehyde.

> <s_lp_Force_Field>
OPLS_2005

> <r_lp_Energy>
47.8615

> <b_lp_Chiralities_Consistent>
1

> <s_lp_Variant>
AV-unprocessed.smi:109-10

> <Gold.Version>
5.8.1

> <Gold.Id.Protein>
6NUR|6NUR_protein|mol2

> <Gold.PLP.Fitness>
47.5326

> <Gold.PLP.PLP>
-34.8931

> <Gold.PLP.part.hbond>
-5.7346

> <Gold.PLP.part.metal>
0.0000

> <Gold.PLP.part.buried>
-4.7562

> <Gold.PLP.part.nonpolar>
-25.1814

> <Gold.PLP.part.repulsive>
0.4553

> <Gold.PLP.ligand.clash>
0.0000

> <Gold.PLP.ligand.torsion>
0.9317

> <Gold.PLP.Chemscore.Hbond>
3.7713

> <Gold.PLP.Chemscore.CHOScore>
1.0000

> <Gold.PLP.Chemscore.Metal>
0.0000

> <Gold.Chemscore.Hbonds>
donor molecule, donor type, donor heavy atom, donor atom, acceptor molecule, acceptor atom, score
      L1  H    19    45       P1 10186  0.73
      L1  H    23    47       P1  7921  0.88
      P1  H  6896  6909       L1     1  1.00
      P1  H 10785 10796       L1    19  0.91
      L1  C    13    42       P1 10957  1.00

> <Gold.PLP.Chemscore.Internal.Correction>
0.1892

> <Gold.Rescore>
     Score         DG    S(hbond)    S(metal)    S(lipo)     H(rot)  DE(clash)    DE(int)     intcor
      9.70     -10.90       3.29        0.00      72.04       5.47       0.31       0.90       ----

> <Gold.Chemscore.Fitness>
9.6956

> <Gold.Chemscore.DG>
-10.8960

> <Gold.Chemscore.ZeroCoef>
-5.4800

> <Gold.Chemscore.Hbond>
3.2878

> <Gold.Chemscore.Metal>
0.0000

> <Gold.Chemscore.Lipo>
72.0364

> <Gold.Chemscore.Internal_Hbond>
0.0000

> <Gold.Chemscore.DEClash>
0.3050

> <Gold.Chemscore.DEInternal>
0.8954

> <Gold.Chemscore.Rot>
5.4662

> <Gold.Chemscore.Internal.Correction>
   9.000000E+99

> <Gold.Chemscore.Hbonds>
donor molecule, donor type, donor heavy atom, donor atom, acceptor molecule, acceptor atom, score
      L1  H    19    45       P1 10186  0.73
      L1  H    23    47       P1  7921  0.85
      P1  H  6896  6909       L1     1  0.68
      P1  H 10785 10796       L1    19  0.74

> <Gold.Chemscore.Hbond.Weighted>
-10.9813

> <Gold.Chemscore.Metal.Weighted>
-0.0000

> <Gold.Chemscore.Lipo.Weighted>
-8.4283

> <Gold.Chemscore.Internal_Hbond.Weighted>
0.0000

> <Gold.Chemscore.DEClash.Weighted>
0.3050

> <Gold.Chemscore.DEInternal.Weighted>
0.8954

> <Gold.Chemscore.Rot.Weighted>
13.9935

> <Gold.Chemscore.Internal.Correction.Weighted>
   9.000000E+99

> <Gold.Protein.RotatedTorsions>
[ 6907 6896 6895 6894 ] final   -6.76 input  -60.11 | X-H torsion
[ 7974 7965 7964 7962 ] final   25.16 input  175.53 | X-H torsion
[ 8008 7997 7996 7995 ] final  -88.14 input   59.86 | X-H torsion
[ 10167 10162 10161 10158 ] final   33.39 input  -65.29 | X-H torsion
[ 10718 10713 10712 10709 ] final   -6.50 input   66.30 | X-H torsion
[ 10763 10752 10751 10750 ] final  121.17 input  -60.55 | X-H torsion
[ 11005 11000 10999 10996 ] final  -54.10 input  -57.11 | X-H torsion

> <Gold.Protein.ActiveResidues>
 VAL166  LYS551  ARG553  GLY616  TRP617  ASP618  TYR619  PRO620  LYS621  CYS622 
 ASP623  PHE694  ASN695  SER759  ASP760  ASP761  ALA762  ILE779  LEU786  VAL792 
 PHE793  MET794  SER795  GLU796  ALA797  LYS798  CYS799  TRP800  GLU811  SER814 

> <Gold.Protein.RotatedAtoms>
  151.4604  135.1038  159.9722 H   0  0  0  0  0  0  0  0  0  0  0  0  # atno 6907 bound_to 6896
  152.4855  133.8358  159.7137 H   0  0  0  0  0  0  0  0  0  0  0  0  # atno 6908 bound_to 6896
  150.8961  133.7119  159.2918 H   0  0  0  0  0  0  0  0  0  0  0  0  # atno 6909 bound_to 6896
  146.1902  139.7504  142.8837 H   0  0  0  0  0  0  0  0  0  0  0  0  # atno 7974 bound_to 7965
  154.6713  140.0557  157.0169 H   0  0  0  0  0  0  0  0  0  0  0  0  # atno 8008 bound_to 7997
  155.1084  140.3236  155.4509 H   0  0  0  0  0  0  0  0  0  0  0  0  # atno 8009 bound_to 7997
  156.2658  140.2018  156.6209 H   0  0  0  0  0  0  0  0  0  0  0  0  # atno 8010 bound_to 7997
  140.4411  144.1186  150.6174 H   0  0  0  0  0  0  0  0  0  0  0  0  # atno 10167 bound_to 10162
  156.7310  130.5180  149.5845 H   0  0  0  0  0  0  0  0  0  0  0  0  # atno 10718 bound_to 10713
  153.6099  135.3432  155.2975 H   0  0  0  0  0  0  0  0  0  0  0  0  # atno 10763 bound_to 10752
  154.8620  135.4248  154.2320 H   0  0  0  0  0  0  0  0  0  0  0  0  # atno 10764 bound_to 10752
  153.3169  135.7035  153.7137 H   0  0  0  0  0  0  0  0  0  0  0  0  # atno 10765 bound_to 10752
  141.1009  133.6618  156.4271 H   0  0  0  0  0  0  0  0  0  0  0  0  # atno 11005 bound_to 11000
  145.3815  141.0359  143.3174 LP  0  0  0  0  0  0  0  0  0  0  0  0  # atno 17320 bound_to 7965
  144.8472  139.5377  143.6873 LP  0  0  0  0  0  0  0  0  0  0  0  0  # atno 17321 bound_to 7965
  140.4317  143.2565  151.9587 LP  0  0  0  0  0  0  0  0  0  0  0  0  # atno 17342 bound_to 10162
  139.4789  144.5738  151.8045 LP  0  0  0  0  0  0  0  0  0  0  0  0  # atno 17343 bound_to 10162
  156.1529  130.6322  151.0619 LP  0  0  0  0  0  0  0  0  0  0  0  0  # atno 17370 bound_to 10713
  157.6859  131.0825  150.7244 LP  0  0  0  0  0  0  0  0  0  0  0  0  # atno 17371 bound_to 10713
  140.5024  134.6473  157.5253 LP  0  0  0  0  0  0  0  0  0  0  0  0  # atno 17394 bound_to 11000
  139.9861  134.7060  155.9772 LP  0  0  0  0  0  0  0  0  0  0  0  0  # atno 17395 bound_to 11000

$$$$
