AV-unprocessed.smi:37|AV-procd|sdf|326|dock3
  -GOLD-   2262016153D 1   1.00000     0.00000
 Structure written by MMmdl.
 43 44  0  0  0  0  0  0  0  0  2 V2000
  151.9749  145.1472  159.2909 C   0  0  0  0  0  0  0  0  0  0  0  0
  152.8161  143.8720  159.4369 C   0  0  0  0  0  0  0  0  0  0  0  0
  151.9519  142.6140  159.4768 C   0  0  0  0  0  0  0  0  0  0  0  0
  150.7231  142.6776  159.4331 O   0  0  0  0  0  0  0  0  0  0  0  0
  152.6794  141.4903  159.5669 O   0  0  0  0  0  0  0  0  0  0  0  0
  152.1842  140.2870  159.0048 C   0  0  0  0  0  0  0  0  0  0  0  0
  153.1713  139.1502  159.2991 C   0  0  1  0  0  0  0  0  0  0  0  0
  152.5758  138.1496  160.1168 O   0  0  0  0  0  0  0  0  0  0  0  0
  153.1986  136.9170  159.8925 C   0  0  2  0  0  0  0  0  0  0  0  0
  153.8927  136.4559  161.1545 N   0  0  0  0  0  0  0  0  0  0  0  0
  153.9142  137.2427  162.2947 C   0  0  0  0  0  0  0  0  0  0  0  0
  154.5317  136.8250  163.4186 C   0  0  0  0  0  0  0  0  0  0  0  0
  154.5413  137.6118  164.5085 F   0  0  0  0  0  0  0  0  0  0  0  0
  155.1887  135.5193  163.4410 C   0  0  0  0  0  0  0  0  0  0  0  0
  155.7449  135.1415  164.4710 O   0  0  0  0  0  0  0  0  0  0  0  0
  155.1547  134.7683  162.3020 N   0  5  0  0  0  0  0  0  0  0  0  0
  154.5355  135.1887  161.1603 C   0  0  0  0  0  0  0  0  0  0  0  0
  154.5094  134.5257  160.1231 O   0  0  0  0  0  0  0  0  0  0  0  0
  154.1620  137.0917  158.6981 C   0  0  2  0  0  0  0  0  0  0  0  0
  156.0636  137.3942  159.2383 Br  0  0  0  0  0  0  0  0  0  0  0  0
  153.6439  138.3731  158.0681 C   0  0  1  0  0  0  0  0  0  0  0  0
  152.5411  138.1054  157.2074 O   0  0  0  0  0  0  0  0  0  0  0  0
  152.6005  138.4264  155.9024 C   0  0  0  0  0  0  0  0  0  0  0  0
  153.5362  138.9955  155.3403 O   0  0  0  0  0  0  0  0  0  0  0  0
  151.3545  137.9931  155.1329 C   0  0  0  0  0  0  0  0  0  0  0  0
  150.6569  139.1742  154.4441 C   0  0  0  0  0  0  0  0  0  0  0  0
  152.6144  146.0297  159.2892 H   0  0  0  0  0  0  0  0  0  0  0  0
  151.2696  145.2525  160.1160 H   0  0  0  0  0  0  0  0  0  0  0  0
  151.4078  145.1494  158.3591 H   0  0  0  0  0  0  0  0  0  0  0  0
  153.5188  143.7903  158.6074 H   0  0  0  0  0  0  0  0  0  0  0  0
  153.4093  143.9222  160.3504 H   0  0  0  0  0  0  0  0  0  0  0  0
  151.1961  140.0520  159.4036 H   0  0  0  0  0  0  0  0  0  0  0  0
  152.0824  140.4189  157.9267 H   0  0  0  0  0  0  0  0  0  0  0  0
  154.0457  139.5471  159.8178 H   0  0  0  0  0  0  0  0  0  0  0  0
  152.4070  136.1900  159.7029 H   0  0  0  0  0  0  0  0  0  0  0  0
  153.4401  138.2126  162.2960 H   0  0  0  0  0  0  0  0  0  0  0  0
  154.1326  136.2233  158.0390 H   0  0  0  0  0  0  0  0  0  0  0  0
  154.4223  138.9172  157.5305 H   0  0  0  0  0  0  0  0  0  0  0  0
  151.6415  137.2494  154.3889 H   0  0  0  0  0  0  0  0  0  0  0  0
  150.6671  137.5020  155.8222 H   0  0  0  0  0  0  0  0  0  0  0  0
  149.8025  138.8287  153.8621 H   0  0  0  0  0  0  0  0  0  0  0  0
  151.3331  139.6917  153.7626 H   0  0  0  0  0  0  0  0  0  0  0  0
  150.2889  139.9006  155.1697 H   0  0  0  0  0  0  0  0  0  0  0  0
  1  2  1  0  0  0  0
  1 27  1  0  0  0  0
  1 28  1  0  0  0  0
  1 29  1  0  0  0  0
  2  3  1  0  0  0  0
  2 30  1  0  0  0  0
  2 31  1  0  0  0  0
  3  4  2  0  0  0  0
  3  5  1  0  0  0  0
  5  6  1  0  0  0  0
  6  7  1  0  0  0  0
  6 32  1  0  0  0  0
  6 33  1  0  0  0  0
  7 21  1  0  0  0  0
  7  8  1  0  0  0  0
  7 34  1  0  0  0  0
  8  9  1  0  0  0  0
  9 10  1  0  0  0  0
  9 19  1  0  0  0  0
  9 35  1  0  0  0  0
 10 17  1  0  0  0  0
 10 11  1  0  0  0  0
 11 12  2  0  0  0  0
 11 36  1  0  0  0  0
 12 13  1  0  0  0  0
 12 14  1  0  0  0  0
 14 15  2  0  0  0  0
 14 16  1  0  0  0  0
 16 17  1  0  0  0  0
 17 18  2  0  0  0  0
 19 20  1  0  0  0  0
 19 21  1  0  0  0  0
 19 37  1  0  0  0  0
 21 22  1  0  0  0  0
 21 38  1  0  0  0  0
 22 23  1  0  0  0  0
 23 24  2  0  0  0  0
 23 25  1  0  0  0  0
 25 26  1  0  0  0  0
 25 39  1  0  0  0  0
 25 40  1  0  0  0  0
 26 41  1  0  0  0  0
 26 42  1  0  0  0  0
 26 43  1  0  0  0  0
M  CHG  1  16  -1
M  END
> <s_m_source_file>
AV-unprocessed.smi

> <i_m_source_file_index>
37

> <i_lp_mmshare_version>
43012

> <i_f3d_flags>
0

> <s_epik_input>
W0NIM11bQ0gyXUMoPU8pT1tDSDJdW0NAQEhdMU9bQ0BASF0objJbY0hdYyhGKWMoPU8pW25IXWMyPU8pW0NAQEhdKEJyKVtDQEhdMU9DKD1PKVtDSDJdW0NIM10=

> <s_epik_cmdline>
J2VwaWtfcHl0aG9uJywgJy1waCcsICc3LjAnLCAnLXRuJywgJzgnLCAnLW1hJywgJzIwMCcsICctbWV0YWxfYmluZGluZycsICctaW1hZScsICc8aW5maWxlLm1hZT4nLCAnLW9tYWUnLCAnPG91dGZpbGUubWFlPic=

> <r_epik_Ionization_Penalty>
1.08158

> <r_epik_Ionization_Penalty_Charging>
9.05154e-09

> <r_epik_Ionization_Penalty_Neutral>
1.08158

> <r_epik_State_Penalty>
1.13706

> <r_epik_Charging_Adjusted_Penalty>
1.13706

> <i_epik_Tot_Q>
-1

> <i_epik_Tot_abs_Q>
1

> <r_epik_Metal_State_Penalty>
0.00343535

> <b_epik_Metal_Only>
0

> <s_epik_Chemistry_Notes>
This compound has an ester and may undergo hydrolysis at high or low pH. This compound contains an acetal/aminal-like group ( X-CH(R)-Y where X, Y are N, S, or O) that may be acid/base labile, releasing an aldehyde.

> <s_lp_Force_Field>
OPLS_2005

> <r_lp_Energy>
32.8467

> <b_lp_Chiralities_Consistent>
1

> <s_lp_Variant>
AV-unprocessed.smi:37-24

> <Gold.Version>
5.8.1

> <Gold.Id.Protein>
6NUR|6NUR_protein|mol2

> <Gold.PLP.Fitness>
42.7783

> <Gold.PLP.PLP>
-40.3667

> <Gold.PLP.part.hbond>
-2.8858

> <Gold.PLP.part.metal>
0.0000

> <Gold.PLP.part.buried>
-3.9324

> <Gold.PLP.part.nonpolar>
-33.6473

> <Gold.PLP.part.repulsive>
0.1028

> <Gold.PLP.ligand.clash>
0.0000

> <Gold.PLP.ligand.torsion>
1.8822

> <Gold.PLP.Chemscore.Hbond>
1.9920

> <Gold.PLP.Chemscore.CHOScore>
0.0000

> <Gold.PLP.Chemscore.Metal>
0.0000

> <Gold.Chemscore.Hbonds>
donor molecule, donor type, donor heavy atom, donor atom, acceptor molecule, acceptor atom, score
      P1  H  6896  6909       L1    18  1.00
      P1  H  7997  8008       L1    24  1.00

> <Gold.PLP.Chemscore.Internal.Correction>
0.2002

> <Gold.Rescore>
     Score         DG    S(hbond)    S(metal)    S(lipo)     H(rot)  DE(clash)    DE(int)     intcor
     10.61     -12.78       1.97        0.00      77.61       3.27       0.02       2.16       ----

> <Gold.Chemscore.Fitness>
10.6050

> <Gold.Chemscore.DG>
-12.7841

> <Gold.Chemscore.ZeroCoef>
-5.4800

> <Gold.Chemscore.Hbond>
1.9723

> <Gold.Chemscore.Metal>
0.0000

> <Gold.Chemscore.Lipo>
77.6074

> <Gold.Chemscore.Internal_Hbond>
0.0000

> <Gold.Chemscore.DEClash>
0.0237

> <Gold.Chemscore.DEInternal>
2.1554

> <Gold.Chemscore.Rot>
3.2669

> <Gold.Chemscore.Internal.Correction>
   9.000000E+99

> <Gold.Chemscore.Hbonds>
donor molecule, donor type, donor heavy atom, donor atom, acceptor molecule, acceptor atom, score
      P1  H  6896  6909       L1    18  0.25
      P1  H  7997  8008       L1    24  0.94

> <Gold.Chemscore.Hbond.Weighted>
-6.5874

> <Gold.Chemscore.Metal.Weighted>
-0.0000

> <Gold.Chemscore.Lipo.Weighted>
-9.0801

> <Gold.Chemscore.Internal_Hbond.Weighted>
0.0000

> <Gold.Chemscore.DEClash.Weighted>
0.0237

> <Gold.Chemscore.DEInternal.Weighted>
2.1554

> <Gold.Chemscore.Rot.Weighted>
8.3634

> <Gold.Chemscore.Internal.Correction.Weighted>
   9.000000E+99

> <Gold.Protein.RotatedTorsions>
[ 6907 6896 6895 6894 ] final -157.41 input  -60.11 | X-H torsion
[ 7974 7965 7964 7962 ] final  176.60 input  175.53 | X-H torsion
[ 8008 7997 7996 7995 ] final  -20.67 input   59.86 | X-H torsion
[ 10167 10162 10161 10158 ] final -108.19 input  -65.29 | X-H torsion
[ 10718 10713 10712 10709 ] final  -67.12 input   66.30 | X-H torsion
[ 10763 10752 10751 10750 ] final  152.74 input  -60.55 | X-H torsion
[ 11005 11000 10999 10996 ] final -135.50 input  -57.11 | X-H torsion

> <Gold.Protein.ActiveResidues>
 VAL166  LYS551  ARG553  GLY616  TRP617  ASP618  TYR619  PRO620  LYS621  CYS622 
 ASP623  PHE694  ASN695  SER759  ASP760  ASP761  ALA762  ILE779  LEU786  VAL792 
 PHE793  MET794  SER795  GLU796  ALA797  LYS798  CYS799  TRP800  GLU811  SER814 

> <Gold.Protein.RotatedAtoms>
  151.3024  133.4116  159.2640 H   0  0  0  0  0  0  0  0  0  0  0  0  # atno 6907 bound_to 6896
  151.0184  134.9451  159.8056 H   0  0  0  0  0  0  0  0  0  0  0  0  # atno 6908 bound_to 6896
  152.5318  134.2988  159.9123 H   0  0  0  0  0  0  0  0  0  0  0  0  # atno 6909 bound_to 6896
  144.7181  140.0122  143.6440 H   0  0  0  0  0  0  0  0  0  0  0  0  # atno 7974 bound_to 7965
  154.4754  140.2055  155.9890 H   0  0  0  0  0  0  0  0  0  0  0  0  # atno 8008 bound_to 7997
  156.1081  140.3233  155.8004 H   0  0  0  0  0  0  0  0  0  0  0  0  # atno 8009 bound_to 7997
  155.4683  140.0529  157.2973 H   0  0  0  0  0  0  0  0  0  0  0  0  # atno 8010 bound_to 7997
  140.1688  143.4060  152.1370 H   0  0  0  0  0  0  0  0  0  0  0  0  # atno 10167 bound_to 10162
  156.0575  130.4273  150.1808 H   0  0  0  0  0  0  0  0  0  0  0  0  # atno 10718 bound_to 10713
  154.1249  135.2830  155.3199 H   0  0  0  0  0  0  0  0  0  0  0  0  # atno 10763 bound_to 10752
  154.6397  135.5407  153.7778 H   0  0  0  0  0  0  0  0  0  0  0  0  # atno 10764 bound_to 10752
  153.0300  135.6483  154.1402 H   0  0  0  0  0  0  0  0  0  0  0  0  # atno 10765 bound_to 10752
  140.8892  134.1833  157.4539 H   0  0  0  0  0  0  0  0  0  0  0  0  # atno 11005 bound_to 11000
  146.0249  139.3283  143.0790 LP  0  0  0  0  0  0  0  0  0  0  0  0  # atno 17320 bound_to 7965
  145.8523  140.9522  143.0743 LP  0  0  0  0  0  0  0  0  0  0  0  0  # atno 17321 bound_to 7965
  139.5347  144.7197  151.4933 LP  0  0  0  0  0  0  0  0  0  0  0  0  # atno 17342 bound_to 10162
  140.6595  143.8528  150.6872 LP  0  0  0  0  0  0  0  0  0  0  0  0  # atno 17343 bound_to 10162
  156.9882  130.9885  151.3421 LP  0  0  0  0  0  0  0  0  0  0  0  0  # atno 17370 bound_to 10713
  157.5557  130.8212  149.8201 LP  0  0  0  0  0  0  0  0  0  0  0  0  # atno 17371 bound_to 10713
  139.8728  134.9851  156.5268 LP  0  0  0  0  0  0  0  0  0  0  0  0  # atno 17394 bound_to 11000
  140.8367  133.8236  155.9036 LP  0  0  0  0  0  0  0  0  0  0  0  0  # atno 17395 bound_to 11000

$$$$
