AV-unprocessed.smi:3090|AV-procd|sdf|11777|dock10
  -GOLD-   2272017163D 1   1.00000     0.00000
 Structure written by MMmdl.
 21 21  0  0  0  0  0  0  0  0  1 V2000
  151.5107  142.2785  158.5331 C   0  0  0  0  0  0  0  0  0  0  0  0
  151.1010  141.5411  157.3574 N   0  0  0  0  0  0  0  0  0  0  0  0
  149.9897  141.7315  156.5649 C   0  0  0  0  0  0  0  0  0  0  0  0
  150.0234  140.7890  155.5741 C   0  0  0  0  0  0  0  0  0  0  0  0
  149.0558  140.5551  154.4436 C   0  0  1  0  0  0  0  0  0  0  0  0
  149.5532  141.0941  153.2349 O   0  0  0  0  0  0  0  0  0  0  0  0
  148.8272  139.0485  154.2344 C   0  0  0  0  0  0  0  0  0  0  0  0
  148.1270  138.7462  152.9762 N   0  0  0  0  0  0  0  0  0  0  0  0
  151.2180  140.0648  155.8532 C   0  0  0  0  0  0  0  0  0  0  0  0
  151.8588  140.5154  156.9193 N   0  0  0  0  0  0  0  0  0  0  0  0
  150.7932  143.0711  158.7472 H   0  0  0  0  0  0  0  0  0  0  0  0
  152.4922  142.7236  158.3667 H   0  0  0  0  0  0  0  0  0  0  0  0
  151.5625  141.6062  159.3900 H   0  0  0  0  0  0  0  0  0  0  0  0
  149.2722  142.5131  156.7679 H   0  0  0  0  0  0  0  0  0  0  0  0
  148.1032  141.0405  154.6603 H   0  0  0  0  0  0  0  0  0  0  0  0
  149.4576  140.4446  152.5554 H   0  0  0  0  0  0  0  0  0  0  0  0
  149.7744  138.5098  154.2846 H   0  0  0  0  0  0  0  0  0  0  0  0
  148.2218  138.6700  155.0588 H   0  0  0  0  0  0  0  0  0  0  0  0
  148.4787  139.3351  152.2227 H   0  0  0  0  0  0  0  0  0  0  0  0
  148.2896  137.7788  152.7012 H   0  0  0  0  0  0  0  0  0  0  0  0
  151.6356  139.2277  155.3135 H   0  0  0  0  0  0  0  0  0  0  0  0
  1  2  1  0  0  0  0
  1 11  1  0  0  0  0
  1 12  1  0  0  0  0
  1 13  1  0  0  0  0
  2 10  1  0  0  0  0
  2  3  1  0  0  0  0
  3  4  2  0  0  0  0
  3 14  1  0  0  0  0
  4  5  1  0  0  0  0
  4  9  1  0  0  0  0
  5  6  1  0  0  0  0
  5  7  1  0  0  0  0
  5 15  1  0  0  0  0
  6 16  1  0  0  0  0
  7  8  1  0  0  0  0
  7 17  1  0  0  0  0
  7 18  1  0  0  0  0
  8 19  1  0  0  0  0
  8 20  1  0  0  0  0
  9 10  2  0  0  0  0
  9 21  1  0  0  0  0
M  END
> <s_m_source_file>
AV-unprocessed.smi

> <i_m_source_file_index>
3090

> <i_lp_mmshare_version>
43012

> <i_f3d_flags>
0

> <s_epik_input>
W0NIM11uMVtjSF1jKFtjSF1uMSlbQ0BIXShbT0hdKVtDSDJdW05IMl0=

> <s_epik_cmdline>
J2VwaWtfcHl0aG9uJywgJy1waCcsICc3LjAnLCAnLXRuJywgJzgnLCAnLW1hJywgJzIwMCcsICctbWV0YWxfYmluZGluZycsICctaW1hZScsICc8aW5maWxlLm1hZT4nLCAnLW9tYWUnLCAnPG91dGZpbGUubWFlPic=

> <r_lp_tautomer_probability>
1

> <r_epik_Ionization_Penalty>
2.22426

> <r_epik_Ionization_Penalty_Charging>
0

> <r_epik_Ionization_Penalty_Neutral>
2.22426

> <r_epik_State_Penalty>
2.36938

> <r_epik_Charging_Adjusted_Penalty>
2.36938

> <i_epik_Tot_Q>
0

> <i_epik_Tot_abs_Q>
0

> <r_epik_Metal_State_Penalty>
2.36934

> <b_epik_Metal_Only>
0

> <s_lp_Force_Field>
OPLS_2005

> <r_lp_Energy>
8.04815

> <b_lp_Chiralities_Consistent>
1

> <s_lp_Variant>
AV-unprocessed.smi:3090-4

> <Gold.Version>
5.8.1

> <Gold.Id.Protein>
6NUR|6NUR_protein|mol2

> <Gold.PLP.Fitness>
35.1083

> <Gold.PLP.PLP>
-21.6747

> <Gold.PLP.part.hbond>
-4.2784

> <Gold.PLP.part.metal>
0.0000

> <Gold.PLP.part.buried>
-2.4371

> <Gold.PLP.part.nonpolar>
-14.9750

> <Gold.PLP.part.repulsive>
0.0000

> <Gold.PLP.ligand.clash>
0.0000

> <Gold.PLP.ligand.torsion>
0.5994

> <Gold.PLP.Chemscore.Hbond>
3.8842

> <Gold.PLP.Chemscore.CHOScore>
0.9929

> <Gold.PLP.Chemscore.Metal>
0.0000

> <Gold.Chemscore.Hbonds>
donor molecule, donor type, donor heavy atom, donor atom, acceptor molecule, acceptor atom, score
      L1  H     6    16       P1  7957  0.81
      L1  H     8    19       P1  7957  1.00
      L1  H     8    20       P1  7948  1.00
      P1  H  7989  7998       L1     6  0.09
      P1  H  8011  8017       L1     6  1.00
      L1  C     3    14       P1  8028  1.00

> <Gold.PLP.Chemscore.Internal.Correction>
0.0009

> <Gold.Rescore>
     Score         DG    S(hbond)    S(metal)    S(lipo)     H(rot)  DE(clash)    DE(int)     intcor
     15.92     -16.41       3.33        0.00      40.13       1.90       0.06       0.44       ----

> <Gold.Chemscore.Fitness>
15.9165

> <Gold.Chemscore.DG>
-16.4098

> <Gold.Chemscore.ZeroCoef>
-5.4800

> <Gold.Chemscore.Hbond>
3.3259

> <Gold.Chemscore.Metal>
0.0000

> <Gold.Chemscore.Lipo>
40.1308

> <Gold.Chemscore.Internal_Hbond>
0.0000

> <Gold.Chemscore.DEClash>
0.0563

> <Gold.Chemscore.DEInternal>
0.4370

> <Gold.Chemscore.Rot>
1.9039

> <Gold.Chemscore.Internal.Correction>
   9.000000E+99

> <Gold.Chemscore.Hbonds>
donor molecule, donor type, donor heavy atom, donor atom, acceptor molecule, acceptor atom, score
      L1  H     6    16       P1  7957  0.75
      L1  H     8    19       P1  7957  0.99
      L1  H     8    20       P1  7948  1.00
      P1  H  7989  7998       L1     6  0.01
      P1  H  8011  8017       L1     6  0.25

> <Gold.Chemscore.Hbond.Weighted>
-11.1084

> <Gold.Chemscore.Metal.Weighted>
-0.0000

> <Gold.Chemscore.Lipo.Weighted>
-4.6953

> <Gold.Chemscore.Internal_Hbond.Weighted>
0.0000

> <Gold.Chemscore.DEClash.Weighted>
0.0563

> <Gold.Chemscore.DEInternal.Weighted>
0.4370

> <Gold.Chemscore.Rot.Weighted>
4.8739

> <Gold.Chemscore.Internal.Correction.Weighted>
   9.000000E+99

> <Gold.Protein.RotatedTorsions>
[ 6907 6896 6895 6894 ] final -120.33 input  -60.11 | X-H torsion
[ 7974 7965 7964 7962 ] final  127.68 input  175.53 | X-H torsion
[ 8008 7997 7996 7995 ] final -136.04 input   59.86 | X-H torsion
[ 10167 10162 10161 10158 ] final   41.04 input  -65.29 | X-H torsion
[ 10718 10713 10712 10709 ] final   39.83 input   66.30 | X-H torsion
[ 10763 10752 10751 10750 ] final  -93.30 input  -60.55 | X-H torsion
[ 11005 11000 10999 10996 ] final  -96.67 input  -57.11 | X-H torsion

> <Gold.Protein.ActiveResidues>
 VAL166  LYS551  ARG553  GLY616  TRP617  ASP618  TYR619  PRO620  LYS621  CYS622 
 ASP623  PHE694  ASN695  SER759  ASP760  ASP761  ALA762  ILE779  LEU786  VAL792 
 PHE793  MET794  SER795  GLU796  ALA797  LYS798  CYS799  TRP800  GLU811  SER814 

> <Gold.Protein.RotatedAtoms>
  150.8384  133.7976  159.3070 H   0  0  0  0  0  0  0  0  0  0  0  0  # atno 6907 bound_to 6896
  151.5685  135.1061  159.9999 H   0  0  0  0  0  0  0  0  0  0  0  0  # atno 6908 bound_to 6896
  152.4452  133.7481  159.6734 H   0  0  0  0  0  0  0  0  0  0  0  0  # atno 6909 bound_to 6896
  145.0479  139.3907  143.5069 H   0  0  0  0  0  0  0  0  0  0  0  0  # atno 7974 bound_to 7965
  155.3886  140.0498  157.3041 H   0  0  0  0  0  0  0  0  0  0  0  0  # atno 8008 bound_to 7997
  154.5047  140.2170  155.9237 H   0  0  0  0  0  0  0  0  0  0  0  0  # atno 8009 bound_to 7997
  156.1511  140.3135  155.8654 H   0  0  0  0  0  0  0  0  0  0  0  0  # atno 8010 bound_to 7997
  140.3682  144.2139  150.6134 H   0  0  0  0  0  0  0  0  0  0  0  0  # atno 10167 bound_to 10162
  157.3751  130.7722  149.7149 H   0  0  0  0  0  0  0  0  0  0  0  0  # atno 10718 bound_to 10713
  154.6946  135.5199  153.8439 H   0  0  0  0  0  0  0  0  0  0  0  0  # atno 10763 bound_to 10752
  153.0657  135.6584  154.0369 H   0  0  0  0  0  0  0  0  0  0  0  0  # atno 10764 bound_to 10752
  154.0238  135.2991  155.3357 H   0  0  0  0  0  0  0  0  0  0  0  0  # atno 10765 bound_to 10752
  141.1404  133.8114  157.0602 H   0  0  0  0  0  0  0  0  0  0  0  0  # atno 11005 bound_to 11000
  146.3515  140.0114  142.8667 LP  0  0  0  0  0  0  0  0  0  0  0  0  # atno 17320 bound_to 7965
  145.1564  140.9650  143.4402 LP  0  0  0  0  0  0  0  0  0  0  0  0  # atno 17321 bound_to 7965
  140.5059  143.2304  151.8608 LP  0  0  0  0  0  0  0  0  0  0  0  0  # atno 17342 bound_to 10162
  139.4806  144.5006  151.9066 LP  0  0  0  0  0  0  0  0  0  0  0  0  # atno 17343 bound_to 10162
  155.9763  130.4077  150.3785 LP  0  0  0  0  0  0  0  0  0  0  0  0  # atno 17370 bound_to 10713
  157.1881  131.0408  151.2714 LP  0  0  0  0  0  0  0  0  0  0  0  0  # atno 17371 bound_to 10713
  140.0576  134.9772  157.1248 LP  0  0  0  0  0  0  0  0  0  0  0  0  # atno 17394 bound_to 11000
  140.3896  134.2198  155.7167 LP  0  0  0  0  0  0  0  0  0  0  0  0  # atno 17395 bound_to 11000

$$$$
