AV-unprocessed.smi:686|AV-procd|sdf|3349|dock7
  -GOLD-   22720 0323D 1   1.00000     0.00000
 Structure written by MMmdl.
 40 41  0  0  0  0  0  0  0  0  3 V2000
  150.1463  134.6687  154.8458 C   0  0  0  0  0  0  0  0  0  0  0  0
  148.9203  133.7272  154.9323 C   0  0  2  0  0  0  0  0  0  0  0  0
  148.4205  133.3539  153.5310 C   0  0  0  0  0  0  0  0  0  0  0  0
  147.4875  134.4377  153.1392 N   0  3  1  0  0  0  0  0  0  0  0  0
  146.4796  134.0826  152.0995 C   0  0  0  0  0  0  0  0  0  0  0  0
  145.7373  135.3265  151.5735 C   0  0  0  0  0  0  0  0  0  0  0  0
  145.4552  133.0700  152.6454 C   0  0  0  0  0  0  0  0  0  0  0  0
  146.9374  135.0232  154.3898 C   0  0  0  0  0  0  0  0  0  0  0  0
  147.6432  134.3241  155.5601 C   0  0  2  0  0  0  0  0  0  0  0  0
  147.8949  135.2328  156.6738 N   0  5  0  0  0  0  0  0  0  0  0  0
  147.7637  134.7454  158.2218 S   0  0  0  0  0  0  0  0  0  0  0  0
  146.4846  134.0841  158.5308 O   0  0  0  0  0  0  0  0  0  0  0  0
  148.9837  134.0487  158.6563 O   0  0  0  0  0  0  0  0  0  0  0  0
  147.7613  136.3513  159.1424 C   0  0  0  0  0  0  0  0  0  0  0  0
  147.5683  136.0986  160.6110 C   0  0  0  0  0  0  0  0  0  0  0  0
  147.2326  134.8799  161.2635 C   0  0  0  0  0  0  0  0  0  0  0  0
  147.1923  135.2249  162.5833 C   0  0  0  0  0  0  0  0  0  0  0  0
  147.4866  136.5401  162.7399 O   0  0  0  0  0  0  0  0  0  0  0  0
  147.7284  137.0887  161.4754 N   0  0  0  0  0  0  0  0  0  0  0  0
  149.9269  135.5986  154.3179 H   0  0  0  0  0  0  0  0  0  0  0  0
  150.9631  134.1818  154.3124 H   0  0  0  0  0  0  0  0  0  0  0  0
  150.5328  134.9276  155.8330 H   0  0  0  0  0  0  0  0  0  0  0  0
  149.2221  132.8283  155.4711 H   0  0  0  0  0  0  0  0  0  0  0  0
  149.2358  133.2541  152.8133 H   0  0  0  0  0  0  0  0  0  0  0  0
  147.8946  132.3949  153.5527 H   0  0  0  0  0  0  0  0  0  0  0  0
  147.0059  133.6236  151.2611 H   0  0  0  0  0  0  0  0  0  0  0  0
  144.9693  135.0465  150.8515 H   0  0  0  0  0  0  0  0  0  0  0  0
  146.4067  136.0201  151.0645 H   0  0  0  0  0  0  0  0  0  0  0  0
  145.2462  135.8671  152.3833 H   0  0  0  0  0  0  0  0  0  0  0  0
  144.7082  132.8259  151.8895 H   0  0  0  0  0  0  0  0  0  0  0  0
  144.9275  133.4701  153.5119 H   0  0  0  0  0  0  0  0  0  0  0  0
  145.9199  132.1308  152.9446 H   0  0  0  0  0  0  0  0  0  0  0  0
  147.1346  136.0962  154.3744 H   0  0  0  0  0  0  0  0  0  0  0  0
  145.8585  134.8873  154.4756 H   0  0  0  0  0  0  0  0  0  0  0  0
  147.0079  133.4904  155.8628 H   0  0  0  0  0  0  0  0  0  0  0  0
  148.7109  136.8529  158.9573 H   0  0  0  0  0  0  0  0  0  0  0  0
  146.9673  136.9851  158.7487 H   0  0  0  0  0  0  0  0  0  0  0  0
  147.0437  133.9096  160.8289 H   0  0  0  0  0  0  0  0  0  0  0  0
  146.9818  134.6742  163.4882 H   0  0  0  0  0  0  0  0  0  0  0  0
  148.0709  135.1601  152.7425 H   0  0  0  0  0  0  0  0  0  0  0  0
  1  2  1  0  0  0  0
  1 20  1  0  0  0  0
  1 21  1  0  0  0  0
  1 22  1  0  0  0  0
  2  9  1  0  0  0  0
  2  3  1  0  0  0  0
  2 23  1  0  0  0  0
  3  4  1  0  0  0  0
  3 24  1  0  0  0  0
  3 25  1  0  0  0  0
  4  5  1  0  0  0  0
  4  8  1  0  0  0  0
  4 40  1  0  0  0  0
  5  6  1  0  0  0  0
  5  7  1  0  0  0  0
  5 26  1  0  0  0  0
  6 27  1  0  0  0  0
  6 28  1  0  0  0  0
  6 29  1  0  0  0  0
  7 30  1  0  0  0  0
  7 31  1  0  0  0  0
  7 32  1  0  0  0  0
  8  9  1  0  0  0  0
  8 33  1  0  0  0  0
  8 34  1  0  0  0  0
  9 10  1  0  0  0  0
  9 35  1  0  0  0  0
 10 11  1  0  0  0  0
 11 12  2  0  0  0  0
 11 13  2  0  0  0  0
 11 14  1  0  0  0  0
 14 15  1  0  0  0  0
 14 36  1  0  0  0  0
 14 37  1  0  0  0  0
 15 19  2  0  0  0  0
 15 16  1  0  0  0  0
 16 17  2  0  0  0  0
 16 38  1  0  0  0  0
 17 18  1  0  0  0  0
 17 39  1  0  0  0  0
 18 19  1  0  0  0  0
M  CHG  1   4   1
M  CHG  1  10  -1
M  END
> <s_m_source_file>
AV-unprocessed.smi

> <i_m_source_file_index>
686

> <i_lp_mmshare_version>
43012

> <i_f3d_flags>
0

> <s_epik_input>
W0NIM11bQ0BASF0xW0NIMl1OKFtDSF0oW0NIM10pW0NIM10pW0NIMl1bQ0BIXTFbTkhdUyg9TykoPU8pW0NIMl1jMltjSF1bY0hdb24y

> <s_epik_cmdline>
J2VwaWtfcHl0aG9uJywgJy1waCcsICc3LjAnLCAnLXRuJywgJzgnLCAnLW1hJywgJzIwMCcsICctbWV0YWxfYmluZGluZycsICctaW1hZScsICc8aW5maWxlLm1hZT4nLCAnLW9tYWUnLCAnPG91dGZpbGUubWFlPic=

> <r_epik_Ionization_Penalty>
3.62478

> <r_epik_Ionization_Penalty_Charging>
3.62478

> <r_epik_Ionization_Penalty_Neutral>
2.03645e-10

> <r_epik_State_Penalty>
3.6247

> <r_epik_Charging_Adjusted_Penalty>
7.24949

> <i_epik_Tot_Q>
0

> <i_epik_Tot_abs_Q>
2

> <r_epik_Metal_State_Penalty>
0.530836

> <b_epik_Metal_Only>
1

> <s_lp_Force_Field>
OPLS_2005

> <r_lp_Energy>
21.5589

> <b_lp_Chiralities_Consistent>
1

> <s_lp_Variant>
AV-unprocessed.smi:686-13

> <Gold.Version>
5.8.1

> <Gold.Id.Protein>
6NUR|6NUR_protein|mol2

> <Gold.PLP.Fitness>
41.5647

> <Gold.PLP.PLP>
-28.6751

> <Gold.PLP.part.hbond>
-4.1547

> <Gold.PLP.part.metal>
0.0000

> <Gold.PLP.part.buried>
-4.1831

> <Gold.PLP.part.nonpolar>
-20.5493

> <Gold.PLP.part.repulsive>
0.0000

> <Gold.PLP.ligand.clash>
0.0000

> <Gold.PLP.ligand.torsion>
1.0949

> <Gold.PLP.Chemscore.Hbond>
4.6840

> <Gold.PLP.Chemscore.CHOScore>
0.0000

> <Gold.PLP.Chemscore.Metal>
0.0000

> <Gold.Chemscore.Hbonds>
donor molecule, donor type, donor heavy atom, donor atom, acceptor molecule, acceptor atom, score
      L1  H     4    40       P1  7948  2.00
      P1  H  6896  6909       L1    13  1.00
      P1  H  6931  6943       L1    19  0.95
      P1  H  6934  6947       L1    19  0.70

> <Gold.PLP.Chemscore.Internal.Correction>
1.0274

> <Gold.Rescore>
     Score         DG    S(hbond)    S(metal)    S(lipo)     H(rot)  DE(clash)    DE(int)     intcor
     16.64     -19.28       3.33        0.00      58.07       1.61       0.00       2.64       ----

> <Gold.Chemscore.Fitness>
16.6405

> <Gold.Chemscore.DG>
-19.2776

> <Gold.Chemscore.ZeroCoef>
-5.4800

> <Gold.Chemscore.Hbond>
3.3345

> <Gold.Chemscore.Metal>
0.0000

> <Gold.Chemscore.Lipo>
58.0718

> <Gold.Chemscore.Internal_Hbond>
0.0000

> <Gold.Chemscore.DEClash>
0.0015

> <Gold.Chemscore.DEInternal>
2.6356

> <Gold.Chemscore.Rot>
1.6149

> <Gold.Chemscore.Internal.Correction>
   9.000000E+99

> <Gold.Chemscore.Hbonds>
donor molecule, donor type, donor heavy atom, donor atom, acceptor molecule, acceptor atom, score
      L1  H     4    40       P1  7948  0.96
      P1  H  6896  6909       L1    13  1.00
      P1  H  6931  6943       L1    19  0.21
      P1  H  6934  6947       L1    19  0.64

> <Gold.Chemscore.Hbond.Weighted>
-11.1373

> <Gold.Chemscore.Metal.Weighted>
-0.0000

> <Gold.Chemscore.Lipo.Weighted>
-6.7944

> <Gold.Chemscore.Internal_Hbond.Weighted>
0.0000

> <Gold.Chemscore.DEClash.Weighted>
0.0015

> <Gold.Chemscore.DEInternal.Weighted>
2.6356

> <Gold.Chemscore.Rot.Weighted>
4.1341

> <Gold.Chemscore.Internal.Correction.Weighted>
   9.000000E+99

> <Gold.Protein.RotatedTorsions>
[ 6907 6896 6895 6894 ] final   20.26 input  -60.11 | X-H torsion
[ 7974 7965 7964 7962 ] final   87.83 input  175.53 | X-H torsion
[ 8008 7997 7996 7995 ] final   75.13 input   59.86 | X-H torsion
[ 10167 10162 10161 10158 ] final  159.34 input  -65.29 | X-H torsion
[ 10718 10713 10712 10709 ] final   55.60 input   66.30 | X-H torsion
[ 10763 10752 10751 10750 ] final  -91.08 input  -60.55 | X-H torsion
[ 11005 11000 10999 10996 ] final  -49.57 input  -57.11 | X-H torsion

> <Gold.Protein.ActiveResidues>
 VAL166  LYS551  ARG553  GLY616  TRP617  ASP618  TYR619  PRO620  LYS621  CYS622 
 ASP623  PHE694  ASN695  SER759  ASP760  ASP761  ALA762  ILE779  LEU786  VAL792 
 PHE793  MET794  SER795  GLU796  ALA797  LYS798  CYS799  TRP800  GLU811  SER814 

> <Gold.Protein.RotatedAtoms>
  151.8937  135.0406  160.0499 H   0  0  0  0  0  0  0  0  0  0  0  0  # atno 6907 bound_to 6896
  152.2415  133.5135  159.5281 H   0  0  0  0  0  0  0  0  0  0  0  0  # atno 6908 bound_to 6896
  150.7055  134.0999  159.4004 H   0  0  0  0  0  0  0  0  0  0  0  0  # atno 6909 bound_to 6896
  145.5538  139.2298  143.2498 H   0  0  0  0  0  0  0  0  0  0  0  0  # atno 7974 bound_to 7965
  155.8084  140.3474  155.5443 H   0  0  0  0  0  0  0  0  0  0  0  0  # atno 8008 bound_to 7997
  155.8466  140.0950  157.1721 H   0  0  0  0  0  0  0  0  0  0  0  0  # atno 8009 bound_to 7997
  154.4006  140.1384  156.3780 H   0  0  0  0  0  0  0  0  0  0  0  0  # atno 8010 bound_to 7997
  139.4832  144.4739  151.8539 H   0  0  0  0  0  0  0  0  0  0  0  0  # atno 10167 bound_to 10162
  157.5358  130.8662  149.8752 H   0  0  0  0  0  0  0  0  0  0  0  0  # atno 10718 bound_to 10713
  154.6723  135.5281  153.8155 H   0  0  0  0  0  0  0  0  0  0  0  0  # atno 10763 bound_to 10752
  153.0510  135.6532  154.0705 H   0  0  0  0  0  0  0  0  0  0  0  0  # atno 10764 bound_to 10752
  154.0602  135.2962  155.3306 H   0  0  0  0  0  0  0  0  0  0  0  0  # atno 10765 bound_to 10752
  141.0766  133.6664  156.3604 H   0  0  0  0  0  0  0  0  0  0  0  0  # atno 11005 bound_to 11000
  146.1899  140.6361  142.9150 LP  0  0  0  0  0  0  0  0  0  0  0  0  # atno 17320 bound_to 7965
  144.7516  140.5206  143.6798 LP  0  0  0  0  0  0  0  0  0  0  0  0  # atno 17321 bound_to 7965
  140.4209  144.2244  150.5887 LP  0  0  0  0  0  0  0  0  0  0  0  0  # atno 17342 bound_to 10162
  140.4874  143.2358  151.8868 LP  0  0  0  0  0  0  0  0  0  0  0  0  # atno 17343 bound_to 10162
  156.0458  130.3728  150.1322 LP  0  0  0  0  0  0  0  0  0  0  0  0  # atno 17370 bound_to 10713
  156.9504  130.9773  151.3499 LP  0  0  0  0  0  0  0  0  0  0  0  0  # atno 17371 bound_to 10713
  140.5559  134.5982  157.5420 LP  0  0  0  0  0  0  0  0  0  0  0  0  # atno 17394 bound_to 11000
  139.9579  134.7503  156.0301 LP  0  0  0  0  0  0  0  0  0  0  0  0  # atno 17395 bound_to 11000

$$$$
