AV-unprocessed.smi:1259|AV-procd|sdf|5291|dock1
  -GOLD-   22720 4413D 1   1.00000     0.00000
 Structure written by MMmdl.
 34 35  0  0  0  0  0  0  0  0  1 V2000
  154.0075  141.6822  160.4973 C   0  0  0  0  0  0  0  0  0  0  0  0
  153.0108  142.3431  159.5914 C   0  0  0  0  0  0  0  0  0  0  0  0
  152.2460  141.7488  158.5459 C   0  0  0  0  0  0  0  0  0  0  0  0
  151.5194  142.8044  158.0667 C   0  0  0  0  0  0  0  0  0  0  0  0
  150.6123  142.8286  157.0543 N   0  0  0  0  0  0  0  0  0  0  0  0
  150.2375  141.8290  156.2369 C   0  0  0  0  0  0  0  0  0  0  0  0
  150.6800  140.6804  156.2646 O   0  0  0  0  0  0  0  0  0  0  0  0
  149.3023  142.2412  155.3686 N   0  0  0  0  0  0  0  0  0  0  0  0
  148.6664  141.4095  154.3517 C   0  0  2  0  0  0  0  0  0  0  0  0
  147.3324  142.0553  153.9526 C   0  0  0  0  0  0  0  0  0  0  0  0
  148.4602  139.9697  154.7919 C   0  0  0  0  0  0  0  0  0  0  0  0
  149.4480  138.8858  154.4294 C   0  0  0  0  0  0  0  0  0  0  0  0
  148.0756  138.9004  153.7970 C   0  0  0  0  0  0  0  0  0  0  0  0
  151.8433  143.9317  158.7889 N   0  0  0  0  0  0  0  0  0  0  0  0
  151.3477  145.2878  158.6563 C   0  0  0  0  0  0  0  0  0  0  0  0
  152.7679  143.6416  159.7297 N   0  0  0  0  0  0  0  0  0  0  0  0
  154.0714  140.6123  160.2984 H   0  0  0  0  0  0  0  0  0  0  0  0
  153.7317  141.8083  161.5445 H   0  0  0  0  0  0  0  0  0  0  0  0
  155.0031  142.1049  160.3601 H   0  0  0  0  0  0  0  0  0  0  0  0
  152.2473  140.7198  158.2194 H   0  0  0  0  0  0  0  0  0  0  0  0
  150.1568  143.7172  156.9068 H   0  0  0  0  0  0  0  0  0  0  0  0
  148.9997  143.2028  155.4193 H   0  0  0  0  0  0  0  0  0  0  0  0
  149.3003  141.4035  153.4629 H   0  0  0  0  0  0  0  0  0  0  0  0
  146.8485  141.4939  153.1531 H   0  0  0  0  0  0  0  0  0  0  0  0
  147.4798  143.0744  153.5932 H   0  0  0  0  0  0  0  0  0  0  0  0
  146.6417  142.0948  154.7957 H   0  0  0  0  0  0  0  0  0  0  0  0
  147.9969  139.8796  155.7730 H   0  0  0  0  0  0  0  0  0  0  0  0
  150.2921  139.1556  153.7979 H   0  0  0  0  0  0  0  0  0  0  0  0
  149.6508  138.1222  155.1775 H   0  0  0  0  0  0  0  0  0  0  0  0
  147.3631  138.1450  154.1220 H   0  0  0  0  0  0  0  0  0  0  0  0
  148.0109  139.1820  152.7476 H   0  0  0  0  0  0  0  0  0  0  0  0
  151.8178  145.7649  157.7964 H   0  0  0  0  0  0  0  0  0  0  0  0
  151.5737  145.8667  159.5527 H   0  0  0  0  0  0  0  0  0  0  0  0
  150.2673  145.2754  158.5114 H   0  0  0  0  0  0  0  0  0  0  0  0
  1  2  1  0  0  0  0
  1 17  1  0  0  0  0
  1 18  1  0  0  0  0
  1 19  1  0  0  0  0
  2 16  2  0  0  0  0
  2  3  1  0  0  0  0
  3  4  2  0  0  0  0
  3 20  1  0  0  0  0
  4  5  1  0  0  0  0
  4 14  1  0  0  0  0
  5  6  1  0  0  0  0
  5 21  1  0  0  0  0
  6  7  2  0  0  0  0
  6  8  1  0  0  0  0
  8  9  1  0  0  0  0
  8 22  1  0  0  0  0
  9 10  1  0  0  0  0
  9 11  1  0  0  0  0
  9 23  1  0  0  0  0
 10 24  1  0  0  0  0
 10 25  1  0  0  0  0
 10 26  1  0  0  0  0
 11 13  1  0  0  0  0
 11 12  1  0  0  0  0
 11 27  1  0  0  0  0
 12 13  1  0  0  0  0
 12 28  1  0  0  0  0
 12 29  1  0  0  0  0
 13 30  1  0  0  0  0
 13 31  1  0  0  0  0
 14 15  1  0  0  0  0
 14 16  1  0  0  0  0
 15 32  1  0  0  0  0
 15 33  1  0  0  0  0
 15 34  1  0  0  0  0
M  END
> <s_m_source_file>
AV-unprocessed.smi

> <i_m_source_file_index>
1259

> <i_lp_mmshare_version>
43012

> <i_f3d_flags>
0

> <s_epik_input>
W0NIM11jMVtjSF1jKG4objEpW0NIM10pW05IXUMoPU8pW05IXVtDQEhdKFtDSDNdKVtDSF0yW0NIMl1bQ0gyXTI=

> <s_epik_cmdline>
J2VwaWtfcHl0aG9uJywgJy1waCcsICc3LjAnLCAnLXRuJywgJzgnLCAnLW1hJywgJzIwMCcsICctbWV0YWxfYmluZGluZycsICctaW1hZScsICc8aW5maWxlLm1hZT4nLCAnLW9tYWUnLCAnPG91dGZpbGUubWFlPic=

> <r_lp_tautomer_probability>
1

> <r_epik_Ionization_Penalty>
0.000100032

> <r_epik_Ionization_Penalty_Charging>
0

> <r_epik_Ionization_Penalty_Neutral>
0.000100032

> <r_epik_State_Penalty>
-0

> <r_epik_Charging_Adjusted_Penalty>
0

> <i_epik_Tot_Q>
0

> <i_epik_Tot_abs_Q>
0

> <r_epik_Metal_State_Penalty>
-0

> <b_epik_Metal_Only>
0

> <s_lp_Force_Field>
OPLS_2005

> <r_lp_Energy>
14.2457

> <b_lp_Chiralities_Consistent>
1

> <s_lp_Variant>
AV-unprocessed.smi:1259-1

> <Gold.Version>
5.8.1

> <Gold.Id.Protein>
6NUR|6NUR_protein|mol2

> <Gold.PLP.Fitness>
41.6694

> <Gold.PLP.PLP>
-36.7327

> <Gold.PLP.part.hbond>
-1.9821

> <Gold.PLP.part.metal>
0.0000

> <Gold.PLP.part.buried>
-5.5183

> <Gold.PLP.part.nonpolar>
-29.1740

> <Gold.PLP.part.repulsive>
0.2308

> <Gold.PLP.ligand.clash>
0.0000

> <Gold.PLP.ligand.torsion>
0.9097

> <Gold.PLP.Chemscore.Hbond>
1.8960

> <Gold.PLP.Chemscore.CHOScore>
0.0000

> <Gold.PLP.Chemscore.Metal>
0.0000

> <Gold.Chemscore.Hbonds>
donor molecule, donor type, donor heavy atom, donor atom, acceptor molecule, acceptor atom, score
      L1  H     5    21       P1  8028  0.90
      L1  H     8    22       P1  8028  1.00

> <Gold.PLP.Chemscore.Internal.Correction>
1.0680

> <Gold.Rescore>
     Score         DG    S(hbond)    S(metal)    S(lipo)     H(rot)  DE(clash)    DE(int)     intcor
     12.78     -17.70       1.95        0.00      74.85       1.20       0.24       4.68       ----

> <Gold.Chemscore.Fitness>
12.7779

> <Gold.Chemscore.DG>
-17.6958

> <Gold.Chemscore.ZeroCoef>
-5.4800

> <Gold.Chemscore.Hbond>
1.9545

> <Gold.Chemscore.Metal>
0.0000

> <Gold.Chemscore.Lipo>
74.8486

> <Gold.Chemscore.Internal_Hbond>
0.0000

> <Gold.Chemscore.DEClash>
0.2389

> <Gold.Chemscore.DEInternal>
4.6790

> <Gold.Chemscore.Rot>
1.1990

> <Gold.Chemscore.Internal.Correction>
   9.000000E+99

> <Gold.Chemscore.Hbonds>
donor molecule, donor type, donor heavy atom, donor atom, acceptor molecule, acceptor atom, score
      L1  H     5    21       P1  8028  0.80
      L1  H     8    22       P1  8028  0.93

> <Gold.Chemscore.Hbond.Weighted>
-6.5280

> <Gold.Chemscore.Metal.Weighted>
-0.0000

> <Gold.Chemscore.Lipo.Weighted>
-8.7573

> <Gold.Chemscore.Internal_Hbond.Weighted>
0.0000

> <Gold.Chemscore.DEClash.Weighted>
0.2389

> <Gold.Chemscore.DEInternal.Weighted>
4.6790

> <Gold.Chemscore.Rot.Weighted>
3.0695

> <Gold.Chemscore.Internal.Correction.Weighted>
   9.000000E+99

> <Gold.Protein.RotatedTorsions>
[ 6907 6896 6895 6894 ] final   19.28 input  -60.11 | X-H torsion
[ 7974 7965 7964 7962 ] final   72.95 input  175.53 | X-H torsion
[ 8008 7997 7996 7995 ] final -145.46 input   59.86 | X-H torsion
[ 10167 10162 10161 10158 ] final  -47.10 input  -65.29 | X-H torsion
[ 10718 10713 10712 10709 ] final   47.09 input   66.30 | X-H torsion
[ 10763 10752 10751 10750 ] final   82.55 input  -60.55 | X-H torsion
[ 11005 11000 10999 10996 ] final  118.23 input  -57.11 | X-H torsion

> <Gold.Protein.ActiveResidues>
 VAL166  LYS551  ARG553  GLY616  TRP617  ASP618  TYR619  PRO620  LYS621  CYS622 
 ASP623  PHE694  ASN695  SER759  ASP760  ASP761  ALA762  ILE779  LEU786  VAL792 
 PHE793  MET794  SER795  GLU796  ALA797  LYS798  CYS799  TRP800  GLU811  SER814 

> <Gold.Protein.RotatedAtoms>
  151.8785  135.0462  160.0486 H   0  0  0  0  0  0  0  0  0  0  0  0  # atno 6907 bound_to 6896
  152.2532  133.5228  159.5346 H   0  0  0  0  0  0  0  0  0  0  0  0  # atno 6908 bound_to 6896
  150.7091  134.0848  159.3953 H   0  0  0  0  0  0  0  0  0  0  0  0  # atno 6909 bound_to 6896
  145.7469  139.2744  143.1454 H   0  0  0  0  0  0  0  0  0  0  0  0  # atno 7974 bound_to 7965
  155.5435  140.0610  157.2865 H   0  0  0  0  0  0  0  0  0  0  0  0  # atno 8008 bound_to 7997
  154.4444  140.1915  156.0659 H   0  0  0  0  0  0  0  0  0  0  0  0  # atno 8009 bound_to 7997
  156.0568  140.3277  155.7418 H   0  0  0  0  0  0  0  0  0  0  0  0  # atno 8010 bound_to 7997
  140.6789  143.2800  151.3878 H   0  0  0  0  0  0  0  0  0  0  0  0  # atno 10167 bound_to 10162
  157.4549  130.8161  149.7826 H   0  0  0  0  0  0  0  0  0  0  0  0  # atno 10718 bound_to 10713
  153.1212  135.4724  154.9199 H   0  0  0  0  0  0  0  0  0  0  0  0  # atno 10763 bound_to 10752
  154.7577  135.3123  154.8440 H   0  0  0  0  0  0  0  0  0  0  0  0  # atno 10764 bound_to 10752
  153.9004  135.6875  153.4809 H   0  0  0  0  0  0  0  0  0  0  0  0  # atno 10765 bound_to 10752
  139.9102  134.9618  156.7471 H   0  0  0  0  0  0  0  0  0  0  0  0  # atno 11005 bound_to 11000
  146.0394  140.8180  142.9836 LP  0  0  0  0  0  0  0  0  0  0  0  0  # atno 17320 bound_to 7965
  144.6858  140.2887  143.7281 LP  0  0  0  0  0  0  0  0  0  0  0  0  # atno 17321 bound_to 7965
  139.6099  144.1119  152.2288 LP  0  0  0  0  0  0  0  0  0  0  0  0  # atno 17342 bound_to 10162
  140.0530  144.5917  150.7321 LP  0  0  0  0  0  0  0  0  0  0  0  0  # atno 17343 bound_to 10162
  156.0003  130.3884  150.2633 LP  0  0  0  0  0  0  0  0  0  0  0  0  # atno 17370 bound_to 10713
  157.0807  131.0142  151.3157 LP  0  0  0  0  0  0  0  0  0  0  0  0  # atno 17371 bound_to 10713
  140.6803  133.9480  155.7907 LP  0  0  0  0  0  0  0  0  0  0  0  0  # atno 17394 bound_to 11000
  141.0515  134.0478  157.3778 LP  0  0  0  0  0  0  0  0  0  0  0  0  # atno 17395 bound_to 11000

$$$$
