AV-unprocessed.smi:473|AV-procd|sdf|2664|dock9
  -GOLD-   2262023 83D 1   1.00000     0.00000
 Structure written by MMmdl.
 43 45  0  0  0  0  0  0  0  0  2 V2000
  152.3529  145.2612  160.3027 C   0  0  0  0  0  0  0  0  0  0  0  0
  151.9235  143.9950  159.5813 C   0  0  0  0  0  0  0  0  0  0  0  0
  151.1831  144.1186  158.3837 C   0  0  0  0  0  0  0  0  0  0  0  0
  150.8078  142.9424  157.7453 C   0  0  0  0  0  0  0  0  0  0  0  0
  150.0896  142.7292  156.5664 N   0  3  0  0  0  0  0  0  0  0  0  0
  149.9703  141.3910  156.3422 C   0  0  0  0  0  0  0  0  0  0  0  0
  150.6018  140.7470  157.3606 N   0  0  0  0  0  0  0  0  0  0  0  0
  150.7636  139.3078  157.6099 C   0  0  0  0  0  0  0  0  0  0  0  0
  149.5482  138.6778  158.3228 C   0  0  1  0  0  0  0  0  0  0  0  0
  148.3856  139.4729  158.1991 O   0  0  0  0  0  0  0  0  0  0  0  0
  149.2293  137.2529  157.8417 C   0  0  0  0  0  0  0  0  0  0  0  0
  148.2774  136.6617  158.7108 O   0  0  0  0  0  0  0  0  0  0  0  0
  148.8488  136.1509  159.9036 C   0  0  0  0  0  0  0  0  0  0  0  0
  147.7704  136.0989  160.9397 C   0  0  0  0  0  0  0  0  0  0  0  0
  147.1400  135.0638  161.5738 C   0  0  0  0  0  0  0  0  0  0  0  0
  146.2026  135.6489  162.4695 C   0  0  0  0  0  0  0  0  0  0  0  0
  146.3298  137.0001  162.3180 C   0  0  0  0  0  0  0  0  0  0  0  0
  147.2811  137.2918  161.3902 O   0  0  0  0  0  0  0  0  0  0  0  0
  151.1409  141.6746  158.2597 C   0  0  0  0  0  0  0  0  0  0  0  0
  151.8714  141.5351  159.4377 C   0  0  0  0  0  0  0  0  0  0  0  0
  152.2642  142.7193  160.1007 C   0  0  0  0  0  0  0  0  0  0  0  0
  153.0643  142.5969  161.3867 C   0  0  0  0  0  0  0  0  0  0  0  0
  151.9748  146.1534  159.8026 H   0  0  0  0  0  0  0  0  0  0  0  0
  153.4403  145.3312  160.3349 H   0  0  0  0  0  0  0  0  0  0  0  0
  151.9741  145.2683  161.3251 H   0  0  0  0  0  0  0  0  0  0  0  0
  150.9221  145.0864  157.9812 H   0  0  0  0  0  0  0  0  0  0  0  0
  149.4642  140.9252  155.5087 H   0  0  0  0  0  0  0  0  0  0  0  0
  150.9770  138.8116  156.6631 H   0  0  0  0  0  0  0  0  0  0  0  0
  151.6569  139.1824  158.2229 H   0  0  0  0  0  0  0  0  0  0  0  0
  149.7640  138.6310  159.3909 H   0  0  0  0  0  0  0  0  0  0  0  0
  148.5089  140.0738  157.4806 H   0  0  0  0  0  0  0  0  0  0  0  0
  148.8114  137.2955  156.8346 H   0  0  0  0  0  0  0  0  0  0  0  0
  150.1370  136.6492  157.7901 H   0  0  0  0  0  0  0  0  0  0  0  0
  149.2554  135.1530  159.7343 H   0  0  0  0  0  0  0  0  0  0  0  0
  149.6622  136.7937  160.2428 H   0  0  0  0  0  0  0  0  0  0  0  0
  147.3313  134.0131  161.4126 H   0  0  0  0  0  0  0  0  0  0  0  0
  145.5222  135.1455  163.1403 H   0  0  0  0  0  0  0  0  0  0  0  0
  145.8478  137.8549  162.7691 H   0  0  0  0  0  0  0  0  0  0  0  0
  152.1364  140.5645  159.8312 H   0  0  0  0  0  0  0  0  0  0  0  0
  153.2622  141.5536  161.6357 H   0  0  0  0  0  0  0  0  0  0  0  0
  152.5196  143.0403  162.2205 H   0  0  0  0  0  0  0  0  0  0  0  0
  154.0250  143.1032  161.2907 H   0  0  0  0  0  0  0  0  0  0  0  0
  149.7070  143.4423  155.9585 H   0  0  0  0  0  0  0  0  0  0  0  0
  1  2  1  0  0  0  0
  1 23  1  0  0  0  0
  1 24  1  0  0  0  0
  1 25  1  0  0  0  0
  2 21  1  0  0  0  0
  2  3  2  0  0  0  0
  3  4  1  0  0  0  0
  3 26  1  0  0  0  0
  4 19  2  0  0  0  0
  4  5  1  0  0  0  0
  5  6  2  0  0  0  0
  5 43  1  0  0  0  0
  6  7  1  0  0  0  0
  6 27  1  0  0  0  0
  7  8  1  0  0  0  0
  7 19  1  0  0  0  0
  8  9  1  0  0  0  0
  8 28  1  0  0  0  0
  8 29  1  0  0  0  0
  9 10  1  0  0  0  0
  9 11  1  0  0  0  0
  9 30  1  0  0  0  0
 10 31  1  0  0  0  0
 11 12  1  0  0  0  0
 11 32  1  0  0  0  0
 11 33  1  0  0  0  0
 12 13  1  0  0  0  0
 13 14  1  0  0  0  0
 13 34  1  0  0  0  0
 13 35  1  0  0  0  0
 14 18  1  0  0  0  0
 14 15  2  0  0  0  0
 15 16  1  0  0  0  0
 15 36  1  0  0  0  0
 16 17  2  0  0  0  0
 16 37  1  0  0  0  0
 17 18  1  0  0  0  0
 17 38  1  0  0  0  0
 19 20  1  0  0  0  0
 20 21  2  0  0  0  0
 20 39  1  0  0  0  0
 21 22  1  0  0  0  0
 22 40  1  0  0  0  0
 22 41  1  0  0  0  0
 22 42  1  0  0  0  0
M  CHG  1   5   1
M  END
> <s_m_source_file>
AV-unprocessed.smi

> <i_m_source_file_index>
473

> <i_lp_mmshare_version>
43012

> <i_f3d_flags>
0

> <s_epik_input>
W0NIM11jKFtjSF0xKWMoW0NIM10pW2NIXWMoYzEyKW4oW2NIXW4yKVtDSDJdW0NASF0oW09IXSlbQ0gyXU9bQ0gyXWMzW2NIXVtjSF1bY0hdbzM=

> <s_epik_cmdline>
J2VwaWtfcHl0aG9uJywgJy1waCcsICc3LjAnLCAnLXRuJywgJzgnLCAnLW1hJywgJzIwMCcsICctbWV0YWxfYmluZGluZycsICctaW1hZScsICc8aW5maWxlLm1hZT4nLCAnLW9tYWUnLCAnPG91dGZpbGUubWFlPic=

> <r_epik_Ionization_Penalty>
1.03981

> <r_epik_Ionization_Penalty_Charging>
1.03981

> <r_epik_Ionization_Penalty_Neutral>
9.34185e-07

> <r_epik_State_Penalty>
1.09172

> <r_epik_Charging_Adjusted_Penalty>
2.13153

> <i_epik_Tot_Q>
1

> <i_epik_Tot_abs_Q>
1

> <r_epik_Metal_State_Penalty>
5.0824

> <b_epik_Metal_Only>
0

> <s_lp_Force_Field>
OPLS_2005

> <r_lp_Energy>
14.3304

> <b_lp_Chiralities_Consistent>
1

> <s_lp_Variant>
AV-unprocessed.smi:473-4

> <Gold.Version>
5.8.1

> <Gold.Id.Protein>
6NUR|6NUR_protein|mol2

> <Gold.PLP.Fitness>
55.5067

> <Gold.PLP.PLP>
-46.3656

> <Gold.PLP.part.hbond>
-3.9623

> <Gold.PLP.part.metal>
0.0000

> <Gold.PLP.part.buried>
-6.1953

> <Gold.PLP.part.nonpolar>
-37.5901

> <Gold.PLP.part.repulsive>
0.0659

> <Gold.PLP.ligand.clash>
0.0000

> <Gold.PLP.ligand.torsion>
1.1917

> <Gold.PLP.Chemscore.Hbond>
3.8240

> <Gold.PLP.Chemscore.CHOScore>
0.0000

> <Gold.PLP.Chemscore.Metal>
0.0000

> <Gold.Chemscore.Hbonds>
donor molecule, donor type, donor heavy atom, donor atom, acceptor molecule, acceptor atom, score
      L1  H     5    43       P1  8028  2.00
      P1  H  6931  6943       L1    18  0.76
      P1  H  6934  6947       L1    18  0.98

> <Gold.PLP.Chemscore.Internal.Correction>
0.0525

> <Gold.Rescore>
     Score         DG    S(hbond)    S(metal)    S(lipo)     H(rot)  DE(clash)    DE(int)     intcor
     19.36     -20.98       2.14        0.00     125.75       2.49       0.20       1.41       ----

> <Gold.Chemscore.Fitness>
19.3628

> <Gold.Chemscore.DG>
-20.9755

> <Gold.Chemscore.ZeroCoef>
-5.4800

> <Gold.Chemscore.Hbond>
2.1440

> <Gold.Chemscore.Metal>
0.0000

> <Gold.Chemscore.Lipo>
125.7461

> <Gold.Chemscore.Internal_Hbond>
0.0000

> <Gold.Chemscore.DEClash>
0.2030

> <Gold.Chemscore.DEInternal>
1.4097

> <Gold.Chemscore.Rot>
2.4913

> <Gold.Chemscore.Internal.Correction>
   9.000000E+99

> <Gold.Chemscore.Hbonds>
donor molecule, donor type, donor heavy atom, donor atom, acceptor molecule, acceptor atom, score
      L1  H     5    43       P1  8028  0.92
      P1  H  6931  6943       L1    18  0.21
      P1  H  6934  6947       L1    18  0.69

> <Gold.Chemscore.Hbond.Weighted>
-7.1611

> <Gold.Chemscore.Metal.Weighted>
-0.0000

> <Gold.Chemscore.Lipo.Weighted>
-14.7123

> <Gold.Chemscore.Internal_Hbond.Weighted>
0.0000

> <Gold.Chemscore.DEClash.Weighted>
0.2030

> <Gold.Chemscore.DEInternal.Weighted>
1.4097

> <Gold.Chemscore.Rot.Weighted>
6.3778

> <Gold.Chemscore.Internal.Correction.Weighted>
   9.000000E+99

> <Gold.Protein.RotatedTorsions>
[ 6907 6896 6895 6894 ] final  -18.71 input  -60.11 | X-H torsion
[ 7974 7965 7964 7962 ] final -168.00 input  175.53 | X-H torsion
[ 8008 7997 7996 7995 ] final   53.65 input   59.86 | X-H torsion
[ 10167 10162 10161 10158 ] final -131.14 input  -65.29 | X-H torsion
[ 10718 10713 10712 10709 ] final  161.50 input   66.30 | X-H torsion
[ 10763 10752 10751 10750 ] final -169.91 input  -60.55 | X-H torsion
[ 11005 11000 10999 10996 ] final  -32.39 input  -57.11 | X-H torsion

> <Gold.Protein.ActiveResidues>
 VAL166  LYS551  ARG553  GLY616  TRP617  ASP618  TYR619  PRO620  LYS621  CYS622 
 ASP623  PHE694  ASN695  SER759  ASP760  ASP761  ALA762  ILE779  LEU786  VAL792 
 PHE793  MET794  SER795  GLU796  ALA797  LYS798  CYS799  TRP800  GLU811  SER814 

> <Gold.Protein.RotatedAtoms>
  151.2741  135.0694  159.9144 H   0  0  0  0  0  0  0  0  0  0  0  0  # atno 6907 bound_to 6896
  152.5345  134.0099  159.7944 H   0  0  0  0  0  0  0  0  0  0  0  0  # atno 6908 bound_to 6896
  151.0342  133.5713  159.2688 H   0  0  0  0  0  0  0  0  0  0  0  0  # atno 6909 bound_to 6896
  144.7212  140.2436  143.6288 H   0  0  0  0  0  0  0  0  0  0  0  0  # atno 7974 bound_to 7965
  155.4717  140.3465  155.4326 H   0  0  0  0  0  0  0  0  0  0  0  0  # atno 8008 bound_to 7997
  156.1096  140.1457  156.9385 H   0  0  0  0  0  0  0  0  0  0  0  0  # atno 8009 bound_to 7997
  154.4747  140.0889  156.7212 H   0  0  0  0  0  0  0  0  0  0  0  0  # atno 8010 bound_to 7997
  139.9220  143.6371  152.2551 H   0  0  0  0  0  0  0  0  0  0  0  0  # atno 10167 bound_to 10162
  157.1357  131.0528  151.2350 H   0  0  0  0  0  0  0  0  0  0  0  0  # atno 10718 bound_to 10713
  154.6472  135.2906  155.0031 H   0  0  0  0  0  0  0  0  0  0  0  0  # atno 10763 bound_to 10752
  154.1137  135.6558  153.4893 H   0  0  0  0  0  0  0  0  0  0  0  0  # atno 10764 bound_to 10752
  153.0357  135.5271  154.7365 H   0  0  0  0  0  0  0  0  0  0  0  0  # atno 10765 bound_to 10752
  140.9548  133.7199  156.1276 H   0  0  0  0  0  0  0  0  0  0  0  0  # atno 11005 bound_to 11000
  145.8296  139.2080  143.1890 LP  0  0  0  0  0  0  0  0  0  0  0  0  # atno 17320 bound_to 7965
  146.0442  140.8134  142.9813 LP  0  0  0  0  0  0  0  0  0  0  0  0  # atno 17321 bound_to 7965
  139.6853  144.7652  151.1534 LP  0  0  0  0  0  0  0  0  0  0  0  0  # atno 17342 bound_to 10162
  140.7659  143.5666  150.9041 LP  0  0  0  0  0  0  0  0  0  0  0  0  # atno 17343 bound_to 10162
  157.4352  130.7513  149.7023 LP  0  0  0  0  0  0  0  0  0  0  0  0  # atno 17370 bound_to 10713
  155.9799  130.4035  150.3562 LP  0  0  0  0  0  0  0  0  0  0  0  0  # atno 17371 bound_to 10713
  140.7551  134.4001  157.5535 LP  0  0  0  0  0  0  0  0  0  0  0  0  # atno 17394 bound_to 11000
  139.8859  134.8925  156.2618 LP  0  0  0  0  0  0  0  0  0  0  0  0  # atno 17395 bound_to 11000

$$$$
