AV-unprocessed.smi:2822|AV-procd|sdf|10876|dock8
  -GOLD-   2272015313D 1   1.00000     0.00000
 Structure written by MMmdl.
 40 42  0  0  0  0  0  0  0  0  2 V2000
  149.2678  137.7572  154.6093 Cl  0  0  0  0  0  0  0  0  0  0  0  0
  148.4615  139.2580  154.3137 C   0  0  0  0  0  0  0  0  0  0  0  0
  147.1678  139.2455  153.7527 C   0  0  0  0  0  0  0  0  0  0  0  0
  146.5231  140.4073  153.5143 N   0  3  0  0  0  0  0  0  0  0  0  0
  147.0649  141.6118  153.7923 C   0  0  0  0  0  0  0  0  0  0  0  0
  148.3552  141.6894  154.3547 C   0  0  0  0  0  0  0  0  0  0  0  0
  149.0744  140.4976  154.6230 C   0  0  0  0  0  0  0  0  0  0  0  0
  150.3609  140.5084  155.1830 N   0  0  0  0  0  0  0  0  0  0  0  0
  150.8640  141.6748  155.8928 C   0  0  0  0  0  0  0  0  0  0  0  0
  151.1838  141.3465  157.3571 C   0  0  2  0  0  0  0  0  0  0  0  0
  151.4742  142.6173  158.1768 C   0  0  0  0  0  0  0  0  0  0  0  0
  151.8462  142.3034  159.5503 N   0  0  0  0  0  0  0  0  0  0  0  0
  152.1213  143.5169  160.3177 C   0  0  0  0  0  0  0  0  0  0  0  0
  152.4821  143.2155  161.7808 C   0  0  0  0  0  0  0  0  0  0  0  0
  153.6807  142.2583  161.8489 C   0  0  0  0  0  0  0  0  0  0  0  0
  153.4095  141.0095  160.9956 C   0  0  0  0  0  0  0  0  0  0  0  0
  153.0005  141.3994  159.5600 C   0  0  1  0  0  0  0  0  0  0  0  0
  152.7198  140.1413  158.7127 C   0  0  0  0  0  0  0  0  0  0  0  0
  152.3433  140.5183  157.3921 O   0  0  0  0  0  0  0  0  0  0  0  0
  146.6325  138.3449  153.4891 H   0  0  0  0  0  0  0  0  0  0  0  0
  146.4546  142.4722  153.5595 H   0  0  0  0  0  0  0  0  0  0  0  0
  148.7708  142.6617  154.5729 H   0  0  0  0  0  0  0  0  0  0  0  0
  151.0199  139.7881  154.9213 H   0  0  0  0  0  0  0  0  0  0  0  0
  151.7523  142.0613  155.3914 H   0  0  0  0  0  0  0  0  0  0  0  0
  150.1031  142.4552  155.8562 H   0  0  0  0  0  0  0  0  0  0  0  0
  150.3410  140.8143  157.8027 H   0  0  0  0  0  0  0  0  0  0  0  0
  152.2751  143.1832  157.6979 H   0  0  0  0  0  0  0  0  0  0  0  0
  150.5935  143.2607  158.1738 H   0  0  0  0  0  0  0  0  0  0  0  0
  152.9354  144.0738  159.8511 H   0  0  0  0  0  0  0  0  0  0  0  0
  151.2480  144.1698  160.2945 H   0  0  0  0  0  0  0  0  0  0  0  0
  152.7096  144.1409  162.3103 H   0  0  0  0  0  0  0  0  0  0  0  0
  151.6241  142.7692  162.2854 H   0  0  0  0  0  0  0  0  0  0  0  0
  154.5742  142.7647  161.4816 H   0  0  0  0  0  0  0  0  0  0  0  0
  153.8830  141.9757  162.8823 H   0  0  0  0  0  0  0  0  0  0  0  0
  154.2977  140.3771  160.9766 H   0  0  0  0  0  0  0  0  0  0  0  0
  152.6170  140.4187  161.4572 H   0  0  0  0  0  0  0  0  0  0  0  0
  153.8470  141.9167  159.1044 H   0  0  0  0  0  0  0  0  0  0  0  0
  153.6087  139.5124  158.6573 H   0  0  0  0  0  0  0  0  0  0  0  0
  151.9288  139.5376  159.1607 H   0  0  0  0  0  0  0  0  0  0  0  0
  145.5877  140.3730  153.1077 H   0  0  0  0  0  0  0  0  0  0  0  0
  1  2  1  0  0  0  0
  2  7  1  0  0  0  0
  2  3  2  0  0  0  0
  3  4  1  0  0  0  0
  3 20  1  0  0  0  0
  4  5  2  0  0  0  0
  4 40  1  0  0  0  0
  5  6  1  0  0  0  0
  5 21  1  0  0  0  0
  6  7  2  0  0  0  0
  6 22  1  0  0  0  0
  7  8  1  0  0  0  0
  8  9  1  0  0  0  0
  8 23  1  0  0  0  0
  9 10  1  0  0  0  0
  9 24  1  0  0  0  0
  9 25  1  0  0  0  0
 10 19  1  0  0  0  0
 10 11  1  0  0  0  0
 10 26  1  0  0  0  0
 11 12  1  0  0  0  0
 11 27  1  0  0  0  0
 11 28  1  0  0  0  0
 12 17  1  0  0  0  0
 12 13  1  0  0  0  0
 13 14  1  0  0  0  0
 13 29  1  0  0  0  0
 13 30  1  0  0  0  0
 14 15  1  0  0  0  0
 14 31  1  0  0  0  0
 14 32  1  0  0  0  0
 15 16  1  0  0  0  0
 15 33  1  0  0  0  0
 15 34  1  0  0  0  0
 16 17  1  0  0  0  0
 16 35  1  0  0  0  0
 16 36  1  0  0  0  0
 17 18  1  0  0  0  0
 17 37  1  0  0  0  0
 18 19  1  0  0  0  0
 18 38  1  0  0  0  0
 18 39  1  0  0  0  0
M  CHG  1   4   1
M  END
> <s_m_source_file>
AV-unprocessed.smi

> <i_m_source_file_index>
2822

> <i_lp_mmshare_version>
43012

> <i_f3d_flags>
0

> <s_epik_input>
Q2xjMVtjSF1uW2NIXVtjSF1jMVtOSF1bQ0gyXVtDQEhdKFtDSDJdMilPW0NIMl1bQ0BASF0oTjIzKVtDSDJdW0NIMl1bQ0gyXVtDSDJdMw==

> <s_epik_cmdline>
J2VwaWtfcHl0aG9uJywgJy1waCcsICc3LjAnLCAnLXRuJywgJzgnLCAnLW1hJywgJzIwMCcsICctbWV0YWxfYmluZGluZycsICctaW1hZScsICc8aW5maWxlLm1hZT4nLCAnLW9tYWUnLCAnPG91dGZpbGUubWFlPic=

> <r_epik_Ionization_Penalty>
1.37653

> <r_epik_Ionization_Penalty_Charging>
0.152973

> <r_epik_Ionization_Penalty_Neutral>
1.22356

> <r_epik_State_Penalty>
1.42693

> <r_epik_Charging_Adjusted_Penalty>
1.5799

> <i_epik_Tot_Q>
1

> <i_epik_Tot_abs_Q>
1

> <r_epik_Metal_State_Penalty>
4.59822

> <b_epik_Metal_Only>
0

> <s_lp_Force_Field>
OPLS_2005

> <r_lp_Energy>
43.1836

> <b_lp_Chiralities_Consistent>
1

> <s_lp_Variant>
AV-unprocessed.smi:2822-17

> <Gold.Version>
5.8.1

> <Gold.Id.Protein>
6NUR|6NUR_protein|mol2

> <Gold.PLP.Fitness>
46.0113

> <Gold.PLP.PLP>
-39.3028

> <Gold.PLP.part.hbond>
-1.7216

> <Gold.PLP.part.metal>
0.0000

> <Gold.PLP.part.buried>
-4.1187

> <Gold.PLP.part.nonpolar>
-31.9046

> <Gold.PLP.part.repulsive>
0.5074

> <Gold.PLP.ligand.clash>
0.0000

> <Gold.PLP.ligand.torsion>
0.1399

> <Gold.PLP.Chemscore.Hbond>
2.3290

> <Gold.PLP.Chemscore.CHOScore>
0.0000

> <Gold.PLP.Chemscore.Metal>
0.0000

> <Gold.Chemscore.Hbonds>
donor molecule, donor type, donor heavy atom, donor atom, acceptor molecule, acceptor atom, score
      L1  H     4    40       P1 10175  2.00
      P1  H  7997  8009       L1    19  0.28

> <Gold.PLP.Chemscore.Internal.Correction>
0.0011

> <Gold.Rescore>
     Score         DG    S(hbond)    S(metal)    S(lipo)     H(rot)  DE(clash)    DE(int)     intcor
     19.40     -19.75       0.98        0.00     119.78       1.18       0.22       0.14       ----

> <Gold.Chemscore.Fitness>
19.4011

> <Gold.Chemscore.DG>
-19.7549

> <Gold.Chemscore.ZeroCoef>
-5.4800

> <Gold.Chemscore.Hbond>
0.9817

> <Gold.Chemscore.Metal>
0.0000

> <Gold.Chemscore.Lipo>
119.7750

> <Gold.Chemscore.Internal_Hbond>
0.0000

> <Gold.Chemscore.DEClash>
0.2179

> <Gold.Chemscore.DEInternal>
0.1359

> <Gold.Chemscore.Rot>
1.1788

> <Gold.Chemscore.Internal.Correction>
   9.000000E+99

> <Gold.Chemscore.Hbonds>
donor molecule, donor type, donor heavy atom, donor atom, acceptor molecule, acceptor atom, score
      L1  H     4    40       P1 10175  0.90
      P1  H  7997  8009       L1    19  0.02

> <Gold.Chemscore.Hbond.Weighted>
-3.2789

> <Gold.Chemscore.Metal.Weighted>
-0.0000

> <Gold.Chemscore.Lipo.Weighted>
-14.0137

> <Gold.Chemscore.Internal_Hbond.Weighted>
0.0000

> <Gold.Chemscore.DEClash.Weighted>
0.2179

> <Gold.Chemscore.DEInternal.Weighted>
0.1359

> <Gold.Chemscore.Rot.Weighted>
3.0177

> <Gold.Chemscore.Internal.Correction.Weighted>
   9.000000E+99

> <Gold.Protein.RotatedTorsions>
[ 6907 6896 6895 6894 ] final  123.09 input  -60.11 | X-H torsion
[ 7974 7965 7964 7962 ] final  -78.58 input  175.53 | X-H torsion
[ 8008 7997 7996 7995 ] final -179.75 input   59.86 | X-H torsion
[ 10167 10162 10161 10158 ] final  -43.06 input  -65.29 | X-H torsion
[ 10718 10713 10712 10709 ] final  -18.76 input   66.30 | X-H torsion
[ 10763 10752 10751 10750 ] final  -51.67 input  -60.55 | X-H torsion
[ 11005 11000 10999 10996 ] final -120.50 input  -57.11 | X-H torsion

> <Gold.Protein.ActiveResidues>
 VAL166  LYS551  ARG553  GLY616  TRP617  ASP618  TYR619  PRO620  LYS621  CYS622 
 ASP623  PHE694  ASN695  SER759  ASP760  ASP761  ALA762  ILE779  LEU786  VAL792 
 PHE793  MET794  SER795  GLU796  ALA797  LYS798  CYS799  TRP800  GLU811  SER814 

> <Gold.Protein.RotatedAtoms>
  152.4190  133.7085  159.6464 H   0  0  0  0  0  0  0  0  0  0  0  0  # atno 6907 bound_to 6896
  150.8067  133.8487  159.3208 H   0  0  0  0  0  0  0  0  0  0  0  0  # atno 6908 bound_to 6896
  151.6209  135.1034  160.0153 H   0  0  0  0  0  0  0  0  0  0  0  0  # atno 6909 bound_to 6896
  145.5846  140.9442  143.1325 H   0  0  0  0  0  0  0  0  0  0  0  0  # atno 7974 bound_to 7965
  156.0342  140.1289  157.0226 H   0  0  0  0  0  0  0  0  0  0  0  0  # atno 8008 bound_to 7997
  154.4362  140.1043  156.6213 H   0  0  0  0  0  0  0  0  0  0  0  0  # atno 8009 bound_to 7997
  155.5763  140.3467  155.4530 H   0  0  0  0  0  0  0  0  0  0  0  0  # atno 8010 bound_to 7997
  140.6947  143.3003  151.3298 H   0  0  0  0  0  0  0  0  0  0  0  0  # atno 10167 bound_to 10162
  156.5550  130.4711  149.6434 H   0  0  0  0  0  0  0  0  0  0  0  0  # atno 10718 bound_to 10713
  154.1304  135.6521  153.4921 H   0  0  0  0  0  0  0  0  0  0  0  0  # atno 10763 bound_to 10752
  153.0197  135.5291  154.7007 H   0  0  0  0  0  0  0  0  0  0  0  0  # atno 10764 bound_to 10752
  154.6240  135.2968  155.0264 H   0  0  0  0  0  0  0  0  0  0  0  0  # atno 10765 bound_to 10752
  141.0139  134.0225  157.3377 H   0  0  0  0  0  0  0  0  0  0  0  0  # atno 11005 bound_to 11000
  144.7378  139.7534  143.7322 LP  0  0  0  0  0  0  0  0  0  0  0  0  # atno 17320 bound_to 7965
  146.1691  139.4835  142.9939 LP  0  0  0  0  0  0  0  0  0  0  0  0  # atno 17321 bound_to 7965
  139.6389  144.0578  152.2538 LP  0  0  0  0  0  0  0  0  0  0  0  0  # atno 17342 bound_to 10162
  140.0076  144.6247  150.7675 LP  0  0  0  0  0  0  0  0  0  0  0  0  # atno 17343 bound_to 10162
  156.2850  130.7092  151.1926 LP  0  0  0  0  0  0  0  0  0  0  0  0  # atno 17370 bound_to 10713
  157.7380  131.0546  150.5322 LP  0  0  0  0  0  0  0  0  0  0  0  0  # atno 17371 bound_to 10713
  139.9105  135.0189  156.7672 LP  0  0  0  0  0  0  0  0  0  0  0  0  # atno 17394 bound_to 11000
  140.6688  133.9578  155.7845 LP  0  0  0  0  0  0  0  0  0  0  0  0  # atno 17395 bound_to 11000

$$$$
