AV-unprocessed.smi:3039|AV-procd|sdf|11593|dock2
  -GOLD-   2272016573D 1   1.00000     0.00000
 Structure written by MMmdl.
 38 39  0  0  0  0  0  0  0  0  1 V2000
  152.5440  139.5509  157.2909 O   0  0  0  0  0  0  0  0  0  0  0  0
  151.4762  140.0742  157.6086 C   0  0  0  0  0  0  0  0  0  0  0  0
  150.1556  139.4870  157.1101 C   0  0  0  0  0  0  0  0  0  0  0  0
  150.3511  138.0567  156.6810 C   0  0  0  0  0  0  0  0  0  0  0  0
  149.6348  136.8998  157.1001 C   0  0  0  0  0  0  0  0  0  0  0  0
  150.2247  135.8875  156.3997 C   0  0  0  0  0  0  0  0  0  0  0  0
  151.2163  136.3712  155.6098 O   0  0  0  0  0  0  0  0  0  0  0  0
  151.2883  137.7564  155.7947 N   0  0  0  0  0  0  0  0  0  0  0  0
  151.3858  141.1620  158.3899 N   0  0  0  0  0  0  0  0  0  0  0  0
  152.5043  141.8872  158.9893 C   0  0  2  0  0  0  0  0  0  0  0  0
  152.8745  141.2081  160.3291 C   0  0  0  0  0  0  0  0  0  0  0  0
  153.7539  142.0326  161.2826 C   0  0  0  0  0  0  0  0  0  0  0  0
  152.9265  142.9399  162.2097 C   0  0  0  0  0  0  0  0  0  0  0  0
  152.3042  144.1679  161.5285 C   0  0  0  0  0  0  0  0  0  0  0  0
  151.4149  143.8608  160.3090 C   0  0  0  0  0  0  0  0  0  0  0  0
  152.2204  143.4160  159.0661 C   0  0  2  0  0  0  0  0  0  0  0  0
  151.6597  144.0198  157.7544 C   0  0  0  0  0  0  0  0  0  0  0  0
  150.4748  143.3838  157.3144 O   0  0  0  0  0  0  0  0  0  0  0  0
  149.4094  139.5470  157.9035 H   0  0  0  0  0  0  0  0  0  0  0  0
  149.7789  140.0952  156.2862 H   0  0  0  0  0  0  0  0  0  0  0  0
  148.8213  136.8245  157.8067 H   0  0  0  0  0  0  0  0  0  0  0  0
  150.0596  134.8211  156.3554 H   0  0  0  0  0  0  0  0  0  0  0  0
  150.4634  141.5257  158.5827 H   0  0  0  0  0  0  0  0  0  0  0  0
  153.3609  141.7795  158.3207 H   0  0  0  0  0  0  0  0  0  0  0  0
  151.9702  140.9014  160.8573 H   0  0  0  0  0  0  0  0  0  0  0  0
  153.3956  140.2775  160.0999 H   0  0  0  0  0  0  0  0  0  0  0  0
  154.3068  141.3361  161.9139 H   0  0  0  0  0  0  0  0  0  0  0  0
  154.5083  142.6002  160.7368 H   0  0  0  0  0  0  0  0  0  0  0  0
  152.1432  142.3546  162.6927 H   0  0  0  0  0  0  0  0  0  0  0  0
  153.5694  143.2903  163.0180 H   0  0  0  0  0  0  0  0  0  0  0  0
  151.7043  144.6967  162.2700 H   0  0  0  0  0  0  0  0  0  0  0  0
  153.0921  144.8658  161.2424 H   0  0  0  0  0  0  0  0  0  0  0  0
  150.6453  143.1294  160.5581 H   0  0  0  0  0  0  0  0  0  0  0  0
  150.8787  144.7806  160.0727 H   0  0  0  0  0  0  0  0  0  0  0  0
  153.2024  143.8820  159.1572 H   0  0  0  0  0  0  0  0  0  0  0  0
  151.4323  145.0760  157.9028 H   0  0  0  0  0  0  0  0  0  0  0  0
  152.4071  143.9718  156.9617 H   0  0  0  0  0  0  0  0  0  0  0  0
  150.0045  143.9811  156.7528 H   0  0  0  0  0  0  0  0  0  0  0  0
  1  2  2  0  0  0  0
  2  3  1  0  0  0  0
  2  9  1  0  0  0  0
  3  4  1  0  0  0  0
  3 19  1  0  0  0  0
  3 20  1  0  0  0  0
  4  8  2  0  0  0  0
  4  5  1  0  0  0  0
  5  6  2  0  0  0  0
  5 21  1  0  0  0  0
  6  7  1  0  0  0  0
  6 22  1  0  0  0  0
  7  8  1  0  0  0  0
  9 10  1  0  0  0  0
  9 23  1  0  0  0  0
 10 16  1  0  0  0  0
 10 11  1  0  0  0  0
 10 24  1  0  0  0  0
 11 12  1  0  0  0  0
 11 25  1  0  0  0  0
 11 26  1  0  0  0  0
 12 13  1  0  0  0  0
 12 27  1  0  0  0  0
 12 28  1  0  0  0  0
 13 14  1  0  0  0  0
 13 29  1  0  0  0  0
 13 30  1  0  0  0  0
 14 15  1  0  0  0  0
 14 31  1  0  0  0  0
 14 32  1  0  0  0  0
 15 16  1  0  0  0  0
 15 33  1  0  0  0  0
 15 34  1  0  0  0  0
 16 17  1  0  0  0  0
 16 35  1  0  0  0  0
 17 18  1  0  0  0  0
 17 36  1  0  0  0  0
 17 37  1  0  0  0  0
 18 38  1  0  0  0  0
M  END
> <s_m_source_file>
AV-unprocessed.smi

> <i_m_source_file_index>
3039

> <i_lp_mmshare_version>
43012

> <i_f3d_flags>
0

> <s_epik_input>
bjFvW2NIXVtjSF1jMVtDSDJdQyg9TylbTkhdW0NAQEhdMltDSDJdW0NIMl1bQ0gyXVtDSDJdW0NIMl1bQ0BIXTJbQ0gyXVtPSF0=

> <s_epik_cmdline>
J2VwaWtfcHl0aG9uJywgJy1waCcsICc3LjAnLCAnLXRuJywgJzgnLCAnLW1hJywgJzIwMCcsICctbWV0YWxfYmluZGluZycsICctaW1hZScsICc8aW5maWxlLm1hZT4nLCAnLW9tYWUnLCAnPG91dGZpbGUubWFlPic=

> <r_lp_tautomer_probability>
1

> <r_epik_Ionization_Penalty>
3.05817e-07

> <r_epik_Ionization_Penalty_Charging>
0

> <r_epik_Ionization_Penalty_Neutral>
3.05817e-07

> <r_epik_State_Penalty>
-0

> <r_epik_Charging_Adjusted_Penalty>
0

> <i_epik_Tot_Q>
0

> <i_epik_Tot_abs_Q>
0

> <r_epik_Metal_State_Penalty>
-0

> <b_epik_Metal_Only>
0

> <s_lp_Force_Field>
OPLS_2005

> <r_lp_Energy>
21.1275

> <b_lp_Chiralities_Consistent>
1

> <s_lp_Variant>
AV-unprocessed.smi:3039-3

> <Gold.Version>
5.8.1

> <Gold.Id.Protein>
6NUR|6NUR_protein|mol2

> <Gold.PLP.Fitness>
46.5892

> <Gold.PLP.PLP>
-39.1475

> <Gold.PLP.part.hbond>
-3.0000

> <Gold.PLP.part.metal>
0.0000

> <Gold.PLP.part.buried>
-4.9641

> <Gold.PLP.part.nonpolar>
-30.8599

> <Gold.PLP.part.repulsive>
0.2480

> <Gold.PLP.ligand.clash>
0.0000

> <Gold.PLP.ligand.torsion>
0.7378

> <Gold.PLP.Chemscore.Hbond>
2.9440

> <Gold.PLP.Chemscore.CHOScore>
0.0000

> <Gold.PLP.Chemscore.Metal>
0.0000

> <Gold.Chemscore.Hbonds>
donor molecule, donor type, donor heavy atom, donor atom, acceptor molecule, acceptor atom, score
      L1  H    18    38       P1  8028  1.00
      P1  H  7997  8010       L1     1  1.00
      P1  H 10752 10763       L1     7  0.78

> <Gold.PLP.Chemscore.Internal.Correction>
0.0853

> <Gold.Rescore>
     Score         DG    S(hbond)    S(metal)    S(lipo)     H(rot)  DE(clash)    DE(int)     intcor
     17.89     -21.53       2.89        0.00     104.03       2.26       0.00       3.63       ----

> <Gold.Chemscore.Fitness>
17.8929

> <Gold.Chemscore.DG>
-21.5263

> <Gold.Chemscore.ZeroCoef>
-5.4800

> <Gold.Chemscore.Hbond>
2.8937

> <Gold.Chemscore.Metal>
0.0000

> <Gold.Chemscore.Lipo>
104.0263

> <Gold.Chemscore.Internal_Hbond>
0.0000

> <Gold.Chemscore.DEClash>
0.0021

> <Gold.Chemscore.DEInternal>
3.6313

> <Gold.Chemscore.Rot>
2.2616

> <Gold.Chemscore.Internal.Correction>
   9.000000E+99

> <Gold.Chemscore.Hbonds>
donor molecule, donor type, donor heavy atom, donor atom, acceptor molecule, acceptor atom, score
      L1  H    18    38       P1  8028  0.99
      P1  H  7997  8010       L1     1  0.95
      P1  H 10752 10763       L1     7  0.65

> <Gold.Chemscore.Hbond.Weighted>
-9.6649

> <Gold.Chemscore.Metal.Weighted>
-0.0000

> <Gold.Chemscore.Lipo.Weighted>
-12.1711

> <Gold.Chemscore.Internal_Hbond.Weighted>
0.0000

> <Gold.Chemscore.DEClash.Weighted>
0.0021

> <Gold.Chemscore.DEInternal.Weighted>
3.6313

> <Gold.Chemscore.Rot.Weighted>
5.7896

> <Gold.Chemscore.Internal.Correction.Weighted>
   9.000000E+99

> <Gold.Protein.RotatedTorsions>
[ 6907 6896 6895 6894 ] final   41.90 input  -60.11 | X-H torsion
[ 7974 7965 7964 7962 ] final  -81.56 input  175.53 | X-H torsion
[ 8008 7997 7996 7995 ] final   56.52 input   59.86 | X-H torsion
[ 10167 10162 10161 10158 ] final -149.16 input  -65.29 | X-H torsion
[ 10718 10713 10712 10709 ] final -113.53 input   66.30 | X-H torsion
[ 10763 10752 10751 10750 ] final   72.40 input  -60.55 | X-H torsion
[ 11005 11000 10999 10996 ] final -155.85 input  -57.11 | X-H torsion

> <Gold.Protein.ActiveResidues>
 VAL166  LYS551  ARG553  GLY616  TRP617  ASP618  TYR619  PRO620  LYS621  CYS622 
 ASP623  PHE694  ASN695  SER759  ASP760  ASP761  ALA762  ILE779  LEU786  VAL792 
 PHE793  MET794  SER795  GLU796  ALA797  LYS798  CYS799  TRP800  GLU811  SER814 

> <Gold.Protein.RotatedAtoms>
  152.2011  134.8587  160.0507 H   0  0  0  0  0  0  0  0  0  0  0  0  # atno 6907 bound_to 6896
  151.9440  133.3641  159.3984 H   0  0  0  0  0  0  0  0  0  0  0  0  # atno 6908 bound_to 6896
  150.6955  134.4334  159.5302 H   0  0  0  0  0  0  0  0  0  0  0  0  # atno 6909 bound_to 6896
  145.5450  140.9504  143.1530 H   0  0  0  0  0  0  0  0  0  0  0  0  # atno 7974 bound_to 7965
  155.5188  140.3479  155.4403 H   0  0  0  0  0  0  0  0  0  0  0  0  # atno 8008 bound_to 7997
  156.0798  140.1384  156.9753 H   0  0  0  0  0  0  0  0  0  0  0  0  # atno 8009 bound_to 7997
  154.4574  140.0948  156.6771 H   0  0  0  0  0  0  0  0  0  0  0  0  # atno 8010 bound_to 7997
  139.7467  143.8580  152.2576 H   0  0  0  0  0  0  0  0  0  0  0  0  # atno 10167 bound_to 10162
  156.0772  130.5978  150.8654 H   0  0  0  0  0  0  0  0  0  0  0  0  # atno 10718 bound_to 10713
  153.0456  135.5101  154.7737 H   0  0  0  0  0  0  0  0  0  0  0  0  # atno 10763 bound_to 10752
  154.6640  135.2943  154.9832 H   0  0  0  0  0  0  0  0  0  0  0  0  # atno 10764 bound_to 10752
  154.0673  135.6682  153.4872 H   0  0  0  0  0  0  0  0  0  0  0  0  # atno 10765 bound_to 10752
  140.6820  134.4134  157.5226 H   0  0  0  0  0  0  0  0  0  0  0  0  # atno 11005 bound_to 11000
  144.7558  139.7079  143.7255 LP  0  0  0  0  0  0  0  0  0  0  0  0  # atno 17320 bound_to 7965
  146.1955  139.5219  142.9777 LP  0  0  0  0  0  0  0  0  0  0  0  0  # atno 17321 bound_to 7965
  139.8547  144.7147  150.9172 LP  0  0  0  0  0  0  0  0  0  0  0  0  # atno 17342 bound_to 10162
  140.7793  143.3869  151.1378 LP  0  0  0  0  0  0  0  0  0  0  0  0  # atno 17343 bound_to 10162
  157.5873  131.0945  150.9176 LP  0  0  0  0  0  0  0  0  0  0  0  0  # atno 17370 bound_to 10713
  156.9359  130.5366  149.5279 LP  0  0  0  0  0  0  0  0  0  0  0  0  # atno 17371 bound_to 10713
  139.8949  134.8696  156.2157 LP  0  0  0  0  0  0  0  0  0  0  0  0  # atno 17394 bound_to 11000
  141.0310  133.6989  156.1430 LP  0  0  0  0  0  0  0  0  0  0  0  0  # atno 17395 bound_to 11000

$$$$
