AV-unprocessed.smi:3322|AV-procd|sdf|12773|dock10
  -GOLD-   2272019113D 1   1.00000     0.00000
 Structure written by MMmdl.
 39 40  0  0  0  0  0  0  0  0  2 V2000
  149.2047  141.6528  154.4834 C   0  0  0  0  0  0  0  0  0  0  0  0
  149.9940  141.1956  155.7218 C   0  0  2  0  0  0  0  0  0  0  0  0
  150.6391  142.3746  156.3478 N   0  3  0  0  0  0  0  0  0  0  0  0
  151.0303  142.1998  157.7629 C   0  0  0  0  0  0  0  0  0  0  0  0
  151.4693  143.5348  158.3804 C   0  0  0  0  0  0  0  0  0  0  0  0
  152.0137  143.3556  159.7123 N   0  0  0  0  0  0  0  0  0  0  0  0
  151.7915  144.1165  160.8409 C   0  0  0  0  0  0  0  0  0  0  0  0
  152.5171  143.5597  161.8548 C   0  0  0  0  0  0  0  0  0  0  0  0
  153.1562  142.4460  161.2416 C   0  0  0  0  0  0  0  0  0  0  0  0
  152.8518  142.3259  159.9591 N   0  0  0  0  0  0  0  0  0  0  0  0
  151.0267  140.1158  155.3294 C   0  0  0  0  0  0  0  0  0  0  0  0
  152.2180  140.3532  155.5384 O   0  0  0  0  0  0  0  0  0  0  0  0
  150.6182  138.9509  154.7656 N   0  0  0  0  0  0  0  0  0  0  0  0
  151.4583  137.7992  154.4151 C   0  0  0  0  0  0  0  0  0  0  0  0
  151.0054  136.5875  155.2507 C   0  0  0  0  0  0  0  0  0  0  0  0
  149.6244  136.3271  155.0169 O   0  0  0  0  0  0  0  0  0  0  0  0
  148.7886  137.4354  155.3367 C   0  0  0  0  0  0  0  0  0  0  0  0
  149.2074  138.6523  154.4936 C   0  0  0  0  0  0  0  0  0  0  0  0
  148.6813  140.8243  154.0063 H   0  0  0  0  0  0  0  0  0  0  0  0
  149.8602  142.1021  153.7359 H   0  0  0  0  0  0  0  0  0  0  0  0
  148.4537  142.3960  154.7524 H   0  0  0  0  0  0  0  0  0  0  0  0
  149.2982  140.8020  156.4621 H   0  0  0  0  0  0  0  0  0  0  0  0
  151.4575  142.6141  155.8059 H   0  0  0  0  0  0  0  0  0  0  0  0
  150.1852  141.7899  158.3180 H   0  0  0  0  0  0  0  0  0  0  0  0
  151.8439  141.4771  157.8354 H   0  0  0  0  0  0  0  0  0  0  0  0
  152.2280  144.0100  157.7569 H   0  0  0  0  0  0  0  0  0  0  0  0
  150.6279  144.2267  158.4401 H   0  0  0  0  0  0  0  0  0  0  0  0
  151.1445  144.9814  160.8299 H   0  0  0  0  0  0  0  0  0  0  0  0
  152.5807  143.8957  162.8791 H   0  0  0  0  0  0  0  0  0  0  0  0
  153.8270  141.7261  161.6869 H   0  0  0  0  0  0  0  0  0  0  0  0
  151.3440  137.5837  153.3516 H   0  0  0  0  0  0  0  0  0  0  0  0
  152.5223  137.9550  154.5739 H   0  0  0  0  0  0  0  0  0  0  0  0
  151.5813  135.7037  154.9761 H   0  0  0  0  0  0  0  0  0  0  0  0
  151.1758  136.7621  156.3140 H   0  0  0  0  0  0  0  0  0  0  0  0
  147.7525  137.1686  155.1266 H   0  0  0  0  0  0  0  0  0  0  0  0
  148.8528  137.6577  156.4032 H   0  0  0  0  0  0  0  0  0  0  0  0
  148.5417  139.4896  154.7063 H   0  0  0  0  0  0  0  0  0  0  0  0
  149.0832  138.4329  153.4320 H   0  0  0  0  0  0  0  0  0  0  0  0
  149.9879  143.1453  156.3063 H   0  0  0  0  0  0  0  0  0  0  0  0
  1  2  1  0  0  0  0
  1 19  1  0  0  0  0
  1 20  1  0  0  0  0
  1 21  1  0  0  0  0
  2  3  1  0  0  0  0
  2 11  1  0  0  0  0
  2 22  1  0  0  0  0
  3  4  1  0  0  0  0
  3 23  1  0  0  0  0
  3 39  1  0  0  0  0
  4  5  1  0  0  0  0
  4 24  1  0  0  0  0
  4 25  1  0  0  0  0
  5  6  1  0  0  0  0
  5 26  1  0  0  0  0
  5 27  1  0  0  0  0
  6 10  1  0  0  0  0
  6  7  1  0  0  0  0
  7  8  2  0  0  0  0
  7 28  1  0  0  0  0
  8  9  1  0  0  0  0
  8 29  1  0  0  0  0
  9 10  2  0  0  0  0
  9 30  1  0  0  0  0
 11 12  2  0  0  0  0
 11 13  1  0  0  0  0
 13 18  1  0  0  0  0
 13 14  1  0  0  0  0
 14 15  1  0  0  0  0
 14 31  1  0  0  0  0
 14 32  1  0  0  0  0
 15 16  1  0  0  0  0
 15 33  1  0  0  0  0
 15 34  1  0  0  0  0
 16 17  1  0  0  0  0
 17 18  1  0  0  0  0
 17 35  1  0  0  0  0
 17 36  1  0  0  0  0
 18 37  1  0  0  0  0
 18 38  1  0  0  0  0
M  CHG  1   3   1
M  END
> <s_m_source_file>
AV-unprocessed.smi

> <i_m_source_file_index>
3322

> <i_lp_mmshare_version>
43012

> <i_f3d_flags>
0

> <s_epik_input>
W0NIMl0xW0NIMl1PW0NIMl1bQ0gyXU4xQyg9TylbQ0BIXShbQ0gzXSlbTkhdW0NIMl1bQ0gyXW4yW2NIXVtjSF1bY0hdbjI=

> <s_epik_cmdline>
J2VwaWtfcHl0aG9uJywgJy1waCcsICc3LjAnLCAnLXRuJywgJzgnLCAnLW1hJywgJzIwMCcsICctbWV0YWxfYmluZGluZycsICctaW1hZScsICc8aW5maWxlLm1hZT4nLCAnLW9tYWUnLCAnPG91dGZpbGUubWFlPic=

> <r_lp_tautomer_probability>
1

> <r_epik_Ionization_Penalty>
0.3254

> <r_epik_Ionization_Penalty_Charging>
0.325398

> <r_epik_Ionization_Penalty_Neutral>
2.29478e-06

> <r_epik_State_Penalty>
0.320187

> <r_epik_Charging_Adjusted_Penalty>
0.645585

> <i_epik_Tot_Q>
1

> <i_epik_Tot_abs_Q>
1

> <r_epik_Metal_State_Penalty>
0.320558

> <b_epik_Metal_Only>
0

> <s_lp_Force_Field>
OPLS_2005

> <r_lp_Energy>
25.684

> <b_lp_Chiralities_Consistent>
1

> <s_lp_Variant>
AV-unprocessed.smi:3322-1

> <Gold.Version>
5.8.1

> <Gold.Id.Protein>
6NUR|6NUR_protein|mol2

> <Gold.PLP.Fitness>
46.8485

> <Gold.PLP.PLP>
-40.0947

> <Gold.PLP.part.hbond>
-2.5540

> <Gold.PLP.part.metal>
0.0000

> <Gold.PLP.part.buried>
-0.7584

> <Gold.PLP.part.nonpolar>
-36.6971

> <Gold.PLP.part.repulsive>
0.2479

> <Gold.PLP.ligand.clash>
0.0000

> <Gold.PLP.ligand.torsion>
0.4504

> <Gold.PLP.Chemscore.Hbond>
2.5363

> <Gold.PLP.Chemscore.CHOScore>
0.0000

> <Gold.PLP.Chemscore.Metal>
0.0000

> <Gold.Chemscore.Hbonds>
donor molecule, donor type, donor heavy atom, donor atom, acceptor molecule, acceptor atom, score
      L1  H     3    39       P1  8028  2.00
      P1  H  7997  8008       L1    12  0.52

> <Gold.PLP.Chemscore.Internal.Correction>
0.0459

> <Gold.Rescore>
     Score         DG    S(hbond)    S(metal)    S(lipo)     H(rot)  DE(clash)    DE(int)     intcor
     14.81     -16.71       1.70        0.00      89.18       1.91       0.53       1.36       ----

> <Gold.Chemscore.Fitness>
14.8139

> <Gold.Chemscore.DG>
-16.7074

> <Gold.Chemscore.ZeroCoef>
-5.4800

> <Gold.Chemscore.Hbond>
1.7010

> <Gold.Chemscore.Metal>
0.0000

> <Gold.Chemscore.Lipo>
89.1836

> <Gold.Chemscore.Internal_Hbond>
0.0000

> <Gold.Chemscore.DEClash>
0.5306

> <Gold.Chemscore.DEInternal>
1.3629

> <Gold.Chemscore.Rot>
1.9095

> <Gold.Chemscore.Internal.Correction>
   9.000000E+99

> <Gold.Chemscore.Hbonds>
donor molecule, donor type, donor heavy atom, donor atom, acceptor molecule, acceptor atom, score
      L1  H     3    39       P1  8028  0.93
      P1  H  7997  8008       L1    12  0.51

> <Gold.Chemscore.Hbond.Weighted>
-5.6813

> <Gold.Chemscore.Metal.Weighted>
-0.0000

> <Gold.Chemscore.Lipo.Weighted>
-10.4345

> <Gold.Chemscore.Internal_Hbond.Weighted>
0.0000

> <Gold.Chemscore.DEClash.Weighted>
0.5306

> <Gold.Chemscore.DEInternal.Weighted>
1.3629

> <Gold.Chemscore.Rot.Weighted>
4.8884

> <Gold.Chemscore.Internal.Correction.Weighted>
   9.000000E+99

> <Gold.Protein.RotatedTorsions>
[ 6907 6896 6895 6894 ] final  164.37 input  -60.11 | X-H torsion
[ 7974 7965 7964 7962 ] final  -49.24 input  175.53 | X-H torsion
[ 8008 7997 7996 7995 ] final  -30.20 input   59.86 | X-H torsion
[ 10167 10162 10161 10158 ] final  -36.16 input  -65.29 | X-H torsion
[ 10718 10713 10712 10709 ] final -136.32 input   66.30 | X-H torsion
[ 10763 10752 10751 10750 ] final   70.83 input  -60.55 | X-H torsion
[ 11005 11000 10999 10996 ] final   82.97 input  -57.11 | X-H torsion

> <Gold.Protein.ActiveResidues>
 VAL166  LYS551  ARG553  GLY616  TRP617  ASP618  TYR619  PRO620  LYS621  CYS622 
 ASP623  PHE694  ASN695  SER759  ASP760  ASP761  ALA762  ILE779  LEU786  VAL792 
 PHE793  MET794  SER795  GLU796  ALA797  LYS798  CYS799  TRP800  GLU811  SER814 

> <Gold.Protein.RotatedAtoms>
  151.9109  133.3561  159.3862 H   0  0  0  0  0  0  0  0  0  0  0  0  # atno 6907 bound_to 6896
  150.7058  134.4733  159.5445 H   0  0  0  0  0  0  0  0  0  0  0  0  # atno 6908 bound_to 6896
  152.2339  134.8295  160.0520 H   0  0  0  0  0  0  0  0  0  0  0  0  # atno 6909 bound_to 6896
  145.9427  140.7647  142.9544 H   0  0  0  0  0  0  0  0  0  0  0  0  # atno 7974 bound_to 7965
  154.4259  140.1797  156.1369 H   0  0  0  0  0  0  0  0  0  0  0  0  # atno 8008 bound_to 7997
  156.0023  140.3359  155.6832 H   0  0  0  0  0  0  0  0  0  0  0  0  # atno 8009 bound_to 7997
  155.6226  140.0661  157.2664 H   0  0  0  0  0  0  0  0  0  0  0  0  # atno 8010 bound_to 7997
  140.7149  143.3427  151.2322 H   0  0  0  0  0  0  0  0  0  0  0  0  # atno 10167 bound_to 10162
  156.2758  130.7292  151.1273 H   0  0  0  0  0  0  0  0  0  0  0  0  # atno 10718 bound_to 10713
  153.0364  135.5159  154.7501 H   0  0  0  0  0  0  0  0  0  0  0  0  # atno 10763 bound_to 10752
  154.6474  135.2920  155.0031 H   0  0  0  0  0  0  0  0  0  0  0  0  # atno 10764 bound_to 10752
  154.0927  135.6648  153.4908 H   0  0  0  0  0  0  0  0  0  0  0  0  # atno 10765 bound_to 10752
  139.9046  134.8110  156.2245 H   0  0  0  0  0  0  0  0  0  0  0  0  # atno 11005 bound_to 11000
  144.6782  140.2306  143.7356 LP  0  0  0  0  0  0  0  0  0  0  0  0  # atno 17320 bound_to 7965
  145.8278  139.2072  143.1900 LP  0  0  0  0  0  0  0  0  0  0  0  0  # atno 17321 bound_to 7965
  139.6939  143.9646  152.2873 LP  0  0  0  0  0  0  0  0  0  0  0  0  # atno 17342 bound_to 10162
  139.9316  144.6737  150.8357 LP  0  0  0  0  0  0  0  0  0  0  0  0  # atno 17343 bound_to 10162
  157.7299  131.0621  150.5754 LP  0  0  0  0  0  0  0  0  0  0  0  0  # atno 17370 bound_to 10713
  156.5854  130.4315  149.5959 LP  0  0  0  0  0  0  0  0  0  0  0  0  # atno 17371 bound_to 10713
  141.0384  133.6951  156.1554 LP  0  0  0  0  0  0  0  0  0  0  0  0  # atno 17394 bound_to 11000
  140.6992  134.4582  157.5586 LP  0  0  0  0  0  0  0  0  0  0  0  0  # atno 17395 bound_to 11000

$$$$
