AV-unprocessed.smi:2424|AV-procd|sdf|9572|dock3
  -GOLD-   2272013203D 1   1.00000     0.00000
 Structure written by MMmdl.
 49 50  0  0  0  0  0  0  0  0  2 V2000
  144.1277  136.7284  153.5755 C   0  0  0  0  0  0  0  0  0  0  0  0
  144.1098  135.1954  153.4455 C   0  0  0  0  0  0  0  0  0  0  0  0
  145.3792  134.5247  152.8658 C   0  0  0  0  0  0  0  0  0  0  0  0
  145.7407  135.2921  151.5613 C   0  0  0  0  0  0  0  0  0  0  0  0
  144.6317  135.3961  150.4969 C   0  0  0  0  0  0  0  0  0  0  0  0
  146.5627  134.2817  153.8521 C   0  0  2  0  0  0  0  0  0  0  0  0
  147.6697  135.2250  153.7336 N   0  0  0  0  0  0  0  0  0  0  0  0
  148.2239  135.8767  154.7643 C   0  0  0  0  0  0  0  0  0  0  0  0
  147.8525  135.7334  155.9288 O   0  0  0  0  0  0  0  0  0  0  0  0
  149.2100  136.6873  154.3417 N   0  0  0  0  0  0  0  0  0  0  0  0
  150.0284  137.5386  155.0951 C   0  0  0  0  0  0  0  0  0  0  0  0
  150.6630  138.6057  154.4924 C   0  0  0  0  0  0  0  0  0  0  0  0
  151.4833  139.5258  155.0442 N   0  5  0  0  0  0  0  0  0  0  0  0
  151.7524  139.4292  156.3778 C   0  0  0  0  0  0  0  0  0  0  0  0
  152.4914  140.2302  156.9489 O   0  0  0  0  0  0  0  0  0  0  0  0
  151.1366  138.3317  157.1509 C   0  0  0  0  0  0  0  0  0  0  0  0
  151.4366  138.2284  158.6368 C   0  0  0  0  0  0  0  0  0  0  0  0
  150.3220  137.4453  156.5252 C   0  0  0  0  0  0  0  0  0  0  0  0
  146.8533  132.9460  153.1602 C   0  0  1  0  0  0  0  0  0  0  0  0
  147.4092  131.7986  153.9941 C   0  0  0  0  0  0  0  0  0  0  0  0
  145.3640  132.9712  152.7796 C   0  0  2  0  0  0  0  0  0  0  0  0
  145.0799  132.4748  151.4810 O   0  0  0  0  0  0  0  0  0  0  0  0
  145.1340  131.0621  151.3913 C   0  0  0  0  0  0  0  0  0  0  0  0
  143.2241  137.0741  154.0778 H   0  0  0  0  0  0  0  0  0  0  0  0
  144.1514  137.2164  152.6013 H   0  0  0  0  0  0  0  0  0  0  0  0
  144.9759  137.0838  154.1591 H   0  0  0  0  0  0  0  0  0  0  0  0
  143.9141  134.7953  154.4405 H   0  0  0  0  0  0  0  0  0  0  0  0
  143.2399  134.9302  152.8431 H   0  0  0  0  0  0  0  0  0  0  0  0
  146.0557  136.3070  151.8060 H   0  0  0  0  0  0  0  0  0  0  0  0
  146.6085  134.8375  151.0839 H   0  0  0  0  0  0  0  0  0  0  0  0
  145.0169  135.8794  149.5989 H   0  0  0  0  0  0  0  0  0  0  0  0
  143.7910  135.9972  150.8421 H   0  0  0  0  0  0  0  0  0  0  0  0
  144.2470  134.4226  150.1981 H   0  0  0  0  0  0  0  0  0  0  0  0
  146.2591  134.1054  154.8849 H   0  0  0  0  0  0  0  0  0  0  0  0
  148.0310  135.3978  152.8071 H   0  0  0  0  0  0  0  0  0  0  0  0
  149.3930  136.6939  153.3489 H   0  0  0  0  0  0  0  0  0  0  0  0
  150.4860  138.7394  153.4034 H   0  0  0  0  0  0  0  0  0  0  0  0
  150.9193  137.3821  159.0898 H   0  0  0  0  0  0  0  0  0  0  0  0
  151.1174  139.1340  159.1538 H   0  0  0  0  0  0  0  0  0  0  0  0
  152.5065  138.0966  158.8009 H   0  0  0  0  0  0  0  0  0  0  0  0
  149.8908  136.6584  157.1223 H   0  0  0  0  0  0  0  0  0  0  0  0
  147.4649  133.1042  152.2700 H   0  0  0  0  0  0  0  0  0  0  0  0
  146.7574  131.5652  154.8362 H   0  0  0  0  0  0  0  0  0  0  0  0
  148.3905  132.0485  154.3977 H   0  0  0  0  0  0  0  0  0  0  0  0
  147.5217  130.8912  153.4018 H   0  0  0  0  0  0  0  0  0  0  0  0
  144.7319  132.5165  153.5444 H   0  0  0  0  0  0  0  0  0  0  0  0
  144.8486  130.7511  150.3863 H   0  0  0  0  0  0  0  0  0  0  0  0
  144.4457  130.5935  152.0957 H   0  0  0  0  0  0  0  0  0  0  0  0
  146.1399  130.6893  151.5806 H   0  0  0  0  0  0  0  0  0  0  0  0
  1  2  1  0  0  0  0
  1 24  1  0  0  0  0
  1 25  1  0  0  0  0
  1 26  1  0  0  0  0
  2  3  1  0  0  0  0
  2 27  1  0  0  0  0
  2 28  1  0  0  0  0
  3 21  1  0  0  0  0
  3  4  1  0  0  0  0
  3  6  1  0  0  0  0
  4  5  1  0  0  0  0
  4 29  1  0  0  0  0
  4 30  1  0  0  0  0
  5 31  1  0  0  0  0
  5 32  1  0  0  0  0
  5 33  1  0  0  0  0
  6  7  1  0  0  0  0
  6 19  1  0  0  0  0
  6 34  1  0  0  0  0
  7  8  1  0  0  0  0
  7 35  1  0  0  0  0
  8  9  2  0  0  0  0
  8 10  1  0  0  0  0
 10 11  1  0  0  0  0
 10 36  1  0  0  0  0
 11 18  1  0  0  0  0
 11 12  2  0  0  0  0
 12 13  1  0  0  0  0
 12 37  1  0  0  0  0
 13 14  1  0  0  0  0
 14 15  2  0  0  0  0
 14 16  1  0  0  0  0
 16 17  1  0  0  0  0
 16 18  2  0  0  0  0
 17 38  1  0  0  0  0
 17 39  1  0  0  0  0
 17 40  1  0  0  0  0
 18 41  1  0  0  0  0
 19 20  1  0  0  0  0
 19 21  1  0  0  0  0
 19 42  1  0  0  0  0
 20 43  1  0  0  0  0
 20 44  1  0  0  0  0
 20 45  1  0  0  0  0
 21 22  1  0  0  0  0
 21 46  1  0  0  0  0
 22 23  1  0  0  0  0
 23 47  1  0  0  0  0
 23 48  1  0  0  0  0
 23 49  1  0  0  0  0
M  CHG  1  13  -1
M  END
> <s_m_source_file>
AV-unprocessed.smi

> <i_m_source_file_index>
2424

> <i_lp_mmshare_version>
43012

> <i_f3d_flags>
0

> <s_epik_input>
W0NIM11PW0NAQEhdMVtDQEhdKFtDSDNdKVtDQEBIXShDMShbQ0gyXVtDSDNdKVtDSDJdW0NIM10pW05IXUMoPU8pW05IXWMyW2NIXVtuSF1jKD1PKWMoW0NIM10pW2NIXTI=

> <s_epik_cmdline>
J2VwaWtfcHl0aG9uJywgJy1waCcsICc3LjAnLCAnLXRuJywgJzgnLCAnLW1hJywgJzIwMCcsICctbWV0YWxfYmluZGluZycsICctaW1hZScsICc8aW5maWxlLm1hZT4nLCAnLW9tYWUnLCAnPG91dGZpbGUubWFlPic=

> <r_lp_tautomer_probability>
1

> <r_epik_Ionization_Penalty>
7.6122

> <r_epik_Ionization_Penalty_Charging>
1.53843

> <r_epik_Ionization_Penalty_Neutral>
6.07377

> <r_epik_State_Penalty>
6.07371

> <r_epik_Charging_Adjusted_Penalty>
7.61214

> <i_epik_Tot_Q>
-1

> <i_epik_Tot_abs_Q>
1

> <r_epik_Metal_State_Penalty>
2.02136

> <b_epik_Metal_Only>
1

> <s_lp_Force_Field>
OPLS_2005

> <r_lp_Energy>
40.6297

> <b_lp_Chiralities_Consistent>
1

> <s_lp_Variant>
AV-unprocessed.smi:2424-14

> <Gold.Version>
5.8.1

> <Gold.Id.Protein>
6NUR|6NUR_protein|mol2

> <Gold.PLP.Fitness>
37.6930

> <Gold.PLP.PLP>
-26.1453

> <Gold.PLP.part.hbond>
-3.6865

> <Gold.PLP.part.metal>
0.0000

> <Gold.PLP.part.buried>
-2.6527

> <Gold.PLP.part.nonpolar>
-19.3773

> <Gold.PLP.part.repulsive>
0.1831

> <Gold.PLP.ligand.clash>
0.0000

> <Gold.PLP.ligand.torsion>
0.4829

> <Gold.PLP.Chemscore.Hbond>
3.9833

> <Gold.PLP.Chemscore.CHOScore>
0.0000

> <Gold.PLP.Chemscore.Metal>
0.0000

> <Gold.Chemscore.Hbonds>
donor molecule, donor type, donor heavy atom, donor atom, acceptor molecule, acceptor atom, score
      L1  H     7    35       P1  7948  1.00
      L1  H    10    36       P1  7948  1.00
      P1  H  7989  7998       L1    13  0.96
      P1  H  7997  8009       L1    15  1.00

> <Gold.PLP.Chemscore.Internal.Correction>
0.5638

> <Gold.Rescore>
     Score         DG    S(hbond)    S(metal)    S(lipo)     H(rot)  DE(clash)    DE(int)     intcor
     19.08     -20.01       3.18        0.00      66.67       1.52       0.43       0.50       ----

> <Gold.Chemscore.Fitness>
19.0808

> <Gold.Chemscore.DG>
-20.0091

> <Gold.Chemscore.ZeroCoef>
-5.4800

> <Gold.Chemscore.Hbond>
3.1800

> <Gold.Chemscore.Metal>
0.0000

> <Gold.Chemscore.Lipo>
66.6686

> <Gold.Chemscore.Internal_Hbond>
0.0000

> <Gold.Chemscore.DEClash>
0.4313

> <Gold.Chemscore.DEInternal>
0.4970

> <Gold.Chemscore.Rot>
1.5204

> <Gold.Chemscore.Internal.Correction>
   9.000000E+99

> <Gold.Chemscore.Hbonds>
donor molecule, donor type, donor heavy atom, donor atom, acceptor molecule, acceptor atom, score
      L1  H     7    35       P1  7948  0.89
      L1  H    10    36       P1  7948  0.82
      P1  H  7989  7998       L1    13  0.27
      P1  H  7997  8009       L1    15  0.92

> <Gold.Chemscore.Hbond.Weighted>
-10.6212

> <Gold.Chemscore.Metal.Weighted>
-0.0000

> <Gold.Chemscore.Lipo.Weighted>
-7.8002

> <Gold.Chemscore.Internal_Hbond.Weighted>
0.0000

> <Gold.Chemscore.DEClash.Weighted>
0.4313

> <Gold.Chemscore.DEInternal.Weighted>
0.4970

> <Gold.Chemscore.Rot.Weighted>
3.8922

> <Gold.Chemscore.Internal.Correction.Weighted>
   9.000000E+99

> <Gold.Protein.RotatedTorsions>
[ 6907 6896 6895 6894 ] final -137.99 input  -60.11 | X-H torsion
[ 7974 7965 7964 7962 ] final  -19.66 input  175.53 | X-H torsion
[ 8008 7997 7996 7995 ] final -177.45 input   59.86 | X-H torsion
[ 10167 10162 10161 10158 ] final  146.11 input  -65.29 | X-H torsion
[ 10718 10713 10712 10709 ] final  -13.91 input   66.30 | X-H torsion
[ 10763 10752 10751 10750 ] final  172.65 input  -60.55 | X-H torsion
[ 11005 11000 10999 10996 ] final   91.51 input  -57.11 | X-H torsion

> <Gold.Protein.ActiveResidues>
 VAL166  LYS551  ARG553  GLY616  TRP617  ASP618  TYR619  PRO620  LYS621  CYS622 
 ASP623  PHE694  ASN695  SER759  ASP760  ASP761  ALA762  ILE779  LEU786  VAL792 
 PHE793  MET794  SER795  GLU796  ALA797  LYS798  CYS799  TRP800  GLU811  SER814 

> <Gold.Protein.RotatedAtoms>
  151.0294  133.5804  159.2662 H   0  0  0  0  0  0  0  0  0  0  0  0  # atno 6907 bound_to 6896
  151.2891  135.0736  159.9207 H   0  0  0  0  0  0  0  0  0  0  0  0  # atno 6908 bound_to 6896
  152.5341  133.9995  159.7942 H   0  0  0  0  0  0  0  0  0  0  0  0  # atno 6909 bound_to 6896
  146.1829  140.4093  142.8487 H   0  0  0  0  0  0  0  0  0  0  0  0  # atno 7974 bound_to 7965
  156.0071  140.1232  157.0491 H   0  0  0  0  0  0  0  0  0  0  0  0  # atno 8008 bound_to 7997
  154.4262  140.1095  156.5846 H   0  0  0  0  0  0  0  0  0  0  0  0  # atno 8009 bound_to 7997
  155.6132  140.3471  155.4631 H   0  0  0  0  0  0  0  0  0  0  0  0  # atno 8010 bound_to 7997
  139.4913  144.5853  151.6790 H   0  0  0  0  0  0  0  0  0  0  0  0  # atno 10167 bound_to 10162
  156.6235  130.4882  149.6155 H   0  0  0  0  0  0  0  0  0  0  0  0  # atno 10718 bound_to 10713
  154.4291  135.2759  155.1924 H   0  0  0  0  0  0  0  0  0  0  0  0  # atno 10763 bound_to 10752
  154.3838  135.6081  153.5809 H   0  0  0  0  0  0  0  0  0  0  0  0  # atno 10764 bound_to 10752
  152.9835  135.5887  154.4599 H   0  0  0  0  0  0  0  0  0  0  0  0  # atno 10765 bound_to 10752
  139.8838  134.8678  156.3438 H   0  0  0  0  0  0  0  0  0  0  0  0  # atno 11005 bound_to 11000
  144.8347  140.6763  143.6268 LP  0  0  0  0  0  0  0  0  0  0  0  0  # atno 17320 bound_to 7965
  145.4023  139.1595  143.4171 LP  0  0  0  0  0  0  0  0  0  0  0  0  # atno 17321 bound_to 7965
  140.5468  144.0490  150.6110 LP  0  0  0  0  0  0  0  0  0  0  0  0  # atno 17342 bound_to 10162
  140.3531  143.2951  152.0466 LP  0  0  0  0  0  0  0  0  0  0  0  0  # atno 17343 bound_to 10162
  156.2292  130.6784  151.1447 LP  0  0  0  0  0  0  0  0  0  0  0  0  # atno 17370 bound_to 10713
  157.7221  131.0675  150.6092 LP  0  0  0  0  0  0  0  0  0  0  0  0  # atno 17371 bound_to 10713
  140.9640  133.7370  156.0441 LP  0  0  0  0  0  0  0  0  0  0  0  0  # atno 17394 bound_to 11000
  140.7954  134.3570  157.5454 LP  0  0  0  0  0  0  0  0  0  0  0  0  # atno 17395 bound_to 11000

$$$$
