AV-unprocessed.smi:72|AV-procd|sdf|699|dock4
  -GOLD-   2262017 13D 1   1.00000     0.00000
 Structure written by MMmdl.
 30 31  0  0  0  0  0  0  0  0  2 V2000
  145.9622  138.7351  152.0183 N   0  0  0  0  0  0  0  0  0  0  0  0
  146.8501  139.4299  152.8131 C   0  0  0  0  0  0  0  0  0  0  0  0
  148.0992  138.8718  153.0202 N   0  3  0  0  0  0  0  0  0  0  0  0
  149.0746  139.4190  153.7580 C   0  0  0  0  0  0  0  0  0  0  0  0
  148.8620  140.5840  154.3352 N   0  0  0  0  0  0  0  0  0  0  0  0
  149.9210  141.2347  155.1807 C   0  0  2  0  0  0  0  0  0  0  0  0
  151.0669  140.4427  155.1088 O   0  0  0  0  0  0  0  0  0  0  0  0
  151.5942  140.2286  156.4133 C   0  0  2  0  0  0  0  0  0  0  0  0
  152.4510  138.9517  156.4699 C   0  0  0  0  0  0  0  0  0  0  0  0
  153.3639  138.9344  155.3938 O   0  0  0  0  0  0  0  0  0  0  0  0
  150.3454  140.2298  157.3043 C   0  0  2  0  0  0  0  0  0  0  0  0
  149.6987  138.9695  157.2804 O   0  0  0  0  0  0  0  0  0  0  0  0
  149.4647  141.2835  156.6486 C   0  0  1  0  0  0  0  0  0  0  0  0
  149.7067  142.5542  157.2175 O   0  0  0  0  0  0  0  0  0  0  0  0
  147.6023  141.2212  154.2046 C   0  0  0  0  0  0  0  0  0  0  0  0
  147.3814  142.2877  154.7772 O   0  0  0  0  0  0  0  0  0  0  0  0
  146.6463  140.5722  153.4094 N   0  0  0  0  0  0  0  0  0  0  0  0
  150.1207  142.2107  154.7345 H   0  0  0  0  0  0  0  0  0  0  0  0
  152.1992  141.0966  156.6828 H   0  0  0  0  0  0  0  0  0  0  0  0
  150.5826  140.4683  158.3421 H   0  0  0  0  0  0  0  0  0  0  0  0
  148.4004  141.0624  156.7487 H   0  0  0  0  0  0  0  0  0  0  0  0
  145.0280  139.0625  151.8152 H   0  0  0  0  0  0  0  0  0  0  0  0
  146.1701  137.8486  151.5816 H   0  0  0  0  0  0  0  0  0  0  0  0
  150.0151  138.8946  153.8714 H   0  0  0  0  0  0  0  0  0  0  0  0
  153.0348  138.9330  157.3907 H   0  0  0  0  0  0  0  0  0  0  0  0
  151.8330  138.0534  156.4558 H   0  0  0  0  0  0  0  0  0  0  0  0
  153.9218  138.1764  155.4826 H   0  0  0  0  0  0  0  0  0  0  0  0
  149.5992  138.7012  156.3794 H   0  0  0  0  0  0  0  0  0  0  0  0
  149.2301  143.2038  156.7228 H   0  0  0  0  0  0  0  0  0  0  0  0
  148.2870  137.9820  152.5807 H   0  0  0  0  0  0  0  0  0  0  0  0
  1  2  1  0  0  0  0
  1 22  1  0  0  0  0
  1 23  1  0  0  0  0
  2 17  2  0  0  0  0
  2  3  1  0  0  0  0
  3  4  2  0  0  0  0
  3 30  1  0  0  0  0
  4  5  1  0  0  0  0
  4 24  1  0  0  0  0
  5  6  1  0  0  0  0
  5 15  1  0  0  0  0
  6 18  1  0  0  0  0
  6 13  1  0  0  0  0
  6  7  1  0  0  0  0
  7  8  1  0  0  0  0
  8 19  1  0  0  0  0
  8  9  1  0  0  0  0
  8 11  1  0  0  0  0
  9 10  1  0  0  0  0
  9 25  1  0  0  0  0
  9 26  1  0  0  0  0
 10 27  1  0  0  0  0
 11 20  1  0  0  0  0
 11 12  1  0  0  0  0
 11 13  1  0  0  0  0
 12 28  1  0  0  0  0
 13 21  1  0  0  0  0
 13 14  1  0  0  0  0
 14 29  1  0  0  0  0
 15 16  2  0  0  0  0
 15 17  1  0  0  0  0
M  CHG  1   3   1
M  END
> <s_m_source_file>
AV-unprocessed.smi

> <i_m_source_file_index>
72

> <i_lp_mmshare_version>
43012

> <i_f3d_flags>
0

> <s_epik_input>
W05IMl1jMW5bY0hdbihjKD1PKW4xKVtDQEBIXTJPW0NASF0oW0NIMl1bT0hdKVtDQEBIXShbT0hdKVtDQEhdMltPSF0=

> <s_epik_cmdline>
J2VwaWtfcHl0aG9uJywgJy1waCcsICc3LjAnLCAnLXRuJywgJzgnLCAnLW1hJywgJzIwMCcsICctbWV0YWxfYmluZGluZycsICctaW1hZScsICc8aW5maWxlLm1hZT4nLCAnLW9tYWUnLCAnPG91dGZpbGUubWFlPic=

> <r_lp_tautomer_probability>
4.77166e-05

> <r_epik_Ionization_Penalty>
0.104979

> <r_epik_Ionization_Penalty_Charging>
0.0999619

> <r_epik_Ionization_Penalty_Neutral>
0.00501745

> <r_epik_State_Penalty>
2.51541

> <r_epik_Charging_Adjusted_Penalty>
2.61537

> <i_epik_Tot_Q>
1

> <i_epik_Tot_abs_Q>
1

> <r_epik_Metal_State_Penalty>
3.53763

> <b_epik_Metal_Only>
0

> <s_epik_Chemistry_Notes>
This compound contains an acetal/aminal-like group ( X-CH(R)-Y where X, Y are N, S, or O) that may be acid/base labile, releasing an aldehyde.

> <s_lp_Force_Field>
OPLS_2005

> <r_lp_Energy>
28.7493

> <b_lp_Chiralities_Consistent>
1

> <s_lp_Variant>
AV-unprocessed.smi:72-37

> <Gold.Version>
5.8.1

> <Gold.Id.Protein>
6NUR|6NUR_protein|mol2

> <Gold.PLP.Fitness>
42.9220

> <Gold.PLP.PLP>
-25.6704

> <Gold.PLP.part.hbond>
-6.9526

> <Gold.PLP.part.metal>
0.0000

> <Gold.PLP.part.buried>
-1.7341

> <Gold.PLP.part.nonpolar>
-19.2214

> <Gold.PLP.part.repulsive>
1.7481

> <Gold.PLP.ligand.clash>
0.0000

> <Gold.PLP.ligand.torsion>
0.1295

> <Gold.PLP.Chemscore.Hbond>
5.8320

> <Gold.PLP.Chemscore.CHOScore>
0.0000

> <Gold.PLP.Chemscore.Metal>
0.0000

> <Gold.Chemscore.Hbonds>
donor molecule, donor type, donor heavy atom, donor atom, acceptor molecule, acceptor atom, score
      L1  H     1    22       P1 10175  0.81
      L1  H     3    30       P1  7948  2.00
      L1  H    14    29       P1  8028  1.00
      P1  H  7989  7998       L1     7  1.00
      P1  H  7997  8010       L1    10  1.00

> <Gold.PLP.Chemscore.Internal.Correction>
0.0147

> <Gold.Rescore>
     Score         DG    S(hbond)    S(metal)    S(lipo)     H(rot)  DE(clash)    DE(int)     intcor
      6.17      -8.26       3.28        0.00      19.33       4.08       0.88       1.21       ----

> <Gold.Chemscore.Fitness>
6.1749

> <Gold.Chemscore.DG>
-8.2634

> <Gold.Chemscore.ZeroCoef>
-5.4800

> <Gold.Chemscore.Hbond>
3.2823

> <Gold.Chemscore.Metal>
0.0000

> <Gold.Chemscore.Lipo>
19.3253

> <Gold.Chemscore.Internal_Hbond>
0.0000

> <Gold.Chemscore.DEClash>
0.8827

> <Gold.Chemscore.DEInternal>
1.2058

> <Gold.Chemscore.Rot>
4.0783

> <Gold.Chemscore.Internal.Correction>
   9.000000E+99

> <Gold.Chemscore.Hbonds>
donor molecule, donor type, donor heavy atom, donor atom, acceptor molecule, acceptor atom, score
      L1  H     1    22       P1 10175  0.74
      L1  H     3    30       P1  7948  0.97
      L1  H    14    29       P1  8028  0.98
      P1  H  7989  7998       L1     7  0.24
      P1  H  7997  8010       L1    10  0.07

> <Gold.Chemscore.Hbond.Weighted>
-10.9628

> <Gold.Chemscore.Metal.Weighted>
-0.0000

> <Gold.Chemscore.Lipo.Weighted>
-2.2611

> <Gold.Chemscore.Internal_Hbond.Weighted>
0.0000

> <Gold.Chemscore.DEClash.Weighted>
0.8827

> <Gold.Chemscore.DEInternal.Weighted>
1.2058

> <Gold.Chemscore.Rot.Weighted>
10.4404

> <Gold.Chemscore.Internal.Correction.Weighted>
   9.000000E+99

> <Gold.Protein.RotatedTorsions>
[ 6907 6896 6895 6894 ] final  -52.23 input  -60.11 | X-H torsion
[ 7974 7965 7964 7962 ] final  -48.21 input  175.53 | X-H torsion
[ 8008 7997 7996 7995 ] final  105.83 input   59.86 | X-H torsion
[ 10167 10162 10161 10158 ] final -167.62 input  -65.29 | X-H torsion
[ 10718 10713 10712 10709 ] final    4.32 input   66.30 | X-H torsion
[ 10763 10752 10751 10750 ] final  169.57 input  -60.55 | X-H torsion
[ 11005 11000 10999 10996 ] final  -81.39 input  -57.11 | X-H torsion

> <Gold.Protein.ActiveResidues>
 VAL166  LYS551  ARG553  GLY616  TRP617  ASP618  TYR619  PRO620  LYS621  CYS622 
 ASP623  PHE694  ASN695  SER759  ASP760  ASP761  ALA762  ILE779  LEU786  VAL792 
 PHE793  MET794  SER795  GLU796  ALA797  LYS798  CYS799  TRP800  GLU811  SER814 

> <Gold.Protein.RotatedAtoms>
  150.8537  134.7869  159.7028 H   0  0  0  0  0  0  0  0  0  0  0  0  # atno 6907 bound_to 6896
  152.4595  134.5214  159.9793 H   0  0  0  0  0  0  0  0  0  0  0  0  # atno 6908 bound_to 6896
  151.5330  133.3407  159.2957 H   0  0  0  0  0  0  0  0  0  0  0  0  # atno 6909 bound_to 6896
  145.9535  140.7549  142.9493 H   0  0  0  0  0  0  0  0  0  0  0  0  # atno 7974 bound_to 7965
  156.1692  140.3123  155.8944 H   0  0  0  0  0  0  0  0  0  0  0  0  # atno 8008 bound_to 7997
  155.3622  140.0477  157.3063 H   0  0  0  0  0  0  0  0  0  0  0  0  # atno 8009 bound_to 7997
  154.5224  140.2202  155.8963 H   0  0  0  0  0  0  0  0  0  0  0  0  # atno 8010 bound_to 7997
  139.6038  144.0956  152.1771 H   0  0  0  0  0  0  0  0  0  0  0  0  # atno 10167 bound_to 10162
  156.8909  130.5687  149.5650 H   0  0  0  0  0  0  0  0  0  0  0  0  # atno 10718 bound_to 10713
  154.3851  135.2753  155.2188 H   0  0  0  0  0  0  0  0  0  0  0  0  # atno 10763 bound_to 10752
  154.4278  135.5984  153.6053 H   0  0  0  0  0  0  0  0  0  0  0  0  # atno 10764 bound_to 10752
  152.9833  135.5988  154.4099 H   0  0  0  0  0  0  0  0  0  0  0  0  # atno 10765 bound_to 10752
  141.1666  133.7194  156.8416 H   0  0  0  0  0  0  0  0  0  0  0  0  # atno 11005 bound_to 11000
  144.6800  140.2473  143.7336 LP  0  0  0  0  0  0  0  0  0  0  0  0  # atno 17320 bound_to 7965
  145.8138  139.2014  143.1977 LP  0  0  0  0  0  0  0  0  0  0  0  0  # atno 17321 bound_to 7965
  140.0558  144.5896  150.7300 LP  0  0  0  0  0  0  0  0  0  0  0  0  # atno 17342 bound_to 10162
  140.7269  143.2646  151.4088 LP  0  0  0  0  0  0  0  0  0  0  0  0  # atno 17343 bound_to 10162
  156.0629  130.5678  150.9230 LP  0  0  0  0  0  0  0  0  0  0  0  0  # atno 17370 bound_to 10713
  157.6084  131.0938  150.8838 LP  0  0  0  0  0  0  0  0  0  0  0  0  # atno 17371 bound_to 10713
  140.1979  134.8918  157.3136 LP  0  0  0  0  0  0  0  0  0  0  0  0  # atno 17394 bound_to 11000
  140.2219  134.4013  155.7562 LP  0  0  0  0  0  0  0  0  0  0  0  0  # atno 17395 bound_to 11000

$$$$
