AV-unprocessed.smi:234|AV-procd|sdf|1786|dock4
  -GOLD-   2262020343D 1   1.00000     0.00000
 Structure written by MMmdl.
 59 62  0  0  0  0  0  0  0  0  1 V2000
  151.7816  144.0938  157.3834 C   0  0  0  0  0  0  0  0  0  0  0  0
  151.0277  142.7807  157.6332 C   0  0  0  0  0  0  0  0  0  0  0  0
  150.7385  142.1040  156.4176 O   0  0  0  0  0  0  0  0  0  0  0  0
  149.9330  140.9425  156.5696 C   0  0  1  0  0  0  0  0  0  0  0  0
  148.4960  141.2212  157.0178 C   0  0  0  0  0  0  0  0  0  0  0  0
  148.1018  140.0854  156.0697 C   0  0  1  0  0  0  0  0  0  0  0  0
  146.8226  140.3044  155.3903 N   0  0  0  0  0  0  0  0  0  0  0  0
  145.6451  140.4023  156.2432 C   0  0  0  0  0  0  0  0  0  0  0  0
  146.5747  139.4955  154.3339 C   0  0  0  0  0  0  0  0  0  0  0  0
  147.0822  139.7924  153.1080 N   0  0  0  0  0  0  0  0  0  0  0  0
  146.8336  138.9885  152.0697 C   0  0  0  0  0  0  0  0  0  0  0  0
  146.1189  137.8614  152.0385 N   0  0  0  0  0  0  0  0  0  0  0  0
  145.6128  137.5600  153.2689 C   0  0  0  0  0  0  0  0  0  0  0  0
  145.7997  138.3127  154.4615 C   0  0  0  0  0  0  0  0  0  0  0  0
  145.1431  137.7010  155.5212 N   0  0  0  0  0  0  0  0  0  0  0  0
  144.5935  136.6461  154.9841 C   0  0  0  0  0  0  0  0  0  0  0  0
  144.8132  136.4905  153.6332 N   0  0  0  0  0  0  0  0  0  0  0  0
  144.3081  135.4173  152.7898 C   0  0  0  0  0  0  0  0  0  0  0  0
  145.4277  134.5209  152.1972 C   0  0  1  0  0  0  0  0  0  0  0  0
  146.1772  135.3048  151.2830 O   0  0  0  0  0  0  0  0  0  0  0  0
  146.3949  133.9751  153.2443 C   0  0  0  0  0  0  0  0  0  0  0  0
  146.8758  132.6734  152.6225 C   0  0  0  0  0  0  0  0  0  0  0  0
  145.6903  132.1621  152.0393 O   0  0  0  0  0  0  0  0  0  0  0  0
  144.9646  133.2381  151.4492 C   0  0  1  0  0  0  0  0  0  0  0  0
  143.4700  132.8901  151.5304 C   0  0  0  0  0  0  0  0  0  0  0  0
  149.3712  140.4096  155.2277 C   0  0  0  0  0  0  0  0  0  0  0  0
  149.2389  141.4562  154.1056 C   0  0  0  0  0  0  0  0  0  0  0  0
  150.1183  139.2135  154.6378 C   0  0  0  0  0  0  0  0  0  0  0  0
  151.9130  144.6453  158.3147 H   0  0  0  0  0  0  0  0  0  0  0  0
  151.2311  144.7337  156.6937 H   0  0  0  0  0  0  0  0  0  0  0  0
  152.7723  143.9208  156.9642 H   0  0  0  0  0  0  0  0  0  0  0  0
  151.5766  142.1379  158.3224 H   0  0  0  0  0  0  0  0  0  0  0  0
  150.0770  143.0090  158.1153 H   0  0  0  0  0  0  0  0  0  0  0  0
  150.4081  140.1522  157.1543 H   0  0  0  0  0  0  0  0  0  0  0  0
  148.3016  141.0234  158.0721 H   0  0  0  0  0  0  0  0  0  0  0  0
  148.1301  142.2037  156.7145 H   0  0  0  0  0  0  0  0  0  0  0  0
  148.1742  139.1170  156.5695 H   0  0  0  0  0  0  0  0  0  0  0  0
  144.7463  140.6053  155.6586 H   0  0  0  0  0  0  0  0  0  0  0  0
  145.7595  141.2138  156.9620 H   0  0  0  0  0  0  0  0  0  0  0  0
  145.4930  139.4751  156.7978 H   0  0  0  0  0  0  0  0  0  0  0  0
  147.2679  139.2929  151.1289 H   0  0  0  0  0  0  0  0  0  0  0  0
  143.9994  135.9519  155.5609 H   0  0  0  0  0  0  0  0  0  0  0  0
  143.6141  134.8233  153.3850 H   0  0  0  0  0  0  0  0  0  0  0  0
  143.7209  135.8684  151.9888 H   0  0  0  0  0  0  0  0  0  0  0  0
  146.9821  135.5664  151.7037 H   0  0  0  0  0  0  0  0  0  0  0  0
  147.2063  134.6587  153.4983 H   0  0  0  0  0  0  0  0  0  0  0  0
  145.8584  133.7392  154.1639 H   0  0  0  0  0  0  0  0  0  0  0  0
  147.6225  132.8567  151.8485 H   0  0  0  0  0  0  0  0  0  0  0  0
  147.2950  131.9834  153.3551 H   0  0  0  0  0  0  0  0  0  0  0  0
  145.2485  133.2885  150.3962 H   0  0  0  0  0  0  0  0  0  0  0  0
  142.8544  133.6672  151.0774 H   0  0  0  0  0  0  0  0  0  0  0  0
  143.1457  132.7534  152.5622 H   0  0  0  0  0  0  0  0  0  0  0  0
  143.2634  131.9615  150.9979 H   0  0  0  0  0  0  0  0  0  0  0  0
  148.7425  141.0467  153.2259 H   0  0  0  0  0  0  0  0  0  0  0  0
  150.2159  141.8153  153.7810 H   0  0  0  0  0  0  0  0  0  0  0  0
  148.6662  142.3287  154.4200 H   0  0  0  0  0  0  0  0  0  0  0  0
  149.6221  138.8270  153.7471 H   0  0  0  0  0  0  0  0  0  0  0  0
  150.1850  138.3919  155.3515 H   0  0  0  0  0  0  0  0  0  0  0  0
  151.1371  139.4814  154.3561 H   0  0  0  0  0  0  0  0  0  0  0  0
  1  2  1  0  0  0  0
  1 29  1  0  0  0  0
  1 30  1  0  0  0  0
  1 31  1  0  0  0  0
  2  3  1  0  0  0  0
  2 32  1  0  0  0  0
  2 33  1  0  0  0  0
  3  4  1  0  0  0  0
  4 26  1  0  0  0  0
  4  5  1  0  0  0  0
  4 34  1  0  0  0  0
  5  6  1  0  0  0  0
  5 35  1  0  0  0  0
  5 36  1  0  0  0  0
  6  7  1  0  0  0  0
  6 26  1  0  0  0  0
  6 37  1  0  0  0  0
  7  8  1  0  0  0  0
  7  9  1  0  0  0  0
  8 38  1  0  0  0  0
  8 39  1  0  0  0  0
  8 40  1  0  0  0  0
  9 14  1  0  0  0  0
  9 10  2  0  0  0  0
 10 11  1  0  0  0  0
 11 12  2  0  0  0  0
 11 41  1  0  0  0  0
 12 13  1  0  0  0  0
 13 17  1  0  0  0  0
 13 14  2  0  0  0  0
 14 15  1  0  0  0  0
 15 16  2  0  0  0  0
 16 17  1  0  0  0  0
 16 42  1  0  0  0  0
 17 18  1  0  0  0  0
 18 19  1  0  0  0  0
 18 43  1  0  0  0  0
 18 44  1  0  0  0  0
 19 24  1  0  0  0  0
 19 20  1  0  0  0  0
 19 21  1  0  0  0  0
 20 45  1  0  0  0  0
 21 22  1  0  0  0  0
 21 46  1  0  0  0  0
 21 47  1  0  0  0  0
 22 23  1  0  0  0  0
 22 48  1  0  0  0  0
 22 49  1  0  0  0  0
 23 24  1  0  0  0  0
 24 25  1  0  0  0  0
 24 50  1  0  0  0  0
 25 51  1  0  0  0  0
 25 52  1  0  0  0  0
 25 53  1  0  0  0  0
 26 27  1  0  0  0  0
 26 28  1  0  0  0  0
 27 54  1  0  0  0  0
 27 55  1  0  0  0  0
 27 56  1  0  0  0  0
 28 57  1  0  0  0  0
 28 58  1  0  0  0  0
 28 59  1  0  0  0  0
M  END
> <s_m_source_file>
AV-unprocessed.smi

> <i_m_source_file_index>
234

> <i_lp_mmshare_version>
43012

> <i_f3d_flags>
0

> <s_epik_input>
W0NIM11bQ0gyXU9bQ0BASF0oQzEoW0NIM10pW0NIM10pW0NIMl1bQ0BIXTFOKFtDSDNdKWMobltjSF1uMiljKGMyMyluW2NIXW4zW0NIMl1bQ0BAXTQoW09IXSlbQ0gyXVtDSDJdT1tDQEhdNFtDSDNd

> <s_epik_cmdline>
J2VwaWtfcHl0aG9uJywgJy1waCcsICc3LjAnLCAnLXRuJywgJzgnLCAnLW1hJywgJzIwMCcsICctbWV0YWxfYmluZGluZycsICctaW1hZScsICc8aW5maWxlLm1hZT4nLCAnLW9tYWUnLCAnPG91dGZpbGUubWFlPic=

> <r_lp_tautomer_probability>
1

> <r_epik_Ionization_Penalty>
0.00349132

> <r_epik_Ionization_Penalty_Charging>
0

> <r_epik_Ionization_Penalty_Neutral>
0.00349132

> <r_epik_State_Penalty>
0.00242418

> <r_epik_Charging_Adjusted_Penalty>
0.00242418

> <i_epik_Tot_Q>
0

> <i_epik_Tot_abs_Q>
0

> <r_epik_Metal_State_Penalty>
-0

> <b_epik_Metal_Only>
0

> <s_lp_Force_Field>
OPLS_2005

> <r_lp_Energy>
47.6345

> <b_lp_Chiralities_Consistent>
1

> <s_lp_Variant>
AV-unprocessed.smi:234-2

> <Gold.Version>
5.8.1

> <Gold.Id.Protein>
6NUR|6NUR_protein|mol2

> <Gold.PLP.Fitness>
39.0553

> <Gold.PLP.PLP>
-34.7829

> <Gold.PLP.part.hbond>
-1.0000

> <Gold.PLP.part.metal>
0.0000

> <Gold.PLP.part.buried>
-4.4165

> <Gold.PLP.part.nonpolar>
-29.8703

> <Gold.PLP.part.repulsive>
0.7851

> <Gold.PLP.ligand.clash>
0.0000

> <Gold.PLP.ligand.torsion>
0.9046

> <Gold.PLP.Chemscore.Hbond>
1.0000

> <Gold.PLP.Chemscore.CHOScore>
0.7924

> <Gold.PLP.Chemscore.Metal>
0.0000

> <Gold.Chemscore.Hbonds>
donor molecule, donor type, donor heavy atom, donor atom, acceptor molecule, acceptor atom, score
      L1  H    20    45       P1  7948  0.96
      L1  C    11    41       P1  7957  0.78

> <Gold.PLP.Chemscore.Internal.Correction>
0.7044

> <Gold.Rescore>
     Score         DG    S(hbond)    S(metal)    S(lipo)     H(rot)  DE(clash)    DE(int)     intcor
      7.68     -11.76       0.99        0.00      82.71       2.62       0.33       3.76       ----

> <Gold.Chemscore.Fitness>
7.6755

> <Gold.Chemscore.DG>
-11.7647

> <Gold.Chemscore.ZeroCoef>
-5.4800

> <Gold.Chemscore.Hbond>
0.9941

> <Gold.Chemscore.Metal>
0.0000

> <Gold.Chemscore.Lipo>
82.7066

> <Gold.Chemscore.Internal_Hbond>
0.0000

> <Gold.Chemscore.DEClash>
0.3326

> <Gold.Chemscore.DEInternal>
3.7566

> <Gold.Chemscore.Rot>
2.6219

> <Gold.Chemscore.Internal.Correction>
   9.000000E+99

> <Gold.Chemscore.Hbonds>
donor molecule, donor type, donor heavy atom, donor atom, acceptor molecule, acceptor atom, score
      L1  H    20    45       P1  7948  0.89

> <Gold.Chemscore.Hbond.Weighted>
-3.3201

> <Gold.Chemscore.Metal.Weighted>
-0.0000

> <Gold.Chemscore.Lipo.Weighted>
-9.6767

> <Gold.Chemscore.Internal_Hbond.Weighted>
0.0000

> <Gold.Chemscore.DEClash.Weighted>
0.3326

> <Gold.Chemscore.DEInternal.Weighted>
3.7566

> <Gold.Chemscore.Rot.Weighted>
6.7121

> <Gold.Chemscore.Internal.Correction.Weighted>
   9.000000E+99

> <Gold.Protein.RotatedTorsions>
[ 6907 6896 6895 6894 ] final   18.36 input  -60.11 | X-H torsion
[ 7974 7965 7964 7962 ] final  -22.41 input  175.53 | X-H torsion
[ 8008 7997 7996 7995 ] final  -66.30 input   59.86 | X-H torsion
[ 10167 10162 10161 10158 ] final   45.77 input  -65.29 | X-H torsion
[ 10718 10713 10712 10709 ] final   25.55 input   66.30 | X-H torsion
[ 10763 10752 10751 10750 ] final   89.77 input  -60.55 | X-H torsion
[ 11005 11000 10999 10996 ] final  120.26 input  -57.11 | X-H torsion

> <Gold.Protein.ActiveResidues>
 VAL166  LYS551  ARG553  GLY616  TRP617  ASP618  TYR619  PRO620  LYS621  CYS622 
 ASP623  PHE694  ASN695  SER759  ASP760  ASP761  ALA762  ILE779  LEU786  VAL792 
 PHE793  MET794  SER795  GLU796  ALA797  LYS798  CYS799  TRP800  GLU811  SER814 

> <Gold.Protein.RotatedAtoms>
  151.8641  135.0513  160.0472 H   0  0  0  0  0  0  0  0  0  0  0  0  # atno 6907 bound_to 6896
  152.2640  133.5318  159.5407 H   0  0  0  0  0  0  0  0  0  0  0  0  # atno 6908 bound_to 6896
  150.7127  134.0707  159.3905 H   0  0  0  0  0  0  0  0  0  0  0  0  # atno 6909 bound_to 6896
  146.1677  140.4475  142.8545 H   0  0  0  0  0  0  0  0  0  0  0  0  # atno 7974 bound_to 7965
  154.4725  140.0915  156.7181 H   0  0  0  0  0  0  0  0  0  0  0  0  # atno 8008 bound_to 7997
  155.4684  140.3463  155.4304 H   0  0  0  0  0  0  0  0  0  0  0  0  # atno 8009 bound_to 7997
  156.1063  140.1436  156.9387 H   0  0  0  0  0  0  0  0  0  0  0  0  # atno 8010 bound_to 7997
  140.3207  144.2708  150.6183 H   0  0  0  0  0  0  0  0  0  0  0  0  # atno 10167 bound_to 10162
  157.1948  130.6863  149.6164 H   0  0  0  0  0  0  0  0  0  0  0  0  # atno 10718 bound_to 10713
  153.1906  135.4458  155.0144 H   0  0  0  0  0  0  0  0  0  0  0  0  # atno 10763 bound_to 10752
  154.8088  135.3285  154.7364 H   0  0  0  0  0  0  0  0  0  0  0  0  # atno 10764 bound_to 10752
  153.7818  135.6977  153.4942 H   0  0  0  0  0  0  0  0  0  0  0  0  # atno 10765 bound_to 10752
  139.9178  134.9633  156.7780 H   0  0  0  0  0  0  0  0  0  0  0  0  # atno 11005 bound_to 11000
  144.8117  140.6396  143.6411 LP  0  0  0  0  0  0  0  0  0  0  0  0  # atno 17320 bound_to 7965
  145.4423  139.1534  143.3963 LP  0  0  0  0  0  0  0  0  0  0  0  0  # atno 17321 bound_to 7965
  140.5486  143.2210  151.7966 LP  0  0  0  0  0  0  0  0  0  0  0  0  # atno 17342 bound_to 10162
  139.4875  144.4507  151.9657 LP  0  0  0  0  0  0  0  0  0  0  0  0  # atno 17343 bound_to 10162
  155.9707  130.4602  150.6065 LP  0  0  0  0  0  0  0  0  0  0  0  0  # atno 17370 bound_to 10713
  157.3825  131.0783  151.1464 LP  0  0  0  0  0  0  0  0  0  0  0  0  # atno 17371 bound_to 10713
  140.6567  133.9682  155.7783 LP  0  0  0  0  0  0  0  0  0  0  0  0  # atno 17394 bound_to 11000
  141.0671  134.0260  157.3578 LP  0  0  0  0  0  0  0  0  0  0  0  0  # atno 17395 bound_to 11000

$$$$
