AV-unprocessed.smi:21|AV-procd|sdf|157|dock9
  -GOLD-   2262015393D 1   1.00000     0.00000
 Structure written by MMmdl.
 61 64  0  0  0  0  0  0  0  0  1 V2000
  151.5805  145.5589  159.6975 C   0  0  0  0  0  0  0  0  0  0  0  0
  152.2671  144.9941  160.8030 O   0  0  0  0  0  0  0  0  0  0  0  0
  151.8899  143.6517  161.0781 C   0  0  1  0  0  0  0  0  0  0  0  0
  152.0209  142.7517  159.8373 C   0  0  0  0  0  0  0  0  0  0  0  0
  152.8302  141.5482  160.3325 C   0  0  1  0  0  0  0  0  0  0  0  0
  153.5502  140.7916  159.1963 C   0  0  0  0  0  0  0  0  0  0  0  0
  152.8062  139.6230  158.7267 N   0  0  0  0  0  0  0  0  0  0  0  0
  153.2670  138.3061  159.1598 C   0  0  0  0  0  0  0  0  0  0  0  0
  152.3197  139.7214  157.4626 C   0  0  0  0  0  0  0  0  0  0  0  0
  152.9657  139.0988  156.4402 N   0  0  0  0  0  0  0  0  0  0  0  0
  152.5061  139.1990  155.1898 C   0  0  0  0  0  0  0  0  0  0  0  0
  151.4318  139.8533  154.7461 N   0  0  0  0  0  0  0  0  0  0  0  0
  150.7707  140.4711  155.7661 C   0  0  0  0  0  0  0  0  0  0  0  0
  151.1463  140.4606  157.1396 C   0  0  0  0  0  0  0  0  0  0  0  0
  150.2344  141.1997  157.8818 N   0  0  0  0  0  0  0  0  0  0  0  0
  149.3762  141.6304  156.9992 C   0  0  0  0  0  0  0  0  0  0  0  0
  149.6101  141.2255  155.7040 N   0  0  0  0  0  0  0  0  0  0  0  0
  148.8142  141.5517  154.5284 C   0  0  0  0  0  0  0  0  0  0  0  0
  147.2780  141.4761  154.7498 C   0  0  1  0  0  0  0  0  0  0  0  0
  146.5078  142.4625  153.8406 C   0  0  0  0  0  0  0  0  0  0  0  0
  145.1295  142.4571  154.1479 O   0  0  0  0  0  0  0  0  0  0  0  0
  146.7286  140.0315  154.6110 C   0  0  2  0  0  0  0  0  0  0  0  0
  147.4491  138.9864  155.4471 C   0  0  0  0  0  0  0  0  0  0  0  0
  147.0539  137.6808  154.7633 C   0  0  0  0  0  0  0  0  0  0  0  0
  146.8272  138.0081  153.3970 O   0  0  0  0  0  0  0  0  0  0  0  0
  146.9046  139.4174  153.2178 C   0  0  0  0  0  0  0  0  0  0  0  0
  153.7142  142.1114  161.3387 N   0  0  0  0  0  0  0  0  0  0  0  0
  154.3362  141.1159  162.2017 C   0  0  0  0  0  0  0  0  0  0  0  0
  152.8713  143.0316  162.0821 C   0  0  0  0  0  0  0  0  0  0  0  0
  150.8814  143.6144  161.4934 H   0  0  0  0  0  0  0  0  0  0  0  0
  152.1404  140.8678  160.8337 H   0  0  0  0  0  0  0  0  0  0  0  0
  151.9051  146.5895  159.5558 H   0  0  0  0  0  0  0  0  0  0  0  0
  150.5030  145.5679  159.8661 H   0  0  0  0  0  0  0  0  0  0  0  0
  151.7856  145.0151  158.7750 H   0  0  0  0  0  0  0  0  0  0  0  0
  151.0550  142.4639  159.4214 H   0  0  0  0  0  0  0  0  0  0  0  0
  152.5779  143.2759  159.0607 H   0  0  0  0  0  0  0  0  0  0  0  0
  153.7647  141.4820  158.3801 H   0  0  0  0  0  0  0  0  0  0  0  0
  154.5200  140.4370  159.5454 H   0  0  0  0  0  0  0  0  0  0  0  0
  152.5766  137.5249  158.8393 H   0  0  0  0  0  0  0  0  0  0  0  0
  153.3332  138.2535  160.2458 H   0  0  0  0  0  0  0  0  0  0  0  0
  154.2530  138.0872  158.7484 H   0  0  0  0  0  0  0  0  0  0  0  0
  153.0820  138.6815  154.4369 H   0  0  0  0  0  0  0  0  0  0  0  0
  148.5411  142.2550  157.2772 H   0  0  0  0  0  0  0  0  0  0  0  0
  149.1024  142.5467  154.1893 H   0  0  0  0  0  0  0  0  0  0  0  0
  149.1076  140.8780  153.7226 H   0  0  0  0  0  0  0  0  0  0  0  0
  147.0948  141.7851  155.7802 H   0  0  0  0  0  0  0  0  0  0  0  0
  146.9002  143.4756  153.9281 H   0  0  0  0  0  0  0  0  0  0  0  0
  146.5965  142.1811  152.7919 H   0  0  0  0  0  0  0  0  0  0  0  0
  144.7641  141.6286  153.8771 H   0  0  0  0  0  0  0  0  0  0  0  0
  145.6715  140.0074  154.8790 H   0  0  0  0  0  0  0  0  0  0  0  0
  148.5295  139.1267  155.3842 H   0  0  0  0  0  0  0  0  0  0  0  0
  147.1647  139.0011  156.4995 H   0  0  0  0  0  0  0  0  0  0  0  0
  147.8200  136.9120  154.8664 H   0  0  0  0  0  0  0  0  0  0  0  0
  146.1255  137.2940  155.1850 H   0  0  0  0  0  0  0  0  0  0  0  0
  146.1578  139.7578  152.5015 H   0  0  0  0  0  0  0  0  0  0  0  0
  147.8888  139.6568  152.8128 H   0  0  0  0  0  0  0  0  0  0  0  0
  154.9405  141.5992  162.9701 H   0  0  0  0  0  0  0  0  0  0  0  0
  154.9937  140.4596  161.6323 H   0  0  0  0  0  0  0  0  0  0  0  0
  153.5863  140.4989  162.6984 H   0  0  0  0  0  0  0  0  0  0  0  0
  153.4661  143.7806  162.6059 H   0  0  0  0  0  0  0  0  0  0  0  0
  152.3004  142.4857  162.8351 H   0  0  0  0  0  0  0  0  0  0  0  0
  1  2  1  0  0  0  0
  1 32  1  0  0  0  0
  1 33  1  0  0  0  0
  1 34  1  0  0  0  0
  2  3  1  0  0  0  0
  3 30  1  0  0  0  0
  3 29  1  0  0  0  0
  3  4  1  0  0  0  0
  4  5  1  0  0  0  0
  4 35  1  0  0  0  0
  4 36  1  0  0  0  0
  5 31  1  0  0  0  0
  5  6  1  0  0  0  0
  5 27  1  0  0  0  0
  6  7  1  0  0  0  0
  6 37  1  0  0  0  0
  6 38  1  0  0  0  0
  7  8  1  0  0  0  0
  7  9  1  0  0  0  0
  8 39  1  0  0  0  0
  8 40  1  0  0  0  0
  8 41  1  0  0  0  0
  9 14  1  0  0  0  0
  9 10  2  0  0  0  0
 10 11  1  0  0  0  0
 11 12  2  0  0  0  0
 11 42  1  0  0  0  0
 12 13  1  0  0  0  0
 13 17  1  0  0  0  0
 13 14  2  0  0  0  0
 14 15  1  0  0  0  0
 15 16  2  0  0  0  0
 16 17  1  0  0  0  0
 16 43  1  0  0  0  0
 17 18  1  0  0  0  0
 18 19  1  0  0  0  0
 18 44  1  0  0  0  0
 18 45  1  0  0  0  0
 19 20  1  0  0  0  0
 19 22  1  0  0  0  0
 19 46  1  0  0  0  0
 20 21  1  0  0  0  0
 20 47  1  0  0  0  0
 20 48  1  0  0  0  0
 21 49  1  0  0  0  0
 22 26  1  0  0  0  0
 22 23  1  0  0  0  0
 22 50  1  0  0  0  0
 23 24  1  0  0  0  0
 23 51  1  0  0  0  0
 23 52  1  0  0  0  0
 24 25  1  0  0  0  0
 24 53  1  0  0  0  0
 24 54  1  0  0  0  0
 25 26  1  0  0  0  0
 26 55  1  0  0  0  0
 26 56  1  0  0  0  0
 27 28  1  0  0  0  0
 27 29  1  0  0  0  0
 28 57  1  0  0  0  0
 28 58  1  0  0  0  0
 28 59  1  0  0  0  0
 29 60  1  0  0  0  0
 29 61  1  0  0  0  0
M  END
> <s_m_source_file>
AV-unprocessed.smi

> <i_m_source_file_index>
21

> <i_lp_mmshare_version>
43012

> <i_f3d_flags>
0

> <s_epik_input>
W0NIM11PW0NASF0xW0NIMl1bQ0BIXShOKFtDSDNdKVtDSDJdMSlbQ0gyXU4oW0NIM10pYyhuW2NIXW4yKWMoYzIzKW5bY0hdbjNbQ0gyXVtDQEhdKFtDSDJdW09IXSlbQ0BASF00W0NIMl1bQ0gyXU9bQ0gyXTQ=

> <s_epik_cmdline>
J2VwaWtfcHl0aG9uJywgJy1waCcsICc3LjAnLCAnLXRuJywgJzgnLCAnLW1hJywgJzIwMCcsICctbWV0YWxfYmluZGluZycsICctaW1hZScsICc8aW5maWxlLm1hZT4nLCAnLW9tYWUnLCAnPG91dGZpbGUubWFlPic=

> <r_lp_tautomer_probability>
1

> <r_epik_Ionization_Penalty>
2.17574

> <r_epik_Ionization_Penalty_Charging>
0

> <r_epik_Ionization_Penalty_Neutral>
2.17574

> <r_epik_State_Penalty>
2.31336

> <r_epik_Charging_Adjusted_Penalty>
2.31336

> <i_epik_Tot_Q>
0

> <i_epik_Tot_abs_Q>
0

> <r_epik_Metal_State_Penalty>
2.31025

> <b_epik_Metal_Only>
0

> <s_lp_Force_Field>
OPLS_2005

> <r_lp_Energy>
71.0879

> <b_lp_Chiralities_Consistent>
1

> <s_lp_Variant>
AV-unprocessed.smi:21-37

> <Gold.Version>
5.8.1

> <Gold.Id.Protein>
6NUR|6NUR_protein|mol2

> <Gold.PLP.Fitness>
56.7708

> <Gold.PLP.PLP>
-51.9994

> <Gold.PLP.part.hbond>
-3.6459

> <Gold.PLP.part.metal>
0.0000

> <Gold.PLP.part.buried>
-4.6051

> <Gold.PLP.part.nonpolar>
-44.5307

> <Gold.PLP.part.repulsive>
0.6643

> <Gold.PLP.ligand.clash>
0.0000

> <Gold.PLP.ligand.torsion>
2.2772

> <Gold.PLP.Chemscore.Hbond>
2.7238

> <Gold.PLP.Chemscore.CHOScore>
0.0000

> <Gold.PLP.Chemscore.Metal>
0.0000

> <Gold.Chemscore.Hbonds>
donor molecule, donor type, donor heavy atom, donor atom, acceptor molecule, acceptor atom, score
      L1  H    21    49       P1 10175  0.69
      P1  H  7989  7998       L1    12  1.00
      P1  H  7997  8010       L1    10  0.90

> <Gold.PLP.Chemscore.Internal.Correction>
1.1545

> <Gold.Rescore>
     Score         DG    S(hbond)    S(metal)    S(lipo)     H(rot)  DE(clash)    DE(int)     intcor
     11.58     -14.29       1.11        0.00     114.88       3.26       0.34       2.38       ----

> <Gold.Chemscore.Fitness>
11.5762

> <Gold.Chemscore.DG>
-14.2910

> <Gold.Chemscore.ZeroCoef>
-5.4800

> <Gold.Chemscore.Hbond>
1.1107

> <Gold.Chemscore.Metal>
0.0000

> <Gold.Chemscore.Lipo>
114.8789

> <Gold.Chemscore.Internal_Hbond>
0.0000

> <Gold.Chemscore.DEClash>
0.3360

> <Gold.Chemscore.DEInternal>
2.3789

> <Gold.Chemscore.Rot>
3.2576

> <Gold.Chemscore.Internal.Correction>
   9.000000E+99

> <Gold.Chemscore.Hbonds>
donor molecule, donor type, donor heavy atom, donor atom, acceptor molecule, acceptor atom, score
      L1  H    21    49       P1 10175  0.09
      P1  H  7989  7998       L1    12  0.73
      P1  H  7997  8010       L1    10  0.05

> <Gold.Chemscore.Hbond.Weighted>
-3.7097

> <Gold.Chemscore.Metal.Weighted>
-0.0000

> <Gold.Chemscore.Lipo.Weighted>
-13.4408

> <Gold.Chemscore.Internal_Hbond.Weighted>
0.0000

> <Gold.Chemscore.DEClash.Weighted>
0.3360

> <Gold.Chemscore.DEInternal.Weighted>
2.3789

> <Gold.Chemscore.Rot.Weighted>
8.3395

> <Gold.Chemscore.Internal.Correction.Weighted>
   9.000000E+99

> <Gold.Protein.RotatedTorsions>
[ 6907 6896 6895 6894 ] final -149.44 input  -60.11 | X-H torsion
[ 7974 7965 7964 7962 ] final -162.53 input  175.53 | X-H torsion
[ 8008 7997 7996 7995 ] final   75.94 input   59.86 | X-H torsion
[ 10167 10162 10161 10158 ] final -104.31 input  -65.29 | X-H torsion
[ 10718 10713 10712 10709 ] final   97.02 input   66.30 | X-H torsion
[ 10763 10752 10751 10750 ] final  -27.20 input  -60.55 | X-H torsion
[ 11005 11000 10999 10996 ] final -135.12 input  -57.11 | X-H torsion

> <Gold.Protein.ActiveResidues>
 VAL166  LYS551  ARG553  GLY616  TRP617  ASP618  TYR619  PRO620  LYS621  CYS622 
 ASP623  PHE694  ASN695  SER759  ASP760  ASP761  ALA762  ILE779  LEU786  VAL792 
 PHE793  MET794  SER795  GLU796  ALA797  LYS798  CYS799  TRP800  GLU811  SER814 

> <Gold.Protein.RotatedAtoms>
  151.1841  133.4707  159.2594 H   0  0  0  0  0  0  0  0  0  0  0  0  # atno 6907 bound_to 6896
  151.1229  135.0089  159.8557 H   0  0  0  0  0  0  0  0  0  0  0  0  # atno 6908 bound_to 6896
  152.5457  134.1750  159.8665 H   0  0  0  0  0  0  0  0  0  0  0  0  # atno 6909 bound_to 6896
  144.7354  140.3239  143.6165 H   0  0  0  0  0  0  0  0  0  0  0  0  # atno 7974 bound_to 7965
  155.8201  140.3470  155.5509 H   0  0  0  0  0  0  0  0  0  0  0  0  # atno 8008 bound_to 7997
  155.8351  140.0933  157.1789 H   0  0  0  0  0  0  0  0  0  0  0  0  # atno 8009 bound_to 7997
  154.4004  140.1405  156.3648 H   0  0  0  0  0  0  0  0  0  0  0  0  # atno 8010 bound_to 7997
  140.2106  143.3749  152.1054 H   0  0  0  0  0  0  0  0  0  0  0  0  # atno 10167 bound_to 10162
  157.6919  131.0596  150.4580 H   0  0  0  0  0  0  0  0  0  0  0  0  # atno 10718 bound_to 10713
  153.7282  135.6940  153.4996 H   0  0  0  0  0  0  0  0  0  0  0  0  # atno 10763 bound_to 10752
  153.2155  135.4388  155.0428 H   0  0  0  0  0  0  0  0  0  0  0  0  # atno 10764 bound_to 10752
  154.8262  135.3447  154.6813 H   0  0  0  0  0  0  0  0  0  0  0  0  # atno 10765 bound_to 10752
  140.8927  134.1791  157.4516 H   0  0  0  0  0  0  0  0  0  0  0  0  # atno 11005 bound_to 11000
  145.7541  139.1803  143.2305 LP  0  0  0  0  0  0  0  0  0  0  0  0  # atno 17320 bound_to 7965
  146.1038  140.7512  142.9536 LP  0  0  0  0  0  0  0  0  0  0  0  0  # atno 17321 bound_to 7965
  139.5181  144.7001  151.5517 LP  0  0  0  0  0  0  0  0  0  0  0  0  # atno 17342 bound_to 10162
  140.6326  143.9046  150.6619 LP  0  0  0  0  0  0  0  0  0  0  0  0  # atno 17343 bound_to 10162
  156.4926  130.4099  149.6398 LP  0  0  0  0  0  0  0  0  0  0  0  0  # atno 17370 bound_to 10713
  156.3402  130.7378  151.2322 LP  0  0  0  0  0  0  0  0  0  0  0  0  # atno 17371 bound_to 10713
  139.8731  134.9865  156.5328 LP  0  0  0  0  0  0  0  0  0  0  0  0  # atno 17394 bound_to 11000
  140.8327  133.8266  155.8999 LP  0  0  0  0  0  0  0  0  0  0  0  0  # atno 17395 bound_to 11000

$$$$
