AV-unprocessed.smi:100|AV-procd|sdf|897|dock1
  -GOLD-   2262017393D 1   1.00000     0.00000
 Structure written by MMmdl.
 31 33  0  0  0  0  0  0  0  0  1 V2000
  150.6772  144.8478  158.1041 N   0  0  0  0  0  0  0  0  0  0  0  0
  151.3367  143.8114  158.6397 C   0  0  0  0  0  0  0  0  0  0  0  0
  152.0769  144.0250  159.7533 N   0  0  0  0  0  0  0  0  0  0  0  0
  152.7429  143.0063  160.3078 C   0  0  0  0  0  0  0  0  0  0  0  0
  152.7985  141.7304  159.9146 N   0  0  0  0  0  0  0  0  0  0  0  0
  152.0534  141.5208  158.7899 C   0  0  0  0  0  0  0  0  0  0  0  0
  151.2946  142.5029  158.0960 C   0  0  0  0  0  0  0  0  0  0  0  0
  150.6608  141.9260  157.0031 N   0  0  0  0  0  0  0  0  0  0  0  0
  151.0280  140.6730  157.0527 C   0  0  0  0  0  0  0  0  0  0  0  0
  151.8690  140.3458  158.0950 N   0  0  0  0  0  0  0  0  0  0  0  0
  152.4561  139.0172  158.4373 C   0  0  2  0  0  0  0  0  0  0  0  0
  153.3189  138.6643  157.3974 O   0  0  0  0  0  0  0  0  0  0  0  0
  153.0987  137.3168  156.9937 C   0  0  1  0  0  0  0  0  0  0  0  0
  154.0199  136.3867  157.8069 C   0  0  0  0  0  0  0  0  0  0  0  0
  153.8745  135.0552  157.3623 O   0  0  0  0  0  0  0  0  0  0  0  0
  151.6122  137.1003  157.2865 C   0  0  2  0  0  0  0  0  0  0  0  0
  150.8906  137.5518  156.2591 F   0  0  0  0  0  0  0  0  0  0  0  0
  151.3407  137.9618  158.5096 C   0  0  1  0  0  0  0  0  0  0  0  0
  151.4109  137.1900  159.6919 O   0  0  0  0  0  0  0  0  0  0  0  0
  150.1181  144.7121  157.2742 H   0  0  0  0  0  0  0  0  0  0  0  0
  150.7409  145.7609  158.5301 H   0  0  0  0  0  0  0  0  0  0  0  0
  153.3131  143.2478  161.1928 H   0  0  0  0  0  0  0  0  0  0  0  0
  150.6926  139.9480  156.3252 H   0  0  0  0  0  0  0  0  0  0  0  0
  153.0029  139.1664  159.3698 H   0  0  0  0  0  0  0  0  0  0  0  0
  153.2972  137.1964  155.9276 H   0  0  0  0  0  0  0  0  0  0  0  0
  155.0653  136.6901  157.7449 H   0  0  0  0  0  0  0  0  0  0  0  0
  153.7406  136.4077  158.8606 H   0  0  0  0  0  0  0  0  0  0  0  0
  154.5935  134.5445  157.7017 H   0  0  0  0  0  0  0  0  0  0  0  0
  151.3398  136.0521  157.4168 H   0  0  0  0  0  0  0  0  0  0  0  0
  150.3538  138.4259  158.4674 H   0  0  0  0  0  0  0  0  0  0  0  0
  151.1969  137.7472  160.4252 H   0  0  0  0  0  0  0  0  0  0  0  0
  1  2  1  0  0  0  0
  1 20  1  0  0  0  0
  1 21  1  0  0  0  0
  2  7  1  0  0  0  0
  2  3  2  0  0  0  0
  3  4  1  0  0  0  0
  4  5  2  0  0  0  0
  4 22  1  0  0  0  0
  5  6  1  0  0  0  0
  6 10  1  0  0  0  0
  6  7  2  0  0  0  0
  7  8  1  0  0  0  0
  8  9  2  0  0  0  0
  9 10  1  0  0  0  0
  9 23  1  0  0  0  0
 10 11  1  0  0  0  0
 11 18  1  0  0  0  0
 11 12  1  0  0  0  0
 11 24  1  0  0  0  0
 12 13  1  0  0  0  0
 13 14  1  0  0  0  0
 13 16  1  0  0  0  0
 13 25  1  0  0  0  0
 14 15  1  0  0  0  0
 14 26  1  0  0  0  0
 14 27  1  0  0  0  0
 15 28  1  0  0  0  0
 16 17  1  0  0  0  0
 16 18  1  0  0  0  0
 16 29  1  0  0  0  0
 18 19  1  0  0  0  0
 18 30  1  0  0  0  0
 19 31  1  0  0  0  0
M  END
> <s_m_source_file>
AV-unprocessed.smi

> <i_m_source_file_index>
100

> <i_lp_mmshare_version>
43012

> <i_f3d_flags>
0

> <s_epik_input>
bjFbY0hdbmMoW05IMl0pYyhjMTIpbltjSF1uMltDQEBIXTNPW0NAQEhdKFtDSDJdW09IXSlbQ0BIXShGKVtDQEhdM1tPSF0=

> <s_epik_cmdline>
J2VwaWtfcHl0aG9uJywgJy1waCcsICc3LjAnLCAnLXRuJywgJzgnLCAnLW1hJywgJzIwMCcsICctbWV0YWxfYmluZGluZycsICctaW1hZScsICc8aW5maWxlLm1hZT4nLCAnLW9tYWUnLCAnPG91dGZpbGUubWFlPic=

> <r_lp_tautomer_probability>
1

> <r_epik_Ionization_Penalty>
0.000750324

> <r_epik_Ionization_Penalty_Charging>
0

> <r_epik_Ionization_Penalty_Neutral>
0.000750324

> <r_epik_State_Penalty>
-0

> <r_epik_Charging_Adjusted_Penalty>
0

> <i_epik_Tot_Q>
0

> <i_epik_Tot_abs_Q>
0

> <r_epik_Metal_State_Penalty>
-0

> <b_epik_Metal_Only>
0

> <s_epik_Chemistry_Notes>
This compound contains an acetal/aminal-like group ( X-CH(R)-Y where X, Y are N, S, or O) that may be acid/base labile, releasing an aldehyde.

> <s_lp_Force_Field>
OPLS_2005

> <r_lp_Energy>
27.7777

> <b_lp_Chiralities_Consistent>
1

> <s_lp_Variant>
AV-unprocessed.smi:100-1

> <Gold.Version>
5.8.1

> <Gold.Id.Protein>
6NUR|6NUR_protein|mol2

> <Gold.PLP.Fitness>
38.8941

> <Gold.PLP.PLP>
-27.1158

> <Gold.PLP.part.hbond>
-4.6966

> <Gold.PLP.part.metal>
0.0000

> <Gold.PLP.part.buried>
-7.2552

> <Gold.PLP.part.nonpolar>
-16.4154

> <Gold.PLP.part.repulsive>
0.2269

> <Gold.PLP.ligand.clash>
0.0000

> <Gold.PLP.ligand.torsion>
0.1064

> <Gold.PLP.Chemscore.Hbond>
3.9913

> <Gold.PLP.Chemscore.CHOScore>
0.0000

> <Gold.PLP.Chemscore.Metal>
0.0000

> <Gold.Chemscore.Hbonds>
donor molecule, donor type, donor heavy atom, donor atom, acceptor molecule, acceptor atom, score
      L1  H     1    20       P1  8028  1.00
      P1  H  6896  6908       L1    19  0.91
      P1  H  7997  8008       L1    12  1.00
      P1  H 10752 10765       L1    15  1.00

> <Gold.PLP.Chemscore.Internal.Correction>
0.0174

> <Gold.Rescore>
     Score         DG    S(hbond)    S(metal)    S(lipo)     H(rot)  DE(clash)    DE(int)     intcor
      9.82     -10.03       2.97        0.00      23.86       3.19       0.00       0.21       ----

> <Gold.Chemscore.Fitness>
9.8174

> <Gold.Chemscore.DG>
-10.0260

> <Gold.Chemscore.ZeroCoef>
-5.4800

> <Gold.Chemscore.Hbond>
2.9704

> <Gold.Chemscore.Metal>
0.0000

> <Gold.Chemscore.Lipo>
23.8607

> <Gold.Chemscore.Internal_Hbond>
0.0000

> <Gold.Chemscore.DEClash>
0.0000

> <Gold.Chemscore.DEInternal>
0.2086

> <Gold.Chemscore.Rot>
3.1901

> <Gold.Chemscore.Internal.Correction>
   9.000000E+99

> <Gold.Chemscore.Hbonds>
donor molecule, donor type, donor heavy atom, donor atom, acceptor molecule, acceptor atom, score
      L1  H     1    20       P1  8028  0.25
      P1  H  6896  6908       L1    19  0.84
      P1  H  7997  8008       L1    12  0.90
      P1  H 10752 10765       L1    15  0.25

> <Gold.Chemscore.Hbond.Weighted>
-9.9210

> <Gold.Chemscore.Metal.Weighted>
-0.0000

> <Gold.Chemscore.Lipo.Weighted>
-2.7917

> <Gold.Chemscore.Internal_Hbond.Weighted>
0.0000

> <Gold.Chemscore.DEClash.Weighted>
0.0000

> <Gold.Chemscore.DEInternal.Weighted>
0.2086

> <Gold.Chemscore.Rot.Weighted>
8.1667

> <Gold.Chemscore.Internal.Correction.Weighted>
   9.000000E+99

> <Gold.Protein.RotatedTorsions>
[ 6907 6896 6895 6894 ] final -113.34 input  -60.11 | X-H torsion
[ 7974 7965 7964 7962 ] final   68.74 input  175.53 | X-H torsion
[ 8008 7997 7996 7995 ] final  -72.20 input   59.86 | X-H torsion
[ 10167 10162 10161 10158 ] final    1.30 input  -65.29 | X-H torsion
[ 10718 10713 10712 10709 ] final  -36.73 input   66.30 | X-H torsion
[ 10763 10752 10751 10750 ] final  -97.08 input  -60.55 | X-H torsion
[ 11005 11000 10999 10996 ] final   65.19 input  -57.11 | X-H torsion

> <Gold.Protein.ActiveResidues>
 VAL166  LYS551  ARG553  GLY616  TRP617  ASP618  TYR619  PRO620  LYS621  CYS622 
 ASP623  PHE694  ASN695  SER759  ASP760  ASP761  ALA762  ILE779  LEU786  VAL792 
 PHE793  MET794  SER795  GLU796  ALA797  LYS798  CYS799  TRP800  GLU811  SER814 

> <Gold.Protein.RotatedAtoms>
  150.7822  133.8959  159.3326 H   0  0  0  0  0  0  0  0  0  0  0  0  # atno 6907 bound_to 6896
  151.6818  135.0958  160.0227 H   0  0  0  0  0  0  0  0  0  0  0  0  # atno 6908 bound_to 6896
  152.3877  133.6595  159.6247 H   0  0  0  0  0  0  0  0  0  0  0  0  # atno 6909 bound_to 6896
  145.7989  139.2972  143.1166 H   0  0  0  0  0  0  0  0  0  0  0  0  # atno 7974 bound_to 7965
  154.5147  140.0801  156.8059 H   0  0  0  0  0  0  0  0  0  0  0  0  # atno 8008 bound_to 7997
  155.3706  140.3422  155.4225 H   0  0  0  0  0  0  0  0  0  0  0  0  # atno 8009 bound_to 7997
  156.1614  140.1590  156.8592 H   0  0  0  0  0  0  0  0  0  0  0  0  # atno 8010 bound_to 7997
  140.6689  143.7103  150.7882 H   0  0  0  0  0  0  0  0  0  0  0  0  # atno 10167 bound_to 10162
  156.3235  130.4269  149.7938 H   0  0  0  0  0  0  0  0  0  0  0  0  # atno 10718 bound_to 10713
  154.7296  135.5060  153.8943 H   0  0  0  0  0  0  0  0  0  0  0  0  # atno 10763 bound_to 10752
  153.0937  135.6666  153.9812 H   0  0  0  0  0  0  0  0  0  0  0  0  # atno 10764 bound_to 10752
  153.9616  135.3047  155.3412 H   0  0  0  0  0  0  0  0  0  0  0  0  # atno 10765 bound_to 10752
  139.9910  134.6591  156.0091 H   0  0  0  0  0  0  0  0  0  0  0  0  # atno 11005 bound_to 11000
  145.9899  140.8612  143.0072 LP  0  0  0  0  0  0  0  0  0  0  0  0  # atno 17320 bound_to 7965
  144.6771  140.2200  143.7367 LP  0  0  0  0  0  0  0  0  0  0  0  0  # atno 17321 bound_to 7965
  140.0785  143.4992  152.2542 LP  0  0  0  0  0  0  0  0  0  0  0  0  # atno 17342 bound_to 10162
  139.5949  144.7563  151.3311 LP  0  0  0  0  0  0  0  0  0  0  0  0  # atno 17343 bound_to 10162
  156.5237  130.8226  151.3213 LP  0  0  0  0  0  0  0  0  0  0  0  0  # atno 17370 bound_to 10713
  157.7416  130.9874  150.2460 LP  0  0  0  0  0  0  0  0  0  0  0  0  # atno 17371 bound_to 10713
  141.1566  133.6542  156.4181 LP  0  0  0  0  0  0  0  0  0  0  0  0  # atno 17394 bound_to 11000
  140.4908  134.6577  157.5210 LP  0  0  0  0  0  0  0  0  0  0  0  0  # atno 17395 bound_to 11000

$$$$
