AV-unprocessed.smi:3037|AV-procd|sdf|11587|dock5
  -GOLD-   2272016563D 1   1.00000     0.00000
 Structure written by MMmdl.
 47 48  0  0  0  0  0  0  0  0  2 V2000
  141.7705  141.3435  156.2475 C   0  0  0  0  0  0  0  0  0  0  0  0
  143.2403  141.2759  155.9484 C   0  0  0  0  0  0  0  0  0  0  0  0
  144.1336  140.1928  156.1860 C   0  0  0  0  0  0  0  0  0  0  0  0
  145.3729  140.4549  155.8037 N   0  0  0  0  0  0  0  0  0  0  0  0
  145.3152  141.7106  155.3119 N   0  0  0  0  0  0  0  0  0  0  0  0
  146.5150  142.3403  154.7906 C   0  0  0  0  0  0  0  0  0  0  0  0
  147.7711  141.4500  154.9334 C   0  0  1  0  0  0  0  0  0  0  0  0
  147.7821  140.2731  153.9431 C   0  0  0  0  0  0  0  0  0  0  0  0
  149.0069  142.2446  154.7553 N   0  3  0  0  0  0  0  0  0  0  0  0
  150.1784  141.7791  155.5272 C   0  0  0  0  0  0  0  0  0  0  0  0
  149.9582  141.9943  157.0353 C   0  0  0  0  0  0  0  0  0  0  0  0
  151.2616  142.0698  157.8502 C   0  0  0  0  0  0  0  0  0  0  0  0
  151.9415  141.0505  157.9780 O   0  0  0  0  0  0  0  0  0  0  0  0
  151.6256  143.2552  158.3985 N   0  0  0  0  0  0  0  0  0  0  0  0
  150.7827  144.4564  158.3217 C   0  0  0  0  0  0  0  0  0  0  0  0
  150.2328  144.7711  159.7254 C   0  0  0  0  0  0  0  0  0  0  0  0
  151.3769  144.9284  160.7442 C   0  0  0  0  0  0  0  0  0  0  0  0
  152.3572  143.7421  160.6841 C   0  0  0  0  0  0  0  0  0  0  0  0
  152.8119  143.4802  159.2371 C   0  0  0  0  0  0  0  0  0  0  0  0
  144.0399  142.2292  155.3844 C   0  0  0  0  0  0  0  0  0  0  0  0
  141.4302  140.4727  156.8081 H   0  0  0  0  0  0  0  0  0  0  0  0
  141.1767  141.3900  155.3346 H   0  0  0  0  0  0  0  0  0  0  0  0
  141.5206  142.2241  156.8398 H   0  0  0  0  0  0  0  0  0  0  0  0
  143.9185  139.2287  156.6225 H   0  0  0  0  0  0  0  0  0  0  0  0
  146.3509  142.5947  153.7419 H   0  0  0  0  0  0  0  0  0  0  0  0
  146.6452  143.2837  155.3204 H   0  0  0  0  0  0  0  0  0  0  0  0
  147.7877  141.0245  155.9378 H   0  0  0  0  0  0  0  0  0  0  0  0
  146.9459  139.5948  154.1137 H   0  0  0  0  0  0  0  0  0  0  0  0
  148.6952  139.6853  154.0427 H   0  0  0  0  0  0  0  0  0  0  0  0
  147.7223  140.6226  152.9118 H   0  0  0  0  0  0  0  0  0  0  0  0
  149.2577  142.1984  153.7778 H   0  0  0  0  0  0  0  0  0  0  0  0
  150.3555  140.7225  155.3242 H   0  0  0  0  0  0  0  0  0  0  0  0
  151.0616  142.3275  155.1956 H   0  0  0  0  0  0  0  0  0  0  0  0
  149.4022  142.9213  157.1823 H   0  0  0  0  0  0  0  0  0  0  0  0
  149.3472  141.1807  157.4281 H   0  0  0  0  0  0  0  0  0  0  0  0
  151.3790  145.2934  157.9559 H   0  0  0  0  0  0  0  0  0  0  0  0
  149.9564  144.3527  157.6173 H   0  0  0  0  0  0  0  0  0  0  0  0
  149.6301  145.6794  159.6980 H   0  0  0  0  0  0  0  0  0  0  0  0
  149.5675  143.9674  160.0442 H   0  0  0  0  0  0  0  0  0  0  0  0
  151.9202  145.8496  160.5295 H   0  0  0  0  0  0  0  0  0  0  0  0
  150.9742  145.0360  161.7517 H   0  0  0  0  0  0  0  0  0  0  0  0
  153.2207  143.9402  161.3196 H   0  0  0  0  0  0  0  0  0  0  0  0
  151.8762  142.8482  161.0835 H   0  0  0  0  0  0  0  0  0  0  0  0
  153.5286  142.6610  159.2176 H   0  0  0  0  0  0  0  0  0  0  0  0
  153.3561  144.3464  158.8580 H   0  0  0  0  0  0  0  0  0  0  0  0
  143.8091  143.2242  155.0335 H   0  0  0  0  0  0  0  0  0  0  0  0
  148.8125  143.2077  154.9897 H   0  0  0  0  0  0  0  0  0  0  0  0
  1  2  1  0  0  0  0
  1 21  1  0  0  0  0
  1 22  1  0  0  0  0
  1 23  1  0  0  0  0
  2 20  2  0  0  0  0
  2  3  1  0  0  0  0
  3  4  2  0  0  0  0
  3 24  1  0  0  0  0
  4  5  1  0  0  0  0
  5  6  1  0  0  0  0
  5 20  1  0  0  0  0
  6  7  1  0  0  0  0
  6 25  1  0  0  0  0
  6 26  1  0  0  0  0
  7  8  1  0  0  0  0
  7  9  1  0  0  0  0
  7 27  1  0  0  0  0
  8 28  1  0  0  0  0
  8 29  1  0  0  0  0
  8 30  1  0  0  0  0
  9 10  1  0  0  0  0
  9 31  1  0  0  0  0
  9 47  1  0  0  0  0
 10 11  1  0  0  0  0
 10 32  1  0  0  0  0
 10 33  1  0  0  0  0
 11 12  1  0  0  0  0
 11 34  1  0  0  0  0
 11 35  1  0  0  0  0
 12 13  2  0  0  0  0
 12 14  1  0  0  0  0
 14 19  1  0  0  0  0
 14 15  1  0  0  0  0
 15 16  1  0  0  0  0
 15 36  1  0  0  0  0
 15 37  1  0  0  0  0
 16 17  1  0  0  0  0
 16 38  1  0  0  0  0
 16 39  1  0  0  0  0
 17 18  1  0  0  0  0
 17 40  1  0  0  0  0
 17 41  1  0  0  0  0
 18 19  1  0  0  0  0
 18 42  1  0  0  0  0
 18 43  1  0  0  0  0
 19 44  1  0  0  0  0
 19 45  1  0  0  0  0
 20 46  1  0  0  0  0
M  CHG  1   9   1
M  END
> <s_m_source_file>
AV-unprocessed.smi

> <i_m_source_file_index>
3037

> <i_lp_mmshare_version>
43012

> <i_f3d_flags>
0

> <s_epik_input>
W0NIM11jMVtjSF1ubihbY0hdMSlbQ0gyXVtDQEhdKFtDSDNdKVtOSF1bQ0gyXVtDSDJdQyg9TylOMltDSDJdW0NIMl1bQ0gyXVtDSDJdW0NIMl0y

> <s_epik_cmdline>
J2VwaWtfcHl0aG9uJywgJy1waCcsICc3LjAnLCAnLXRuJywgJzgnLCAnLW1hJywgJzIwMCcsICctbWV0YWxfYmluZGluZycsICctaW1hZScsICc8aW5maWxlLm1hZT4nLCAnLW9tYWUnLCAnPG91dGZpbGUubWFlPic=

> <r_lp_tautomer_probability>
1

> <r_epik_Ionization_Penalty>
0.00574983

> <r_epik_Ionization_Penalty_Charging>
0.00574185

> <r_epik_Ionization_Penalty_Neutral>
7.97936e-06

> <r_epik_State_Penalty>
0.00421386

> <r_epik_Charging_Adjusted_Penalty>
0.00995571

> <i_epik_Tot_Q>
1

> <i_epik_Tot_abs_Q>
1

> <r_epik_Metal_State_Penalty>
-0

> <b_epik_Metal_Only>
0

> <s_lp_Force_Field>
OPLS_2005

> <r_lp_Energy>
26.5412

> <b_lp_Chiralities_Consistent>
1

> <s_lp_Variant>
AV-unprocessed.smi:3037-2

> <Gold.Version>
5.8.1

> <Gold.Id.Protein>
6NUR|6NUR_protein|mol2

> <Gold.PLP.Fitness>
45.8262

> <Gold.PLP.PLP>
-41.0878

> <Gold.PLP.part.hbond>
-1.0000

> <Gold.PLP.part.metal>
0.0000

> <Gold.PLP.part.buried>
-5.7134

> <Gold.PLP.part.nonpolar>
-35.4375

> <Gold.PLP.part.repulsive>
1.0123

> <Gold.PLP.ligand.clash>
0.0000

> <Gold.PLP.ligand.torsion>
0.6832

> <Gold.PLP.Chemscore.Hbond>
2.0000

> <Gold.PLP.Chemscore.CHOScore>
0.0000

> <Gold.PLP.Chemscore.Metal>
0.0000

> <Gold.Chemscore.Hbonds>
donor molecule, donor type, donor heavy atom, donor atom, acceptor molecule, acceptor atom, score
      L1  H     9    47       P1  8028  2.00

> <Gold.PLP.Chemscore.Internal.Correction>
0.1048

> <Gold.Rescore>
     Score         DG    S(hbond)    S(metal)    S(lipo)     H(rot)  DE(clash)    DE(int)     intcor
     13.27     -15.26       1.00        0.00      95.29       1.84       0.02       1.97       ----

> <Gold.Chemscore.Fitness>
13.2697

> <Gold.Chemscore.DG>
-15.2617

> <Gold.Chemscore.ZeroCoef>
-5.4800

> <Gold.Chemscore.Hbond>
0.9998

> <Gold.Chemscore.Metal>
0.0000

> <Gold.Chemscore.Lipo>
95.2872

> <Gold.Chemscore.Internal_Hbond>
0.0000

> <Gold.Chemscore.DEClash>
0.0195

> <Gold.Chemscore.DEInternal>
1.9725

> <Gold.Chemscore.Rot>
1.8383

> <Gold.Chemscore.Internal.Correction>
   9.000000E+99

> <Gold.Chemscore.Hbonds>
donor molecule, donor type, donor heavy atom, donor atom, acceptor molecule, acceptor atom, score
      L1  H     9    47       P1  8028  0.99

> <Gold.Chemscore.Hbond.Weighted>
-3.3393

> <Gold.Chemscore.Metal.Weighted>
-0.0000

> <Gold.Chemscore.Lipo.Weighted>
-11.1486

> <Gold.Chemscore.Internal_Hbond.Weighted>
0.0000

> <Gold.Chemscore.DEClash.Weighted>
0.0195

> <Gold.Chemscore.DEInternal.Weighted>
1.9725

> <Gold.Chemscore.Rot.Weighted>
4.7062

> <Gold.Chemscore.Internal.Correction.Weighted>
   9.000000E+99

> <Gold.Protein.RotatedTorsions>
[ 6907 6896 6895 6894 ] final   29.44 input  -60.11 | X-H torsion
[ 7974 7965 7964 7962 ] final  114.60 input  175.53 | X-H torsion
[ 8008 7997 7996 7995 ] final   13.73 input   59.86 | X-H torsion
[ 10167 10162 10161 10158 ] final -139.02 input  -65.29 | X-H torsion
[ 10718 10713 10712 10709 ] final -101.15 input   66.30 | X-H torsion
[ 10763 10752 10751 10750 ] final -145.10 input  -60.55 | X-H torsion
[ 11005 11000 10999 10996 ] final   56.96 input  -57.11 | X-H torsion

> <Gold.Protein.ActiveResidues>
 VAL166  LYS551  ARG553  GLY616  TRP617  ASP618  TYR619  PRO620  LYS621  CYS622 
 ASP623  PHE694  ASN695  SER759  ASP760  ASP761  ALA762  ILE779  LEU786  VAL792 
 PHE793  MET794  SER795  GLU796  ALA797  LYS798  CYS799  TRP800  GLU811  SER814 

> <Gold.Protein.RotatedAtoms>
  152.0316  134.9764  160.0572 H   0  0  0  0  0  0  0  0  0  0  0  0  # atno 6907 bound_to 6896
  152.1239  133.4364  159.4697 H   0  0  0  0  0  0  0  0  0  0  0  0  # atno 6908 bound_to 6896
  150.6851  134.2421  159.4520 H   0  0  0  0  0  0  0  0  0  0  0  0  # atno 6909 bound_to 6896
  145.2024  139.2946  143.4311 H   0  0  0  0  0  0  0  0  0  0  0  0  # atno 7974 bound_to 7965
  154.8386  140.2911  155.5674 H   0  0  0  0  0  0  0  0  0  0  0  0  # atno 8008 bound_to 7997
  156.3010  140.2518  156.3256 H   0  0  0  0  0  0  0  0  0  0  0  0  # atno 8009 bound_to 7997
  154.9150  140.0387  157.1956 H   0  0  0  0  0  0  0  0  0  0  0  0  # atno 8010 bound_to 7997
  139.8421  143.7308  152.2662 H   0  0  0  0  0  0  0  0  0  0  0  0  # atno 10167 bound_to 10162
  156.0185  130.5360  150.6921 H   0  0  0  0  0  0  0  0  0  0  0  0  # atno 10718 bound_to 10713
  154.8398  135.3422  154.6452 H   0  0  0  0  0  0  0  0  0  0  0  0  # atno 10763 bound_to 10752
  153.7063  135.6966  153.5054 H   0  0  0  0  0  0  0  0  0  0  0  0  # atno 10764 bound_to 10752
  153.2485  135.4361  155.0726 H   0  0  0  0  0  0  0  0  0  0  0  0  # atno 10765 bound_to 10752
  140.0489  134.5766  155.9288 H   0  0  0  0  0  0  0  0  0  0  0  0  # atno 11005 bound_to 11000
  146.3415  140.2273  142.8592 LP  0  0  0  0  0  0  0  0  0  0  0  0  # atno 17320 bound_to 7965
  144.9935  140.8568  143.5325 LP  0  0  0  0  0  0  0  0  0  0  0  0  # atno 17321 bound_to 7965
  139.7549  144.7523  151.0451 LP  0  0  0  0  0  0  0  0  0  0  0  0  # atno 17342 bound_to 10162
  140.7797  143.4817  151.0009 LP  0  0  0  0  0  0  0  0  0  0  0  0  # atno 17343 bound_to 10162
  157.4600  131.0882  151.0755 LP  0  0  0  0  0  0  0  0  0  0  0  0  # atno 17370 bound_to 10713
  157.1246  130.6076  149.5513 LP  0  0  0  0  0  0  0  0  0  0  0  0  # atno 17371 bound_to 10713
  141.1920  133.6574  156.5484 LP  0  0  0  0  0  0  0  0  0  0  0  0  # atno 17394 bound_to 11000
  140.3949  134.7407  157.4744 LP  0  0  0  0  0  0  0  0  0  0  0  0  # atno 17395 bound_to 11000

$$$$
