AV-unprocessed.smi:2591|AV-procd|sdf|10155|dock3
  -GOLD-   2272014163D 1   1.00000     0.00000
 Structure written by MMmdl.
 35 36  0  0  0  0  0  0  0  0  2 V2000
  148.1141  139.5270  154.8371 C   0  0  0  0  0  0  0  0  0  0  0  0
  149.3470  138.7628  155.1211 N   0  3  1  0  0  0  0  0  0  0  0  0
  149.1022  137.3092  155.2549 C   0  0  0  0  0  0  0  0  0  0  0  0
  150.4041  136.5802  155.6239 C   0  0  0  0  0  0  0  0  0  0  0  0
  151.4091  136.8644  154.6503 O   0  0  0  0  0  0  0  0  0  0  0  0
  151.7160  138.2538  154.4954 C   0  0  2  0  0  0  0  0  0  0  0  0
  152.4667  138.7868  155.7314 C   0  0  0  0  0  0  0  0  0  0  0  0
  153.5301  138.2725  156.0807 O   0  0  0  0  0  0  0  0  0  0  0  0
  151.8752  139.8196  156.3611 N   0  0  0  0  0  0  0  0  0  0  0  0
  152.3253  140.5260  157.5078 C   0  0  0  0  0  0  0  0  0  0  0  0
  151.7438  141.8001  157.6921 C   0  0  0  0  0  0  0  0  0  0  0  0
  152.1237  142.5897  158.7986 C   0  0  0  0  0  0  0  0  0  0  0  0
  151.5011  143.9604  159.0150 C   0  0  0  0  0  0  0  0  0  0  0  0
  151.9779  144.5452  160.1144 F   0  0  0  0  0  0  0  0  0  0  0  0
  151.7595  144.7512  157.9732 F   0  0  0  0  0  0  0  0  0  0  0  0
  150.1807  143.8286  159.1377 F   0  0  0  0  0  0  0  0  0  0  0  0
  153.0772  142.0668  159.6962 C   0  0  0  0  0  0  0  0  0  0  0  0
  153.6061  140.7889  159.4391 C   0  0  0  0  0  0  0  0  0  0  0  0
  153.2449  140.0394  158.3768 N   0  0  0  0  0  0  0  0  0  0  0  0
  150.4236  139.0268  154.1367 C   0  0  0  0  0  0  0  0  0  0  0  0
  147.6817  139.2333  153.8797 H   0  0  0  0  0  0  0  0  0  0  0  0
  148.3246  140.5966  154.8047 H   0  0  0  0  0  0  0  0  0  0  0  0
  147.3696  139.3576  155.6158 H   0  0  0  0  0  0  0  0  0  0  0  0
  148.3479  137.1300  156.0223 H   0  0  0  0  0  0  0  0  0  0  0  0
  148.7064  136.9159  154.3171 H   0  0  0  0  0  0  0  0  0  0  0  0
  150.7359  136.8600  156.6245 H   0  0  0  0  0  0  0  0  0  0  0  0
  150.2348  135.5036  155.6442 H   0  0  0  0  0  0  0  0  0  0  0  0
  152.4051  138.3393  153.6540 H   0  0  0  0  0  0  0  0  0  0  0  0
  151.0017  140.1406  155.9692 H   0  0  0  0  0  0  0  0  0  0  0  0
  151.0092  142.1733  156.9931 H   0  0  0  0  0  0  0  0  0  0  0  0
  153.3989  142.6239  160.5637 H   0  0  0  0  0  0  0  0  0  0  0  0
  154.3382  140.3558  160.1046 H   0  0  0  0  0  0  0  0  0  0  0  0
  150.0834  138.7263  153.1445 H   0  0  0  0  0  0  0  0  0  0  0  0
  150.6221  140.0984  154.0834 H   0  0  0  0  0  0  0  0  0  0  0  0
  149.6881  139.0863  156.0158 H   0  0  0  0  0  0  0  0  0  0  0  0
  1  2  1  0  0  0  0
  1 21  1  0  0  0  0
  1 22  1  0  0  0  0
  1 23  1  0  0  0  0
  2 20  1  0  0  0  0
  2  3  1  0  0  0  0
  2 35  1  0  0  0  0
  3  4  1  0  0  0  0
  3 24  1  0  0  0  0
  3 25  1  0  0  0  0
  4  5  1  0  0  0  0
  4 26  1  0  0  0  0
  4 27  1  0  0  0  0
  5  6  1  0  0  0  0
  6  7  1  0  0  0  0
  6 20  1  0  0  0  0
  6 28  1  0  0  0  0
  7  8  2  0  0  0  0
  7  9  1  0  0  0  0
  9 10  1  0  0  0  0
  9 29  1  0  0  0  0
 10 19  1  0  0  0  0
 10 11  2  0  0  0  0
 11 12  1  0  0  0  0
 11 30  1  0  0  0  0
 12 13  1  0  0  0  0
 12 17  2  0  0  0  0
 13 14  1  0  0  0  0
 13 15  1  0  0  0  0
 13 16  1  0  0  0  0
 17 18  1  0  0  0  0
 17 31  1  0  0  0  0
 18 19  2  0  0  0  0
 18 32  1  0  0  0  0
 20 33  1  0  0  0  0
 20 34  1  0  0  0  0
M  CHG  1   2   1
M  END
> <s_m_source_file>
AV-unprocessed.smi

> <i_m_source_file_index>
2591

> <i_lp_mmshare_version>
43012

> <i_f3d_flags>
0

> <s_epik_input>
W0NIM11OMVtDSDJdW0NIMl1PW0NASF0oW0NIMl0xKUMoPU8pW05IXWMyW2NIXWMoQyhGKShGKUYpW2NIXVtjSF1uMg==

> <s_epik_cmdline>
J2VwaWtfcHl0aG9uJywgJy1waCcsICc3LjAnLCAnLXRuJywgJzgnLCAnLW1hJywgJzIwMCcsICctbWV0YWxfYmluZGluZycsICctaW1hZScsICc8aW5maWxlLm1hZT4nLCAnLW9tYWUnLCAnPG91dGZpbGUubWFlPic=

> <r_epik_Ionization_Penalty>
0.314028

> <r_epik_Ionization_Penalty_Charging>
0.314023

> <r_epik_Ionization_Penalty_Neutral>
5.2303e-06

> <r_epik_State_Penalty>
0.308208

> <r_epik_Charging_Adjusted_Penalty>
0.62223

> <i_epik_Tot_Q>
1

> <i_epik_Tot_abs_Q>
1

> <r_epik_Metal_State_Penalty>
0.308209

> <b_epik_Metal_Only>
0

> <s_lp_Force_Field>
OPLS_2005

> <r_lp_Energy>
16.4571

> <b_lp_Chiralities_Consistent>
1

> <s_lp_Variant>
AV-unprocessed.smi:2591-3

> <Gold.Version>
5.8.1

> <Gold.Id.Protein>
6NUR|6NUR_protein|mol2

> <Gold.PLP.Fitness>
44.4499

> <Gold.PLP.PLP>
-39.0134

> <Gold.PLP.part.hbond>
-3.0000

> <Gold.PLP.part.metal>
0.0000

> <Gold.PLP.part.buried>
-5.0709

> <Gold.PLP.part.nonpolar>
-30.0295

> <Gold.PLP.part.repulsive>
0.3178

> <Gold.PLP.ligand.clash>
0.2422

> <Gold.PLP.ligand.torsion>
0.0916

> <Gold.PLP.Chemscore.Hbond>
1.8664

> <Gold.PLP.Chemscore.CHOScore>
0.0000

> <Gold.PLP.Chemscore.Metal>
0.0000

> <Gold.Chemscore.Hbonds>
donor molecule, donor type, donor heavy atom, donor atom, acceptor molecule, acceptor atom, score
      P1  H  7997  8009       L1    19  0.85
      P1  H 10752 10763       L1     5  1.00

> <Gold.PLP.Chemscore.Internal.Correction>
0.2627

> <Gold.Rescore>
     Score         DG    S(hbond)    S(metal)    S(lipo)     H(rot)  DE(clash)    DE(int)     intcor
     13.12     -15.55       1.07        0.00      77.47       1.00       0.13       2.30       ----

> <Gold.Chemscore.Fitness>
13.1226

> <Gold.Chemscore.DG>
-15.5545

> <Gold.Chemscore.ZeroCoef>
-5.4800

> <Gold.Chemscore.Hbond>
1.0688

> <Gold.Chemscore.Metal>
0.0000

> <Gold.Chemscore.Lipo>
77.4747

> <Gold.Chemscore.Internal_Hbond>
0.0000

> <Gold.Chemscore.DEClash>
0.1275

> <Gold.Chemscore.DEInternal>
2.3044

> <Gold.Chemscore.Rot>
1.0000

> <Gold.Chemscore.Internal.Correction>
   9.000000E+99

> <Gold.Chemscore.Hbonds>
donor molecule, donor type, donor heavy atom, donor atom, acceptor molecule, acceptor atom, score
      P1  H  7997  8009       L1    19  0.09
      P1  H 10752 10763       L1     5  0.85

> <Gold.Chemscore.Hbond.Weighted>
-3.5700

> <Gold.Chemscore.Metal.Weighted>
-0.0000

> <Gold.Chemscore.Lipo.Weighted>
-9.0645

> <Gold.Chemscore.Internal_Hbond.Weighted>
0.0000

> <Gold.Chemscore.DEClash.Weighted>
0.1275

> <Gold.Chemscore.DEInternal.Weighted>
2.3044

> <Gold.Chemscore.Rot.Weighted>
2.5600

> <Gold.Chemscore.Internal.Correction.Weighted>
   9.000000E+99

> <Gold.Protein.RotatedTorsions>
[ 6907 6896 6895 6894 ] final  148.94 input  -60.11 | X-H torsion
[ 7974 7965 7964 7962 ] final   -9.01 input  175.53 | X-H torsion
[ 8008 7997 7996 7995 ] final  136.91 input   59.86 | X-H torsion
[ 10167 10162 10161 10158 ] final -139.82 input  -65.29 | X-H torsion
[ 10718 10713 10712 10709 ] final  -98.13 input   66.30 | X-H torsion
[ 10763 10752 10751 10750 ] final   43.51 input  -60.55 | X-H torsion
[ 11005 11000 10999 10996 ] final  -42.59 input  -57.11 | X-H torsion

> <Gold.Protein.ActiveResidues>
 VAL166  LYS551  ARG553  GLY616  TRP617  ASP618  TYR619  PRO620  LYS621  CYS622 
 ASP623  PHE694  ASN695  SER759  ASP760  ASP761  ALA762  ILE779  LEU786  VAL792 
 PHE793  MET794  SER795  GLU796  ALA797  LYS798  CYS799  TRP800  GLU811  SER814 

> <Gold.Protein.RotatedAtoms>
  152.1348  133.4428  159.4737 H   0  0  0  0  0  0  0  0  0  0  0  0  # atno 6907 bound_to 6896
  150.6881  134.2377  159.4469 H   0  0  0  0  0  0  0  0  0  0  0  0  # atno 6908 bound_to 6896
  152.0264  134.9793  160.0622 H   0  0  0  0  0  0  0  0  0  0  0  0  # atno 6909 bound_to 6896
  146.2264  140.2553  142.8349 H   0  0  0  0  0  0  0  0  0  0  0  0  # atno 7974 bound_to 7965
  156.3003  140.2433  156.3823 H   0  0  0  0  0  0  0  0  0  0  0  0  # atno 8008 bound_to 7997
  154.8689  140.0417  157.1732 H   0  0  0  0  0  0  0  0  0  0  0  0  # atno 8009 bound_to 7997
  154.8816  140.2950  155.5426 H   0  0  0  0  0  0  0  0  0  0  0  0  # atno 8010 bound_to 7997
  139.8342  143.7406  152.2665 H   0  0  0  0  0  0  0  0  0  0  0  0  # atno 10167 bound_to 10162
  156.0100  130.5224  150.6477 H   0  0  0  0  0  0  0  0  0  0  0  0  # atno 10718 bound_to 10713
  152.9859  135.6099  154.3123 H   0  0  0  0  0  0  0  0  0  0  0  0  # atno 10763 bound_to 10752
  154.2838  135.2776  155.2687 H   0  0  0  0  0  0  0  0  0  0  0  0  # atno 10764 bound_to 10752
  154.5014  135.5866  153.6590 H   0  0  0  0  0  0  0  0  0  0  0  0  # atno 10765 bound_to 10752
  141.0326  133.6813  156.2616 H   0  0  0  0  0  0  0  0  0  0  0  0  # atno 11005 bound_to 11000
  144.9381  140.8048  143.5648 LP  0  0  0  0  0  0  0  0  0  0  0  0  # atno 17320 bound_to 7965
  145.2502  139.2035  143.4946 LP  0  0  0  0  0  0  0  0  0  0  0  0  # atno 17321 bound_to 7965
  139.7623  144.7502  151.0345 LP  0  0  0  0  0  0  0  0  0  0  0  0  # atno 17342 bound_to 10162
  140.7804  143.4737  151.0112 LP  0  0  0  0  0  0  0  0  0  0  0  0  # atno 17343 bound_to 10162
  157.4244  131.0841  151.1099 LP  0  0  0  0  0  0  0  0  0  0  0  0  # atno 17370 bound_to 10713
  157.1691  130.6259  149.5635 LP  0  0  0  0  0  0  0  0  0  0  0  0  # atno 17371 bound_to 10713
  140.6379  134.5196  157.5566 LP  0  0  0  0  0  0  0  0  0  0  0  0  # atno 17394 bound_to 11000
  139.9218  134.8133  156.1187 LP  0  0  0  0  0  0  0  0  0  0  0  0  # atno 17395 bound_to 11000

$$$$
