AV-unprocessed.smi:208|AV-procd|sdf|1605|dock7
  -GOLD-   2262019523D 1   1.00000     0.00000
 Structure written by MMmdl.
 50 53  0  0  0  0  0  0  0  0  1 V2000
  151.4364  144.6731  158.0317 C   0  0  0  0  0  0  0  0  0  0  0  0
  152.6104  143.7008  158.2344 C   0  0  0  0  0  0  0  0  0  0  0  0
  152.3554  142.5088  159.1896 C   0  0  2  0  0  0  0  0  0  0  0  0
  151.9607  142.9570  160.6183 C   0  0  0  0  0  0  0  0  0  0  0  0
  151.0118  143.7323  160.7452 O   0  0  0  0  0  0  0  0  0  0  0  0
  152.6509  142.4824  161.6833 N   0  0  0  0  0  0  0  0  0  0  0  0
  152.2815  142.8649  163.0466 C   0  0  0  0  0  0  0  0  0  0  0  0
  153.7805  141.5510  161.5757 C   0  0  0  0  0  0  0  0  0  0  0  0
  154.4737  141.6219  160.2093 C   0  0  0  0  0  0  0  0  0  0  0  0
  153.4839  141.5690  159.1405 N   0  0  0  0  0  0  0  0  0  0  0  0
  153.2480  140.3252  158.6625 C   0  0  0  0  0  0  0  0  0  0  0  0
  154.2394  139.4107  158.8011 N   0  0  0  0  0  0  0  0  0  0  0  0
  154.0634  138.1618  158.3593 C   0  0  0  0  0  0  0  0  0  0  0  0
  152.9924  137.6286  157.7676 N   0  0  0  0  0  0  0  0  0  0  0  0
  151.9890  138.5429  157.6366 C   0  0  0  0  0  0  0  0  0  0  0  0
  152.0300  139.9019  158.0580 C   0  0  0  0  0  0  0  0  0  0  0  0
  150.8169  140.5203  157.7798 N   0  0  0  0  0  0  0  0  0  0  0  0
  150.1025  139.5831  157.2204 C   0  0  0  0  0  0  0  0  0  0  0  0
  150.7325  138.3664  157.0829 N   0  0  0  0  0  0  0  0  0  0  0  0
  150.1683  137.1602  156.4962 C   0  0  0  0  0  0  0  0  0  0  0  0
  149.0982  136.4729  157.3703 C   0  0  0  0  0  0  0  0  0  0  0  0
  148.9363  134.9933  156.9784 C   0  0  0  0  0  0  0  0  0  0  0  0
  150.1262  134.2645  157.2036 O   0  0  0  0  0  0  0  0  0  0  0  0
  149.2069  136.7154  158.8827 C   0  0  0  0  0  0  0  0  0  0  0  0
  147.8183  137.0967  158.9760 O   0  0  0  0  0  0  0  0  0  0  0  0
  147.7798  137.2407  157.5405 C   0  0  0  0  0  0  0  0  0  0  0  0
  151.6861  145.4184  157.2764 H   0  0  0  0  0  0  0  0  0  0  0  0
  151.2028  145.2134  158.9483 H   0  0  0  0  0  0  0  0  0  0  0  0
  150.5350  144.1593  157.6978 H   0  0  0  0  0  0  0  0  0  0  0  0
  152.9028  143.3127  157.2578 H   0  0  0  0  0  0  0  0  0  0  0  0
  153.4750  144.2631  158.5893 H   0  0  0  0  0  0  0  0  0  0  0  0
  151.4663  142.0133  158.7965 H   0  0  0  0  0  0  0  0  0  0  0  0
  152.5197  143.9145  163.2233 H   0  0  0  0  0  0  0  0  0  0  0  0
  152.8076  142.2716  163.7954 H   0  0  0  0  0  0  0  0  0  0  0  0
  151.2133  142.7223  163.2178 H   0  0  0  0  0  0  0  0  0  0  0  0
  154.5148  141.7501  162.3574 H   0  0  0  0  0  0  0  0  0  0  0  0
  153.4055  140.5419  161.7497 H   0  0  0  0  0  0  0  0  0  0  0  0
  155.0344  142.5523  160.1324 H   0  0  0  0  0  0  0  0  0  0  0  0
  155.2082  140.8196  160.1174 H   0  0  0  0  0  0  0  0  0  0  0  0
  154.9004  137.4941  158.5005 H   0  0  0  0  0  0  0  0  0  0  0  0
  149.0907  139.7567  156.8833 H   0  0  0  0  0  0  0  0  0  0  0  0
  149.7542  137.4260  155.5231 H   0  0  0  0  0  0  0  0  0  0  0  0
  150.9866  136.4712  156.2838 H   0  0  0  0  0  0  0  0  0  0  0  0
  148.1173  134.5191  157.5193 H   0  0  0  0  0  0  0  0  0  0  0  0
  148.6878  134.9032  155.9202 H   0  0  0  0  0  0  0  0  0  0  0  0
  150.0674  133.4427  156.7404 H   0  0  0  0  0  0  0  0  0  0  0  0
  149.4406  135.8219  159.4624 H   0  0  0  0  0  0  0  0  0  0  0  0
  149.8636  137.5413  159.1585 H   0  0  0  0  0  0  0  0  0  0  0  0
  147.8337  138.2878  157.2374 H   0  0  0  0  0  0  0  0  0  0  0  0
  146.9155  136.7499  157.0915 H   0  0  0  0  0  0  0  0  0  0  0  0
  1  2  1  0  0  0  0
  1 27  1  0  0  0  0
  1 28  1  0  0  0  0
  1 29  1  0  0  0  0
  2  3  1  0  0  0  0
  2 30  1  0  0  0  0
  2 31  1  0  0  0  0
  3 10  1  0  0  0  0
  3  4  1  0  0  0  0
  3 32  1  0  0  0  0
  4  5  2  0  0  0  0
  4  6  1  0  0  0  0
  6  7  1  0  0  0  0
  6  8  1  0  0  0  0
  7 33  1  0  0  0  0
  7 34  1  0  0  0  0
  7 35  1  0  0  0  0
  8  9  1  0  0  0  0
  8 36  1  0  0  0  0
  8 37  1  0  0  0  0
  9 10  1  0  0  0  0
  9 38  1  0  0  0  0
  9 39  1  0  0  0  0
 10 11  1  0  0  0  0
 11 16  1  0  0  0  0
 11 12  2  0  0  0  0
 12 13  1  0  0  0  0
 13 14  2  0  0  0  0
 13 40  1  0  0  0  0
 14 15  1  0  0  0  0
 15 19  1  0  0  0  0
 15 16  2  0  0  0  0
 16 17  1  0  0  0  0
 17 18  2  0  0  0  0
 18 19  1  0  0  0  0
 18 41  1  0  0  0  0
 19 20  1  0  0  0  0
 20 21  1  0  0  0  0
 20 42  1  0  0  0  0
 20 43  1  0  0  0  0
 21 26  1  0  0  0  0
 21 22  1  0  0  0  0
 21 24  1  0  0  0  0
 22 23  1  0  0  0  0
 22 44  1  0  0  0  0
 22 45  1  0  0  0  0
 23 46  1  0  0  0  0
 24 25  1  0  0  0  0
 24 47  1  0  0  0  0
 24 48  1  0  0  0  0
 25 26  1  0  0  0  0
 26 49  1  0  0  0  0
 26 50  1  0  0  0  0
M  END
> <s_m_source_file>
AV-unprocessed.smi

> <i_m_source_file_index>
208

> <i_lp_mmshare_version>
43012

> <i_f3d_flags>
0

> <s_epik_input>
W0NIM11bQ0gyXVtDQEBIXTFDKD1PKU4oW0NIM10pW0NIMl1bQ0gyXU4xYyhuW2NIXW4yKWMoYzIzKW5bY0hdbjNbQ0gyXUM0KFtDSDJdW09IXSlbQ0gyXU9bQ0gyXTQ=

> <s_epik_cmdline>
J2VwaWtfcHl0aG9uJywgJy1waCcsICc3LjAnLCAnLXRuJywgJzgnLCAnLW1hJywgJzIwMCcsICctbWV0YWxfYmluZGluZycsICctaW1hZScsICc8aW5maWxlLm1hZT4nLCAnLW9tYWUnLCAnPG91dGZpbGUubWFlPic=

> <r_lp_tautomer_probability>
1

> <r_epik_Ionization_Penalty>
0.000581289

> <r_epik_Ionization_Penalty_Charging>
0

> <r_epik_Ionization_Penalty_Neutral>
0.000581289

> <r_epik_State_Penalty>
0.000280365

> <r_epik_Charging_Adjusted_Penalty>
0.000280365

> <i_epik_Tot_Q>
0

> <i_epik_Tot_abs_Q>
0

> <r_epik_Metal_State_Penalty>
-0

> <b_epik_Metal_Only>
0

> <s_lp_Force_Field>
OPLS_2005

> <r_lp_Energy>
41.1811

> <b_lp_Chiralities_Consistent>
1

> <s_lp_Variant>
AV-unprocessed.smi:208-1

> <Gold.Version>
5.8.1

> <Gold.Id.Protein>
6NUR|6NUR_protein|mol2

> <Gold.PLP.Fitness>
53.2429

> <Gold.PLP.PLP>
-45.2787

> <Gold.PLP.part.hbond>
-4.0452

> <Gold.PLP.part.metal>
0.0000

> <Gold.PLP.part.buried>
-4.0249

> <Gold.PLP.part.nonpolar>
-36.8914

> <Gold.PLP.part.repulsive>
0.1611

> <Gold.PLP.ligand.clash>
0.0000

> <Gold.PLP.ligand.torsion>
0.7593

> <Gold.PLP.Chemscore.Hbond>
2.9440

> <Gold.PLP.Chemscore.CHOScore>
0.0000

> <Gold.PLP.Chemscore.Metal>
0.0000

> <Gold.Chemscore.Hbonds>
donor molecule, donor type, donor heavy atom, donor atom, acceptor molecule, acceptor atom, score
      P1  H  6896  6909       L1    23  0.49
      P1  H  7997  8008       L1    12  0.44

> <Gold.PLP.Chemscore.Internal.Correction>
0.6508

> <Gold.Rescore>
     Score         DG    S(hbond)    S(metal)    S(lipo)     H(rot)  DE(clash)    DE(int)     intcor
     12.34     -14.57       1.70        0.00      82.85       2.46       0.00       2.23       ----

> <Gold.Chemscore.Fitness>
12.3378

> <Gold.Chemscore.DG>
-14.5697

> <Gold.Chemscore.ZeroCoef>
-5.4800

> <Gold.Chemscore.Hbond>
1.7047

> <Gold.Chemscore.Metal>
0.0000

> <Gold.Chemscore.Lipo>
82.8481

> <Gold.Chemscore.Internal_Hbond>
0.0000

> <Gold.Chemscore.DEClash>
0.0000

> <Gold.Chemscore.DEInternal>
2.2318

> <Gold.Chemscore.Rot>
2.4598

> <Gold.Chemscore.Internal.Correction>
   9.000000E+99

> <Gold.Chemscore.Hbonds>
donor molecule, donor type, donor heavy atom, donor atom, acceptor molecule, acceptor atom, score
      P1  H  6896  6909       L1    23  0.36

> <Gold.Chemscore.Hbond.Weighted>
-5.6936

> <Gold.Chemscore.Metal.Weighted>
-0.0000

> <Gold.Chemscore.Lipo.Weighted>
-9.6932

> <Gold.Chemscore.Internal_Hbond.Weighted>
0.0000

> <Gold.Chemscore.DEClash.Weighted>
0.0000

> <Gold.Chemscore.DEInternal.Weighted>
2.2318

> <Gold.Chemscore.Rot.Weighted>
6.2972

> <Gold.Chemscore.Internal.Correction.Weighted>
   9.000000E+99

> <Gold.Protein.RotatedTorsions>
[ 6907 6896 6895 6894 ] final    9.49 input  -60.11 | X-H torsion
[ 7974 7965 7964 7962 ] final -179.39 input  175.53 | X-H torsion
[ 8008 7997 7996 7995 ] final -117.76 input   59.86 | X-H torsion
[ 10167 10162 10161 10158 ] final   89.37 input  -65.29 | X-H torsion
[ 10718 10713 10712 10709 ] final -105.58 input   66.30 | X-H torsion
[ 10763 10752 10751 10750 ] final  157.61 input  -60.55 | X-H torsion
[ 11005 11000 10999 10996 ] final   53.17 input  -57.11 | X-H torsion

> <Gold.Protein.ActiveResidues>
 VAL166  LYS551  ARG553  GLY616  TRP617  ASP618  TYR619  PRO620  LYS621  CYS622 
 ASP623  PHE694  ASN695  SER759  ASP760  ASP761  ALA762  ILE779  LEU786  VAL792 
 PHE793  MET794  SER795  GLU796  ALA797  LYS798  CYS799  TRP800  GLU811  SER814 

> <Gold.Protein.RotatedAtoms>
  151.7230  135.0890  160.0287 H   0  0  0  0  0  0  0  0  0  0  0  0  # atno 6907 bound_to 6896
  152.3590  133.6268  159.6009 H   0  0  0  0  0  0  0  0  0  0  0  0  # atno 6908 bound_to 6896
  150.7591  133.9370  159.3486 H   0  0  0  0  0  0  0  0  0  0  0  0  # atno 6909 bound_to 6896
  144.7136  140.0725  143.6429 H   0  0  0  0  0  0  0  0  0  0  0  0  # atno 7974 bound_to 7965
  155.0889  140.0395  157.2662 H   0  0  0  0  0  0  0  0  0  0  0  0  # atno 8008 bound_to 7997
  154.6848  140.2640  155.6847 H   0  0  0  0  0  0  0  0  0  0  0  0  # atno 8009 bound_to 7997
  156.2708  140.2771  156.1405 H   0  0  0  0  0  0  0  0  0  0  0  0  # atno 8010 bound_to 7997
  139.8579  144.6559  150.9092 H   0  0  0  0  0  0  0  0  0  0  0  0  # atno 10167 bound_to 10162
  156.0352  130.5571  150.7560 H   0  0  0  0  0  0  0  0  0  0  0  0  # atno 10718 bound_to 10713
  154.2030  135.2789  155.2984 H   0  0  0  0  0  0  0  0  0  0  0  0  # atno 10763 bound_to 10752
  154.5839  135.5581  153.7215 H   0  0  0  0  0  0  0  0  0  0  0  0  # atno 10764 bound_to 10752
  153.0083  135.6351  154.2169 H   0  0  0  0  0  0  0  0  0  0  0  0  # atno 10765 bound_to 10752
  140.0789  134.5366  155.8967 H   0  0  0  0  0  0  0  0  0  0  0  0  # atno 11005 bound_to 11000
  145.9771  139.2913  143.1064 LP  0  0  0  0  0  0  0  0  0  0  0  0  # atno 17320 bound_to 7965
  145.9052  140.9217  143.0482 LP  0  0  0  0  0  0  0  0  0  0  0  0  # atno 17321 bound_to 7965
  140.7779  143.3769  151.1546 LP  0  0  0  0  0  0  0  0  0  0  0  0  # atno 17342 bound_to 10162
  139.7402  143.8937  152.3047 LP  0  0  0  0  0  0  0  0  0  0  0  0  # atno 17343 bound_to 10162
  157.5092  131.0924  151.0220 LP  0  0  0  0  0  0  0  0  0  0  0  0  # atno 17370 bound_to 10713
  157.0580  130.5814  149.5381 LP  0  0  0  0  0  0  0  0  0  0  0  0  # atno 17371 bound_to 10713
  141.2039  133.6635  156.6093 LP  0  0  0  0  0  0  0  0  0  0  0  0  # atno 17394 bound_to 11000
  140.3516  134.7763  157.4471 LP  0  0  0  0  0  0  0  0  0  0  0  0  # atno 17395 bound_to 11000

$$$$
