AV-unprocessed.smi:3043|AV-procd|sdf|11604|dock3
  -GOLD-   2272016583D 1   1.00000     0.00000
 Structure written by MMmdl.
 44 45  0  0  0  0  0  0  0  0  2 V2000
  151.5229  141.1599  158.3203 C   0  0  0  0  0  0  0  0  0  0  0  0
  151.9090  140.3157  157.1037 C   0  0  0  0  0  0  0  0  0  0  0  0
  152.7531  139.4330  157.2572 O   0  0  0  0  0  0  0  0  0  0  0  0
  151.3148  140.5603  155.9107 N   0  0  0  0  0  0  0  0  0  0  0  0
  151.5811  139.7557  154.7127 C   0  0  0  0  0  0  0  0  0  0  0  0
  150.3279  138.9252  154.3831 C   0  0  0  0  0  0  0  0  0  0  0  0
  149.0880  139.8270  154.1923 C   0  0  0  0  0  0  0  0  0  0  0  0
  147.8210  138.9845  153.9589 C   0  0  0  0  0  0  0  0  0  0  0  0
  147.7610  138.4701  152.5737 N   0  3  0  0  0  0  0  0  0  0  0  0
  146.4156  138.4503  151.9570 C   0  0  1  0  0  0  0  0  0  0  0  0
  146.5589  138.1816  150.4491 C   0  0  0  0  0  0  0  0  0  0  0  0
  145.4923  137.4309  152.6644 C   0  0  0  0  0  0  0  0  0  0  0  0
  145.2441  136.2424  151.8679 N   0  0  0  0  0  0  0  0  0  0  0  0
  146.1275  135.2395  151.5279 C   0  0  0  0  0  0  0  0  0  0  0  0
  145.4416  134.3338  150.7707 C   0  0  0  0  0  0  0  0  0  0  0  0
  144.1292  134.8787  150.6976 C   0  0  0  0  0  0  0  0  0  0  0  0
  144.0145  136.0216  151.3545 N   0  0  0  0  0  0  0  0  0  0  0  0
  148.9360  140.7959  155.3893 C   0  0  0  0  0  0  0  0  0  0  0  0
  150.2506  141.5442  155.6760 C   0  0  0  0  0  0  0  0  0  0  0  0
  150.4575  141.0678  158.5337 H   0  0  0  0  0  0  0  0  0  0  0  0
  151.7632  142.2104  158.1549 H   0  0  0  0  0  0  0  0  0  0  0  0
  152.0685  140.8299  159.2049 H   0  0  0  0  0  0  0  0  0  0  0  0
  151.8250  140.4168  153.8799 H   0  0  0  0  0  0  0  0  0  0  0  0
  152.4422  139.0959  154.8287 H   0  0  0  0  0  0  0  0  0  0  0  0
  150.5050  138.3359  153.4828 H   0  0  0  0  0  0  0  0  0  0  0  0
  150.1464  138.2113  155.1881 H   0  0  0  0  0  0  0  0  0  0  0  0
  149.2639  140.4270  153.2978 H   0  0  0  0  0  0  0  0  0  0  0  0
  147.8151  138.1417  154.6498 H   0  0  0  0  0  0  0  0  0  0  0  0
  146.9315  139.5791  154.1720 H   0  0  0  0  0  0  0  0  0  0  0  0
  148.3427  139.0720  152.0085 H   0  0  0  0  0  0  0  0  0  0  0  0
  145.9842  139.4466  152.0658 H   0  0  0  0  0  0  0  0  0  0  0  0
  145.6039  138.2711  149.9310 H   0  0  0  0  0  0  0  0  0  0  0  0
  146.9478  137.1803  150.2601 H   0  0  0  0  0  0  0  0  0  0  0  0
  147.2409  138.8959  149.9867 H   0  0  0  0  0  0  0  0  0  0  0  0
  145.9270  137.1285  153.6189 H   0  0  0  0  0  0  0  0  0  0  0  0
  144.5248  137.8777  152.8931 H   0  0  0  0  0  0  0  0  0  0  0  0
  147.1582  135.2523  151.8506 H   0  0  0  0  0  0  0  0  0  0  0  0
  145.8197  133.4214  150.3338 H   0  0  0  0  0  0  0  0  0  0  0  0
  143.2627  134.4806  150.1902 H   0  0  0  0  0  0  0  0  0  0  0  0
  148.1434  141.5188  155.1941 H   0  0  0  0  0  0  0  0  0  0  0  0
  148.6360  140.2419  156.2801 H   0  0  0  0  0  0  0  0  0  0  0  0
  150.1071  142.2383  156.5026 H   0  0  0  0  0  0  0  0  0  0  0  0
  150.5202  142.1648  154.8202 H   0  0  0  0  0  0  0  0  0  0  0  0
  148.1482  137.5375  152.5474 H   0  0  0  0  0  0  0  0  0  0  0  0
  1  2  1  0  0  0  0
  1 20  1  0  0  0  0
  1 21  1  0  0  0  0
  1 22  1  0  0  0  0
  2  3  2  0  0  0  0
  2  4  1  0  0  0  0
  4 19  1  0  0  0  0
  4  5  1  0  0  0  0
  5  6  1  0  0  0  0
  5 23  1  0  0  0  0
  5 24  1  0  0  0  0
  6  7  1  0  0  0  0
  6 25  1  0  0  0  0
  6 26  1  0  0  0  0
  7  8  1  0  0  0  0
  7 18  1  0  0  0  0
  7 27  1  0  0  0  0
  8  9  1  0  0  0  0
  8 28  1  0  0  0  0
  8 29  1  0  0  0  0
  9 10  1  0  0  0  0
  9 30  1  0  0  0  0
  9 44  1  0  0  0  0
 10 11  1  0  0  0  0
 10 12  1  0  0  0  0
 10 31  1  0  0  0  0
 11 32  1  0  0  0  0
 11 33  1  0  0  0  0
 11 34  1  0  0  0  0
 12 13  1  0  0  0  0
 12 35  1  0  0  0  0
 12 36  1  0  0  0  0
 13 17  1  0  0  0  0
 13 14  1  0  0  0  0
 14 15  2  0  0  0  0
 14 37  1  0  0  0  0
 15 16  1  0  0  0  0
 15 38  1  0  0  0  0
 16 17  2  0  0  0  0
 16 39  1  0  0  0  0
 18 19  1  0  0  0  0
 18 40  1  0  0  0  0
 18 41  1  0  0  0  0
 19 42  1  0  0  0  0
 19 43  1  0  0  0  0
M  CHG  1   9   1
M  END
> <s_m_source_file>
AV-unprocessed.smi

> <i_m_source_file_index>
3043

> <i_lp_mmshare_version>
43012

> <i_f3d_flags>
0

> <s_epik_input>
W0NIM11DKD1PKU4xW0NIMl1bQ0gyXVtDSF0oW0NIMl1bQ0gyXTEpW0NIMl1bTkhdW0NASF0oW0NIM10pW0NIMl1uMltjSF1bY0hdW2NIXW4y

> <s_epik_cmdline>
J2VwaWtfcHl0aG9uJywgJy1waCcsICc3LjAnLCAnLXRuJywgJzgnLCAnLW1hJywgJzIwMCcsICctbWV0YWxfYmluZGluZycsICctaW1hZScsICc8aW5maWxlLm1hZT4nLCAnLW9tYWUnLCAnPG91dGZpbGUubWFlPic=

> <r_lp_tautomer_probability>
1

> <r_epik_Ionization_Penalty>
0.00300549

> <r_epik_Ionization_Penalty_Charging>
0.00299781

> <r_epik_Ionization_Penalty_Neutral>
7.6831e-06

> <r_epik_State_Penalty>
0.00210473

> <r_epik_Charging_Adjusted_Penalty>
0.00510254

> <i_epik_Tot_Q>
1

> <i_epik_Tot_abs_Q>
1

> <r_epik_Metal_State_Penalty>
-0

> <b_epik_Metal_Only>
0

> <s_lp_Force_Field>
OPLS_2005

> <r_lp_Energy>
28.9571

> <b_lp_Chiralities_Consistent>
1

> <s_lp_Variant>
AV-unprocessed.smi:3043-2

> <Gold.Version>
5.8.1

> <Gold.Id.Protein>
6NUR|6NUR_protein|mol2

> <Gold.PLP.Fitness>
47.9234

> <Gold.PLP.PLP>
-32.3443

> <Gold.PLP.part.hbond>
-3.0000

> <Gold.PLP.part.metal>
0.0000

> <Gold.PLP.part.buried>
7.7031

> <Gold.PLP.part.nonpolar>
-37.7770

> <Gold.PLP.part.repulsive>
0.8242

> <Gold.PLP.ligand.clash>
0.0000

> <Gold.PLP.ligand.torsion>
1.2297

> <Gold.PLP.Chemscore.Hbond>
4.0000

> <Gold.PLP.Chemscore.CHOScore>
2.0000

> <Gold.PLP.Chemscore.Metal>
0.0000

> <Gold.Chemscore.Hbonds>
donor molecule, donor type, donor heavy atom, donor atom, acceptor molecule, acceptor atom, score
      L1  H     9    30       P1  7957  1.00
      L1  H     9    44       P1  7948  2.00
      P1  H  7997  8009       L1     3  1.00
      L1  C    14    37       P1  7948  0.94
      L1  C    16    39       P1 10186  1.00

> <Gold.PLP.Chemscore.Internal.Correction>
0.0386

> <Gold.Rescore>
     Score         DG    S(hbond)    S(metal)    S(lipo)     H(rot)  DE(clash)    DE(int)     intcor
     15.22     -20.89       2.82        0.00      89.26       1.74       4.45       1.22       ----

> <Gold.Chemscore.Fitness>
15.2180

> <Gold.Chemscore.DG>
-20.8862

> <Gold.Chemscore.ZeroCoef>
-5.4800

> <Gold.Chemscore.Hbond>
2.8212

> <Gold.Chemscore.Metal>
0.0000

> <Gold.Chemscore.Lipo>
89.2583

> <Gold.Chemscore.Internal_Hbond>
0.0000

> <Gold.Chemscore.DEClash>
4.4492

> <Gold.Chemscore.DEInternal>
1.2191

> <Gold.Chemscore.Rot>
1.7422

> <Gold.Chemscore.Internal.Correction>
   9.000000E+99

> <Gold.Chemscore.Hbonds>
donor molecule, donor type, donor heavy atom, donor atom, acceptor molecule, acceptor atom, score
      L1  H     9    30       P1  7957  0.99
      L1  H     9    44       P1  7948  0.97
      P1  H  7997  8009       L1     3  0.82

> <Gold.Chemscore.Hbond.Weighted>
-9.4229

> <Gold.Chemscore.Metal.Weighted>
-0.0000

> <Gold.Chemscore.Lipo.Weighted>
-10.4432

> <Gold.Chemscore.Internal_Hbond.Weighted>
0.0000

> <Gold.Chemscore.DEClash.Weighted>
4.4492

> <Gold.Chemscore.DEInternal.Weighted>
1.2191

> <Gold.Chemscore.Rot.Weighted>
4.4600

> <Gold.Chemscore.Internal.Correction.Weighted>
   9.000000E+99

> <Gold.Protein.RotatedTorsions>
[ 6907 6896 6895 6894 ] final -164.86 input  -60.11 | X-H torsion
[ 7974 7965 7964 7962 ] final   34.39 input  175.53 | X-H torsion
[ 8008 7997 7996 7995 ] final  156.62 input   59.86 | X-H torsion
[ 10167 10162 10161 10158 ] final  -19.25 input  -65.29 | X-H torsion
[ 10718 10713 10712 10709 ] final   32.77 input   66.30 | X-H torsion
[ 10763 10752 10751 10750 ] final  112.37 input  -60.55 | X-H torsion
[ 11005 11000 10999 10996 ] final  122.79 input  -57.11 | X-H torsion

> <Gold.Protein.ActiveResidues>
 VAL166  LYS551  ARG553  GLY616  TRP617  ASP618  TYR619  PRO620  LYS621  CYS622 
 ASP623  PHE694  ASN695  SER759  ASP760  ASP761  ALA762  ILE779  LEU786  VAL792 
 PHE793  MET794  SER795  GLU796  ALA797  LYS798  CYS799  TRP800  GLU811  SER814 

> <Gold.Protein.RotatedAtoms>
  151.4185  133.3705  159.2752 H   0  0  0  0  0  0  0  0  0  0  0  0  # atno 6907 bound_to 6896
  150.9311  134.8727  159.7562 H   0  0  0  0  0  0  0  0  0  0  0  0  # atno 6908 bound_to 6896
  152.5028  134.4129  159.9507 H   0  0  0  0  0  0  0  0  0  0  0  0  # atno 6909 bound_to 6896
  146.1356  139.6275  142.9197 H   0  0  0  0  0  0  0  0  0  0  0  0  # atno 7974 bound_to 7965
  156.2412  140.1907  156.6983 H   0  0  0  0  0  0  0  0  0  0  0  0  # atno 8008 bound_to 7997
  154.6200  140.0610  156.9630 H   0  0  0  0  0  0  0  0  0  0  0  0  # atno 8009 bound_to 7997
  155.1877  140.3282  155.4366 H   0  0  0  0  0  0  0  0  0  0  0  0  # atno 8010 bound_to 7997
  140.7266  143.4837  151.0083 H   0  0  0  0  0  0  0  0  0  0  0  0  # atno 10167 bound_to 10162
  157.2894  130.7295  149.6602 H   0  0  0  0  0  0  0  0  0  0  0  0  # atno 10718 bound_to 10713
  153.4769  135.3688  155.2421 H   0  0  0  0  0  0  0  0  0  0  0  0  # atno 10763 bound_to 10752
  154.8756  135.3945  154.3746 H   0  0  0  0  0  0  0  0  0  0  0  0  # atno 10764 bound_to 10752
  153.4343  135.7083  153.6275 H   0  0  0  0  0  0  0  0  0  0  0  0  # atno 10765 bound_to 10752
  139.9284  134.9641  156.8162 H   0  0  0  0  0  0  0  0  0  0  0  0  # atno 11005 bound_to 11000
  145.5163  141.0433  143.2460 LP  0  0  0  0  0  0  0  0  0  0  0  0  # atno 17320 bound_to 7965
  144.7736  139.6679  143.7184 LP  0  0  0  0  0  0  0  0  0  0  0  0  # atno 17321 bound_to 7965
  139.8537  143.7405  152.3177 LP  0  0  0  0  0  0  0  0  0  0  0  0  # atno 17342 bound_to 10162
  139.7596  144.7510  151.0384 LP  0  0  0  0  0  0  0  0  0  0  0  0  # atno 17343 bound_to 10162
  155.9666  130.4313  150.4916 LP  0  0  0  0  0  0  0  0  0  0  0  0  # atno 17370 bound_to 10713
  157.2875  131.0619  151.2156 LP  0  0  0  0  0  0  0  0  0  0  0  0  # atno 17371 bound_to 10713
  140.6271  133.9940  155.7645 LP  0  0  0  0  0  0  0  0  0  0  0  0  # atno 17394 bound_to 11000
  141.0857  133.9995  157.3317 LP  0  0  0  0  0  0  0  0  0  0  0  0  # atno 17395 bound_to 11000

$$$$
