AV-unprocessed.smi:2735|AV-procd|sdf|10543|dock6
  -GOLD-   2272014593D 1   1.00000     0.00000
 Structure written by MMmdl.
 42 42  0  0  0  0  0  0  0  0  2 V2000
  151.7771  144.6797  158.1534 C   0  0  0  0  0  0  0  0  0  0  0  0
  152.2422  143.4829  158.9289 C   0  0  0  0  0  0  0  0  0  0  0  0
  153.0319  143.4501  160.1109 C   0  0  0  0  0  0  0  0  0  0  0  0
  153.1504  142.1203  160.4014 C   0  0  0  0  0  0  0  0  0  0  0  0
  153.8468  141.4511  161.5413 C   0  0  0  0  0  0  0  0  0  0  0  0
  152.4692  141.4259  159.4139 N   0  0  0  0  0  0  0  0  0  0  0  0
  152.2368  139.9850  159.2950 C   0  0  2  0  0  0  0  0  0  0  0  0
  153.5551  139.1974  159.1434 C   0  0  0  0  0  0  0  0  0  0  0  0
  151.2302  139.7010  158.1662 C   0  0  0  0  0  0  0  0  0  0  0  0
  150.2273  140.4005  158.0177 O   0  0  0  0  0  0  0  0  0  0  0  0
  151.5165  138.6508  157.3812 N   0  0  0  0  0  0  0  0  0  0  0  0
  150.6909  138.1363  156.2923 C   0  0  2  0  0  0  0  0  0  0  0  0
  150.4275  136.6309  156.5401 C   0  0  0  0  0  0  0  0  0  0  0  0
  149.7748  136.2891  157.9011 C   0  0  0  0  0  0  0  0  0  0  0  0
  149.2694  134.8386  157.9078 C   0  0  0  0  0  0  0  0  0  0  0  0
  148.6404  137.2576  158.2750 C   0  0  0  0  0  0  0  0  0  0  0  0
  151.4418  138.2854  154.9594 C   0  0  0  0  0  0  0  0  0  0  0  0
  151.6522  137.2387  154.3089 O   0  0  0  0  0  0  0  0  0  0  0  0
  151.8000  139.4349  154.6145 O   0  5  0  0  0  0  0  0  0  0  0  0
  151.9062  142.2721  158.5195 N   0  0  0  0  0  0  0  0  0  0  0  0
  149.7459  138.6791  156.2354 H   0  0  0  0  0  0  0  0  0  0  0  0
  151.9743  145.6032  158.6983 H   0  0  0  0  0  0  0  0  0  0  0  0
  150.7048  144.6320  157.9611 H   0  0  0  0  0  0  0  0  0  0  0  0
  152.2870  144.7454  157.1919 H   0  0  0  0  0  0  0  0  0  0  0  0
  153.4408  144.2795  160.6686 H   0  0  0  0  0  0  0  0  0  0  0  0
  154.3062  142.1861  162.2022 H   0  0  0  0  0  0  0  0  0  0  0  0
  154.6336  140.7881  161.1814 H   0  0  0  0  0  0  0  0  0  0  0  0
  153.1481  140.8612  162.1341 H   0  0  0  0  0  0  0  0  0  0  0  0
  151.7704  139.6446  160.2196 H   0  0  0  0  0  0  0  0  0  0  0  0
  153.3727  138.1220  159.1438 H   0  0  0  0  0  0  0  0  0  0  0  0
  154.2327  139.4122  159.9700 H   0  0  0  0  0  0  0  0  0  0  0  0
  154.0754  139.4436  158.2168 H   0  0  0  0  0  0  0  0  0  0  0  0
  152.3722  138.1483  157.5649 H   0  0  0  0  0  0  0  0  0  0  0  0
  149.7961  136.2433  155.7386 H   0  0  0  0  0  0  0  0  0  0  0  0
  151.3686  136.0823  156.4669 H   0  0  0  0  0  0  0  0  0  0  0  0
  150.5354  136.3581  158.6797 H   0  0  0  0  0  0  0  0  0  0  0  0
  148.4928  134.6863  157.1576 H   0  0  0  0  0  0  0  0  0  0  0  0
  148.8520  134.5715  158.8791 H   0  0  0  0  0  0  0  0  0  0  0  0
  150.0789  134.1393  157.6964 H   0  0  0  0  0  0  0  0  0  0  0  0
  147.8664  137.2777  157.5074 H   0  0  0  0  0  0  0  0  0  0  0  0
  149.0099  138.2746  158.4062 H   0  0  0  0  0  0  0  0  0  0  0  0
  148.1708  136.9660  159.2147 H   0  0  0  0  0  0  0  0  0  0  0  0
  1  2  1  0  0  0  0
  1 22  1  0  0  0  0
  1 23  1  0  0  0  0
  1 24  1  0  0  0  0
  2 20  2  0  0  0  0
  2  3  1  0  0  0  0
  3  4  2  0  0  0  0
  3 25  1  0  0  0  0
  4  5  1  0  0  0  0
  4  6  1  0  0  0  0
  5 26  1  0  0  0  0
  5 27  1  0  0  0  0
  5 28  1  0  0  0  0
  6  7  1  0  0  0  0
  6 20  1  0  0  0  0
  7  8  1  0  0  0  0
  7  9  1  0  0  0  0
  7 29  1  0  0  0  0
  8 30  1  0  0  0  0
  8 31  1  0  0  0  0
  8 32  1  0  0  0  0
  9 10  2  0  0  0  0
  9 11  1  0  0  0  0
 11 12  1  0  0  0  0
 11 33  1  0  0  0  0
 12 21  1  0  0  0  0
 12 13  1  0  0  0  0
 12 17  1  0  0  0  0
 13 14  1  0  0  0  0
 13 34  1  0  0  0  0
 13 35  1  0  0  0  0
 14 15  1  0  0  0  0
 14 16  1  0  0  0  0
 14 36  1  0  0  0  0
 15 37  1  0  0  0  0
 15 38  1  0  0  0  0
 15 39  1  0  0  0  0
 16 40  1  0  0  0  0
 16 41  1  0  0  0  0
 16 42  1  0  0  0  0
 17 18  2  0  0  0  0
 17 19  1  0  0  0  0
M  CHG  1  19  -1
M  END
> <s_m_source_file>
AV-unprocessed.smi

> <i_m_source_file_index>
2735

> <i_lp_mmshare_version>
43012

> <i_f3d_flags>
0

> <s_epik_input>
W0NIM11jMVtjSF1jKFtDSDNdKW4objEpW0NASF0oW0NIM10pQyg9TylbTkhdW0NASF0oQyg9TylbT0hdKVtDSDJdW0NIXShbQ0gzXSlbQ0gzXQ==

> <s_epik_cmdline>
J2VwaWtfcHl0aG9uJywgJy1waCcsICc3LjAnLCAnLXRuJywgJzgnLCAnLW1hJywgJzIwMCcsICctbWV0YWxfYmluZGluZycsICctaW1hZScsICc8aW5maWxlLm1hZT4nLCAnLW9tYWUnLCAnPG91dGZpbGUubWFlPic=

> <r_lp_tautomer_probability>
1

> <r_epik_Ionization_Penalty>
0.0012303

> <r_epik_Ionization_Penalty_Charging>
0.000186407

> <r_epik_Ionization_Penalty_Neutral>
0.0010439

> <r_epik_State_Penalty>
-0

> <r_epik_Charging_Adjusted_Penalty>
0.000186407

> <i_epik_Tot_Q>
-1

> <i_epik_Tot_abs_Q>
1

> <r_epik_Metal_State_Penalty>
-0

> <b_epik_Metal_Only>
0

> <s_lp_Force_Field>
OPLS_2005

> <r_lp_Energy>
6.45659

> <b_lp_Chiralities_Consistent>
1

> <s_lp_Variant>
AV-unprocessed.smi:2735-3

> <Gold.Version>
5.8.1

> <Gold.Id.Protein>
6NUR|6NUR_protein|mol2

> <Gold.PLP.Fitness>
43.2595

> <Gold.PLP.PLP>
-35.3952

> <Gold.PLP.part.hbond>
-2.0000

> <Gold.PLP.part.metal>
0.0000

> <Gold.PLP.part.buried>
-6.0210

> <Gold.PLP.part.nonpolar>
-27.5869

> <Gold.PLP.part.repulsive>
0.2630

> <Gold.PLP.ligand.clash>
0.0168

> <Gold.PLP.ligand.torsion>
0.5998

> <Gold.PLP.Chemscore.Hbond>
2.9600

> <Gold.PLP.Chemscore.CHOScore>
0.0000

> <Gold.PLP.Chemscore.Metal>
0.0000

> <Gold.Chemscore.Hbonds>
donor molecule, donor type, donor heavy atom, donor atom, acceptor molecule, acceptor atom, score
      P1  H  7989  7998       L1    19  1.00
      P1  H 10752 10765       L1    18  1.57

> <Gold.PLP.Chemscore.Internal.Correction>
0.2008

> <Gold.Rescore>
     Score         DG    S(hbond)    S(metal)    S(lipo)     H(rot)  DE(clash)    DE(int)     intcor
     14.38     -16.50       1.93        0.00      88.10       2.24       0.01       2.11       ----

> <Gold.Chemscore.Fitness>
14.3773

> <Gold.Chemscore.DG>
-16.4996

> <Gold.Chemscore.ZeroCoef>
-5.4800

> <Gold.Chemscore.Hbond>
1.9293

> <Gold.Chemscore.Metal>
0.0000

> <Gold.Chemscore.Lipo>
88.0953

> <Gold.Chemscore.Internal_Hbond>
0.0000

> <Gold.Chemscore.DEClash>
0.0144

> <Gold.Chemscore.DEInternal>
2.1079

> <Gold.Chemscore.Rot>
2.2388

> <Gold.Chemscore.Internal.Correction>
   9.000000E+99

> <Gold.Chemscore.Hbonds>
donor molecule, donor type, donor heavy atom, donor atom, acceptor molecule, acceptor atom, score
      P1  H  7989  7998       L1    19  0.95
      P1  H 10752 10765       L1    18  0.74

> <Gold.Chemscore.Hbond.Weighted>
-6.4438

> <Gold.Chemscore.Metal.Weighted>
-0.0000

> <Gold.Chemscore.Lipo.Weighted>
-10.3071

> <Gold.Chemscore.Internal_Hbond.Weighted>
0.0000

> <Gold.Chemscore.DEClash.Weighted>
0.0144

> <Gold.Chemscore.DEInternal.Weighted>
2.1079

> <Gold.Chemscore.Rot.Weighted>
5.7314

> <Gold.Chemscore.Internal.Correction.Weighted>
   9.000000E+99

> <Gold.Protein.RotatedTorsions>
[ 6907 6896 6895 6894 ] final  -30.05 input  -60.11 | X-H torsion
[ 7974 7965 7964 7962 ] final   70.36 input  175.53 | X-H torsion
[ 8008 7997 7996 7995 ] final -145.73 input   59.86 | X-H torsion
[ 10167 10162 10161 10158 ] final   86.20 input  -65.29 | X-H torsion
[ 10718 10713 10712 10709 ] final -121.02 input   66.30 | X-H torsion
[ 10763 10752 10751 10750 ] final  179.65 input  -60.55 | X-H torsion
[ 11005 11000 10999 10996 ] final    8.74 input  -57.11 | X-H torsion

> <Gold.Protein.ActiveResidues>
 VAL166  LYS551  ARG553  GLY616  TRP617  ASP618  TYR619  PRO620  LYS621  CYS622 
 ASP623  PHE694  ASN695  SER759  ASP760  ASP761  ALA762  ILE779  LEU786  VAL792 
 PHE793  MET794  SER795  GLU796  ALA797  LYS798  CYS799  TRP800  GLU811  SER814 

> <Gold.Protein.RotatedAtoms>
  151.1108  135.0025  159.8492 H   0  0  0  0  0  0  0  0  0  0  0  0  # atno 6907 bound_to 6896
  152.5443  134.1838  159.8656 H   0  0  0  0  0  0  0  0  0  0  0  0  # atno 6908 bound_to 6896
  151.1888  133.4635  159.2628 H   0  0  0  0  0  0  0  0  0  0  0  0  # atno 6909 bound_to 6896
  145.7791  139.2879  143.1276 H   0  0  0  0  0  0  0  0  0  0  0  0  # atno 7974 bound_to 7965
  155.5478  140.0614  157.2856 H   0  0  0  0  0  0  0  0  0  0  0  0  # atno 8008 bound_to 7997
  154.4430  140.1908  156.0701 H   0  0  0  0  0  0  0  0  0  0  0  0  # atno 8009 bound_to 7997
  156.0538  140.3281  155.7385 H   0  0  0  0  0  0  0  0  0  0  0  0  # atno 8010 bound_to 7997
  139.8899  144.6391  150.8750 H   0  0  0  0  0  0  0  0  0  0  0  0  # atno 10167 bound_to 10162
  156.1304  130.6391  150.9612 H   0  0  0  0  0  0  0  0  0  0  0  0  # atno 10718 bound_to 10713
  154.5233  135.2795  155.1243 H   0  0  0  0  0  0  0  0  0  0  0  0  # atno 10763 bound_to 10752
  154.2792  135.6288  153.5344 H   0  0  0  0  0  0  0  0  0  0  0  0  # atno 10764 bound_to 10752
  152.9941  135.5647  154.5728 H   0  0  0  0  0  0  0  0  0  0  0  0  # atno 10765 bound_to 10752
  140.5336  134.0442  155.7881 H   0  0  0  0  0  0  0  0  0  0  0  0  # atno 11005 bound_to 11000
  146.0092  140.8451  142.9979 LP  0  0  0  0  0  0  0  0  0  0  0  0  # atno 17320 bound_to 7965
  144.6799  140.2465  143.7337 LP  0  0  0  0  0  0  0  0  0  0  0  0  # atno 17321 bound_to 7965
  140.7728  143.3518  151.1999 LP  0  0  0  0  0  0  0  0  0  0  0  0  # atno 17342 bound_to 10162
  139.7119  143.9363  152.2951 LP  0  0  0  0  0  0  0  0  0  0  0  0  # atno 17343 bound_to 10162
  157.6482  131.0901  150.8107 LP  0  0  0  0  0  0  0  0  0  0  0  0  # atno 17370 bound_to 10713
  156.8193  130.4978  149.5345 LP  0  0  0  0  0  0  0  0  0  0  0  0  # atno 17371 bound_to 10713
  141.1267  133.9371  157.2620 LP  0  0  0  0  0  0  0  0  0  0  0  0  # atno 17394 bound_to 11000
  139.9541  135.0169  156.9078 LP  0  0  0  0  0  0  0  0  0  0  0  0  # atno 17395 bound_to 11000

$$$$
