AV-unprocessed.smi:2153|AV-procd|sdf|8767|dock9
  -GOLD-   2272011543D 1   1.00000     0.00000
 Structure written by MMmdl.
 48 49  0  0  0  0  0  0  0  0  1 V2000
  147.6816  140.0160  153.8018 C   0  0  0  0  0  0  0  0  0  0  0  0
  149.1541  140.1908  154.2057 C   0  0  1  0  0  0  0  0  0  0  0  0
  149.2928  140.9169  155.5607 C   0  0  0  0  0  0  0  0  0  0  0  0
  150.7679  141.1240  155.9413 C   0  0  0  0  0  0  0  0  0  0  0  0
  151.5423  139.7972  155.9366 C   0  0  0  0  0  0  0  0  0  0  0  0
  151.4008  139.0779  154.5866 C   0  0  0  0  0  0  0  0  0  0  0  0
  149.9180  138.8472  154.2195 C   0  0  1  0  0  0  0  0  0  0  0  0
  149.2589  137.9993  155.1526 O   0  0  0  0  0  0  0  0  0  0  0  0
  149.9280  136.7964  155.4974 C   0  0  0  0  0  0  0  0  0  0  0  0
  148.9834  135.9306  156.3448 C   0  0  0  0  0  0  0  0  0  0  0  0
  148.7621  136.5094  157.6668 N   0  0  0  0  0  0  0  0  0  0  0  0
  148.7659  135.8189  158.8181 C   0  0  0  0  0  0  0  0  0  0  0  0
  148.9985  134.6107  158.8800 O   0  0  0  0  0  0  0  0  0  0  0  0
  148.4838  136.6198  160.0957 C   0  0  0  0  0  0  0  0  0  0  0  0
  147.4944  135.9612  160.9585 N   0  0  0  0  0  0  0  0  0  0  0  0
  147.7608  134.7029  161.4672 C   0  0  0  0  0  0  0  0  0  0  0  0
  146.8915  134.0101  162.2347 C   0  0  0  0  0  0  0  0  0  0  0  0
  145.5903  134.5690  162.5789 C   0  0  0  0  0  0  0  0  0  0  0  0
  144.7553  133.9704  163.2587 O   0  0  0  0  0  0  0  0  0  0  0  0
  145.3487  135.8621  162.0607 N   0  0  0  0  0  0  0  0  0  0  0  0
  144.0622  136.4554  162.3605 C   0  0  0  0  0  0  0  0  0  0  0  0
  146.2578  136.5780  161.2475 C   0  0  0  0  0  0  0  0  0  0  0  0
  145.9977  137.6940  160.7928 O   0  0  0  0  0  0  0  0  0  0  0  0
  147.1356  139.4161  154.5307 H   0  0  0  0  0  0  0  0  0  0  0  0
  147.5958  139.5226  152.8335 H   0  0  0  0  0  0  0  0  0  0  0  0
  147.1794  140.9805  153.7265 H   0  0  0  0  0  0  0  0  0  0  0  0
  149.6174  140.8227  153.4463 H   0  0  0  0  0  0  0  0  0  0  0  0
  148.7893  141.8832  155.5204 H   0  0  0  0  0  0  0  0  0  0  0  0
  148.7915  140.3441  156.3423 H   0  0  0  0  0  0  0  0  0  0  0  0
  151.2303  141.8180  155.2386 H   0  0  0  0  0  0  0  0  0  0  0  0
  150.8377  141.5898  156.9238 H   0  0  0  0  0  0  0  0  0  0  0  0
  152.5947  139.9811  156.1529 H   0  0  0  0  0  0  0  0  0  0  0  0
  151.1725  139.1500  156.7321 H   0  0  0  0  0  0  0  0  0  0  0  0
  151.8690  139.6845  153.8104 H   0  0  0  0  0  0  0  0  0  0  0  0
  151.9559  138.1407  154.5985 H   0  0  0  0  0  0  0  0  0  0  0  0
  149.8575  138.3947  153.2283 H   0  0  0  0  0  0  0  0  0  0  0  0
  150.2113  136.2528  154.5952 H   0  0  0  0  0  0  0  0  0  0  0  0
  150.8390  137.0065  156.0576 H   0  0  0  0  0  0  0  0  0  0  0  0
  148.0362  135.7793  155.8244 H   0  0  0  0  0  0  0  0  0  0  0  0
  149.4199  134.9409  156.4796 H   0  0  0  0  0  0  0  0  0  0  0  0
  148.5677  137.4994  157.7066 H   0  0  0  0  0  0  0  0  0  0  0  0
  149.4238  136.7395  160.6357 H   0  0  0  0  0  0  0  0  0  0  0  0
  148.1589  137.6309  159.8430 H   0  0  0  0  0  0  0  0  0  0  0  0
  148.7099  134.2432  161.2321 H   0  0  0  0  0  0  0  0  0  0  0  0
  147.1602  133.0277  162.5943 H   0  0  0  0  0  0  0  0  0  0  0  0
  144.0768  137.5290  162.1722 H   0  0  0  0  0  0  0  0  0  0  0  0
  143.8504  136.2957  163.4193 H   0  0  0  0  0  0  0  0  0  0  0  0
  143.3279  135.9563  161.7263 H   0  0  0  0  0  0  0  0  0  0  0  0
  1  2  1  0  0  0  0
  1 24  1  0  0  0  0
  1 25  1  0  0  0  0
  1 26  1  0  0  0  0
  2  7  1  0  0  0  0
  2  3  1  0  0  0  0
  2 27  1  0  0  0  0
  3  4  1  0  0  0  0
  3 28  1  0  0  0  0
  3 29  1  0  0  0  0
  4  5  1  0  0  0  0
  4 30  1  0  0  0  0
  4 31  1  0  0  0  0
  5  6  1  0  0  0  0
  5 32  1  0  0  0  0
  5 33  1  0  0  0  0
  6  7  1  0  0  0  0
  6 34  1  0  0  0  0
  6 35  1  0  0  0  0
  7  8  1  0  0  0  0
  7 36  1  0  0  0  0
  8  9  1  0  0  0  0
  9 10  1  0  0  0  0
  9 37  1  0  0  0  0
  9 38  1  0  0  0  0
 10 11  1  0  0  0  0
 10 39  1  0  0  0  0
 10 40  1  0  0  0  0
 11 12  1  0  0  0  0
 11 41  1  0  0  0  0
 12 13  2  0  0  0  0
 12 14  1  0  0  0  0
 14 15  1  0  0  0  0
 14 42  1  0  0  0  0
 14 43  1  0  0  0  0
 15 22  1  0  0  0  0
 15 16  1  0  0  0  0
 16 17  2  0  0  0  0
 16 44  1  0  0  0  0
 17 18  1  0  0  0  0
 17 45  1  0  0  0  0
 18 19  2  0  0  0  0
 18 20  1  0  0  0  0
 20 21  1  0  0  0  0
 20 22  1  0  0  0  0
 21 46  1  0  0  0  0
 21 47  1  0  0  0  0
 21 48  1  0  0  0  0
 22 23  2  0  0  0  0
M  END
> <s_m_source_file>
AV-unprocessed.smi

> <i_m_source_file_index>
2153

> <i_lp_mmshare_version>
43012

> <i_f3d_flags>
0

> <s_epik_input>
W0NIM11bQ0BASF0xW0NIMl1bQ0gyXVtDSDJdW0NIMl1bQ0BIXTFPW0NIMl1bQ0gyXVtOSF1DKD1PKVtDSDJdbjJbY0hdW2NIXWMoPU8pbihbQ0gzXSljMj1P

> <s_epik_cmdline>
J2VwaWtfcHl0aG9uJywgJy1waCcsICc3LjAnLCAnLXRuJywgJzgnLCAnLW1hJywgJzIwMCcsICctbWV0YWxfYmluZGluZycsICctaW1hZScsICc8aW5maWxlLm1hZT4nLCAnLW9tYWUnLCAnPG91dGZpbGUubWFlPic=

> <r_lp_tautomer_probability>
1

> <r_epik_Ionization_Penalty>
4.02205e-08

> <r_epik_Ionization_Penalty_Charging>
1.23606e-08

> <r_epik_Ionization_Penalty_Neutral>
2.78599e-08

> <r_epik_State_Penalty>
-0

> <r_epik_Charging_Adjusted_Penalty>
1.23606e-08

> <i_epik_Tot_Q>
0

> <i_epik_Tot_abs_Q>
0

> <r_epik_Metal_State_Penalty>
-0

> <b_epik_Metal_Only>
0

> <s_lp_Force_Field>
OPLS_2005

> <r_lp_Energy>
16.8304

> <b_lp_Chiralities_Consistent>
1

> <s_lp_Variant>
AV-unprocessed.smi:2153-2

> <Gold.Version>
5.8.1

> <Gold.Id.Protein>
6NUR|6NUR_protein|mol2

> <Gold.PLP.Fitness>
47.0570

> <Gold.PLP.PLP>
-41.5797

> <Gold.PLP.part.hbond>
-2.7734

> <Gold.PLP.part.metal>
0.0000

> <Gold.PLP.part.buried>
-5.3828

> <Gold.PLP.part.nonpolar>
-34.2820

> <Gold.PLP.part.repulsive>
0.2285

> <Gold.PLP.ligand.clash>
0.0000

> <Gold.PLP.ligand.torsion>
0.3472

> <Gold.PLP.Chemscore.Hbond>
2.0000

> <Gold.PLP.Chemscore.CHOScore>
0.0000

> <Gold.PLP.Chemscore.Metal>
0.0000

> <Gold.Chemscore.Hbonds>
donor molecule, donor type, donor heavy atom, donor atom, acceptor molecule, acceptor atom, score
      P1  H  6896  6908       L1    13  0.94
      P1  H  6934  6947       L1    23  1.00

> <Gold.PLP.Chemscore.Internal.Correction>
0.1717

> <Gold.Rescore>
     Score         DG    S(hbond)    S(metal)    S(lipo)     H(rot)  DE(clash)    DE(int)     intcor
     13.51     -15.27       1.79        0.00      80.60       2.20       0.34       1.42       ----

> <Gold.Chemscore.Fitness>
13.5146

> <Gold.Chemscore.DG>
-15.2737

> <Gold.Chemscore.ZeroCoef>
-5.4800

> <Gold.Chemscore.Hbond>
1.7925

> <Gold.Chemscore.Metal>
0.0000

> <Gold.Chemscore.Lipo>
80.6010

> <Gold.Chemscore.Internal_Hbond>
0.0000

> <Gold.Chemscore.DEClash>
0.3420

> <Gold.Chemscore.DEInternal>
1.4171

> <Gold.Chemscore.Rot>
2.1968

> <Gold.Chemscore.Internal.Correction>
   9.000000E+99

> <Gold.Chemscore.Hbonds>
donor molecule, donor type, donor heavy atom, donor atom, acceptor molecule, acceptor atom, score
      P1  H  6896  6908       L1    13  0.89
      P1  H  6934  6947       L1    23  0.98

> <Gold.Chemscore.Hbond.Weighted>
-5.9871

> <Gold.Chemscore.Metal.Weighted>
-0.0000

> <Gold.Chemscore.Lipo.Weighted>
-9.4303

> <Gold.Chemscore.Internal_Hbond.Weighted>
0.0000

> <Gold.Chemscore.DEClash.Weighted>
0.3420

> <Gold.Chemscore.DEInternal.Weighted>
1.4171

> <Gold.Chemscore.Rot.Weighted>
5.6238

> <Gold.Chemscore.Internal.Correction.Weighted>
   9.000000E+99

> <Gold.Protein.RotatedTorsions>
[ 6907 6896 6895 6894 ] final  132.72 input  -60.11 | X-H torsion
[ 7974 7965 7964 7962 ] final   21.18 input  175.53 | X-H torsion
[ 8008 7997 7996 7995 ] final  174.61 input   59.86 | X-H torsion
[ 10167 10162 10161 10158 ] final -154.21 input  -65.29 | X-H torsion
[ 10718 10713 10712 10709 ] final -159.31 input   66.30 | X-H torsion
[ 10763 10752 10751 10750 ] final   25.78 input  -60.55 | X-H torsion
[ 11005 11000 10999 10996 ] final   51.68 input  -57.11 | X-H torsion

> <Gold.Protein.ActiveResidues>
 VAL166  LYS551  ARG553  GLY616  TRP617  ASP618  TYR619  PRO620  LYS621  CYS622 
 ASP623  PHE694  ASN695  SER759  ASP760  ASP761  ALA762  ILE779  LEU786  VAL792 
 PHE793  MET794  SER795  GLU796  ALA797  LYS798  CYS799  TRP800  GLU811  SER814 

> <Gold.Protein.RotatedAtoms>
  152.3295  133.5942  159.5799 H   0  0  0  0  0  0  0  0  0  0  0  0  # atno 6907 bound_to 6896
  150.7415  133.9889  159.3609 H   0  0  0  0  0  0  0  0  0  0  0  0  # atno 6908 bound_to 6896
  151.7766  135.0773  160.0418 H   0  0  0  0  0  0  0  0  0  0  0  0  # atno 6909 bound_to 6896
  146.2081  139.8063  142.8710 H   0  0  0  0  0  0  0  0  0  0  0  0  # atno 7974 bound_to 7965
  156.0957  140.1430  156.9534 H   0  0  0  0  0  0  0  0  0  0  0  0  # atno 8008 bound_to 7997
  154.4670  140.0923  156.7091 H   0  0  0  0  0  0  0  0  0  0  0  0  # atno 8009 bound_to 7997
  155.4845  140.3446  155.4347 H   0  0  0  0  0  0  0  0  0  0  0  0  # atno 8010 bound_to 7997
  139.7032  143.9228  152.2437 H   0  0  0  0  0  0  0  0  0  0  0  0  # atno 10167 bound_to 10162
  156.5663  130.8669  151.2824 H   0  0  0  0  0  0  0  0  0  0  0  0  # atno 10718 bound_to 10713
  153.0668  135.6575  154.0337 H   0  0  0  0  0  0  0  0  0  0  0  0  # atno 10763 bound_to 10752
  153.9992  135.2938  155.3406 H   0  0  0  0  0  0  0  0  0  0  0  0  # atno 10764 bound_to 10752
  154.7028  135.5237  153.8621 H   0  0  0  0  0  0  0  0  0  0  0  0  # atno 10765 bound_to 10752
  140.0912  134.5207  155.8850 H   0  0  0  0  0  0  0  0  0  0  0  0  # atno 11005 bound_to 11000
  145.3243  141.0251  143.3483 LP  0  0  0  0  0  0  0  0  0  0  0  0  # atno 17320 bound_to 7965
  144.8844  139.4859  143.6707 LP  0  0  0  0  0  0  0  0  0  0  0  0  # atno 17321 bound_to 7965
  139.9077  144.6875  150.8596 LP  0  0  0  0  0  0  0  0  0  0  0  0  # atno 17342 bound_to 10162
  140.7715  143.3466  151.2098 LP  0  0  0  0  0  0  0  0  0  0  0  0  # atno 17343 bound_to 10162
  157.7358  130.9768  150.2100 LP  0  0  0  0  0  0  0  0  0  0  0  0  # atno 17370 bound_to 10713
  156.2754  130.3727  149.7989 LP  0  0  0  0  0  0  0  0  0  0  0  0  # atno 17371 bound_to 10713
  141.2078  133.6668  156.6331 LP  0  0  0  0  0  0  0  0  0  0  0  0  # atno 17394 bound_to 11000
  140.3350  134.7897  157.4355 LP  0  0  0  0  0  0  0  0  0  0  0  0  # atno 17395 bound_to 11000

$$$$
