AV-unprocessed.smi:2049|AV-procd|sdf|8323|dock8
  -GOLD-   2272010593D 1   1.00000     0.00000
 Structure written by MMmdl.
 50 52  0  0  0  0  0  0  0  0  1 V2000
  150.6042  140.1040  158.9945 O   0  0  0  0  0  0  0  0  0  0  0  0
  150.8305  140.9256  158.1060 C   0  0  0  0  0  0  0  0  0  0  0  0
  152.0260  141.8791  158.2193 C   0  0  0  0  0  0  0  0  0  0  0  0
  152.6972  141.7760  159.5244 N   0  0  0  0  0  0  0  0  0  0  0  0
  152.3706  142.7298  160.5030 C   0  0  0  0  0  0  0  0  0  0  0  0
  152.9383  142.6918  161.7169 C   0  0  0  0  0  0  0  0  0  0  0  0
  153.9039  141.6107  161.9529 C   0  0  0  0  0  0  0  0  0  0  0  0
  154.2013  140.7374  161.0644 N   0  0  0  0  0  0  0  0  0  0  0  0
  153.6018  140.7774  159.7912 C   0  0  0  0  0  0  0  0  0  0  0  0
  153.8794  139.9382  158.9335 O   0  0  0  0  0  0  0  0  0  0  0  0
  150.0787  141.0530  157.0032 N   0  0  0  0  0  0  0  0  0  0  0  0
  148.9541  140.1985  156.6243 C   0  0  0  0  0  0  0  0  0  0  0  0
  148.9054  139.9198  155.0828 C   0  0  0  0  0  0  0  0  0  0  0  0
  149.9160  138.8704  154.7274 N   0  0  0  0  0  0  0  0  0  0  0  0
  149.6623  137.5469  155.3154 C   0  0  0  0  0  0  0  0  0  0  0  0
  150.6397  136.4789  154.7982 C   0  0  0  0  0  0  0  0  0  0  0  0
  151.9742  136.8835  155.0704 O   0  0  0  0  0  0  0  0  0  0  0  0
  152.2898  138.1294  154.4636 C   0  0  0  0  0  0  0  0  0  0  0  0
  151.3250  139.2173  154.9666 C   0  0  0  0  0  0  0  0  0  0  0  0
  147.4551  139.4502  154.7189 C   0  0  0  0  0  0  0  0  0  0  0  0
  146.3555  140.5064  154.9395 C   0  0  0  0  0  0  0  0  0  0  0  0
  146.6730  141.7958  154.1726 C   0  0  0  0  0  0  0  0  0  0  0  0
  148.0645  142.3287  154.5374 C   0  0  0  0  0  0  0  0  0  0  0  0
  149.1581  141.2627  154.3273 C   0  0  0  0  0  0  0  0  0  0  0  0
  152.7422  141.6837  157.4186 H   0  0  0  0  0  0  0  0  0  0  0  0
  151.6682  142.8946  158.0449 H   0  0  0  0  0  0  0  0  0  0  0  0
  151.6417  143.4710  160.2093 H   0  0  0  0  0  0  0  0  0  0  0  0
  152.7310  143.3904  162.5139 H   0  0  0  0  0  0  0  0  0  0  0  0
  154.3582  141.5989  162.9468 H   0  0  0  0  0  0  0  0  0  0  0  0
  150.3479  141.7593  156.3339 H   0  0  0  0  0  0  0  0  0  0  0  0
  148.9729  139.2813  157.2096 H   0  0  0  0  0  0  0  0  0  0  0  0
  148.0410  140.6892  156.9585 H   0  0  0  0  0  0  0  0  0  0  0  0
  149.7426  137.5963  156.4013 H   0  0  0  0  0  0  0  0  0  0  0  0
  148.6571  137.1988  155.0885 H   0  0  0  0  0  0  0  0  0  0  0  0
  150.4510  135.5237  155.2881 H   0  0  0  0  0  0  0  0  0  0  0  0
  150.5080  136.3213  153.7266 H   0  0  0  0  0  0  0  0  0  0  0  0
  153.3184  138.3932  154.7102 H   0  0  0  0  0  0  0  0  0  0  0  0
  152.2349  138.0378  153.3775 H   0  0  0  0  0  0  0  0  0  0  0  0
  151.6017  140.1329  154.4507 H   0  0  0  0  0  0  0  0  0  0  0  0
  151.5032  139.3795  156.0292 H   0  0  0  0  0  0  0  0  0  0  0  0
  147.3860  139.2029  153.6622 H   0  0  0  0  0  0  0  0  0  0  0  0
  147.1996  138.5339  155.2514 H   0  0  0  0  0  0  0  0  0  0  0  0
  145.3996  140.1089  154.5976 H   0  0  0  0  0  0  0  0  0  0  0  0
  146.2190  140.7215  155.9980 H   0  0  0  0  0  0  0  0  0  0  0  0
  146.6274  141.6019  153.1002 H   0  0  0  0  0  0  0  0  0  0  0  0
  145.9158  142.5518  154.3825 H   0  0  0  0  0  0  0  0  0  0  0  0
  148.2887  143.2039  153.9269 H   0  0  0  0  0  0  0  0  0  0  0  0
  148.0679  142.6790  155.5693 H   0  0  0  0  0  0  0  0  0  0  0  0
  150.1150  141.6931  154.6228 H   0  0  0  0  0  0  0  0  0  0  0  0
  149.2311  141.0817  153.2555 H   0  0  0  0  0  0  0  0  0  0  0  0
  1  2  2  0  0  0  0
  2  3  1  0  0  0  0
  2 11  1  0  0  0  0
  3  4  1  0  0  0  0
  3 25  1  0  0  0  0
  3 26  1  0  0  0  0
  4  9  1  0  0  0  0
  4  5  1  0  0  0  0
  5  6  2  0  0  0  0
  5 27  1  0  0  0  0
  6  7  1  0  0  0  0
  6 28  1  0  0  0  0
  7  8  2  0  0  0  0
  7 29  1  0  0  0  0
  8  9  1  0  0  0  0
  9 10  2  0  0  0  0
 11 12  1  0  0  0  0
 11 30  1  0  0  0  0
 12 13  1  0  0  0  0
 12 31  1  0  0  0  0
 12 32  1  0  0  0  0
 13 24  1  0  0  0  0
 13 14  1  0  0  0  0
 13 20  1  0  0  0  0
 14 19  1  0  0  0  0
 14 15  1  0  0  0  0
 15 16  1  0  0  0  0
 15 33  1  0  0  0  0
 15 34  1  0  0  0  0
 16 17  1  0  0  0  0
 16 35  1  0  0  0  0
 16 36  1  0  0  0  0
 17 18  1  0  0  0  0
 18 19  1  0  0  0  0
 18 37  1  0  0  0  0
 18 38  1  0  0  0  0
 19 39  1  0  0  0  0
 19 40  1  0  0  0  0
 20 21  1  0  0  0  0
 20 41  1  0  0  0  0
 20 42  1  0  0  0  0
 21 22  1  0  0  0  0
 21 43  1  0  0  0  0
 21 44  1  0  0  0  0
 22 23  1  0  0  0  0
 22 45  1  0  0  0  0
 22 46  1  0  0  0  0
 23 24  1  0  0  0  0
 23 47  1  0  0  0  0
 23 48  1  0  0  0  0
 24 49  1  0  0  0  0
 24 50  1  0  0  0  0
M  END
> <s_m_source_file>
AV-unprocessed.smi

> <i_m_source_file_index>
2049

> <i_lp_mmshare_version>
43012

> <i_f3d_flags>
0

> <s_epik_input>
Tz1jMW5bY0hdW2NIXVtjSF1uMVtDSDJdQyg9TylbTkhdW0NIMl1DMihbQ0gyXVtDSDJdW0NIMl1bQ0gyXVtDSDJdMilOM1tDSDJdW0NIMl1PW0NIMl1bQ0gyXTM=

> <s_epik_cmdline>
J2VwaWtfcHl0aG9uJywgJy1waCcsICc3LjAnLCAnLXRuJywgJzgnLCAnLW1hJywgJzIwMCcsICctbWV0YWxfYmluZGluZycsICctaW1hZScsICc8aW5maWxlLm1hZT4nLCAnLW9tYWUnLCAnPG91dGZpbGUubWFlPic=

> <r_lp_tautomer_probability>
1

> <r_epik_Ionization_Penalty>
0.421133

> <r_epik_Ionization_Penalty_Charging>
1.67008e-08

> <r_epik_Ionization_Penalty_Neutral>
0.421133

> <r_epik_State_Penalty>
0.421833

> <r_epik_Charging_Adjusted_Penalty>
0.421833

> <i_epik_Tot_Q>
0

> <i_epik_Tot_abs_Q>
0

> <r_epik_Metal_State_Penalty>
0.421832

> <b_epik_Metal_Only>
0

> <s_lp_Force_Field>
OPLS_2005

> <r_lp_Energy>
55.5371

> <b_lp_Chiralities_Consistent>
1

> <s_lp_Variant>
AV-unprocessed.smi:2049-2

> <Gold.Version>
5.8.1

> <Gold.Id.Protein>
6NUR|6NUR_protein|mol2

> <Gold.PLP.Fitness>
46.2662

> <Gold.PLP.PLP>
-41.8788

> <Gold.PLP.part.hbond>
-2.0564

> <Gold.PLP.part.metal>
0.0000

> <Gold.PLP.part.buried>
-1.0783

> <Gold.PLP.part.nonpolar>
-38.2669

> <Gold.PLP.part.repulsive>
0.2494

> <Gold.PLP.ligand.clash>
0.0000

> <Gold.PLP.ligand.torsion>
0.7509

> <Gold.PLP.Chemscore.Hbond>
1.9357

> <Gold.PLP.Chemscore.CHOScore>
0.0000

> <Gold.PLP.Chemscore.Metal>
0.0000

> <Gold.Chemscore.Hbonds>
donor molecule, donor type, donor heavy atom, donor atom, acceptor molecule, acceptor atom, score
      P1  H  7997  8008       L1    10  1.00
      P1  H 10752 10764       L1    17  1.00

> <Gold.PLP.Chemscore.Internal.Correction>
0.0820

> <Gold.Rescore>
     Score         DG    S(hbond)    S(metal)    S(lipo)     H(rot)  DE(clash)    DE(int)     intcor
     14.46     -16.14       1.14        0.00     101.35       1.95       0.10       1.58       ----

> <Gold.Chemscore.Fitness>
14.4634

> <Gold.Chemscore.DG>
-16.1399

> <Gold.Chemscore.ZeroCoef>
-5.4800

> <Gold.Chemscore.Hbond>
1.1384

> <Gold.Chemscore.Metal>
0.0000

> <Gold.Chemscore.Lipo>
101.3482

> <Gold.Chemscore.Internal_Hbond>
0.0000

> <Gold.Chemscore.DEClash>
0.0977

> <Gold.Chemscore.DEInternal>
1.5788

> <Gold.Chemscore.Rot>
1.9531

> <Gold.Chemscore.Internal.Correction>
   9.000000E+99

> <Gold.Chemscore.Hbonds>
donor molecule, donor type, donor heavy atom, donor atom, acceptor molecule, acceptor atom, score
      P1  H  7997  8008       L1    10  0.96
      P1  H 10752 10764       L1    17  0.54

> <Gold.Chemscore.Hbond.Weighted>
-3.8022

> <Gold.Chemscore.Metal.Weighted>
-0.0000

> <Gold.Chemscore.Lipo.Weighted>
-11.8577

> <Gold.Chemscore.Internal_Hbond.Weighted>
0.0000

> <Gold.Chemscore.DEClash.Weighted>
0.0977

> <Gold.Chemscore.DEInternal.Weighted>
1.5788

> <Gold.Chemscore.Rot.Weighted>
5.0000

> <Gold.Chemscore.Internal.Correction.Weighted>
   9.000000E+99

> <Gold.Protein.RotatedTorsions>
[ 6907 6896 6895 6894 ] final  174.03 input  -60.11 | X-H torsion
[ 7974 7965 7964 7962 ] final -116.97 input  175.53 | X-H torsion
[ 8008 7997 7996 7995 ] final  -97.66 input   59.86 | X-H torsion
[ 10167 10162 10161 10158 ] final   51.51 input  -65.29 | X-H torsion
[ 10718 10713 10712 10709 ] final  -28.54 input   66.30 | X-H torsion
[ 10763 10752 10751 10750 ] final  -55.31 input  -60.55 | X-H torsion
[ 11005 11000 10999 10996 ] final   13.38 input  -57.11 | X-H torsion

> <Gold.Protein.ActiveResidues>
 VAL166  LYS551  ARG553  GLY616  TRP617  ASP618  TYR619  PRO620  LYS621  CYS622 
 ASP623  PHE694  ASN695  SER759  ASP760  ASP761  ALA762  ILE779  LEU786  VAL792 
 PHE793  MET794  SER795  GLU796  ALA797  LYS798  CYS799  TRP800  GLU811  SER814 

> <Gold.Protein.RotatedAtoms>
  151.7588  133.3332  159.3411 H   0  0  0  0  0  0  0  0  0  0  0  0  # atno 6907 bound_to 6896
  150.7506  134.6125  159.6103 H   0  0  0  0  0  0  0  0  0  0  0  0  # atno 6908 bound_to 6896
  152.3419  134.7125  160.0313 H   0  0  0  0  0  0  0  0  0  0  0  0  # atno 6909 bound_to 6896
  145.0906  140.8487  143.3984 H   0  0  0  0  0  0  0  0  0  0  0  0  # atno 7974 bound_to 7965
  154.7907  140.0461  157.1198 H   0  0  0  0  0  0  0  0  0  0  0  0  # atno 8008 bound_to 7997
  154.9595  140.3075  155.5018 H   0  0  0  0  0  0  0  0  0  0  0  0  # atno 8009 bound_to 7997
  156.2949  140.2273  156.4679 H   0  0  0  0  0  0  0  0  0  0  0  0  # atno 8010 bound_to 7997
  140.2612  144.3371  150.6317 H   0  0  0  0  0  0  0  0  0  0  0  0  # atno 10167 bound_to 10162
  156.4239  130.4432  149.7164 H   0  0  0  0  0  0  0  0  0  0  0  0  # atno 10718 bound_to 10713
  154.1888  135.6431  153.5054 H   0  0  0  0  0  0  0  0  0  0  0  0  # atno 10763 bound_to 10752
  153.0040  135.5423  154.6437 H   0  0  0  0  0  0  0  0  0  0  0  0  # atno 10764 bound_to 10752
  154.5820  135.2926  155.0696 H   0  0  0  0  0  0  0  0  0  0  0  0  # atno 10765 bound_to 10752
  140.4814  134.0931  155.7752 H   0  0  0  0  0  0  0  0  0  0  0  0  # atno 11005 bound_to 11000
  145.1070  139.2783  143.5657 LP  0  0  0  0  0  0  0  0  0  0  0  0  # atno 17320 bound_to 7965
  146.3531  140.0654  142.8626 LP  0  0  0  0  0  0  0  0  0  0  0  0  # atno 17321 bound_to 7965
  140.5964  143.2167  151.7155 LP  0  0  0  0  0  0  0  0  0  0  0  0  # atno 17342 bound_to 10162
  139.5016  144.3860  152.0328 LP  0  0  0  0  0  0  0  0  0  0  0  0  # atno 17343 bound_to 10162
  156.4094  130.7714  151.2727 LP  0  0  0  0  0  0  0  0  0  0  0  0  # atno 17370 bound_to 10713
  157.7508  131.0216  150.3756 LP  0  0  0  0  0  0  0  0  0  0  0  0  # atno 17371 bound_to 10713
  141.1529  133.8936  157.2052 LP  0  0  0  0  0  0  0  0  0  0  0  0  # atno 17394 bound_to 11000
  139.9824  135.0093  156.9781 LP  0  0  0  0  0  0  0  0  0  0  0  0  # atno 17395 bound_to 11000

$$$$
