AV-unprocessed.smi:1810|AV-procd|sdf|7333|dock4
  -GOLD-   22720 8593D 1   1.00000     0.00000
 Structure written by MMmdl.
 40 41  0  0  0  0  0  0  0  0  1 V2000
  150.9555  145.0350  158.8012 C   0  0  0  0  0  0  0  0  0  0  0  0
  151.3800  143.5996  158.6431 C   0  0  0  0  0  0  0  0  0  0  0  0
  151.0537  143.0157  157.5370 N   0  0  0  0  0  0  0  0  0  0  0  0
  151.3952  141.7008  157.2901 N   0  0  0  0  0  0  0  0  0  0  0  0
  150.9332  141.1970  155.9922 C   0  0  0  0  0  0  0  0  0  0  0  0
  149.7164  141.9843  155.4822 C   0  0  0  0  0  0  0  0  0  0  0  0
  149.3589  141.4878  154.1997 O   0  0  0  0  0  0  0  0  0  0  0  0
  148.3512  140.5505  154.1209 C   0  0  0  0  0  0  0  0  0  0  0  0
  147.8184  139.8573  155.2382 C   0  0  0  0  0  0  0  0  0  0  0  0
  146.7885  138.9120  155.0667 C   0  0  0  0  0  0  0  0  0  0  0  0
  146.2832  138.6540  153.7786 C   0  0  0  0  0  0  0  0  0  0  0  0
  144.9760  137.4501  153.5758 S   0  0  0  0  0  0  0  0  0  0  0  0
  143.9271  138.2438  152.4669 N   0  0  0  0  0  0  0  0  0  0  0  0
  145.5326  136.2724  152.8926 O   0  0  0  0  0  0  0  0  0  0  0  0
  144.2514  137.3091  154.8484 O   0  0  0  0  0  0  0  0  0  0  0  0
  146.8013  139.3342  152.6599 C   0  0  0  0  0  0  0  0  0  0  0  0
  147.8318  140.2774  152.8376 C   0  0  0  0  0  0  0  0  0  0  0  0
  152.0859  140.9022  158.1527 C   0  0  0  0  0  0  0  0  0  0  0  0
  152.3648  139.7309  157.8924 O   0  0  0  0  0  0  0  0  0  0  0  0
  152.4521  141.5695  159.4042 C   0  0  0  0  0  0  0  0  0  0  0  0
  153.1759  140.7680  160.3376 C   0  0  0  0  0  0  0  0  0  0  0  0
  153.7743  140.1347  161.0997 N   0  0  0  0  0  0  0  0  0  0  0  0
  152.1233  142.8609  159.6588 C   0  0  0  0  0  0  0  0  0  0  0  0
  152.4792  143.5998  160.9417 C   0  0  0  0  0  0  0  0  0  0  0  0
  151.8209  145.6809  158.9501 H   0  0  0  0  0  0  0  0  0  0  0  0
  150.2946  145.1504  159.6603 H   0  0  0  0  0  0  0  0  0  0  0  0
  150.4202  145.4000  157.9233 H   0  0  0  0  0  0  0  0  0  0  0  0
  151.7391  141.2643  155.2590 H   0  0  0  0  0  0  0  0  0  0  0  0
  150.6909  140.1350  156.0598 H   0  0  0  0  0  0  0  0  0  0  0  0
  148.8811  141.8709  156.1748 H   0  0  0  0  0  0  0  0  0  0  0  0
  149.9652  143.0448  155.4172 H   0  0  0  0  0  0  0  0  0  0  0  0
  148.1833  140.0317  156.2388 H   0  0  0  0  0  0  0  0  0  0  0  0
  146.3899  138.3881  155.9231 H   0  0  0  0  0  0  0  0  0  0  0  0
  144.1993  138.0859  151.4970 H   0  0  0  0  0  0  0  0  0  0  0  0
  143.7989  139.2294  152.6946 H   0  0  0  0  0  0  0  0  0  0  0  0
  146.4179  139.1396  151.6694 H   0  0  0  0  0  0  0  0  0  0  0  0
  148.2285  140.7984  151.9784 H   0  0  0  0  0  0  0  0  0  0  0  0
  153.0239  142.9697  161.6442 H   0  0  0  0  0  0  0  0  0  0  0  0
  151.5770  143.9475  161.4464 H   0  0  0  0  0  0  0  0  0  0  0  0
  153.1070  144.4642  160.7231 H   0  0  0  0  0  0  0  0  0  0  0  0
  1  2  1  0  0  0  0
  1 25  1  0  0  0  0
  1 26  1  0  0  0  0
  1 27  1  0  0  0  0
  2 23  1  0  0  0  0
  2  3  2  0  0  0  0
  3  4  1  0  0  0  0
  4  5  1  0  0  0  0
  4 18  1  0  0  0  0
  5  6  1  0  0  0  0
  5 28  1  0  0  0  0
  5 29  1  0  0  0  0
  6  7  1  0  0  0  0
  6 30  1  0  0  0  0
  6 31  1  0  0  0  0
  7  8  1  0  0  0  0
  8 17  1  0  0  0  0
  8  9  2  0  0  0  0
  9 10  1  0  0  0  0
  9 32  1  0  0  0  0
 10 11  2  0  0  0  0
 10 33  1  0  0  0  0
 11 12  1  0  0  0  0
 11 16  1  0  0  0  0
 12 13  1  0  0  0  0
 12 14  2  0  0  0  0
 12 15  2  0  0  0  0
 13 34  1  0  0  0  0
 13 35  1  0  0  0  0
 16 17  2  0  0  0  0
 16 36  1  0  0  0  0
 17 37  1  0  0  0  0
 18 19  2  0  0  0  0
 18 20  1  0  0  0  0
 20 21  1  0  0  0  0
 20 23  2  0  0  0  0
 21 22  3  0  0  0  0
 23 24  1  0  0  0  0
 24 38  1  0  0  0  0
 24 39  1  0  0  0  0
 24 40  1  0  0  0  0
M  END
> <s_m_source_file>
AV-unprocessed.smi

> <i_m_source_file_index>
1810

> <i_lp_mmshare_version>
43012

> <i_f3d_flags>
0

> <s_epik_input>
TiNDYyhjMVtDSDNdKWMoPU8pbihuYzFbQ0gzXSlbQ0gyXVtDSDJdT2MyW2NIXVtjSF1jKFMoPU8pKD1PKVtOSDJdKVtjSF1bY0hdMg==

> <s_epik_cmdline>
J2VwaWtfcHl0aG9uJywgJy1waCcsICc3LjAnLCAnLXRuJywgJzgnLCAnLW1hJywgJzIwMCcsICctbWV0YWxfYmluZGluZycsICctaW1hZScsICc8aW5maWxlLm1hZT4nLCAnLW9tYWUnLCAnPG91dGZpbGUubWFlPic=

> <r_lp_tautomer_probability>
1

> <r_epik_Ionization_Penalty>
0.000347403

> <r_epik_Ionization_Penalty_Charging>
5.27838e-11

> <r_epik_Ionization_Penalty_Neutral>
0.000347403

> <r_epik_State_Penalty>
0.00021091

> <r_epik_Charging_Adjusted_Penalty>
0.000210911

> <i_epik_Tot_Q>
0

> <i_epik_Tot_abs_Q>
0

> <r_epik_Metal_State_Penalty>
0.18648

> <b_epik_Metal_Only>
0

> <s_lp_Force_Field>
OPLS_2005

> <r_lp_Energy>
32.1268

> <b_lp_Chiralities_Consistent>
1

> <s_lp_Variant>
AV-unprocessed.smi:1810-1

> <Gold.Version>
5.8.1

> <Gold.Id.Protein>
6NUR|6NUR_protein|mol2

> <Gold.PLP.Fitness>
45.8460

> <Gold.PLP.PLP>
-37.6473

> <Gold.PLP.part.hbond>
-4.7023

> <Gold.PLP.part.metal>
0.0000

> <Gold.PLP.part.buried>
0.5242

> <Gold.PLP.part.nonpolar>
-32.8970

> <Gold.PLP.part.repulsive>
0.4912

> <Gold.PLP.ligand.clash>
0.0000

> <Gold.PLP.ligand.torsion>
1.8713

> <Gold.PLP.Chemscore.Hbond>
3.3178

> <Gold.PLP.Chemscore.CHOScore>
0.0000

> <Gold.PLP.Chemscore.Metal>
0.0000

> <Gold.Chemscore.Hbonds>
donor molecule, donor type, donor heavy atom, donor atom, acceptor molecule, acceptor atom, score
      L1  H    13    34       P1 10171  0.85
      L1  H    13    35       P1 10175  0.28
      P1  H  7997  8010       L1    19  0.15
      P1  H  8011  8017       L1     7  0.49

> <Gold.PLP.Chemscore.Internal.Correction>
1.9881

> <Gold.Rescore>
     Score         DG    S(hbond)    S(metal)    S(lipo)     H(rot)  DE(clash)    DE(int)     intcor
     17.50     -22.31       3.07        0.00      99.97       1.99       3.08       1.74       ----

> <Gold.Chemscore.Fitness>
17.4974

> <Gold.Chemscore.DG>
-22.3136

> <Gold.Chemscore.ZeroCoef>
-5.4800

> <Gold.Chemscore.Hbond>
3.0652

> <Gold.Chemscore.Metal>
0.0000

> <Gold.Chemscore.Lipo>
99.9715

> <Gold.Chemscore.Internal_Hbond>
0.0000

> <Gold.Chemscore.DEClash>
3.0765

> <Gold.Chemscore.DEInternal>
1.7397

> <Gold.Chemscore.Rot>
1.9925

> <Gold.Chemscore.Internal.Correction>
   9.000000E+99

> <Gold.Chemscore.Hbonds>
donor molecule, donor type, donor heavy atom, donor atom, acceptor molecule, acceptor atom, score
      L1  H    13    34       P1 10171  0.85
      L1  H    13    35       P1 10175  0.27
      P1  H  7997  8010       L1    19  0.04
      P1  H  8011  8017       L1     7  0.42

> <Gold.Chemscore.Hbond.Weighted>
-10.2376

> <Gold.Chemscore.Metal.Weighted>
-0.0000

> <Gold.Chemscore.Lipo.Weighted>
-11.6967

> <Gold.Chemscore.Internal_Hbond.Weighted>
0.0000

> <Gold.Chemscore.DEClash.Weighted>
3.0765

> <Gold.Chemscore.DEInternal.Weighted>
1.7397

> <Gold.Chemscore.Rot.Weighted>
5.1007

> <Gold.Chemscore.Internal.Correction.Weighted>
   9.000000E+99

> <Gold.Protein.RotatedTorsions>
[ 6907 6896 6895 6894 ] final  153.61 input  -60.11 | X-H torsion
[ 7974 7965 7964 7962 ] final -116.68 input  175.53 | X-H torsion
[ 8008 7997 7996 7995 ] final   48.46 input   59.86 | X-H torsion
[ 10167 10162 10161 10158 ] final -137.18 input  -65.29 | X-H torsion
[ 10718 10713 10712 10709 ] final -153.10 input   66.30 | X-H torsion
[ 10763 10752 10751 10750 ] final   26.93 input  -60.55 | X-H torsion
[ 11005 11000 10999 10996 ] final  -24.70 input  -57.11 | X-H torsion

> <Gold.Protein.ActiveResidues>
 VAL166  LYS551  ARG553  GLY616  TRP617  ASP618  TYR619  PRO620  LYS621  CYS622 
 ASP623  PHE694  ASN695  SER759  ASP760  ASP761  ALA762  ILE779  LEU786  VAL792 
 PHE793  MET794  SER795  GLU796  ALA797  LYS798  CYS799  TRP800  GLU811  SER814 

> <Gold.Protein.RotatedAtoms>
  152.0702  133.4103  159.4455 H   0  0  0  0  0  0  0  0  0  0  0  0  # atno 6907 bound_to 6896
  150.6864  134.3100  159.4751 H   0  0  0  0  0  0  0  0  0  0  0  0  # atno 6908 bound_to 6896
  152.0931  134.9393  160.0622 H   0  0  0  0  0  0  0  0  0  0  0  0  # atno 6909 bound_to 6896
  145.0940  140.8508  143.3966 H   0  0  0  0  0  0  0  0  0  0  0  0  # atno 7974 bound_to 7965
  155.3860  140.3431  155.4249 H   0  0  0  0  0  0  0  0  0  0  0  0  # atno 8008 bound_to 7997
  156.1584  140.1593  156.8687 H   0  0  0  0  0  0  0  0  0  0  0  0  # atno 8009 bound_to 7997
  154.5116  140.0788  156.7983 H   0  0  0  0  0  0  0  0  0  0  0  0  # atno 8010 bound_to 7997
  139.8604  143.7085  152.2650 H   0  0  0  0  0  0  0  0  0  0  0  0  # atno 10167 bound_to 10162
  156.4814  130.8304  151.2531 H   0  0  0  0  0  0  0  0  0  0  0  0  # atno 10718 bound_to 10713
  153.0589  135.6549  154.0509 H   0  0  0  0  0  0  0  0  0  0  0  0  # atno 10763 bound_to 10752
  154.0181  135.2922  155.3386 H   0  0  0  0  0  0  0  0  0  0  0  0  # atno 10764 bound_to 10752
  154.6918  135.5279  153.8471 H   0  0  0  0  0  0  0  0  0  0  0  0  # atno 10765 bound_to 10752
  140.8869  133.7615  156.0372 H   0  0  0  0  0  0  0  0  0  0  0  0  # atno 11005 bound_to 11000
  145.1033  139.2807  143.5675 LP  0  0  0  0  0  0  0  0  0  0  0  0  # atno 17320 bound_to 7965
  146.3531  140.0606  142.8629 LP  0  0  0  0  0  0  0  0  0  0  0  0  # atno 17321 bound_to 7965
  139.7379  144.7566  151.0698 LP  0  0  0  0  0  0  0  0  0  0  0  0  # atno 17342 bound_to 10162
  140.7776  143.5008  150.9774 LP  0  0  0  0  0  0  0  0  0  0  0  0  # atno 17343 bound_to 10162
  157.7483  131.0044  150.3073 LP  0  0  0  0  0  0  0  0  0  0  0  0  # atno 17370 bound_to 10713
  156.3518  130.3832  149.7323 LP  0  0  0  0  0  0  0  0  0  0  0  0  # atno 17371 bound_to 10713
  140.8394  134.3085  157.5319 LP  0  0  0  0  0  0  0  0  0  0  0  0  # atno 17394 bound_to 11000
  139.8725  134.9407  156.3778 LP  0  0  0  0  0  0  0  0  0  0  0  0  # atno 17395 bound_to 11000

$$$$
