AV-unprocessed.smi:3025|AV-procd|sdf|11505|dock2
  -GOLD-   2272016443D 1   1.00000     0.00000
 Structure written by MMmdl.
 42 43  0  0  0  0  0  0  0  0  2 V2000
  151.0732  142.9148  157.6607 C   0  0  0  0  0  0  0  0  0  0  0  0
  150.9744  141.4560  158.1197 C   0  0  0  0  0  0  0  0  0  0  0  0
  151.7348  140.4941  157.1908 C   0  0  0  0  0  0  0  0  0  0  0  0
  151.0261  140.2230  155.8475 C   0  0  2  0  0  0  0  0  0  0  0  0
  149.5933  140.7964  155.8038 C   0  0  0  0  0  0  0  0  0  0  0  0
  148.8986  140.5012  154.4642 C   0  0  0  0  0  0  0  0  0  0  0  0
  148.8754  138.9900  154.1552 C   0  0  1  0  0  0  0  0  0  0  0  0
  148.2643  138.7138  152.8359 N   0  3  0  0  0  0  0  0  0  0  0  0
  146.7888  138.7896  152.7957 C   0  0  0  0  0  0  0  0  0  0  0  0
  146.2252  137.9405  151.6488 C   0  0  0  0  0  0  0  0  0  0  0  0
  145.0271  137.1492  152.0606 C   0  0  0  0  0  0  0  0  0  0  0  0
  143.8782  137.7247  152.4208 N   0  0  0  0  0  0  0  0  0  0  0  0
  142.9873  136.7682  152.7558 N   0  0  0  0  0  0  0  0  0  0  0  0
  143.6901  135.6529  152.5669 C   0  0  0  0  0  0  0  0  0  0  0  0
  144.9764  135.8239  152.1357 N   0  0  0  0  0  0  0  0  0  0  0  0
  150.3051  138.4215  154.1961 C   0  0  0  0  0  0  0  0  0  0  0  0
  150.9901  138.7124  155.5407 C   0  0  0  0  0  0  0  0  0  0  0  0
  143.6641  138.7115  152.4512 H   0  0  0  0  0  0  0  0  0  0  0  0
  150.5270  143.5726  158.3370 H   0  0  0  0  0  0  0  0  0  0  0  0
  150.6542  143.0434  156.6624 H   0  0  0  0  0  0  0  0  0  0  0  0
  152.1102  143.2507  157.6360 H   0  0  0  0  0  0  0  0  0  0  0  0
  151.3607  141.3833  159.1360 H   0  0  0  0  0  0  0  0  0  0  0  0
  149.9238  141.1675  158.1662 H   0  0  0  0  0  0  0  0  0  0  0  0
  152.7165  140.9244  156.9882 H   0  0  0  0  0  0  0  0  0  0  0  0
  151.9210  139.5519  157.7079 H   0  0  0  0  0  0  0  0  0  0  0  0
  151.6095  140.7041  155.0607 H   0  0  0  0  0  0  0  0  0  0  0  0
  149.0031  140.3769  156.6198 H   0  0  0  0  0  0  0  0  0  0  0  0
  149.6089  141.8749  155.9586 H   0  0  0  0  0  0  0  0  0  0  0  0
  147.8862  140.9030  154.4987 H   0  0  0  0  0  0  0  0  0  0  0  0
  149.4147  141.0346  153.6644 H   0  0  0  0  0  0  0  0  0  0  0  0
  148.2876  138.4770  154.9186 H   0  0  0  0  0  0  0  0  0  0  0  0
  148.6512  139.3548  152.1577 H   0  0  0  0  0  0  0  0  0  0  0  0
  146.3861  138.4407  153.7478 H   0  0  0  0  0  0  0  0  0  0  0  0
  146.4728  139.8253  152.6709 H   0  0  0  0  0  0  0  0  0  0  0  0
  145.9540  138.5794  150.8069 H   0  0  0  0  0  0  0  0  0  0  0  0
  146.9863  137.2498  151.2832 H   0  0  0  0  0  0  0  0  0  0  0  0
  143.2620  134.6782  152.7495 H   0  0  0  0  0  0  0  0  0  0  0  0
  150.2840  137.3445  154.0249 H   0  0  0  0  0  0  0  0  0  0  0  0
  150.8996  138.8506  153.3881 H   0  0  0  0  0  0  0  0  0  0  0  0
  152.0041  138.3108  155.5227 H   0  0  0  0  0  0  0  0  0  0  0  0
  150.4650  138.1854  156.3389 H   0  0  0  0  0  0  0  0  0  0  0  0
  148.5229  137.7741  152.5709 H   0  0  0  0  0  0  0  0  0  0  0  0
  1  2  1  0  0  0  0
  1 19  1  0  0  0  0
  1 20  1  0  0  0  0
  1 21  1  0  0  0  0
  2  3  1  0  0  0  0
  2 22  1  0  0  0  0
  2 23  1  0  0  0  0
  3  4  1  0  0  0  0
  3 24  1  0  0  0  0
  3 25  1  0  0  0  0
  4 17  1  0  0  0  0
  4  5  1  0  0  0  0
  4 26  1  0  0  0  0
  5  6  1  0  0  0  0
  5 27  1  0  0  0  0
  5 28  1  0  0  0  0
  6  7  1  0  0  0  0
  6 29  1  0  0  0  0
  6 30  1  0  0  0  0
  7  8  1  0  0  0  0
  7 16  1  0  0  0  0
  7 31  1  0  0  0  0
  8  9  1  0  0  0  0
  8 32  1  0  0  0  0
  8 42  1  0  0  0  0
  9 10  1  0  0  0  0
  9 33  1  0  0  0  0
  9 34  1  0  0  0  0
 10 35  1  0  0  0  0
 10 36  1  0  0  0  0
 10 11  1  0  0  0  0
 11 15  2  0  0  0  0
 11 12  1  0  0  0  0
 12 18  1  0  0  0  0
 12 13  1  0  0  0  0
 13 14  2  0  0  0  0
 14 15  1  0  0  0  0
 14 37  1  0  0  0  0
 16 17  1  0  0  0  0
 16 38  1  0  0  0  0
 16 39  1  0  0  0  0
 17 40  1  0  0  0  0
 17 41  1  0  0  0  0
M  CHG  1   8   1
M  END
> <s_m_source_file>
AV-unprocessed.smi

> <i_m_source_file_index>
3025

> <i_lp_mmshare_version>
43012

> <i_f3d_flags>
0

> <s_epik_input>
W0NIM11bQ0gyXVtDSDJdW0NAQEhdMVtDSDJdW0NIMl1bQ0BIXShbQ0gyXVtDSDJdMSlbTkhdW0NIMl1bQ0gyXWMybm5bY0hdW25IXTI=

> <s_epik_cmdline>
J2VwaWtfcHl0aG9uJywgJy1waCcsICc3LjAnLCAnLXRuJywgJzgnLCAnLW1hJywgJzIwMCcsICctbWV0YWxfYmluZGluZycsICctaW1hZScsICc8aW5maWxlLm1hZT4nLCAnLW9tYWUnLCAnPG91dGZpbGUubWFlPic=

> <r_lp_tautomer_probability>
0.948284

> <r_epik_Ionization_Penalty>
0.0093758

> <r_epik_Ionization_Penalty_Charging>
0.000546397

> <r_epik_Ionization_Penalty_Neutral>
0.00882941

> <r_epik_State_Penalty>
0.401098

> <r_epik_Charging_Adjusted_Penalty>
0.401645

> <i_epik_Tot_Q>
1

> <i_epik_Tot_abs_Q>
1

> <r_epik_Metal_State_Penalty>
0.634803

> <b_epik_Metal_Only>
0

> <s_lp_Force_Field>
OPLS_2005

> <r_lp_Energy>
13.6193

> <b_lp_Chiralities_Consistent>
1

> <s_lp_Variant>
AV-unprocessed.smi:3025-1

> <Gold.Version>
5.8.1

> <Gold.Id.Protein>
6NUR|6NUR_protein|mol2

> <Gold.PLP.Fitness>
42.5087

> <Gold.PLP.PLP>
-33.1723

> <Gold.PLP.part.hbond>
-3.9598

> <Gold.PLP.part.metal>
0.0000

> <Gold.PLP.part.buried>
-1.6593

> <Gold.PLP.part.nonpolar>
-28.4176

> <Gold.PLP.part.repulsive>
0.3927

> <Gold.PLP.ligand.clash>
0.0000

> <Gold.PLP.ligand.torsion>
1.3785

> <Gold.PLP.Chemscore.Hbond>
4.0000

> <Gold.PLP.Chemscore.CHOScore>
0.0000

> <Gold.PLP.Chemscore.Metal>
0.0000

> <Gold.Chemscore.Hbonds>
donor molecule, donor type, donor heavy atom, donor atom, acceptor molecule, acceptor atom, score
      L1  H     8    32       P1  7957  0.99
      L1  H     8    42       P1  7948  2.00
      L1  H    12    18       P1 10175  1.00

> <Gold.PLP.Chemscore.Internal.Correction>
0.0934

> <Gold.Rescore>
     Score         DG    S(hbond)    S(metal)    S(lipo)     H(rot)  DE(clash)    DE(int)     intcor
     16.65     -18.19       2.99        0.00      79.36       2.56       0.08       1.45       ----

> <Gold.Chemscore.Fitness>
16.6491

> <Gold.Chemscore.DG>
-18.1868

> <Gold.Chemscore.ZeroCoef>
-5.4800

> <Gold.Chemscore.Hbond>
2.9867

> <Gold.Chemscore.Metal>
0.0000

> <Gold.Chemscore.Lipo>
79.3644

> <Gold.Chemscore.Internal_Hbond>
0.0000

> <Gold.Chemscore.DEClash>
0.0830

> <Gold.Chemscore.DEInternal>
1.4547

> <Gold.Chemscore.Rot>
2.5602

> <Gold.Chemscore.Internal.Correction>
   9.000000E+99

> <Gold.Chemscore.Hbonds>
donor molecule, donor type, donor heavy atom, donor atom, acceptor molecule, acceptor atom, score
      L1  H     8    32       P1  7957  0.92
      L1  H     8    42       P1  7948  1.00
      L1  H    12    18       P1 10175  1.00

> <Gold.Chemscore.Hbond.Weighted>
-9.9754

> <Gold.Chemscore.Metal.Weighted>
-0.0000

> <Gold.Chemscore.Lipo.Weighted>
-9.2856

> <Gold.Chemscore.Internal_Hbond.Weighted>
0.0000

> <Gold.Chemscore.DEClash.Weighted>
0.0830

> <Gold.Chemscore.DEInternal.Weighted>
1.4547

> <Gold.Chemscore.Rot.Weighted>
6.5542

> <Gold.Chemscore.Internal.Correction.Weighted>
   9.000000E+99

> <Gold.Protein.RotatedTorsions>
[ 6907 6896 6895 6894 ] final   78.67 input  -60.11 | X-H torsion
[ 7974 7965 7964 7962 ] final -170.04 input  175.53 | X-H torsion
[ 8008 7997 7996 7995 ] final -116.31 input   59.86 | X-H torsion
[ 10167 10162 10161 10158 ] final -118.43 input  -65.29 | X-H torsion
[ 10718 10713 10712 10709 ] final  103.27 input   66.30 | X-H torsion
[ 10763 10752 10751 10750 ] final  152.98 input  -60.55 | X-H torsion
[ 11005 11000 10999 10996 ] final  137.72 input  -57.11 | X-H torsion

> <Gold.Protein.ActiveResidues>
 VAL166  LYS551  ARG553  GLY616  TRP617  ASP618  TYR619  PRO620  LYS621  CYS622 
 ASP623  PHE694  ASN695  SER759  ASP760  ASP761  ALA762  ILE779  LEU786  VAL792 
 PHE793  MET794  SER795  GLU796  ALA797  LYS798  CYS799  TRP800  GLU811  SER814 

> <Gold.Protein.RotatedAtoms>
  152.5168  134.3629  159.9290 H   0  0  0  0  0  0  0  0  0  0  0  0  # atno 6907 bound_to 6896
  151.3581  133.3893  159.2694 H   0  0  0  0  0  0  0  0  0  0  0  0  # atno 6908 bound_to 6896
  150.9673  134.9071  159.7825 H   0  0  0  0  0  0  0  0  0  0  0  0  # atno 6909 bound_to 6896
  144.7176  140.2131  143.6325 H   0  0  0  0  0  0  0  0  0  0  0  0  # atno 7974 bound_to 7965
  155.0659  140.0393  157.2592 H   0  0  0  0  0  0  0  0  0  0  0  0  # atno 8008 bound_to 7997
  154.7022  140.2675  155.6684 H   0  0  0  0  0  0  0  0  0  0  0  0  # atno 8009 bound_to 7997
  156.2764  140.2738  156.1636 H   0  0  0  0  0  0  0  0  0  0  0  0  # atno 8010 bound_to 7997
  140.0575  143.5000  152.2049 H   0  0  0  0  0  0  0  0  0  0  0  0  # atno 10167 bound_to 10162
  157.6777  131.0774  150.5529 H   0  0  0  0  0  0  0  0  0  0  0  0  # atno 10718 bound_to 10713
  154.1288  135.2828  155.3190 H   0  0  0  0  0  0  0  0  0  0  0  0  # atno 10763 bound_to 10752
  154.6370  135.5415  153.7749 H   0  0  0  0  0  0  0  0  0  0  0  0  # atno 10764 bound_to 10752
  153.0288  135.6477  154.1439 H   0  0  0  0  0  0  0  0  0  0  0  0  # atno 10765 bound_to 10752
  140.0133  134.9429  157.0324 H   0  0  0  0  0  0  0  0  0  0  0  0  # atno 11005 bound_to 11000
  145.8572  139.2205  143.1737 LP  0  0  0  0  0  0  0  0  0  0  0  0  # atno 17320 bound_to 7965
  146.0206  140.8351  142.9925 LP  0  0  0  0  0  0  0  0  0  0  0  0  # atno 17321 bound_to 7965
  139.5914  144.7551  151.3391 LP  0  0  0  0  0  0  0  0  0  0  0  0  # atno 17342 bound_to 10162
  140.7187  143.7194  150.7707 LP  0  0  0  0  0  0  0  0  0  0  0  0  # atno 17343 bound_to 10162
  156.5834  130.4310  149.5967 LP  0  0  0  0  0  0  0  0  0  0  0  0  # atno 17370 bound_to 10713
  156.2643  130.6980  151.1758 LP  0  0  0  0  0  0  0  0  0  0  0  0  # atno 17371 bound_to 10713
  140.4515  134.1577  155.7182 LP  0  0  0  0  0  0  0  0  0  0  0  0  # atno 17394 bound_to 11000
  141.1726  133.8578  157.1523 LP  0  0  0  0  0  0  0  0  0  0  0  0  # atno 17395 bound_to 11000

$$$$
