AV-unprocessed.smi:3347|AV-procd|sdf|12914|dock6
  -GOLD-   2272019333D 1   1.00000     0.00000
 Structure written by MMmdl.
 40 42  0  0  0  0  0  0  0  0  2 V2000
  150.5881  140.6629  156.4334 O   0  0  0  0  0  0  0  0  0  0  0  0
  150.1347  141.7775  156.1750 C   0  0  0  0  0  0  0  0  0  0  0  0
  149.3367  142.0238  155.1262 N   0  0  0  0  0  0  0  0  0  0  0  0
  148.9157  141.0406  154.1323 C   0  0  0  0  0  0  0  0  0  0  0  0
  147.3932  140.8025  154.1566 C   0  0  1  0  0  0  0  0  0  0  0  0
  146.8785  140.2532  155.4855 C   0  0  0  0  0  0  0  0  0  0  0  0
  145.3845  140.5983  155.4845 C   0  0  0  0  0  0  0  0  0  0  0  0
  145.1998  141.6936  154.5041 N   0  3  1  0  0  0  0  0  0  0  0  0
  144.4233  142.8423  155.0175 C   0  0  0  0  0  0  0  0  0  0  0  0
  144.7739  144.1526  154.3541 C   0  0  0  0  0  0  0  0  0  0  0  0
  145.2624  143.8573  155.7559 C   0  0  0  0  0  0  0  0  0  0  0  0
  146.5333  142.0572  153.9839 C   0  0  0  0  0  0  0  0  0  0  0  0
  150.3421  142.8910  156.8983 N   0  0  0  0  0  0  0  0  0  0  0  0
  151.1155  143.0538  158.0798 C   0  0  0  0  0  0  0  0  0  0  0  0
  151.7483  144.2612  158.4646 C   0  0  0  0  0  0  0  0  0  0  0  0
  152.4747  144.2933  159.6706 C   0  0  0  0  0  0  0  0  0  0  0  0
  152.5362  143.1227  160.4510 C   0  0  0  0  0  0  0  0  0  0  0  0
  151.9281  141.9693  160.1034 N   0  0  0  0  0  0  0  0  0  0  0  0
  151.2331  141.9461  158.9464 C   0  0  0  0  0  0  0  0  0  0  0  0
  149.0077  142.9693  154.9947 H   0  0  0  0  0  0  0  0  0  0  0  0
  149.2071  141.4214  153.1531 H   0  0  0  0  0  0  0  0  0  0  0  0
  149.4568  140.1022  154.2656 H   0  0  0  0  0  0  0  0  0  0  0  0
  147.1304  140.0916  153.3711 H   0  0  0  0  0  0  0  0  0  0  0  0
  147.0622  139.1844  155.6001 H   0  0  0  0  0  0  0  0  0  0  0  0
  147.3681  140.7650  156.3156 H   0  0  0  0  0  0  0  0  0  0  0  0
  144.7912  139.7437  155.1584 H   0  0  0  0  0  0  0  0  0  0  0  0
  145.0451  140.8729  156.4845 H   0  0  0  0  0  0  0  0  0  0  0  0
  143.4009  142.6369  155.3306 H   0  0  0  0  0  0  0  0  0  0  0  0
  145.5102  144.1434  153.5524 H   0  0  0  0  0  0  0  0  0  0  0  0
  143.9807  144.8897  154.2481 H   0  0  0  0  0  0  0  0  0  0  0  0
  144.7905  144.4004  156.5722 H   0  0  0  0  0  0  0  0  0  0  0  0
  146.3235  143.6519  155.8864 H   0  0  0  0  0  0  0  0  0  0  0  0
  146.9468  142.8744  154.5781 H   0  0  0  0  0  0  0  0  0  0  0  0
  146.4757  142.3901  152.9471 H   0  0  0  0  0  0  0  0  0  0  0  0
  149.8438  143.7148  156.5948 H   0  0  0  0  0  0  0  0  0  0  0  0
  151.6831  145.1614  157.8741 H   0  0  0  0  0  0  0  0  0  0  0  0
  152.9694  145.1974  159.9928 H   0  0  0  0  0  0  0  0  0  0  0  0
  153.0841  143.1146  161.3816 H   0  0  0  0  0  0  0  0  0  0  0  0
  150.7584  141.0069  158.7016 H   0  0  0  0  0  0  0  0  0  0  0  0
  144.6851  141.2992  153.7296 H   0  0  0  0  0  0  0  0  0  0  0  0
  1  2  2  0  0  0  0
  2  3  1  0  0  0  0
  2 13  1  0  0  0  0
  3  4  1  0  0  0  0
  3 20  1  0  0  0  0
  4  5  1  0  0  0  0
  4 21  1  0  0  0  0
  4 22  1  0  0  0  0
  5 12  1  0  0  0  0
  5  6  1  0  0  0  0
  5 23  1  0  0  0  0
  6  7  1  0  0  0  0
  6 24  1  0  0  0  0
  6 25  1  0  0  0  0
  7  8  1  0  0  0  0
  7 26  1  0  0  0  0
  7 27  1  0  0  0  0
  8  9  1  0  0  0  0
  8 12  1  0  0  0  0
  8 40  1  0  0  0  0
  9 11  1  0  0  0  0
  9 10  1  0  0  0  0
  9 28  1  0  0  0  0
 10 11  1  0  0  0  0
 10 29  1  0  0  0  0
 10 30  1  0  0  0  0
 11 31  1  0  0  0  0
 11 32  1  0  0  0  0
 12 33  1  0  0  0  0
 12 34  1  0  0  0  0
 13 14  1  0  0  0  0
 13 35  1  0  0  0  0
 14 19  1  0  0  0  0
 14 15  2  0  0  0  0
 15 16  1  0  0  0  0
 15 36  1  0  0  0  0
 16 17  2  0  0  0  0
 16 37  1  0  0  0  0
 17 18  1  0  0  0  0
 17 38  1  0  0  0  0
 18 19  2  0  0  0  0
 19 39  1  0  0  0  0
M  CHG  1   8   1
M  END
> <s_m_source_file>
AV-unprocessed.smi

> <i_m_source_file_index>
3347

> <i_lp_mmshare_version>
43012

> <i_f3d_flags>
0

> <s_epik_input>
W2NIXTFuW2NIXVtjSF1bY0hdYzFbTkhdQyg9TylbTkhdW0NIMl1bQ0BASF0yW0NIMl1bQ0gyXU4oW0NIMl0yKVtDSF0zW0NIMl1bQ0gyXTM=

> <s_epik_cmdline>
J2VwaWtfcHl0aG9uJywgJy1waCcsICc3LjAnLCAnLXRuJywgJzgnLCAnLW1hJywgJzIwMCcsICctbWV0YWxfYmluZGluZycsICctaW1hZScsICc8aW5maWxlLm1hZT4nLCAnLW9tYWUnLCAnPG91dGZpbGUubWFlPic=

> <r_epik_Ionization_Penalty>
0.00442629

> <r_epik_Ionization_Penalty_Charging>
0.000203384

> <r_epik_Ionization_Penalty_Neutral>
0.00422291

> <r_epik_State_Penalty>
0.00301008

> <r_epik_Charging_Adjusted_Penalty>
0.00321347

> <i_epik_Tot_Q>
1

> <i_epik_Tot_abs_Q>
1

> <r_epik_Metal_State_Penalty>
-0

> <b_epik_Metal_Only>
0

> <s_lp_Force_Field>
OPLS_2005

> <r_lp_Energy>
39.1383

> <b_lp_Chiralities_Consistent>
1

> <s_lp_Variant>
AV-unprocessed.smi:3347-4

> <Gold.Version>
5.8.1

> <Gold.Id.Protein>
6NUR|6NUR_protein|mol2

> <Gold.PLP.Fitness>
49.6540

> <Gold.PLP.PLP>
-38.0543

> <Gold.PLP.part.hbond>
-3.0000

> <Gold.PLP.part.metal>
0.0000

> <Gold.PLP.part.buried>
-5.7266

> <Gold.PLP.part.nonpolar>
-29.6322

> <Gold.PLP.part.repulsive>
0.2637

> <Gold.PLP.ligand.clash>
0.0000

> <Gold.PLP.ligand.torsion>
0.8205

> <Gold.PLP.Chemscore.Hbond>
3.9920

> <Gold.PLP.Chemscore.CHOScore>
0.0000

> <Gold.PLP.Chemscore.Metal>
0.0000

> <Gold.Chemscore.Hbonds>
donor molecule, donor type, donor heavy atom, donor atom, acceptor molecule, acceptor atom, score
      L1  H     3    20       P1  8028  0.99
      L1  H     8    40       P1 10175  2.00
      L1  H    13    35       P1  8028  1.00

> <Gold.PLP.Chemscore.Internal.Correction>
1.2646

> <Gold.Rescore>
     Score         DG    S(hbond)    S(metal)    S(lipo)     H(rot)  DE(clash)    DE(int)     intcor
     20.38     -22.48       2.89        0.00      94.01       1.42       0.02       2.09       ----

> <Gold.Chemscore.Fitness>
20.3792

> <Gold.Chemscore.DG>
-22.4842

> <Gold.Chemscore.ZeroCoef>
-5.4800

> <Gold.Chemscore.Hbond>
2.8878

> <Gold.Chemscore.Metal>
0.0000

> <Gold.Chemscore.Lipo>
94.0085

> <Gold.Chemscore.Internal_Hbond>
0.0000

> <Gold.Chemscore.DEClash>
0.0157

> <Gold.Chemscore.DEInternal>
2.0893

> <Gold.Chemscore.Rot>
1.4219

> <Gold.Chemscore.Internal.Correction>
   9.000000E+99

> <Gold.Chemscore.Hbonds>
donor molecule, donor type, donor heavy atom, donor atom, acceptor molecule, acceptor atom, score
      L1  H     3    20       P1  8028  0.93
      L1  H     8    40       P1 10175  0.35
      L1  H    13    35       P1  8028  1.00

> <Gold.Chemscore.Hbond.Weighted>
-9.6453

> <Gold.Chemscore.Metal.Weighted>
-0.0000

> <Gold.Chemscore.Lipo.Weighted>
-10.9990

> <Gold.Chemscore.Internal_Hbond.Weighted>
0.0000

> <Gold.Chemscore.DEClash.Weighted>
0.0157

> <Gold.Chemscore.DEInternal.Weighted>
2.0893

> <Gold.Chemscore.Rot.Weighted>
3.6401

> <Gold.Chemscore.Internal.Correction.Weighted>
   9.000000E+99

> <Gold.Protein.RotatedTorsions>
[ 6907 6896 6895 6894 ] final   12.02 input  -60.11 | X-H torsion
[ 7974 7965 7964 7962 ] final   -9.27 input  175.53 | X-H torsion
[ 8008 7997 7996 7995 ] final  118.06 input   59.86 | X-H torsion
[ 10167 10162 10161 10158 ] final  -18.46 input  -65.29 | X-H torsion
[ 10718 10713 10712 10709 ] final  -74.33 input   66.30 | X-H torsion
[ 10763 10752 10751 10750 ] final   87.65 input  -60.55 | X-H torsion
[ 11005 11000 10999 10996 ] final   96.30 input  -57.11 | X-H torsion

> <Gold.Protein.ActiveResidues>
 VAL166  LYS551  ARG553  GLY616  TRP617  ASP618  TYR619  PRO620  LYS621  CYS622 
 ASP623  PHE694  ASN695  SER759  ASP760  ASP761  ALA762  ILE779  LEU786  VAL792 
 PHE793  MET794  SER795  GLU796  ALA797  LYS798  CYS799  TRP800  GLU811  SER814 

> <Gold.Protein.RotatedAtoms>
  151.7637  135.0804  160.0349 H   0  0  0  0  0  0  0  0  0  0  0  0  # atno 6907 bound_to 6896
  152.3336  133.5981  159.5835 H   0  0  0  0  0  0  0  0  0  0  0  0  # atno 6908 bound_to 6896
  150.7437  133.9747  159.3598 H   0  0  0  0  0  0  0  0  0  0  0  0  # atno 6909 bound_to 6896
  146.2256  140.2591  142.8351 H   0  0  0  0  0  0  0  0  0  0  0  0  # atno 7974 bound_to 7965
  156.2527  140.2883  156.0776 H   0  0  0  0  0  0  0  0  0  0  0  0  # atno 8008 bound_to 7997
  155.1602  140.0399  157.2858 H   0  0  0  0  0  0  0  0  0  0  0  0  # atno 8009 bound_to 7997
  154.6398  140.2519  155.7342 H   0  0  0  0  0  0  0  0  0  0  0  0  # atno 8010 bound_to 7997
  140.7259  143.4915  150.9986 H   0  0  0  0  0  0  0  0  0  0  0  0  # atno 10167 bound_to 10162
  156.0246  130.4414  150.2876 H   0  0  0  0  0  0  0  0  0  0  0  0  # atno 10718 bound_to 10713
  153.1690  135.4535  154.9876 H   0  0  0  0  0  0  0  0  0  0  0  0  # atno 10763 bound_to 10752
  154.7952  135.3235  154.7686 H   0  0  0  0  0  0  0  0  0  0  0  0  # atno 10764 bound_to 10752
  153.8164  135.6950  153.4888 H   0  0  0  0  0  0  0  0  0  0  0  0  # atno 10765 bound_to 10752
  139.8782  134.8943  156.4138 H   0  0  0  0  0  0  0  0  0  0  0  0  # atno 11005 bound_to 11000
  144.9353  140.8019  143.5664 LP  0  0  0  0  0  0  0  0  0  0  0  0  # atno 17320 bound_to 7965
  145.2538  139.2020  143.4928 LP  0  0  0  0  0  0  0  0  0  0  0  0  # atno 17321 bound_to 7965
  139.8619  143.7303  152.3173 LP  0  0  0  0  0  0  0  0  0  0  0  0  # atno 17342 bound_to 10162
  139.7522  144.7531  151.0490 LP  0  0  0  0  0  0  0  0  0  0  0  0  # atno 17343 bound_to 10162
  157.0980  131.0188  151.3096 LP  0  0  0  0  0  0  0  0  0  0  0  0  # atno 17370 bound_to 10713
  157.4802  130.7761  149.7407 LP  0  0  0  0  0  0  0  0  0  0  0  0  # atno 17371 bound_to 10713
  140.9182  133.7664  155.9874 LP  0  0  0  0  0  0  0  0  0  0  0  0  # atno 17394 bound_to 11000
  140.8470  134.2999  157.5291 LP  0  0  0  0  0  0  0  0  0  0  0  0  # atno 17395 bound_to 11000

$$$$
