AV-unprocessed.smi:1817|AV-procd|sdf|7368|dock5
  -GOLD-   22720 9 33D 1   1.00000     0.00000
 Structure written by MMmdl.
 43 44  0  0  0  0  0  0  0  0  2 V2000
  146.9480  128.6379  152.0733 C   0  0  0  0  0  0  0  0  0  0  0  0
  145.8365  129.6792  151.8795 C   0  0  0  0  0  0  0  0  0  0  0  0
  146.3645  131.0313  151.5701 N   0  3  0  0  0  0  0  0  0  0  0  0
  146.9123  131.7060  152.7725 C   0  0  0  0  0  0  0  0  0  0  0  0
  147.4785  133.0930  152.4035 C   0  0  0  0  0  0  0  0  0  0  0  0
  146.4443  133.9682  151.8334 N   0  0  0  0  0  0  0  0  0  0  0  0
  145.3532  134.3599  152.7537 C   0  0  2  0  0  0  0  0  0  0  0  0
  144.3463  135.2850  152.0300 C   0  0  0  0  0  0  0  0  0  0  0  0
  145.8877  135.0526  154.0382 C   0  0  0  0  0  0  0  0  0  0  0  0
  147.0266  135.9246  153.7661 N   0  0  0  0  0  0  0  0  0  0  0  0
  147.1882  137.1490  154.2892 C   0  0  0  0  0  0  0  0  0  0  0  0
  146.3917  137.6560  155.0805 O   0  0  0  0  0  0  0  0  0  0  0  0
  148.3106  137.7321  153.8335 N   0  0  0  0  0  0  0  0  0  0  0  0
  148.8020  139.0337  154.1182 C   0  0  0  0  0  0  0  0  0  0  0  0
  150.0626  139.2847  154.5054 N   0  0  0  0  0  0  0  0  0  0  0  0
  150.2791  140.6391  154.7233 N   0  0  0  0  0  0  0  0  0  0  0  0
  149.1746  141.3549  154.4936 C   0  0  0  0  0  0  0  0  0  0  0  0
  147.7619  140.4444  153.9874 S   0  0  0  0  0  0  0  0  0  0  0  0
  145.9948  133.3026  150.6011 C   0  0  0  0  0  0  0  0  0  0  0  0
  145.3855  131.9091  150.8783 C   0  0  0  0  0  0  0  0  0  0  0  0
  146.5267  127.6853  152.3947 H   0  0  0  0  0  0  0  0  0  0  0  0
  147.6596  128.9570  152.8353 H   0  0  0  0  0  0  0  0  0  0  0  0
  147.4989  128.4511  151.1519 H   0  0  0  0  0  0  0  0  0  0  0  0
  145.1440  129.3605  151.0991 H   0  0  0  0  0  0  0  0  0  0  0  0
  145.2592  129.7282  152.8036 H   0  0  0  0  0  0  0  0  0  0  0  0
  146.1474  131.7833  153.5464 H   0  0  0  0  0  0  0  0  0  0  0  0
  147.7133  131.0953  153.1904 H   0  0  0  0  0  0  0  0  0  0  0  0
  147.9667  133.5549  153.2592 H   0  0  0  0  0  0  0  0  0  0  0  0
  148.2754  132.9706  151.6683 H   0  0  0  0  0  0  0  0  0  0  0  0
  144.8148  133.4669  153.0655 H   0  0  0  0  0  0  0  0  0  0  0  0
  143.5858  135.6675  152.7102 H   0  0  0  0  0  0  0  0  0  0  0  0
  143.7982  134.7674  151.2441 H   0  0  0  0  0  0  0  0  0  0  0  0
  144.8475  136.1454  151.5855 H   0  0  0  0  0  0  0  0  0  0  0  0
  145.1330  135.6745  154.5177 H   0  0  0  0  0  0  0  0  0  0  0  0
  146.1897  134.3057  154.7732 H   0  0  0  0  0  0  0  0  0  0  0  0
  147.7267  135.5777  153.1264 H   0  0  0  0  0  0  0  0  0  0  0  0
  148.8721  137.1881  153.1951 H   0  0  0  0  0  0  0  0  0  0  0  0
  149.1919  142.4267  154.6234 H   0  0  0  0  0  0  0  0  0  0  0  0
  145.2912  133.9232  150.0496 H   0  0  0  0  0  0  0  0  0  0  0  0
  146.8513  133.1924  149.9342 H   0  0  0  0  0  0  0  0  0  0  0  0
  145.1038  131.4615  149.9258 H   0  0  0  0  0  0  0  0  0  0  0  0
  144.4684  131.9869  151.4627 H   0  0  0  0  0  0  0  0  0  0  0  0
  147.1434  130.9066  150.9394 H   0  0  0  0  0  0  0  0  0  0  0  0
  1  2  1  0  0  0  0
  1 21  1  0  0  0  0
  1 22  1  0  0  0  0
  1 23  1  0  0  0  0
  2  3  1  0  0  0  0
  2 24  1  0  0  0  0
  2 25  1  0  0  0  0
  3 20  1  0  0  0  0
  3  4  1  0  0  0  0
  3 43  1  0  0  0  0
  4  5  1  0  0  0  0
  4 26  1  0  0  0  0
  4 27  1  0  0  0  0
  5  6  1  0  0  0  0
  5 28  1  0  0  0  0
  5 29  1  0  0  0  0
  6  7  1  0  0  0  0
  6 19  1  0  0  0  0
  7  8  1  0  0  0  0
  7  9  1  0  0  0  0
  7 30  1  0  0  0  0
  8 31  1  0  0  0  0
  8 32  1  0  0  0  0
  8 33  1  0  0  0  0
  9 10  1  0  0  0  0
  9 34  1  0  0  0  0
  9 35  1  0  0  0  0
 10 11  1  0  0  0  0
 10 36  1  0  0  0  0
 11 12  2  0  0  0  0
 11 13  1  0  0  0  0
 13 14  1  0  0  0  0
 13 37  1  0  0  0  0
 14 18  1  0  0  0  0
 14 15  2  0  0  0  0
 15 16  1  0  0  0  0
 16 17  2  0  0  0  0
 17 18  1  0  0  0  0
 17 38  1  0  0  0  0
 19 20  1  0  0  0  0
 19 39  1  0  0  0  0
 19 40  1  0  0  0  0
 20 41  1  0  0  0  0
 20 42  1  0  0  0  0
M  CHG  1   3   1
M  END
> <s_m_source_file>
AV-unprocessed.smi

> <i_m_source_file_index>
1817

> <i_lp_mmshare_version>
43012

> <i_f3d_flags>
0

> <s_epik_input>
W0NIM11bQ0gyXU4xW0NIMl1bQ0gyXU4oW0NIMl1bQ0gyXTEpW0NASF0oW0NIM10pW0NIMl1bTkhdQyg9TylbTkhdYzJubltjSF1zMg==

> <s_epik_cmdline>
J2VwaWtfcHl0aG9uJywgJy1waCcsICc3LjAnLCAnLXRuJywgJzgnLCAnLW1hJywgJzIwMCcsICctbWV0YWxfYmluZGluZycsICctaW1hZScsICc8aW5maWxlLm1hZT4nLCAnLW9tYWUnLCAnPG91dGZpbGUubWFlPic=

> <r_lp_tautomer_probability>
1

> <r_epik_Ionization_Penalty>
0.0474318

> <r_epik_Ionization_Penalty_Charging>
0.0451959

> <r_epik_Ionization_Penalty_Neutral>
0.00223598

> <r_epik_State_Penalty>
0.165541

> <r_epik_Charging_Adjusted_Penalty>
0.210737

> <i_epik_Tot_Q>
1

> <i_epik_Tot_abs_Q>
1

> <r_epik_Metal_State_Penalty>
0.500395

> <b_epik_Metal_Only>
0

> <s_lp_Force_Field>
OPLS_2005

> <r_lp_Energy>
19.2999

> <b_lp_Chiralities_Consistent>
1

> <s_lp_Variant>
AV-unprocessed.smi:1817-1

> <Gold.Version>
5.8.1

> <Gold.Id.Protein>
6NUR|6NUR_protein|mol2

> <Gold.PLP.Fitness>
43.5757

> <Gold.PLP.PLP>
-31.3172

> <Gold.PLP.part.hbond>
-3.9926

> <Gold.PLP.part.metal>
0.0000

> <Gold.PLP.part.buried>
-4.6721

> <Gold.PLP.part.nonpolar>
-23.5098

> <Gold.PLP.part.repulsive>
0.4817

> <Gold.PLP.ligand.clash>
0.0000

> <Gold.PLP.ligand.torsion>
0.9827

> <Gold.PLP.Chemscore.Hbond>
3.7600

> <Gold.PLP.Chemscore.CHOScore>
0.9626

> <Gold.PLP.Chemscore.Metal>
0.0000

> <Gold.Chemscore.Hbonds>
donor molecule, donor type, donor heavy atom, donor atom, acceptor molecule, acceptor atom, score
      L1  H     3    43       P1 10747  1.00
      L1  H    10    36       P1  7948  0.82
      L1  H    13    37       P1  7948  0.99
      P1  H  7989  7998       L1    16  0.81
      L1  C    17    38       P1  8028  1.00

> <Gold.PLP.Chemscore.Internal.Correction>
0.0562

> <Gold.Rescore>
     Score         DG    S(hbond)    S(metal)    S(lipo)     H(rot)  DE(clash)    DE(int)     intcor
     18.22     -18.92       2.95        0.00      72.75       1.92       0.01       0.69       ----

> <Gold.Chemscore.Fitness>
18.2223

> <Gold.Chemscore.DG>
-18.9212

> <Gold.Chemscore.ZeroCoef>
-5.4800

> <Gold.Chemscore.Hbond>
2.9473

> <Gold.Chemscore.Metal>
0.0000

> <Gold.Chemscore.Lipo>
72.7465

> <Gold.Chemscore.Internal_Hbond>
0.0000

> <Gold.Chemscore.DEClash>
0.0082

> <Gold.Chemscore.DEInternal>
0.6906

> <Gold.Chemscore.Rot>
1.9196

> <Gold.Chemscore.Internal.Correction>
   9.000000E+99

> <Gold.Chemscore.Hbonds>
donor molecule, donor type, donor heavy atom, donor atom, acceptor molecule, acceptor atom, score
      L1  H     3    43       P1 10747  0.99
      L1  H    10    36       P1  7948  0.81
      L1  H    13    37       P1  7948  0.94
      P1  H  7989  7998       L1    16  0.14

> <Gold.Chemscore.Hbond.Weighted>
-9.8439

> <Gold.Chemscore.Metal.Weighted>
-0.0000

> <Gold.Chemscore.Lipo.Weighted>
-8.5113

> <Gold.Chemscore.Internal_Hbond.Weighted>
0.0000

> <Gold.Chemscore.DEClash.Weighted>
0.0082

> <Gold.Chemscore.DEInternal.Weighted>
0.6906

> <Gold.Chemscore.Rot.Weighted>
4.9141

> <Gold.Chemscore.Internal.Correction.Weighted>
   9.000000E+99

> <Gold.Protein.RotatedTorsions>
[ 6907 6896 6895 6894 ] final    0.15 input  -60.11 | X-H torsion
[ 7974 7965 7964 7962 ] final  160.42 input  175.53 | X-H torsion
[ 8008 7997 7996 7995 ] final   74.40 input   59.86 | X-H torsion
[ 10167 10162 10161 10158 ] final   37.47 input  -65.29 | X-H torsion
[ 10718 10713 10712 10709 ] final -168.52 input   66.30 | X-H torsion
[ 10763 10752 10751 10750 ] final   92.42 input  -60.55 | X-H torsion
[ 11005 11000 10999 10996 ] final  -52.32 input  -57.11 | X-H torsion

> <Gold.Protein.ActiveResidues>
 VAL166  LYS551  ARG553  GLY616  TRP617  ASP618  TYR619  PRO620  LYS621  CYS622 
 ASP623  PHE694  ASN695  SER759  ASP760  ASP761  ALA762  ILE779  LEU786  VAL792 
 PHE793  MET794  SER795  GLU796  ALA797  LYS798  CYS799  TRP800  GLU811  SER814 

> <Gold.Protein.RotatedAtoms>
  151.5718  135.1062  159.9996 H   0  0  0  0  0  0  0  0  0  0  0  0  # atno 6907 bound_to 6896
  152.4397  133.7421  159.6657 H   0  0  0  0  0  0  0  0  0  0  0  0  # atno 6908 bound_to 6896
  150.8300  133.8037  159.3126 H   0  0  0  0  0  0  0  0  0  0  0  0  # atno 6909 bound_to 6896
  144.7738  139.7755  143.6287 H   0  0  0  0  0  0  0  0  0  0  0  0  # atno 7974 bound_to 7965
  155.7978  140.3477  155.5385 H   0  0  0  0  0  0  0  0  0  0  0  0  # atno 8008 bound_to 7997
  155.8569  140.0965  157.1659 H   0  0  0  0  0  0  0  0  0  0  0  0  # atno 8009 bound_to 7997
  154.4010  140.1366  156.3900 H   0  0  0  0  0  0  0  0  0  0  0  0  # atno 8010 bound_to 7997
  140.4029  144.1699  150.6134 H   0  0  0  0  0  0  0  0  0  0  0  0  # atno 10167 bound_to 10162
  156.6981  130.9186  151.3077 H   0  0  0  0  0  0  0  0  0  0  0  0  # atno 10718 bound_to 10713
  153.2190  135.4362  155.0467 H   0  0  0  0  0  0  0  0  0  0  0  0  # atno 10763 bound_to 10752
  154.8240  135.3351  154.6956 H   0  0  0  0  0  0  0  0  0  0  0  0  # atno 10764 bound_to 10752
  153.7389  135.7006  153.5027 H   0  0  0  0  0  0  0  0  0  0  0  0  # atno 10765 bound_to 10752
  141.0918  133.6631  156.4007 H   0  0  0  0  0  0  0  0  0  0  0  0  # atno 11005 bound_to 11000
  146.1903  139.5139  142.9809 LP  0  0  0  0  0  0  0  0  0  0  0  0  # atno 17320 bound_to 7965
  145.6247  141.0316  143.1896 LP  0  0  0  0  0  0  0  0  0  0  0  0  # atno 17321 bound_to 7965
  140.4720  143.2409  151.9075 LP  0  0  0  0  0  0  0  0  0  0  0  0  # atno 17342 bound_to 10162
  139.4784  144.5359  151.8599 LP  0  0  0  0  0  0  0  0  0  0  0  0  # atno 17343 bound_to 10162
  157.6983  130.9306  150.0710 LP  0  0  0  0  0  0  0  0  0  0  0  0  # atno 17370 bound_to 10713
  156.1748  130.3648  149.9115 LP  0  0  0  0  0  0  0  0  0  0  0  0  # atno 17371 bound_to 10713
  140.5234  134.6282  157.5326 LP  0  0  0  0  0  0  0  0  0  0  0  0  # atno 17394 bound_to 11000
  139.9746  134.7237  155.9975 LP  0  0  0  0  0  0  0  0  0  0  0  0  # atno 17395 bound_to 11000

$$$$
