AV-unprocessed.smi:2986|AV-procd|sdf|11383|dock9
  -GOLD-   2272016303D 1   1.00000     0.00000
 Structure written by MMmdl.
 41 43  0  0  0  0  0  0  0  0  2 V2000
  149.1640  139.7347  154.3838 C   0  0  0  0  0  0  0  0  0  0  0  0
  150.4968  140.2049  154.4760 O   0  0  0  0  0  0  0  0  0  0  0  0
  151.1061  139.8747  155.7140 C   0  0  0  0  0  0  0  0  0  0  0  0
  150.4010  140.6206  156.8548 C   0  0  0  0  0  0  0  0  0  0  0  0
  151.3219  140.9789  157.9233 N   0  0  0  0  0  0  0  0  0  0  0  0
  152.1316  140.1618  158.6416 C   0  0  0  0  0  0  0  0  0  0  0  0
  152.1699  138.4116  158.4115 S   0  0  0  0  0  0  0  0  0  0  0  0
  150.4164  138.0259  158.7338 C   0  0  0  0  0  0  0  0  0  0  0  0
  149.9399  136.7184  158.0920 C   0  0  0  0  0  0  0  0  0  0  0  0
  150.1628  136.5204  156.8969 O   0  0  0  0  0  0  0  0  0  0  0  0
  149.3239  135.9115  158.9904 N   0  5  0  0  0  0  0  0  0  0  0  0
  148.3361  136.3973  159.7553 C   0  0  0  0  0  0  0  0  0  0  0  0
  147.9308  135.8947  161.0216 C   0  0  0  0  0  0  0  0  0  0  0  0
  146.8967  136.7177  161.3668 C   0  0  0  0  0  0  0  0  0  0  0  0
  146.0065  136.7800  162.5600 C   0  0  0  0  0  0  0  0  0  0  0  0
  146.6795  137.6386  160.3896 O   0  0  0  0  0  0  0  0  0  0  0  0
  147.6019  137.4231  159.3588 N   0  0  0  0  0  0  0  0  0  0  0  0
  152.9126  140.7644  159.5385 N   0  0  0  0  0  0  0  0  0  0  0  0
  152.5474  142.0899  159.4193 C   0  0  0  0  0  0  0  0  0  0  0  0
  153.0019  143.2328  160.1151 C   0  0  0  0  0  0  0  0  0  0  0  0
  152.4795  144.5072  159.8122 C   0  0  0  0  0  0  0  0  0  0  0  0
  151.5002  144.6570  158.8089 C   0  0  0  0  0  0  0  0  0  0  0  0
  151.0348  143.5310  158.1029 C   0  0  0  0  0  0  0  0  0  0  0  0
  151.5554  142.2601  158.4131 C   0  0  0  0  0  0  0  0  0  0  0  0
  148.7427  140.0158  153.4187 H   0  0  0  0  0  0  0  0  0  0  0  0
  148.5376  140.1689  155.1638 H   0  0  0  0  0  0  0  0  0  0  0  0
  149.1225  138.6479  154.4656 H   0  0  0  0  0  0  0  0  0  0  0  0
  151.0449  138.7988  155.8837 H   0  0  0  0  0  0  0  0  0  0  0  0
  152.1642  140.1410  155.6926 H   0  0  0  0  0  0  0  0  0  0  0  0
  149.9356  141.5302  156.4747 H   0  0  0  0  0  0  0  0  0  0  0  0
  149.5922  140.0143  157.2581 H   0  0  0  0  0  0  0  0  0  0  0  0
  150.2377  138.0264  159.8094 H   0  0  0  0  0  0  0  0  0  0  0  0
  149.8155  138.8422  158.3329 H   0  0  0  0  0  0  0  0  0  0  0  0
  148.3368  135.0686  161.5858 H   0  0  0  0  0  0  0  0  0  0  0  0
  145.1028  136.1930  162.3972 H   0  0  0  0  0  0  0  0  0  0  0  0
  145.7106  137.8075  162.7726 H   0  0  0  0  0  0  0  0  0  0  0  0
  146.5123  136.3859  163.4417 H   0  0  0  0  0  0  0  0  0  0  0  0
  153.7511  143.1263  160.8854 H   0  0  0  0  0  0  0  0  0  0  0  0
  152.8324  145.3733  160.3524 H   0  0  0  0  0  0  0  0  0  0  0  0
  151.1059  145.6364  158.5819 H   0  0  0  0  0  0  0  0  0  0  0  0
  150.2857  143.6420  157.3333 H   0  0  0  0  0  0  0  0  0  0  0  0
  1  2  1  0  0  0  0
  1 25  1  0  0  0  0
  1 26  1  0  0  0  0
  1 27  1  0  0  0  0
  2  3  1  0  0  0  0
  3  4  1  0  0  0  0
  3 28  1  0  0  0  0
  3 29  1  0  0  0  0
  4  5  1  0  0  0  0
  4 30  1  0  0  0  0
  4 31  1  0  0  0  0
  5 24  1  0  0  0  0
  5  6  1  0  0  0  0
  6  7  1  0  0  0  0
  6 18  2  0  0  0  0
  7  8  1  0  0  0  0
  8  9  1  0  0  0  0
  8 32  1  0  0  0  0
  8 33  1  0  0  0  0
  9 10  2  0  0  0  0
  9 11  1  0  0  0  0
 11 12  1  0  0  0  0
 12 17  2  0  0  0  0
 12 13  1  0  0  0  0
 13 14  2  0  0  0  0
 13 34  1  0  0  0  0
 14 15  1  0  0  0  0
 14 16  1  0  0  0  0
 15 35  1  0  0  0  0
 15 36  1  0  0  0  0
 15 37  1  0  0  0  0
 16 17  1  0  0  0  0
 18 19  1  0  0  0  0
 19 24  2  0  0  0  0
 19 20  1  0  0  0  0
 20 21  2  0  0  0  0
 20 38  1  0  0  0  0
 21 22  1  0  0  0  0
 21 39  1  0  0  0  0
 22 23  2  0  0  0  0
 22 40  1  0  0  0  0
 23 24  1  0  0  0  0
 23 41  1  0  0  0  0
M  CHG  1  11  -1
M  END
> <s_m_source_file>
AV-unprocessed.smi

> <i_m_source_file_index>
2986

> <i_lp_mmshare_version>
43012

> <i_f3d_flags>
0

> <s_epik_input>
W2NIXTFbY0hdW2NIXVtjSF1jKGMxMiluKFtDSDJdW0NIMl1PW0NIM10pYyhuMilTW0NIMl1DKD1PKVtOSF1jM1tjSF1jKFtDSDNdKW9uMw==

> <s_epik_cmdline>
J2VwaWtfcHl0aG9uJywgJy1waCcsICc3LjAnLCAnLXRuJywgJzgnLCAnLW1hJywgJzIwMCcsICctbWV0YWxfYmluZGluZycsICctaW1hZScsICc8aW5maWxlLm1hZT4nLCAnLW9tYWUnLCAnPG91dGZpbGUubWFlPic=

> <r_epik_Ionization_Penalty>
4.21562

> <r_epik_Ionization_Penalty_Charging>
4.18608

> <r_epik_Ionization_Penalty_Neutral>
0.0295463

> <r_epik_State_Penalty>
4.20602

> <r_epik_Charging_Adjusted_Penalty>
8.3921

> <i_epik_Tot_Q>
-1

> <i_epik_Tot_abs_Q>
1

> <r_epik_Metal_State_Penalty>
0.721027

> <b_epik_Metal_Only>
1

> <s_lp_Force_Field>
OPLS_2005

> <r_lp_Energy>
2.9865

> <b_lp_Chiralities_Consistent>
1

> <s_lp_Variant>
AV-unprocessed.smi:2986-3

> <Gold.Version>
5.8.1

> <Gold.Id.Protein>
6NUR|6NUR_protein|mol2

> <Gold.PLP.Fitness>
57.7182

> <Gold.PLP.PLP>
-47.4935

> <Gold.PLP.part.hbond>
-3.9591

> <Gold.PLP.part.metal>
0.0000

> <Gold.PLP.part.buried>
-6.9481

> <Gold.PLP.part.nonpolar>
-37.7136

> <Gold.PLP.part.repulsive>
0.0909

> <Gold.PLP.ligand.clash>
0.0000

> <Gold.PLP.ligand.torsion>
1.0386

> <Gold.PLP.Chemscore.Hbond>
4.0000

> <Gold.PLP.Chemscore.CHOScore>
0.0000

> <Gold.PLP.Chemscore.Metal>
0.0000

> <Gold.Chemscore.Hbonds>
donor molecule, donor type, donor heavy atom, donor atom, acceptor molecule, acceptor atom, score
      P1  H  6896  6907       L1    11  2.00
      P1  H  6934  6947       L1    16  1.00
      P1  H  7989  7998       L1     2  1.00

> <Gold.PLP.Chemscore.Internal.Correction>
0.3019

> <Gold.Rescore>
     Score         DG    S(hbond)    S(metal)    S(lipo)     H(rot)  DE(clash)    DE(int)     intcor
     18.28     -20.54       2.21        0.00     113.91       2.21       0.04       2.22       ----

> <Gold.Chemscore.Fitness>
18.2820

> <Gold.Chemscore.DG>
-20.5369

> <Gold.Chemscore.ZeroCoef>
-5.4800

> <Gold.Chemscore.Hbond>
2.2095

> <Gold.Chemscore.Metal>
0.0000

> <Gold.Chemscore.Lipo>
113.9149

> <Gold.Chemscore.Internal_Hbond>
0.0000

> <Gold.Chemscore.DEClash>
0.0354

> <Gold.Chemscore.DEInternal>
2.2195

> <Gold.Chemscore.Rot>
2.2073

> <Gold.Chemscore.Internal.Correction>
   9.000000E+99

> <Gold.Chemscore.Hbonds>
donor molecule, donor type, donor heavy atom, donor atom, acceptor molecule, acceptor atom, score
      P1  H  6896  6907       L1    11  0.58
      P1  H  6934  6947       L1    16  0.16
      P1  H  7989  7998       L1     2  0.69

> <Gold.Chemscore.Hbond.Weighted>
-7.3796

> <Gold.Chemscore.Metal.Weighted>
-0.0000

> <Gold.Chemscore.Lipo.Weighted>
-13.3280

> <Gold.Chemscore.Internal_Hbond.Weighted>
0.0000

> <Gold.Chemscore.DEClash.Weighted>
0.0354

> <Gold.Chemscore.DEInternal.Weighted>
2.2195

> <Gold.Chemscore.Rot.Weighted>
5.6508

> <Gold.Chemscore.Internal.Correction.Weighted>
   9.000000E+99

> <Gold.Protein.RotatedTorsions>
[ 6907 6896 6895 6894 ] final  -74.79 input  -60.11 | X-H torsion
[ 7974 7965 7964 7962 ] final  142.36 input  175.53 | X-H torsion
[ 8008 7997 7996 7995 ] final -179.15 input   59.86 | X-H torsion
[ 10167 10162 10161 10158 ] final  104.45 input  -65.29 | X-H torsion
[ 10718 10713 10712 10709 ] final   66.12 input   66.30 | X-H torsion
[ 10763 10752 10751 10750 ] final  -16.75 input  -60.55 | X-H torsion
[ 11005 11000 10999 10996 ] final -172.83 input  -57.11 | X-H torsion

> <Gold.Protein.ActiveResidues>
 VAL166  LYS551  ARG553  GLY616  TRP617  ASP618  TYR619  PRO620  LYS621  CYS622 
 ASP623  PHE694  ASN695  SER759  ASP760  ASP761  ALA762  ILE779  LEU786  VAL792 
 PHE793  MET794  SER795  GLU796  ALA797  LYS798  CYS799  TRP800  GLU811  SER814 

> <Gold.Protein.RotatedAtoms>
  150.7081  134.4816  159.5472 H   0  0  0  0  0  0  0  0  0  0  0  0  # atno 6907 bound_to 6896
  152.2452  134.8185  160.0463 H   0  0  0  0  0  0  0  0  0  0  0  0  # atno 6908 bound_to 6896
  151.8953  133.3490  159.3849 H   0  0  0  0  0  0  0  0  0  0  0  0  # atno 6909 bound_to 6896
  144.9014  139.5417  143.5752 H   0  0  0  0  0  0  0  0  0  0  0  0  # atno 7974 bound_to 7965
  156.0272  140.1274  157.0296 H   0  0  0  0  0  0  0  0  0  0  0  0  # atno 8008 bound_to 7997
  154.4335  140.1057  156.6117 H   0  0  0  0  0  0  0  0  0  0  0  0  # atno 8009 bound_to 7997
  155.5860  140.3468  155.4555 H   0  0  0  0  0  0  0  0  0  0  0  0  # atno 8010 bound_to 7997
  139.7176  144.7065  151.0924 H   0  0  0  0  0  0  0  0  0  0  0  0  # atno 10167 bound_to 10162
  157.6149  130.9251  150.0067 H   0  0  0  0  0  0  0  0  0  0  0  0  # atno 10718 bound_to 10713
  153.5633  135.7009  153.5537 H   0  0  0  0  0  0  0  0  0  0  0  0  # atno 10763 bound_to 10752
  153.3410  135.4021  155.1571 H   0  0  0  0  0  0  0  0  0  0  0  0  # atno 10764 bound_to 10752
  154.8644  135.3742  154.5151 H   0  0  0  0  0  0  0  0  0  0  0  0  # atno 10765 bound_to 10752
  140.4926  134.5970  157.4960 H   0  0  0  0  0  0  0  0  0  0  0  0  # atno 11005 bound_to 11000
  146.3110  139.7748  142.9019 LP  0  0  0  0  0  0  0  0  0  0  0  0  # atno 17320 bound_to 7965
  145.3609  141.0325  143.3285 LP  0  0  0  0  0  0  0  0  0  0  0  0  # atno 17321 bound_to 7965
  140.7747  143.5209  150.9538 LP  0  0  0  0  0  0  0  0  0  0  0  0  # atno 17342 bound_to 10162
  139.8895  143.6971  152.3147 LP  0  0  0  0  0  0  0  0  0  0  0  0  # atno 17343 bound_to 10162
  156.1267  130.3644  149.9798 LP  0  0  0  0  0  0  0  0  0  0  0  0  # atno 17370 bound_to 10713
  156.7867  130.9241  151.3646 LP  0  0  0  0  0  0  0  0  0  0  0  0  # atno 17371 bound_to 10713
  139.9760  134.7214  155.9949 LP  0  0  0  0  0  0  0  0  0  0  0  0  # atno 17394 bound_to 11000
  141.1476  133.6553  156.3916 LP  0  0  0  0  0  0  0  0  0  0  0  0  # atno 17395 bound_to 11000

$$$$
