AV-unprocessed.smi:2556|AV-procd|sdf|10026|dock4
  -GOLD-   2272014 73D 1   1.00000     0.00000
 Structure written by MMmdl.
 34 36  0  0  0  0  0  0  0  0  2 V2000
  150.8142  134.5053  154.8571 C   0  0  0  0  0  0  0  0  0  0  0  0
  150.6938  135.4100  156.0044 N   0  0  0  0  0  0  0  0  0  0  0  0
  150.5684  134.9675  157.2980 C   0  0  0  0  0  0  0  0  0  0  0  0
  150.5624  133.7548  157.5103 O   0  0  0  0  0  0  0  0  0  0  0  0
  150.4538  135.8799  158.3268 N   0  5  0  0  0  0  0  0  0  0  0  0
  150.4558  137.2448  158.1987 C   0  0  0  0  0  0  0  0  0  0  0  0
  150.3515  138.0754  159.0999 O   0  0  0  0  0  0  0  0  0  0  0  0
  150.6070  137.6665  156.7923 C   0  0  0  0  0  0  0  0  0  0  0  0
  150.7197  136.8058  155.7441 C   0  0  0  0  0  0  0  0  0  0  0  0
  150.8508  137.4847  154.5375 N   0  0  0  0  0  0  0  0  0  0  0  0
  150.8098  138.7577  154.9323 C   0  0  0  0  0  0  0  0  0  0  0  0
  150.6680  138.9532  156.2593 N   0  0  0  0  0  0  0  0  0  0  0  0
  150.5989  140.2372  156.9390 C   0  0  0  0  0  0  0  0  0  0  0  0
  151.6993  140.4043  158.0054 C   0  0  1  0  0  0  0  0  0  0  0  0
  152.8859  139.7611  157.5795 O   0  0  0  0  0  0  0  0  0  0  0  0
  151.9226  141.8709  158.3403 C   0  0  0  0  0  0  0  0  0  0  0  0
  151.3061  142.8895  157.5796 C   0  0  0  0  0  0  0  0  0  0  0  0
  151.5140  144.2439  157.9060 C   0  0  0  0  0  0  0  0  0  0  0  0
  152.3359  144.5879  158.9964 C   0  0  0  0  0  0  0  0  0  0  0  0
  152.9475  143.5766  159.7619 C   0  0  0  0  0  0  0  0  0  0  0  0
  152.7403  142.2221  159.4356 C   0  0  0  0  0  0  0  0  0  0  0  0
  150.7275  133.4473  155.1058 H   0  0  0  0  0  0  0  0  0  0  0  0
  151.7802  134.6497  154.3726 H   0  0  0  0  0  0  0  0  0  0  0  0
  150.0361  134.7282  154.1266 H   0  0  0  0  0  0  0  0  0  0  0  0
  150.8894  139.5772  154.2331 H   0  0  0  0  0  0  0  0  0  0  0  0
  150.6737  141.0293  156.1927 H   0  0  0  0  0  0  0  0  0  0  0  0
  149.6105  140.3371  157.3884 H   0  0  0  0  0  0  0  0  0  0  0  0
  151.3888  139.8957  158.9186 H   0  0  0  0  0  0  0  0  0  0  0  0
  153.0999  139.0871  158.2064 H   0  0  0  0  0  0  0  0  0  0  0  0
  150.6689  142.6363  156.7448 H   0  0  0  0  0  0  0  0  0  0  0  0
  151.0412  145.0187  157.3209 H   0  0  0  0  0  0  0  0  0  0  0  0
  152.4945  145.6265  159.2473 H   0  0  0  0  0  0  0  0  0  0  0  0
  153.5745  143.8390  160.6010 H   0  0  0  0  0  0  0  0  0  0  0  0
  153.2091  141.4524  160.0318 H   0  0  0  0  0  0  0  0  0  0  0  0
  1  2  1  0  0  0  0
  1 22  1  0  0  0  0
  1 23  1  0  0  0  0
  1 24  1  0  0  0  0
  2  9  1  0  0  0  0
  2  3  1  0  0  0  0
  3  4  2  0  0  0  0
  3  5  1  0  0  0  0
  5  6  1  0  0  0  0
  6  7  2  0  0  0  0
  6  8  1  0  0  0  0
  8 12  1  0  0  0  0
  8  9  2  0  0  0  0
  9 10  1  0  0  0  0
 10 11  2  0  0  0  0
 11 12  1  0  0  0  0
 11 25  1  0  0  0  0
 12 13  1  0  0  0  0
 13 14  1  0  0  0  0
 13 26  1  0  0  0  0
 13 27  1  0  0  0  0
 14 15  1  0  0  0  0
 14 16  1  0  0  0  0
 14 28  1  0  0  0  0
 15 29  1  0  0  0  0
 16 21  1  0  0  0  0
 16 17  2  0  0  0  0
 17 18  1  0  0  0  0
 17 30  1  0  0  0  0
 18 19  2  0  0  0  0
 18 31  1  0  0  0  0
 19 20  1  0  0  0  0
 19 32  1  0  0  0  0
 20 21  2  0  0  0  0
 20 33  1  0  0  0  0
 21 34  1  0  0  0  0
M  CHG  1   5  -1
M  END
> <s_m_source_file>
AV-unprocessed.smi

> <i_m_source_file_index>
2556

> <i_lp_mmshare_version>
43012

> <i_f3d_flags>
0

> <s_epik_input>
Tz1jMVtuSF1jKD1PKW4oW0NIM10pYyhjMTIpbltjSF1uMltDSDJdW0NASF0oW09IXSljM1tjSF1bY0hdW2NIXVtjSF1bY0hdMw==

> <s_epik_cmdline>
J2VwaWtfcHl0aG9uJywgJy1waCcsICc3LjAnLCAnLXRuJywgJzgnLCAnLW1hJywgJzIwMCcsICctbWV0YWxfYmluZGluZycsICctaW1hZScsICc8aW5maWxlLm1hZT4nLCAnLW9tYWUnLCAnPG91dGZpbGUubWFlPic=

> <r_lp_tautomer_probability>
1

> <r_epik_Ionization_Penalty>
4.84872

> <r_epik_Ionization_Penalty_Charging>
0.03865

> <r_epik_Ionization_Penalty_Neutral>
4.81007

> <r_epik_State_Penalty>
4.80988

> <r_epik_Charging_Adjusted_Penalty>
4.84853

> <i_epik_Tot_Q>
-1

> <i_epik_Tot_abs_Q>
1

> <r_epik_Metal_State_Penalty>
0.994041

> <b_epik_Metal_Only>
1

> <s_lp_Force_Field>
OPLS_2005

> <r_lp_Energy>
31.8708

> <b_lp_Chiralities_Consistent>
1

> <s_lp_Variant>
AV-unprocessed.smi:2556-4

> <Gold.Version>
5.8.1

> <Gold.Id.Protein>
6NUR|6NUR_protein|mol2

> <Gold.PLP.Fitness>
45.0722

> <Gold.PLP.PLP>
-36.5772

> <Gold.PLP.part.hbond>
-3.7227

> <Gold.PLP.part.metal>
0.0000

> <Gold.PLP.part.buried>
-4.7894

> <Gold.PLP.part.nonpolar>
-29.4389

> <Gold.PLP.part.repulsive>
0.2070

> <Gold.PLP.ligand.clash>
0.0000

> <Gold.PLP.ligand.torsion>
0.3522

> <Gold.PLP.Chemscore.Hbond>
3.0576

> <Gold.PLP.Chemscore.CHOScore>
0.0000

> <Gold.PLP.Chemscore.Metal>
0.0000

> <Gold.Chemscore.Hbonds>
donor molecule, donor type, donor heavy atom, donor atom, acceptor molecule, acceptor atom, score
      P1  H  6896  6907       L1     4  0.59
      P1  H  6896  6908       L1     5  1.34
      P1  H  7997  8010       L1    15  1.00

> <Gold.PLP.Chemscore.Internal.Correction>
0.0265

> <Gold.Rescore>
     Score         DG    S(hbond)    S(metal)    S(lipo)     H(rot)  DE(clash)    DE(int)     intcor
     12.78     -14.60       1.37        0.00      88.80       2.28       0.16       1.66       ----

> <Gold.Chemscore.Fitness>
12.7781

> <Gold.Chemscore.DG>
-14.5955

> <Gold.Chemscore.ZeroCoef>
-5.4800

> <Gold.Chemscore.Hbond>
1.3681

> <Gold.Chemscore.Metal>
0.0000

> <Gold.Chemscore.Lipo>
88.7969

> <Gold.Chemscore.Internal_Hbond>
0.0000

> <Gold.Chemscore.DEClash>
0.1551

> <Gold.Chemscore.DEInternal>
1.6623

> <Gold.Chemscore.Rot>
2.2824

> <Gold.Chemscore.Internal.Correction>
   9.000000E+99

> <Gold.Chemscore.Hbonds>
donor molecule, donor type, donor heavy atom, donor atom, acceptor molecule, acceptor atom, score
      P1  H  6896  6907       L1     4  0.42
      P1  H  6896  6908       L1     5  0.34
      P1  H  7997  8010       L1    15  0.30

> <Gold.Chemscore.Hbond.Weighted>
-4.5694

> <Gold.Chemscore.Metal.Weighted>
-0.0000

> <Gold.Chemscore.Lipo.Weighted>
-10.3892

> <Gold.Chemscore.Internal_Hbond.Weighted>
0.0000

> <Gold.Chemscore.DEClash.Weighted>
0.1551

> <Gold.Chemscore.DEInternal.Weighted>
1.6623

> <Gold.Chemscore.Rot.Weighted>
5.8431

> <Gold.Chemscore.Internal.Correction.Weighted>
   9.000000E+99

> <Gold.Protein.RotatedTorsions>
[ 6907 6896 6895 6894 ] final -153.64 input  -60.11 | X-H torsion
[ 7974 7965 7964 7962 ] final -169.57 input  175.53 | X-H torsion
[ 8008 7997 7996 7995 ] final   46.24 input   59.86 | X-H torsion
[ 10167 10162 10161 10158 ] final -110.75 input  -65.29 | X-H torsion
[ 10718 10713 10712 10709 ] final -173.53 input   66.30 | X-H torsion
[ 10763 10752 10751 10750 ] final   30.24 input  -60.55 | X-H torsion
[ 11005 11000 10999 10996 ] final   30.95 input  -57.11 | X-H torsion

> <Gold.Protein.ActiveResidues>
 VAL166  LYS551  ARG553  GLY616  TRP617  ASP618  TYR619  PRO620  LYS621  CYS622 
 ASP623  PHE694  ASN695  SER759  ASP760  ASP761  ALA762  ILE779  LEU786  VAL792 
 PHE793  MET794  SER795  GLU796  ALA797  LYS798  CYS799  TRP800  GLU811  SER814 

> <Gold.Protein.RotatedAtoms>
  151.2456  133.4377  159.2608 H   0  0  0  0  0  0  0  0  0  0  0  0  # atno 6907 bound_to 6896
  151.0665  134.9771  159.8297 H   0  0  0  0  0  0  0  0  0  0  0  0  # atno 6908 bound_to 6896
  152.5406  134.2403  159.8912 H   0  0  0  0  0  0  0  0  0  0  0  0  # atno 6909 bound_to 6896
  144.7183  140.2202  143.6317 H   0  0  0  0  0  0  0  0  0  0  0  0  # atno 7974 bound_to 7965
  155.3492  140.3412  155.4239 H   0  0  0  0  0  0  0  0  0  0  0  0  # atno 8008 bound_to 7997
  156.1772  140.1652  156.8375 H   0  0  0  0  0  0  0  0  0  0  0  0  # atno 8009 bound_to 7997
  154.5295  140.0748  156.8302 H   0  0  0  0  0  0  0  0  0  0  0  0  # atno 8010 bound_to 7997
  140.1411  143.4278  152.1561 H   0  0  0  0  0  0  0  0  0  0  0  0  # atno 10167 bound_to 10162
  156.7717  130.9451  151.3120 H   0  0  0  0  0  0  0  0  0  0  0  0  # atno 10718 bound_to 10713
  153.0383  135.6469  154.1014 H   0  0  0  0  0  0  0  0  0  0  0  0  # atno 10763 bound_to 10752
  154.0725  135.2879  155.3307 H   0  0  0  0  0  0  0  0  0  0  0  0  # atno 10764 bound_to 10752
  154.6584  135.5400  153.8052 H   0  0  0  0  0  0  0  0  0  0  0  0  # atno 10765 bound_to 10752
  140.2890  134.2886  155.7781 H   0  0  0  0  0  0  0  0  0  0  0  0  # atno 11005 bound_to 11000
  145.8508  139.2175  143.1773 LP  0  0  0  0  0  0  0  0  0  0  0  0  # atno 17320 bound_to 7965
  146.0262  140.8301  142.9899 LP  0  0  0  0  0  0  0  0  0  0  0  0  # atno 17321 bound_to 7965
  139.5472  144.7308  151.4548 LP  0  0  0  0  0  0  0  0  0  0  0  0  # atno 17342 bound_to 10162
  140.6760  143.8189  150.7059 LP  0  0  0  0  0  0  0  0  0  0  0  0  # atno 17343 bound_to 10162
  157.6688  130.9032  149.9993 LP  0  0  0  0  0  0  0  0  0  0  0  0  # atno 17370 bound_to 10713
  156.1274  130.3644  149.9787 LP  0  0  0  0  0  0  0  0  0  0  0  0  # atno 17371 bound_to 10713
  141.2150  133.7573  156.9595 LP  0  0  0  0  0  0  0  0  0  0  0  0  # atno 17394 bound_to 11000
  140.1213  134.9415  157.2208 LP  0  0  0  0  0  0  0  0  0  0  0  0  # atno 17395 bound_to 11000

$$$$
