AV-unprocessed.smi:3125|AV-procd|sdf|11909|dock2
  -GOLD-   2272017293D 1   1.00000     0.00000
 Structure written by MMmdl.
 28 29  0  0  0  0  0  0  0  0  2 V2000
  151.7515  145.5806  159.8202 C   0  0  0  0  0  0  0  0  0  0  0  0
  151.7174  144.3270  159.0913 N   0  0  0  0  0  0  0  0  0  0  0  0
  151.0023  144.0911  157.9244 C   0  0  0  0  0  0  0  0  0  0  0  0
  151.2398  142.7854  157.5717 C   0  0  0  0  0  0  0  0  0  0  0  0
  152.0924  142.2061  158.5040 N   0  0  0  0  0  0  0  0  0  0  0  0
  152.3490  143.1713  159.3835 C   0  0  0  0  0  0  0  0  0  0  0  0
  153.2345  142.9823  160.5840 C   0  0  1  0  0  0  0  0  0  0  0  0
  152.4925  143.2910  161.8989 C   0  0  0  0  0  0  0  0  0  0  0  0
  153.4149  143.0632  163.1063 C   0  0  0  0  0  0  0  0  0  0  0  0
  154.0104  141.6458  163.0820 C   0  0  0  0  0  0  0  0  0  0  0  0
  154.7214  141.4006  161.8083 N   0  3  0  0  0  0  0  0  0  0  0  0
  153.8540  141.5696  160.6216 C   0  0  0  0  0  0  0  0  0  0  0  0
  151.1062  146.3151  159.3371 H   0  0  0  0  0  0  0  0  0  0  0  0
  152.7704  145.9680  159.8410 H   0  0  0  0  0  0  0  0  0  0  0  0
  151.4018  145.4247  160.8411 H   0  0  0  0  0  0  0  0  0  0  0  0
  150.3967  144.8518  157.4534 H   0  0  0  0  0  0  0  0  0  0  0  0
  150.8664  142.2239  156.7281 H   0  0  0  0  0  0  0  0  0  0  0  0
  154.0636  143.6862  160.5135 H   0  0  0  0  0  0  0  0  0  0  0  0
  152.1313  144.3200  161.8954 H   0  0  0  0  0  0  0  0  0  0  0  0
  151.6129  142.6521  161.9904 H   0  0  0  0  0  0  0  0  0  0  0  0
  154.2195  143.7999  163.0983 H   0  0  0  0  0  0  0  0  0  0  0  0
  152.8618  143.2197  164.0329 H   0  0  0  0  0  0  0  0  0  0  0  0
  154.7064  141.5133  163.9106 H   0  0  0  0  0  0  0  0  0  0  0  0
  153.2231  140.9004  163.2039 H   0  0  0  0  0  0  0  0  0  0  0  0
  155.4912  142.0508  161.7396 H   0  0  0  0  0  0  0  0  0  0  0  0
  153.0741  140.8068  160.6443 H   0  0  0  0  0  0  0  0  0  0  0  0
  154.4470  141.3919  159.7240 H   0  0  0  0  0  0  0  0  0  0  0  0
  155.0893  140.4598  161.8139 H   0  0  0  0  0  0  0  0  0  0  0  0
  1  2  1  0  0  0  0
  1 13  1  0  0  0  0
  1 14  1  0  0  0  0
  1 15  1  0  0  0  0
  2  6  1  0  0  0  0
  2  3  1  0  0  0  0
  3  4  2  0  0  0  0
  3 16  1  0  0  0  0
  4  5  1  0  0  0  0
  4 17  1  0  0  0  0
  5  6  2  0  0  0  0
  6  7  1  0  0  0  0
  7 12  1  0  0  0  0
  7  8  1  0  0  0  0
  7 18  1  0  0  0  0
  8  9  1  0  0  0  0
  8 19  1  0  0  0  0
  8 20  1  0  0  0  0
  9 10  1  0  0  0  0
  9 21  1  0  0  0  0
  9 22  1  0  0  0  0
 10 11  1  0  0  0  0
 10 23  1  0  0  0  0
 10 24  1  0  0  0  0
 11 12  1  0  0  0  0
 11 25  1  0  0  0  0
 11 28  1  0  0  0  0
 12 26  1  0  0  0  0
 12 27  1  0  0  0  0
M  CHG  1  11   1
M  END
> <s_m_source_file>
AV-unprocessed.smi

> <i_m_source_file_index>
3125

> <i_lp_mmshare_version>
43012

> <i_f3d_flags>
0

> <s_epik_input>
W0NIM11uMVtjSF1bY0hdbmMxW0NAQEhdMltDSDJdW0NIMl1bQ0gyXVtOSF1bQ0gyXTI=

> <s_epik_cmdline>
J2VwaWtfcHl0aG9uJywgJy1waCcsICc3LjAnLCAnLXRuJywgJzgnLCAnLW1hJywgJzIwMCcsICctbWV0YWxfYmluZGluZycsICctaW1hZScsICc8aW5maWxlLm1hZT4nLCAnLW9tYWUnLCAnPG91dGZpbGUubWFlPic=

> <r_lp_tautomer_probability>
1

> <r_epik_Ionization_Penalty>
0.177191

> <r_epik_Ionization_Penalty_Charging>
0.177191

> <r_epik_Ionization_Penalty_Neutral>
7.05152e-14

> <r_epik_State_Penalty>
0.46716

> <r_epik_Charging_Adjusted_Penalty>
0.644351

> <i_epik_Tot_Q>
1

> <i_epik_Tot_abs_Q>
1

> <r_epik_Metal_State_Penalty>
0.000708398

> <b_epik_Metal_Only>
0

> <s_lp_Force_Field>
OPLS_2005

> <r_lp_Energy>
12.4076

> <b_lp_Chiralities_Consistent>
1

> <s_lp_Variant>
AV-unprocessed.smi:3125-4

> <Gold.Version>
5.8.1

> <Gold.Id.Protein>
6NUR|6NUR_protein|mol2

> <Gold.PLP.Fitness>
39.0622

> <Gold.PLP.PLP>
-36.0587

> <Gold.PLP.part.hbond>
-1.0000

> <Gold.PLP.part.metal>
0.0000

> <Gold.PLP.part.buried>
-3.3165

> <Gold.PLP.part.nonpolar>
-31.7424

> <Gold.PLP.part.repulsive>
0.0000

> <Gold.PLP.ligand.clash>
0.0000

> <Gold.PLP.ligand.torsion>
0.0131

> <Gold.PLP.Chemscore.Hbond>
0.0000

> <Gold.PLP.Chemscore.CHOScore>
1.0012

> <Gold.PLP.Chemscore.Metal>
0.0000

> <Gold.Chemscore.Hbonds>
donor molecule, donor type, donor heavy atom, donor atom, acceptor molecule, acceptor atom, score
      L1  C     3    16       P1  8028  0.96
      L1  C     3    16       P1  8029  0.02

> <Gold.PLP.Chemscore.Internal.Correction>
0.0262

> <Gold.Rescore>
     Score         DG    S(hbond)    S(metal)    S(lipo)     H(rot)  DE(clash)    DE(int)     intcor
     12.13     -13.44       0.00        0.00      89.92       1.00       1.29       0.02       ----

> <Gold.Chemscore.Fitness>
12.1257

> <Gold.Chemscore.DG>
-13.4411

> <Gold.Chemscore.ZeroCoef>
-5.4800

> <Gold.Chemscore.Hbond>
0.0000

> <Gold.Chemscore.Metal>
0.0000

> <Gold.Chemscore.Lipo>
89.9238

> <Gold.Chemscore.Internal_Hbond>
0.0000

> <Gold.Chemscore.DEClash>
1.2929

> <Gold.Chemscore.DEInternal>
0.0225

> <Gold.Chemscore.Rot>
1.0000

> <Gold.Chemscore.Internal.Correction>
   9.000000E+99

> <Gold.Chemscore.Hbond.Weighted>
-0.0000

> <Gold.Chemscore.Metal.Weighted>
-0.0000

> <Gold.Chemscore.Lipo.Weighted>
-10.5211

> <Gold.Chemscore.Internal_Hbond.Weighted>
0.0000

> <Gold.Chemscore.DEClash.Weighted>
1.2929

> <Gold.Chemscore.DEInternal.Weighted>
0.0225

> <Gold.Chemscore.Rot.Weighted>
2.5600

> <Gold.Chemscore.Internal.Correction.Weighted>
   9.000000E+99

> <Gold.Protein.RotatedTorsions>
[ 6907 6896 6895 6894 ] final -159.37 input  -60.11 | X-H torsion
[ 7974 7965 7964 7962 ] final -129.95 input  175.53 | X-H torsion
[ 8008 7997 7996 7995 ] final  -43.00 input   59.86 | X-H torsion
[ 10167 10162 10161 10158 ] final  141.79 input  -65.29 | X-H torsion
[ 10718 10713 10712 10709 ] final  176.30 input   66.30 | X-H torsion
[ 10763 10752 10751 10750 ] final  145.39 input  -60.55 | X-H torsion
[ 11005 11000 10999 10996 ] final  -18.05 input  -57.11 | X-H torsion

> <Gold.Protein.ActiveResidues>
 VAL166  LYS551  ARG553  GLY616  TRP617  ASP618  TYR619  PRO620  LYS621  CYS622 
 ASP623  PHE694  ASN695  SER759  ASP760  ASP761  ALA762  ILE779  LEU786  VAL792 
 PHE793  MET794  SER795  GLU796  ALA797  LYS798  CYS799  TRP800  GLU811  SER814 

> <Gold.Protein.RotatedAtoms>
  151.3325  133.3995  159.2663 H   0  0  0  0  0  0  0  0  0  0  0  0  # atno 6907 bound_to 6896
  150.9944  134.9272  159.7928 H   0  0  0  0  0  0  0  0  0  0  0  0  # atno 6908 bound_to 6896
  152.5257  134.3290  159.9228 H   0  0  0  0  0  0  0  0  0  0  0  0  # atno 6909 bound_to 6896
  144.9522  140.7357  143.4781 H   0  0  0  0  0  0  0  0  0  0  0  0  # atno 7974 bound_to 7965
  154.3997  140.1459  156.3447 H   0  0  0  0  0  0  0  0  0  0  0  0  # atno 8008 bound_to 7997
  155.8324  140.3465  155.5559 H   0  0  0  0  0  0  0  0  0  0  0  0  # atno 8009 bound_to 7997
  155.8174  140.0893  157.1859 H   0  0  0  0  0  0  0  0  0  0  0  0  # atno 8010 bound_to 7997
  139.5011  144.6149  151.6187 H   0  0  0  0  0  0  0  0  0  0  0  0  # atno 10167 bound_to 10162
  156.9221  130.9944  151.3002 H   0  0  0  0  0  0  0  0  0  0  0  0  # atno 10718 bound_to 10713
  154.0046  135.2920  155.3399 H   0  0  0  0  0  0  0  0  0  0  0  0  # atno 10763 bound_to 10752
  154.7139  135.5138  153.8711 H   0  0  0  0  0  0  0  0  0  0  0  0  # atno 10764 bound_to 10752
  153.0750  135.6660  154.0284 H   0  0  0  0  0  0  0  0  0  0  0  0  # atno 10765 bound_to 10752
  140.8229  133.8055  155.9678 H   0  0  0  0  0  0  0  0  0  0  0  0  # atno 11005 bound_to 11000
  145.2827  139.1912  143.4782 LP  0  0  0  0  0  0  0  0  0  0  0  0  # atno 17320 bound_to 7965
  146.3325  140.2791  142.8609 LP  0  0  0  0  0  0  0  0  0  0  0  0  # atno 17321 bound_to 7965
  140.5834  143.9907  150.6281 LP  0  0  0  0  0  0  0  0  0  0  0  0  # atno 17342 bound_to 10162
  140.3063  143.3227  152.0923 LP  0  0  0  0  0  0  0  0  0  0  0  0  # atno 17343 bound_to 10162
  157.5901  130.8437  149.8646 LP  0  0  0  0  0  0  0  0  0  0  0  0  # atno 17370 bound_to 10713
  156.0486  130.3722  150.1256 LP  0  0  0  0  0  0  0  0  0  0  0  0  # atno 17371 bound_to 10713
  140.9080  134.2296  157.5003 LP  0  0  0  0  0  0  0  0  0  0  0  0  # atno 17394 bound_to 11000
  139.8708  134.9737  156.4819 LP  0  0  0  0  0  0  0  0  0  0  0  0  # atno 17395 bound_to 11000

$$$$
