AV-unprocessed.smi:155|AV-procd|sdf|1276|dock1
  -GOLD-   2262018543D 1   1.00000     0.00000
 Structure written by MMmdl.
 63 66  0  0  0  0  0  0  0  0  2 V2000
  146.2242  131.6550  151.2345 C   0  0  0  0  0  0  0  0  0  0  0  0
  147.2837  131.4526  152.2501 N   0  3  0  0  0  0  0  0  0  0  0  0
  146.9349  130.3597  153.1846 C   0  0  0  0  0  0  0  0  0  0  0  0
  147.6588  132.7007  152.9605 C   0  0  0  0  0  0  0  0  0  0  0  0
  148.4301  132.4189  154.2671 C   0  0  0  0  0  0  0  0  0  0  0  0
  148.4688  133.5882  155.1463 N   0  0  0  0  0  0  0  0  0  0  0  0
  149.2243  133.3410  156.3838 C   0  0  0  0  0  0  0  0  0  0  0  0
  150.7455  133.5775  156.2775 C   0  0  0  0  0  0  0  0  0  0  0  0
  151.1423  135.0315  156.5976 C   0  0  0  0  0  0  0  0  0  0  0  0
  150.6724  135.9905  155.5967 N   0  0  0  0  0  0  0  0  0  0  0  0
  151.3041  137.1890  155.5131 C   0  0  0  0  0  0  0  0  0  0  0  0
  152.4143  137.3122  154.7374 N   0  0  0  0  0  0  0  0  0  0  0  0
  153.0495  138.4846  154.6488 C   0  0  0  0  0  0  0  0  0  0  0  0
  152.7494  139.6434  155.2382 N   0  0  0  0  0  0  0  0  0  0  0  0
  151.6317  139.5288  156.0109 C   0  0  0  0  0  0  0  0  0  0  0  0
  150.8550  138.3512  156.2024 C   0  0  0  0  0  0  0  0  0  0  0  0
  149.7822  138.6242  157.0437 N   0  0  0  0  0  0  0  0  0  0  0  0
  149.9208  139.8879  157.3378 C   0  0  0  0  0  0  0  0  0  0  0  0
  151.0001  140.5104  156.7537 N   0  0  0  0  0  0  0  0  0  0  0  0
  151.3751  141.9053  156.8962 C   0  0  0  0  0  0  0  0  0  0  0  0
  151.5914  142.3215  158.3664 C   0  0  1  0  0  0  0  0  0  0  0  0
  152.4051  141.3281  158.9565 O   0  0  0  0  0  0  0  0  0  0  0  0
  152.2736  143.7030  158.5505 C   0  0  2  0  0  0  0  0  0  0  0  0
  152.6023  144.0577  160.0034 C   0  0  0  0  0  0  0  0  0  0  0  0
  151.2943  144.6054  160.5451 C   0  0  0  0  0  0  0  0  0  0  0  0
  150.5594  145.0948  159.2955 C   0  0  0  0  0  0  0  0  0  0  0  0
  151.4038  144.7714  158.1960 O   0  0  0  0  0  0  0  0  0  0  0  0
  149.2561  135.9779  155.2339 C   0  0  0  0  0  0  0  0  0  0  0  0
  148.9322  134.7454  154.3738 C   0  0  0  0  0  0  0  0  0  0  0  0
  145.2948  131.9856  151.7002 H   0  0  0  0  0  0  0  0  0  0  0  0
  146.0229  130.7249  150.7020 H   0  0  0  0  0  0  0  0  0  0  0  0
  146.5134  132.3975  150.4917 H   0  0  0  0  0  0  0  0  0  0  0  0
  146.0623  130.6216  153.7845 H   0  0  0  0  0  0  0  0  0  0  0  0
  147.7643  130.1469  153.8598 H   0  0  0  0  0  0  0  0  0  0  0  0
  146.7123  129.4417  152.6396 H   0  0  0  0  0  0  0  0  0  0  0  0
  148.2445  133.3303  152.2881 H   0  0  0  0  0  0  0  0  0  0  0  0
  146.7554  133.2624  153.1996 H   0  0  0  0  0  0  0  0  0  0  0  0
  148.0165  131.5537  154.7870 H   0  0  0  0  0  0  0  0  0  0  0  0
  149.4589  132.1600  154.0173 H   0  0  0  0  0  0  0  0  0  0  0  0
  148.8196  133.9834  157.1664 H   0  0  0  0  0  0  0  0  0  0  0  0
  149.0401  132.3286  156.7386 H   0  0  0  0  0  0  0  0  0  0  0  0
  151.2340  132.9400  157.0148 H   0  0  0  0  0  0  0  0  0  0  0  0
  151.1401  133.2610  155.3114 H   0  0  0  0  0  0  0  0  0  0  0  0
  150.7607  135.3182  157.5786 H   0  0  0  0  0  0  0  0  0  0  0  0
  152.2306  135.0826  156.6571 H   0  0  0  0  0  0  0  0  0  0  0  0
  153.9231  138.4954  154.0139 H   0  0  0  0  0  0  0  0  0  0  0  0
  149.2286  140.4080  157.9839 H   0  0  0  0  0  0  0  0  0  0  0  0
  152.2905  142.0608  156.3234 H   0  0  0  0  0  0  0  0  0  0  0  0
  150.6095  142.5277  156.4313 H   0  0  0  0  0  0  0  0  0  0  0  0
  150.6333  142.3040  158.8869 H   0  0  0  0  0  0  0  0  0  0  0  0
  152.7574  140.7830  158.2696 H   0  0  0  0  0  0  0  0  0  0  0  0
  153.1710  143.7493  157.9322 H   0  0  0  0  0  0  0  0  0  0  0  0
  152.9890  143.2229  160.5884 H   0  0  0  0  0  0  0  0  0  0  0  0
  153.3565  144.8456  160.0184 H   0  0  0  0  0  0  0  0  0  0  0  0
  150.7217  143.8146  161.0309 H   0  0  0  0  0  0  0  0  0  0  0  0
  151.4548  145.4003  161.2738 H   0  0  0  0  0  0  0  0  0  0  0  0
  149.5999  144.5882  159.1855 H   0  0  0  0  0  0  0  0  0  0  0  0
  150.3739  146.1687  159.3204 H   0  0  0  0  0  0  0  0  0  0  0  0
  148.6353  136.0157  156.1298 H   0  0  0  0  0  0  0  0  0  0  0  0
  148.9976  136.8731  154.6689 H   0  0  0  0  0  0  0  0  0  0  0  0
  149.7956  134.4860  153.7583 H   0  0  0  0  0  0  0  0  0  0  0  0
  148.1346  135.0065  153.6773 H   0  0  0  0  0  0  0  0  0  0  0  0
  148.1095  131.1437  151.7570 H   0  0  0  0  0  0  0  0  0  0  0  0
  1  2  1  0  0  0  0
  1 30  1  0  0  0  0
  1 31  1  0  0  0  0
  1 32  1  0  0  0  0
  2  3  1  0  0  0  0
  2  4  1  0  0  0  0
  2 63  1  0  0  0  0
  3 33  1  0  0  0  0
  3 34  1  0  0  0  0
  3 35  1  0  0  0  0
  4  5  1  0  0  0  0
  4 36  1  0  0  0  0
  4 37  1  0  0  0  0
  5  6  1  0  0  0  0
  5 38  1  0  0  0  0
  5 39  1  0  0  0  0
  6 29  1  0  0  0  0
  6  7  1  0  0  0  0
  7  8  1  0  0  0  0
  7 40  1  0  0  0  0
  7 41  1  0  0  0  0
  8  9  1  0  0  0  0
  8 42  1  0  0  0  0
  8 43  1  0  0  0  0
  9 10  1  0  0  0  0
  9 44  1  0  0  0  0
  9 45  1  0  0  0  0
 10 11  1  0  0  0  0
 10 28  1  0  0  0  0
 11 16  1  0  0  0  0
 11 12  2  0  0  0  0
 12 13  1  0  0  0  0
 13 14  2  0  0  0  0
 13 46  1  0  0  0  0
 14 15  1  0  0  0  0
 15 19  1  0  0  0  0
 15 16  2  0  0  0  0
 16 17  1  0  0  0  0
 17 18  2  0  0  0  0
 18 19  1  0  0  0  0
 18 47  1  0  0  0  0
 19 20  1  0  0  0  0
 20 21  1  0  0  0  0
 20 48  1  0  0  0  0
 20 49  1  0  0  0  0
 21 22  1  0  0  0  0
 21 23  1  0  0  0  0
 21 50  1  0  0  0  0
 22 51  1  0  0  0  0
 23 27  1  0  0  0  0
 23 24  1  0  0  0  0
 23 52  1  0  0  0  0
 24 25  1  0  0  0  0
 24 53  1  0  0  0  0
 24 54  1  0  0  0  0
 25 26  1  0  0  0  0
 25 55  1  0  0  0  0
 25 56  1  0  0  0  0
 26 27  1  0  0  0  0
 26 57  1  0  0  0  0
 26 58  1  0  0  0  0
 28 29  1  0  0  0  0
 28 59  1  0  0  0  0
 28 60  1  0  0  0  0
 29 61  1  0  0  0  0
 29 62  1  0  0  0  0
M  CHG  1   2   1
M  END
> <s_m_source_file>
AV-unprocessed.smi

> <i_m_source_file_index>
155

> <i_lp_mmshare_version>
43012

> <i_f3d_flags>
0

> <s_epik_input>
W0NIM11OKFtDSDNdKVtDSDJdW0NIMl1OMVtDSDJdW0NIMl1bQ0gyXU4oW0NIMl1bQ0gyXTEpYyhuW2NIXW4yKWMoYzIzKW5bY0hdbjNbQ0gyXVtDQEhdKFtPSF0pW0NAQEhdNFtDSDJdW0NIMl1bQ0gyXU80

> <s_epik_cmdline>
J2VwaWtfcHl0aG9uJywgJy1waCcsICc3LjAnLCAnLXRuJywgJzgnLCAnLW1hJywgJzIwMCcsICctbWV0YWxfYmluZGluZycsICctaW1hZScsICc8aW5maWxlLm1hZT4nLCAnLW9tYWUnLCAnPG91dGZpbGUubWFlPic=

> <r_lp_tautomer_probability>
1

> <r_epik_Ionization_Penalty>
0.0599493

> <r_epik_Ionization_Penalty_Charging>
0.00816363

> <r_epik_Ionization_Penalty_Neutral>
0.0517857

> <r_epik_State_Penalty>
0.460607

> <r_epik_Charging_Adjusted_Penalty>
0.468771

> <i_epik_Tot_Q>
1

> <i_epik_Tot_abs_Q>
1

> <r_epik_Metal_State_Penalty>
0.45965

> <b_epik_Metal_Only>
0

> <s_lp_Force_Field>
OPLS_2005

> <r_lp_Energy>
58.8836

> <b_lp_Chiralities_Consistent>
1

> <s_lp_Variant>
AV-unprocessed.smi:155-10

> <Gold.Version>
5.8.1

> <Gold.Id.Protein>
6NUR|6NUR_protein|mol2

> <Gold.PLP.Fitness>
53.8813

> <Gold.PLP.PLP>
-47.5695

> <Gold.PLP.part.hbond>
-3.8929

> <Gold.PLP.part.metal>
0.0000

> <Gold.PLP.part.buried>
-6.2545

> <Gold.PLP.part.nonpolar>
-37.1665

> <Gold.PLP.part.repulsive>
0.2993

> <Gold.PLP.ligand.clash>
0.0000

> <Gold.PLP.ligand.torsion>
1.7087

> <Gold.PLP.Chemscore.Hbond>
3.1146

> <Gold.PLP.Chemscore.CHOScore>
0.0000

> <Gold.PLP.Chemscore.Metal>
0.0000

> <Gold.Chemscore.Hbonds>
donor molecule, donor type, donor heavy atom, donor atom, acceptor molecule, acceptor atom, score
      L1  H     2    63       P1 10747  1.00
      P1  H  7989  7998       L1    14  0.06
      P1  H  7997  8009       L1    14  1.00
      P1  H 10752 10764       L1    12  0.64

> <Gold.PLP.Chemscore.Internal.Correction>
0.3853

> <Gold.Rescore>
     Score         DG    S(hbond)    S(metal)    S(lipo)     H(rot)  DE(clash)    DE(int)     intcor
     17.55     -20.16       2.48        0.00     113.86       2.71       1.00       1.61       ----

> <Gold.Chemscore.Fitness>
17.5499

> <Gold.Chemscore.DG>
-20.1625

> <Gold.Chemscore.ZeroCoef>
-5.4800

> <Gold.Chemscore.Hbond>
2.4832

> <Gold.Chemscore.Metal>
0.0000

> <Gold.Chemscore.Lipo>
113.8574

> <Gold.Chemscore.Internal_Hbond>
0.0000

> <Gold.Chemscore.DEClash>
0.9997

> <Gold.Chemscore.DEInternal>
1.6129

> <Gold.Chemscore.Rot>
2.7080

> <Gold.Chemscore.Internal.Correction>
   9.000000E+99

> <Gold.Chemscore.Hbonds>
donor molecule, donor type, donor heavy atom, donor atom, acceptor molecule, acceptor atom, score
      L1  H     2    63       P1 10747  0.96
      P1  H  7997  8009       L1    14  0.34
      P1  H 10752 10764       L1    12  0.45

> <Gold.Chemscore.Hbond.Weighted>
-8.2938

> <Gold.Chemscore.Metal.Weighted>
-0.0000

> <Gold.Chemscore.Lipo.Weighted>
-13.3213

> <Gold.Chemscore.Internal_Hbond.Weighted>
0.0000

> <Gold.Chemscore.DEClash.Weighted>
0.9997

> <Gold.Chemscore.DEInternal.Weighted>
1.6129

> <Gold.Chemscore.Rot.Weighted>
6.9326

> <Gold.Chemscore.Internal.Correction.Weighted>
   9.000000E+99

> <Gold.Protein.RotatedTorsions>
[ 6907 6896 6895 6894 ] final    1.56 input  -60.11 | X-H torsion
[ 7974 7965 7964 7962 ] final  -16.73 input  175.53 | X-H torsion
[ 8008 7997 7996 7995 ] final -138.20 input   59.86 | X-H torsion
[ 10167 10162 10161 10158 ] final  -49.59 input  -65.29 | X-H torsion
[ 10718 10713 10712 10709 ] final  -26.43 input   66.30 | X-H torsion
[ 10763 10752 10751 10750 ] final  -78.84 input  -60.55 | X-H torsion
[ 11005 11000 10999 10996 ] final  -13.82 input  -57.11 | X-H torsion

> <Gold.Protein.ActiveResidues>
 VAL166  LYS551  ARG553  GLY616  TRP617  ASP618  TYR619  PRO620  LYS621  CYS622 
 ASP623  PHE694  ASN695  SER759  ASP760  ASP761  ALA762  ILE779  LEU786  VAL792 
 PHE793  MET794  SER795  GLU796  ALA797  LYS798  CYS799  TRP800  GLU811  SER814 

> <Gold.Protein.RotatedAtoms>
  151.5946  135.1051  160.0046 H   0  0  0  0  0  0  0  0  0  0  0  0  # atno 6907 bound_to 6896
  152.4289  133.7239  159.6559 H   0  0  0  0  0  0  0  0  0  0  0  0  # atno 6908 bound_to 6896
  150.8180  133.8232  159.3174 H   0  0  0  0  0  0  0  0  0  0  0  0  # atno 6909 bound_to 6896
  146.1974  140.3678  142.8435 H   0  0  0  0  0  0  0  0  0  0  0  0  # atno 7974 bound_to 7965
  155.4244  140.0521  157.3023 H   0  0  0  0  0  0  0  0  0  0  0  0  # atno 8008 bound_to 7997
  154.4888  140.2111  155.9553 H   0  0  0  0  0  0  0  0  0  0  0  0  # atno 8009 bound_to 7997
  156.1313  140.3171  155.8358 H   0  0  0  0  0  0  0  0  0  0  0  0  # atno 8010 bound_to 7997
  140.6678  143.2691  151.4237 H   0  0  0  0  0  0  0  0  0  0  0  0  # atno 10167 bound_to 10162
  156.4514  130.4484  149.6988 H   0  0  0  0  0  0  0  0  0  0  0  0  # atno 10718 bound_to 10713
  154.5311  135.5716  153.6759 H   0  0  0  0  0  0  0  0  0  0  0  0  # atno 10763 bound_to 10752
  152.9939  135.6205  154.2628 H   0  0  0  0  0  0  0  0  0  0  0  0  # atno 10764 bound_to 10752
  154.2554  135.2858  155.2779 H   0  0  0  0  0  0  0  0  0  0  0  0  # atno 10765 bound_to 10752
  140.7801  133.8370  155.9284 H   0  0  0  0  0  0  0  0  0  0  0  0  # atno 11005 bound_to 11000
  144.8609  140.7138  143.6108 LP  0  0  0  0  0  0  0  0  0  0  0  0  # atno 17320 bound_to 7965
  145.3598  139.1684  143.4389 LP  0  0  0  0  0  0  0  0  0  0  0  0  # atno 17321 bound_to 7965
  139.5933  144.1451  152.2114 LP  0  0  0  0  0  0  0  0  0  0  0  0  # atno 17342 bound_to 10162
  140.0813  144.5698  150.7120 LP  0  0  0  0  0  0  0  0  0  0  0  0  # atno 17343 bound_to 10162
  156.3813  130.7580  151.2573 LP  0  0  0  0  0  0  0  0  0  0  0  0  # atno 17370 bound_to 10713
  157.7502  131.0295  150.4095 LP  0  0  0  0  0  0  0  0  0  0  0  0  # atno 17371 bound_to 10713
  140.9491  134.1802  157.4741 LP  0  0  0  0  0  0  0  0  0  0  0  0  # atno 17394 bound_to 11000
  139.8744  134.9902  156.5492 LP  0  0  0  0  0  0  0  0  0  0  0  0  # atno 17395 bound_to 11000

$$$$
