AV-unprocessed.smi:2504|AV-procd|sdf|9851|dock2
  -GOLD-   2272013483D 1   1.00000     0.00000
 Structure written by MMmdl.
 45 47  0  0  0  0  0  0  0  0  2 V2000
  148.5652  137.3668  160.0479 O   0  0  0  0  0  0  0  0  0  0  0  0
  147.9652  136.3581  159.6733 C   0  0  0  0  0  0  0  0  0  0  0  0
  147.0803  135.5457  160.6468 C   0  0  0  0  0  0  0  0  0  0  0  0
  146.0280  136.3920  161.3839 C   0  0  0  0  0  0  0  0  0  0  0  0
  146.7386  136.9639  162.6180 C   0  0  0  0  0  0  0  0  0  0  0  0
  147.9445  136.0490  162.8808 C   0  0  0  0  0  0  0  0  0  0  0  0
  147.8958  134.9541  161.8069 C   0  0  0  0  0  0  0  0  0  0  0  0
  147.9977  135.9503  158.3362 N   0  0  0  0  0  0  0  0  0  0  0  0
  149.2132  136.0218  157.5382 C   0  0  0  0  0  0  0  0  0  0  0  0
  148.6371  134.8346  156.7587 C   0  0  0  0  0  0  0  0  0  0  0  0
  149.8892  133.5131  156.4358 S   0  0  0  0  0  0  0  0  0  0  0  0
  151.1358  134.2130  156.0867 O   0  0  0  0  0  0  0  0  0  0  0  0
  149.9233  132.6648  157.6391 O   0  0  0  0  0  0  0  0  0  0  0  0
  149.2184  132.7841  155.1506 N   0  5  0  0  0  0  0  0  0  0  0  0
  148.1927  133.4731  154.3829 C   0  0  0  0  0  0  0  0  0  0  0  0
  147.9472  132.7555  153.0350 C   0  0  0  0  0  0  0  0  0  0  0  0
  146.5907  133.0269  152.3927 C   0  0  0  0  0  0  0  0  0  0  0  0
  145.6960  131.9756  152.0950 C   0  0  0  0  0  0  0  0  0  0  0  0
  144.4525  132.2848  151.5113 C   0  0  0  0  0  0  0  0  0  0  0  0
  144.1552  133.6359  151.2437 C   0  0  0  0  0  0  0  0  0  0  0  0
  145.0050  134.6502  151.5105 N   0  0  0  0  0  0  0  0  0  0  0  0
  146.1940  134.3450  152.0729 C   0  0  0  0  0  0  0  0  0  0  0  0
  147.7175  134.5724  157.9609 C   0  0  0  0  0  0  0  0  0  0  0  0
  146.5805  134.7577  160.0832 H   0  0  0  0  0  0  0  0  0  0  0  0
  145.5762  137.1703  160.7672 H   0  0  0  0  0  0  0  0  0  0  0  0
  145.2146  135.7406  161.7066 H   0  0  0  0  0  0  0  0  0  0  0  0
  147.0822  137.9798  162.4185 H   0  0  0  0  0  0  0  0  0  0  0  0
  146.0669  137.0101  163.4758 H   0  0  0  0  0  0  0  0  0  0  0  0
  148.8675  136.6230  162.7880 H   0  0  0  0  0  0  0  0  0  0  0  0
  147.9249  135.6237  163.8846 H   0  0  0  0  0  0  0  0  0  0  0  0
  147.3752  134.0799  162.1998 H   0  0  0  0  0  0  0  0  0  0  0  0
  148.8946  134.6238  161.5183 H   0  0  0  0  0  0  0  0  0  0  0  0
  149.3141  136.9390  156.9575 H   0  0  0  0  0  0  0  0  0  0  0  0
  150.1182  135.7730  158.0959 H   0  0  0  0  0  0  0  0  0  0  0  0
  148.1152  135.1313  155.8476 H   0  0  0  0  0  0  0  0  0  0  0  0
  147.2516  133.4993  154.9330 H   0  0  0  0  0  0  0  0  0  0  0  0
  148.4449  134.5170  154.1927 H   0  0  0  0  0  0  0  0  0  0  0  0
  148.7325  133.0255  152.3274 H   0  0  0  0  0  0  0  0  0  0  0  0
  148.0418  131.6791  153.1832 H   0  0  0  0  0  0  0  0  0  0  0  0
  145.9543  130.9509  152.3187 H   0  0  0  0  0  0  0  0  0  0  0  0
  143.7417  131.5060  151.2787 H   0  0  0  0  0  0  0  0  0  0  0  0
  143.2100  133.9088  150.7982 H   0  0  0  0  0  0  0  0  0  0  0  0
  146.8461  135.1802  152.2834 H   0  0  0  0  0  0  0  0  0  0  0  0
  148.0986  133.8452  158.6794 H   0  0  0  0  0  0  0  0  0  0  0  0
  146.6752  134.3891  157.6993 H   0  0  0  0  0  0  0  0  0  0  0  0
  1  2  2  0  0  0  0
  2  3  1  0  0  0  0
  2  8  1  0  0  0  0
  3  7  1  0  0  0  0
  3  4  1  0  0  0  0
  3 24  1  0  0  0  0
  4  5  1  0  0  0  0
  4 25  1  0  0  0  0
  4 26  1  0  0  0  0
  5  6  1  0  0  0  0
  5 27  1  0  0  0  0
  5 28  1  0  0  0  0
  6  7  1  0  0  0  0
  6 29  1  0  0  0  0
  6 30  1  0  0  0  0
  7 31  1  0  0  0  0
  7 32  1  0  0  0  0
  8 23  1  0  0  0  0
  8  9  1  0  0  0  0
  9 10  1  0  0  0  0
  9 33  1  0  0  0  0
  9 34  1  0  0  0  0
 10 11  1  0  0  0  0
 10 23  1  0  0  0  0
 10 35  1  0  0  0  0
 11 12  2  0  0  0  0
 11 13  2  0  0  0  0
 11 14  1  0  0  0  0
 14 15  1  0  0  0  0
 15 16  1  0  0  0  0
 15 36  1  0  0  0  0
 15 37  1  0  0  0  0
 16 17  1  0  0  0  0
 16 38  1  0  0  0  0
 16 39  1  0  0  0  0
 17 22  1  0  0  0  0
 17 18  2  0  0  0  0
 18 19  1  0  0  0  0
 18 40  1  0  0  0  0
 19 20  2  0  0  0  0
 19 41  1  0  0  0  0
 20 21  1  0  0  0  0
 20 42  1  0  0  0  0
 21 22  2  0  0  0  0
 22 43  1  0  0  0  0
 23 44  1  0  0  0  0
 23 45  1  0  0  0  0
M  CHG  1  14  -1
M  END
> <s_m_source_file>
AV-unprocessed.smi

> <i_m_source_file_index>
2504

> <i_lp_mmshare_version>
43012

> <i_f3d_flags>
0

> <s_epik_input>
W0NIMl0xW0NIMl1bQ0gyXVtDSDJdW0NIXTFDKD1PKU4yW0NIMl1bQ0hdKFtDSDJdMilTKD1PKSg9TylbTkhdW0NIMl1bQ0gyXWMzW2NIXVtjSF1bY0hdbltjSF0z

> <s_epik_cmdline>
J2VwaWtfcHl0aG9uJywgJy1waCcsICc3LjAnLCAnLXRuJywgJzgnLCAnLW1hJywgJzIwMCcsICctbWV0YWxfYmluZGluZycsICctaW1hZScsICc8aW5maWxlLm1hZT4nLCAnLW9tYWUnLCAnPG91dGZpbGUubWFlPic=

> <r_epik_Ionization_Penalty>
5.82897

> <r_epik_Ionization_Penalty_Charging>
5.8024

> <r_epik_Ionization_Penalty_Neutral>
0.0265674

> <r_epik_State_Penalty>
5.81059

> <r_epik_Charging_Adjusted_Penalty>
11.613

> <i_epik_Tot_Q>
-1

> <i_epik_Tot_abs_Q>
1

> <r_epik_Metal_State_Penalty>
1.79017

> <b_epik_Metal_Only>
1

> <s_lp_Force_Field>
OPLS_2005

> <r_lp_Energy>
30.9789

> <b_lp_Chiralities_Consistent>
1

> <s_lp_Variant>
AV-unprocessed.smi:2504-3

> <Gold.Version>
5.8.1

> <Gold.Id.Protein>
6NUR|6NUR_protein|mol2

> <Gold.PLP.Fitness>
44.4675

> <Gold.PLP.PLP>
-34.3832

> <Gold.PLP.part.hbond>
-2.9938

> <Gold.PLP.part.metal>
0.0000

> <Gold.PLP.part.buried>
-5.4819

> <Gold.PLP.part.nonpolar>
-26.6639

> <Gold.PLP.part.repulsive>
0.1776

> <Gold.PLP.ligand.clash>
0.0000

> <Gold.PLP.ligand.torsion>
2.0526

> <Gold.PLP.Chemscore.Hbond>
1.9116

> <Gold.PLP.Chemscore.CHOScore>
1.9433

> <Gold.PLP.Chemscore.Metal>
0.0000

> <Gold.Chemscore.Hbonds>
donor molecule, donor type, donor heavy atom, donor atom, acceptor molecule, acceptor atom, score
      P1  H  6896  6909       L1    13  0.83
      P1  H  6931  6943       L1     1  0.42
      P1  H  6934  6947       L1     1  0.13
      L1  C    20    42       P1 10186  0.88
      L1  C    22    43       P1  7948  1.00

> <Gold.PLP.Chemscore.Internal.Correction>
2.6249

> <Gold.Rescore>
     Score         DG    S(hbond)    S(metal)    S(lipo)     H(rot)  DE(clash)    DE(int)     intcor
     17.76     -19.92       2.63        0.00      83.72       1.61       0.05       2.11       ----

> <Gold.Chemscore.Fitness>
17.7644

> <Gold.Chemscore.DG>
-19.9229

> <Gold.Chemscore.ZeroCoef>
-5.4800

> <Gold.Chemscore.Hbond>
2.6262

> <Gold.Chemscore.Metal>
0.0000

> <Gold.Chemscore.Lipo>
83.7232

> <Gold.Chemscore.Internal_Hbond>
0.0000

> <Gold.Chemscore.DEClash>
0.0465

> <Gold.Chemscore.DEInternal>
2.1120

> <Gold.Chemscore.Rot>
1.6110

> <Gold.Chemscore.Internal.Correction>
   9.000000E+99

> <Gold.Chemscore.Hbonds>
donor molecule, donor type, donor heavy atom, donor atom, acceptor molecule, acceptor atom, score
      P1  H  6896  6909       L1    13  0.66
      P1  H  6931  6943       L1     1  0.42
      P1  H  6934  6947       L1     1  0.12

> <Gold.Chemscore.Hbond.Weighted>
-8.7716

> <Gold.Chemscore.Metal.Weighted>
-0.0000

> <Gold.Chemscore.Lipo.Weighted>
-9.7956

> <Gold.Chemscore.Internal_Hbond.Weighted>
0.0000

> <Gold.Chemscore.DEClash.Weighted>
0.0465

> <Gold.Chemscore.DEInternal.Weighted>
2.1120

> <Gold.Chemscore.Rot.Weighted>
4.1243

> <Gold.Chemscore.Internal.Correction.Weighted>
   9.000000E+99

> <Gold.Protein.RotatedTorsions>
[ 6907 6896 6895 6894 ] final  -12.73 input  -60.11 | X-H torsion
[ 7974 7965 7964 7962 ] final  -72.90 input  175.53 | X-H torsion
[ 8008 7997 7996 7995 ] final  -15.13 input   59.86 | X-H torsion
[ 10167 10162 10161 10158 ] final -161.71 input  -65.29 | X-H torsion
[ 10718 10713 10712 10709 ] final -140.36 input   66.30 | X-H torsion
[ 10763 10752 10751 10750 ] final  -16.69 input  -60.55 | X-H torsion
[ 11005 11000 10999 10996 ] final -116.05 input  -57.11 | X-H torsion

> <Gold.Protein.ActiveResidues>
 VAL166  LYS551  ARG553  GLY616  TRP617  ASP618  TYR619  PRO620  LYS621  CYS622 
 ASP623  PHE694  ASN695  SER759  ASP760  ASP761  ALA762  ILE779  LEU786  VAL792 
 PHE793  MET794  SER795  GLU796  ALA797  LYS798  CYS799  TRP800  GLU811  SER814 

> <Gold.Protein.RotatedAtoms>
  151.3659  135.0913  159.9449 H   0  0  0  0  0  0  0  0  0  0  0  0  # atno 6907 bound_to 6896
  152.5149  133.9212  159.7546 H   0  0  0  0  0  0  0  0  0  0  0  0  # atno 6908 bound_to 6896
  150.9616  133.6384  159.2782 H   0  0  0  0  0  0  0  0  0  0  0  0  # atno 6909 bound_to 6896
  145.6591  140.9258  143.0943 H   0  0  0  0  0  0  0  0  0  0  0  0  # atno 7974 bound_to 7965
  154.5155  140.2204  155.9075 H   0  0  0  0  0  0  0  0  0  0  0  0  # atno 8008 bound_to 7997
  156.1602  140.3143  155.8760 H   0  0  0  0  0  0  0  0  0  0  0  0  # atno 8009 bound_to 7997
  155.3766  140.0470  157.3035 H   0  0  0  0  0  0  0  0  0  0  0  0  # atno 8010 bound_to 7997
  139.6445  144.0198  152.2117 H   0  0  0  0  0  0  0  0  0  0  0  0  # atno 10167 bound_to 10162
  156.3214  130.7536  151.1635 H   0  0  0  0  0  0  0  0  0  0  0  0  # atno 10718 bound_to 10713
  153.5625  135.7009  153.5541 H   0  0  0  0  0  0  0  0  0  0  0  0  # atno 10763 bound_to 10752
  153.3417  135.4019  155.1577 H   0  0  0  0  0  0  0  0  0  0  0  0  # atno 10764 bound_to 10752
  154.8646  135.3744  154.5143 H   0  0  0  0  0  0  0  0  0  0  0  0  # atno 10765 bound_to 10752
  141.0447  133.9780  157.2936 H   0  0  0  0  0  0  0  0  0  0  0  0  # atno 11005 bound_to 11000
  144.7095  139.8425  143.7419 LP  0  0  0  0  0  0  0  0  0  0  0  0  # atno 17320 bound_to 7965
  146.1140  139.4149  143.0270 LP  0  0  0  0  0  0  0  0  0  0  0  0  # atno 17321 bound_to 7965
  139.9896  144.6371  150.7826 LP  0  0  0  0  0  0  0  0  0  0  0  0  # atno 17342 bound_to 10162
  140.7508  143.2961  151.3202 LP  0  0  0  0  0  0  0  0  0  0  0  0  # atno 17343 bound_to 10162
  157.7412  131.0506  150.5110 LP  0  0  0  0  0  0  0  0  0  0  0  0  # atno 17370 bound_to 10713
  156.5263  130.4174  149.6224 LP  0  0  0  0  0  0  0  0  0  0  0  0  # atno 17371 bound_to 10713
  139.9303  135.0200  156.8377 LP  0  0  0  0  0  0  0  0  0  0  0  0  # atno 17394 bound_to 11000
  140.6168  134.0031  155.7600 LP  0  0  0  0  0  0  0  0  0  0  0  0  # atno 17395 bound_to 11000

$$$$
