AV-unprocessed.smi:2047|AV-procd|sdf|8318|dock1
  -GOLD-   2272010583D 1   1.00000     0.00000
 Structure written by MMmdl.
 43 45  0  0  0  0  0  0  0  0  2 V2000
  153.5959  141.4889  161.0889 O   0  0  0  0  0  0  0  0  0  0  0  0
  153.0187  141.0249  160.1061 C   0  0  0  0  0  0  0  0  0  0  0  0
  152.0920  141.6674  159.3752 N   0  0  0  0  0  0  0  0  0  0  0  0
  151.5932  142.9926  159.5368 C   0  0  0  0  0  0  0  0  0  0  0  0
  152.1067  143.8978  160.5015 C   0  0  0  0  0  0  0  0  0  0  0  0
  151.5776  145.2007  160.5890 C   0  0  0  0  0  0  0  0  0  0  0  0
  150.5521  145.5847  159.7058 C   0  0  0  0  0  0  0  0  0  0  0  0
  150.0954  144.7064  158.7890 N   0  3  0  0  0  0  0  0  0  0  0  0
  150.5690  143.4421  158.6639 C   0  0  0  0  0  0  0  0  0  0  0  0
  150.0202  142.6046  157.6773 N   0  0  0  0  0  0  0  0  0  0  0  0
  149.3627  141.4019  158.1610 C   0  0  0  0  0  0  0  0  0  0  0  0
  149.2103  140.5002  156.9335 C   0  0  0  0  0  0  0  0  0  0  0  0
  150.2712  140.9984  155.9441 C   0  0  0  0  0  0  0  0  0  0  0  0
  150.9566  142.1683  156.6553 C   0  0  0  0  0  0  0  0  0  0  0  0
  153.2344  139.7876  159.6380 N   0  0  0  0  0  0  0  0  0  0  0  0
  154.1839  138.8330  160.2030 C   0  0  1  0  0  0  0  0  0  0  0  0
  153.6445  138.2182  161.5078 C   0  0  0  0  0  0  0  0  0  0  0  0
  154.4906  136.9880  161.8575 C   0  0  0  0  0  0  0  0  0  0  0  0
  155.0406  136.2782  160.2593 S   0  0  0  0  0  0  0  0  0  0  0  0
  156.5097  136.2126  160.2472 O   0  0  0  0  0  0  0  0  0  0  0  0
  154.2267  135.0957  159.9390 O   0  0  0  0  0  0  0  0  0  0  0  0
  154.4823  137.6846  159.2256 C   0  0  0  0  0  0  0  0  0  0  0  0
  151.6452  141.1234  158.6515 H   0  0  0  0  0  0  0  0  0  0  0  0
  152.9088  143.6244  161.1693 H   0  0  0  0  0  0  0  0  0  0  0  0
  151.9586  145.8974  161.3216 H   0  0  0  0  0  0  0  0  0  0  0  0
  150.0906  146.5615  159.7004 H   0  0  0  0  0  0  0  0  0  0  0  0
  149.9726  140.9047  158.9162 H   0  0  0  0  0  0  0  0  0  0  0  0
  148.3963  141.6367  158.6084 H   0  0  0  0  0  0  0  0  0  0  0  0
  149.3411  139.4484  157.1893 H   0  0  0  0  0  0  0  0  0  0  0  0
  148.2161  140.6153  156.4997 H   0  0  0  0  0  0  0  0  0  0  0  0
  150.9857  140.2197  155.6759 H   0  0  0  0  0  0  0  0  0  0  0  0
  149.7925  141.3395  155.0254 H   0  0  0  0  0  0  0  0  0  0  0  0
  151.1890  142.9784  155.9633 H   0  0  0  0  0  0  0  0  0  0  0  0
  151.8906  141.8353  157.1104 H   0  0  0  0  0  0  0  0  0  0  0  0
  152.7101  139.4826  158.8307 H   0  0  0  0  0  0  0  0  0  0  0  0
  155.1203  139.3428  160.4387 H   0  0  0  0  0  0  0  0  0  0  0  0
  153.6353  138.9411  162.3242 H   0  0  0  0  0  0  0  0  0  0  0  0
  152.6129  137.8977  161.3548 H   0  0  0  0  0  0  0  0  0  0  0  0
  155.3791  137.2774  162.4194 H   0  0  0  0  0  0  0  0  0  0  0  0
  153.9423  136.2425  162.4335 H   0  0  0  0  0  0  0  0  0  0  0  0
  153.5817  137.3700  158.6972 H   0  0  0  0  0  0  0  0  0  0  0  0
  155.2468  137.9372  158.4903 H   0  0  0  0  0  0  0  0  0  0  0  0
  149.3543  145.0111  158.1576 H   0  0  0  0  0  0  0  0  0  0  0  0
  1  2  2  0  0  0  0
  2  3  1  0  0  0  0
  2 15  1  0  0  0  0
  3  4  1  0  0  0  0
  3 23  1  0  0  0  0
  4  9  1  0  0  0  0
  4  5  2  0  0  0  0
  5  6  1  0  0  0  0
  5 24  1  0  0  0  0
  6  7  2  0  0  0  0
  6 25  1  0  0  0  0
  7  8  1  0  0  0  0
  7 26  1  0  0  0  0
  8  9  2  0  0  0  0
  8 43  1  0  0  0  0
  9 10  1  0  0  0  0
 10 14  1  0  0  0  0
 10 11  1  0  0  0  0
 11 12  1  0  0  0  0
 11 27  1  0  0  0  0
 11 28  1  0  0  0  0
 12 13  1  0  0  0  0
 12 29  1  0  0  0  0
 12 30  1  0  0  0  0
 13 14  1  0  0  0  0
 13 31  1  0  0  0  0
 13 32  1  0  0  0  0
 14 33  1  0  0  0  0
 14 34  1  0  0  0  0
 15 16  1  0  0  0  0
 15 35  1  0  0  0  0
 16 22  1  0  0  0  0
 16 17  1  0  0  0  0
 16 36  1  0  0  0  0
 17 18  1  0  0  0  0
 17 37  1  0  0  0  0
 17 38  1  0  0  0  0
 18 19  1  0  0  0  0
 18 39  1  0  0  0  0
 18 40  1  0  0  0  0
 19 20  2  0  0  0  0
 19 21  2  0  0  0  0
 19 22  1  0  0  0  0
 22 41  1  0  0  0  0
 22 42  1  0  0  0  0
M  CHG  1   8   1
M  END
> <s_m_source_file>
AV-unprocessed.smi

> <i_m_source_file_index>
2047

> <i_lp_mmshare_version>
43012

> <i_f3d_flags>
0

> <s_epik_input>
Tz1TMSg9TylbQ0gyXVtDSDJdW0NASF0oW0NIMl0xKVtOSF1DKD1PKVtOSF1jMltjSF1bY0hdW2NIXW5jMk4zW0NIMl1bQ0gyXVtDSDJdW0NIMl0z

> <s_epik_cmdline>
J2VwaWtfcHl0aG9uJywgJy1waCcsICc3LjAnLCAnLXRuJywgJzgnLCAnLW1hJywgJzIwMCcsICctbWV0YWxfYmluZGluZycsICctaW1hZScsICc8aW5maWxlLm1hZT4nLCAnLW9tYWUnLCAnPG91dGZpbGUubWFlPic=

> <r_lp_tautomer_probability>
0.999994

> <r_epik_Ionization_Penalty>
1.20225

> <r_epik_Ionization_Penalty_Charging>
1.20223

> <r_epik_Ionization_Penalty_Neutral>
2.10783e-05

> <r_epik_State_Penalty>
1.26794

> <r_epik_Charging_Adjusted_Penalty>
2.47017

> <i_epik_Tot_Q>
1

> <i_epik_Tot_abs_Q>
1

> <r_epik_Metal_State_Penalty>
1.34322

> <b_epik_Metal_Only>
0

> <s_lp_Force_Field>
OPLS_2005

> <r_lp_Energy>
42.594

> <b_lp_Chiralities_Consistent>
1

> <s_lp_Variant>
AV-unprocessed.smi:2047-4

> <Gold.Version>
5.8.1

> <Gold.Id.Protein>
6NUR|6NUR_protein|mol2

> <Gold.PLP.Fitness>
41.3155

> <Gold.PLP.PLP>
-33.1096

> <Gold.PLP.part.hbond>
-2.1303

> <Gold.PLP.part.metal>
0.0000

> <Gold.PLP.part.buried>
-6.8902

> <Gold.PLP.part.nonpolar>
-25.7913

> <Gold.PLP.part.repulsive>
0.7113

> <Gold.PLP.ligand.clash>
0.3807

> <Gold.PLP.ligand.torsion>
0.2181

> <Gold.PLP.Chemscore.Hbond>
3.0000

> <Gold.PLP.Chemscore.CHOScore>
0.0000

> <Gold.PLP.Chemscore.Metal>
0.0000

> <Gold.Chemscore.Hbonds>
donor molecule, donor type, donor heavy atom, donor atom, acceptor molecule, acceptor atom, score
      L1  H     8    43       P1  8029  2.00
      P1  H  6896  6907       L1    21  1.00

> <Gold.PLP.Chemscore.Internal.Correction>
0.0228

> <Gold.Rescore>
     Score         DG    S(hbond)    S(metal)    S(lipo)     H(rot)  DE(clash)    DE(int)     intcor
     14.76     -17.47       1.69        0.00      81.81       1.26       0.04       2.67       ----

> <Gold.Chemscore.Fitness>
14.7647

> <Gold.Chemscore.DG>
-17.4737

> <Gold.Chemscore.ZeroCoef>
-5.4800

> <Gold.Chemscore.Hbond>
1.6900

> <Gold.Chemscore.Metal>
0.0000

> <Gold.Chemscore.Lipo>
81.8138

> <Gold.Chemscore.Internal_Hbond>
0.0000

> <Gold.Chemscore.DEClash>
0.0371

> <Gold.Chemscore.DEInternal>
2.6719

> <Gold.Chemscore.Rot>
1.2590

> <Gold.Chemscore.Internal.Correction>
   9.000000E+99

> <Gold.Chemscore.Hbonds>
donor molecule, donor type, donor heavy atom, donor atom, acceptor molecule, acceptor atom, score
      L1  H     8    43       P1  8029  0.34
      P1  H  6896  6907       L1    21  1.00

> <Gold.Chemscore.Hbond.Weighted>
-5.6445

> <Gold.Chemscore.Metal.Weighted>
-0.0000

> <Gold.Chemscore.Lipo.Weighted>
-9.5722

> <Gold.Chemscore.Internal_Hbond.Weighted>
0.0000

> <Gold.Chemscore.DEClash.Weighted>
0.0371

> <Gold.Chemscore.DEInternal.Weighted>
2.6719

> <Gold.Chemscore.Rot.Weighted>
3.2231

> <Gold.Chemscore.Internal.Correction.Weighted>
   9.000000E+99

> <Gold.Protein.RotatedTorsions>
[ 6907 6896 6895 6894 ] final   75.23 input  -60.11 | X-H torsion
[ 7974 7965 7964 7962 ] final   64.79 input  175.53 | X-H torsion
[ 8008 7997 7996 7995 ] final -132.50 input   59.86 | X-H torsion
[ 10167 10162 10161 10158 ] final  136.80 input  -65.29 | X-H torsion
[ 10718 10713 10712 10709 ] final  -50.39 input   66.30 | X-H torsion
[ 10763 10752 10751 10750 ] final  162.97 input  -60.55 | X-H torsion
[ 11005 11000 10999 10996 ] final  -65.71 input  -57.11 | X-H torsion

> <Gold.Protein.ActiveResidues>
 VAL166  LYS551  ARG553  GLY616  TRP617  ASP618  TYR619  PRO620  LYS621  CYS622 
 ASP623  PHE694  ASN695  SER759  ASP760  ASP761  ALA762  ILE779  LEU786  VAL792 
 PHE793  MET794  SER795  GLU796  ALA797  LYS798  CYS799  TRP800  GLU811  SER814 

> <Gold.Protein.RotatedAtoms>
  152.5015  134.4152  159.9461 H   0  0  0  0  0  0  0  0  0  0  0  0  # atno 6907 bound_to 6896
  151.4122  133.3717  159.2753 H   0  0  0  0  0  0  0  0  0  0  0  0  # atno 6908 bound_to 6896
  150.9283  134.8721  159.7594 H   0  0  0  0  0  0  0  0  0  0  0  0  # atno 6909 bound_to 6896
  145.8460  139.3225  143.0903 H   0  0  0  0  0  0  0  0  0  0  0  0  # atno 7974 bound_to 7965
  155.3300  140.0466  157.3042 H   0  0  0  0  0  0  0  0  0  0  0  0  # atno 8008 bound_to 7997
  154.5333  140.2264  155.8731 H   0  0  0  0  0  0  0  0  0  0  0  0  # atno 8009 bound_to 7997
  156.1810  140.3074  155.9156 H   0  0  0  0  0  0  0  0  0  0  0  0  # atno 8010 bound_to 7997
  139.5167  144.6445  151.5478 H   0  0  0  0  0  0  0  0  0  0  0  0  # atno 10167 bound_to 10162
  156.1805  130.4150  149.9514 H   0  0  0  0  0  0  0  0  0  0  0  0  # atno 10718 bound_to 10713
  154.2865  135.2762  155.2674 H   0  0  0  0  0  0  0  0  0  0  0  0  # atno 10763 bound_to 10752
  154.5172  135.5766  153.6655 H   0  0  0  0  0  0  0  0  0  0  0  0  # atno 10764 bound_to 10752
  152.9921  135.6195  154.3027 H   0  0  0  0  0  0  0  0  0  0  0  0  # atno 10765 bound_to 10752
  141.1462  133.6686  156.6028 H   0  0  0  0  0  0  0  0  0  0  0  0  # atno 11005 bound_to 11000
  145.9411  140.8979  143.0307 LP  0  0  0  0  0  0  0  0  0  0  0  0  # atno 17320 bound_to 7965
  144.6731  140.1550  143.7427 LP  0  0  0  0  0  0  0  0  0  0  0  0  # atno 17321 bound_to 7965
  140.6224  143.9232  150.6537 LP  0  0  0  0  0  0  0  0  0  0  0  0  # atno 17342 bound_to 10162
  140.2510  143.3593  152.1405 LP  0  0  0  0  0  0  0  0  0  0  0  0  # atno 17343 bound_to 10162
  156.7286  130.9034  151.3624 LP  0  0  0  0  0  0  0  0  0  0  0  0  # atno 17370 bound_to 10713
  157.6864  130.9190  150.0399 LP  0  0  0  0  0  0  0  0  0  0  0  0  # atno 17371 bound_to 10713
  140.3675  134.7634  157.4576 LP  0  0  0  0  0  0  0  0  0  0  0  0  # atno 17394 bound_to 11000
  140.0736  134.5828  155.8615 LP  0  0  0  0  0  0  0  0  0  0  0  0  # atno 17395 bound_to 11000

$$$$
