AV-unprocessed.smi:716|AV-procd|sdf|3486|dock1
  -GOLD-   22720 0483D 1   1.00000     0.00000
 Structure written by MMmdl.
 48 50  0  0  0  0  0  0  0  0  1 V2000
  152.9650  143.2340  159.8782 C   0  0  0  0  0  0  0  0  0  0  0  0
  151.9167  143.3177  158.7668 C   0  0  0  0  0  0  0  0  0  0  0  0
  151.8761  142.0782  158.0794 O   0  0  0  0  0  0  0  0  0  0  0  0
  150.6093  141.8108  157.4898 C   0  0  2  0  0  0  0  0  0  0  0  0
  149.6052  141.2423  158.5007 C   0  0  0  0  0  0  0  0  0  0  0  0
  150.1738  139.8668  158.1497 C   0  0  1  0  0  0  0  0  0  0  0  0
  149.1468  138.8336  158.1179 N   0  0  0  0  0  0  0  0  0  0  0  0
  149.2130  137.6709  158.7813 C   0  0  0  0  0  0  0  0  0  0  0  0
  150.1386  137.3701  159.5342 O   0  0  0  0  0  0  0  0  0  0  0  0
  148.0606  136.6893  158.5503 C   0  0  0  0  0  0  0  0  0  0  0  0
  147.7209  135.9687  159.7842 N   0  0  0  0  0  0  0  0  0  0  0  0
  147.2707  136.7842  160.8097 N   0  0  0  0  0  0  0  0  0  0  0  0
  146.9793  136.2964  161.9706 C   0  0  0  0  0  0  0  0  0  0  0  0
  146.5124  137.2519  163.0282 C   0  0  0  0  0  0  0  0  0  0  0  0
  147.1142  134.8707  162.2008 C   0  0  0  0  0  0  0  0  0  0  0  0
  147.5503  134.0770  161.1994 C   0  0  0  0  0  0  0  0  0  0  0  0
  147.8944  134.6168  159.8861 C   0  0  0  0  0  0  0  0  0  0  0  0
  148.3160  133.9221  158.9615 O   0  0  0  0  0  0  0  0  0  0  0  0
  150.5775  140.4433  156.7640 C   0  0  0  0  0  0  0  0  0  0  0  0
  149.5965  140.3226  155.5891 C   0  0  0  0  0  0  0  0  0  0  0  0
  150.0404  139.1359  154.7295 C   0  0  0  0  0  0  0  0  0  0  0  0
  151.5119  138.8968  155.0728 C   0  0  0  0  0  0  0  0  0  0  0  0
  151.8752  139.9400  156.1337 C   0  0  0  0  0  0  0  0  0  0  0  0
  153.0202  144.1710  160.4329 H   0  0  0  0  0  0  0  0  0  0  0  0
  153.9538  143.0277  159.4681 H   0  0  0  0  0  0  0  0  0  0  0  0
  152.7223  142.4405  160.5852 H   0  0  0  0  0  0  0  0  0  0  0  0
  150.9415  143.5516  159.1953 H   0  0  0  0  0  0  0  0  0  0  0  0
  152.1724  144.1202  158.0735 H   0  0  0  0  0  0  0  0  0  0  0  0
  150.2295  142.6356  156.8846 H   0  0  0  0  0  0  0  0  0  0  0  0
  149.7580  141.5447  159.5368 H   0  0  0  0  0  0  0  0  0  0  0  0
  148.5685  141.3820  158.1886 H   0  0  0  0  0  0  0  0  0  0  0  0
  151.0361  139.6183  158.7731 H   0  0  0  0  0  0  0  0  0  0  0  0
  148.3496  138.9958  157.5193 H   0  0  0  0  0  0  0  0  0  0  0  0
  147.1924  137.2456  158.1921 H   0  0  0  0  0  0  0  0  0  0  0  0
  148.3146  135.9992  157.7433 H   0  0  0  0  0  0  0  0  0  0  0  0
  146.3093  136.7346  163.9661 H   0  0  0  0  0  0  0  0  0  0  0  0
  145.5960  137.7560  162.7201 H   0  0  0  0  0  0  0  0  0  0  0  0
  147.2685  138.0126  163.2244 H   0  0  0  0  0  0  0  0  0  0  0  0
  146.8652  134.4560  163.1664 H   0  0  0  0  0  0  0  0  0  0  0  0
  147.6506  133.0154  161.3717 H   0  0  0  0  0  0  0  0  0  0  0  0
  148.5579  140.2187  155.9043 H   0  0  0  0  0  0  0  0  0  0  0  0
  149.6398  141.2280  154.9825 H   0  0  0  0  0  0  0  0  0  0  0  0
  149.4580  138.2483  154.9735 H   0  0  0  0  0  0  0  0  0  0  0  0
  149.8953  139.3364  153.6677 H   0  0  0  0  0  0  0  0  0  0  0  0
  151.6412  137.8891  155.4691 H   0  0  0  0  0  0  0  0  0  0  0  0
  152.1531  138.9851  154.1953 H   0  0  0  0  0  0  0  0  0  0  0  0
  152.3991  140.7687  155.6558 H   0  0  0  0  0  0  0  0  0  0  0  0
  152.5596  139.5239  156.8738 H   0  0  0  0  0  0  0  0  0  0  0  0
  1  2  1  0  0  0  0
  1 24  1  0  0  0  0
  1 25  1  0  0  0  0
  1 26  1  0  0  0  0
  2  3  1  0  0  0  0
  2 27  1  0  0  0  0
  2 28  1  0  0  0  0
  3  4  1  0  0  0  0
  4 19  1  0  0  0  0
  4  5  1  0  0  0  0
  4 29  1  0  0  0  0
  5  6  1  0  0  0  0
  5 30  1  0  0  0  0
  5 31  1  0  0  0  0
  6  7  1  0  0  0  0
  6 19  1  0  0  0  0
  6 32  1  0  0  0  0
  7  8  1  0  0  0  0
  7 33  1  0  0  0  0
  8  9  2  0  0  0  0
  8 10  1  0  0  0  0
 10 11  1  0  0  0  0
 10 34  1  0  0  0  0
 10 35  1  0  0  0  0
 11 17  1  0  0  0  0
 11 12  1  0  0  0  0
 12 13  2  0  0  0  0
 13 14  1  0  0  0  0
 13 15  1  0  0  0  0
 14 36  1  0  0  0  0
 14 37  1  0  0  0  0
 14 38  1  0  0  0  0
 15 16  2  0  0  0  0
 15 39  1  0  0  0  0
 16 17  1  0  0  0  0
 16 40  1  0  0  0  0
 17 18  2  0  0  0  0
 19 23  1  0  0  0  0
 19 20  1  0  0  0  0
 20 21  1  0  0  0  0
 20 41  1  0  0  0  0
 20 42  1  0  0  0  0
 21 22  1  0  0  0  0
 21 43  1  0  0  0  0
 21 44  1  0  0  0  0
 22 23  1  0  0  0  0
 22 45  1  0  0  0  0
 22 46  1  0  0  0  0
 23 47  1  0  0  0  0
 23 48  1  0  0  0  0
M  END
> <s_m_source_file>
AV-unprocessed.smi

> <i_m_source_file_index>
716

> <i_lp_mmshare_version>
43012

> <i_f3d_flags>
0

> <s_epik_input>
W0NIMl0xW0NIMl1bQ0gyXVtDSDJdQzEyW0NASF0oT1tDSDJdW0NIM10pW0NIMl1bQ0BIXTJbTkhdQyg9TylbQ0gyXW4zbmMoW0NIM10pW2NIXVtjSF1jMz1P

> <s_epik_cmdline>
J2VwaWtfcHl0aG9uJywgJy1waCcsICc3LjAnLCAnLXRuJywgJzgnLCAnLW1hJywgJzIwMCcsICctbWV0YWxfYmluZGluZycsICctaW1hZScsICc8aW5maWxlLm1hZT4nLCAnLW9tYWUnLCAnPG91dGZpbGUubWFlPic=

> <r_lp_tautomer_probability>
1

> <r_epik_Ionization_Penalty>
4.75561e-08

> <r_epik_Ionization_Penalty_Charging>
2.86617e-08

> <r_epik_Ionization_Penalty_Neutral>
1.88944e-08

> <r_epik_State_Penalty>
-0

> <r_epik_Charging_Adjusted_Penalty>
2.86617e-08

> <i_epik_Tot_Q>
0

> <i_epik_Tot_abs_Q>
0

> <r_epik_Metal_State_Penalty>
-0

> <b_epik_Metal_Only>
0

> <s_lp_Force_Field>
OPLS_2005

> <r_lp_Energy>
50.4804

> <b_lp_Chiralities_Consistent>
1

> <s_lp_Variant>
AV-unprocessed.smi:716-1

> <Gold.Version>
5.8.1

> <Gold.Id.Protein>
6NUR|6NUR_protein|mol2

> <Gold.PLP.Fitness>
48.4468

> <Gold.PLP.PLP>
-43.1290

> <Gold.PLP.part.hbond>
-4.0000

> <Gold.PLP.part.metal>
0.0000

> <Gold.PLP.part.buried>
-2.9740

> <Gold.PLP.part.nonpolar>
-37.0214

> <Gold.PLP.part.repulsive>
0.1909

> <Gold.PLP.ligand.clash>
0.0000

> <Gold.PLP.ligand.torsion>
0.7141

> <Gold.PLP.Chemscore.Hbond>
2.1148

> <Gold.PLP.Chemscore.CHOScore>
0.0000

> <Gold.PLP.Chemscore.Metal>
0.0000

> <Gold.Chemscore.Hbonds>
donor molecule, donor type, donor heavy atom, donor atom, acceptor molecule, acceptor atom, score
      P1  H  6896  6909       L1    18  0.15
      P1  H  6934  6947       L1    12  0.47

> <Gold.PLP.Chemscore.Internal.Correction>
0.4016

> <Gold.Rescore>
     Score         DG    S(hbond)    S(metal)    S(lipo)     H(rot)  DE(clash)    DE(int)     intcor
     17.83     -18.92       1.62        0.00     106.42       1.73       0.15       0.93       ----

> <Gold.Chemscore.Fitness>
17.8330

> <Gold.Chemscore.DG>
-18.9173

> <Gold.Chemscore.ZeroCoef>
-5.4800

> <Gold.Chemscore.Hbond>
1.6248

> <Gold.Chemscore.Metal>
0.0000

> <Gold.Chemscore.Lipo>
106.4238

> <Gold.Chemscore.Internal_Hbond>
0.0000

> <Gold.Chemscore.DEClash>
0.1495

> <Gold.Chemscore.DEInternal>
0.9348

> <Gold.Chemscore.Rot>
1.7348

> <Gold.Chemscore.Internal.Correction>
   9.000000E+99

> <Gold.Chemscore.Hbonds>
donor molecule, donor type, donor heavy atom, donor atom, acceptor molecule, acceptor atom, score
      P1  H  6896  6909       L1    18  0.03
      P1  H  6934  6947       L1    12  0.33

> <Gold.Chemscore.Hbond.Weighted>
-5.4268

> <Gold.Chemscore.Metal.Weighted>
-0.0000

> <Gold.Chemscore.Lipo.Weighted>
-12.4516

> <Gold.Chemscore.Internal_Hbond.Weighted>
0.0000

> <Gold.Chemscore.DEClash.Weighted>
0.1495

> <Gold.Chemscore.DEInternal.Weighted>
0.9348

> <Gold.Chemscore.Rot.Weighted>
4.4411

> <Gold.Chemscore.Internal.Correction.Weighted>
   9.000000E+99

> <Gold.Protein.RotatedTorsions>
[ 6907 6896 6895 6894 ] final   22.54 input  -60.11 | X-H torsion
[ 7974 7965 7964 7962 ] final  -60.70 input  175.53 | X-H torsion
[ 8008 7997 7996 7995 ] final -111.14 input   59.86 | X-H torsion
[ 10167 10162 10161 10158 ] final  -49.02 input  -65.29 | X-H torsion
[ 10718 10713 10712 10709 ] final   54.52 input   66.30 | X-H torsion
[ 10763 10752 10751 10750 ] final  -92.86 input  -60.55 | X-H torsion
[ 11005 11000 10999 10996 ] final  -54.11 input  -57.11 | X-H torsion

> <Gold.Protein.ActiveResidues>
 VAL166  LYS551  ARG553  GLY616  TRP617  ASP618  TYR619  PRO620  LYS621  CYS622 
 ASP623  PHE694  ASN695  SER759  ASP760  ASP761  ALA762  ILE779  LEU786  VAL792 
 PHE793  MET794  SER795  GLU796  ALA797  LYS798  CYS799  TRP800  GLU811  SER814 

> <Gold.Protein.RotatedAtoms>
  151.9287  135.0266  160.0527 H   0  0  0  0  0  0  0  0  0  0  0  0  # atno 6907 bound_to 6896
  152.2137  133.4926  159.5133 H   0  0  0  0  0  0  0  0  0  0  0  0  # atno 6908 bound_to 6896
  150.6982  134.1350  159.4126 H   0  0  0  0  0  0  0  0  0  0  0  0  # atno 6909 bound_to 6896
  145.8124  140.8591  143.0175 H   0  0  0  0  0  0  0  0  0  0  0  0  # atno 7974 bound_to 7965
  154.9853  140.0396  157.2296 H   0  0  0  0  0  0  0  0  0  0  0  0  # atno 8008 bound_to 7997
  154.7677  140.2796  155.6140 H   0  0  0  0  0  0  0  0  0  0  0  0  # atno 8009 bound_to 7997
  156.2915  140.2616  156.2472 H   0  0  0  0  0  0  0  0  0  0  0  0  # atno 8010 bound_to 7997
  140.6704  143.2715  151.4155 H   0  0  0  0  0  0  0  0  0  0  0  0  # atno 10167 bound_to 10162
  157.5264  130.8600  149.8628 H   0  0  0  0  0  0  0  0  0  0  0  0  # atno 10718 bound_to 10713
  154.6903  135.5215  153.8383 H   0  0  0  0  0  0  0  0  0  0  0  0  # atno 10763 bound_to 10752
  153.0627  135.6574  154.0434 H   0  0  0  0  0  0  0  0  0  0  0  0  # atno 10764 bound_to 10752
  154.0309  135.2985  155.3348 H   0  0  0  0  0  0  0  0  0  0  0  0  # atno 10765 bound_to 10752
  141.1009  133.6618  156.4272 H   0  0  0  0  0  0  0  0  0  0  0  0  # atno 11005 bound_to 11000
  144.6756  140.0414  143.7481 LP  0  0  0  0  0  0  0  0  0  0  0  0  # atno 17320 bound_to 7965
  145.9763  139.2907  143.1068 LP  0  0  0  0  0  0  0  0  0  0  0  0  # atno 17321 bound_to 7965
  139.5970  144.1376  152.2155 LP  0  0  0  0  0  0  0  0  0  0  0  0  # atno 17342 bound_to 10162
  140.0748  144.5749  150.7165 LP  0  0  0  0  0  0  0  0  0  0  0  0  # atno 17343 bound_to 10162
  156.0390  130.3744  150.1484 LP  0  0  0  0  0  0  0  0  0  0  0  0  # atno 17370 bound_to 10713
  156.9670  130.9823  151.3467 LP  0  0  0  0  0  0  0  0  0  0  0  0  # atno 17371 bound_to 10713
  140.5023  134.6474  157.5253 LP  0  0  0  0  0  0  0  0  0  0  0  0  # atno 17394 bound_to 11000
  139.9861  134.7059  155.9772 LP  0  0  0  0  0  0  0  0  0  0  0  0  # atno 17395 bound_to 11000

$$$$
