AV-unprocessed.smi:2885|AV-procd|sdf|11086|dock1
  -GOLD-   2272015553D 1   1.00000     0.00000
 Structure written by MMmdl.
 40 42  0  0  0  0  0  0  0  0  1 V2000
  144.7970  137.9942  152.5364 N   0  0  0  0  0  0  0  0  0  0  0  0
  145.8583  137.9310  153.3453 C   0  0  0  0  0  0  0  0  0  0  0  0
  146.3098  136.8635  153.7544 O   0  0  0  0  0  0  0  0  0  0  0  0
  146.4158  139.2488  153.7541 C   0  0  0  0  0  0  0  0  0  0  0  0
  147.6917  139.7161  153.5304 C   0  0  0  0  0  0  0  0  0  0  0  0
  147.7698  140.9716  154.1210 N   0  0  0  0  0  0  0  0  0  0  0  0
  148.9496  141.8271  154.1390 C   0  0  0  0  0  0  0  0  0  0  0  0
  149.9632  141.3847  155.1979 C   0  0  0  0  0  0  0  0  0  0  0  0
  150.6145  140.3544  155.0291 O   0  0  0  0  0  0  0  0  0  0  0  0
  150.1016  142.1794  156.2709 N   0  0  0  0  0  0  0  0  0  0  0  0
  151.1032  142.0092  157.3148 C   0  0  0  0  0  0  0  0  0  0  0  0
  151.0986  143.1998  158.2709 C   0  0  0  0  0  0  0  0  0  0  0  0
  151.6595  144.5520  157.8088 C   0  0  0  0  0  0  0  0  0  0  0  0
  152.1687  144.7758  159.2357 C   0  0  0  0  0  0  0  0  0  0  0  0
  152.1118  143.2576  159.4245 C   0  0  0  0  0  0  0  0  0  0  0  0
  146.5534  141.2052  154.6558 C   0  0  0  0  0  0  0  0  0  0  0  0
  146.2178  142.4458  155.4215 C   0  0  0  0  0  0  0  0  0  0  0  0
  144.8475  142.6400  156.0317 C   0  0  0  0  0  0  0  0  0  0  0  0
  145.2718  143.4825  154.8572 C   0  0  0  0  0  0  0  0  0  0  0  0
  145.7071  140.1943  154.4892 N   0  0  0  0  0  0  0  0  0  0  0  0
  144.3571  137.1422  152.2206 H   0  0  0  0  0  0  0  0  0  0  0  0
  144.4358  138.8922  152.2506 H   0  0  0  0  0  0  0  0  0  0  0  0
  148.5333  139.2690  153.0217 H   0  0  0  0  0  0  0  0  0  0  0  0
  149.4243  141.8041  153.1573 H   0  0  0  0  0  0  0  0  0  0  0  0
  148.6387  142.8567  154.3178 H   0  0  0  0  0  0  0  0  0  0  0  0
  149.5203  143.0030  156.3275 H   0  0  0  0  0  0  0  0  0  0  0  0
  150.8772  141.0880  157.8522 H   0  0  0  0  0  0  0  0  0  0  0  0
  152.0905  141.8714  156.8714 H   0  0  0  0  0  0  0  0  0  0  0  0
  150.0991  143.3646  158.6799 H   0  0  0  0  0  0  0  0  0  0  0  0
  152.4692  144.4517  157.0840 H   0  0  0  0  0  0  0  0  0  0  0  0
  150.9073  145.2672  157.4746 H   0  0  0  0  0  0  0  0  0  0  0  0
  153.1672  145.2085  159.3024 H   0  0  0  0  0  0  0  0  0  0  0  0
  151.4516  145.3076  159.8631 H   0  0  0  0  0  0  0  0  0  0  0  0
  151.7229  142.9283  160.3887 H   0  0  0  0  0  0  0  0  0  0  0  0
  153.0565  142.7670  159.1840 H   0  0  0  0  0  0  0  0  0  0  0  0
  147.0787  142.7923  155.9901 H   0  0  0  0  0  0  0  0  0  0  0  0
  144.0967  141.8728  155.8515 H   0  0  0  0  0  0  0  0  0  0  0  0
  144.7956  143.1236  157.0049 H   0  0  0  0  0  0  0  0  0  0  0  0
  145.5078  144.5281  155.0435 H   0  0  0  0  0  0  0  0  0  0  0  0
  144.8016  143.2736  153.8984 H   0  0  0  0  0  0  0  0  0  0  0  0
  1  2  1  0  0  0  0
  1 21  1  0  0  0  0
  1 22  1  0  0  0  0
  2  3  2  0  0  0  0
  2  4  1  0  0  0  0
  4 20  1  0  0  0  0
  4  5  2  0  0  0  0
  5  6  1  0  0  0  0
  5 23  1  0  0  0  0
  6  7  1  0  0  0  0
  6 16  1  0  0  0  0
  7  8  1  0  0  0  0
  7 24  1  0  0  0  0
  7 25  1  0  0  0  0
  8  9  2  0  0  0  0
  8 10  1  0  0  0  0
 10 11  1  0  0  0  0
 10 26  1  0  0  0  0
 11 12  1  0  0  0  0
 11 27  1  0  0  0  0
 11 28  1  0  0  0  0
 12 15  1  0  0  0  0
 12 13  1  0  0  0  0
 12 29  1  0  0  0  0
 13 14  1  0  0  0  0
 13 30  1  0  0  0  0
 13 31  1  0  0  0  0
 14 15  1  0  0  0  0
 14 32  1  0  0  0  0
 14 33  1  0  0  0  0
 15 34  1  0  0  0  0
 15 35  1  0  0  0  0
 16 17  1  0  0  0  0
 16 20  2  0  0  0  0
 17 19  1  0  0  0  0
 17 18  1  0  0  0  0
 17 36  1  0  0  0  0
 18 19  1  0  0  0  0
 18 37  1  0  0  0  0
 18 38  1  0  0  0  0
 19 39  1  0  0  0  0
 19 40  1  0  0  0  0
M  END
> <s_m_source_file>
AV-unprocessed.smi

> <i_m_source_file_index>
2885

> <i_lp_mmshare_version>
43012

> <i_f3d_flags>
0

> <s_epik_input>
W05IMl1DKD1PKWMxW2NIXW4oYyhuMSlbQ0hdMltDSDJdW0NIMl0yKVtDSDJdQyg9TylbTkhdW0NIMl1bQ0hdM1tDSDJdW0NIMl1bQ0gyXTM=

> <s_epik_cmdline>
J2VwaWtfcHl0aG9uJywgJy1waCcsICc3LjAnLCAnLXRuJywgJzgnLCAnLW1hJywgJzIwMCcsICctbWV0YWxfYmluZGluZycsICctaW1hZScsICc8aW5maWxlLm1hZT4nLCAnLW9tYWUnLCAnPG91dGZpbGUubWFlPic=

> <r_lp_tautomer_probability>
1

> <r_epik_Ionization_Penalty>
0.00135877

> <r_epik_Ionization_Penalty_Charging>
0.00135847

> <r_epik_Ionization_Penalty_Neutral>
3.0068e-07

> <r_epik_State_Penalty>
0.000904027

> <r_epik_Charging_Adjusted_Penalty>
0.00226249

> <i_epik_Tot_Q>
0

> <i_epik_Tot_abs_Q>
0

> <r_epik_Metal_State_Penalty>
-0

> <b_epik_Metal_Only>
0

> <s_lp_Force_Field>
OPLS_2005

> <r_lp_Energy>
17.7141

> <b_lp_Chiralities_Consistent>
1

> <s_lp_Variant>
AV-unprocessed.smi:2885-1

> <Gold.Version>
5.8.1

> <Gold.Id.Protein>
6NUR|6NUR_protein|mol2

> <Gold.PLP.Fitness>
45.5525

> <Gold.PLP.PLP>
-36.7945

> <Gold.PLP.part.hbond>
-3.9979

> <Gold.PLP.part.metal>
0.0000

> <Gold.PLP.part.buried>
-1.7739

> <Gold.PLP.part.nonpolar>
-32.9651

> <Gold.PLP.part.repulsive>
1.5648

> <Gold.PLP.ligand.clash>
0.0000

> <Gold.PLP.ligand.torsion>
1.7358

> <Gold.PLP.Chemscore.Hbond>
3.0000

> <Gold.PLP.Chemscore.CHOScore>
0.9829

> <Gold.PLP.Chemscore.Metal>
0.0000

> <Gold.Chemscore.Hbonds>
donor molecule, donor type, donor heavy atom, donor atom, acceptor molecule, acceptor atom, score
      L1  H     1    22       P1 10175  1.00
      L1  H    10    26       P1  8028  1.00
      P1  H  7989  7998       L1     9  0.95
      L1  C     5    23       P1  7957  0.96

> <Gold.PLP.Chemscore.Internal.Correction>
0.2809

> <Gold.Rescore>
     Score         DG    S(hbond)    S(metal)    S(lipo)     H(rot)  DE(clash)    DE(int)     intcor
     14.75     -17.68       2.12        0.00      87.17       1.98       1.37       1.55       ----

> <Gold.Chemscore.Fitness>
14.7509

> <Gold.Chemscore.DG>
-17.6766

> <Gold.Chemscore.ZeroCoef>
-5.4800

> <Gold.Chemscore.Hbond>
2.1151

> <Gold.Chemscore.Metal>
0.0000

> <Gold.Chemscore.Lipo>
87.1680

> <Gold.Chemscore.Internal_Hbond>
0.0000

> <Gold.Chemscore.DEClash>
1.3745

> <Gold.Chemscore.DEInternal>
1.5512

> <Gold.Chemscore.Rot>
1.9791

> <Gold.Chemscore.Internal.Correction>
   9.000000E+99

> <Gold.Chemscore.Hbonds>
donor molecule, donor type, donor heavy atom, donor atom, acceptor molecule, acceptor atom, score
      L1  H     1    22       P1 10175  0.99
      L1  H    10    26       P1  8028  0.96
      P1  H  7989  7998       L1     9  0.21

> <Gold.Chemscore.Hbond.Weighted>
-7.0644

> <Gold.Chemscore.Metal.Weighted>
-0.0000

> <Gold.Chemscore.Lipo.Weighted>
-10.1987

> <Gold.Chemscore.Internal_Hbond.Weighted>
0.0000

> <Gold.Chemscore.DEClash.Weighted>
1.3745

> <Gold.Chemscore.DEInternal.Weighted>
1.5512

> <Gold.Chemscore.Rot.Weighted>
5.0665

> <Gold.Chemscore.Internal.Correction.Weighted>
   9.000000E+99

> <Gold.Protein.RotatedTorsions>
[ 6907 6896 6895 6894 ] final   -7.92 input  -60.11 | X-H torsion
[ 7974 7965 7964 7962 ] final   17.87 input  175.53 | X-H torsion
[ 8008 7997 7996 7995 ] final  -50.73 input   59.86 | X-H torsion
[ 10167 10162 10161 10158 ] final  -73.98 input  -65.29 | X-H torsion
[ 10718 10713 10712 10709 ] final   78.44 input   66.30 | X-H torsion
[ 10763 10752 10751 10750 ] final   56.89 input  -60.55 | X-H torsion
[ 11005 11000 10999 10996 ] final -165.15 input  -57.11 | X-H torsion

> <Gold.Protein.ActiveResidues>
 VAL166  LYS551  ARG553  GLY616  TRP617  ASP618  TYR619  PRO620  LYS621  CYS622 
 ASP623  PHE694  ASN695  SER759  ASP760  ASP761  ALA762  ILE779  LEU786  VAL792 
 PHE793  MET794  SER795  GLU796  ALA797  LYS798  CYS799  TRP800  GLU811  SER814 

> <Gold.Protein.RotatedAtoms>
  151.4419  135.1021  159.9672 H   0  0  0  0  0  0  0  0  0  0  0  0  # atno 6907 bound_to 6896
  152.4920  133.8521  159.7217 H   0  0  0  0  0  0  0  0  0  0  0  0  # atno 6908 bound_to 6896
  150.9082  133.6972  159.2889 H   0  0  0  0  0  0  0  0  0  0  0  0  # atno 6909 bound_to 6896
  146.2204  139.8539  142.8617 H   0  0  0  0  0  0  0  0  0  0  0  0  # atno 7974 bound_to 7965
  154.4068  140.1265  156.4713 H   0  0  0  0  0  0  0  0  0  0  0  0  # atno 8008 bound_to 7997
  155.7176  140.3493  155.4982 H   0  0  0  0  0  0  0  0  0  0  0  0  # atno 8009 bound_to 7997
  155.9244  140.1058  157.1172 H   0  0  0  0  0  0  0  0  0  0  0  0  # atno 8010 bound_to 7997
  140.5065  143.2352  151.7665 H   0  0  0  0  0  0  0  0  0  0  0  0  # atno 10167 bound_to 10162
  157.6745  130.9868  150.1787 H   0  0  0  0  0  0  0  0  0  0  0  0  # atno 10718 bound_to 10713
  152.9840  135.5660  154.5302 H   0  0  0  0  0  0  0  0  0  0  0  0  # atno 10763 bound_to 10752
  154.4775  135.2787  155.1598 H   0  0  0  0  0  0  0  0  0  0  0  0  # atno 10764 bound_to 10752
  154.3120  135.6286  153.5523 H   0  0  0  0  0  0  0  0  0  0  0  0  # atno 10765 bound_to 10752
  140.5789  134.5161  157.5175 H   0  0  0  0  0  0  0  0  0  0  0  0  # atno 11005 bound_to 11000
  145.2773  141.0128  143.3737 LP  0  0  0  0  0  0  0  0  0  0  0  0  # atno 17320 bound_to 7965
  144.9177  139.4450  143.6556 LP  0  0  0  0  0  0  0  0  0  0  0  0  # atno 17321 bound_to 7965
  139.4885  144.4450  151.9720 LP  0  0  0  0  0  0  0  0  0  0  0  0  # atno 17342 bound_to 10162
  140.3541  144.3053  150.5944 LP  0  0  0  0  0  0  0  0  0  0  0  0  # atno 17343 bound_to 10162
  156.2524  130.3702  149.8217 LP  0  0  0  0  0  0  0  0  0  0  0  0  # atno 17370 bound_to 10713
  156.5986  130.8537  151.3426 LP  0  0  0  0  0  0  0  0  0  0  0  0  # atno 17371 bound_to 10713
  139.9326  134.7934  156.0888 LP  0  0  0  0  0  0  0  0  0  0  0  0  # atno 17394 bound_to 11000
  141.1009  133.6678  156.2751 LP  0  0  0  0  0  0  0  0  0  0  0  0  # atno 17395 bound_to 11000

$$$$
