AV-unprocessed.smi:2229|AV-procd|sdf|9032|dock3
  -GOLD-   2272012233D 1   1.00000     0.00000
 Structure written by MMmdl.
 43 44  0  0  0  0  0  0  0  0  2 V2000
  151.9278  145.2691  158.9541 C   0  0  0  0  0  0  0  0  0  0  0  0
  151.7815  143.7383  158.9054 C   0  0  0  0  0  0  0  0  0  0  0  0
  153.1095  143.0601  159.2748 C   0  0  0  0  0  0  0  0  0  0  0  0
  151.2714  143.2297  157.5404 C   0  0  0  0  0  0  0  0  0  0  0  0
  151.2030  141.6966  157.4429 C   0  0  0  0  0  0  0  0  0  0  0  0
  150.9829  141.1578  156.0113 C   0  0  1  0  0  0  0  0  0  0  0  0
  150.8862  139.6302  155.9309 C   0  0  0  0  0  0  0  0  0  0  0  0
  150.2345  139.3680  154.5780 C   0  0  0  0  0  0  0  0  0  0  0  0
  149.2004  140.4846  154.4297 C   0  0  0  0  0  0  0  0  0  0  0  0
  149.7207  141.6725  155.2643 C   0  0  1  0  0  0  0  0  0  0  0  0
  148.6739  142.1518  156.1688 N   0  0  0  0  0  0  0  0  0  0  0  0
  148.0844  141.4262  157.1321 C   0  0  0  0  0  0  0  0  0  0  0  0
  148.4227  140.2788  157.4234 O   0  0  0  0  0  0  0  0  0  0  0  0
  146.9251  142.0933  157.8761 C   0  0  0  0  0  0  0  0  0  0  0  0
  145.7316  141.2461  157.8512 N   0  0  0  0  0  0  0  0  0  0  0  0
  145.1863  140.7467  156.6949 C   0  0  0  0  0  0  0  0  0  0  0  0
  144.1264  140.0664  156.9486 N   0  0  0  0  0  0  0  0  0  0  0  0
  143.9450  140.1120  158.3679 N   0  5  0  0  0  0  0  0  0  0  0  0
  144.9598  140.8525  158.8655 C   0  0  0  0  0  0  0  0  0  0  0  0
  145.1862  141.1470  160.0383 O   0  0  0  0  0  0  0  0  0  0  0  0
  152.6035  145.6292  158.1779 H   0  0  0  0  0  0  0  0  0  0  0  0
  152.3247  145.5933  159.9164 H   0  0  0  0  0  0  0  0  0  0  0  0
  150.9693  145.7713  158.8245 H   0  0  0  0  0  0  0  0  0  0  0  0
  151.0522  143.4531  159.6651 H   0  0  0  0  0  0  0  0  0  0  0  0
  153.8909  143.2997  158.5530 H   0  0  0  0  0  0  0  0  0  0  0  0
  153.0032  141.9754  159.3038 H   0  0  0  0  0  0  0  0  0  0  0  0
  153.4543  143.3803  160.2583 H   0  0  0  0  0  0  0  0  0  0  0  0
  150.2904  143.6562  157.3278 H   0  0  0  0  0  0  0  0  0  0  0  0
  151.9388  143.6015  156.7628 H   0  0  0  0  0  0  0  0  0  0  0  0
  152.1191  141.2739  157.8545 H   0  0  0  0  0  0  0  0  0  0  0  0
  150.3865  141.3470  158.0736 H   0  0  0  0  0  0  0  0  0  0  0  0
  151.8436  141.4570  155.4106 H   0  0  0  0  0  0  0  0  0  0  0  0
  151.8561  139.1403  156.0224 H   0  0  0  0  0  0  0  0  0  0  0  0
  150.2439  139.2519  156.7276 H   0  0  0  0  0  0  0  0  0  0  0  0
  150.9834  139.4535  153.7894 H   0  0  0  0  0  0  0  0  0  0  0  0
  149.7923  138.3738  154.5099 H   0  0  0  0  0  0  0  0  0  0  0  0
  149.0473  140.7549  153.3844 H   0  0  0  0  0  0  0  0  0  0  0  0
  148.2408  140.1327  154.8123 H   0  0  0  0  0  0  0  0  0  0  0  0
  150.0163  142.4753  154.5862 H   0  0  0  0  0  0  0  0  0  0  0  0
  148.3228  143.0840  156.0031 H   0  0  0  0  0  0  0  0  0  0  0  0
  147.2304  142.2910  158.9050 H   0  0  0  0  0  0  0  0  0  0  0  0
  146.6973  143.0644  157.4333 H   0  0  0  0  0  0  0  0  0  0  0  0
  145.6552  140.9538  155.7315 H   0  0  0  0  0  0  0  0  0  0  0  0
  1  2  1  0  0  0  0
  1 21  1  0  0  0  0
  1 22  1  0  0  0  0
  1 23  1  0  0  0  0
  2  3  1  0  0  0  0
  2  4  1  0  0  0  0
  2 24  1  0  0  0  0
  3 25  1  0  0  0  0
  3 26  1  0  0  0  0
  3 27  1  0  0  0  0
  4  5  1  0  0  0  0
  4 28  1  0  0  0  0
  4 29  1  0  0  0  0
  5  6  1  0  0  0  0
  5 30  1  0  0  0  0
  5 31  1  0  0  0  0
  6 10  1  0  0  0  0
  6  7  1  0  0  0  0
  6 32  1  0  0  0  0
  7  8  1  0  0  0  0
  7 33  1  0  0  0  0
  7 34  1  0  0  0  0
  8  9  1  0  0  0  0
  8 35  1  0  0  0  0
  8 36  1  0  0  0  0
  9 10  1  0  0  0  0
  9 37  1  0  0  0  0
  9 38  1  0  0  0  0
 10 11  1  0  0  0  0
 10 39  1  0  0  0  0
 11 12  1  0  0  0  0
 11 40  1  0  0  0  0
 12 13  2  0  0  0  0
 12 14  1  0  0  0  0
 14 15  1  0  0  0  0
 14 41  1  0  0  0  0
 14 42  1  0  0  0  0
 15 19  1  0  0  0  0
 15 16  1  0  0  0  0
 16 17  2  0  0  0  0
 16 43  1  0  0  0  0
 17 18  1  0  0  0  0
 18 19  1  0  0  0  0
 19 20  2  0  0  0  0
M  CHG  1  18  -1
M  END
> <s_m_source_file>
AV-unprocessed.smi

> <i_m_source_file_index>
2229

> <i_lp_mmshare_version>
43012

> <i_f3d_flags>
0

> <s_epik_input>
W0NIM11bQ0hdKFtDSDNdKVtDSDJdW0NIMl1bQ0BASF0xW0NIMl1bQ0gyXVtDSDJdW0NASF0xW05IXUMoPU8pW0NIMl1uMltjSF1uW25IXWMyPU8=

> <s_epik_cmdline>
J2VwaWtfcHl0aG9uJywgJy1waCcsICc3LjAnLCAnLXRuJywgJzgnLCAnLW1hJywgJzIwMCcsICctbWV0YWxfYmluZGluZycsICctaW1hZScsICc8aW5maWxlLm1hZT4nLCAnLW9tYWUnLCAnPG91dGZpbGUubWFlPic=

> <r_lp_tautomer_probability>
1

> <r_epik_Ionization_Penalty>
13.6733

> <r_epik_Ionization_Penalty_Charging>
13.6725

> <r_epik_Ionization_Penalty_Neutral>
0.000837689

> <r_epik_State_Penalty>
5.67062

> <r_epik_Charging_Adjusted_Penalty>
19.3431

> <i_epik_Tot_Q>
-1

> <i_epik_Tot_abs_Q>
1

> <r_epik_Metal_State_Penalty>
1.61781

> <b_epik_Metal_Only>
1

> <s_lp_Force_Field>
OPLS_2005

> <r_lp_Energy>
25.9104

> <b_lp_Chiralities_Consistent>
1

> <s_lp_Variant>
AV-unprocessed.smi:2229-6

> <Gold.Version>
5.8.1

> <Gold.Id.Protein>
6NUR|6NUR_protein|mol2

> <Gold.PLP.Fitness>
41.6456

> <Gold.PLP.PLP>
-36.0536

> <Gold.PLP.part.hbond>
-2.0000

> <Gold.PLP.part.metal>
0.0000

> <Gold.PLP.part.buried>
-3.8927

> <Gold.PLP.part.nonpolar>
-29.8923

> <Gold.PLP.part.repulsive>
0.1031

> <Gold.PLP.ligand.clash>
0.0000

> <Gold.PLP.ligand.torsion>
0.1634

> <Gold.PLP.Chemscore.Hbond>
1.9520

> <Gold.PLP.Chemscore.CHOScore>
0.0000

> <Gold.PLP.Chemscore.Metal>
0.0000

> <Gold.Chemscore.Hbonds>
donor molecule, donor type, donor heavy atom, donor atom, acceptor molecule, acceptor atom, score
      L1  H    11    40       P1  8028  0.85
      P1  H  6934  6946       L1    20  0.80

> <Gold.PLP.Chemscore.Internal.Correction>
0.0628

> <Gold.Rescore>
     Score         DG    S(hbond)    S(metal)    S(lipo)     H(rot)  DE(clash)    DE(int)     intcor
     13.93     -16.00       1.90        0.00      92.57       2.59       0.00       2.07       ----

> <Gold.Chemscore.Fitness>
13.9272

> <Gold.Chemscore.DG>
-16.0026

> <Gold.Chemscore.ZeroCoef>
-5.4800

> <Gold.Chemscore.Hbond>
1.8959

> <Gold.Chemscore.Metal>
0.0000

> <Gold.Chemscore.Lipo>
92.5713

> <Gold.Chemscore.Internal_Hbond>
0.0000

> <Gold.Chemscore.DEClash>
0.0009

> <Gold.Chemscore.DEInternal>
2.0745

> <Gold.Chemscore.Rot>
2.5939

> <Gold.Chemscore.Internal.Correction>
   9.000000E+99

> <Gold.Chemscore.Hbonds>
donor molecule, donor type, donor heavy atom, donor atom, acceptor molecule, acceptor atom, score
      L1  H    11    40       P1  8028  0.73
      P1  H  6934  6946       L1    20  0.76

> <Gold.Chemscore.Hbond.Weighted>
-6.3322

> <Gold.Chemscore.Metal.Weighted>
-0.0000

> <Gold.Chemscore.Lipo.Weighted>
-10.8308

> <Gold.Chemscore.Internal_Hbond.Weighted>
0.0000

> <Gold.Chemscore.DEClash.Weighted>
0.0009

> <Gold.Chemscore.DEInternal.Weighted>
2.0745

> <Gold.Chemscore.Rot.Weighted>
6.6405

> <Gold.Chemscore.Internal.Correction.Weighted>
   9.000000E+99

> <Gold.Protein.RotatedTorsions>
[ 6907 6896 6895 6894 ] final  -20.84 input  -60.11 | X-H torsion
[ 7974 7965 7964 7962 ] final  -45.82 input  175.53 | X-H torsion
[ 8008 7997 7996 7995 ] final  -26.94 input   59.86 | X-H torsion
[ 10167 10162 10161 10158 ] final  119.86 input  -65.29 | X-H torsion
[ 10718 10713 10712 10709 ] final  105.46 input   66.30 | X-H torsion
[ 10763 10752 10751 10750 ] final   77.28 input  -60.55 | X-H torsion
[ 11005 11000 10999 10996 ] final   39.75 input  -57.11 | X-H torsion

> <Gold.Protein.ActiveResidues>
 VAL166  LYS551  ARG553  GLY616  TRP617  ASP618  TYR619  PRO620  LYS621  CYS622 
 ASP623  PHE694  ASN695  SER759  ASP760  ASP761  ALA762  ILE779  LEU786  VAL792 
 PHE793  MET794  SER795  GLU796  ALA797  LYS798  CYS799  TRP800  GLU811  SER814 

> <Gold.Protein.RotatedAtoms>
  151.2422  135.0593  159.9028 H   0  0  0  0  0  0  0  0  0  0  0  0  # atno 6907 bound_to 6896
  152.5391  134.0422  159.8083 H   0  0  0  0  0  0  0  0  0  0  0  0  # atno 6908 bound_to 6896
  151.0618  133.5489  159.2665 H   0  0  0  0  0  0  0  0  0  0  0  0  # atno 6909 bound_to 6896
  145.9782  140.7312  142.9377 H   0  0  0  0  0  0  0  0  0  0  0  0  # atno 7974 bound_to 7965
  154.4401  140.1886  156.0853 H   0  0  0  0  0  0  0  0  0  0  0  0  # atno 8008 bound_to 7997
  156.0407  140.3320  155.7214 H   0  0  0  0  0  0  0  0  0  0  0  0  # atno 8009 bound_to 7997
  155.5703  140.0612  157.2799 H   0  0  0  0  0  0  0  0  0  0  0  0  # atno 8010 bound_to 7997
  139.6019  144.7059  151.3043 H   0  0  0  0  0  0  0  0  0  0  0  0  # atno 10167 bound_to 10162
  157.6704  131.0828  150.5860 H   0  0  0  0  0  0  0  0  0  0  0  0  # atno 10718 bound_to 10713
  153.0787  135.4920  154.8458 H   0  0  0  0  0  0  0  0  0  0  0  0  # atno 10763 bound_to 10752
  154.7122  135.3022  154.9182 H   0  0  0  0  0  0  0  0  0  0  0  0  # atno 10764 bound_to 10752
  153.9872  135.6782  153.4805 H   0  0  0  0  0  0  0  0  0  0  0  0  # atno 10765 bound_to 10752
  140.1997  134.3885  155.8102 H   0  0  0  0  0  0  0  0  0  0  0  0  # atno 11005 bound_to 11000
  144.6854  140.2863  143.7284 LP  0  0  0  0  0  0  0  0  0  0  0  0  # atno 17320 bound_to 7965
  145.7808  139.1891  143.2159 LP  0  0  0  0  0  0  0  0  0  0  0  0  # atno 17321 bound_to 7965
  140.7256  143.7013  150.7842 LP  0  0  0  0  0  0  0  0  0  0  0  0  # atno 17342 bound_to 10162
  140.0591  143.5173  152.2636 LP  0  0  0  0  0  0  0  0  0  0  0  0  # atno 17343 bound_to 10162
  156.6160  130.4393  149.5840 LP  0  0  0  0  0  0  0  0  0  0  0  0  # atno 17370 bound_to 10713
  156.2393  130.6841  151.1540 LP  0  0  0  0  0  0  0  0  0  0  0  0  # atno 17371 bound_to 10713
  141.2227  133.7088  156.8237 LP  0  0  0  0  0  0  0  0  0  0  0  0  # atno 17394 bound_to 11000
  140.2067  134.8857  157.3230 LP  0  0  0  0  0  0  0  0  0  0  0  0  # atno 17395 bound_to 11000

$$$$
