AV-unprocessed.smi:2152|AV-procd|sdf|8764|dock9
  -GOLD-   2272011543D 1   1.00000     0.00000
 Structure written by MMmdl.
 41 42  0  0  0  0  0  0  0  0  1 V2000
  148.5083  133.9200  154.1548 C   0  0  0  0  0  0  0  0  0  0  0  0
  147.0965  134.0296  153.5535 C   0  0  2  0  0  0  0  0  0  0  0  0
  147.1131  133.8116  152.0262 C   0  0  0  0  0  0  0  0  0  0  0  0
  145.6955  133.8565  151.4332 C   0  0  0  0  0  0  0  0  0  0  0  0
  144.9819  135.1693  151.7881 C   0  0  0  0  0  0  0  0  0  0  0  0
  144.9595  135.3974  153.3098 C   0  0  0  0  0  0  0  0  0  0  0  0
  146.3712  135.3485  153.9285 C   0  0  2  0  0  0  0  0  0  0  0  0
  147.1318  136.5300  153.5161 N   0  0  0  0  0  0  0  0  0  0  0  0
  147.2025  137.6972  154.1743 C   0  0  0  0  0  0  0  0  0  0  0  0
  146.6390  137.9057  155.2496 O   0  0  0  0  0  0  0  0  0  0  0  0
  148.0691  138.7808  153.5184 C   0  0  0  0  0  0  0  0  0  0  0  0
  149.3044  139.0616  154.2611 N   0  0  0  0  0  0  0  0  0  0  0  0
  150.2976  138.1015  154.3272 C   0  0  0  0  0  0  0  0  0  0  0  0
  151.4552  138.2724  155.0025 C   0  0  0  0  0  0  0  0  0  0  0  0
  151.7300  139.5135  155.7166 C   0  0  0  0  0  0  0  0  0  0  0  0
  152.7654  139.7032  156.3557 O   0  0  0  0  0  0  0  0  0  0  0  0
  150.7022  140.4831  155.6230 N   0  0  0  0  0  0  0  0  0  0  0  0
  150.8669  141.7481  156.3085 C   0  0  0  0  0  0  0  0  0  0  0  0
  149.4888  140.2932  154.9254 C   0  0  0  0  0  0  0  0  0  0  0  0
  148.6129  141.1616  154.8958 O   0  0  0  0  0  0  0  0  0  0  0  0
  149.1886  134.6572  153.7279 H   0  0  0  0  0  0  0  0  0  0  0  0
  148.9355  132.9343  153.9693 H   0  0  0  0  0  0  0  0  0  0  0  0
  148.4870  134.0710  155.2344 H   0  0  0  0  0  0  0  0  0  0  0  0
  146.5132  133.2152  153.9860 H   0  0  0  0  0  0  0  0  0  0  0  0
  147.7338  134.5703  151.5478 H   0  0  0  0  0  0  0  0  0  0  0  0
  147.5719  132.8501  151.7927 H   0  0  0  0  0  0  0  0  0  0  0  0
  145.7421  133.7399  150.3501 H   0  0  0  0  0  0  0  0  0  0  0  0
  145.1154  133.0130  151.8099 H   0  0  0  0  0  0  0  0  0  0  0  0
  145.4834  136.0031  151.2956 H   0  0  0  0  0  0  0  0  0  0  0  0
  143.9627  135.1531  151.4008 H   0  0  0  0  0  0  0  0  0  0  0  0
  144.4803  136.3504  153.5381 H   0  0  0  0  0  0  0  0  0  0  0  0
  144.3394  134.6297  153.7746 H   0  0  0  0  0  0  0  0  0  0  0  0
  146.2442  135.3673  155.0125 H   0  0  0  0  0  0  0  0  0  0  0  0
  147.6379  136.4539  152.6460 H   0  0  0  0  0  0  0  0  0  0  0  0
  148.3098  138.4552  152.5056 H   0  0  0  0  0  0  0  0  0  0  0  0
  147.4870  139.6970  153.4022 H   0  0  0  0  0  0  0  0  0  0  0  0
  150.1401  137.1615  153.8185 H   0  0  0  0  0  0  0  0  0  0  0  0
  152.1873  137.4783  155.0171 H   0  0  0  0  0  0  0  0  0  0  0  0
  150.5973  142.5455  155.6133 H   0  0  0  0  0  0  0  0  0  0  0  0
  151.9014  141.8929  156.6192 H   0  0  0  0  0  0  0  0  0  0  0  0
  150.2008  141.7298  157.1725 H   0  0  0  0  0  0  0  0  0  0  0  0
  1  2  1  0  0  0  0
  1 21  1  0  0  0  0
  1 22  1  0  0  0  0
  1 23  1  0  0  0  0
  2  7  1  0  0  0  0
  2  3  1  0  0  0  0
  2 24  1  0  0  0  0
  3  4  1  0  0  0  0
  3 25  1  0  0  0  0
  3 26  1  0  0  0  0
  4  5  1  0  0  0  0
  4 27  1  0  0  0  0
  4 28  1  0  0  0  0
  5  6  1  0  0  0  0
  5 29  1  0  0  0  0
  5 30  1  0  0  0  0
  6  7  1  0  0  0  0
  6 31  1  0  0  0  0
  6 32  1  0  0  0  0
  7  8  1  0  0  0  0
  7 33  1  0  0  0  0
  8  9  1  0  0  0  0
  8 34  1  0  0  0  0
  9 10  2  0  0  0  0
  9 11  1  0  0  0  0
 11 12  1  0  0  0  0
 11 35  1  0  0  0  0
 11 36  1  0  0  0  0
 12 19  1  0  0  0  0
 12 13  1  0  0  0  0
 13 14  2  0  0  0  0
 13 37  1  0  0  0  0
 14 15  1  0  0  0  0
 14 38  1  0  0  0  0
 15 16  2  0  0  0  0
 15 17  1  0  0  0  0
 17 18  1  0  0  0  0
 17 19  1  0  0  0  0
 18 39  1  0  0  0  0
 18 40  1  0  0  0  0
 18 41  1  0  0  0  0
 19 20  2  0  0  0  0
M  END
> <s_m_source_file>
AV-unprocessed.smi

> <i_m_source_file_index>
2152

> <i_lp_mmshare_version>
43012

> <i_f3d_flags>
0

> <s_epik_input>
W0NIM11bQ0BASF0xW0NIMl1bQ0gyXVtDSDJdW0NIMl1bQ0BIXTFbTkhdQyg9TylbQ0gyXW4yW2NIXVtjSF1jKD1PKW4oW0NIM10pYzI9Tw==

> <s_epik_cmdline>
J2VwaWtfcHl0aG9uJywgJy1waCcsICc3LjAnLCAnLXRuJywgJzgnLCAnLW1hJywgJzIwMCcsICctbWV0YWxfYmluZGluZycsICctaW1hZScsICc8aW5maWxlLm1hZT4nLCAnLW9tYWUnLCAnPG91dGZpbGUubWFlPic=

> <r_lp_tautomer_probability>
1

> <r_epik_Ionization_Penalty>
3.20555e-08

> <r_epik_Ionization_Penalty_Charging>
1.30086e-08

> <r_epik_Ionization_Penalty_Neutral>
1.90469e-08

> <r_epik_State_Penalty>
-0

> <r_epik_Charging_Adjusted_Penalty>
1.30086e-08

> <i_epik_Tot_Q>
0

> <i_epik_Tot_abs_Q>
0

> <r_epik_Metal_State_Penalty>
-0

> <b_epik_Metal_Only>
0

> <s_lp_Force_Field>
OPLS_2005

> <r_lp_Energy>
17.3754

> <b_lp_Chiralities_Consistent>
1

> <s_lp_Variant>
AV-unprocessed.smi:2152-3

> <Gold.Version>
5.8.1

> <Gold.Id.Protein>
6NUR|6NUR_protein|mol2

> <Gold.PLP.Fitness>
38.0323

> <Gold.PLP.PLP>
-29.9083

> <Gold.PLP.part.hbond>
-1.9856

> <Gold.PLP.part.metal>
0.0000

> <Gold.PLP.part.buried>
0.5229

> <Gold.PLP.part.nonpolar>
-27.8997

> <Gold.PLP.part.repulsive>
0.1572

> <Gold.PLP.ligand.clash>
0.0000

> <Gold.PLP.ligand.torsion>
0.5034

> <Gold.PLP.Chemscore.Hbond>
1.9760

> <Gold.PLP.Chemscore.CHOScore>
1.0646

> <Gold.PLP.Chemscore.Metal>
0.0000

> <Gold.Chemscore.Hbonds>
donor molecule, donor type, donor heavy atom, donor atom, acceptor molecule, acceptor atom, score
      L1  H     8    34       P1  7948  1.00
      P1  H  7997  8010       L1    16  1.00
      L1  C    13    37       P1  7948  1.00
      L1  C    13    37       P1  7949  0.07

> <Gold.PLP.Chemscore.Internal.Correction>
0.0089

> <Gold.Rescore>
     Score         DG    S(hbond)    S(metal)    S(lipo)     H(rot)  DE(clash)    DE(int)     intcor
     13.70     -14.22       1.96        0.00      52.11       1.52       0.02       0.50       ----

> <Gold.Chemscore.Fitness>
13.7000

> <Gold.Chemscore.DG>
-14.2177

> <Gold.Chemscore.ZeroCoef>
-5.4800

> <Gold.Chemscore.Hbond>
1.9589

> <Gold.Chemscore.Metal>
0.0000

> <Gold.Chemscore.Lipo>
52.1111

> <Gold.Chemscore.Internal_Hbond>
0.0000

> <Gold.Chemscore.DEClash>
0.0214

> <Gold.Chemscore.DEInternal>
0.4963

> <Gold.Chemscore.Rot>
1.5242

> <Gold.Chemscore.Internal.Correction>
   9.000000E+99

> <Gold.Chemscore.Hbonds>
donor molecule, donor type, donor heavy atom, donor atom, acceptor molecule, acceptor atom, score
      L1  H     8    34       P1  7948  0.91
      P1  H  7997  8010       L1    16  0.99

> <Gold.Chemscore.Hbond.Weighted>
-6.5426

> <Gold.Chemscore.Metal.Weighted>
-0.0000

> <Gold.Chemscore.Lipo.Weighted>
-6.0970

> <Gold.Chemscore.Internal_Hbond.Weighted>
0.0000

> <Gold.Chemscore.DEClash.Weighted>
0.0214

> <Gold.Chemscore.DEInternal.Weighted>
0.4963

> <Gold.Chemscore.Rot.Weighted>
3.9019

> <Gold.Chemscore.Internal.Correction.Weighted>
   9.000000E+99

> <Gold.Protein.RotatedTorsions>
[ 6907 6896 6895 6894 ] final -177.74 input  -60.11 | X-H torsion
[ 7974 7965 7964 7962 ] final  -56.74 input  175.53 | X-H torsion
[ 8008 7997 7996 7995 ] final   80.37 input   59.86 | X-H torsion
[ 10167 10162 10161 10158 ] final -150.45 input  -65.29 | X-H torsion
[ 10718 10713 10712 10709 ] final    2.49 input   66.30 | X-H torsion
[ 10763 10752 10751 10750 ] final   94.50 input  -60.55 | X-H torsion
[ 11005 11000 10999 10996 ] final -174.72 input  -57.11 | X-H torsion

> <Gold.Protein.ActiveResidues>
 VAL166  LYS551  ARG553  GLY616  TRP617  ASP618  TYR619  PRO620  LYS621  CYS622 
 ASP623  PHE694  ASN695  SER759  ASP760  ASP761  ALA762  ILE779  LEU786  VAL792 
 PHE793  MET794  SER795  GLU796  ALA797  LYS798  CYS799  TRP800  GLU811  SER814 

> <Gold.Protein.RotatedAtoms>
  151.6259  133.3335  159.3097 H   0  0  0  0  0  0  0  0  0  0  0  0  # atno 6907 bound_to 6896
  150.8082  134.7224  159.6675 H   0  0  0  0  0  0  0  0  0  0  0  0  # atno 6908 bound_to 6896
  152.4178  134.6015  160.0053 H   0  0  0  0  0  0  0  0  0  0  0  0  # atno 6909 bound_to 6896
  145.8592  140.8297  142.9946 H   0  0  0  0  0  0  0  0  0  0  0  0  # atno 7974 bound_to 7965
  155.8825  140.3443  155.5898 H   0  0  0  0  0  0  0  0  0  0  0  0  # atno 8008 bound_to 7997
  155.7703  140.0844  157.2130 H   0  0  0  0  0  0  0  0  0  0  0  0  # atno 8009 bound_to 7997
  154.4026  140.1519  156.2922 H   0  0  0  0  0  0  0  0  0  0  0  0  # atno 8010 bound_to 7997
  139.7353  143.8745  152.2547 H   0  0  0  0  0  0  0  0  0  0  0  0  # atno 10167 bound_to 10162
  156.8638  130.5596  149.5661 H   0  0  0  0  0  0  0  0  0  0  0  0  # atno 10718 bound_to 10713
  153.2424  135.4287  155.0712 H   0  0  0  0  0  0  0  0  0  0  0  0  # atno 10763 bound_to 10752
  154.8346  135.3406  154.6630 H   0  0  0  0  0  0  0  0  0  0  0  0  # atno 10764 bound_to 10752
  153.7053  135.7026  153.5108 H   0  0  0  0  0  0  0  0  0  0  0  0  # atno 10765 bound_to 10752
  140.4713  134.6162  157.4883 H   0  0  0  0  0  0  0  0  0  0  0  0  # atno 11005 bound_to 11000
  144.6727  140.1070  143.7457 LP  0  0  0  0  0  0  0  0  0  0  0  0  # atno 17320 bound_to 7965
  145.9268  139.2580  143.1349 LP  0  0  0  0  0  0  0  0  0  0  0  0  # atno 17321 bound_to 7965
  139.8680  144.7083  150.9021 LP  0  0  0  0  0  0  0  0  0  0  0  0  # atno 17342 bound_to 10162
  140.7778  143.3762  151.1559 LP  0  0  0  0  0  0  0  0  0  0  0  0  # atno 17343 bound_to 10162
  156.0763  130.5784  150.9479 LP  0  0  0  0  0  0  0  0  0  0  0  0  # atno 17370 bound_to 10713
  157.6235  131.0927  150.8578 LP  0  0  0  0  0  0  0  0  0  0  0  0  # atno 17371 bound_to 10713
  139.9883  134.7026  155.9734 LP  0  0  0  0  0  0  0  0  0  0  0  0  # atno 17394 bound_to 11000
  141.1575  133.6541  156.4210 LP  0  0  0  0  0  0  0  0  0  0  0  0  # atno 17395 bound_to 11000

$$$$
