AV-unprocessed.smi:132|AV-procd|sdf|1163|dock9
  -GOLD-   2262018303D 1   1.00000     0.00000
 Structure written by MMmdl.
 41 44  0  0  0  0  0  0  0  0  1 V2000
  153.0882  139.1741  155.5783 O   0  0  0  0  0  0  0  0  0  0  0  0
  152.3603  138.1832  155.6575 C   0  0  0  0  0  0  0  0  0  0  0  0
  151.1491  138.0127  154.8622 C   0  0  0  0  0  0  0  0  0  0  0  0
  150.7752  138.9776  154.0050 F   0  0  0  0  0  0  0  0  0  0  0  0
  150.3948  136.8981  154.9717 C   0  0  0  0  0  0  0  0  0  0  0  0
  150.7064  135.8551  155.8263 N   0  0  0  0  0  0  0  0  0  0  0  0
  149.8254  134.6304  155.8883 C   0  0  2  0  0  0  0  0  0  0  0  0
  150.6031  133.3843  155.4436 C   0  0  0  0  0  0  0  0  0  0  0  0
  150.0524  133.1346  154.0543 C   0  0  0  0  0  0  0  0  0  0  0  0
  148.6283  133.6597  154.1839 C   0  0  0  0  0  0  0  0  0  0  0  0
  148.7542  134.8108  155.0087 O   0  0  0  0  0  0  0  0  0  0  0  0
  151.8675  135.9266  156.6270 C   0  0  0  0  0  0  0  0  0  0  0  0
  152.1921  134.9937  157.3654 O   0  0  0  0  0  0  0  0  0  0  0  0
  152.6479  137.1031  156.5288 N   0  0  0  0  0  0  0  0  0  0  0  0
  153.8485  137.1871  157.3461 C   0  0  0  0  0  0  0  0  0  0  0  0
  153.6890  138.1443  158.4910 C   0  0  0  0  0  0  0  0  0  0  0  0
  153.8870  137.9284  159.7949 N   0  0  0  0  0  0  0  0  0  0  0  0
  153.6122  139.1226  160.4197 N   0  0  0  0  0  0  0  0  0  0  0  0
  153.2710  139.9801  159.4518 C   0  0  0  0  0  0  0  0  0  0  0  0
  152.8933  141.3877  159.5760 C   0  0  0  0  0  0  0  0  0  0  0  0
  152.5692  142.1554  158.4336 C   0  0  0  0  0  0  0  0  0  0  0  0
  152.2102  143.5112  158.5640 C   0  0  0  0  0  0  0  0  0  0  0  0
  152.1714  144.1118  159.8368 C   0  0  0  0  0  0  0  0  0  0  0  0
  151.7333  145.7730  159.9951 Cl  0  0  0  0  0  0  0  0  0  0  0  0
  152.4915  143.3542  160.9795 C   0  0  0  0  0  0  0  0  0  0  0  0
  152.8505  141.9985  160.8496 C   0  0  0  0  0  0  0  0  0  0  0  0
  153.3013  139.4155  158.2141 O   0  0  0  0  0  0  0  0  0  0  0  0
  149.5098  136.8238  154.3574 H   0  0  0  0  0  0  0  0  0  0  0  0
  149.4379  134.5566  156.9049 H   0  0  0  0  0  0  0  0  0  0  0  0
  151.6829  133.5377  155.4692 H   0  0  0  0  0  0  0  0  0  0  0  0
  150.3480  132.5601  156.1108 H   0  0  0  0  0  0  0  0  0  0  0  0
  150.6051  133.7180  153.3172 H   0  0  0  0  0  0  0  0  0  0  0  0
  150.0945  132.0859  153.7595 H   0  0  0  0  0  0  0  0  0  0  0  0
  148.1774  133.9033  153.2218 H   0  0  0  0  0  0  0  0  0  0  0  0
  147.9940  132.9273  154.6857 H   0  0  0  0  0  0  0  0  0  0  0  0
  154.0984  136.1905  157.7117 H   0  0  0  0  0  0  0  0  0  0  0  0
  154.6778  137.4870  156.7033 H   0  0  0  0  0  0  0  0  0  0  0  0
  152.5930  141.7159  157.4473 H   0  0  0  0  0  0  0  0  0  0  0  0
  151.9654  144.0893  157.6852 H   0  0  0  0  0  0  0  0  0  0  0  0
  152.4631  143.8114  161.9576 H   0  0  0  0  0  0  0  0  0  0  0  0
  153.0938  141.4320  161.7368 H   0  0  0  0  0  0  0  0  0  0  0  0
  1  2  2  0  0  0  0
  2 14  1  0  0  0  0
  2  3  1  0  0  0  0
  3  4  1  0  0  0  0
  3  5  2  0  0  0  0
  5  6  1  0  0  0  0
  5 28  1  0  0  0  0
  6  7  1  0  0  0  0
  6 12  1  0  0  0  0
  7 11  1  0  0  0  0
  7  8  1  0  0  0  0
  7 29  1  0  0  0  0
  8  9  1  0  0  0  0
  8 30  1  0  0  0  0
  8 31  1  0  0  0  0
  9 10  1  0  0  0  0
  9 32  1  0  0  0  0
  9 33  1  0  0  0  0
 10 11  1  0  0  0  0
 10 34  1  0  0  0  0
 10 35  1  0  0  0  0
 12 13  2  0  0  0  0
 12 14  1  0  0  0  0
 14 15  1  0  0  0  0
 15 16  1  0  0  0  0
 15 36  1  0  0  0  0
 15 37  1  0  0  0  0
 16 27  1  0  0  0  0
 16 17  2  0  0  0  0
 17 18  1  0  0  0  0
 18 19  2  0  0  0  0
 19 20  1  0  0  0  0
 19 27  1  0  0  0  0
 20 26  1  0  0  0  0
 20 21  2  0  0  0  0
 21 22  1  0  0  0  0
 21 38  1  0  0  0  0
 22 23  2  0  0  0  0
 22 39  1  0  0  0  0
 23 24  1  0  0  0  0
 23 25  1  0  0  0  0
 25 26  2  0  0  0  0
 25 40  1  0  0  0  0
 26 41  1  0  0  0  0
M  END
> <s_m_source_file>
AV-unprocessed.smi

> <i_m_source_file_index>
132

> <i_lp_mmshare_version>
43012

> <i_f3d_flags>
0

> <s_epik_input>
TzFbQ0gyXVtDSDJdW0NIMl1bQ0BIXTFuKFtjSF1jKEYpYzI9TyljKD1PKW4yW0NIMl1jM25uYyhvMyktYzRbY0hdW2NIXWMoQ2wpW2NIXVtjSF00

> <s_epik_cmdline>
J2VwaWtfcHl0aG9uJywgJy1waCcsICc3LjAnLCAnLXRuJywgJzgnLCAnLW1hJywgJzIwMCcsICctbWV0YWxfYmluZGluZycsICctaW1hZScsICc8aW5maWxlLm1hZT4nLCAnLW9tYWUnLCAnPG91dGZpbGUubWFlPic=

> <r_lp_tautomer_probability>
1

> <r_epik_Ionization_Penalty>
2.5553e-09

> <r_epik_Ionization_Penalty_Charging>
2.54231e-09

> <r_epik_Ionization_Penalty_Neutral>
1.29923e-11

> <r_epik_State_Penalty>
-0

> <r_epik_Charging_Adjusted_Penalty>
2.54231e-09

> <i_epik_Tot_Q>
0

> <i_epik_Tot_abs_Q>
0

> <r_epik_Metal_State_Penalty>
-0

> <b_epik_Metal_Only>
0

> <s_epik_Chemistry_Notes>
This compound contains an acetal/aminal-like group ( X-CH(R)-Y where X, Y are N, S, or O) that may be acid/base labile, releasing an aldehyde.

> <s_lp_Force_Field>
OPLS_2005

> <r_lp_Energy>
32.6339

> <b_lp_Chiralities_Consistent>
1

> <s_lp_Variant>
AV-unprocessed.smi:132-1

> <Gold.Version>
5.8.1

> <Gold.Id.Protein>
6NUR|6NUR_protein|mol2

> <Gold.PLP.Fitness>
54.1565

> <Gold.PLP.PLP>
-48.3909

> <Gold.PLP.part.hbond>
-3.0000

> <Gold.PLP.part.metal>
0.0000

> <Gold.PLP.part.buried>
-5.1815

> <Gold.PLP.part.nonpolar>
-37.9452

> <Gold.PLP.part.repulsive>
0.0998

> <Gold.PLP.ligand.clash>
0.0000

> <Gold.PLP.ligand.torsion>
0.2007

> <Gold.PLP.Chemscore.Hbond>
1.4560

> <Gold.PLP.Chemscore.CHOScore>
0.5964

> <Gold.PLP.Chemscore.Metal>
0.0000

> <Gold.Chemscore.Hbonds>
donor molecule, donor type, donor heavy atom, donor atom, acceptor molecule, acceptor atom, score
      P1  H  7997  8008       L1    27  0.88
      P1  H  7997  8009       L1     1  0.53
      L1  C     5    28       P1  7948  0.83

> <Gold.PLP.Chemscore.Internal.Correction>
0.0098

> <Gold.Rescore>
     Score         DG    S(hbond)    S(metal)    S(lipo)     H(rot)  DE(clash)    DE(int)     intcor
     13.34     -16.67       0.80        0.00     109.95       1.70       0.36       2.97       ----

> <Gold.Chemscore.Fitness>
13.3370

> <Gold.Chemscore.DG>
-16.6656

> <Gold.Chemscore.ZeroCoef>
-5.4800

> <Gold.Chemscore.Hbond>
0.7988

> <Gold.Chemscore.Metal>
0.0000

> <Gold.Chemscore.Lipo>
109.9519

> <Gold.Chemscore.Internal_Hbond>
0.0000

> <Gold.Chemscore.DEClash>
0.3606

> <Gold.Chemscore.DEInternal>
2.9679

> <Gold.Chemscore.Rot>
1.6980

> <Gold.Chemscore.Internal.Correction>
   9.000000E+99

> <Gold.Chemscore.Hbonds>
donor molecule, donor type, donor heavy atom, donor atom, acceptor molecule, acceptor atom, score
      P1  H  7997  8008       L1    27  0.14
      P1  H  7997  8009       L1     1  0.51

> <Gold.Chemscore.Hbond.Weighted>
-2.6681

> <Gold.Chemscore.Metal.Weighted>
-0.0000

> <Gold.Chemscore.Lipo.Weighted>
-12.8644

> <Gold.Chemscore.Internal_Hbond.Weighted>
0.0000

> <Gold.Chemscore.DEClash.Weighted>
0.3606

> <Gold.Chemscore.DEInternal.Weighted>
2.9679

> <Gold.Chemscore.Rot.Weighted>
4.3469

> <Gold.Chemscore.Internal.Correction.Weighted>
   9.000000E+99

> <Gold.Protein.RotatedTorsions>
[ 6907 6896 6895 6894 ] final  -95.79 input  -60.11 | X-H torsion
[ 7974 7965 7964 7962 ] final  -64.01 input  175.53 | X-H torsion
[ 8008 7997 7996 7995 ] final -109.73 input   59.86 | X-H torsion
[ 10167 10162 10161 10158 ] final   74.36 input  -65.29 | X-H torsion
[ 10718 10713 10712 10709 ] final -102.07 input   66.30 | X-H torsion
[ 10763 10752 10751 10750 ] final  -36.57 input  -60.55 | X-H torsion
[ 11005 11000 10999 10996 ] final -154.16 input  -57.11 | X-H torsion

> <Gold.Protein.ActiveResidues>
 VAL166  LYS551  ARG553  GLY616  TRP617  ASP618  TYR619  PRO620  LYS621  CYS622 
 ASP623  PHE694  ASN695  SER759  ASP760  ASP761  ALA762  ILE779  LEU786  VAL792 
 PHE793  MET794  SER795  GLU796  ALA797  LYS798  CYS799  TRP800  GLU811  SER814 

> <Gold.Protein.RotatedAtoms>
  150.6972  134.1604  159.4173 H   0  0  0  0  0  0  0  0  0  0  0  0  # atno 6907 bound_to 6896
  151.9584  135.0133  160.0555 H   0  0  0  0  0  0  0  0  0  0  0  0  # atno 6908 bound_to 6896
  152.1948  133.4764  159.5064 H   0  0  0  0  0  0  0  0  0  0  0  0  # atno 6909 bound_to 6896
  145.7720  140.8807  143.0375 H   0  0  0  0  0  0  0  0  0  0  0  0  # atno 7974 bound_to 7965
  154.9638  140.0398  157.2202 H   0  0  0  0  0  0  0  0  0  0  0  0  # atno 8008 bound_to 7997
  154.7865  140.2828  155.6002 H   0  0  0  0  0  0  0  0  0  0  0  0  # atno 8009 bound_to 7997
  156.2944  140.2581  156.2702 H   0  0  0  0  0  0  0  0  0  0  0  0  # atno 8010 bound_to 7997
  140.0146  144.5588  150.7631 H   0  0  0  0  0  0  0  0  0  0  0  0  # atno 10167 bound_to 10162
  156.0216  130.5403  150.7055 H   0  0  0  0  0  0  0  0  0  0  0  0  # atno 10718 bound_to 10713
  153.8819  135.6821  153.4766 H   0  0  0  0  0  0  0  0  0  0  0  0  # atno 10763 bound_to 10752
  153.1229  135.4732  154.9223 H   0  0  0  0  0  0  0  0  0  0  0  0  # atno 10764 bound_to 10752
  154.7665  135.3226  154.8228 H   0  0  0  0  0  0  0  0  0  0  0  0  # atno 10765 bound_to 10752
  140.7003  134.3944  157.5210 H   0  0  0  0  0  0  0  0  0  0  0  0  # atno 11005 bound_to 11000
  144.6811  139.9869  143.7484 LP  0  0  0  0  0  0  0  0  0  0  0  0  # atno 17320 bound_to 7965
  146.0160  139.3210  143.0841 LP  0  0  0  0  0  0  0  0  0  0  0  0  # atno 17321 bound_to 7965
  140.7368  143.2757  151.3750 LP  0  0  0  0  0  0  0  0  0  0  0  0  # atno 17342 bound_to 10162
  139.6182  144.0961  152.2365 LP  0  0  0  0  0  0  0  0  0  0  0  0  # atno 17343 bound_to 10162
  157.4706  131.0892  151.0647 LP  0  0  0  0  0  0  0  0  0  0  0  0  # atno 17370 bound_to 10713
  157.1108  130.6021  149.5481 LP  0  0  0  0  0  0  0  0  0  0  0  0  # atno 17371 bound_to 10713
  139.8898  134.8819  156.2399 LP  0  0  0  0  0  0  0  0  0  0  0  0  # atno 17394 bound_to 11000
  141.0169  133.7063  156.1203 LP  0  0  0  0  0  0  0  0  0  0  0  0  # atno 17395 bound_to 11000

$$$$
