AV-unprocessed.smi:1863|AV-procd|sdf|7550|dock7
  -GOLD-   22720 9263D 1   1.00000     0.00000
 Structure written by MMmdl.
 37 38  0  0  0  0  0  0  0  0  1 V2000
  149.2715  139.9195  153.9826 C   0  0  0  0  0  0  0  0  0  0  0  0
  148.1719  140.7872  154.6105 C   0  0  2  0  0  0  0  0  0  0  0  0
  147.2568  141.3966  153.5260 C   0  0  0  0  0  0  0  0  0  0  0  0
  146.2355  142.2765  154.0927 N   0  0  0  0  0  0  0  0  0  0  0  0
  145.9026  143.5360  153.4486 C   0  0  0  0  0  0  0  0  0  0  0  0
  144.6700  144.0523  154.2032 C   0  0  0  0  0  0  0  0  0  0  0  0
  144.6092  143.2400  155.5008 C   0  0  0  0  0  0  0  0  0  0  0  0
  145.5738  142.0952  155.2423 C   0  0  0  0  0  0  0  0  0  0  0  0
  145.7006  141.1436  156.0118 O   0  0  0  0  0  0  0  0  0  0  0  0
  148.8138  141.8402  155.3958 N   0  0  0  0  0  0  0  0  0  0  0  0
  149.7112  141.6481  156.3739 C   0  0  0  0  0  0  0  0  0  0  0  0
  150.1143  140.5378  156.7205 O   0  0  0  0  0  0  0  0  0  0  0  0
  150.0731  142.8145  156.9341 N   0  0  0  0  0  0  0  0  0  0  0  0
  150.9814  143.0316  158.0044 C   0  0  0  0  0  0  0  0  0  0  0  0
  151.2857  144.3628  158.3558 C   0  0  0  0  0  0  0  0  0  0  0  0
  152.1959  144.6050  159.4022 C   0  0  0  0  0  0  0  0  0  0  0  0
  152.7774  143.4998  160.0529 C   0  0  0  0  0  0  0  0  0  0  0  0
  152.5103  142.2196  159.7191 N   0  0  0  0  0  0  0  0  0  0  0  0
  151.6339  141.9945  158.7161 C   0  0  0  0  0  0  0  0  0  0  0  0
  148.8427  139.0967  153.4097 H   0  0  0  0  0  0  0  0  0  0  0  0
  149.9143  139.4840  154.7485 H   0  0  0  0  0  0  0  0  0  0  0  0
  149.9020  140.5011  153.3088 H   0  0  0  0  0  0  0  0  0  0  0  0
  147.5771  140.1356  155.2532 H   0  0  0  0  0  0  0  0  0  0  0  0
  147.8452  141.9248  152.7735 H   0  0  0  0  0  0  0  0  0  0  0  0
  146.7416  140.5971  152.9916 H   0  0  0  0  0  0  0  0  0  0  0  0
  146.7415  144.2255  153.5516 H   0  0  0  0  0  0  0  0  0  0  0  0
  145.6985  143.4005  152.3857 H   0  0  0  0  0  0  0  0  0  0  0  0
  144.7307  145.1245  154.3922 H   0  0  0  0  0  0  0  0  0  0  0  0
  143.7695  143.8725  153.6142 H   0  0  0  0  0  0  0  0  0  0  0  0
  144.9589  143.8234  156.3530 H   0  0  0  0  0  0  0  0  0  0  0  0
  143.6038  142.8747  155.7125 H   0  0  0  0  0  0  0  0  0  0  0  0
  148.5357  142.7887  155.1907 H   0  0  0  0  0  0  0  0  0  0  0  0
  149.5879  143.6356  156.6031 H   0  0  0  0  0  0  0  0  0  0  0  0
  150.8248  145.1901  157.8359 H   0  0  0  0  0  0  0  0  0  0  0  0
  152.4422  145.6137  159.6988 H   0  0  0  0  0  0  0  0  0  0  0  0
  153.4802  143.6477  160.8594 H   0  0  0  0  0  0  0  0  0  0  0  0
  151.4802  140.9538  158.4774 H   0  0  0  0  0  0  0  0  0  0  0  0
  1  2  1  0  0  0  0
  1 20  1  0  0  0  0
  1 21  1  0  0  0  0
  1 22  1  0  0  0  0
  2  3  1  0  0  0  0
  2 10  1  0  0  0  0
  2 23  1  0  0  0  0
  3  4  1  0  0  0  0
  3 24  1  0  0  0  0
  3 25  1  0  0  0  0
  4  8  1  0  0  0  0
  4  5  1  0  0  0  0
  5  6  1  0  0  0  0
  5 26  1  0  0  0  0
  5 27  1  0  0  0  0
  6  7  1  0  0  0  0
  6 28  1  0  0  0  0
  6 29  1  0  0  0  0
  7  8  1  0  0  0  0
  7 30  1  0  0  0  0
  7 31  1  0  0  0  0
  8  9  2  0  0  0  0
 10 11  1  0  0  0  0
 10 32  1  0  0  0  0
 11 12  2  0  0  0  0
 11 13  1  0  0  0  0
 13 14  1  0  0  0  0
 13 33  1  0  0  0  0
 14 19  1  0  0  0  0
 14 15  2  0  0  0  0
 15 16  1  0  0  0  0
 15 34  1  0  0  0  0
 16 17  2  0  0  0  0
 16 35  1  0  0  0  0
 17 18  1  0  0  0  0
 17 36  1  0  0  0  0
 18 19  2  0  0  0  0
 19 37  1  0  0  0  0
M  END
> <s_m_source_file>
AV-unprocessed.smi

> <i_m_source_file_index>
1863

> <i_lp_mmshare_version>
43012

> <i_f3d_flags>
0

> <s_epik_input>
Tz1DMVtDSDJdW0NIMl1bQ0gyXU4xW0NIMl1bQ0BASF0oW0NIM10pW05IXUMoPU8pW05IXWMyW2NIXVtjSF1bY0hdbltjSF0y

> <s_epik_cmdline>
J2VwaWtfcHl0aG9uJywgJy1waCcsICc3LjAnLCAnLXRuJywgJzgnLCAnLW1hJywgJzIwMCcsICctbWV0YWxfYmluZGluZycsICctaW1hZScsICc8aW5maWxlLm1hZT4nLCAnLW9tYWUnLCAnPG91dGZpbGUubWFlPic=

> <r_epik_Ionization_Penalty>
0.0047799

> <r_epik_Ionization_Penalty_Charging>
0

> <r_epik_Ionization_Penalty_Neutral>
0.0047799

> <r_epik_State_Penalty>
0.0034394

> <r_epik_Charging_Adjusted_Penalty>
0.0034394

> <i_epik_Tot_Q>
0

> <i_epik_Tot_abs_Q>
0

> <r_epik_Metal_State_Penalty>
-0

> <b_epik_Metal_Only>
0

> <s_lp_Force_Field>
OPLS_2005

> <r_lp_Energy>
22.2943

> <b_lp_Chiralities_Consistent>
1

> <s_lp_Variant>
AV-unprocessed.smi:1863-1

> <Gold.Version>
5.8.1

> <Gold.Id.Protein>
6NUR|6NUR_protein|mol2

> <Gold.PLP.Fitness>
46.1026

> <Gold.PLP.PLP>
-40.9712

> <Gold.PLP.part.hbond>
-2.0000

> <Gold.PLP.part.metal>
0.0000

> <Gold.PLP.part.buried>
-4.4678

> <Gold.PLP.part.nonpolar>
-34.2861

> <Gold.PLP.part.repulsive>
0.2511

> <Gold.PLP.ligand.clash>
0.0000

> <Gold.PLP.ligand.torsion>
0.3116

> <Gold.PLP.Chemscore.Hbond>
1.9120

> <Gold.PLP.Chemscore.CHOScore>
0.0000

> <Gold.PLP.Chemscore.Metal>
0.0000

> <Gold.Chemscore.Hbonds>
donor molecule, donor type, donor heavy atom, donor atom, acceptor molecule, acceptor atom, score
      L1  H    10    32       P1  8028  0.90
      L1  H    13    33       P1  8028  1.00

> <Gold.PLP.Chemscore.Internal.Correction>
0.0186

> <Gold.Rescore>
     Score         DG    S(hbond)    S(metal)    S(lipo)     H(rot)  DE(clash)    DE(int)     intcor
     15.11     -18.95       1.90        0.00      94.74       1.54       0.33       3.51       ----

> <Gold.Chemscore.Fitness>
15.1095

> <Gold.Chemscore.DG>
-18.9467

> <Gold.Chemscore.ZeroCoef>
-5.4800

> <Gold.Chemscore.Hbond>
1.8956

> <Gold.Chemscore.Metal>
0.0000

> <Gold.Chemscore.Lipo>
94.7449

> <Gold.Chemscore.Internal_Hbond>
0.0000

> <Gold.Chemscore.DEClash>
0.3319

> <Gold.Chemscore.DEInternal>
3.5053

> <Gold.Chemscore.Rot>
1.5428

> <Gold.Chemscore.Internal.Correction>
   9.000000E+99

> <Gold.Chemscore.Hbonds>
donor molecule, donor type, donor heavy atom, donor atom, acceptor molecule, acceptor atom, score
      L1  H    10    32       P1  8028  0.85
      L1  H    13    33       P1  8028  0.98

> <Gold.Chemscore.Hbond.Weighted>
-6.3312

> <Gold.Chemscore.Metal.Weighted>
-0.0000

> <Gold.Chemscore.Lipo.Weighted>
-11.0852

> <Gold.Chemscore.Internal_Hbond.Weighted>
0.0000

> <Gold.Chemscore.DEClash.Weighted>
0.3319

> <Gold.Chemscore.DEInternal.Weighted>
3.5053

> <Gold.Chemscore.Rot.Weighted>
3.9497

> <Gold.Chemscore.Internal.Correction.Weighted>
   9.000000E+99

> <Gold.Protein.RotatedTorsions>
[ 6907 6896 6895 6894 ] final -162.95 input  -60.11 | X-H torsion
[ 7974 7965 7964 7962 ] final   89.77 input  175.53 | X-H torsion
[ 8008 7997 7996 7995 ] final  -42.88 input   59.86 | X-H torsion
[ 10167 10162 10161 10158 ] final  146.84 input  -65.29 | X-H torsion
[ 10718 10713 10712 10709 ] final -121.41 input   66.30 | X-H torsion
[ 10763 10752 10751 10750 ] final   24.95 input  -60.55 | X-H torsion
[ 11005 11000 10999 10996 ] final -146.60 input  -57.11 | X-H torsion

> <Gold.Protein.ActiveResidues>
 VAL166  LYS551  ARG553  GLY616  TRP617  ASP618  TYR619  PRO620  LYS621  CYS622 
 ASP623  PHE694  ASN695  SER759  ASP760  ASP761  ALA762  ILE779  LEU786  VAL792 
 PHE793  MET794  SER795  GLU796  ALA797  LYS798  CYS799  TRP800  GLU811  SER814 

> <Gold.Protein.RotatedAtoms>
  151.3884  133.3797  159.2717 H   0  0  0  0  0  0  0  0  0  0  0  0  # atno 6907 bound_to 6896
  150.9524  134.8923  159.7691 H   0  0  0  0  0  0  0  0  0  0  0  0  # atno 6908 bound_to 6896
  152.5117  134.3840  159.9413 H   0  0  0  0  0  0  0  0  0  0  0  0  # atno 6909 bound_to 6896
  145.5280  139.2282  143.2635 H   0  0  0  0  0  0  0  0  0  0  0  0  # atno 7974 bound_to 7965
  154.3998  140.1462  156.3427 H   0  0  0  0  0  0  0  0  0  0  0  0  # atno 8008 bound_to 7997
  155.8341  140.3464  155.5570 H   0  0  0  0  0  0  0  0  0  0  0  0  # atno 8009 bound_to 7997
  155.8156  140.0890  157.1869 H   0  0  0  0  0  0  0  0  0  0  0  0  # atno 8010 bound_to 7997
  139.4900  144.5800  151.6891 H   0  0  0  0  0  0  0  0  0  0  0  0  # atno 10167 bound_to 10162
  156.1335  130.6413  150.9659 H   0  0  0  0  0  0  0  0  0  0  0  0  # atno 10718 bound_to 10713
  153.0726  135.6594  154.0214 H   0  0  0  0  0  0  0  0  0  0  0  0  # atno 10763 bound_to 10752
  153.9855  135.2951  155.3418 H   0  0  0  0  0  0  0  0  0  0  0  0  # atno 10764 bound_to 10752
  154.7106  135.5207  153.8730 H   0  0  0  0  0  0  0  0  0  0  0  0  # atno 10765 bound_to 10752
  140.7803  134.3086  157.5047 H   0  0  0  0  0  0  0  0  0  0  0  0  # atno 11005 bound_to 11000
  146.2063  140.6095  142.9080 LP  0  0  0  0  0  0  0  0  0  0  0  0  # atno 17320 bound_to 7965
  144.7641  140.5490  143.6715 LP  0  0  0  0  0  0  0  0  0  0  0  0  # atno 17321 bound_to 7965
  140.5404  144.0589  150.6086 LP  0  0  0  0  0  0  0  0  0  0  0  0  # atno 17342 bound_to 10162
  140.3609  143.2909  152.0385 LP  0  0  0  0  0  0  0  0  0  0  0  0  # atno 17343 bound_to 10162
  157.6510  131.0897  150.8050 LP  0  0  0  0  0  0  0  0  0  0  0  0  # atno 17370 bound_to 10713
  156.8133  130.4959  149.5353 LP  0  0  0  0  0  0  0  0  0  0  0  0  # atno 17371 bound_to 10713
  139.8743  134.9314  156.3528 LP  0  0  0  0  0  0  0  0  0  0  0  0  # atno 17394 bound_to 11000
  140.9488  133.7465  156.0244 LP  0  0  0  0  0  0  0  0  0  0  0  0  # atno 17395 bound_to 11000

$$$$
