AV-unprocessed.smi:1433|AV-procd|sdf|5836|dock7
  -GOLD-   22720 5493D 1   1.00000     0.00000
 Structure written by MMmdl.
 44 45  0  0  0  0  0  0  0  0  1 V2000
  151.7864  145.2316  159.2248 C   0  0  0  0  0  0  0  0  0  0  0  0
  151.7391  143.9423  160.0514 C   0  0  1  0  0  0  0  0  0  0  0  0
  152.2783  142.7293  159.2697 C   0  0  0  0  0  0  0  0  0  0  0  0
  152.3098  141.5003  160.0701 N   0  0  0  0  0  0  0  0  0  0  0  0
  152.8452  140.3438  159.3143 C   0  0  2  0  0  0  0  0  0  0  0  0
  154.3842  140.2018  159.4471 C   0  0  0  0  0  0  0  0  0  0  0  0
  152.4718  140.3695  157.8063 C   0  0  0  0  0  0  0  0  0  0  0  0
  151.0661  140.0555  157.5824 N   0  0  0  0  0  0  0  0  0  0  0  0
  150.4548  140.0626  156.3890 C   0  0  0  0  0  0  0  0  0  0  0  0
  151.0130  140.3890  155.3420 O   0  0  0  0  0  0  0  0  0  0  0  0
  148.9865  139.6337  156.3744 C   0  0  0  0  0  0  0  0  0  0  0  0
  148.2533  140.3005  155.3117 N   0  0  0  0  0  0  0  0  0  0  0  0
  148.3499  141.6130  154.8981 C   0  0  0  0  0  0  0  0  0  0  0  0
  147.4779  141.7773  153.8604 C   0  0  0  0  0  0  0  0  0  0  0  0
  146.8864  140.4921  153.7088 C   0  0  0  0  0  0  0  0  0  0  0  0
  147.3517  139.6103  154.5788 N   0  0  0  0  0  0  0  0  0  0  0  0
  153.0681  141.7793  161.2944 C   0  0  0  0  0  0  0  0  0  0  0  0
  152.5282  142.9952  162.0714 C   0  0  1  0  0  0  0  0  0  0  0  0
  153.3791  143.3191  163.3040 C   0  0  0  0  0  0  0  0  0  0  0  0
  152.5287  144.1327  161.2185 O   0  0  0  0  0  0  0  0  0  0  0  0
  151.1837  145.1409  158.3207 H   0  0  0  0  0  0  0  0  0  0  0  0
  152.8068  145.4712  158.9243 H   0  0  0  0  0  0  0  0  0  0  0  0
  151.4010  146.0754  159.7976 H   0  0  0  0  0  0  0  0  0  0  0  0
  150.7054  143.7559  160.3480 H   0  0  0  0  0  0  0  0  0  0  0  0
  151.6373  142.6015  158.3994 H   0  0  0  0  0  0  0  0  0  0  0  0
  153.2795  142.9512  158.8964 H   0  0  0  0  0  0  0  0  0  0  0  0
  152.4060  139.4371  159.7339 H   0  0  0  0  0  0  0  0  0  0  0  0
  154.7836  139.3826  158.8498 H   0  0  0  0  0  0  0  0  0  0  0  0
  154.6925  139.9802  160.4678 H   0  0  0  0  0  0  0  0  0  0  0  0
  154.8922  141.1134  159.1310 H   0  0  0  0  0  0  0  0  0  0  0  0
  152.6239  141.3548  157.3689 H   0  0  0  0  0  0  0  0  0  0  0  0
  153.1058  139.6710  157.2575 H   0  0  0  0  0  0  0  0  0  0  0  0
  150.5265  139.7742  158.3886 H   0  0  0  0  0  0  0  0  0  0  0  0
  148.9171  138.5523  156.2454 H   0  0  0  0  0  0  0  0  0  0  0  0
  148.5158  139.8748  157.3284 H   0  0  0  0  0  0  0  0  0  0  0  0
  149.0258  142.3107  155.3706 H   0  0  0  0  0  0  0  0  0  0  0  0
  147.2921  142.6787  153.2954 H   0  0  0  0  0  0  0  0  0  0  0  0
  146.1380  140.1760  152.9974 H   0  0  0  0  0  0  0  0  0  0  0  0
  153.0270  140.9298  161.9727 H   0  0  0  0  0  0  0  0  0  0  0  0
  154.1188  141.9394  161.0483 H   0  0  0  0  0  0  0  0  0  0  0  0
  151.5055  142.7956  162.3962 H   0  0  0  0  0  0  0  0  0  0  0  0
  153.4018  142.4782  163.9975 H   0  0  0  0  0  0  0  0  0  0  0  0
  152.9773  144.1800  163.8393 H   0  0  0  0  0  0  0  0  0  0  0  0
  154.4071  143.5510  163.0241 H   0  0  0  0  0  0  0  0  0  0  0  0
  1  2  1  0  0  0  0
  1 21  1  0  0  0  0
  1 22  1  0  0  0  0
  1 23  1  0  0  0  0
  2 20  1  0  0  0  0
  2  3  1  0  0  0  0
  2 24  1  0  0  0  0
  3  4  1  0  0  0  0
  3 25  1  0  0  0  0
  3 26  1  0  0  0  0
  4  5  1  0  0  0  0
  4 17  1  0  0  0  0
  5  6  1  0  0  0  0
  5  7  1  0  0  0  0
  5 27  1  0  0  0  0
  6 28  1  0  0  0  0
  6 29  1  0  0  0  0
  6 30  1  0  0  0  0
  7  8  1  0  0  0  0
  7 31  1  0  0  0  0
  7 32  1  0  0  0  0
  8  9  1  0  0  0  0
  8 33  1  0  0  0  0
  9 10  2  0  0  0  0
  9 11  1  0  0  0  0
 11 12  1  0  0  0  0
 11 34  1  0  0  0  0
 11 35  1  0  0  0  0
 12 16  1  0  0  0  0
 12 13  1  0  0  0  0
 13 14  2  0  0  0  0
 13 36  1  0  0  0  0
 14 15  1  0  0  0  0
 14 37  1  0  0  0  0
 15 16  2  0  0  0  0
 15 38  1  0  0  0  0
 17 18  1  0  0  0  0
 17 39  1  0  0  0  0
 17 40  1  0  0  0  0
 18 19  1  0  0  0  0
 18 20  1  0  0  0  0
 18 41  1  0  0  0  0
 19 42  1  0  0  0  0
 19 43  1  0  0  0  0
 19 44  1  0  0  0  0
M  END
> <s_m_source_file>
AV-unprocessed.smi

> <i_m_source_file_index>
1433

> <i_lp_mmshare_version>
43012

> <i_f3d_flags>
0

> <s_epik_input>
W0NIM11bQ0BASF0xW0NIMl1OKFtDSDJdW0NASF0oTzEpW0NIM10pW0NASF0oW0NIM10pW0NIMl1bTkhdQyg9TylbQ0gyXW4yW2NIXVtjSF1bY0hdbjI=

> <s_epik_cmdline>
J2VwaWtfcHl0aG9uJywgJy1waCcsICc3LjAnLCAnLXRuJywgJzgnLCAnLW1hJywgJzIwMCcsICctbWV0YWxfYmluZGluZycsICctaW1hZScsICc8aW5maWxlLm1hZT4nLCAnLW9tYWUnLCAnPG91dGZpbGUubWFlPic=

> <r_lp_tautomer_probability>
1

> <r_epik_Ionization_Penalty>
0.196927

> <r_epik_Ionization_Penalty_Charging>
0

> <r_epik_Ionization_Penalty_Neutral>
0.196927

> <r_epik_State_Penalty>
0.186684

> <r_epik_Charging_Adjusted_Penalty>
0.186684

> <i_epik_Tot_Q>
0

> <i_epik_Tot_abs_Q>
0

> <r_epik_Metal_State_Penalty>
0.186682

> <b_epik_Metal_Only>
0

> <s_lp_Force_Field>
OPLS_2005

> <r_lp_Energy>
26.9477

> <b_lp_Chiralities_Consistent>
1

> <s_lp_Variant>
AV-unprocessed.smi:1433-2

> <Gold.Version>
5.8.1

> <Gold.Id.Protein>
6NUR|6NUR_protein|mol2

> <Gold.PLP.Fitness>
44.3280

> <Gold.PLP.PLP>
-38.1619

> <Gold.PLP.part.hbond>
-1.0000

> <Gold.PLP.part.metal>
0.0000

> <Gold.PLP.part.buried>
-2.0943

> <Gold.PLP.part.nonpolar>
-34.1300

> <Gold.PLP.part.repulsive>
0.3033

> <Gold.PLP.ligand.clash>
0.0000

> <Gold.PLP.ligand.torsion>
1.3889

> <Gold.PLP.Chemscore.Hbond>
1.0000

> <Gold.PLP.Chemscore.CHOScore>
1.9674

> <Gold.PLP.Chemscore.Metal>
0.0000

> <Gold.Chemscore.Hbonds>
donor molecule, donor type, donor heavy atom, donor atom, acceptor molecule, acceptor atom, score
      P1  H  7989  7998       L1    10  1.00
      L1  C    13    36       P1  8028  1.00
      L1  C    15    38       P1 10175  1.00

> <Gold.PLP.Chemscore.Internal.Correction>
0.0417

> <Gold.Rescore>
     Score         DG    S(hbond)    S(metal)    S(lipo)     H(rot)  DE(clash)    DE(int)     intcor
     16.41     -17.66       0.96        0.00     116.25       1.80       0.12       1.14       ----

> <Gold.Chemscore.Fitness>
16.4108

> <Gold.Chemscore.DG>
-17.6623

> <Gold.Chemscore.ZeroCoef>
-5.4800

> <Gold.Chemscore.Hbond>
0.9576

> <Gold.Chemscore.Metal>
0.0000

> <Gold.Chemscore.Lipo>
116.2546

> <Gold.Chemscore.Internal_Hbond>
0.0000

> <Gold.Chemscore.DEClash>
0.1164

> <Gold.Chemscore.DEInternal>
1.1351

> <Gold.Chemscore.Rot>
1.8038

> <Gold.Chemscore.Internal.Correction>
   9.000000E+99

> <Gold.Chemscore.Hbonds>
donor molecule, donor type, donor heavy atom, donor atom, acceptor molecule, acceptor atom, score
      P1  H  7989  7998       L1    10  0.92

> <Gold.Chemscore.Hbond.Weighted>
-3.1983

> <Gold.Chemscore.Metal.Weighted>
-0.0000

> <Gold.Chemscore.Lipo.Weighted>
-13.6018

> <Gold.Chemscore.Internal_Hbond.Weighted>
0.0000

> <Gold.Chemscore.DEClash.Weighted>
0.1164

> <Gold.Chemscore.DEInternal.Weighted>
1.1351

> <Gold.Chemscore.Rot.Weighted>
4.6178

> <Gold.Chemscore.Internal.Correction.Weighted>
   9.000000E+99

> <Gold.Protein.RotatedTorsions>
[ 6907 6896 6895 6894 ] final  112.72 input  -60.11 | X-H torsion
[ 7974 7965 7964 7962 ] final  -81.52 input  175.53 | X-H torsion
[ 8008 7997 7996 7995 ] final   63.96 input   59.86 | X-H torsion
[ 10167 10162 10161 10158 ] final  -82.36 input  -65.29 | X-H torsion
[ 10718 10713 10712 10709 ] final   68.24 input   66.30 | X-H torsion
[ 10763 10752 10751 10750 ] final  177.16 input  -60.55 | X-H torsion
[ 11005 11000 10999 10996 ] final   36.66 input  -57.11 | X-H torsion

> <Gold.Protein.ActiveResidues>
 VAL166  LYS551  ARG553  GLY616  TRP617  ASP618  TYR619  PRO620  LYS621  CYS622 
 ASP623  PHE694  ASN695  SER759  ASP760  ASP761  ALA762  ILE779  LEU786  VAL792 
 PHE793  MET794  SER795  GLU796  ALA797  LYS798  CYS799  TRP800  GLU811  SER814 

> <Gold.Protein.RotatedAtoms>
  152.4900  133.8476  159.7184 H   0  0  0  0  0  0  0  0  0  0  0  0  # atno 6907 bound_to 6896
  150.9022  133.7095  159.2883 H   0  0  0  0  0  0  0  0  0  0  0  0  # atno 6908 bound_to 6896
  151.4532  135.1036  159.9756 H   0  0  0  0  0  0  0  0  0  0  0  0  # atno 6909 bound_to 6896
  145.5456  140.9504  143.1527 H   0  0  0  0  0  0  0  0  0  0  0  0  # atno 7974 bound_to 7965
  155.6384  140.3496  155.4706 H   0  0  0  0  0  0  0  0  0  0  0  0  # atno 8008 bound_to 7997
  155.9946  140.1200  157.0629 H   0  0  0  0  0  0  0  0  0  0  0  0  # atno 8009 bound_to 7997
  154.4229  140.1112  156.5599 H   0  0  0  0  0  0  0  0  0  0  0  0  # atno 8010 bound_to 7997
  140.4326  143.2543  151.8737 H   0  0  0  0  0  0  0  0  0  0  0  0  # atno 10167 bound_to 10162
  157.6278  130.9363  150.0350 H   0  0  0  0  0  0  0  0  0  0  0  0  # atno 10718 bound_to 10713
  154.4908  135.2779  155.1498 H   0  0  0  0  0  0  0  0  0  0  0  0  # atno 10763 bound_to 10752
  154.3170  135.6217  153.5494 H   0  0  0  0  0  0  0  0  0  0  0  0  # atno 10764 bound_to 10752
  152.9888  135.5733  154.5329 H   0  0  0  0  0  0  0  0  0  0  0  0  # atno 10765 bound_to 10752
  140.2303  134.3535  155.7967 H   0  0  0  0  0  0  0  0  0  0  0  0  # atno 11005 bound_to 11000
  144.7555  139.7086  143.7256 LP  0  0  0  0  0  0  0  0  0  0  0  0  # atno 17320 bound_to 7965
  146.1952  139.5214  142.9779 LP  0  0  0  0  0  0  0  0  0  0  0  0  # atno 17321 bound_to 7965
  139.4785  144.5317  151.8656 LP  0  0  0  0  0  0  0  0  0  0  0  0  # atno 17342 bound_to 10162
  140.4409  144.1987  150.5891 LP  0  0  0  0  0  0  0  0  0  0  0  0  # atno 17343 bound_to 10162
  156.1460  130.3642  149.9509 LP  0  0  0  0  0  0  0  0  0  0  0  0  # atno 17370 bound_to 10713
  156.7539  130.9126  151.3638 LP  0  0  0  0  0  0  0  0  0  0  0  0  # atno 17371 bound_to 10713
  141.2218  133.7242  156.8721 LP  0  0  0  0  0  0  0  0  0  0  0  0  # atno 17394 bound_to 11000
  140.1757  134.9068  157.2888 LP  0  0  0  0  0  0  0  0  0  0  0  0  # atno 17395 bound_to 11000

$$$$
