AV-unprocessed.smi:662|AV-procd|sdf|3246|dock7
  -GOLD-   22720 0193D 1   1.00000     0.00000
 Structure written by MMmdl.
 33 34  0  0  0  0  0  0  0  0  1 V2000
  144.3583  136.6703  151.7489 O   0  0  0  0  0  0  0  0  0  0  0  0
  145.4920  136.2645  151.4900 C   0  0  0  0  0  0  0  0  0  0  0  0
  146.5807  137.0498  151.5109 N   0  0  0  0  0  0  0  0  0  0  0  0
  146.5980  138.4699  151.8524 C   0  0  0  0  0  0  0  0  0  0  0  0
  146.3745  138.7189  153.3567 C   0  0  0  0  0  0  0  0  0  0  0  0
  147.3921  139.6157  153.9857 C   0  0  0  0  0  0  0  0  0  0  0  0
  148.3726  139.1707  154.7752 N   0  0  0  0  0  0  0  0  0  0  0  0
  149.2302  140.1905  155.2022 C   0  0  0  0  0  0  0  0  0  0  0  0
  150.3936  139.8625  156.0929 C   0  0  0  0  0  0  0  0  0  0  0  0
  150.0048  139.2043  157.1853 F   0  0  0  0  0  0  0  0  0  0  0  0
  151.2837  139.0988  155.4602 F   0  0  0  0  0  0  0  0  0  0  0  0
  151.0189  140.9692  156.4932 F   0  0  0  0  0  0  0  0  0  0  0  0
  148.8759  141.4270  154.7194 C   0  0  0  0  0  0  0  0  0  0  0  0
  147.4588  141.3529  153.7095 S   0  0  0  0  0  0  0  0  0  0  0  0
  145.7222  134.7930  151.1286 C   0  0  1  0  0  0  0  0  0  0  0  0
  145.1288  133.8244  152.1658 C   0  0  0  0  0  0  0  0  0  0  0  0
  144.3071  132.8472  151.3341 C   0  0  0  0  0  0  0  0  0  0  0  0
  144.8476  133.0253  149.9172 C   0  0  0  0  0  0  0  0  0  0  0  0
  145.1169  134.4509  149.8354 N   0  0  0  0  0  0  0  0  0  0  0  0
  147.4690  136.6276  151.2826 H   0  0  0  0  0  0  0  0  0  0  0  0
  147.5678  138.8721  151.5598 H   0  0  0  0  0  0  0  0  0  0  0  0
  145.8560  139.0169  151.2682 H   0  0  0  0  0  0  0  0  0  0  0  0
  145.3876  139.1550  153.5147 H   0  0  0  0  0  0  0  0  0  0  0  0
  146.3758  137.7674  153.8893 H   0  0  0  0  0  0  0  0  0  0  0  0
  149.3644  142.3738  154.8940 H   0  0  0  0  0  0  0  0  0  0  0  0
  146.7944  134.6011  151.0536 H   0  0  0  0  0  0  0  0  0  0  0  0
  145.9301  133.3035  152.6911 H   0  0  0  0  0  0  0  0  0  0  0  0
  144.5081  134.3124  152.9194 H   0  0  0  0  0  0  0  0  0  0  0  0
  144.3899  131.8194  151.6883 H   0  0  0  0  0  0  0  0  0  0  0  0
  143.2535  133.1280  151.3662 H   0  0  0  0  0  0  0  0  0  0  0  0
  145.7775  132.4700  149.7850 H   0  0  0  0  0  0  0  0  0  0  0  0
  144.1417  132.7038  149.1511 H   0  0  0  0  0  0  0  0  0  0  0  0
  145.7110  134.6756  149.0502 H   0  0  0  0  0  0  0  0  0  0  0  0
  1  2  2  0  0  0  0
  2  3  1  0  0  0  0
  2 15  1  0  0  0  0
  3  4  1  0  0  0  0
  3 20  1  0  0  0  0
  4  5  1  0  0  0  0
  4 21  1  0  0  0  0
  4 22  1  0  0  0  0
  5  6  1  0  0  0  0
  5 23  1  0  0  0  0
  5 24  1  0  0  0  0
  6 14  1  0  0  0  0
  6  7  2  0  0  0  0
  7  8  1  0  0  0  0
  8  9  1  0  0  0  0
  8 13  2  0  0  0  0
  9 10  1  0  0  0  0
  9 11  1  0  0  0  0
  9 12  1  0  0  0  0
 13 14  1  0  0  0  0
 13 25  1  0  0  0  0
 15 19  1  0  0  0  0
 15 16  1  0  0  0  0
 15 26  1  0  0  0  0
 16 17  1  0  0  0  0
 16 27  1  0  0  0  0
 16 28  1  0  0  0  0
 17 18  1  0  0  0  0
 17 29  1  0  0  0  0
 17 30  1  0  0  0  0
 18 19  1  0  0  0  0
 18 31  1  0  0  0  0
 18 32  1  0  0  0  0
 19 33  1  0  0  0  0
M  END
> <s_m_source_file>
AV-unprocessed.smi

> <i_m_source_file_index>
662

> <i_lp_mmshare_version>
43012

> <i_f3d_flags>
0

> <s_epik_input>
W05IXTFbQ0gyXVtDSDJdW0NIMl1bQ0BIXTFDKD1PKVtOSF1bQ0gyXVtDSDJdYzJuYyhDKEYpKEYpRilbY0hdczI=

> <s_epik_cmdline>
J2VwaWtfcHl0aG9uJywgJy1waCcsICc3LjAnLCAnLXRuJywgJzgnLCAnLW1hJywgJzIwMCcsICctbWV0YWxfYmluZGluZycsICctaW1hZScsICc8aW5maWxlLm1hZT4nLCAnLW9tYWUnLCAnPG91dGZpbGUubWFlPic=

> <r_epik_Ionization_Penalty>
1.64272

> <r_epik_Ionization_Penalty_Charging>
0

> <r_epik_Ionization_Penalty_Neutral>
1.64272

> <r_epik_State_Penalty>
1.74416

> <r_epik_Charging_Adjusted_Penalty>
1.74416

> <i_epik_Tot_Q>
0

> <i_epik_Tot_abs_Q>
0

> <r_epik_Metal_State_Penalty>
1.74416

> <b_epik_Metal_Only>
0

> <s_lp_Force_Field>
OPLS_2005

> <r_lp_Energy>
17.8155

> <b_lp_Chiralities_Consistent>
1

> <s_lp_Variant>
AV-unprocessed.smi:662-4

> <Gold.Version>
5.8.1

> <Gold.Id.Protein>
6NUR|6NUR_protein|mol2

> <Gold.PLP.Fitness>
43.7749

> <Gold.PLP.PLP>
-36.8452

> <Gold.PLP.part.hbond>
-2.0000

> <Gold.PLP.part.metal>
0.0000

> <Gold.PLP.part.buried>
-6.2613

> <Gold.PLP.part.nonpolar>
-30.2682

> <Gold.PLP.part.repulsive>
1.2873

> <Gold.PLP.ligand.clash>
0.0000

> <Gold.PLP.ligand.torsion>
0.7940

> <Gold.PLP.Chemscore.Hbond>
1.8320

> <Gold.PLP.Chemscore.CHOScore>
1.0000

> <Gold.PLP.Chemscore.Metal>
0.0000

> <Gold.Chemscore.Hbonds>
donor molecule, donor type, donor heavy atom, donor atom, acceptor molecule, acceptor atom, score
      L1  H     3    20       P1  7948  0.94
      L1  H    19    33       P1  7921  0.88
      L1  C    13    25       P1  8028  1.00

> <Gold.PLP.Chemscore.Internal.Correction>
0.0217

> <Gold.Rescore>
     Score         DG    S(hbond)    S(metal)    S(lipo)     H(rot)  DE(clash)    DE(int)     intcor
     14.04     -15.14       1.92        0.00      69.51       1.91       0.11       0.99       ----

> <Gold.Chemscore.Fitness>
14.0438

> <Gold.Chemscore.DG>
-15.1437

> <Gold.Chemscore.ZeroCoef>
-5.4800

> <Gold.Chemscore.Hbond>
1.9219

> <Gold.Chemscore.Metal>
0.0000

> <Gold.Chemscore.Lipo>
69.5117

> <Gold.Chemscore.Internal_Hbond>
0.0000

> <Gold.Chemscore.DEClash>
0.1109

> <Gold.Chemscore.DEInternal>
0.9889

> <Gold.Chemscore.Rot>
1.9095

> <Gold.Chemscore.Internal.Correction>
   9.000000E+99

> <Gold.Chemscore.Hbonds>
donor molecule, donor type, donor heavy atom, donor atom, acceptor molecule, acceptor atom, score
      L1  H     3    20       P1  7948  0.89
      L1  H    19    33       P1  7921  0.81

> <Gold.Chemscore.Hbond.Weighted>
-6.4191

> <Gold.Chemscore.Metal.Weighted>
-0.0000

> <Gold.Chemscore.Lipo.Weighted>
-8.1329

> <Gold.Chemscore.Internal_Hbond.Weighted>
0.0000

> <Gold.Chemscore.DEClash.Weighted>
0.1109

> <Gold.Chemscore.DEInternal.Weighted>
0.9889

> <Gold.Chemscore.Rot.Weighted>
4.8883

> <Gold.Chemscore.Internal.Correction.Weighted>
   9.000000E+99

> <Gold.Protein.RotatedTorsions>
[ 6907 6896 6895 6894 ] final   97.77 input  -60.11 | X-H torsion
[ 7974 7965 7964 7962 ] final  161.88 input  175.53 | X-H torsion
[ 8008 7997 7996 7995 ] final  -13.95 input   59.86 | X-H torsion
[ 10167 10162 10161 10158 ] final -140.57 input  -65.29 | X-H torsion
[ 10718 10713 10712 10709 ] final -125.04 input   66.30 | X-H torsion
[ 10763 10752 10751 10750 ] final -165.31 input  -60.55 | X-H torsion
[ 11005 11000 10999 10996 ] final  -77.34 input  -57.11 | X-H torsion

> <Gold.Protein.ActiveResidues>
 VAL166  LYS551  ARG553  GLY616  TRP617  ASP618  TYR619  PRO620  LYS621  CYS622 
 ASP623  PHE694  ASN695  SER759  ASP760  ASP761  ALA762  ILE779  LEU786  VAL792 
 PHE793  MET794  SER795  GLU796  ALA797  LYS798  CYS799  TRP800  GLU811  SER814 

> <Gold.Protein.RotatedAtoms>
  152.5419  134.0682  159.8181 H   0  0  0  0  0  0  0  0  0  0  0  0  # atno 6907 bound_to 6896
  151.0800  133.5390  159.2628 H   0  0  0  0  0  0  0  0  0  0  0  0  # atno 6908 bound_to 6896
  151.2221  135.0531  159.9008 H   0  0  0  0  0  0  0  0  0  0  0  0  # atno 6909 bound_to 6896
  144.7664  139.7961  143.6313 H   0  0  0  0  0  0  0  0  0  0  0  0  # atno 7974 bound_to 7965
  154.5250  140.2236  155.8906 H   0  0  0  0  0  0  0  0  0  0  0  0  # atno 8008 bound_to 7997
  156.1703  140.3123  155.8927 H   0  0  0  0  0  0  0  0  0  0  0  0  # atno 8009 bound_to 7997
  155.3571  140.0459  157.3037 H   0  0  0  0  0  0  0  0  0  0  0  0  # atno 8010 bound_to 7997
  139.8269  143.7499  152.2666 H   0  0  0  0  0  0  0  0  0  0  0  0  # atno 10167 bound_to 10162
  156.1641  130.6622  151.0090 H   0  0  0  0  0  0  0  0  0  0  0  0  # atno 10718 bound_to 10713
  154.6944  135.2976  154.9433 H   0  0  0  0  0  0  0  0  0  0  0  0  # atno 10763 bound_to 10752
  154.0385  135.6660  153.4791 H   0  0  0  0  0  0  0  0  0  0  0  0  # atno 10764 bound_to 10752
  153.0635  135.5102  154.8054 H   0  0  0  0  0  0  0  0  0  0  0  0  # atno 10765 bound_to 10752
  141.1659  133.7018  156.7805 H   0  0  0  0  0  0  0  0  0  0  0  0  # atno 11005 bound_to 11000
  146.1774  139.4951  142.9888 LP  0  0  0  0  0  0  0  0  0  0  0  0  # atno 17320 bound_to 7965
  145.6458  141.0274  143.1787 LP  0  0  0  0  0  0  0  0  0  0  0  0  # atno 17321 bound_to 7965
  139.7694  144.7481  151.0246 LP  0  0  0  0  0  0  0  0  0  0  0  0  # atno 17342 bound_to 10162
  140.7809  143.4661  151.0210 LP  0  0  0  0  0  0  0  0  0  0  0  0  # atno 17343 bound_to 10162
  157.6754  131.0851  150.7507 LP  0  0  0  0  0  0  0  0  0  0  0  0  # atno 17370 bound_to 10713
  156.7568  130.4786  149.5445 LP  0  0  0  0  0  0  0  0  0  0  0  0  # atno 17371 bound_to 10713
  140.2398  134.8622  157.3562 LP  0  0  0  0  0  0  0  0  0  0  0  0  # atno 17394 bound_to 11000
  140.1807  134.4493  155.7774 LP  0  0  0  0  0  0  0  0  0  0  0  0  # atno 17395 bound_to 11000

$$$$
