AV-unprocessed.smi:3275|AV-procd|sdf|12532|dock3
  -GOLD-   2272018443D 1   1.00000     0.00000
 Structure written by MMmdl.
 34 35  0  0  0  0  0  0  0  0  1 V2000
  148.5564  138.6981  152.9047 O   0  0  0  0  0  0  0  0  0  0  0  0
  148.6150  139.0166  154.2781 C   0  0  0  0  0  0  0  0  0  0  0  0
  149.1200  140.4516  154.4590 C   0  0  0  0  0  0  0  0  0  0  0  0
  150.5421  140.4253  154.4815 O   0  0  0  0  0  0  0  0  0  0  0  0
  151.1803  140.4378  155.7583 C   0  0  2  0  0  0  0  0  0  0  0  0
  150.8828  139.1811  156.6020 C   0  0  0  0  0  0  0  0  0  0  0  0
  151.6765  139.2387  157.9180 C   0  0  0  0  0  0  0  0  0  0  0  0
  151.3975  140.5501  158.6744 C   0  0  0  0  0  0  0  0  0  0  0  0
  151.6496  141.7075  157.8203 N   0  0  0  0  0  0  0  0  0  0  0  0
  151.6126  142.9226  158.5210 C   0  0  0  0  0  0  0  0  0  0  0  0
  150.6989  143.9446  158.1765 C   0  0  0  0  0  0  0  0  0  0  0  0
  150.7091  145.1407  158.9211 C   0  0  0  0  0  0  0  0  0  0  0  0
  151.5487  145.3645  159.9538 N   0  0  0  0  0  0  0  0  0  0  0  0
  152.4177  144.3851  160.2827 C   0  0  0  0  0  0  0  0  0  0  0  0
  152.4908  143.1510  159.6050 C   0  0  0  0  0  0  0  0  0  0  0  0
  153.6409  141.9608  160.1051 Cl  0  0  0  0  0  0  0  0  0  0  0  0
  150.8998  141.7217  156.5669 C   0  0  0  0  0  0  0  0  0  0  0  0
  149.1444  139.2721  152.4380 H   0  0  0  0  0  0  0  0  0  0  0  0
  147.6223  138.9015  154.7145 H   0  0  0  0  0  0  0  0  0  0  0  0
  149.2778  138.3108  154.7798 H   0  0  0  0  0  0  0  0  0  0  0  0
  148.7556  141.0689  153.6379 H   0  0  0  0  0  0  0  0  0  0  0  0
  148.7228  140.8608  155.3878 H   0  0  0  0  0  0  0  0  0  0  0  0
  152.2474  140.4270  155.5312 H   0  0  0  0  0  0  0  0  0  0  0  0
  149.8209  139.1149  156.8378 H   0  0  0  0  0  0  0  0  0  0  0  0
  151.1415  138.2802  156.0452 H   0  0  0  0  0  0  0  0  0  0  0  0
  151.4246  138.3838  158.5457 H   0  0  0  0  0  0  0  0  0  0  0  0
  152.7434  139.1621  157.7043 H   0  0  0  0  0  0  0  0  0  0  0  0
  150.3608  140.5693  159.0140 H   0  0  0  0  0  0  0  0  0  0  0  0
  152.0267  140.6045  159.5638 H   0  0  0  0  0  0  0  0  0  0  0  0
  149.9999  143.8194  157.3627 H   0  0  0  0  0  0  0  0  0  0  0  0
  150.0225  145.9387  158.6811 H   0  0  0  0  0  0  0  0  0  0  0  0
  153.0765  144.5933  161.1128 H   0  0  0  0  0  0  0  0  0  0  0  0
  151.1789  142.5988  155.9815 H   0  0  0  0  0  0  0  0  0  0  0  0
  149.8373  141.8060  156.7938 H   0  0  0  0  0  0  0  0  0  0  0  0
  1  2  1  0  0  0  0
  1 18  1  0  0  0  0
  2  3  1  0  0  0  0
  2 19  1  0  0  0  0
  2 20  1  0  0  0  0
  3  4  1  0  0  0  0
  3 21  1  0  0  0  0
  3 22  1  0  0  0  0
  4  5  1  0  0  0  0
  5 17  1  0  0  0  0
  5  6  1  0  0  0  0
  5 23  1  0  0  0  0
  6  7  1  0  0  0  0
  6 24  1  0  0  0  0
  6 25  1  0  0  0  0
  7  8  1  0  0  0  0
  7 26  1  0  0  0  0
  7 27  1  0  0  0  0
  8  9  1  0  0  0  0
  8 28  1  0  0  0  0
  8 29  1  0  0  0  0
  9 10  1  0  0  0  0
  9 17  1  0  0  0  0
 10 15  1  0  0  0  0
 10 11  2  0  0  0  0
 11 12  1  0  0  0  0
 11 30  1  0  0  0  0
 12 13  2  0  0  0  0
 12 31  1  0  0  0  0
 13 14  1  0  0  0  0
 14 15  2  0  0  0  0
 14 32  1  0  0  0  0
 15 16  1  0  0  0  0
 17 33  1  0  0  0  0
 17 34  1  0  0  0  0
M  END
> <s_m_source_file>
AV-unprocessed.smi

> <i_m_source_file_index>
3275

> <i_lp_mmshare_version>
43012

> <i_f3d_flags>
0

> <s_epik_input>
W09IXVtDSDJdW0NIMl1PW0NAQEhdMVtDSDJdW0NIMl1bQ0gyXU4oW0NIMl0xKWMyW2NIXVtjSF1uW2NIXWMyQ2w=

> <s_epik_cmdline>
J2VwaWtfcHl0aG9uJywgJy1waCcsICc3LjAnLCAnLXRuJywgJzgnLCAnLW1hJywgJzIwMCcsICctbWV0YWxfYmluZGluZycsICctaW1hZScsICc8aW5maWxlLm1hZT4nLCAnLW9tYWUnLCAnPG91dGZpbGUubWFlPic=

> <r_lp_tautomer_probability>
1

> <r_epik_Ionization_Penalty>
1.24095

> <r_epik_Ionization_Penalty_Charging>
0

> <r_epik_Ionization_Penalty_Neutral>
1.24095

> <r_epik_State_Penalty>
1.30987

> <r_epik_Charging_Adjusted_Penalty>
1.30987

> <i_epik_Tot_Q>
0

> <i_epik_Tot_abs_Q>
0

> <r_epik_Metal_State_Penalty>
0.00479332

> <b_epik_Metal_Only>
0

> <s_lp_Force_Field>
OPLS_2005

> <r_lp_Energy>
21.9158

> <b_lp_Chiralities_Consistent>
1

> <s_lp_Variant>
AV-unprocessed.smi:3275-3

> <Gold.Version>
5.8.1

> <Gold.Id.Protein>
6NUR|6NUR_protein|mol2

> <Gold.PLP.Fitness>
44.2465

> <Gold.PLP.PLP>
-36.1732

> <Gold.PLP.part.hbond>
-2.4581

> <Gold.PLP.part.metal>
0.0000

> <Gold.PLP.part.buried>
-4.4892

> <Gold.PLP.part.nonpolar>
-28.9242

> <Gold.PLP.part.repulsive>
0.2810

> <Gold.PLP.ligand.clash>
0.0000

> <Gold.PLP.ligand.torsion>
0.5644

> <Gold.PLP.Chemscore.Hbond>
2.0000

> <Gold.PLP.Chemscore.CHOScore>
1.0000

> <Gold.PLP.Chemscore.Metal>
0.0000

> <Gold.Chemscore.Hbonds>
donor molecule, donor type, donor heavy atom, donor atom, acceptor molecule, acceptor atom, score
      L1  H     1    18       P1  7957  1.00
      P1  H  7989  7998       L1     4  0.99
      L1  C    12    31       P1  8029  1.00

> <Gold.PLP.Chemscore.Internal.Correction>
0.2022

> <Gold.Rescore>
     Score         DG    S(hbond)    S(metal)    S(lipo)     H(rot)  DE(clash)    DE(int)     intcor
     17.32     -18.32       1.75        0.00     104.82       2.06       0.30       0.70       ----

> <Gold.Chemscore.Fitness>
17.3234

> <Gold.Chemscore.DG>
-18.3240

> <Gold.Chemscore.ZeroCoef>
-5.4800

> <Gold.Chemscore.Hbond>
1.7504

> <Gold.Chemscore.Metal>
0.0000

> <Gold.Chemscore.Lipo>
104.8184

> <Gold.Chemscore.Internal_Hbond>
0.0000

> <Gold.Chemscore.DEClash>
0.3006

> <Gold.Chemscore.DEInternal>
0.6999

> <Gold.Chemscore.Rot>
2.0570

> <Gold.Chemscore.Internal.Correction>
   9.000000E+99

> <Gold.Chemscore.Hbonds>
donor molecule, donor type, donor heavy atom, donor atom, acceptor molecule, acceptor atom, score
      L1  H     1    18       P1  7957  0.92
      P1  H  7989  7998       L1     4  0.45

> <Gold.Chemscore.Hbond.Weighted>
-5.8462

> <Gold.Chemscore.Metal.Weighted>
-0.0000

> <Gold.Chemscore.Lipo.Weighted>
-12.2638

> <Gold.Chemscore.Internal_Hbond.Weighted>
0.0000

> <Gold.Chemscore.DEClash.Weighted>
0.3006

> <Gold.Chemscore.DEInternal.Weighted>
0.6999

> <Gold.Chemscore.Rot.Weighted>
5.2660

> <Gold.Chemscore.Internal.Correction.Weighted>
   9.000000E+99

> <Gold.Protein.RotatedTorsions>
[ 6907 6896 6895 6894 ] final  156.48 input  -60.11 | X-H torsion
[ 7974 7965 7964 7962 ] final  130.86 input  175.53 | X-H torsion
[ 8008 7997 7996 7995 ] final  -38.23 input   59.86 | X-H torsion
[ 10167 10162 10161 10158 ] final   43.64 input  -65.29 | X-H torsion
[ 10718 10713 10712 10709 ] final   71.56 input   66.30 | X-H torsion
[ 10763 10752 10751 10750 ] final -101.92 input  -60.55 | X-H torsion
[ 11005 11000 10999 10996 ] final -171.80 input  -57.11 | X-H torsion

> <Gold.Protein.ActiveResidues>
 VAL166  LYS551  ARG553  GLY616  TRP617  ASP618  TYR619  PRO620  LYS621  CYS622 
 ASP623  PHE694  ASN695  SER759  ASP760  ASP761  ALA762  ILE779  LEU786  VAL792 
 PHE793  MET794  SER795  GLU796  ALA797  LYS798  CYS799  TRP800  GLU811  SER814 

> <Gold.Protein.RotatedAtoms>
  152.0291  133.3930  159.4289 H   0  0  0  0  0  0  0  0  0  0  0  0  # atno 6907 bound_to 6896
  150.6883  134.3540  159.4931 H   0  0  0  0  0  0  0  0  0  0  0  0  # atno 6908 bound_to 6896
  152.1324  134.9124  160.0608 H   0  0  0  0  0  0  0  0  0  0  0  0  # atno 6909 bound_to 6896
  145.0135  139.4198  143.5233 H   0  0  0  0  0  0  0  0  0  0  0  0  # atno 7974 bound_to 7965
  154.4040  140.1583  156.2667 H   0  0  0  0  0  0  0  0  0  0  0  0  # atno 8008 bound_to 7997
  155.8989  140.3434  155.5989 H   0  0  0  0  0  0  0  0  0  0  0  0  # atno 8009 bound_to 7997
  155.7471  140.0800  157.2209 H   0  0  0  0  0  0  0  0  0  0  0  0  # atno 8010 bound_to 7997
  140.3424  144.2454  150.6154 H   0  0  0  0  0  0  0  0  0  0  0  0  # atno 10167 bound_to 10162
  157.6458  130.9534  150.0806 H   0  0  0  0  0  0  0  0  0  0  0  0  # atno 10718 bound_to 10713
  154.7695  135.4880  153.9620 H   0  0  0  0  0  0  0  0  0  0  0  0  # atno 10763 bound_to 10752
  153.1349  135.6760  153.9126 H   0  0  0  0  0  0  0  0  0  0  0  0  # atno 10764 bound_to 10752
  153.8818  135.3131  155.3424 H   0  0  0  0  0  0  0  0  0  0  0  0  # atno 10765 bound_to 10752
  140.5041  134.5865  157.4997 H   0  0  0  0  0  0  0  0  0  0  0  0  # atno 11005 bound_to 11000
  146.3474  139.9592  142.8719 LP  0  0  0  0  0  0  0  0  0  0  0  0  # atno 17320 bound_to 7965
  145.1992  140.9846  143.4166 LP  0  0  0  0  0  0  0  0  0  0  0  0  # atno 17321 bound_to 7965
  140.5297  143.2246  151.8259 LP  0  0  0  0  0  0  0  0  0  0  0  0  # atno 17342 bound_to 10162
  139.4838  144.4736  151.9394 LP  0  0  0  0  0  0  0  0  0  0  0  0  # atno 17343 bound_to 10162
  156.1784  130.3649  149.9069 LP  0  0  0  0  0  0  0  0  0  0  0  0  # atno 17370 bound_to 10713
  156.7028  130.8939  151.3601 LP  0  0  0  0  0  0  0  0  0  0  0  0  # atno 17371 bound_to 10713
  139.9696  134.7315  156.0068 LP  0  0  0  0  0  0  0  0  0  0  0  0  # atno 17394 bound_to 11000
  141.1420  133.6563  156.3757 LP  0  0  0  0  0  0  0  0  0  0  0  0  # atno 17395 bound_to 11000

$$$$
