AV-unprocessed.smi:148|AV-procd|sdf|1223|dock10
  -GOLD-   2262018413D 1   1.00000     0.00000
 Structure written by MMmdl.
 63 67  0  0  0  0  0  0  0  0  1 V2000
  150.6171  142.8126  156.7708 O   0  0  0  0  0  0  0  0  0  0  0  0
  150.1272  142.3212  158.0011 C   0  0  0  0  0  0  0  0  0  0  0  0
  150.9612  141.1143  158.5002 C   0  0  1  0  0  0  0  0  0  0  0  0
  151.1600  140.0338  157.4022 C   0  0  0  0  0  0  0  0  0  0  0  0
  150.8073  138.6975  157.8468 N   0  0  0  0  0  0  0  0  0  0  0  0
  151.5669  137.8626  158.6349 C   0  0  0  0  0  0  0  0  0  0  0  0
  151.0421  136.6910  158.8694 N   0  0  0  0  0  0  0  0  0  0  0  0
  149.8253  136.7266  158.1988 C   0  0  0  0  0  0  0  0  0  0  0  0
  148.7709  135.7916  157.9993 C   0  0  0  0  0  0  0  0  0  0  0  0
  148.7624  134.5293  158.4785 N   0  0  0  0  0  0  0  0  0  0  0  0
  148.7504  133.5954  157.3505 C   0  0  0  0  0  0  0  0  0  0  0  0
  149.0185  132.1586  157.8076 C   0  0  0  0  0  0  0  0  0  0  0  0
  148.0055  131.7600  158.8810 C   0  0  0  0  0  0  0  0  0  0  0  0
  148.0559  132.7620  160.0409 C   0  0  0  0  0  0  0  0  0  0  0  0
  147.8241  134.2282  159.5823 C   0  0  1  0  0  0  0  0  0  0  0  0
  147.9444  135.1993  160.8106 C   0  0  1  0  0  0  0  0  0  0  0  0
  147.2067  136.5542  160.7223 C   0  0  0  0  0  0  0  0  0  0  0  0
  146.9653  137.0338  162.1606 C   0  0  0  0  0  0  0  0  0  0  0  0
  147.3570  135.8670  163.0710 C   0  0  0  0  0  0  0  0  0  0  0  0
  147.4254  134.6443  162.1549 C   0  0  1  0  0  0  0  0  0  0  0  0
  146.1206  134.1082  162.0229 O   0  0  0  0  0  0  0  0  0  0  0  0
  147.6914  136.1900  157.2823 N   0  0  0  0  0  0  0  0  0  0  0  0
  147.6546  137.4205  156.7616 C   0  0  0  0  0  0  0  0  0  0  0  0
  148.5731  138.3866  156.8353 N   0  0  0  0  0  0  0  0  0  0  0  0
  149.6513  137.9907  157.5709 C   0  0  0  0  0  0  0  0  0  0  0  0
  152.2886  141.5726  159.1670 C   0  0  1  0  0  0  0  0  0  0  0  0
  152.1724  142.5801  160.2965 C   0  0  0  0  0  0  0  0  0  0  0  0
  153.5662  142.4984  160.9067 C   0  0  0  0  0  0  0  0  0  0  0  0
  153.9208  141.1226  160.8235 O   0  0  0  0  0  0  0  0  0  0  0  0
  153.1572  140.4800  159.8043 C   0  0  0  0  0  0  0  0  0  0  0  0
  150.1555  143.6097  156.5596 H   0  0  0  0  0  0  0  0  0  0  0  0
  150.1679  143.1524  158.7048 H   0  0  0  0  0  0  0  0  0  0  0  0
  149.0770  142.0503  157.8900 H   0  0  0  0  0  0  0  0  0  0  0  0
  150.3724  140.6396  159.2867 H   0  0  0  0  0  0  0  0  0  0  0  0
  150.5632  140.2606  156.5196 H   0  0  0  0  0  0  0  0  0  0  0  0
  152.1987  139.9997  157.0756 H   0  0  0  0  0  0  0  0  0  0  0  0
  152.5370  138.1449  159.0177 H   0  0  0  0  0  0  0  0  0  0  0  0
  147.7831  133.6424  156.8478 H   0  0  0  0  0  0  0  0  0  0  0  0
  149.5035  133.8850  156.6155 H   0  0  0  0  0  0  0  0  0  0  0  0
  148.9568  131.4769  156.9591 H   0  0  0  0  0  0  0  0  0  0  0  0
  150.0321  132.0778  158.2029 H   0  0  0  0  0  0  0  0  0  0  0  0
  147.0016  131.7377  158.4555 H   0  0  0  0  0  0  0  0  0  0  0  0
  148.2168  130.7534  159.2428 H   0  0  0  0  0  0  0  0  0  0  0  0
  147.3096  132.4568  160.7729 H   0  0  0  0  0  0  0  0  0  0  0  0
  149.0239  132.6848  160.5382 H   0  0  0  0  0  0  0  0  0  0  0  0
  146.8098  134.2926  159.1868 H   0  0  0  0  0  0  0  0  0  0  0  0
  149.0047  135.4164  160.9531 H   0  0  0  0  0  0  0  0  0  0  0  0
  147.7692  137.3027  160.1659 H   0  0  0  0  0  0  0  0  0  0  0  0
  146.2449  136.4261  160.2248 H   0  0  0  0  0  0  0  0  0  0  0  0
  147.5576  137.9196  162.3927 H   0  0  0  0  0  0  0  0  0  0  0  0
  145.9160  137.2989  162.2970 H   0  0  0  0  0  0  0  0  0  0  0  0
  148.3471  136.0571  163.4876 H   0  0  0  0  0  0  0  0  0  0  0  0
  146.6734  135.7377  163.9111 H   0  0  0  0  0  0  0  0  0  0  0  0
  148.0843  133.8822  162.5719 H   0  0  0  0  0  0  0  0  0  0  0  0
  145.4995  134.7585  162.3134 H   0  0  0  0  0  0  0  0  0  0  0  0
  146.7657  137.6628  156.1980 H   0  0  0  0  0  0  0  0  0  0  0  0
  152.8977  142.0547  158.4005 H   0  0  0  0  0  0  0  0  0  0  0  0
  151.9171  143.5827  159.9526 H   0  0  0  0  0  0  0  0  0  0  0  0
  151.4397  142.2741  161.0420 H   0  0  0  0  0  0  0  0  0  0  0  0
  154.2756  143.0816  160.3181 H   0  0  0  0  0  0  0  0  0  0  0  0
  153.5983  142.8595  161.9350 H   0  0  0  0  0  0  0  0  0  0  0  0
  152.5608  139.6993  160.2739 H   0  0  0  0  0  0  0  0  0  0  0  0
  153.8095  140.0034  159.0719 H   0  0  0  0  0  0  0  0  0  0  0  0
  1  2  1  0  0  0  0
  1 31  1  0  0  0  0
  2  3  1  0  0  0  0
  2 32  1  0  0  0  0
  2 33  1  0  0  0  0
  3  4  1  0  0  0  0
  3 26  1  0  0  0  0
  3 34  1  0  0  0  0
  4  5  1  0  0  0  0
  4 35  1  0  0  0  0
  4 36  1  0  0  0  0
  5 25  1  0  0  0  0
  5  6  1  0  0  0  0
  6  7  2  0  0  0  0
  6 37  1  0  0  0  0
  7  8  1  0  0  0  0
  8 25  2  0  0  0  0
  8  9  1  0  0  0  0
  9 10  1  0  0  0  0
  9 22  2  0  0  0  0
 10 15  1  0  0  0  0
 10 11  1  0  0  0  0
 11 12  1  0  0  0  0
 11 38  1  0  0  0  0
 11 39  1  0  0  0  0
 12 13  1  0  0  0  0
 12 40  1  0  0  0  0
 12 41  1  0  0  0  0
 13 14  1  0  0  0  0
 13 42  1  0  0  0  0
 13 43  1  0  0  0  0
 14 15  1  0  0  0  0
 14 44  1  0  0  0  0
 14 45  1  0  0  0  0
 15 16  1  0  0  0  0
 15 46  1  0  0  0  0
 16 20  1  0  0  0  0
 16 17  1  0  0  0  0
 16 47  1  0  0  0  0
 17 18  1  0  0  0  0
 17 48  1  0  0  0  0
 17 49  1  0  0  0  0
 18 19  1  0  0  0  0
 18 50  1  0  0  0  0
 18 51  1  0  0  0  0
 19 20  1  0  0  0  0
 19 52  1  0  0  0  0
 19 53  1  0  0  0  0
 20 21  1  0  0  0  0
 20 54  1  0  0  0  0
 21 55  1  0  0  0  0
 22 23  1  0  0  0  0
 23 24  2  0  0  0  0
 23 56  1  0  0  0  0
 24 25  1  0  0  0  0
 26 30  1  0  0  0  0
 26 27  1  0  0  0  0
 26 57  1  0  0  0  0
 27 28  1  0  0  0  0
 27 58  1  0  0  0  0
 27 59  1  0  0  0  0
 28 29  1  0  0  0  0
 28 60  1  0  0  0  0
 28 61  1  0  0  0  0
 29 30  1  0  0  0  0
 30 62  1  0  0  0  0
 30 63  1  0  0  0  0
M  END
> <s_m_source_file>
AV-unprocessed.smi

> <i_m_source_file_index>
148

> <i_lp_mmshare_version>
43012

> <i_f3d_flags>
0

> <s_epik_input>
W0NIMl0xT1tDSDJdW0NIMl1bQ0BIXTFbQ0BIXShbQ0gyXVtPSF0pW0NIMl1uKFtjSF1uMiljKGMyMyluW2NIXW5jM040W0NIMl1bQ0gyXVtDSDJdW0NIMl1bQ0BIXTRbQ0BASF01W0NIMl1bQ0gyXVtDSDJdW0NASF01W09IXQ==

> <s_epik_cmdline>
J2VwaWtfcHl0aG9uJywgJy1waCcsICc3LjAnLCAnLXRuJywgJzgnLCAnLW1hJywgJzIwMCcsICctbWV0YWxfYmluZGluZycsICctaW1hZScsICc8aW5maWxlLm1hZT4nLCAnLW9tYWUnLCAnPG91dGZpbGUubWFlPic=

> <r_lp_tautomer_probability>
1

> <r_epik_Ionization_Penalty>
0.00556303

> <r_epik_Ionization_Penalty_Charging>
0

> <r_epik_Ionization_Penalty_Neutral>
0.00556303

> <r_epik_State_Penalty>
0.00401767

> <r_epik_Charging_Adjusted_Penalty>
0.00401767

> <i_epik_Tot_Q>
0

> <i_epik_Tot_abs_Q>
0

> <r_epik_Metal_State_Penalty>
-0

> <b_epik_Metal_Only>
0

> <s_lp_Force_Field>
OPLS_2005

> <r_lp_Energy>
70.5845

> <b_lp_Chiralities_Consistent>
1

> <s_lp_Variant>
AV-unprocessed.smi:148-22

> <Gold.Version>
5.8.1

> <Gold.Id.Protein>
6NUR|6NUR_protein|mol2

> <Gold.PLP.Fitness>
49.1875

> <Gold.PLP.PLP>
-44.2659

> <Gold.PLP.part.hbond>
-3.0000

> <Gold.PLP.part.metal>
0.0000

> <Gold.PLP.part.buried>
-7.9414

> <Gold.PLP.part.nonpolar>
-33.6296

> <Gold.PLP.part.repulsive>
0.0000

> <Gold.PLP.ligand.clash>
0.0000

> <Gold.PLP.ligand.torsion>
1.6744

> <Gold.PLP.Chemscore.Hbond>
2.5813

> <Gold.PLP.Chemscore.CHOScore>
0.0000

> <Gold.PLP.Chemscore.Metal>
0.0000

> <Gold.Chemscore.Hbonds>
donor molecule, donor type, donor heavy atom, donor atom, acceptor molecule, acceptor atom, score
      L1  H     1    31       P1  8028  1.00
      P1  H  6896  6907       L1     7  0.61
      P1  H  6896  6909       L1    10  0.56

> <Gold.PLP.Chemscore.Internal.Correction>
0.5267

> <Gold.Rescore>
     Score         DG    S(hbond)    S(metal)    S(lipo)     H(rot)  DE(clash)    DE(int)     intcor
     14.47     -16.02       1.78        0.00     111.95       3.32       0.07       1.48       ----

> <Gold.Chemscore.Fitness>
14.4656

> <Gold.Chemscore.DG>
-16.0226

> <Gold.Chemscore.ZeroCoef>
-5.4800

> <Gold.Chemscore.Hbond>
1.7798

> <Gold.Chemscore.Metal>
0.0000

> <Gold.Chemscore.Lipo>
111.9494

> <Gold.Chemscore.Internal_Hbond>
0.0000

> <Gold.Chemscore.DEClash>
0.0734

> <Gold.Chemscore.DEInternal>
1.4836

> <Gold.Chemscore.Rot>
3.3203

> <Gold.Chemscore.Internal.Correction>
   9.000000E+99

> <Gold.Chemscore.Hbonds>
donor molecule, donor type, donor heavy atom, donor atom, acceptor molecule, acceptor atom, score
      L1  H     1    31       P1  8028  0.99
      P1  H  6896  6907       L1     7  0.58
      P1  H  6896  6909       L1    10  0.04

> <Gold.Chemscore.Hbond.Weighted>
-5.9445

> <Gold.Chemscore.Metal.Weighted>
-0.0000

> <Gold.Chemscore.Lipo.Weighted>
-13.0981

> <Gold.Chemscore.Internal_Hbond.Weighted>
0.0000

> <Gold.Chemscore.DEClash.Weighted>
0.0734

> <Gold.Chemscore.DEInternal.Weighted>
1.4836

> <Gold.Chemscore.Rot.Weighted>
8.5000

> <Gold.Chemscore.Internal.Correction.Weighted>
   9.000000E+99

> <Gold.Protein.RotatedTorsions>
[ 6907 6896 6895 6894 ] final   10.08 input  -60.11 | X-H torsion
[ 7974 7965 7964 7962 ] final   35.65 input  175.53 | X-H torsion
[ 8008 7997 7996 7995 ] final -171.94 input   59.86 | X-H torsion
[ 10167 10162 10161 10158 ] final -107.97 input  -65.29 | X-H torsion
[ 10718 10713 10712 10709 ] final  107.15 input   66.30 | X-H torsion
[ 10763 10752 10751 10750 ] final  100.52 input  -60.55 | X-H torsion
[ 11005 11000 10999 10996 ] final -131.84 input  -57.11 | X-H torsion

> <Gold.Protein.ActiveResidues>
 VAL166  LYS551  ARG553  GLY616  TRP617  ASP618  TYR619  PRO620  LYS621  CYS622 
 ASP623  PHE694  ASN695  SER759  ASP760  ASP761  ALA762  ILE779  LEU786  VAL792 
 PHE793  MET794  SER795  GLU796  ALA797  LYS798  CYS799  TRP800  GLU811  SER814 

> <Gold.Protein.RotatedAtoms>
  151.7325  135.0872  160.0302 H   0  0  0  0  0  0  0  0  0  0  0  0  # atno 6907 bound_to 6896
  152.3532  133.6200  159.5968 H   0  0  0  0  0  0  0  0  0  0  0  0  # atno 6908 bound_to 6896
  150.7553  133.9458  159.3512 H   0  0  0  0  0  0  0  0  0  0  0  0  # atno 6909 bound_to 6896
  146.1268  139.6116  142.9253 H   0  0  0  0  0  0  0  0  0  0  0  0  # atno 7974 bound_to 7965
  155.9381  140.1103  157.1078 H   0  0  0  0  0  0  0  0  0  0  0  0  # atno 8008 bound_to 7997
  154.4083  140.1224  156.4956 H   0  0  0  0  0  0  0  0  0  0  0  0  # atno 8009 bound_to 7997
  155.6997  140.3472  155.4930 H   0  0  0  0  0  0  0  0  0  0  0  0  # atno 8010 bound_to 7997
  140.1712  143.4041  152.1353 H   0  0  0  0  0  0  0  0  0  0  0  0  # atno 10167 bound_to 10162
  157.6640  131.0866  150.6113 H   0  0  0  0  0  0  0  0  0  0  0  0  # atno 10718 bound_to 10713
  153.3150  135.4076  155.1368 H   0  0  0  0  0  0  0  0  0  0  0  0  # atno 10763 bound_to 10752
  154.8586  135.3573  154.5673 H   0  0  0  0  0  0  0  0  0  0  0  0  # atno 10764 bound_to 10752
  153.6103  135.7068  153.5408 H   0  0  0  0  0  0  0  0  0  0  0  0  # atno 10765 bound_to 10752
  140.9223  134.1428  157.4304 H   0  0  0  0  0  0  0  0  0  0  0  0  # atno 11005 bound_to 11000
  145.5348  141.0425  143.2363 LP  0  0  0  0  0  0  0  0  0  0  0  0  # atno 17320 bound_to 7965
  144.7650  139.6866  143.7218 LP  0  0  0  0  0  0  0  0  0  0  0  0  # atno 17321 bound_to 7965
  139.5337  144.7187  151.4967 LP  0  0  0  0  0  0  0  0  0  0  0  0  # atno 17342 bound_to 10162
  140.6580  143.8558  150.6857 LP  0  0  0  0  0  0  0  0  0  0  0  0  # atno 17343 bound_to 10162
  156.6415  130.4459  149.5751 LP  0  0  0  0  0  0  0  0  0  0  0  0  # atno 17370 bound_to 10713
  156.2206  130.6734  151.1364 LP  0  0  0  0  0  0  0  0  0  0  0  0  # atno 17371 bound_to 10713
  139.8778  134.9976  156.5854 LP  0  0  0  0  0  0  0  0  0  0  0  0  # atno 17394 bound_to 11000
  140.7971  133.8535  155.8695 LP  0  0  0  0  0  0  0  0  0  0  0  0  # atno 17395 bound_to 11000

$$$$
