AV-unprocessed.smi:287|AV-procd|sdf|2182|dock7
  -GOLD-   2262021553D 1   1.00000     0.00000
 Structure written by MMmdl.
 55 58  0  0  0  0  0  0  0  0  1 V2000
  141.6086  135.7405  163.7706 C   0  0  0  0  0  0  0  0  0  0  0  0
  142.9158  135.3672  163.1602 C   0  0  0  0  0  0  0  0  0  0  0  0
  144.1496  135.9495  163.1385 C   0  0  0  0  0  0  0  0  0  0  0  0
  145.0112  135.0958  162.3868 C   0  0  0  0  0  0  0  0  0  0  0  0
  146.4865  135.3420  162.0997 C   0  0  2  0  0  0  0  0  0  0  0  0
  147.3340  134.2265  162.7337 C   0  0  0  0  0  0  0  0  0  0  0  0
  146.9639  136.5451  162.6704 O   0  0  0  0  0  0  0  0  0  0  0  0
  146.7873  135.4409  160.5865 C   0  0  0  0  0  0  0  0  0  0  0  0
  148.2109  135.5498  160.2940 N   0  0  0  0  0  0  0  0  0  0  0  0
  148.6788  136.5138  159.4734 C   0  0  0  0  0  0  0  0  0  0  0  0
  150.0085  136.7573  159.5595 N   0  0  0  0  0  0  0  0  0  0  0  0
  150.5711  137.6968  158.7942 C   0  0  0  0  0  0  0  0  0  0  0  0
  149.9955  138.4920  157.8907 N   0  0  0  0  0  0  0  0  0  0  0  0
  148.6562  138.2494  157.7945 C   0  0  0  0  0  0  0  0  0  0  0  0
  147.9210  137.2865  158.5432 C   0  0  0  0  0  0  0  0  0  0  0  0
  146.5835  137.3415  158.1648 N   0  0  0  0  0  0  0  0  0  0  0  0
  146.5379  138.2795  157.2580 C   0  0  0  0  0  0  0  0  0  0  0  0
  147.7480  138.8710  156.9657 N   0  0  0  0  0  0  0  0  0  0  0  0
  148.0630  139.9746  156.0025 C   0  0  2  0  0  0  0  0  0  0  0  0
  147.1590  139.8994  154.9412 O   0  0  0  0  0  0  0  0  0  0  0  0
  147.7462  139.1697  153.8688 C   0  0  1  0  0  0  0  0  0  0  0  0
  146.9876  139.4015  152.5504 C   0  0  0  0  0  0  0  0  0  0  0  0
  147.2267  138.3316  151.6608 O   0  0  0  0  0  0  0  0  0  0  0  0
  149.1926  139.6769  153.9037 C   0  0  1  0  0  0  0  0  0  0  0  0
  149.2943  140.9325  153.2507 O   0  0  0  0  0  0  0  0  0  0  0  0
  149.4686  139.7686  155.4045 C   0  0  1  0  0  0  0  0  0  0  0  0
  150.3760  140.8041  155.7332 O   0  0  0  0  0  0  0  0  0  0  0  0
  144.2105  134.0507  161.9918 C   0  0  0  0  0  0  0  0  0  0  0  0
  144.4365  132.8194  161.1781 C   0  0  0  0  0  0  0  0  0  0  0  0
  142.9409  134.2058  162.4603 O   0  0  0  0  0  0  0  0  0  0  0  0
  147.9332  140.8938  156.5757 H   0  0  0  0  0  0  0  0  0  0  0  0
  147.7512  138.1057  154.1142 H   0  0  0  0  0  0  0  0  0  0  0  0
  149.8760  138.9834  153.4127 H   0  0  0  0  0  0  0  0  0  0  0  0
  149.8771  138.8187  155.7536 H   0  0  0  0  0  0  0  0  0  0  0  0
  141.7237  136.5821  164.4537 H   0  0  0  0  0  0  0  0  0  0  0  0
  141.1905  134.9049  164.3326 H   0  0  0  0  0  0  0  0  0  0  0  0
  140.8907  136.0248  163.0013 H   0  0  0  0  0  0  0  0  0  0  0  0
  144.4094  136.8833  163.6146 H   0  0  0  0  0  0  0  0  0  0  0  0
  147.0681  133.2494  162.3287 H   0  0  0  0  0  0  0  0  0  0  0  0
  147.1893  134.1839  163.8140 H   0  0  0  0  0  0  0  0  0  0  0  0
  148.3982  134.3776  162.5483 H   0  0  0  0  0  0  0  0  0  0  0  0
  147.7694  136.3605  163.1288 H   0  0  0  0  0  0  0  0  0  0  0  0
  146.3515  134.5962  160.0513 H   0  0  0  0  0  0  0  0  0  0  0  0
  146.3115  136.3423  160.1977 H   0  0  0  0  0  0  0  0  0  0  0  0
  148.8105  134.9152  160.8018 H   0  0  0  0  0  0  0  0  0  0  0  0
  151.6348  137.8305  158.9252 H   0  0  0  0  0  0  0  0  0  0  0  0
  145.6113  138.5617  156.7796 H   0  0  0  0  0  0  0  0  0  0  0  0
  145.9170  139.5186  152.7206 H   0  0  0  0  0  0  0  0  0  0  0  0
  147.3431  140.3126  152.0681 H   0  0  0  0  0  0  0  0  0  0  0  0
  147.5493  137.5951  152.1576 H   0  0  0  0  0  0  0  0  0  0  0  0
  148.5468  141.4560  153.4978 H   0  0  0  0  0  0  0  0  0  0  0  0
  150.3573  140.9295  156.6702 H   0  0  0  0  0  0  0  0  0  0  0  0
  144.8854  133.0684  160.2166 H   0  0  0  0  0  0  0  0  0  0  0  0
  143.4994  132.2967  160.9835 H   0  0  0  0  0  0  0  0  0  0  0  0
  145.1035  132.1311  161.6971 H   0  0  0  0  0  0  0  0  0  0  0  0
  1  2  1  0  0  0  0
  1 35  1  0  0  0  0
  1 36  1  0  0  0  0
  1 37  1  0  0  0  0
  2 30  1  0  0  0  0
  2  3  2  0  0  0  0
  3  4  1  0  0  0  0
  3 38  1  0  0  0  0
  4  5  1  0  0  0  0
  4 28  2  0  0  0  0
  5  6  1  0  0  0  0
  5  7  1  0  0  0  0
  5  8  1  0  0  0  0
  6 39  1  0  0  0  0
  6 40  1  0  0  0  0
  6 41  1  0  0  0  0
  7 42  1  0  0  0  0
  8  9  1  0  0  0  0
  8 43  1  0  0  0  0
  8 44  1  0  0  0  0
  9 10  1  0  0  0  0
  9 45  1  0  0  0  0
 10 15  1  0  0  0  0
 10 11  2  0  0  0  0
 11 12  1  0  0  0  0
 12 13  2  0  0  0  0
 12 46  1  0  0  0  0
 13 14  1  0  0  0  0
 14 18  1  0  0  0  0
 14 15  2  0  0  0  0
 15 16  1  0  0  0  0
 16 17  2  0  0  0  0
 17 18  1  0  0  0  0
 17 47  1  0  0  0  0
 18 19  1  0  0  0  0
 19 31  1  0  0  0  0
 19 26  1  0  0  0  0
 19 20  1  0  0  0  0
 20 21  1  0  0  0  0
 21 32  1  0  0  0  0
 21 22  1  0  0  0  0
 21 24  1  0  0  0  0
 22 23  1  0  0  0  0
 22 48  1  0  0  0  0
 22 49  1  0  0  0  0
 23 50  1  0  0  0  0
 24 33  1  0  0  0  0
 24 25  1  0  0  0  0
 24 26  1  0  0  0  0
 25 51  1  0  0  0  0
 26 34  1  0  0  0  0
 26 27  1  0  0  0  0
 27 52  1  0  0  0  0
 28 29  1  0  0  0  0
 28 30  1  0  0  0  0
 29 53  1  0  0  0  0
 29 54  1  0  0  0  0
 29 55  1  0  0  0  0
M  END
> <s_m_source_file>
AV-unprocessed.smi

> <i_m_source_file_index>
287

> <i_lp_mmshare_version>
43012

> <i_f3d_flags>
0

> <s_epik_input>
W0NIM11jMVtjSF1jKGMobzEpW0NIM10pW0NAQF0oW0NIM10pKFtPSF0pW0NIMl1bTkhdYyhuW2NIXW4yKWMoYzIzKW5bY0hdbjNbQ0BASF00T1tDQEhdKFtDSDJdW09IXSlbQ0BASF0oW09IXSlbQ0BIXTRbT0hd

> <s_epik_cmdline>
J2VwaWtfcHl0aG9uJywgJy1waCcsICc3LjAnLCAnLXRuJywgJzgnLCAnLW1hJywgJzIwMCcsICctbWV0YWxfYmluZGluZycsICctaW1hZScsICc8aW5maWxlLm1hZT4nLCAnLW9tYWUnLCAnPG91dGZpbGUubWFlPic=

> <r_lp_tautomer_probability>
1

> <r_epik_Ionization_Penalty>
0.000992612

> <r_epik_Ionization_Penalty_Charging>
0

> <r_epik_Ionization_Penalty_Neutral>
0.000992612

> <r_epik_State_Penalty>
-0

> <r_epik_Charging_Adjusted_Penalty>
0

> <i_epik_Tot_Q>
0

> <i_epik_Tot_abs_Q>
0

> <r_epik_Metal_State_Penalty>
-0

> <b_epik_Metal_Only>
0

> <s_epik_Chemistry_Notes>
This compound contains an acetal/aminal-like group ( X-CH(R)-Y where X, Y are N, S, or O) that may be acid/base labile, releasing an aldehyde.

> <s_lp_Force_Field>
OPLS_2005

> <r_lp_Energy>
45.3255

> <b_lp_Chiralities_Consistent>
1

> <s_lp_Variant>
AV-unprocessed.smi:287-6

> <Gold.Version>
5.8.1

> <Gold.Id.Protein>
6NUR|6NUR_protein|mol2

> <Gold.PLP.Fitness>
49.3279

> <Gold.PLP.PLP>
-40.9293

> <Gold.PLP.part.hbond>
-6.9828

> <Gold.PLP.part.metal>
0.0000

> <Gold.PLP.part.buried>
-5.4120

> <Gold.PLP.part.nonpolar>
-29.3772

> <Gold.PLP.part.repulsive>
0.2833

> <Gold.PLP.ligand.clash>
0.0000

> <Gold.PLP.ligand.torsion>
1.1539

> <Gold.PLP.Chemscore.Hbond>
3.5500

> <Gold.PLP.Chemscore.CHOScore>
0.0000

> <Gold.PLP.Chemscore.Metal>
0.0000

> <Gold.Chemscore.Hbonds>
donor molecule, donor type, donor heavy atom, donor atom, acceptor molecule, acceptor atom, score
      L1  H    23    50       P1  7948  0.66
      P1  H  6896  6908       L1    11  1.00
      P1  H  7954  7966       L1    23  0.81
      P1  H  7989  7998       L1    25  0.04
      P1  H  8011  8017       L1    25  0.25

> <Gold.PLP.Chemscore.Internal.Correction>
0.0564

> <Gold.Rescore>
     Score         DG    S(hbond)    S(metal)    S(lipo)     H(rot)  DE(clash)    DE(int)     intcor
      4.46      -9.22       2.03        0.00      89.23       5.27       1.50       3.27       ----

> <Gold.Chemscore.Fitness>
4.4585

> <Gold.Chemscore.DG>
-9.2234

> <Gold.Chemscore.ZeroCoef>
-5.4800

> <Gold.Chemscore.Hbond>
2.0321

> <Gold.Chemscore.Metal>
0.0000

> <Gold.Chemscore.Lipo>
89.2310

> <Gold.Chemscore.Internal_Hbond>
0.0000

> <Gold.Chemscore.DEClash>
1.4986

> <Gold.Chemscore.DEInternal>
3.2663

> <Gold.Chemscore.Rot>
5.2672

> <Gold.Chemscore.Internal.Correction>
   9.000000E+99

> <Gold.Chemscore.Hbonds>
donor molecule, donor type, donor heavy atom, donor atom, acceptor molecule, acceptor atom, score
      L1  H    23    50       P1  7948  0.65
      P1  H  6896  6908       L1    11  0.67
      P1  H  7954  7966       L1    23  0.13

> <Gold.Chemscore.Hbond.Weighted>
-6.7873

> <Gold.Chemscore.Metal.Weighted>
-0.0000

> <Gold.Chemscore.Lipo.Weighted>
-10.4400

> <Gold.Chemscore.Internal_Hbond.Weighted>
0.0000

> <Gold.Chemscore.DEClash.Weighted>
1.4986

> <Gold.Chemscore.DEInternal.Weighted>
3.2663

> <Gold.Chemscore.Rot.Weighted>
13.4839

> <Gold.Chemscore.Internal.Correction.Weighted>
   9.000000E+99

> <Gold.Protein.RotatedTorsions>
[ 6907 6896 6895 6894 ] final -154.95 input  -60.11 | X-H torsion
[ 7974 7965 7964 7962 ] final -134.11 input  175.53 | X-H torsion
[ 8008 7997 7996 7995 ] final  134.14 input   59.86 | X-H torsion
[ 10167 10162 10161 10158 ] final  154.63 input  -65.29 | X-H torsion
[ 10718 10713 10712 10709 ] final  164.88 input   66.30 | X-H torsion
[ 10763 10752 10751 10750 ] final -104.99 input  -60.55 | X-H torsion
[ 11005 11000 10999 10996 ] final   52.36 input  -57.11 | X-H torsion

> <Gold.Protein.ActiveResidues>
 VAL166  LYS551  ARG553  GLY616  TRP617  ASP618  TYR619  PRO620  LYS621  CYS622 
 ASP623  PHE694  ASN695  SER759  ASP760  ASP761  ALA762  ILE779  LEU786  VAL792 
 PHE793  MET794  SER795  GLU796  ALA797  LYS798  CYS799  TRP800  GLU811  SER814 

> <Gold.Protein.RotatedAtoms>
  151.2651  133.4282  159.2617 H   0  0  0  0  0  0  0  0  0  0  0  0  # atno 6907 bound_to 6896
  151.0495  134.9663  159.8214 H   0  0  0  0  0  0  0  0  0  0  0  0  # atno 6908 bound_to 6896
  152.5380  134.2606  159.8986 H   0  0  0  0  0  0  0  0  0  0  0  0  # atno 6909 bound_to 6896
  144.9132  140.6921  143.5012 H   0  0  0  0  0  0  0  0  0  0  0  0  # atno 7974 bound_to 7965
  156.2997  140.2503  156.3369 H   0  0  0  0  0  0  0  0  0  0  0  0  # atno 8008 bound_to 7997
  154.9092  140.0404  157.1956 H   0  0  0  0  0  0  0  0  0  0  0  0  # atno 8009 bound_to 7997
  154.8422  140.2892  155.5656 H   0  0  0  0  0  0  0  0  0  0  0  0  # atno 8010 bound_to 7997
  139.4823  144.5169  151.7937 H   0  0  0  0  0  0  0  0  0  0  0  0  # atno 10167 bound_to 10162
  157.0881  131.0410  151.2548 H   0  0  0  0  0  0  0  0  0  0  0  0  # atno 10718 bound_to 10713
  154.7916  135.4766  154.0065 H   0  0  0  0  0  0  0  0  0  0  0  0  # atno 10763 bound_to 10752
  153.1639  135.6813  153.8709 H   0  0  0  0  0  0  0  0  0  0  0  0  # atno 10764 bound_to 10752
  153.8314  135.3191  155.3397 H   0  0  0  0  0  0  0  0  0  0  0  0  # atno 10765 bound_to 10752
  140.0855  134.5280  155.8903 H   0  0  0  0  0  0  0  0  0  0  0  0  # atno 11005 bound_to 11000
  145.3420  139.1729  143.4481 LP  0  0  0  0  0  0  0  0  0  0  0  0  # atno 17320 bound_to 7965
  146.3169  140.3462  142.8652 LP  0  0  0  0  0  0  0  0  0  0  0  0  # atno 17321 bound_to 7965
  140.4679  144.1629  150.5914 LP  0  0  0  0  0  0  0  0  0  0  0  0  # atno 17342 bound_to 10162
  140.4414  143.2525  151.9467 LP  0  0  0  0  0  0  0  0  0  0  0  0  # atno 17343 bound_to 10162
  157.4744  130.7728  149.7354 LP  0  0  0  0  0  0  0  0  0  0  0  0  # atno 17370 bound_to 10713
  155.9905  130.3944  150.3024 LP  0  0  0  0  0  0  0  0  0  0  0  0  # atno 17371 bound_to 10713
  141.2061  133.6652  156.6222 LP  0  0  0  0  0  0  0  0  0  0  0  0  # atno 17394 bound_to 11000
  140.3426  134.7836  157.4409 LP  0  0  0  0  0  0  0  0  0  0  0  0  # atno 17395 bound_to 11000

$$$$
