AV-unprocessed.smi:2252|AV-procd|sdf|9104|dock9
  -GOLD-   2272012303D 1   1.00000     0.00000
 Structure written by MMmdl.
 46 48  0  0  0  0  0  0  0  0  3 V2000
  146.9511  133.2696  151.7858 C   0  0  0  0  0  0  0  0  0  0  0  0
  145.6024  133.1630  151.2250 N   0  0  0  0  0  0  0  0  0  0  0  0
  144.9001  132.0048  151.0106 C   0  0  0  0  0  0  0  0  0  0  0  0
  143.6952  132.3700  150.4702 C   0  0  0  0  0  0  0  0  0  0  0  0
  143.7109  133.7351  150.3784 N   0  3  0  0  0  0  0  0  0  0  0  0
  144.8695  134.2216  150.8388 C   0  0  0  0  0  0  0  0  0  0  0  0
  145.2413  135.6749  150.8797 C   0  0  0  0  0  0  0  0  0  0  0  0
  145.2483  136.2699  152.2974 C   0  0  0  0  0  0  0  0  0  0  0  0
  146.4403  137.0784  152.5367 N   0  0  0  0  0  0  0  0  0  0  0  0
  146.4903  138.1619  153.3270 C   0  0  0  0  0  0  0  0  0  0  0  0
  145.5154  138.5944  153.9423 O   0  0  0  0  0  0  0  0  0  0  0  0
  147.8436  138.8847  153.4228 C   0  0  1  0  0  0  0  0  0  0  0  0
  147.6547  140.1665  154.2641 C   0  0  0  0  0  0  0  0  0  0  0  0
  147.1422  141.4430  153.6313 C   0  0  0  0  0  0  0  0  0  0  0  0
  148.5704  141.3610  154.1023 C   0  0  0  0  0  0  0  0  0  0  0  0
  148.9015  138.0086  154.0036 N   0  3  0  0  0  0  0  0  0  0  0  0
  150.2131  138.6556  154.2271 C   0  0  0  0  0  0  0  0  0  0  0  0
  150.9471  137.7233  155.1837 C   0  0  0  0  0  0  0  0  0  0  0  0
  149.8390  137.2035  156.0959 C   0  0  0  0  0  0  0  0  0  0  0  0
  148.5454  137.3401  155.2792 C   0  0  0  0  0  0  0  0  0  0  0  0
  147.3823  132.2734  151.8910 H   0  0  0  0  0  0  0  0  0  0  0  0
  146.8962  133.7458  152.7653 H   0  0  0  0  0  0  0  0  0  0  0  0
  147.5782  133.8621  151.1190 H   0  0  0  0  0  0  0  0  0  0  0  0
  145.2990  131.0298  151.2512 H   0  0  0  0  0  0  0  0  0  0  0  0
  142.8500  131.7764  150.1526 H   0  0  0  0  0  0  0  0  0  0  0  0
  146.2306  135.7580  150.4288 H   0  0  0  0  0  0  0  0  0  0  0  0
  144.5542  136.2217  150.2341 H   0  0  0  0  0  0  0  0  0  0  0  0
  144.3467  136.8699  152.4331 H   0  0  0  0  0  0  0  0  0  0  0  0
  145.2079  135.4708  153.0380 H   0  0  0  0  0  0  0  0  0  0  0  0
  147.2883  136.7907  152.0697 H   0  0  0  0  0  0  0  0  0  0  0  0
  148.1571  139.1646  152.4150 H   0  0  0  0  0  0  0  0  0  0  0  0
  147.2945  139.9758  155.2740 H   0  0  0  0  0  0  0  0  0  0  0  0
  146.9770  141.4502  152.5569 H   0  0  0  0  0  0  0  0  0  0  0  0
  146.4524  142.0511  154.2133 H   0  0  0  0  0  0  0  0  0  0  0  0
  148.8367  141.9138  155.0008 H   0  0  0  0  0  0  0  0  0  0  0  0
  149.3443  141.3133  153.3384 H   0  0  0  0  0  0  0  0  0  0  0  0
  150.7659  138.8040  153.2989 H   0  0  0  0  0  0  0  0  0  0  0  0
  150.0691  139.6301  154.6972 H   0  0  0  0  0  0  0  0  0  0  0  0
  151.3852  136.8943  154.6260 H   0  0  0  0  0  0  0  0  0  0  0  0
  151.7490  138.2213  155.7298 H   0  0  0  0  0  0  0  0  0  0  0  0
  150.0226  136.1768  156.4146 H   0  0  0  0  0  0  0  0  0  0  0  0
  149.7755  137.8202  156.9933 H   0  0  0  0  0  0  0  0  0  0  0  0
  147.8269  137.9345  155.8451 H   0  0  0  0  0  0  0  0  0  0  0  0
  148.0898  136.3703  155.0761 H   0  0  0  0  0  0  0  0  0  0  0  0
  149.0692  137.2674  153.3377 H   0  0  0  0  0  0  0  0  0  0  0  0
  142.9530  134.2998  150.0151 H   0  0  0  0  0  0  0  0  0  0  0  0
  1  2  1  0  0  0  0
  1 21  1  0  0  0  0
  1 22  1  0  0  0  0
  1 23  1  0  0  0  0
  2  6  1  0  0  0  0
  2  3  1  0  0  0  0
  3  4  2  0  0  0  0
  3 24  1  0  0  0  0
  4  5  1  0  0  0  0
  4 25  1  0  0  0  0
  5  6  2  0  0  0  0
  5 46  1  0  0  0  0
  6  7  1  0  0  0  0
  7  8  1  0  0  0  0
  7 26  1  0  0  0  0
  7 27  1  0  0  0  0
  8  9  1  0  0  0  0
  8 28  1  0  0  0  0
  8 29  1  0  0  0  0
  9 10  1  0  0  0  0
  9 30  1  0  0  0  0
 10 11  2  0  0  0  0
 10 12  1  0  0  0  0
 12 13  1  0  0  0  0
 12 16  1  0  0  0  0
 12 31  1  0  0  0  0
 13 15  1  0  0  0  0
 13 14  1  0  0  0  0
 13 32  1  0  0  0  0
 14 15  1  0  0  0  0
 14 33  1  0  0  0  0
 14 34  1  0  0  0  0
 15 35  1  0  0  0  0
 15 36  1  0  0  0  0
 16 20  1  0  0  0  0
 16 17  1  0  0  0  0
 16 45  1  0  0  0  0
 17 18  1  0  0  0  0
 17 37  1  0  0  0  0
 17 38  1  0  0  0  0
 18 19  1  0  0  0  0
 18 39  1  0  0  0  0
 18 40  1  0  0  0  0
 19 20  1  0  0  0  0
 19 41  1  0  0  0  0
 19 42  1  0  0  0  0
 20 43  1  0  0  0  0
 20 44  1  0  0  0  0
M  CHG  1   5   1
M  CHG  1  16   1
M  END
> <s_m_source_file>
AV-unprocessed.smi

> <i_m_source_file_index>
2252

> <i_lp_mmshare_version>
43012

> <i_f3d_flags>
0

> <s_epik_input>
W0NIM11uMVtjSF1bY0hdbmMxW0NIMl1bQ0gyXVtOSF1DKD1PKVtDQEhdKFtDSF0yW0NIMl1bQ0gyXTIpTjNbQ0gyXVtDSDJdW0NIMl1bQ0gyXTM=

> <s_epik_cmdline>
J2VwaWtfcHl0aG9uJywgJy1waCcsICc3LjAnLCAnLXRuJywgJzgnLCAnLW1hJywgJzIwMCcsICctbWV0YWxfYmluZGluZycsICctaW1hZScsICc8aW5maWxlLm1hZT4nLCAnLW9tYWUnLCAnPG91dGZpbGUubWFlPic=

> <r_lp_tautomer_probability>
1

> <r_epik_Ionization_Penalty>
0.116886

> <r_epik_Ionization_Penalty_Charging>
0.00955009

> <r_epik_Ionization_Penalty_Neutral>
0.107336

> <r_epik_State_Penalty>
0.0956868

> <r_epik_Charging_Adjusted_Penalty>
0.105237

> <i_epik_Tot_Q>
2

> <i_epik_Tot_abs_Q>
2

> <r_epik_Metal_State_Penalty>
0.438836

> <b_epik_Metal_Only>
0

> <s_lp_Force_Field>
OPLS_2005

> <r_lp_Energy>
43.7014

> <b_lp_Chiralities_Consistent>
1

> <s_lp_Variant>
AV-unprocessed.smi:2252-2

> <Gold.Version>
5.8.1

> <Gold.Id.Protein>
6NUR|6NUR_protein|mol2

> <Gold.PLP.Fitness>
51.6494

> <Gold.PLP.PLP>
-38.0547

> <Gold.PLP.part.hbond>
-3.0000

> <Gold.PLP.part.metal>
0.0000

> <Gold.PLP.part.buried>
-6.0661

> <Gold.PLP.part.nonpolar>
-29.8640

> <Gold.PLP.part.repulsive>
0.2005

> <Gold.PLP.ligand.clash>
0.0000

> <Gold.PLP.ligand.torsion>
1.2727

> <Gold.PLP.Chemscore.Hbond>
5.0000

> <Gold.PLP.Chemscore.CHOScore>
0.0000

> <Gold.PLP.Chemscore.Metal>
0.0000

> <Gold.Chemscore.Hbonds>
donor molecule, donor type, donor heavy atom, donor atom, acceptor molecule, acceptor atom, score
      L1  H     5    46       P1 10186  1.92
      L1  H     9    30       P1  7948  1.00
      L1  H    16    45       P1  7948  2.00

> <Gold.PLP.Chemscore.Internal.Correction>
1.1402

> <Gold.Rescore>
     Score         DG    S(hbond)    S(metal)    S(lipo)     H(rot)  DE(clash)    DE(int)     intcor
     18.33     -19.77       2.92        0.00      83.50       2.05       0.11       1.33       ----

> <Gold.Chemscore.Fitness>
18.3292

> <Gold.Chemscore.DG>
-19.7657

> <Gold.Chemscore.ZeroCoef>
-5.4800

> <Gold.Chemscore.Hbond>
2.9200

> <Gold.Chemscore.Metal>
0.0000

> <Gold.Chemscore.Lipo>
83.5017

> <Gold.Chemscore.Internal_Hbond>
0.0000

> <Gold.Chemscore.DEClash>
0.1066

> <Gold.Chemscore.DEInternal>
1.3298

> <Gold.Chemscore.Rot>
2.0456

> <Gold.Chemscore.Internal.Correction>
   9.000000E+99

> <Gold.Chemscore.Hbonds>
donor molecule, donor type, donor heavy atom, donor atom, acceptor molecule, acceptor atom, score
      L1  H     5    46       P1 10186  0.85
      L1  H     9    30       P1  7948  1.00
      L1  H    16    45       P1  7948  1.00

> <Gold.Chemscore.Hbond.Weighted>
-9.7528

> <Gold.Chemscore.Metal.Weighted>
-0.0000

> <Gold.Chemscore.Lipo.Weighted>
-9.7697

> <Gold.Chemscore.Internal_Hbond.Weighted>
0.0000

> <Gold.Chemscore.DEClash.Weighted>
0.1066

> <Gold.Chemscore.DEInternal.Weighted>
1.3298

> <Gold.Chemscore.Rot.Weighted>
5.2368

> <Gold.Chemscore.Internal.Correction.Weighted>
   9.000000E+99

> <Gold.Protein.RotatedTorsions>
[ 6907 6896 6895 6894 ] final -154.07 input  -60.11 | X-H torsion
[ 7974 7965 7964 7962 ] final   91.11 input  175.53 | X-H torsion
[ 8008 7997 7996 7995 ] final  148.26 input   59.86 | X-H torsion
[ 10167 10162 10161 10158 ] final  134.43 input  -65.29 | X-H torsion
[ 10718 10713 10712 10709 ] final  -46.80 input   66.30 | X-H torsion
[ 10763 10752 10751 10750 ] final  153.81 input  -60.55 | X-H torsion
[ 11005 11000 10999 10996 ] final   85.33 input  -57.11 | X-H torsion

> <Gold.Protein.ActiveResidues>
 VAL166  LYS551  ARG553  GLY616  TRP617  ASP618  TYR619  PRO620  LYS621  CYS622 
 ASP623  PHE694  ASN695  SER759  ASP760  ASP761  ALA762  ILE779  LEU786  VAL792 
 PHE793  MET794  SER795  GLU796  ALA797  LYS798  CYS799  TRP800  GLU811  SER814 

> <Gold.Protein.RotatedAtoms>
  151.2519  133.4345  159.2611 H   0  0  0  0  0  0  0  0  0  0  0  0  # atno 6907 bound_to 6896
  151.0609  134.9736  159.8270 H   0  0  0  0  0  0  0  0  0  0  0  0  # atno 6908 bound_to 6896
  152.5398  134.2470  159.8936 H   0  0  0  0  0  0  0  0  0  0  0  0  # atno 6909 bound_to 6896
  145.5100  139.2277  143.2730 H   0  0  0  0  0  0  0  0  0  0  0  0  # atno 7974 bound_to 7965
  156.2797  140.2133  156.5670 H   0  0  0  0  0  0  0  0  0  0  0  0  # atno 8008 bound_to 7997
  154.7167  140.0507  157.0624 H   0  0  0  0  0  0  0  0  0  0  0  0  # atno 8009 bound_to 7997
  155.0533  140.3158  155.4687 H   0  0  0  0  0  0  0  0  0  0  0  0  # atno 8010 bound_to 7997
  139.5256  144.6567  151.5138 H   0  0  0  0  0  0  0  0  0  0  0  0  # atno 10167 bound_to 10162
  156.2147  130.4162  149.9069 H   0  0  0  0  0  0  0  0  0  0  0  0  # atno 10718 bound_to 10713
  154.1423  135.2820  155.3157 H   0  0  0  0  0  0  0  0  0  0  0  0  # atno 10763 bound_to 10752
  154.6278  135.5445  153.7650 H   0  0  0  0  0  0  0  0  0  0  0  0  # atno 10764 bound_to 10752
  153.0247  135.6455  154.1569 H   0  0  0  0  0  0  0  0  0  0  0  0  # atno 10765 bound_to 10752
  139.8974  134.8279  156.2567 H   0  0  0  0  0  0  0  0  0  0  0  0  # atno 11005 bound_to 11000
  146.2172  140.5906  142.9033 LP  0  0  0  0  0  0  0  0  0  0  0  0  # atno 17320 bound_to 7965
  144.7733  140.5684  143.6655 LP  0  0  0  0  0  0  0  0  0  0  0  0  # atno 17321 bound_to 7965
  140.6397  143.8914  150.6680 LP  0  0  0  0  0  0  0  0  0  0  0  0  # atno 17342 bound_to 10162
  140.2245  143.3783  152.1616 LP  0  0  0  0  0  0  0  0  0  0  0  0  # atno 17343 bound_to 10162
  156.6735  130.8830  151.3565 LP  0  0  0  0  0  0  0  0  0  0  0  0  # atno 17370 bound_to 10713
  157.7057  130.9382  150.0924 LP  0  0  0  0  0  0  0  0  0  0  0  0  # atno 17371 bound_to 10713
  141.0189  133.7053  156.1234 LP  0  0  0  0  0  0  0  0  0  0  0  0  # atno 17394 bound_to 11000
  140.7262  134.4304  157.5570 LP  0  0  0  0  0  0  0  0  0  0  0  0  # atno 17395 bound_to 11000

$$$$
