AV-unprocessed.smi:109|AV-procd|sdf|1032|dock3
  -GOLD-   2262018 43D 1   1.00000     0.00000
 Structure written by MMmdl.
 58 61  0  0  0  0  0  0  0  0  1 V2000
  149.9404  140.1936  153.9489 O   0  0  0  0  0  0  0  0  0  0  0  0
  149.4077  141.1796  154.8062 C   0  0  0  0  0  0  0  0  0  0  0  0
  150.4336  141.5362  155.8936 C   0  0  0  0  0  0  0  0  0  0  0  0
  149.7791  141.8768  157.2473 C   0  0  1  0  0  0  0  0  0  0  0  0
  149.1451  140.6871  157.8196 N   0  0  0  0  0  0  0  0  0  0  0  0
  147.8870  140.3086  157.5001 C   0  0  0  0  0  0  0  0  0  0  0  0
  146.8052  140.7997  158.1584 N   0  0  0  0  0  0  0  0  0  0  0  0
  145.5755  140.4090  157.8116 C   0  0  0  0  0  0  0  0  0  0  0  0
  145.2115  139.5536  156.8544 N   0  0  0  0  0  0  0  0  0  0  0  0
  146.2936  139.0527  156.1911 C   0  0  0  0  0  0  0  0  0  0  0  0
  147.6536  139.3789  156.4539 C   0  0  0  0  0  0  0  0  0  0  0  0
  148.4809  138.6817  155.5836 N   0  0  0  0  0  0  0  0  0  0  0  0
  147.6537  137.9877  154.8491 C   0  0  0  0  0  0  0  0  0  0  0  0
  146.3188  138.1489  155.1481 N   0  0  0  0  0  0  0  0  0  0  0  0
  145.1517  137.4952  154.4817 C   0  0  2  0  0  0  0  0  0  0  0  0
  145.1469  136.1472  154.8398 O   0  0  0  0  0  0  0  0  0  0  0  0
  144.8346  135.3501  153.7031 C   0  0  2  0  0  0  0  0  0  0  0  0
  145.3897  133.9312  153.8973 C   0  0  0  0  0  0  0  0  0  0  0  0
  144.5832  132.9993  153.2097 O   0  0  0  0  0  0  0  0  0  0  0  0
  145.5090  136.1204  152.5664 C   0  0  1  0  0  0  0  0  0  0  0  0
  145.0036  135.7828  151.2876 O   0  0  0  0  0  0  0  0  0  0  0  0
  145.2682  137.5788  152.9504 C   0  0  1  0  0  0  0  0  0  0  0  0
  144.0741  138.0913  152.3856 O   0  0  0  0  0  0  0  0  0  0  0  0
  150.7690  142.5227  158.2491 C   0  0  0  0  0  0  0  0  0  0  0  0
  151.4623  143.7985  157.7150 C   0  0  0  0  0  0  0  0  0  0  0  0
  152.3994  144.4154  158.7665 C   0  0  0  0  0  0  0  0  0  0  0  0
  153.4372  143.3954  159.2585 C   0  0  0  0  0  0  0  0  0  0  0  0
  152.7540  142.1317  159.8019 C   0  0  0  0  0  0  0  0  0  0  0  0
  151.8207  141.5089  158.7515 C   0  0  0  0  0  0  0  0  0  0  0  0
  144.2772  138.0079  154.8855 H   0  0  0  0  0  0  0  0  0  0  0  0
  143.7529  135.3398  153.5528 H   0  0  0  0  0  0  0  0  0  0  0  0
  146.5801  135.9181  152.5737 H   0  0  0  0  0  0  0  0  0  0  0  0
  146.1006  138.2175  152.6504 H   0  0  0  0  0  0  0  0  0  0  0  0
  149.4945  140.2470  153.1174 H   0  0  0  0  0  0  0  0  0  0  0  0
  149.1479  142.0599  154.2176 H   0  0  0  0  0  0  0  0  0  0  0  0
  148.4864  140.7994  155.2486 H   0  0  0  0  0  0  0  0  0  0  0  0
  151.1395  140.7131  156.0115 H   0  0  0  0  0  0  0  0  0  0  0  0
  151.0157  142.3930  155.5516 H   0  0  0  0  0  0  0  0  0  0  0  0
  149.0370  142.6433  157.0275 H   0  0  0  0  0  0  0  0  0  0  0  0
  149.7144  140.1688  158.4733 H   0  0  0  0  0  0  0  0  0  0  0  0
  144.7681  140.8452  158.3810 H   0  0  0  0  0  0  0  0  0  0  0  0
  147.9986  137.3320  154.0627 H   0  0  0  0  0  0  0  0  0  0  0  0
  146.3956  133.8620  153.4821 H   0  0  0  0  0  0  0  0  0  0  0  0
  145.4568  133.6709  154.9543 H   0  0  0  0  0  0  0  0  0  0  0  0
  143.8670  132.7507  153.7740 H   0  0  0  0  0  0  0  0  0  0  0  0
  145.5361  136.2067  150.6320 H   0  0  0  0  0  0  0  0  0  0  0  0
  144.0564  139.0266  152.5183 H   0  0  0  0  0  0  0  0  0  0  0  0
  150.1840  142.8180  159.1217 H   0  0  0  0  0  0  0  0  0  0  0  0
  152.0364  143.5674  156.8172 H   0  0  0  0  0  0  0  0  0  0  0  0
  150.7207  144.5423  157.4245 H   0  0  0  0  0  0  0  0  0  0  0  0
  152.9047  145.2864  158.3482 H   0  0  0  0  0  0  0  0  0  0  0  0
  151.8125  144.7759  159.6123 H   0  0  0  0  0  0  0  0  0  0  0  0
  154.1046  143.1271  158.4384 H   0  0  0  0  0  0  0  0  0  0  0  0
  154.0612  143.8436  160.0324 H   0  0  0  0  0  0  0  0  0  0  0  0
  153.5066  141.4046  160.1080 H   0  0  0  0  0  0  0  0  0  0  0  0
  152.1828  142.3808  160.6971 H   0  0  0  0  0  0  0  0  0  0  0  0
  151.3239  140.6369  159.1783 H   0  0  0  0  0  0  0  0  0  0  0  0
  152.4183  141.1428  157.9158 H   0  0  0  0  0  0  0  0  0  0  0  0
  1  2  1  0  0  0  0
  1 34  1  0  0  0  0
  2  3  1  0  0  0  0
  2 35  1  0  0  0  0
  2 36  1  0  0  0  0
  3  4  1  0  0  0  0
  3 37  1  0  0  0  0
  3 38  1  0  0  0  0
  4  5  1  0  0  0  0
  4 24  1  0  0  0  0
  4 39  1  0  0  0  0
  5  6  1  0  0  0  0
  5 40  1  0  0  0  0
  6 11  1  0  0  0  0
  6  7  2  0  0  0  0
  7  8  1  0  0  0  0
  8  9  2  0  0  0  0
  8 41  1  0  0  0  0
  9 10  1  0  0  0  0
 10 14  1  0  0  0  0
 10 11  2  0  0  0  0
 11 12  1  0  0  0  0
 12 13  2  0  0  0  0
 13 14  1  0  0  0  0
 13 42  1  0  0  0  0
 14 15  1  0  0  0  0
 15 30  1  0  0  0  0
 15 22  1  0  0  0  0
 15 16  1  0  0  0  0
 16 17  1  0  0  0  0
 17 31  1  0  0  0  0
 17 18  1  0  0  0  0
 17 20  1  0  0  0  0
 18 19  1  0  0  0  0
 18 43  1  0  0  0  0
 18 44  1  0  0  0  0
 19 45  1  0  0  0  0
 20 32  1  0  0  0  0
 20 21  1  0  0  0  0
 20 22  1  0  0  0  0
 21 46  1  0  0  0  0
 22 33  1  0  0  0  0
 22 23  1  0  0  0  0
 23 47  1  0  0  0  0
 24 29  1  0  0  0  0
 24 25  1  0  0  0  0
 24 48  1  0  0  0  0
 25 26  1  0  0  0  0
 25 49  1  0  0  0  0
 25 50  1  0  0  0  0
 26 27  1  0  0  0  0
 26 51  1  0  0  0  0
 26 52  1  0  0  0  0
 27 28  1  0  0  0  0
 27 53  1  0  0  0  0
 27 54  1  0  0  0  0
 28 29  1  0  0  0  0
 28 55  1  0  0  0  0
 28 56  1  0  0  0  0
 29 57  1  0  0  0  0
 29 58  1  0  0  0  0
M  END
> <s_m_source_file>
AV-unprocessed.smi

> <i_m_source_file_index>
109

> <i_lp_mmshare_version>
43012

> <i_f3d_flags>
0

> <s_epik_input>
W0NIMl0xW0NIMl1bQ0gyXVtDSDJdW0NIMl1bQ0hdMVtDQEhdKFtDSDJdW0NIMl1bT0hdKVtOSF1jKG5bY0hdbjIpYyhjMjMpbltjSF1uM1tDQEBIXTRPW0NASF0oW0NIMl1bT0hdKVtDQEBIXShbT0hdKVtDQEhdNFtPSF0=

> <s_epik_cmdline>
J2VwaWtfcHl0aG9uJywgJy1waCcsICc3LjAnLCAnLXRuJywgJzgnLCAnLW1hJywgJzIwMCcsICctbWV0YWxfYmluZGluZycsICctaW1hZScsICc8aW5maWxlLm1hZT4nLCAnLW9tYWUnLCAnPG91dGZpbGUubWFlPic=

> <r_lp_tautomer_probability>
1

> <r_epik_Ionization_Penalty>
0.000793976

> <r_epik_Ionization_Penalty_Charging>
0

> <r_epik_Ionization_Penalty_Neutral>
0.000793976

> <r_epik_State_Penalty>
-0

> <r_epik_Charging_Adjusted_Penalty>
0

> <i_epik_Tot_Q>
0

> <i_epik_Tot_abs_Q>
0

> <r_epik_Metal_State_Penalty>
-0

> <b_epik_Metal_Only>
0

> <s_epik_Chemistry_Notes>
This compound contains an acetal/aminal-like group ( X-CH(R)-Y where X, Y are N, S, or O) that may be acid/base labile, releasing an aldehyde.

> <s_lp_Force_Field>
OPLS_2005

> <r_lp_Energy>
54.9407

> <b_lp_Chiralities_Consistent>
1

> <s_lp_Variant>
AV-unprocessed.smi:109-2

> <Gold.Version>
5.8.1

> <Gold.Id.Protein>
6NUR|6NUR_protein|mol2

> <Gold.PLP.Fitness>
50.4906

> <Gold.PLP.PLP>
-40.1642

> <Gold.PLP.part.hbond>
-5.2747

> <Gold.PLP.part.metal>
0.0000

> <Gold.PLP.part.buried>
-6.9925

> <Gold.PLP.part.nonpolar>
-28.9682

> <Gold.PLP.part.repulsive>
0.2228

> <Gold.PLP.ligand.clash>
0.0000

> <Gold.PLP.ligand.torsion>
2.1033

> <Gold.PLP.Chemscore.Hbond>
3.7913

> <Gold.PLP.Chemscore.CHOScore>
1.0000

> <Gold.PLP.Chemscore.Metal>
0.0000

> <Gold.Chemscore.Hbonds>
donor molecule, donor type, donor heavy atom, donor atom, acceptor molecule, acceptor atom, score
      L1  H     1    34       P1  7957  0.94
      L1  H    19    45       P1 10957  1.00
      L1  H    23    47       P1 10175  0.84
      P1  H  7989  7998       L1     1  0.82
      L1  C    13    42       P1  7948  0.74

> <Gold.PLP.Chemscore.Internal.Correction>
0.1592

> <Gold.Rescore>
     Score         DG    S(hbond)    S(metal)    S(lipo)     H(rot)  DE(clash)    DE(int)     intcor
      8.89     -12.77       2.89        0.00      99.28       5.47       0.11       3.77       ----

> <Gold.Chemscore.Fitness>
8.8862

> <Gold.Chemscore.DG>
-12.7687

> <Gold.Chemscore.ZeroCoef>
-5.4800

> <Gold.Chemscore.Hbond>
2.8940

> <Gold.Chemscore.Metal>
0.0000

> <Gold.Chemscore.Lipo>
99.2829

> <Gold.Chemscore.Internal_Hbond>
0.0000

> <Gold.Chemscore.DEClash>
0.1145

> <Gold.Chemscore.DEInternal>
3.7680

> <Gold.Chemscore.Rot>
5.4662

> <Gold.Chemscore.Internal.Correction>
   9.000000E+99

> <Gold.Chemscore.Hbonds>
donor molecule, donor type, donor heavy atom, donor atom, acceptor molecule, acceptor atom, score
      L1  H     1    34       P1  7957  0.89
      L1  H    19    45       P1 10957  0.78
      L1  H    23    47       P1 10175  0.82
      P1  H  7989  7998       L1     1  0.09

> <Gold.Chemscore.Hbond.Weighted>
-9.6661

> <Gold.Chemscore.Metal.Weighted>
-0.0000

> <Gold.Chemscore.Lipo.Weighted>
-11.6161

> <Gold.Chemscore.Internal_Hbond.Weighted>
0.0000

> <Gold.Chemscore.DEClash.Weighted>
0.1145

> <Gold.Chemscore.DEInternal.Weighted>
3.7680

> <Gold.Chemscore.Rot.Weighted>
13.9935

> <Gold.Chemscore.Internal.Correction.Weighted>
   9.000000E+99

> <Gold.Protein.RotatedTorsions>
[ 6907 6896 6895 6894 ] final -128.06 input  -60.11 | X-H torsion
[ 7974 7965 7964 7962 ] final -134.09 input  175.53 | X-H torsion
[ 8008 7997 7996 7995 ] final  -30.25 input   59.86 | X-H torsion
[ 10167 10162 10161 10158 ] final  -68.16 input  -65.29 | X-H torsion
[ 10718 10713 10712 10709 ] final  112.19 input   66.30 | X-H torsion
[ 10763 10752 10751 10750 ] final  -20.00 input  -60.55 | X-H torsion
[ 11005 11000 10999 10996 ] final  115.42 input  -57.11 | X-H torsion

> <Gold.Protein.ActiveResidues>
 VAL166  LYS551  ARG553  GLY616  TRP617  ASP618  TYR619  PRO620  LYS621  CYS622 
 ASP623  PHE694  ASN695  SER759  ASP760  ASP761  ALA762  ILE779  LEU786  VAL792 
 PHE793  MET794  SER795  GLU796  ALA797  LYS798  CYS799  TRP800  GLU811  SER814 

> <Gold.Protein.RotatedAtoms>
  150.9139  133.6964  159.2847 H   0  0  0  0  0  0  0  0  0  0  0  0  # atno 6907 bound_to 6896
  151.4441  135.1022  159.9688 H   0  0  0  0  0  0  0  0  0  0  0  0  # atno 6908 bound_to 6896
  152.4944  133.8540  159.7271 H   0  0  0  0  0  0  0  0  0  0  0  0  # atno 6909 bound_to 6896
  144.9134  140.6924  143.5011 H   0  0  0  0  0  0  0  0  0  0  0  0  # atno 7974 bound_to 7965
  154.4257  140.1796  156.1378 H   0  0  0  0  0  0  0  0  0  0  0  0  # atno 8008 bound_to 7997
  156.0016  140.3359  155.6826 H   0  0  0  0  0  0  0  0  0  0  0  0  # atno 8009 bound_to 7997
  155.6235  140.0662  157.2662 H   0  0  0  0  0  0  0  0  0  0  0  0  # atno 8010 bound_to 7997
  140.5528  143.2312  151.6878 H   0  0  0  0  0  0  0  0  0  0  0  0  # atno 10167 bound_to 10162
  157.6406  131.0963  150.6858 H   0  0  0  0  0  0  0  0  0  0  0  0  # atno 10718 bound_to 10713
  153.6135  135.6995  153.5337 H   0  0  0  0  0  0  0  0  0  0  0  0  # atno 10763 bound_to 10752
  153.2997  135.4132  155.1241 H   0  0  0  0  0  0  0  0  0  0  0  0  # atno 10764 bound_to 10752
  154.8558  135.3645  154.5674 H   0  0  0  0  0  0  0  0  0  0  0  0  # atno 10765 bound_to 10752
  139.9009  134.9583  156.7043 H   0  0  0  0  0  0  0  0  0  0  0  0  # atno 11005 bound_to 11000
  145.3416  139.1730  143.4482 LP  0  0  0  0  0  0  0  0  0  0  0  0  # atno 17320 bound_to 7965
  146.3170  140.3458  142.8652 LP  0  0  0  0  0  0  0  0  0  0  0  0  # atno 17321 bound_to 7965
  139.5035  144.3790  152.0395 LP  0  0  0  0  0  0  0  0  0  0  0  0  # atno 17342 bound_to 10162
  140.2908  144.3755  150.6089 LP  0  0  0  0  0  0  0  0  0  0  0  0  # atno 17343 bound_to 10162
  156.7183  130.4673  149.5529 LP  0  0  0  0  0  0  0  0  0  0  0  0  # atno 17370 bound_to 10713
  156.1683  130.6420  151.0805 LP  0  0  0  0  0  0  0  0  0  0  0  0  # atno 17371 bound_to 10713
  140.7126  133.9210  155.8094 LP  0  0  0  0  0  0  0  0  0  0  0  0  # atno 17394 bound_to 11000
  141.0289  134.0785  157.4037 LP  0  0  0  0  0  0  0  0  0  0  0  0  # atno 17395 bound_to 11000

$$$$
