AV-unprocessed.smi:1518|AV-procd|sdf|6125|dock4
  -GOLD-   22720 6263D 1   1.00000     0.00000
 Structure written by MMmdl.
 45 47  0  0  0  0  0  0  0  0  1 V2000
  155.6983  132.9454  160.2429 C   0  0  0  0  0  0  0  0  0  0  0  0
  155.4613  132.9155  161.7521 C   0  0  0  0  0  0  0  0  0  0  0  0
  155.6997  131.8752  162.3651 O   0  0  0  0  0  0  0  0  0  0  0  0
  154.9527  134.1566  162.4046 C   0  0  0  0  0  0  0  0  0  0  0  0
  154.6482  134.1343  163.7844 C   0  0  0  0  0  0  0  0  0  0  0  0
  154.1688  135.2893  164.4277 C   0  0  0  0  0  0  0  0  0  0  0  0
  153.9874  136.4775  163.6983 C   0  0  0  0  0  0  0  0  0  0  0  0
  154.2800  136.5278  162.3213 C   0  0  0  0  0  0  0  0  0  0  0  0
  154.0683  137.7328  161.6855 O   0  0  0  0  0  0  0  0  0  0  0  0
  154.5502  137.8940  160.3576 C   0  0  0  0  0  0  0  0  0  0  0  0
  154.0728  139.2511  159.8159 C   0  0  1  0  0  0  0  0  0  0  0  0
  155.0864  139.7884  158.9892 O   0  0  0  0  0  0  0  0  0  0  0  0
  152.7716  139.1166  158.9977 C   0  0  0  0  0  0  0  0  0  0  0  0
  152.1890  140.4037  158.6349 N   0  0  0  0  0  0  0  0  0  0  0  0
  151.5586  140.7504  157.4827 C   0  0  0  0  0  0  0  0  0  0  0  0
  151.3696  139.7945  156.3438 C   0  0  0  0  0  0  0  0  0  0  0  0
  151.9597  140.2440  155.1439 O   0  0  0  0  0  0  0  0  0  0  0  0
  151.1176  142.0072  157.4188 N   0  0  0  0  0  0  0  0  0  0  0  0
  151.5035  142.5286  158.6376 C   0  0  0  0  0  0  0  0  0  0  0  0
  151.3302  143.8228  159.1783 C   0  0  0  0  0  0  0  0  0  0  0  0
  151.8198  144.1303  160.4645 C   0  0  0  0  0  0  0  0  0  0  0  0
  152.4876  143.1502  161.2268 C   0  0  0  0  0  0  0  0  0  0  0  0
  152.6703  141.8544  160.7067 C   0  0  0  0  0  0  0  0  0  0  0  0
  152.1795  141.5521  159.4222 C   0  0  0  0  0  0  0  0  0  0  0  0
  154.7650  135.3591  161.6798 C   0  0  0  0  0  0  0  0  0  0  0  0
  156.4320  133.7098  159.9867 H   0  0  0  0  0  0  0  0  0  0  0  0
  154.7692  133.1568  159.7134 H   0  0  0  0  0  0  0  0  0  0  0  0
  156.0754  131.9826  159.8972 H   0  0  0  0  0  0  0  0  0  0  0  0
  154.7797  133.2322  164.3649 H   0  0  0  0  0  0  0  0  0  0  0  0
  153.9399  135.2637  165.4830 H   0  0  0  0  0  0  0  0  0  0  0  0
  153.6188  137.3599  164.2008 H   0  0  0  0  0  0  0  0  0  0  0  0
  155.6379  137.8163  160.3097 H   0  0  0  0  0  0  0  0  0  0  0  0
  154.1305  137.0956  159.7434 H   0  0  0  0  0  0  0  0  0  0  0  0
  153.9058  139.9322  160.6496 H   0  0  0  0  0  0  0  0  0  0  0  0
  155.8915  139.3256  159.1653 H   0  0  0  0  0  0  0  0  0  0  0  0
  152.9605  138.5526  158.0833 H   0  0  0  0  0  0  0  0  0  0  0  0
  152.0341  138.5382  159.5528 H   0  0  0  0  0  0  0  0  0  0  0  0
  151.8151  138.8340  156.6054 H   0  0  0  0  0  0  0  0  0  0  0  0
  150.3082  139.6069  156.1846 H   0  0  0  0  0  0  0  0  0  0  0  0
  152.8606  139.9592  155.1280 H   0  0  0  0  0  0  0  0  0  0  0  0
  150.8201  144.5800  158.6017 H   0  0  0  0  0  0  0  0  0  0  0  0
  151.6823  145.1229  160.8677 H   0  0  0  0  0  0  0  0  0  0  0  0
  152.8593  143.3936  162.2113 H   0  0  0  0  0  0  0  0  0  0  0  0
  153.1798  141.1010  161.2891 H   0  0  0  0  0  0  0  0  0  0  0  0
  154.9948  135.3826  160.6265 H   0  0  0  0  0  0  0  0  0  0  0  0
  1  2  1  0  0  0  0
  1 26  1  0  0  0  0
  1 27  1  0  0  0  0
  1 28  1  0  0  0  0
  2  3  2  0  0  0  0
  2  4  1  0  0  0  0
  4 25  1  0  0  0  0
  4  5  2  0  0  0  0
  5  6  1  0  0  0  0
  5 29  1  0  0  0  0
  6  7  2  0  0  0  0
  6 30  1  0  0  0  0
  7  8  1  0  0  0  0
  7 31  1  0  0  0  0
  8  9  1  0  0  0  0
  8 25  2  0  0  0  0
  9 10  1  0  0  0  0
 10 11  1  0  0  0  0
 10 32  1  0  0  0  0
 10 33  1  0  0  0  0
 11 12  1  0  0  0  0
 11 13  1  0  0  0  0
 11 34  1  0  0  0  0
 12 35  1  0  0  0  0
 13 14  1  0  0  0  0
 13 36  1  0  0  0  0
 13 37  1  0  0  0  0
 14 24  1  0  0  0  0
 14 15  1  0  0  0  0
 15 16  1  0  0  0  0
 15 18  2  0  0  0  0
 16 17  1  0  0  0  0
 16 38  1  0  0  0  0
 16 39  1  0  0  0  0
 17 40  1  0  0  0  0
 18 19  1  0  0  0  0
 19 24  2  0  0  0  0
 19 20  1  0  0  0  0
 20 21  2  0  0  0  0
 20 41  1  0  0  0  0
 21 22  1  0  0  0  0
 21 42  1  0  0  0  0
 22 23  2  0  0  0  0
 22 43  1  0  0  0  0
 23 24  1  0  0  0  0
 23 44  1  0  0  0  0
 25 45  1  0  0  0  0
M  END
> <s_m_source_file>
AV-unprocessed.smi

> <i_m_source_file_index>
1518

> <i_lp_mmshare_version>
43012

> <i_f3d_flags>
0

> <s_epik_input>
W0NIM11DKD1PKWMxW2NIXVtjSF1bY0hdYyhbY0hdMSlPW0NIMl1bQ0BIXShbT0hdKVtDSDJdbihjKG4yKVtDSDJdW09IXSljKGMyMylbY0hdW2NIXVtjSF1bY0hdMw==

> <s_epik_cmdline>
J2VwaWtfcHl0aG9uJywgJy1waCcsICc3LjAnLCAnLXRuJywgJzgnLCAnLW1hJywgJzIwMCcsICctbWV0YWxfYmluZGluZycsICctaW1hZScsICc8aW5maWxlLm1hZT4nLCAnLW9tYWUnLCAnPG91dGZpbGUubWFlPic=

> <r_lp_tautomer_probability>
0.99995

> <r_epik_Ionization_Penalty>
0.0583159

> <r_epik_Ionization_Penalty_Charging>
0

> <r_epik_Ionization_Penalty_Neutral>
0.0583159

> <r_epik_State_Penalty>
0.0503525

> <r_epik_Charging_Adjusted_Penalty>
0.0503525

> <i_epik_Tot_Q>
0

> <i_epik_Tot_abs_Q>
0

> <r_epik_Metal_State_Penalty>
5.25517e-05

> <b_epik_Metal_Only>
0

> <s_lp_Force_Field>
OPLS_2005

> <r_lp_Energy>
23.8716

> <b_lp_Chiralities_Consistent>
1

> <s_lp_Variant>
AV-unprocessed.smi:1518-2

> <Gold.Version>
5.8.1

> <Gold.Id.Protein>
6NUR|6NUR_protein|mol2

> <Gold.PLP.Fitness>
52.9805

> <Gold.PLP.PLP>
-48.8586

> <Gold.PLP.part.hbond>
-2.0000

> <Gold.PLP.part.metal>
0.0000

> <Gold.PLP.part.buried>
-3.3533

> <Gold.PLP.part.nonpolar>
-43.0956

> <Gold.PLP.part.repulsive>
0.0537

> <Gold.PLP.ligand.clash>
0.0000

> <Gold.PLP.ligand.torsion>
0.9518

> <Gold.PLP.Chemscore.Hbond>
1.8960

> <Gold.PLP.Chemscore.CHOScore>
0.0000

> <Gold.PLP.Chemscore.Metal>
0.0000

> <Gold.Chemscore.Hbonds>
donor molecule, donor type, donor heavy atom, donor atom, acceptor molecule, acceptor atom, score
      P1  H  7989  7998       L1    17  0.77
      P1  H  7997  8008       L1    12  1.00

> <Gold.PLP.Chemscore.Internal.Correction>
0.3375

> <Gold.Rescore>
     Score         DG    S(hbond)    S(metal)    S(lipo)     H(rot)  DE(clash)    DE(int)     intcor
     17.86     -18.80       1.69        0.00     136.58       3.25       0.06       0.89       ----

> <Gold.Chemscore.Fitness>
17.8558

> <Gold.Chemscore.DG>
-18.8035

> <Gold.Chemscore.ZeroCoef>
-5.4800

> <Gold.Chemscore.Hbond>
1.6943

> <Gold.Chemscore.Metal>
0.0000

> <Gold.Chemscore.Lipo>
136.5821

> <Gold.Chemscore.Internal_Hbond>
0.0000

> <Gold.Chemscore.DEClash>
0.0601

> <Gold.Chemscore.DEInternal>
0.8876

> <Gold.Chemscore.Rot>
3.2482

> <Gold.Chemscore.Internal.Correction>
   9.000000E+99

> <Gold.Chemscore.Hbonds>
donor molecule, donor type, donor heavy atom, donor atom, acceptor molecule, acceptor atom, score
      P1  H  7989  7998       L1    17  0.35
      P1  H  7997  8008       L1    12  0.39

> <Gold.Chemscore.Hbond.Weighted>
-5.6589

> <Gold.Chemscore.Metal.Weighted>
-0.0000

> <Gold.Chemscore.Lipo.Weighted>
-15.9801

> <Gold.Chemscore.Internal_Hbond.Weighted>
0.0000

> <Gold.Chemscore.DEClash.Weighted>
0.0601

> <Gold.Chemscore.DEInternal.Weighted>
0.8876

> <Gold.Chemscore.Rot.Weighted>
8.3155

> <Gold.Chemscore.Internal.Correction.Weighted>
   9.000000E+99

> <Gold.Protein.RotatedTorsions>
[ 6907 6896 6895 6894 ] final  109.53 input  -60.11 | X-H torsion
[ 7974 7965 7964 7962 ] final -106.03 input  175.53 | X-H torsion
[ 8008 7997 7996 7995 ] final -121.34 input   59.86 | X-H torsion
[ 10167 10162 10161 10158 ] final   19.80 input  -65.29 | X-H torsion
[ 10718 10713 10712 10709 ] final  -55.50 input   66.30 | X-H torsion
[ 10763 10752 10751 10750 ] final  -49.31 input  -60.55 | X-H torsion
[ 11005 11000 10999 10996 ] final  104.53 input  -57.11 | X-H torsion

> <Gold.Protein.ActiveResidues>
 VAL166  LYS551  ARG553  GLY616  TRP617  ASP618  TYR619  PRO620  LYS621  CYS622 
 ASP623  PHE694  ASN695  SER759  ASP760  ASP761  ALA762  ILE779  LEU786  VAL792 
 PHE793  MET794  SER795  GLU796  ALA797  LYS798  CYS799  TRP800  GLU811  SER814 

> <Gold.Protein.RotatedAtoms>
  152.5063  133.8931  159.7403 H   0  0  0  0  0  0  0  0  0  0  0  0  # atno 6907 bound_to 6896
  150.9365  133.6697  159.2806 H   0  0  0  0  0  0  0  0  0  0  0  0  # atno 6908 bound_to 6896
  151.4023  135.0978  159.9612 H   0  0  0  0  0  0  0  0  0  0  0  0  # atno 6909 bound_to 6896
  145.2230  140.9141  143.3248 H   0  0  0  0  0  0  0  0  0  0  0  0  # atno 7974 bound_to 7965
  155.1465  140.0403  157.2811 H   0  0  0  0  0  0  0  0  0  0  0  0  # atno 8008 bound_to 7997
  154.6435  140.2552  155.7268 H   0  0  0  0  0  0  0  0  0  0  0  0  # atno 8009 bound_to 7997
  156.2544  140.2851  156.0839 H   0  0  0  0  0  0  0  0  0  0  0  0  # atno 8010 bound_to 7997
  140.5551  143.9438  150.6604 H   0  0  0  0  0  0  0  0  0  0  0  0  # atno 10167 bound_to 10162
  156.1363  130.4156  150.0180 H   0  0  0  0  0  0  0  0  0  0  0  0  # atno 10718 bound_to 10713
  154.0920  135.6576  153.4854 H   0  0  0  0  0  0  0  0  0  0  0  0  # atno 10763 bound_to 10752
  153.0318  135.5204  154.7371 H   0  0  0  0  0  0  0  0  0  0  0  0  # atno 10764 bound_to 10752
  154.6497  135.2999  154.9970 H   0  0  0  0  0  0  0  0  0  0  0  0  # atno 10765 bound_to 10752
  139.8793  134.9304  156.5376 H   0  0  0  0  0  0  0  0  0  0  0  0  # atno 11005 bound_to 11000
  144.9748  139.3843  143.6291 LP  0  0  0  0  0  0  0  0  0  0  0  0  # atno 17320 bound_to 7965
  146.3371  139.8861  142.8816 LP  0  0  0  0  0  0  0  0  0  0  0  0  # atno 17321 bound_to 7965
  140.2874  143.3347  152.1094 LP  0  0  0  0  0  0  0  0  0  0  0  0  # atno 17342 bound_to 10162
  139.5044  144.6775  151.6091 LP  0  0  0  0  0  0  0  0  0  0  0  0  # atno 17343 bound_to 10162
  156.8078  130.9314  151.3645 LP  0  0  0  0  0  0  0  0  0  0  0  0  # atno 17370 bound_to 10713
  157.6535  130.8905  149.9682 LP  0  0  0  0  0  0  0  0  0  0  0  0  # atno 17371 bound_to 10713
  140.8334  133.8261  155.9006 LP  0  0  0  0  0  0  0  0  0  0  0  0  # atno 17394 bound_to 11000
  140.9307  134.2026  157.4866 LP  0  0  0  0  0  0  0  0  0  0  0  0  # atno 17395 bound_to 11000

$$$$
