AV-unprocessed.smi:39|AV-procd|sdf|361|dock7
  -GOLD-   2262016203D 1   1.00000     0.00000
 Structure written by MMmdl.
 31 32  0  0  0  0  0  0  0  0  4 V2000
  150.8293  142.9596  159.1336 C   0  0  0  0  0  0  0  0  0  0  0  0
  151.0574  141.9725  158.0022 C   0  0  0  0  0  0  0  0  0  0  0  0
  150.2563  141.9231  156.9150 C   0  0  0  0  0  0  0  0  0  0  0  0
  150.4634  141.0258  155.8811 N   0  0  0  0  0  0  0  0  0  0  0  0
  149.5857  141.0744  154.6460 C   0  0  1  0  0  0  0  0  0  0  0  0
  149.0708  139.7056  154.1867 C   0  0  0  0  0  0  0  0  0  0  0  0
  147.8114  140.1318  153.4536 C   0  0  1  0  0  0  0  0  0  0  0  0
  146.8260  139.0601  153.2763 N   0  0  0  0  0  0  0  0  0  0  0  0
  146.6225  138.6836  152.1148 N   0  3  0  0  0  0  0  0  0  0  0  0
  146.4857  138.2284  151.0807 N   0  5  0  0  0  0  0  0  0  0  0  0
  147.3198  141.3206  154.3053 C   0  0  1  0  0  0  0  0  0  0  0  0
  146.2464  141.0608  155.3868 C   0  0  0  0  0  0  0  0  0  0  0  0
  145.1516  140.3014  154.9165 O   0  0  0  0  0  0  0  0  0  0  0  0
  148.4795  141.8767  154.9251 O   0  0  0  0  0  0  0  0  0  0  0  0
  151.6163  140.1929  155.9104 C   0  0  0  0  0  0  0  0  0  0  0  0
  151.8459  139.4678  154.9425 O   0  0  0  0  0  0  0  0  0  0  0  0
  152.4207  140.2223  157.0115 N   0  5  0  0  0  0  0  0  0  0  0  0
  152.1958  141.0505  158.0708 C   0  0  0  0  0  0  0  0  0  0  0  0
  152.9172  141.0492  159.0680 O   0  0  0  0  0  0  0  0  0  0  0  0
  150.1535  141.5420  153.8422 H   0  0  0  0  0  0  0  0  0  0  0  0
  148.1098  140.5286  152.4805 H   0  0  0  0  0  0  0  0  0  0  0  0
  146.9219  142.0828  153.6342 H   0  0  0  0  0  0  0  0  0  0  0  0
  149.9534  143.5815  158.9463 H   0  0  0  0  0  0  0  0  0  0  0  0
  151.6923  143.6165  159.2450 H   0  0  0  0  0  0  0  0  0  0  0  0
  150.6733  142.4311  160.0745 H   0  0  0  0  0  0  0  0  0  0  0  0
  149.4408  142.6250  156.8522 H   0  0  0  0  0  0  0  0  0  0  0  0
  149.8023  139.2062  153.5510 H   0  0  0  0  0  0  0  0  0  0  0  0
  148.8302  139.0550  155.0251 H   0  0  0  0  0  0  0  0  0  0  0  0
  146.6899  140.5558  156.2452 H   0  0  0  0  0  0  0  0  0  0  0  0
  145.8557  142.0116  155.7499 H   0  0  0  0  0  0  0  0  0  0  0  0
  144.8565  140.6739  154.0999 H   0  0  0  0  0  0  0  0  0  0  0  0
  1  2  1  0  0  0  0
  1 23  1  0  0  0  0
  1 24  1  0  0  0  0
  1 25  1  0  0  0  0
  2 18  1  0  0  0  0
  2  3  2  0  0  0  0
  3  4  1  0  0  0  0
  3 26  1  0  0  0  0
  4  5  1  0  0  0  0
  4 15  1  0  0  0  0
  5 20  1  0  0  0  0
  5 14  1  0  0  0  0
  5  6  1  0  0  0  0
  6  7  1  0  0  0  0
  6 27  1  0  0  0  0
  6 28  1  0  0  0  0
  7 21  1  0  0  0  0
  7  8  1  0  0  0  0
  7 11  1  0  0  0  0
  8  9  2  0  0  0  0
  9 10  2  0  0  0  0
 11 22  1  0  0  0  0
 11 12  1  0  0  0  0
 11 14  1  0  0  0  0
 12 13  1  0  0  0  0
 12 29  1  0  0  0  0
 12 30  1  0  0  0  0
 13 31  1  0  0  0  0
 15 16  2  0  0  0  0
 15 17  1  0  0  0  0
 17 18  1  0  0  0  0
 18 19  2  0  0  0  0
M  CHG  1   9   1
M  CHG  1  10  -1
M  CHG  1  17  -1
M  END
> <s_m_source_file>
AV-unprocessed.smi

> <i_m_source_file_index>
39

> <i_lp_mmshare_version>
43012

> <i_f3d_flags>
0

> <s_epik_input>
Tz1jMVtuSF1jKD1PKW4oW2NIXWMxW0NIM10pW0NASF0yW0NIMl1bQ0BIXShOPVtOK109W04tXSlbQ0BIXShPMilbQ0gyXVtPSF0=

> <s_epik_cmdline>
J2VwaWtfcHl0aG9uJywgJy1waCcsICc3LjAnLCAnLXRuJywgJzgnLCAnLW1hJywgJzIwMCcsICctbWV0YWxfYmluZGluZycsICctaW1hZScsICc8aW5maWxlLm1hZT4nLCAnLW9tYWUnLCAnPG91dGZpbGUubWFlPic=

> <r_lp_tautomer_probability>
0.999537

> <r_epik_Ionization_Penalty>
3.6393

> <r_epik_Ionization_Penalty_Charging>
9.76484e-08

> <r_epik_Ionization_Penalty_Neutral>
3.6393

> <r_epik_State_Penalty>
3.63887

> <r_epik_Charging_Adjusted_Penalty>
3.63887

> <i_epik_Tot_Q>
-1

> <i_epik_Tot_abs_Q>
3

> <r_epik_Metal_State_Penalty>
0.225911

> <b_epik_Metal_Only>
1

> <s_epik_Chemistry_Notes>
This compound contains an acetal/aminal-like group ( X-CH(R)-Y where X, Y are N, S, or O) that may be acid/base labile, releasing an aldehyde.

> <s_lp_Force_Field>
OPLS_2005

> <r_lp_Energy>
41.1751

> <b_lp_Chiralities_Consistent>
1

> <s_lp_Variant>
AV-unprocessed.smi:39-11

> <Gold.Version>
5.8.1

> <Gold.Id.Protein>
6NUR|6NUR_protein|mol2

> <Gold.PLP.Fitness>
42.6218

> <Gold.PLP.PLP>
-25.3526

> <Gold.PLP.part.hbond>
-4.0000

> <Gold.PLP.part.metal>
0.0000

> <Gold.PLP.part.buried>
-1.9331

> <Gold.PLP.part.nonpolar>
-22.8119

> <Gold.PLP.part.repulsive>
2.9457

> <Gold.PLP.ligand.clash>
0.0000

> <Gold.PLP.ligand.torsion>
0.3094

> <Gold.PLP.Chemscore.Hbond>
4.9344

> <Gold.PLP.Chemscore.CHOScore>
1.0000

> <Gold.PLP.Chemscore.Metal>
0.0000

> <Gold.Chemscore.Hbonds>
donor molecule, donor type, donor heavy atom, donor atom, acceptor molecule, acceptor atom, score
      L1  H    13    31       P1 10175  0.94
      P1  H  7954  7966       L1    10  0.86
      P1  H  7989  7998       L1    16  0.90
      P1  H  7997  8009       L1    17  2.00
      L1  C     3    26       P1  8028  1.00

> <Gold.PLP.Chemscore.Internal.Correction>
0.0847

> <Gold.Rescore>
     Score         DG    S(hbond)    S(metal)    S(lipo)     H(rot)  DE(clash)    DE(int)     intcor
     10.53     -13.61       3.02        0.00      42.65       2.72       1.66       1.42       ----

> <Gold.Chemscore.Fitness>
10.5275

> <Gold.Chemscore.DG>
-13.6098

> <Gold.Chemscore.ZeroCoef>
-5.4800

> <Gold.Chemscore.Hbond>
3.0212

> <Gold.Chemscore.Metal>
0.0000

> <Gold.Chemscore.Lipo>
42.6518

> <Gold.Chemscore.Internal_Hbond>
0.0000

> <Gold.Chemscore.DEClash>
1.6604

> <Gold.Chemscore.DEInternal>
1.4219

> <Gold.Chemscore.Rot>
2.7153

> <Gold.Chemscore.Internal.Correction>
   9.000000E+99

> <Gold.Chemscore.Hbonds>
donor molecule, donor type, donor heavy atom, donor atom, acceptor molecule, acceptor atom, score
      L1  H    13    31       P1 10175  0.88
      P1  H  7954  7966       L1    10  0.80
      P1  H  7989  7998       L1    16  0.16
      P1  H  7997  8009       L1    17  0.63

> <Gold.Chemscore.Hbond.Weighted>
-10.0907

> <Gold.Chemscore.Metal.Weighted>
-0.0000

> <Gold.Chemscore.Lipo.Weighted>
-4.9903

> <Gold.Chemscore.Internal_Hbond.Weighted>
0.0000

> <Gold.Chemscore.DEClash.Weighted>
1.6604

> <Gold.Chemscore.DEInternal.Weighted>
1.4219

> <Gold.Chemscore.Rot.Weighted>
6.9512

> <Gold.Chemscore.Internal.Correction.Weighted>
   9.000000E+99

> <Gold.Protein.RotatedTorsions>
[ 6907 6896 6895 6894 ] final -112.10 input  -60.11 | X-H torsion
[ 7974 7965 7964 7962 ] final -120.14 input  175.53 | X-H torsion
[ 8008 7997 7996 7995 ] final -175.62 input   59.86 | X-H torsion
[ 10167 10162 10161 10158 ] final  100.12 input  -65.29 | X-H torsion
[ 10718 10713 10712 10709 ] final   97.21 input   66.30 | X-H torsion
[ 10763 10752 10751 10750 ] final  -76.16 input  -60.55 | X-H torsion
[ 11005 11000 10999 10996 ] final    8.08 input  -57.11 | X-H torsion

> <Gold.Protein.ActiveResidues>
 VAL166  LYS551  ARG553  GLY616  TRP617  ASP618  TYR619  PRO620  LYS621  CYS622 
 ASP623  PHE694  ASN695  SER759  ASP760  ASP761  ALA762  ILE779  LEU786  VAL792 
 PHE793  MET794  SER795  GLU796  ALA797  LYS798  CYS799  TRP800  GLU811  SER814 

> <Gold.Protein.RotatedAtoms>
  150.7735  133.9139  159.3377 H   0  0  0  0  0  0  0  0  0  0  0  0  # atno 6907 bound_to 6896
  151.7019  135.0926  160.0262 H   0  0  0  0  0  0  0  0  0  0  0  0  # atno 6908 bound_to 6896
  152.3762  133.6446  159.6161 H   0  0  0  0  0  0  0  0  0  0  0  0  # atno 6909 bound_to 6896
  145.0547  140.8245  143.4188 H   0  0  0  0  0  0  0  0  0  0  0  0  # atno 7974 bound_to 7965
  155.9848  140.1189  157.0693 H   0  0  0  0  0  0  0  0  0  0  0  0  # atno 8008 bound_to 7997
  154.4193  140.1137  156.5553 H   0  0  0  0  0  0  0  0  0  0  0  0  # atno 8009 bound_to 7997
  155.6422  140.3473  155.4721 H   0  0  0  0  0  0  0  0  0  0  0  0  # atno 8010 bound_to 7997
  139.7555  144.6971  151.0369 H   0  0  0  0  0  0  0  0  0  0  0  0  # atno 10167 bound_to 10162
  157.6916  131.0602  150.4610 H   0  0  0  0  0  0  0  0  0  0  0  0  # atno 10718 bound_to 10713
  154.4961  135.5807  153.6496 H   0  0  0  0  0  0  0  0  0  0  0  0  # atno 10763 bound_to 10752
  152.9870  135.6124  154.3062 H   0  0  0  0  0  0  0  0  0  0  0  0  # atno 10764 bound_to 10752
  154.2966  135.2847  155.2610 H   0  0  0  0  0  0  0  0  0  0  0  0  # atno 10765 bound_to 10752
  140.5410  134.0375  155.7904 H   0  0  0  0  0  0  0  0  0  0  0  0  # atno 11005 bound_to 11000
  145.1483  139.2530  143.5454 LP  0  0  0  0  0  0  0  0  0  0  0  0  # atno 17320 bound_to 7965
  146.3520  140.1178  142.8601 LP  0  0  0  0  0  0  0  0  0  0  0  0  # atno 17321 bound_to 7965
  140.7802  143.4758  151.0084 LP  0  0  0  0  0  0  0  0  0  0  0  0  # atno 17342 bound_to 10162
  139.8445  143.7520  152.3179 LP  0  0  0  0  0  0  0  0  0  0  0  0  # atno 17343 bound_to 10162
  156.4954  130.4105  149.6383 LP  0  0  0  0  0  0  0  0  0  0  0  0  # atno 17370 bound_to 10713
  156.3378  130.7366  151.2306 LP  0  0  0  0  0  0  0  0  0  0  0  0  # atno 17371 bound_to 10713
  141.1227  133.9434  157.2697 LP  0  0  0  0  0  0  0  0  0  0  0  0  # atno 17394 bound_to 11000
  139.9504  135.0176  156.8977 LP  0  0  0  0  0  0  0  0  0  0  0  0  # atno 17395 bound_to 11000

$$$$
