AV-unprocessed.smi:2652|AV-procd|sdf|10294|dock3
  -GOLD-   2272014303D 1   1.00000     0.00000
 Structure written by MMmdl.
 37 38  0  0  0  0  0  0  0  0  2 V2000
  151.5338  144.9872  159.5859 C   0  0  0  0  0  0  0  0  0  0  0  0
  152.1447  143.9699  160.5348 C   0  0  0  0  0  0  0  0  0  0  0  0
  152.2764  144.1225  161.8567 C   0  0  0  0  0  0  0  0  0  0  0  0
  152.9906  142.7288  162.6300 S   0  0  0  0  0  0  0  0  0  0  0  0
  153.1077  141.8947  161.0388 C   0  0  0  0  0  0  0  0  0  0  0  0
  153.5736  140.7634  160.9129 O   0  0  0  0  0  0  0  0  0  0  0  0
  152.6032  142.7372  160.0480 N   0  0  0  0  0  0  0  0  0  0  0  0
  152.5680  142.3622  158.6280 C   0  0  0  0  0  0  0  0  0  0  0  0
  151.8193  141.0494  158.3591 C   0  0  0  0  0  0  0  0  0  0  0  0
  150.7502  140.8160  158.9232 O   0  0  0  0  0  0  0  0  0  0  0  0
  152.4235  140.2269  157.4812 N   0  0  0  0  0  0  0  0  0  0  0  0
  152.0514  138.9075  156.9432 C   0  0  0  0  0  0  0  0  0  0  0  0
  153.2653  137.9914  157.2464 C   0  0  0  0  0  0  0  0  0  0  0  0
  153.2540  136.8288  156.7834 O   0  0  0  0  0  0  0  0  0  0  0  0
  154.1733  138.4473  157.9776 O   0  5  0  0  0  0  0  0  0  0  0  0
  150.7311  138.3087  157.5275 C   0  0  0  0  0  0  0  0  0  0  0  0
  150.2827  137.0146  156.8204 C   0  0  0  0  0  0  0  0  0  0  0  0
  150.1186  137.2367  155.3103 C   0  0  0  0  0  0  0  0  0  0  0  0
  151.4053  137.8005  154.6910 C   0  0  0  0  0  0  0  0  0  0  0  0
  151.8534  139.0881  155.4102 C   0  0  0  0  0  0  0  0  0  0  0  0
  150.9211  145.6992  160.1395 H   0  0  0  0  0  0  0  0  0  0  0  0
  150.8909  144.5156  158.8426 H   0  0  0  0  0  0  0  0  0  0  0  0
  152.3177  145.5430  159.0710 H   0  0  0  0  0  0  0  0  0  0  0  0
  151.9802  144.9855  162.4348 H   0  0  0  0  0  0  0  0  0  0  0  0
  152.1266  143.1602  158.0306 H   0  0  0  0  0  0  0  0  0  0  0  0
  153.5881  142.2555  158.2551 H   0  0  0  0  0  0  0  0  0  0  0  0
  153.3075  140.5628  157.1278 H   0  0  0  0  0  0  0  0  0  0  0  0
  150.8195  138.1218  158.5988 H   0  0  0  0  0  0  0  0  0  0  0  0
  149.9236  139.0331  157.4140 H   0  0  0  0  0  0  0  0  0  0  0  0
  151.0029  136.2160  157.0000 H   0  0  0  0  0  0  0  0  0  0  0  0
  149.3388  136.6727  157.2455 H   0  0  0  0  0  0  0  0  0  0  0  0
  149.8488  136.2998  154.8223 H   0  0  0  0  0  0  0  0  0  0  0  0
  149.2945  137.9284  155.1313 H   0  0  0  0  0  0  0  0  0  0  0  0
  152.1944  137.0491  154.7361 H   0  0  0  0  0  0  0  0  0  0  0  0
  151.2442  138.0073  153.6328 H   0  0  0  0  0  0  0  0  0  0  0  0
  151.0989  139.8575  155.2392 H   0  0  0  0  0  0  0  0  0  0  0  0
  152.7605  139.4694  154.9388 H   0  0  0  0  0  0  0  0  0  0  0  0
  1  2  1  0  0  0  0
  1 21  1  0  0  0  0
  1 22  1  0  0  0  0
  1 23  1  0  0  0  0
  2  7  1  0  0  0  0
  2  3  2  0  0  0  0
  3  4  1  0  0  0  0
  3 24  1  0  0  0  0
  4  5  1  0  0  0  0
  5  6  2  0  0  0  0
  5  7  1  0  0  0  0
  7  8  1  0  0  0  0
  8  9  1  0  0  0  0
  8 25  1  0  0  0  0
  8 26  1  0  0  0  0
  9 10  2  0  0  0  0
  9 11  1  0  0  0  0
 11 12  1  0  0  0  0
 11 27  1  0  0  0  0
 12 20  1  0  0  0  0
 12 13  1  0  0  0  0
 12 16  1  0  0  0  0
 13 14  2  0  0  0  0
 13 15  1  0  0  0  0
 16 17  1  0  0  0  0
 16 28  1  0  0  0  0
 16 29  1  0  0  0  0
 17 18  1  0  0  0  0
 17 30  1  0  0  0  0
 17 31  1  0  0  0  0
 18 19  1  0  0  0  0
 18 32  1  0  0  0  0
 18 33  1  0  0  0  0
 19 20  1  0  0  0  0
 19 34  1  0  0  0  0
 19 35  1  0  0  0  0
 20 36  1  0  0  0  0
 20 37  1  0  0  0  0
M  CHG  1  15  -1
M  END
> <s_m_source_file>
AV-unprocessed.smi

> <i_m_source_file_index>
2652

> <i_lp_mmshare_version>
43012

> <i_f3d_flags>
0

> <s_epik_input>
W0NIM11jMVtjSF1zYyg9TyluMVtDSDJdQyg9TylbTkhdQzIoQyg9TylbT0hdKVtDSDJdW0NIMl1bQ0gyXVtDSDJdW0NIMl0y

> <s_epik_cmdline>
J2VwaWtfcHl0aG9uJywgJy1waCcsICc3LjAnLCAnLXRuJywgJzgnLCAnLW1hJywgJzIwMCcsICctbWV0YWxfYmluZGluZycsICctaW1hZScsICc8aW5maWxlLm1hZT4nLCAnLW9tYWUnLCAnPG91dGZpbGUubWFlPic=

> <r_epik_Ionization_Penalty>
0.000325241

> <r_epik_Ionization_Penalty_Charging>
0.000325125

> <r_epik_Ionization_Penalty_Neutral>
1.16183e-07

> <r_epik_State_Penalty>
0.000195685

> <r_epik_Charging_Adjusted_Penalty>
0.00052081

> <i_epik_Tot_Q>
-1

> <i_epik_Tot_abs_Q>
1

> <r_epik_Metal_State_Penalty>
-0

> <b_epik_Metal_Only>
0

> <s_lp_Force_Field>
OPLS_2005

> <r_lp_Energy>
9.07631

> <b_lp_Chiralities_Consistent>
1

> <s_lp_Variant>
AV-unprocessed.smi:2652-1

> <Gold.Version>
5.8.1

> <Gold.Id.Protein>
6NUR|6NUR_protein|mol2

> <Gold.PLP.Fitness>
51.2544

> <Gold.PLP.PLP>
-40.1954

> <Gold.PLP.part.hbond>
-2.0000

> <Gold.PLP.part.metal>
0.0000

> <Gold.PLP.part.buried>
-6.4208

> <Gold.PLP.part.nonpolar>
-31.5799

> <Gold.PLP.part.repulsive>
1.0290

> <Gold.PLP.ligand.clash>
0.0000

> <Gold.PLP.ligand.torsion>
0.3284

> <Gold.PLP.Chemscore.Hbond>
3.8880

> <Gold.PLP.Chemscore.CHOScore>
0.0000

> <Gold.PLP.Chemscore.Metal>
0.0000

> <Gold.Chemscore.Hbonds>
donor molecule, donor type, donor heavy atom, donor atom, acceptor molecule, acceptor atom, score
      P1  H  7997  8009       L1    15  2.00
      P1  H 10752 10765       L1    14  1.75

> <Gold.PLP.Chemscore.Internal.Correction>
0.0518

> <Gold.Rescore>
     Score         DG    S(hbond)    S(metal)    S(lipo)     H(rot)  DE(clash)    DE(int)     intcor
     12.28     -16.31       1.81        0.00      85.99       2.05       0.04       3.99       ----

> <Gold.Chemscore.Fitness>
12.2794

> <Gold.Chemscore.DG>
-16.3092

> <Gold.Chemscore.ZeroCoef>
-5.4800

> <Gold.Chemscore.Hbond>
1.8051

> <Gold.Chemscore.Metal>
0.0000

> <Gold.Chemscore.Lipo>
85.9899

> <Gold.Chemscore.Internal_Hbond>
0.0000

> <Gold.Chemscore.DEClash>
0.0402

> <Gold.Chemscore.DEInternal>
3.9897

> <Gold.Chemscore.Rot>
2.0550

> <Gold.Chemscore.Internal.Correction>
   9.000000E+99

> <Gold.Chemscore.Hbonds>
donor molecule, donor type, donor heavy atom, donor atom, acceptor molecule, acceptor atom, score
      P1  H  7997  8009       L1    15  0.58
      P1  H 10752 10765       L1    14  0.82

> <Gold.Chemscore.Hbond.Weighted>
-6.0291

> <Gold.Chemscore.Metal.Weighted>
-0.0000

> <Gold.Chemscore.Lipo.Weighted>
-10.0608

> <Gold.Chemscore.Internal_Hbond.Weighted>
0.0000

> <Gold.Chemscore.DEClash.Weighted>
0.0402

> <Gold.Chemscore.DEInternal.Weighted>
3.9897

> <Gold.Chemscore.Rot.Weighted>
5.2607

> <Gold.Chemscore.Internal.Correction.Weighted>
   9.000000E+99

> <Gold.Protein.RotatedTorsions>
[ 6907 6896 6895 6894 ] final   -3.30 input  -60.11 | X-H torsion
[ 7974 7965 7964 7962 ] final -100.01 input  175.53 | X-H torsion
[ 8008 7997 7996 7995 ] final  139.73 input   59.86 | X-H torsion
[ 10167 10162 10161 10158 ] final  -39.78 input  -65.29 | X-H torsion
[ 10718 10713 10712 10709 ] final  -88.39 input   66.30 | X-H torsion
[ 10763 10752 10751 10750 ] final -123.46 input  -60.55 | X-H torsion
[ 11005 11000 10999 10996 ] final  115.71 input  -57.11 | X-H torsion

> <Gold.Protein.ActiveResidues>
 VAL166  LYS551  ARG553  GLY616  TRP617  ASP618  TYR619  PRO620  LYS621  CYS622 
 ASP623  PHE694  ASN695  SER759  ASP760  ASP761  ALA762  ILE779  LEU786  VAL792 
 PHE793  MET794  SER795  GLU796  ALA797  LYS798  CYS799  TRP800  GLU811  SER814 

> <Gold.Protein.RotatedAtoms>
  151.5160  135.1066  159.9865 H   0  0  0  0  0  0  0  0  0  0  0  0  # atno 6907 bound_to 6896
  152.4641  133.7881  159.6897 H   0  0  0  0  0  0  0  0  0  0  0  0  # atno 6908 bound_to 6896
  150.8616  133.7571  159.3016 H   0  0  0  0  0  0  0  0  0  0  0  0  # atno 6909 bound_to 6896
  145.3001  140.9375  143.2828 H   0  0  0  0  0  0  0  0  0  0  0  0  # atno 7974 bound_to 7965
  156.2987  140.2360  156.4285 H   0  0  0  0  0  0  0  0  0  0  0  0  # atno 8008 bound_to 7997
  154.8292  140.0434  157.1485 H   0  0  0  0  0  0  0  0  0  0  0  0  # atno 8009 bound_to 7997
  154.9227  140.3006  155.5211 H   0  0  0  0  0  0  0  0  0  0  0  0  # atno 8010 bound_to 7997
  140.7054  143.3193  151.2831 H   0  0  0  0  0  0  0  0  0  0  0  0  # atno 10167 bound_to 10162
  155.9984  130.4834  150.5011 H   0  0  0  0  0  0  0  0  0  0  0  0  # atno 10718 bound_to 10713
  154.8708  135.4097  154.2947 H   0  0  0  0  0  0  0  0  0  0  0  0  # atno 10763 bound_to 10752
  153.3816  135.7011  153.6566 H   0  0  0  0  0  0  0  0  0  0  0  0  # atno 10764 bound_to 10752
  153.5386  135.3653  155.2680 H   0  0  0  0  0  0  0  0  0  0  0  0  # atno 10765 bound_to 10752
  139.9018  134.9588  156.7087 H   0  0  0  0  0  0  0  0  0  0  0  0  # atno 11005 bound_to 11000
  144.9101  139.4540  143.6591 LP  0  0  0  0  0  0  0  0  0  0  0  0  # atno 17320 bound_to 7965
  146.3155  139.7903  142.8987 LP  0  0  0  0  0  0  0  0  0  0  0  0  # atno 17321 bound_to 7965
  139.6642  144.0135  152.2712 LP  0  0  0  0  0  0  0  0  0  0  0  0  # atno 17342 bound_to 10162
  139.9712  144.6492  150.7987 LP  0  0  0  0  0  0  0  0  0  0  0  0  # atno 17343 bound_to 10162
  157.2996  131.0642  151.2078 LP  0  0  0  0  0  0  0  0  0  0  0  0  # atno 17370 bound_to 10713
  157.3062  130.6867  149.6190 LP  0  0  0  0  0  0  0  0  0  0  0  0  # atno 17371 bound_to 10713
  140.7092  133.9238  155.8074 LP  0  0  0  0  0  0  0  0  0  0  0  0  # atno 17394 bound_to 11000
  141.0313  134.0752  157.4011 LP  0  0  0  0  0  0  0  0  0  0  0  0  # atno 17395 bound_to 11000

$$$$
