AV-unprocessed.smi:221|AV-procd|sdf|1697|dock3
  -GOLD-   2262020143D 1   1.00000     0.00000
 Structure written by MMmdl.
 50 53  0  0  0  0  0  0  0  0  1 V2000
  151.1992  139.0043  157.7887 N   0  0  0  0  0  0  0  0  0  0  0  0
  152.0292  139.9953  158.1309 C   0  0  0  0  0  0  0  0  0  0  0  0
  153.2147  139.7843  158.3767 O   0  0  0  0  0  0  0  0  0  0  0  0
  151.4759  141.4314  158.2215 C   0  0  1  0  0  0  0  0  0  0  0  0
  152.5275  142.3880  158.8077 C   0  0  0  0  0  0  0  0  0  0  0  0
  152.1275  143.7527  158.2578 C   0  0  2  0  0  0  0  0  0  0  0  0
  151.1435  144.2615  159.0011 F   0  0  0  0  0  0  0  0  0  0  0  0
  151.5947  143.4254  156.8636 C   0  0  0  0  0  0  0  0  0  0  0  0
  151.1265  142.0448  156.9322 N   0  0  0  0  0  0  0  0  0  0  0  0
  150.0069  141.6990  156.2400 C   0  0  0  0  0  0  0  0  0  0  0  0
  150.1273  141.1240  155.0139 N   0  0  0  0  0  0  0  0  0  0  0  0
  149.0423  140.7798  154.3147 C   0  0  0  0  0  0  0  0  0  0  0  0
  147.7578  140.9251  154.6432 N   0  0  0  0  0  0  0  0  0  0  0  0
  147.6263  141.5122  155.8665 C   0  0  0  0  0  0  0  0  0  0  0  0
  148.6855  141.9255  156.7242 C   0  0  0  0  0  0  0  0  0  0  0  0
  148.1578  142.4917  157.8800 N   0  0  0  0  0  0  0  0  0  0  0  0
  146.8657  142.4070  157.7196 C   0  0  0  0  0  0  0  0  0  0  0  0
  146.4596  141.8408  156.5330 N   0  0  0  0  0  0  0  0  0  0  0  0
  145.0929  141.6310  156.0886 C   0  0  0  0  0  0  0  0  0  0  0  0
  144.2002  142.8848  156.2782 C   0  0  2  0  0  0  0  0  0  0  0  0
  142.7114  142.5638  156.0096 C   0  0  0  0  0  0  0  0  0  0  0  0
  142.5178  142.0892  154.6935 O   0  0  0  0  0  0  0  0  0  0  0  0
  144.6843  144.1131  155.4593 C   0  0  1  0  0  0  0  0  0  0  0  0
  145.2796  143.8031  154.0855 C   0  0  0  0  0  0  0  0  0  0  0  0
  144.6951  144.8826  153.1708 C   0  0  0  0  0  0  0  0  0  0  0  0
  144.1989  145.8767  154.0543 O   0  0  0  0  0  0  0  0  0  0  0  0
  143.6398  145.1945  155.1634 C   0  0  0  0  0  0  0  0  0  0  0  0
  150.6004  141.4346  158.8732 H   0  0  0  0  0  0  0  0  0  0  0  0
  152.9430  144.4762  158.2507 H   0  0  0  0  0  0  0  0  0  0  0  0
  151.5456  138.0579  157.7290 H   0  0  0  0  0  0  0  0  0  0  0  0
  150.2290  139.2058  157.5954 H   0  0  0  0  0  0  0  0  0  0  0  0
  152.5557  142.3665  159.8977 H   0  0  0  0  0  0  0  0  0  0  0  0
  153.5262  142.1358  158.4459 H   0  0  0  0  0  0  0  0  0  0  0  0
  150.8163  144.1302  156.5663 H   0  0  0  0  0  0  0  0  0  0  0  0
  152.3976  143.4790  156.1276 H   0  0  0  0  0  0  0  0  0  0  0  0
  149.2310  140.3245  153.3538 H   0  0  0  0  0  0  0  0  0  0  0  0
  146.1693  142.7676  158.4627 H   0  0  0  0  0  0  0  0  0  0  0  0
  145.1332  141.3259  155.0437 H   0  0  0  0  0  0  0  0  0  0  0  0
  144.6866  140.7831  156.6400 H   0  0  0  0  0  0  0  0  0  0  0  0
  144.2747  143.1701  157.3287 H   0  0  0  0  0  0  0  0  0  0  0  0
  142.3376  141.8258  156.7197 H   0  0  0  0  0  0  0  0  0  0  0  0
  142.0921  143.4533  156.1201 H   0  0  0  0  0  0  0  0  0  0  0  0
  143.2566  141.5504  154.4553 H   0  0  0  0  0  0  0  0  0  0  0  0
  145.4836  144.6019  156.0179 H   0  0  0  0  0  0  0  0  0  0  0  0
  146.3671  143.8753  154.1248 H   0  0  0  0  0  0  0  0  0  0  0  0
  145.0388  142.8072  153.7157 H   0  0  0  0  0  0  0  0  0  0  0  0
  145.4324  145.2942  152.4814 H   0  0  0  0  0  0  0  0  0  0  0  0
  143.8675  144.4806  152.5846 H   0  0  0  0  0  0  0  0  0  0  0  0
  142.6769  144.7789  154.8677 H   0  0  0  0  0  0  0  0  0  0  0  0
  143.4792  145.8668  156.0065 H   0  0  0  0  0  0  0  0  0  0  0  0
  1  2  1  0  0  0  0
  1 30  1  0  0  0  0
  1 31  1  0  0  0  0
  2  3  2  0  0  0  0
  2  4  1  0  0  0  0
  4 28  1  0  0  0  0
  4  9  1  0  0  0  0
  4  5  1  0  0  0  0
  5  6  1  0  0  0  0
  5 32  1  0  0  0  0
  5 33  1  0  0  0  0
  6 29  1  0  0  0  0
  6  7  1  0  0  0  0
  6  8  1  0  0  0  0
  8  9  1  0  0  0  0
  8 34  1  0  0  0  0
  8 35  1  0  0  0  0
  9 10  1  0  0  0  0
 10 15  1  0  0  0  0
 10 11  2  0  0  0  0
 11 12  1  0  0  0  0
 12 13  2  0  0  0  0
 12 36  1  0  0  0  0
 13 14  1  0  0  0  0
 14 18  1  0  0  0  0
 14 15  2  0  0  0  0
 15 16  1  0  0  0  0
 16 17  2  0  0  0  0
 17 18  1  0  0  0  0
 17 37  1  0  0  0  0
 18 19  1  0  0  0  0
 19 20  1  0  0  0  0
 19 38  1  0  0  0  0
 19 39  1  0  0  0  0
 20 21  1  0  0  0  0
 20 23  1  0  0  0  0
 20 40  1  0  0  0  0
 21 22  1  0  0  0  0
 21 41  1  0  0  0  0
 21 42  1  0  0  0  0
 22 43  1  0  0  0  0
 23 27  1  0  0  0  0
 23 24  1  0  0  0  0
 23 44  1  0  0  0  0
 24 25  1  0  0  0  0
 24 45  1  0  0  0  0
 24 46  1  0  0  0  0
 25 26  1  0  0  0  0
 25 47  1  0  0  0  0
 25 48  1  0  0  0  0
 26 27  1  0  0  0  0
 27 49  1  0  0  0  0
 27 50  1  0  0  0  0
M  END
> <s_m_source_file>
AV-unprocessed.smi

> <i_m_source_file_index>
221

> <i_lp_mmshare_version>
43012

> <i_f3d_flags>
0

> <s_epik_input>
W05IMl1DKD1PKVtDQEBIXTFbQ0gyXVtDQEBIXShGKVtDSDJdTjFjKG5bY0hdbjIpYyhjMjMpbltjSF1uM1tDSDJdW0NASF0oW0NIMl1bT0hdKVtDQEBIXTRbQ0gyXVtDSDJdT1tDSDJdNA==

> <s_epik_cmdline>
J2VwaWtfcHl0aG9uJywgJy1waCcsICc3LjAnLCAnLXRuJywgJzgnLCAnLW1hJywgJzIwMCcsICctbWV0YWxfYmluZGluZycsICctaW1hZScsICc8aW5maWxlLm1hZT4nLCAnLW9tYWUnLCAnPG91dGZpbGUubWFlPic=

> <r_lp_tautomer_probability>
1

> <r_epik_Ionization_Penalty>
0.000818822

> <r_epik_Ionization_Penalty_Charging>
0

> <r_epik_Ionization_Penalty_Neutral>
0.000818822

> <r_epik_State_Penalty>
0.000440551

> <r_epik_Charging_Adjusted_Penalty>
0.000440551

> <i_epik_Tot_Q>
0

> <i_epik_Tot_abs_Q>
0

> <r_epik_Metal_State_Penalty>
-0

> <b_epik_Metal_Only>
0

> <s_lp_Force_Field>
OPLS_2005

> <r_lp_Energy>
49.9883

> <b_lp_Chiralities_Consistent>
1

> <s_lp_Variant>
AV-unprocessed.smi:221-12

> <Gold.Version>
5.8.1

> <Gold.Id.Protein>
6NUR|6NUR_protein|mol2

> <Gold.PLP.Fitness>
45.3499

> <Gold.PLP.PLP>
-41.3680

> <Gold.PLP.part.hbond>
-4.8444

> <Gold.PLP.part.metal>
0.0000

> <Gold.PLP.part.buried>
-2.5714

> <Gold.PLP.part.nonpolar>
-34.2084

> <Gold.PLP.part.repulsive>
0.4935

> <Gold.PLP.ligand.clash>
0.0000

> <Gold.PLP.ligand.torsion>
2.2970

> <Gold.PLP.Chemscore.Hbond>
1.7188

> <Gold.PLP.Chemscore.CHOScore>
1.0000

> <Gold.PLP.Chemscore.Metal>
0.0000

> <Gold.Chemscore.Hbonds>
donor molecule, donor type, donor heavy atom, donor atom, acceptor molecule, acceptor atom, score
      L1  H    22    43       P1 10175  0.22
      P1  H  7989  7998       L1    11  0.47
      P1  H  7997  8008       L1     3  1.00
      L1  C    12    36       P1  7957  1.00

> <Gold.PLP.Chemscore.Internal.Correction>
0.4194

> <Gold.Rescore>
     Score         DG    S(hbond)    S(metal)    S(lipo)     H(rot)  DE(clash)    DE(int)     intcor
      6.94     -10.44       1.44        0.00      73.74       3.31       1.25       2.26       ----

> <Gold.Chemscore.Fitness>
6.9436

> <Gold.Chemscore.DG>
-10.4442

> <Gold.Chemscore.ZeroCoef>
-5.4800

> <Gold.Chemscore.Hbond>
1.4394

> <Gold.Chemscore.Metal>
0.0000

> <Gold.Chemscore.Lipo>
73.7386

> <Gold.Chemscore.Internal_Hbond>
0.0000

> <Gold.Chemscore.DEClash>
1.2451

> <Gold.Chemscore.DEInternal>
2.2555

> <Gold.Chemscore.Rot>
3.3089

> <Gold.Chemscore.Internal.Correction>
   9.000000E+99

> <Gold.Chemscore.Hbonds>
donor molecule, donor type, donor heavy atom, donor atom, acceptor molecule, acceptor atom, score
      L1  H    22    43       P1 10175  0.03
      P1  H  7989  7998       L1    11  0.12
      P1  H  7997  8008       L1     3  0.97

> <Gold.Chemscore.Hbond.Weighted>
-4.8077

> <Gold.Chemscore.Metal.Weighted>
-0.0000

> <Gold.Chemscore.Lipo.Weighted>
-8.6274

> <Gold.Chemscore.Internal_Hbond.Weighted>
0.0000

> <Gold.Chemscore.DEClash.Weighted>
1.2451

> <Gold.Chemscore.DEInternal.Weighted>
2.2555

> <Gold.Chemscore.Rot.Weighted>
8.4709

> <Gold.Chemscore.Internal.Correction.Weighted>
   9.000000E+99

> <Gold.Protein.RotatedTorsions>
[ 6907 6896 6895 6894 ] final  115.32 input  -60.11 | X-H torsion
[ 7974 7965 7964 7962 ] final  118.58 input  175.53 | X-H torsion
[ 8008 7997 7996 7995 ] final  -97.10 input   59.86 | X-H torsion
[ 10167 10162 10161 10158 ] final  103.29 input  -65.29 | X-H torsion
[ 10718 10713 10712 10709 ] final   13.78 input   66.30 | X-H torsion
[ 10763 10752 10751 10750 ] final  144.58 input  -60.55 | X-H torsion
[ 11005 11000 10999 10996 ] final  -97.76 input  -57.11 | X-H torsion

> <Gold.Protein.ActiveResidues>
 VAL166  LYS551  ARG553  GLY616  TRP617  ASP618  TYR619  PRO620  LYS621  CYS622 
 ASP623  PHE694  ASN695  SER759  ASP760  ASP761  ALA762  ILE779  LEU786  VAL792 
 PHE793  MET794  SER795  GLU796  ALA797  LYS798  CYS799  TRP800  GLU811  SER814 

> <Gold.Protein.RotatedAtoms>
  152.4748  133.8114  159.7004 H   0  0  0  0  0  0  0  0  0  0  0  0  # atno 6907 bound_to 6896
  150.8759  133.7430  159.2953 H   0  0  0  0  0  0  0  0  0  0  0  0  # atno 6908 bound_to 6896
  151.4950  135.1062  159.9866 H   0  0  0  0  0  0  0  0  0  0  0  0  # atno 6909 bound_to 6896
  145.1535  139.3196  143.4554 H   0  0  0  0  0  0  0  0  0  0  0  0  # atno 7974 bound_to 7965
  154.7833  140.0466  157.1144 H   0  0  0  0  0  0  0  0  0  0  0  0  # atno 8008 bound_to 7997
  154.9679  140.3086  155.4981 H   0  0  0  0  0  0  0  0  0  0  0  0  # atno 8009 bound_to 7997
  156.2939  140.2258  156.4769 H   0  0  0  0  0  0  0  0  0  0  0  0  # atno 8010 bound_to 7997
  139.7276  144.7044  151.0773 H   0  0  0  0  0  0  0  0  0  0  0  0  # atno 10167 bound_to 10162
  157.0296  130.6187  149.5733 H   0  0  0  0  0  0  0  0  0  0  0  0  # atno 10718 bound_to 10713
  153.9913  135.2932  155.3411 H   0  0  0  0  0  0  0  0  0  0  0  0  # atno 10763 bound_to 10752
  154.7213  135.5108  153.8820 H   0  0  0  0  0  0  0  0  0  0  0  0  # atno 10764 bound_to 10752
  153.0808  135.6678  154.0165 H   0  0  0  0  0  0  0  0  0  0  0  0  # atno 10765 bound_to 10752
  141.1368  133.8194  157.0749 H   0  0  0  0  0  0  0  0  0  0  0  0  # atno 11005 bound_to 11000
  146.3491  140.1618  142.8590 LP  0  0  0  0  0  0  0  0  0  0  0  0  # atno 17320 bound_to 7965
  145.0406  140.8942  143.5055 LP  0  0  0  0  0  0  0  0  0  0  0  0  # atno 17321 bound_to 7965
  140.7765  143.5085  150.9682 LP  0  0  0  0  0  0  0  0  0  0  0  0  # atno 17342 bound_to 10162
  139.8773  143.7117  152.3160 LP  0  0  0  0  0  0  0  0  0  0  0  0  # atno 17343 bound_to 10162
  156.0074  130.5162  150.7876 LP  0  0  0  0  0  0  0  0  0  0  0  0  # atno 17370 bound_to 10713
  157.5188  131.0930  151.0105 LP  0  0  0  0  0  0  0  0  0  0  0  0  # atno 17371 bound_to 10713
  140.0488  134.9816  157.1098 LP  0  0  0  0  0  0  0  0  0  0  0  0  # atno 17394 bound_to 11000
  140.4021  134.2071  155.7163 LP  0  0  0  0  0  0  0  0  0  0  0  0  # atno 17395 bound_to 11000

$$$$
