AV-unprocessed.smi:1586|AV-procd|sdf|6383|dock6
  -GOLD-   22720 7 13D 1   1.00000     0.00000
 Structure written by MMmdl.
 46 47  0  0  0  0  0  0  0  0  3 V2000
  143.9632  132.4585  150.0543 C   0  0  0  0  0  0  0  0  0  0  0  0
  144.0811  133.6173  151.0552 C   0  0  0  0  0  0  0  0  0  0  0  0
  145.2129  134.4948  150.7468 N   0  0  0  0  0  0  0  0  0  0  0  0
  145.2286  135.7663  151.4747 C   0  0  0  0  0  0  0  0  0  0  0  0
  145.5265  135.5830  152.9779 C   0  0  0  0  0  0  0  0  0  0  0  0
  146.8287  134.8910  153.1839 N   0  3  0  0  0  0  0  0  0  0  0  0
  147.2669  134.7219  154.6078 C   0  0  2  0  0  0  0  0  0  0  0  0
  147.1812  136.0238  155.4424 C   0  0  0  0  0  0  0  0  0  0  0  0
  148.7052  134.1526  154.6502 C   0  0  0  0  0  0  0  0  0  0  0  0
  149.7063  135.1698  154.3486 N   0  0  0  0  0  0  0  0  0  0  0  0
  150.6433  135.6122  155.1975 C   0  0  0  0  0  0  0  0  0  0  0  0
  150.6869  135.1703  156.3477 O   0  0  0  0  0  0  0  0  0  0  0  0
  151.4714  136.5358  154.6584 N   0  5  0  0  0  0  0  0  0  0  0  0
  151.1097  137.8279  154.6220 C   0  0  0  0  0  0  0  0  0  0  0  0
  149.7916  138.3240  154.4270 C   0  0  0  0  0  0  0  0  0  0  0  0
  149.9595  139.6792  154.4637 C   0  0  0  0  0  0  0  0  0  0  0  0
  149.0090  140.8207  154.3388 C   0  0  0  0  0  0  0  0  0  0  0  0
  151.2709  139.9873  154.6526 O   0  0  0  0  0  0  0  0  0  0  0  0
  152.0013  138.7967  154.7462 N   0  0  0  0  0  0  0  0  0  0  0  0
  146.8225  133.6063  152.4325 C   0  0  0  0  0  0  0  0  0  0  0  0
  146.5051  133.8354  150.9399 C   0  0  0  0  0  0  0  0  0  0  0  0
  143.2021  131.7498  150.3808 H   0  0  0  0  0  0  0  0  0  0  0  0
  144.9033  131.9132  149.9661 H   0  0  0  0  0  0  0  0  0  0  0  0
  143.6752  132.8022  149.0614 H   0  0  0  0  0  0  0  0  0  0  0  0
  143.1433  134.1694  151.1033 H   0  0  0  0  0  0  0  0  0  0  0  0
  144.2388  133.1895  152.0461 H   0  0  0  0  0  0  0  0  0  0  0  0
  145.9950  136.4039  151.0321 H   0  0  0  0  0  0  0  0  0  0  0  0
  144.2878  136.2974  151.3368 H   0  0  0  0  0  0  0  0  0  0  0  0
  145.5544  136.5808  153.4144 H   0  0  0  0  0  0  0  0  0  0  0  0
  144.7249  135.0387  153.4782 H   0  0  0  0  0  0  0  0  0  0  0  0
  146.5945  134.0035  155.0801 H   0  0  0  0  0  0  0  0  0  0  0  0
  147.5219  135.8712  156.4666 H   0  0  0  0  0  0  0  0  0  0  0  0
  146.1581  136.3901  155.5265 H   0  0  0  0  0  0  0  0  0  0  0  0
  147.7954  136.8151  155.0113 H   0  0  0  0  0  0  0  0  0  0  0  0
  148.9489  133.7430  155.6293 H   0  0  0  0  0  0  0  0  0  0  0  0
  148.7878  133.3304  153.9368 H   0  0  0  0  0  0  0  0  0  0  0  0
  149.7029  135.5594  153.4171 H   0  0  0  0  0  0  0  0  0  0  0  0
  148.8727  137.7742  154.2888 H   0  0  0  0  0  0  0  0  0  0  0  0
  148.2987  140.8215  155.1654 H   0  0  0  0  0  0  0  0  0  0  0  0
  148.4461  140.7531  153.4079 H   0  0  0  0  0  0  0  0  0  0  0  0
  149.5361  141.7750  154.3461 H   0  0  0  0  0  0  0  0  0  0  0  0
  147.7935  133.1191  152.4990 H   0  0  0  0  0  0  0  0  0  0  0  0
  146.1060  132.9163  152.8801 H   0  0  0  0  0  0  0  0  0  0  0  0
  146.5178  132.8877  150.4002 H   0  0  0  0  0  0  0  0  0  0  0  0
  147.2843  134.4527  150.4909 H   0  0  0  0  0  0  0  0  0  0  0  0
  147.5221  135.4822  152.7480 H   0  0  0  0  0  0  0  0  0  0  0  0
  1  2  1  0  0  0  0
  1 22  1  0  0  0  0
  1 23  1  0  0  0  0
  1 24  1  0  0  0  0
  2  3  1  0  0  0  0
  2 25  1  0  0  0  0
  2 26  1  0  0  0  0
  3 21  1  0  0  0  0
  3  4  1  0  0  0  0
  4  5  1  0  0  0  0
  4 27  1  0  0  0  0
  4 28  1  0  0  0  0
  5  6  1  0  0  0  0
  5 29  1  0  0  0  0
  5 30  1  0  0  0  0
  6  7  1  0  0  0  0
  6 20  1  0  0  0  0
  6 46  1  0  0  0  0
  7  8  1  0  0  0  0
  7  9  1  0  0  0  0
  7 31  1  0  0  0  0
  8 32  1  0  0  0  0
  8 33  1  0  0  0  0
  8 34  1  0  0  0  0
  9 10  1  0  0  0  0
  9 35  1  0  0  0  0
  9 36  1  0  0  0  0
 10 11  1  0  0  0  0
 10 37  1  0  0  0  0
 11 12  2  0  0  0  0
 11 13  1  0  0  0  0
 13 14  1  0  0  0  0
 14 19  2  0  0  0  0
 14 15  1  0  0  0  0
 15 16  2  0  0  0  0
 15 38  1  0  0  0  0
 16 17  1  0  0  0  0
 16 18  1  0  0  0  0
 17 39  1  0  0  0  0
 17 40  1  0  0  0  0
 17 41  1  0  0  0  0
 18 19  1  0  0  0  0
 20 21  1  0  0  0  0
 20 42  1  0  0  0  0
 20 43  1  0  0  0  0
 21 44  1  0  0  0  0
 21 45  1  0  0  0  0
M  CHG  1   6   1
M  CHG  1  13  -1
M  END
> <s_m_source_file>
AV-unprocessed.smi

> <i_m_source_file_index>
1586

> <i_lp_mmshare_version>
43012

> <i_f3d_flags>
0

> <s_epik_input>
W0NIM11bQ0gyXU4xW0NIMl1bQ0gyXU4oW0NIMl1bQ0gyXTEpW0NASF0oW0NIM10pW0NIMl1bTkhdQyg9TylbTkhdYzJbY0hdYyhbQ0gzXSlvbjI=

> <s_epik_cmdline>
J2VwaWtfcHl0aG9uJywgJy1waCcsICc3LjAnLCAnLXRuJywgJzgnLCAnLW1hJywgJzIwMCcsICctbWV0YWxfYmluZGluZycsICctaW1hZScsICc8aW5maWxlLm1hZT4nLCAnLW9tYWUnLCAnPG91dGZpbGUubWFlPic=

> <r_epik_Ionization_Penalty>
6.35599

> <r_epik_Ionization_Penalty_Charging>
6.35441

> <r_epik_Ionization_Penalty_Neutral>
0.00158318

> <r_epik_State_Penalty>
7.1902

> <r_epik_Charging_Adjusted_Penalty>
13.5446

> <i_epik_Tot_Q>
0

> <i_epik_Tot_abs_Q>
2

> <r_epik_Metal_State_Penalty>
3.12491

> <b_epik_Metal_Only>
1

> <s_lp_Force_Field>
OPLS_2005

> <r_lp_Energy>
12.1212

> <b_lp_Chiralities_Consistent>
1

> <s_lp_Variant>
AV-unprocessed.smi:1586-11

> <Gold.Version>
5.8.1

> <Gold.Id.Protein>
6NUR|6NUR_protein|mol2

> <Gold.PLP.Fitness>
49.7364

> <Gold.PLP.PLP>
-35.1982

> <Gold.PLP.part.hbond>
-4.1931

> <Gold.PLP.part.metal>
0.0000

> <Gold.PLP.part.buried>
-7.2064

> <Gold.PLP.part.nonpolar>
-24.8069

> <Gold.PLP.part.repulsive>
0.5411

> <Gold.PLP.ligand.clash>
0.0000

> <Gold.PLP.ligand.torsion>
1.1831

> <Gold.PLP.Chemscore.Hbond>
5.6000

> <Gold.PLP.Chemscore.CHOScore>
0.0000

> <Gold.PLP.Chemscore.Metal>
0.0000

> <Gold.Chemscore.Hbonds>
donor molecule, donor type, donor heavy atom, donor atom, acceptor molecule, acceptor atom, score
      L1  H     6    46       P1  7948  2.00
      L1  H    10    37       P1  7948  0.55
      P1  H  7989  7998       L1    18  0.91
      P1  H 10752 10764       L1    13  2.00

> <Gold.PLP.Chemscore.Internal.Correction>
0.1043

> <Gold.Rescore>
     Score         DG    S(hbond)    S(metal)    S(lipo)     H(rot)  DE(clash)    DE(int)     intcor
     16.96     -18.03       2.81        0.00      64.87       1.73       0.07       1.00       ----

> <Gold.Chemscore.Fitness>
16.9647

> <Gold.Chemscore.DG>
-18.0320

> <Gold.Chemscore.ZeroCoef>
-5.4800

> <Gold.Chemscore.Hbond>
2.8078

> <Gold.Chemscore.Metal>
0.0000

> <Gold.Chemscore.Lipo>
64.8716

> <Gold.Chemscore.Internal_Hbond>
0.0000

> <Gold.Chemscore.DEClash>
0.0650

> <Gold.Chemscore.DEInternal>
1.0023

> <Gold.Chemscore.Rot>
1.7250

> <Gold.Chemscore.Internal.Correction>
   9.000000E+99

> <Gold.Chemscore.Hbonds>
donor molecule, donor type, donor heavy atom, donor atom, acceptor molecule, acceptor atom, score
      L1  H     6    46       P1  7948  1.00
      L1  H    10    37       P1  7948  0.03
      P1  H  7989  7998       L1    18  0.44
      P1  H 10752 10764       L1    13  0.45

> <Gold.Chemscore.Hbond.Weighted>
-9.3781

> <Gold.Chemscore.Metal.Weighted>
-0.0000

> <Gold.Chemscore.Lipo.Weighted>
-7.5900

> <Gold.Chemscore.Internal_Hbond.Weighted>
0.0000

> <Gold.Chemscore.DEClash.Weighted>
0.0650

> <Gold.Chemscore.DEInternal.Weighted>
1.0023

> <Gold.Chemscore.Rot.Weighted>
4.4161

> <Gold.Chemscore.Internal.Correction.Weighted>
   9.000000E+99

> <Gold.Protein.RotatedTorsions>
[ 6907 6896 6895 6894 ] final   77.84 input  -60.11 | X-H torsion
[ 7974 7965 7964 7962 ] final -138.31 input  175.53 | X-H torsion
[ 8008 7997 7996 7995 ] final   89.04 input   59.86 | X-H torsion
[ 10167 10162 10161 10158 ] final  125.88 input  -65.29 | X-H torsion
[ 10718 10713 10712 10709 ] final   71.66 input   66.30 | X-H torsion
[ 10763 10752 10751 10750 ] final  -77.32 input  -60.55 | X-H torsion
[ 11005 11000 10999 10996 ] final   -6.63 input  -57.11 | X-H torsion

> <Gold.Protein.ActiveResidues>
 VAL166  LYS551  ARG553  GLY616  TRP617  ASP618  TYR619  PRO620  LYS621  CYS622 
 ASP623  PHE694  ASN695  SER759  ASP760  ASP761  ALA762  ILE779  LEU786  VAL792 
 PHE793  MET794  SER795  GLU796  ALA797  LYS798  CYS799  TRP800  GLU811  SER814 

> <Gold.Protein.RotatedAtoms>
  152.5135  134.3755  159.9332 H   0  0  0  0  0  0  0  0  0  0  0  0  # atno 6907 bound_to 6896
  151.3711  133.3848  159.2707 H   0  0  0  0  0  0  0  0  0  0  0  0  # atno 6908 bound_to 6896
  150.9577  134.8989  159.7770 H   0  0  0  0  0  0  0  0  0  0  0  0  # atno 6909 bound_to 6896
  144.8769  140.6451  143.5231 H   0  0  0  0  0  0  0  0  0  0  0  0  # atno 7974 bound_to 7965
  155.9952  140.3365  155.6791 H   0  0  0  0  0  0  0  0  0  0  0  0  # atno 8008 bound_to 7997
  155.6366  140.0691  157.2650 H   0  0  0  0  0  0  0  0  0  0  0  0  # atno 8009 bound_to 7997
  154.4231  140.1750  156.1516 H   0  0  0  0  0  0  0  0  0  0  0  0  # atno 8010 bound_to 7997
  139.5661  144.6912  151.3906 H   0  0  0  0  0  0  0  0  0  0  0  0  # atno 10167 bound_to 10162
  157.6463  130.9539  150.0820 H   0  0  0  0  0  0  0  0  0  0  0  0  # atno 10718 bound_to 10713
  154.5115  135.5768  153.6608 H   0  0  0  0  0  0  0  0  0  0  0  0  # atno 10763 bound_to 10752
  152.9898  135.6160  154.2873 H   0  0  0  0  0  0  0  0  0  0  0  0  # atno 10764 bound_to 10752
  154.2788  135.2851  155.2686 H   0  0  0  0  0  0  0  0  0  0  0  0  # atno 10765 bound_to 10752
  140.7041  133.8964  155.8704 H   0  0  0  0  0  0  0  0  0  0  0  0  # atno 11005 bound_to 11000
  145.4025  139.1595  143.4169 LP  0  0  0  0  0  0  0  0  0  0  0  0  # atno 17320 bound_to 7965
  146.2969  140.4123  142.8718 LP  0  0  0  0  0  0  0  0  0  0  0  0  # atno 17321 bound_to 7965
  140.6944  143.7783  150.7304 LP  0  0  0  0  0  0  0  0  0  0  0  0  # atno 17342 bound_to 10162
  140.1275  143.4555  152.2275 LP  0  0  0  0  0  0  0  0  0  0  0  0  # atno 17343 bound_to 10162
  156.1793  130.3649  149.9057 LP  0  0  0  0  0  0  0  0  0  0  0  0  # atno 17370 bound_to 10713
  156.7013  130.8934  151.3599 LP  0  0  0  0  0  0  0  0  0  0  0  0  # atno 17371 bound_to 10713
  141.0139  134.0982  157.4192 LP  0  0  0  0  0  0  0  0  0  0  0  0  # atno 17394 bound_to 11000
  139.8889  135.0101  156.6646 LP  0  0  0  0  0  0  0  0  0  0  0  0  # atno 17395 bound_to 11000

$$$$
