AV-unprocessed.smi:312|AV-procd|sdf|2308|dock7
  -GOLD-   2262022203D 1   1.00000     0.00000
 Structure written by MMmdl.
 35 36  0  0  0  0  0  0  0  0  1 V2000
  149.4296  141.4305  156.7608 C   0  0  0  0  0  0  0  0  0  0  0  0
  150.8313  140.9148  157.1132 C   0  0  1  0  0  0  0  0  0  0  0  0
  151.6698  140.6547  155.8438 C   0  0  0  0  0  0  0  0  0  0  0  0
  151.4375  139.3385  155.2773 N   0  0  0  0  0  0  0  0  0  0  0  0
  150.2311  138.8228  154.8209 C   0  0  0  0  0  0  0  0  0  0  0  0
  150.4947  137.5509  154.3656 C   0  0  0  0  0  0  0  0  0  0  0  0
  151.8464  137.2621  154.5374 N   0  0  0  0  0  0  0  0  0  0  0  0
  152.3394  138.3665  155.0830 C   0  0  0  0  0  0  0  0  0  0  0  0
  151.4916  141.8891  157.9811 N   0  0  0  0  0  0  0  0  0  0  0  0
  152.5870  141.6621  158.7238 C   0  0  0  0  0  0  0  0  0  0  0  0
  153.1550  140.5706  158.7755 O   0  0  0  0  0  0  0  0  0  0  0  0
  153.1311  142.8596  159.5189 C   0  0  0  0  0  0  0  0  0  0  0  0
  152.8552  142.7153  161.0341 C   0  0  0  0  0  0  0  0  0  0  0  0
  151.9749  143.9029  161.4446 C   0  0  0  0  0  0  0  0  0  0  0  0
  151.3575  144.4173  160.1474 C   0  0  0  0  0  0  0  0  0  0  0  0
  152.4479  144.1769  159.1046 C   0  0  0  0  0  0  0  0  0  0  0  0
  148.8935  140.7142  156.1377 H   0  0  0  0  0  0  0  0  0  0  0  0
  149.4777  142.3742  156.2161 H   0  0  0  0  0  0  0  0  0  0  0  0
  148.8336  141.5941  157.6593 H   0  0  0  0  0  0  0  0  0  0  0  0
  150.7009  139.9706  157.6455 H   0  0  0  0  0  0  0  0  0  0  0  0
  151.4301  141.3941  155.0784 H   0  0  0  0  0  0  0  0  0  0  0  0
  152.7344  140.7615  156.0577 H   0  0  0  0  0  0  0  0  0  0  0  0
  149.3125  139.3902  154.8501 H   0  0  0  0  0  0  0  0  0  0  0  0
  149.8206  136.8272  153.9319 H   0  0  0  0  0  0  0  0  0  0  0  0
  153.3825  138.4735  155.3422 H   0  0  0  0  0  0  0  0  0  0  0  0
  151.0950  142.8174  158.0030 H   0  0  0  0  0  0  0  0  0  0  0  0
  154.2049  142.9426  159.3423 H   0  0  0  0  0  0  0  0  0  0  0  0
  152.3430  141.7798  161.2674 H   0  0  0  0  0  0  0  0  0  0  0  0
  153.7840  142.7097  161.6055 H   0  0  0  0  0  0  0  0  0  0  0  0
  151.2220  143.6299  162.1847 H   0  0  0  0  0  0  0  0  0  0  0  0
  152.5988  144.6832  161.8824 H   0  0  0  0  0  0  0  0  0  0  0  0
  150.4706  143.8321  159.9005 H   0  0  0  0  0  0  0  0  0  0  0  0
  151.0597  145.4642  160.2104 H   0  0  0  0  0  0  0  0  0  0  0  0
  153.1747  144.9894  159.1420 H   0  0  0  0  0  0  0  0  0  0  0  0
  152.0433  144.1584  158.0913 H   0  0  0  0  0  0  0  0  0  0  0  0
  1  2  1  0  0  0  0
  1 17  1  0  0  0  0
  1 18  1  0  0  0  0
  1 19  1  0  0  0  0
  2  3  1  0  0  0  0
  2  9  1  0  0  0  0
  2 20  1  0  0  0  0
  3  4  1  0  0  0  0
  3 21  1  0  0  0  0
  3 22  1  0  0  0  0
  4  8  1  0  0  0  0
  4  5  1  0  0  0  0
  5  6  2  0  0  0  0
  5 23  1  0  0  0  0
  6  7  1  0  0  0  0
  6 24  1  0  0  0  0
  7  8  2  0  0  0  0
  8 25  1  0  0  0  0
  9 10  1  0  0  0  0
  9 26  1  0  0  0  0
 10 11  2  0  0  0  0
 10 12  1  0  0  0  0
 12 16  1  0  0  0  0
 12 13  1  0  0  0  0
 12 27  1  0  0  0  0
 13 14  1  0  0  0  0
 13 28  1  0  0  0  0
 13 29  1  0  0  0  0
 14 15  1  0  0  0  0
 14 30  1  0  0  0  0
 14 31  1  0  0  0  0
 15 16  1  0  0  0  0
 15 32  1  0  0  0  0
 15 33  1  0  0  0  0
 16 34  1  0  0  0  0
 16 35  1  0  0  0  0
M  END
> <s_m_source_file>
AV-unprocessed.smi

> <i_m_source_file_index>
312

> <i_lp_mmshare_version>
43012

> <i_f3d_flags>
0

> <s_epik_input>
W2NIXTFuW2NIXVtjSF1uMVtDSDJdW0NAQEhdKFtDSDNdKVtOSF1DKD1PKVtDSF0yW0NIMl1bQ0gyXVtDSDJdW0NIMl0y

> <s_epik_cmdline>
J2VwaWtfcHl0aG9uJywgJy1waCcsICc3LjAnLCAnLXRuJywgJzgnLCAnLW1hJywgJzIwMCcsICctbWV0YWxfYmluZGluZycsICctaW1hZScsICc8aW5maWxlLm1hZT4nLCAnLW9tYWUnLCAnPG91dGZpbGUubWFlPic=

> <r_lp_tautomer_probability>
1

> <r_epik_Ionization_Penalty>
0.642614

> <r_epik_Ionization_Penalty_Charging>
0.642614

> <r_epik_Ionization_Penalty_Neutral>
3.44135e-08

> <r_epik_State_Penalty>
0.660429

> <r_epik_Charging_Adjusted_Penalty>
1.30304

> <i_epik_Tot_Q>
0

> <i_epik_Tot_abs_Q>
0

> <r_epik_Metal_State_Penalty>
0.31224

> <b_epik_Metal_Only>
0

> <s_lp_Force_Field>
OPLS_2005

> <r_lp_Energy>
21.6538

> <b_lp_Chiralities_Consistent>
1

> <s_lp_Variant>
AV-unprocessed.smi:312-4

> <Gold.Version>
5.8.1

> <Gold.Id.Protein>
6NUR|6NUR_protein|mol2

> <Gold.PLP.Fitness>
44.1834

> <Gold.PLP.PLP>
-39.5464

> <Gold.PLP.part.hbond>
-1.8271

> <Gold.PLP.part.metal>
0.0000

> <Gold.PLP.part.buried>
-3.9826

> <Gold.PLP.part.nonpolar>
-33.3736

> <Gold.PLP.part.repulsive>
0.2038

> <Gold.PLP.ligand.clash>
1.0036

> <Gold.PLP.ligand.torsion>
0.7269

> <Gold.PLP.Chemscore.Hbond>
1.3578

> <Gold.PLP.Chemscore.CHOScore>
1.0000

> <Gold.PLP.Chemscore.Metal>
0.0000

> <Gold.Chemscore.Hbonds>
donor molecule, donor type, donor heavy atom, donor atom, acceptor molecule, acceptor atom, score
      P1  H  7997  8008       L1    11  0.24
      P1  H 10752 10765       L1     7  0.99
      L1  C     6    24       P1  7948  1.00

> <Gold.PLP.Chemscore.Internal.Correction>
0.0210

> <Gold.Rescore>
     Score         DG    S(hbond)    S(metal)    S(lipo)     H(rot)  DE(clash)    DE(int)     intcor
     15.94     -16.57       1.47        0.00      91.33       1.76       0.15       0.49       ----

> <Gold.Chemscore.Fitness>
15.9396

> <Gold.Chemscore.DG>
-16.5748

> <Gold.Chemscore.ZeroCoef>
-5.4800

> <Gold.Chemscore.Hbond>
1.4688

> <Gold.Chemscore.Metal>
0.0000

> <Gold.Chemscore.Lipo>
91.3272

> <Gold.Chemscore.Internal_Hbond>
0.0000

> <Gold.Chemscore.DEClash>
0.1484

> <Gold.Chemscore.DEInternal>
0.4867

> <Gold.Chemscore.Rot>
1.7563

> <Gold.Chemscore.Internal.Correction>
   9.000000E+99

> <Gold.Chemscore.Hbonds>
donor molecule, donor type, donor heavy atom, donor atom, acceptor molecule, acceptor atom, score
      P1  H  7997  8008       L1    11  0.23
      P1  H 10752 10765       L1     7  0.91

> <Gold.Chemscore.Hbond.Weighted>
-4.9057

> <Gold.Chemscore.Metal.Weighted>
-0.0000

> <Gold.Chemscore.Lipo.Weighted>
-10.6853

> <Gold.Chemscore.Internal_Hbond.Weighted>
0.0000

> <Gold.Chemscore.DEClash.Weighted>
0.1484

> <Gold.Chemscore.DEInternal.Weighted>
0.4867

> <Gold.Chemscore.Rot.Weighted>
4.4962

> <Gold.Chemscore.Internal.Correction.Weighted>
   9.000000E+99

> <Gold.Protein.RotatedTorsions>
[ 6907 6896 6895 6894 ] final -143.42 input  -60.11 | X-H torsion
[ 7974 7965 7964 7962 ] final  -51.43 input  175.53 | X-H torsion
[ 8008 7997 7996 7995 ] final  -93.28 input   59.86 | X-H torsion
[ 10167 10162 10161 10158 ] final  -93.45 input  -65.29 | X-H torsion
[ 10718 10713 10712 10709 ] final -129.09 input   66.30 | X-H torsion
[ 10763 10752 10751 10750 ] final  169.72 input  -60.55 | X-H torsion
[ 11005 11000 10999 10996 ] final  160.80 input  -57.11 | X-H torsion

> <Gold.Protein.ActiveResidues>
 VAL166  LYS551  ARG553  GLY616  TRP617  ASP618  TYR619  PRO620  LYS621  CYS622 
 ASP623  PHE694  ASN695  SER759  ASP760  ASP761  ALA762  ILE779  LEU786  VAL792 
 PHE793  MET794  SER795  GLU796  ALA797  LYS798  CYS799  TRP800  GLU811  SER814 

> <Gold.Protein.RotatedAtoms>
  151.1003  133.5249  159.2610 H   0  0  0  0  0  0  0  0  0  0  0  0  # atno 6907 bound_to 6896
  151.2082  135.0470  159.8910 H   0  0  0  0  0  0  0  0  0  0  0  0  # atno 6908 bound_to 6896
  152.5442  134.0822  159.8294 H   0  0  0  0  0  0  0  0  0  0  0  0  # atno 6909 bound_to 6896
  145.9190  140.7850  142.9657 H   0  0  0  0  0  0  0  0  0  0  0  0  # atno 7974 bound_to 7965
  154.7336  140.0500  157.0749 H   0  0  0  0  0  0  0  0  0  0  0  0  # atno 8008 bound_to 7997
  155.0269  140.3153  155.4753 H   0  0  0  0  0  0  0  0  0  0  0  0  # atno 8009 bound_to 7997
  156.2847  140.2157  156.5389 H   0  0  0  0  0  0  0  0  0  0  0  0  # atno 8010 bound_to 7997
  140.3245  143.3030  152.0010 H   0  0  0  0  0  0  0  0  0  0  0  0  # atno 10167 bound_to 10162
  156.2013  130.6859  151.0542 H   0  0  0  0  0  0  0  0  0  0  0  0  # atno 10718 bound_to 10713
  154.3873  135.2754  155.2176 H   0  0  0  0  0  0  0  0  0  0  0  0  # atno 10763 bound_to 10752
  154.4257  135.5989  153.6041 H   0  0  0  0  0  0  0  0  0  0  0  0  # atno 10764 bound_to 10752
  152.9833  135.5983  154.4123 H   0  0  0  0  0  0  0  0  0  0  0  0  # atno 10765 bound_to 10752
  140.2095  134.8278  157.3105 H   0  0  0  0  0  0  0  0  0  0  0  0  # atno 11005 bound_to 11000
  144.6751  140.1946  143.7393 LP  0  0  0  0  0  0  0  0  0  0  0  0  # atno 17320 bound_to 7965
  145.8574  139.2205  143.1736 LP  0  0  0  0  0  0  0  0  0  0  0  0  # atno 17321 bound_to 7965
  139.4868  144.6284  151.7118 LP  0  0  0  0  0  0  0  0  0  0  0  0  # atno 17342 bound_to 10162
  140.5453  144.0513  150.6104 LP  0  0  0  0  0  0  0  0  0  0  0  0  # atno 17343 bound_to 10162
  157.6987  131.0784  150.6888 LP  0  0  0  0  0  0  0  0  0  0  0  0  # atno 17370 bound_to 10713
  156.6945  130.4605  149.5590 LP  0  0  0  0  0  0  0  0  0  0  0  0  # atno 17371 bound_to 10713
  140.1967  134.4305  155.7685 LP  0  0  0  0  0  0  0  0  0  0  0  0  # atno 17394 bound_to 11000
  141.2226  133.7052  156.8116 LP  0  0  0  0  0  0  0  0  0  0  0  0  # atno 17395 bound_to 11000

$$$$
