AV-unprocessed.smi:1198|AV-procd|sdf|5013|dock2
  -GOLD-   22720 4 33D 1   1.00000     0.00000
 Structure written by MMmdl.
 40 41  0  0  0  0  0  0  0  0  2 V2000
  151.5634  142.0490  157.6089 C   0  0  0  0  0  0  0  0  0  0  0  0
  150.5356  142.4439  156.7062 O   0  0  0  0  0  0  0  0  0  0  0  0
  149.9471  141.4746  155.9200 C   0  0  0  0  0  0  0  0  0  0  0  0
  150.6639  140.2904  155.6576 C   0  0  0  0  0  0  0  0  0  0  0  0
  150.0675  139.3005  154.8538 C   0  0  0  0  0  0  0  0  0  0  0  0
  148.7786  139.5239  154.3287 C   0  0  0  0  0  0  0  0  0  0  0  0
  148.1944  138.5000  153.5342 N   0  0  0  0  0  0  0  0  0  0  0  0
  146.8942  138.2906  153.2644 C   0  0  0  0  0  0  0  0  0  0  0  0
  145.9655  139.0075  153.6362 O   0  0  0  0  0  0  0  0  0  0  0  0
  146.7241  137.1991  152.5043 N   0  0  0  0  0  0  0  0  0  0  0  0
  145.4375  136.6752  152.0543 C   0  0  0  0  0  0  0  0  0  0  0  0
  145.5942  135.4970  151.0731 C   0  0  1  0  0  0  0  0  0  0  0  0
  146.3279  134.2960  151.6703 C   0  0  0  0  0  0  0  0  0  0  0  0
  145.8847  133.1037  150.8124 C   0  0  0  0  0  0  0  0  0  0  0  0
  144.6670  133.5318  150.0859 N   0  3  1  0  0  0  0  0  0  0  0  0
  143.5691  132.5427  150.0869 C   0  0  0  0  0  0  0  0  0  0  0  0
  144.2852  134.8626  150.5974 C   0  0  0  0  0  0  0  0  0  0  0  0
  148.1347  140.7410  154.6618 C   0  0  0  0  0  0  0  0  0  0  0  0
  148.7011  141.6935  155.4324 N   0  0  0  0  0  0  0  0  0  0  0  0
  151.9219  142.9225  158.1532 H   0  0  0  0  0  0  0  0  0  0  0  0
  152.4144  141.6172  157.0802 H   0  0  0  0  0  0  0  0  0  0  0  0
  151.1956  141.3305  158.3428 H   0  0  0  0  0  0  0  0  0  0  0  0
  151.6532  140.1446  156.0659 H   0  0  0  0  0  0  0  0  0  0  0  0
  150.5980  138.3835  154.6420 H   0  0  0  0  0  0  0  0  0  0  0  0
  148.8487  137.8743  153.0875 H   0  0  0  0  0  0  0  0  0  0  0  0
  147.5448  136.6733  152.2402 H   0  0  0  0  0  0  0  0  0  0  0  0
  144.8933  136.3402  152.9377 H   0  0  0  0  0  0  0  0  0  0  0  0
  144.8335  137.4688  151.6106 H   0  0  0  0  0  0  0  0  0  0  0  0
  146.1515  135.8346  150.1973 H   0  0  0  0  0  0  0  0  0  0  0  0
  147.4103  134.4271  151.6788 H   0  0  0  0  0  0  0  0  0  0  0  0
  146.0068  134.1380  152.7010 H   0  0  0  0  0  0  0  0  0  0  0  0
  146.6505  132.8406  150.0822 H   0  0  0  0  0  0  0  0  0  0  0  0
  145.7070  132.2261  151.4360 H   0  0  0  0  0  0  0  0  0  0  0  0
  143.2267  132.3354  151.1018 H   0  0  0  0  0  0  0  0  0  0  0  0
  143.9005  131.6059  149.6379 H   0  0  0  0  0  0  0  0  0  0  0  0
  142.7226  132.9137  149.5083 H   0  0  0  0  0  0  0  0  0  0  0  0
  143.5996  134.7487  151.4391 H   0  0  0  0  0  0  0  0  0  0  0  0
  143.7839  135.4535  149.8303 H   0  0  0  0  0  0  0  0  0  0  0  0
  147.1340  140.9698  154.3311 H   0  0  0  0  0  0  0  0  0  0  0  0
  144.9471  133.6690  149.1253 H   0  0  0  0  0  0  0  0  0  0  0  0
  1  2  1  0  0  0  0
  1 20  1  0  0  0  0
  1 21  1  0  0  0  0
  1 22  1  0  0  0  0
  2  3  1  0  0  0  0
  3 19  1  0  0  0  0
  3  4  2  0  0  0  0
  4  5  1  0  0  0  0
  4 23  1  0  0  0  0
  5  6  2  0  0  0  0
  5 24  1  0  0  0  0
  6  7  1  0  0  0  0
  6 18  1  0  0  0  0
  7  8  1  0  0  0  0
  7 25  1  0  0  0  0
  8  9  2  0  0  0  0
  8 10  1  0  0  0  0
 10 11  1  0  0  0  0
 10 26  1  0  0  0  0
 11 12  1  0  0  0  0
 11 27  1  0  0  0  0
 11 28  1  0  0  0  0
 12 17  1  0  0  0  0
 12 13  1  0  0  0  0
 12 29  1  0  0  0  0
 13 14  1  0  0  0  0
 13 30  1  0  0  0  0
 13 31  1  0  0  0  0
 14 15  1  0  0  0  0
 14 32  1  0  0  0  0
 14 33  1  0  0  0  0
 15 16  1  0  0  0  0
 15 17  1  0  0  0  0
 15 40  1  0  0  0  0
 16 34  1  0  0  0  0
 16 35  1  0  0  0  0
 16 36  1  0  0  0  0
 17 37  1  0  0  0  0
 17 38  1  0  0  0  0
 18 19  2  0  0  0  0
 18 39  1  0  0  0  0
M  CHG  1  15   1
M  END
> <s_m_source_file>
AV-unprocessed.smi

> <i_m_source_file_index>
1198

> <i_lp_mmshare_version>
43012

> <i_f3d_flags>
0

> <s_epik_input>
W0NIM11PYzFbY0hdW2NIXWMoW2NIXW4xKVtOSF1DKD1PKVtOSF1bQ0gyXVtDQEBIXTJbQ0gyXVtDSDJdTihbQ0gzXSlbQ0gyXTI=

> <s_epik_cmdline>
J2VwaWtfcHl0aG9uJywgJy1waCcsICc3LjAnLCAnLXRuJywgJzgnLCAnLW1hJywgJzIwMCcsICctbWV0YWxfYmluZGluZycsICctaW1hZScsICc8aW5maWxlLm1hZT4nLCAnLW9tYWUnLCAnPG91dGZpbGUubWFlPic=

> <r_lp_tautomer_probability>
1

> <r_epik_Ionization_Penalty>
0.00131396

> <r_epik_Ionization_Penalty_Charging>
0.0012301

> <r_epik_Ionization_Penalty_Neutral>
8.38549e-05

> <r_epik_State_Penalty>
0.00081314

> <r_epik_Charging_Adjusted_Penalty>
0.00204324

> <i_epik_Tot_Q>
1

> <i_epik_Tot_abs_Q>
1

> <r_epik_Metal_State_Penalty>
-0

> <b_epik_Metal_Only>
0

> <s_lp_Force_Field>
OPLS_2005

> <r_lp_Energy>
29.2509

> <b_lp_Chiralities_Consistent>
1

> <s_lp_Variant>
AV-unprocessed.smi:1198-4

> <Gold.Version>
5.8.1

> <Gold.Id.Protein>
6NUR|6NUR_protein|mol2

> <Gold.PLP.Fitness>
39.1655

> <Gold.PLP.PLP>
-32.1347

> <Gold.PLP.part.hbond>
-3.6516

> <Gold.PLP.part.metal>
0.0000

> <Gold.PLP.part.buried>
-4.2045

> <Gold.PLP.part.nonpolar>
-27.2069

> <Gold.PLP.part.repulsive>
2.1744

> <Gold.PLP.ligand.clash>
0.0000

> <Gold.PLP.ligand.torsion>
0.4453

> <Gold.PLP.Chemscore.Hbond>
2.6365

> <Gold.PLP.Chemscore.CHOScore>
0.0000

> <Gold.PLP.Chemscore.Metal>
0.0000

> <Gold.Chemscore.Hbonds>
donor molecule, donor type, donor heavy atom, donor atom, acceptor molecule, acceptor atom, score
      L1  H     7    25       P1  7948  0.86
      L1  H    10    26       P1  7948  0.96
      L1  H    15    40       P1  7921  0.53

> <Gold.PLP.Chemscore.Internal.Correction>
0.0119

> <Gold.Rescore>
     Score         DG    S(hbond)    S(metal)    S(lipo)     H(rot)  DE(clash)    DE(int)     intcor
     14.17     -19.58       2.62        0.00      78.85       1.51       3.82       1.59       ----

> <Gold.Chemscore.Fitness>
14.1688

> <Gold.Chemscore.DG>
-19.5787

> <Gold.Chemscore.ZeroCoef>
-5.4800

> <Gold.Chemscore.Hbond>
2.6202

> <Gold.Chemscore.Metal>
0.0000

> <Gold.Chemscore.Lipo>
78.8506

> <Gold.Chemscore.Internal_Hbond>
0.0000

> <Gold.Chemscore.DEClash>
3.8202

> <Gold.Chemscore.DEInternal>
1.5897

> <Gold.Chemscore.Rot>
1.5149

> <Gold.Chemscore.Internal.Correction>
   9.000000E+99

> <Gold.Chemscore.Hbonds>
donor molecule, donor type, donor heavy atom, donor atom, acceptor molecule, acceptor atom, score
      L1  H     7    25       P1  7948  0.81
      L1  H    10    26       P1  7948  0.90
      L1  H    15    40       P1  7921  0.46

> <Gold.Chemscore.Hbond.Weighted>
-8.7513

> <Gold.Chemscore.Metal.Weighted>
-0.0000

> <Gold.Chemscore.Lipo.Weighted>
-9.2255

> <Gold.Chemscore.Internal_Hbond.Weighted>
0.0000

> <Gold.Chemscore.DEClash.Weighted>
3.8202

> <Gold.Chemscore.DEInternal.Weighted>
1.5897

> <Gold.Chemscore.Rot.Weighted>
3.8781

> <Gold.Chemscore.Internal.Correction.Weighted>
   9.000000E+99

> <Gold.Protein.RotatedTorsions>
[ 6907 6896 6895 6894 ] final  113.47 input  -60.11 | X-H torsion
[ 7974 7965 7964 7962 ] final  160.69 input  175.53 | X-H torsion
[ 8008 7997 7996 7995 ] final   34.05 input   59.86 | X-H torsion
[ 10167 10162 10161 10158 ] final   74.06 input  -65.29 | X-H torsion
[ 10718 10713 10712 10709 ] final  -93.86 input   66.30 | X-H torsion
[ 10763 10752 10751 10750 ] final   11.01 input  -60.55 | X-H torsion
[ 11005 11000 10999 10996 ] final -117.32 input  -57.11 | X-H torsion

> <Gold.Protein.ActiveResidues>
 VAL166  LYS551  ARG553  GLY616  TRP617  ASP618  TYR619  PRO620  LYS621  CYS622 
 ASP623  PHE694  ASN695  SER759  ASP760  ASP761  ALA762  ILE779  LEU786  VAL792 
 PHE793  MET794  SER795  GLU796  ALA797  LYS798  CYS799  TRP800  GLU811  SER814 

> <Gold.Protein.RotatedAtoms>
  152.4859  133.8371  159.7132 H   0  0  0  0  0  0  0  0  0  0  0  0  # atno 6907 bound_to 6896
  150.8945  133.7190  159.2902 H   0  0  0  0  0  0  0  0  0  0  0  0  # atno 6908 bound_to 6896
  151.4652  135.1045  159.9788 H   0  0  0  0  0  0  0  0  0  0  0  0  # atno 6909 bound_to 6896
  144.7724  139.7793  143.6292 H   0  0  0  0  0  0  0  0  0  0  0  0  # atno 7974 bound_to 7965
  155.1485  140.3272  155.4436 H   0  0  0  0  0  0  0  0  0  0  0  0  # atno 8008 bound_to 7997
  156.2582  140.1981  156.6548 H   0  0  0  0  0  0  0  0  0  0  0  0  # atno 8009 bound_to 7997
  154.6490  140.0561  156.9920 H   0  0  0  0  0  0  0  0  0  0  0  0  # atno 8010 bound_to 7997
  140.0178  144.5564  150.7606 H   0  0  0  0  0  0  0  0  0  0  0  0  # atno 10167 bound_to 10162
  156.0019  130.5044  150.5840 H   0  0  0  0  0  0  0  0  0  0  0  0  # atno 10718 bound_to 10713
  153.1971  135.6850  153.8278 H   0  0  0  0  0  0  0  0  0  0  0  0  # atno 10763 bound_to 10752
  153.7558  135.3217  155.3330 H   0  0  0  0  0  0  0  0  0  0  0  0  # atno 10764 bound_to 10752
  154.8150  135.4691  154.0720 H   0  0  0  0  0  0  0  0  0  0  0  0  # atno 10765 bound_to 10752
  141.0362  133.9905  157.3066 H   0  0  0  0  0  0  0  0  0  0  0  0  # atno 11005 bound_to 11000
  146.1880  139.5105  142.9824 LP  0  0  0  0  0  0  0  0  0  0  0  0  # atno 17320 bound_to 7965
  145.6286  141.0309  143.1876 LP  0  0  0  0  0  0  0  0  0  0  0  0  # atno 17321 bound_to 7965
  140.7355  143.2741  151.3795 LP  0  0  0  0  0  0  0  0  0  0  0  0  # atno 17342 bound_to 10162
  139.6160  144.1001  152.2346 LP  0  0  0  0  0  0  0  0  0  0  0  0  # atno 17343 bound_to 10162
  157.3716  131.0766  151.1553 LP  0  0  0  0  0  0  0  0  0  0  0  0  # atno 17370 bound_to 10713
  157.2305  130.6523  149.5847 LP  0  0  0  0  0  0  0  0  0  0  0  0  # atno 17371 bound_to 10713
  139.9243  135.0201  156.8177 LP  0  0  0  0  0  0  0  0  0  0  0  0  # atno 17394 bound_to 11000
  140.6317  133.9899  155.7665 LP  0  0  0  0  0  0  0  0  0  0  0  0  # atno 17395 bound_to 11000

$$$$
