AV-unprocessed.smi:3250|AV-procd|sdf|12434|dock6
  -GOLD-   2272018323D 1   1.00000     0.00000
 Structure written by MMmdl.
 40 41  0  0  0  0  0  0  0  0  3 V2000
  143.7756  132.1873  150.6762 C   0  0  0  0  0  0  0  0  0  0  0  0
  144.1552  133.5882  150.1762 C   0  0  0  0  0  0  0  0  0  0  0  0
  144.5498  134.5007  151.2785 N   0  3  2  0  0  0  0  0  0  0  0  0
  143.4251  134.7803  152.2021 C   0  0  0  0  0  0  0  0  0  0  0  0
  143.8835  135.6951  153.3482 C   0  0  0  0  0  0  0  0  0  0  0  0
  144.4227  136.8947  152.8079 O   0  0  0  0  0  0  0  0  0  0  0  0
  145.5734  136.6553  152.0039 C   0  0  2  0  0  0  0  0  0  0  0  0
  146.1239  138.0118  151.5404 C   0  0  0  0  0  0  0  0  0  0  0  0
  147.3947  138.3254  152.1772 N   0  0  0  0  0  0  0  0  0  0  0  0
  147.5771  139.3927  153.0368 C   0  0  0  0  0  0  0  0  0  0  0  0
  146.5174  140.1759  153.2875 N   0  3  0  0  0  0  0  0  0  0  0  0
  146.6473  141.2394  154.1183 C   0  0  0  0  0  0  0  0  0  0  0  0
  147.8864  141.5234  154.7202 C   0  0  0  0  0  0  0  0  0  0  0  0
  148.9533  140.6611  154.4188 C   0  0  0  0  0  0  0  0  0  0  0  0
  150.1906  140.8876  154.9852 O   0  0  0  0  0  0  0  0  0  0  0  0
  150.2713  141.7642  156.1038 C   0  0  0  0  0  0  0  0  0  0  0  0
  148.7832  139.6104  153.5811 N   0  0  0  0  0  0  0  0  0  0  0  0
  145.1626  135.7694  150.8099 C   0  0  0  0  0  0  0  0  0  0  0  0
  143.4003  131.5769  149.8543 H   0  0  0  0  0  0  0  0  0  0  0  0
  142.9927  132.2369  151.4335 H   0  0  0  0  0  0  0  0  0  0  0  0
  144.6281  131.6609  151.1041 H   0  0  0  0  0  0  0  0  0  0  0  0
  144.9528  133.5290  149.4343 H   0  0  0  0  0  0  0  0  0  0  0  0
  143.2874  134.0060  149.6638 H   0  0  0  0  0  0  0  0  0  0  0  0
  142.6080  135.2506  151.6528 H   0  0  0  0  0  0  0  0  0  0  0  0
  143.0403  133.8459  152.6126 H   0  0  0  0  0  0  0  0  0  0  0  0
  143.0390  135.9448  153.9908 H   0  0  0  0  0  0  0  0  0  0  0  0
  144.6245  135.1962  153.9751 H   0  0  0  0  0  0  0  0  0  0  0  0
  146.3349  136.1411  152.5939 H   0  0  0  0  0  0  0  0  0  0  0  0
  146.2756  137.9978  150.4603 H   0  0  0  0  0  0  0  0  0  0  0  0
  145.4048  138.8039  151.7531 H   0  0  0  0  0  0  0  0  0  0  0  0
  148.1435  137.6518  152.1064 H   0  0  0  0  0  0  0  0  0  0  0  0
  145.7550  141.8280  154.2742 H   0  0  0  0  0  0  0  0  0  0  0  0
  148.0114  142.3651  155.3857 H   0  0  0  0  0  0  0  0  0  0  0  0
  151.3090  141.8389  156.4288 H   0  0  0  0  0  0  0  0  0  0  0  0
  149.6865  141.3928  156.9465 H   0  0  0  0  0  0  0  0  0  0  0  0
  149.9324  142.7691  155.8479 H   0  0  0  0  0  0  0  0  0  0  0  0
  146.0416  135.5597  150.2010 H   0  0  0  0  0  0  0  0  0  0  0  0
  144.4530  136.3018  150.1739 H   0  0  0  0  0  0  0  0  0  0  0  0
  145.2484  134.0129  151.8210 H   0  0  0  0  0  0  0  0  0  0  0  0
  145.6113  139.9855  152.8593 H   0  0  0  0  0  0  0  0  0  0  0  0
  1  2  1  0  0  0  0
  1 19  1  0  0  0  0
  1 20  1  0  0  0  0
  1 21  1  0  0  0  0
  2  3  1  0  0  0  0
  2 22  1  0  0  0  0
  2 23  1  0  0  0  0
  3 18  1  0  0  0  0
  3  4  1  0  0  0  0
  3 39  1  0  0  0  0
  4  5  1  0  0  0  0
  4 24  1  0  0  0  0
  4 25  1  0  0  0  0
  5  6  1  0  0  0  0
  5 26  1  0  0  0  0
  5 27  1  0  0  0  0
  6  7  1  0  0  0  0
  7  8  1  0  0  0  0
  7 18  1  0  0  0  0
  7 28  1  0  0  0  0
  8  9  1  0  0  0  0
  8 29  1  0  0  0  0
  8 30  1  0  0  0  0
  9 10  1  0  0  0  0
  9 31  1  0  0  0  0
 10 17  1  0  0  0  0
 10 11  2  0  0  0  0
 11 12  1  0  0  0  0
 11 40  1  0  0  0  0
 12 13  2  0  0  0  0
 12 32  1  0  0  0  0
 13 14  1  0  0  0  0
 13 33  1  0  0  0  0
 14 15  1  0  0  0  0
 14 17  2  0  0  0  0
 15 16  1  0  0  0  0
 16 34  1  0  0  0  0
 16 35  1  0  0  0  0
 16 36  1  0  0  0  0
 18 37  1  0  0  0  0
 18 38  1  0  0  0  0
M  CHG  1   3   1
M  CHG  1  11   1
M  END
> <s_m_source_file>
AV-unprocessed.smi

> <i_m_source_file_index>
3250

> <i_lp_mmshare_version>
43012

> <i_f3d_flags>
0

> <s_epik_input>
W0NIM11bQ0gyXU4xW0NIMl1bQ0gyXU9bQ0BIXShbQ0gyXTEpW0NIMl1bTkhdYzJuW2NIXVtjSF1jKG4yKU9bQ0gzXQ==

> <s_epik_cmdline>
J2VwaWtfcHl0aG9uJywgJy1waCcsICc3LjAnLCAnLXRuJywgJzgnLCAnLW1hJywgJzIwMCcsICctbWV0YWxfYmluZGluZycsICctaW1hZScsICc8aW5maWxlLm1hZT4nLCAnLW9tYWUnLCAnPG91dGZpbGUubWFlPic=

> <r_lp_tautomer_probability>
0.999985

> <r_epik_Ionization_Penalty>
2.24691

> <r_epik_Ionization_Penalty_Charging>
2.24686

> <r_epik_Ionization_Penalty_Neutral>
4.52111e-05

> <r_epik_State_Penalty>
2.24709

> <r_epik_Charging_Adjusted_Penalty>
4.49395

> <i_epik_Tot_Q>
2

> <i_epik_Tot_abs_Q>
2

> <r_epik_Metal_State_Penalty>
2.26327

> <b_epik_Metal_Only>
0

> <s_lp_Force_Field>
OPLS_2005

> <r_lp_Energy>
18.1158

> <b_lp_Chiralities_Consistent>
1

> <s_lp_Variant>
AV-unprocessed.smi:3250-10

> <Gold.Version>
5.8.1

> <Gold.Id.Protein>
6NUR|6NUR_protein|mol2

> <Gold.PLP.Fitness>
42.7812

> <Gold.PLP.PLP>
-30.4240

> <Gold.PLP.part.hbond>
-4.0000

> <Gold.PLP.part.metal>
0.0000

> <Gold.PLP.part.buried>
-2.0480

> <Gold.PLP.part.nonpolar>
-29.5192

> <Gold.PLP.part.repulsive>
4.0024

> <Gold.PLP.ligand.clash>
0.0000

> <Gold.PLP.ligand.torsion>
0.9442

> <Gold.PLP.Chemscore.Hbond>
4.7438

> <Gold.PLP.Chemscore.CHOScore>
0.0000

> <Gold.PLP.Chemscore.Metal>
0.0000

> <Gold.Chemscore.Hbonds>
donor molecule, donor type, donor heavy atom, donor atom, acceptor molecule, acceptor atom, score
      L1  H     9    31       P1  7948  2.00
      L1  H    11    40       P1 10175  2.00
      P1  H  7989  7998       L1    15  0.71

> <Gold.PLP.Chemscore.Internal.Correction>
0.0141

> <Gold.Rescore>
     Score         DG    S(hbond)    S(metal)    S(lipo)     H(rot)  DE(clash)    DE(int)     intcor
     12.42     -17.09       2.44        0.00      67.89       1.75       3.66       1.01       ----

> <Gold.Chemscore.Fitness>
12.4158

> <Gold.Chemscore.DG>
-17.0898

> <Gold.Chemscore.ZeroCoef>
-5.4800

> <Gold.Chemscore.Hbond>
2.4413

> <Gold.Chemscore.Metal>
0.0000

> <Gold.Chemscore.Lipo>
67.8928

> <Gold.Chemscore.Internal_Hbond>
0.0000

> <Gold.Chemscore.DEClash>
3.6643

> <Gold.Chemscore.DEInternal>
1.0097

> <Gold.Chemscore.Rot>
1.7530

> <Gold.Chemscore.Internal.Correction>
   9.000000E+99

> <Gold.Chemscore.Hbonds>
donor molecule, donor type, donor heavy atom, donor atom, acceptor molecule, acceptor atom, score
      L1  H     9    31       P1  7948  0.99
      L1  H    11    40       P1 10175  0.89
      P1  H  7989  7998       L1    15  0.46

> <Gold.Chemscore.Hbond.Weighted>
-8.1540

> <Gold.Chemscore.Metal.Weighted>
-0.0000

> <Gold.Chemscore.Lipo.Weighted>
-7.9435

> <Gold.Chemscore.Internal_Hbond.Weighted>
0.0000

> <Gold.Chemscore.DEClash.Weighted>
3.6643

> <Gold.Chemscore.DEInternal.Weighted>
1.0097

> <Gold.Chemscore.Rot.Weighted>
4.4876

> <Gold.Chemscore.Internal.Correction.Weighted>
   9.000000E+99

> <Gold.Protein.RotatedTorsions>
[ 6907 6896 6895 6894 ] final  -50.65 input  -60.11 | X-H torsion
[ 7974 7965 7964 7962 ] final  -94.65 input  175.53 | X-H torsion
[ 8008 7997 7996 7995 ] final -129.84 input   59.86 | X-H torsion
[ 10167 10162 10161 10158 ] final -146.29 input  -65.29 | X-H torsion
[ 10718 10713 10712 10709 ] final  154.36 input   66.30 | X-H torsion
[ 10763 10752 10751 10750 ] final -109.24 input  -60.55 | X-H torsion
[ 11005 11000 10999 10996 ] final   72.51 input  -57.11 | X-H torsion

> <Gold.Protein.ActiveResidues>
 VAL166  LYS551  ARG553  GLY616  TRP617  ASP618  TYR619  PRO620  LYS621  CYS622 
 ASP623  PHE694  ASN695  SER759  ASP760  ASP761  ALA762  ILE779  LEU786  VAL792 
 PHE793  MET794  SER795  GLU796  ALA797  LYS798  CYS799  TRP800  GLU811  SER814 

> <Gold.Protein.RotatedAtoms>
  150.8687  134.8056  159.7137 H   0  0  0  0  0  0  0  0  0  0  0  0  # atno 6907 bound_to 6896
  152.4699  134.4982  159.9726 H   0  0  0  0  0  0  0  0  0  0  0  0  # atno 6908 bound_to 6896
  151.5074  133.3453  159.2915 H   0  0  0  0  0  0  0  0  0  0  0  0  # atno 6909 bound_to 6896
  145.3705  140.9504  143.2450 H   0  0  0  0  0  0  0  0  0  0  0  0  # atno 7974 bound_to 7965
  155.2858  140.0446  157.3019 H   0  0  0  0  0  0  0  0  0  0  0  0  # atno 8008 bound_to 7997
  154.5570  140.2334  155.8363 H   0  0  0  0  0  0  0  0  0  0  0  0  # atno 8009 bound_to 7997
  156.2015  140.3024  155.9545 H   0  0  0  0  0  0  0  0  0  0  0  0  # atno 8010 bound_to 7997
  139.7727  143.8214  152.2627 H   0  0  0  0  0  0  0  0  0  0  0  0  # atno 10167 bound_to 10162
  157.2326  131.0742  151.1843 H   0  0  0  0  0  0  0  0  0  0  0  0  # atno 10718 bound_to 10713
  154.8182  135.4608  154.0702 H   0  0  0  0  0  0  0  0  0  0  0  0  # atno 10763 bound_to 10752
  153.2078  135.6877  153.8158 H   0  0  0  0  0  0  0  0  0  0  0  0  # atno 10764 bound_to 10752
  153.7620  135.3282  155.3315 H   0  0  0  0  0  0  0  0  0  0  0  0  # atno 10765 bound_to 10752
  139.9487  134.7266  156.0915 H   0  0  0  0  0  0  0  0  0  0  0  0  # atno 11005 bound_to 11000
  144.8580  139.5220  143.6825 LP  0  0  0  0  0  0  0  0  0  0  0  0  # atno 17320 bound_to 7965
  146.2887  139.7078  142.9176 LP  0  0  0  0  0  0  0  0  0  0  0  0  # atno 17321 bound_to 7965
  139.8253  144.7277  150.9519 LP  0  0  0  0  0  0  0  0  0  0  0  0  # atno 17342 bound_to 10162
  140.7815  143.4120  151.0978 LP  0  0  0  0  0  0  0  0  0  0  0  0  # atno 17343 bound_to 10162
  157.3462  130.7059  149.6412 LP  0  0  0  0  0  0  0  0  0  0  0  0  # atno 17370 bound_to 10713
  155.9674  130.4265  150.4704 LP  0  0  0  0  0  0  0  0  0  0  0  0  # atno 17371 bound_to 10713
  141.1144  133.6632  156.3058 LP  0  0  0  0  0  0  0  0  0  0  0  0  # atno 17394 bound_to 11000
  140.5771  134.5782  157.5471 LP  0  0  0  0  0  0  0  0  0  0  0  0  # atno 17395 bound_to 11000

$$$$
