AV-unprocessed.smi:2885|AV-procd|sdf|11086|dock10
  -GOLD-   2272015563D 1   1.00000     0.00000
 Structure written by MMmdl.
 40 42  0  0  0  0  0  0  0  0  1 V2000
  156.1526  139.0807  161.0973 N   0  0  0  0  0  0  0  0  0  0  0  0
  155.5598  139.7531  160.1067 C   0  0  0  0  0  0  0  0  0  0  0  0
  155.8392  139.5633  158.9248 O   0  0  0  0  0  0  0  0  0  0  0  0
  154.5789  140.7826  160.5454 C   0  0  0  0  0  0  0  0  0  0  0  0
  154.1683  141.0423  161.8339 C   0  0  0  0  0  0  0  0  0  0  0  0
  153.2196  142.0550  161.7576 N   0  0  0  0  0  0  0  0  0  0  0  0
  152.5069  142.6348  162.8889 C   0  0  0  0  0  0  0  0  0  0  0  0
  153.4321  143.4578  163.7894 C   0  0  0  0  0  0  0  0  0  0  0  0
  153.2549  144.6702  163.9041 O   0  0  0  0  0  0  0  0  0  0  0  0
  154.3985  142.7874  164.4363 N   0  0  0  0  0  0  0  0  0  0  0  0
  155.2873  143.3599  165.4385 C   0  0  0  0  0  0  0  0  0  0  0  0
  154.6667  143.2677  166.8306 C   0  0  0  0  0  0  0  0  0  0  0  0
  155.3780  143.9143  168.0277 C   0  0  0  0  0  0  0  0  0  0  0  0
  154.8699  142.7583  168.8943 C   0  0  0  0  0  0  0  0  0  0  0  0
  154.7242  141.9430  167.6068 C   0  0  0  0  0  0  0  0  0  0  0  0
  153.1114  142.3625  160.4484 C   0  0  0  0  0  0  0  0  0  0  0  0
  152.1621  143.3925  159.9228 C   0  0  0  0  0  0  0  0  0  0  0  0
  152.0050  143.6232  158.4363 C   0  0  0  0  0  0  0  0  0  0  0  0
  152.6654  144.6721  159.2925 C   0  0  0  0  0  0  0  0  0  0  0  0
  153.8849  141.6126  159.6704 N   0  0  0  0  0  0  0  0  0  0  0  0
  156.8362  138.3702  160.8808 H   0  0  0  0  0  0  0  0  0  0  0  0
  155.9199  139.2907  162.0567 H   0  0  0  0  0  0  0  0  0  0  0  0
  154.4563  140.5971  162.7750 H   0  0  0  0  0  0  0  0  0  0  0  0
  151.7057  143.2752  162.5179 H   0  0  0  0  0  0  0  0  0  0  0  0
  152.0355  141.8341  163.4594 H   0  0  0  0  0  0  0  0  0  0  0  0
  154.4723  141.7931  164.2770 H   0  0  0  0  0  0  0  0  0  0  0  0
  156.2302  142.8137  165.4046 H   0  0  0  0  0  0  0  0  0  0  0  0
  155.5231  144.3949  165.1864 H   0  0  0  0  0  0  0  0  0  0  0  0
  153.6315  143.6162  166.8174 H   0  0  0  0  0  0  0  0  0  0  0  0
  156.4645  143.9181  167.9260 H   0  0  0  0  0  0  0  0  0  0  0  0
  154.9971  144.8969  168.3077 H   0  0  0  0  0  0  0  0  0  0  0  0
  155.5975  142.3657  169.6052 H   0  0  0  0  0  0  0  0  0  0  0  0
  153.9117  142.9742  169.3696 H   0  0  0  0  0  0  0  0  0  0  0  0
  153.8179  141.3395  167.5447 H   0  0  0  0  0  0  0  0  0  0  0  0
  155.6144  141.3550  167.3768 H   0  0  0  0  0  0  0  0  0  0  0  0
  151.2671  143.4421  160.5401 H   0  0  0  0  0  0  0  0  0  0  0  0
  152.6425  143.0536  157.7626 H   0  0  0  0  0  0  0  0  0  0  0  0
  151.0046  143.8344  158.0643 H   0  0  0  0  0  0  0  0  0  0  0  0
  152.1071  145.5832  159.4974 H   0  0  0  0  0  0  0  0  0  0  0  0
  153.7410  144.7976  159.1857 H   0  0  0  0  0  0  0  0  0  0  0  0
  1  2  1  0  0  0  0
  1 21  1  0  0  0  0
  1 22  1  0  0  0  0
  2  3  2  0  0  0  0
  2  4  1  0  0  0  0
  4 20  1  0  0  0  0
  4  5  2  0  0  0  0
  5  6  1  0  0  0  0
  5 23  1  0  0  0  0
  6  7  1  0  0  0  0
  6 16  1  0  0  0  0
  7  8  1  0  0  0  0
  7 24  1  0  0  0  0
  7 25  1  0  0  0  0
  8  9  2  0  0  0  0
  8 10  1  0  0  0  0
 10 11  1  0  0  0  0
 10 26  1  0  0  0  0
 11 12  1  0  0  0  0
 11 27  1  0  0  0  0
 11 28  1  0  0  0  0
 12 15  1  0  0  0  0
 12 13  1  0  0  0  0
 12 29  1  0  0  0  0
 13 14  1  0  0  0  0
 13 30  1  0  0  0  0
 13 31  1  0  0  0  0
 14 15  1  0  0  0  0
 14 32  1  0  0  0  0
 14 33  1  0  0  0  0
 15 34  1  0  0  0  0
 15 35  1  0  0  0  0
 16 17  1  0  0  0  0
 16 20  2  0  0  0  0
 17 19  1  0  0  0  0
 17 18  1  0  0  0  0
 17 36  1  0  0  0  0
 18 19  1  0  0  0  0
 18 37  1  0  0  0  0
 18 38  1  0  0  0  0
 19 39  1  0  0  0  0
 19 40  1  0  0  0  0
M  END
> <s_m_source_file>
AV-unprocessed.smi

> <i_m_source_file_index>
2885

> <i_lp_mmshare_version>
43012

> <i_f3d_flags>
0

> <s_epik_input>
W05IMl1DKD1PKWMxW2NIXW4oYyhuMSlbQ0hdMltDSDJdW0NIMl0yKVtDSDJdQyg9TylbTkhdW0NIMl1bQ0hdM1tDSDJdW0NIMl1bQ0gyXTM=

> <s_epik_cmdline>
J2VwaWtfcHl0aG9uJywgJy1waCcsICc3LjAnLCAnLXRuJywgJzgnLCAnLW1hJywgJzIwMCcsICctbWV0YWxfYmluZGluZycsICctaW1hZScsICc8aW5maWxlLm1hZT4nLCAnLW9tYWUnLCAnPG91dGZpbGUubWFlPic=

> <r_lp_tautomer_probability>
1

> <r_epik_Ionization_Penalty>
0.00135877

> <r_epik_Ionization_Penalty_Charging>
0.00135847

> <r_epik_Ionization_Penalty_Neutral>
3.0068e-07

> <r_epik_State_Penalty>
0.000904027

> <r_epik_Charging_Adjusted_Penalty>
0.00226249

> <i_epik_Tot_Q>
0

> <i_epik_Tot_abs_Q>
0

> <r_epik_Metal_State_Penalty>
-0

> <b_epik_Metal_Only>
0

> <s_lp_Force_Field>
OPLS_2005

> <r_lp_Energy>
17.7141

> <b_lp_Chiralities_Consistent>
1

> <s_lp_Variant>
AV-unprocessed.smi:2885-1

> <Gold.Version>
5.8.1

> <Gold.Id.Protein>
6NUR|6NUR_protein|mol2

> <Gold.PLP.Fitness>
47.8506

> <Gold.PLP.PLP>
-45.5293

> <Gold.PLP.part.hbond>
-1.9797

> <Gold.PLP.part.metal>
0.0000

> <Gold.PLP.part.buried>
0.2938

> <Gold.PLP.part.nonpolar>
-43.6623

> <Gold.PLP.part.repulsive>
0.3119

> <Gold.PLP.ligand.clash>
0.0000

> <Gold.PLP.ligand.torsion>
0.4629

> <Gold.PLP.Chemscore.Hbond>
1.0000

> <Gold.PLP.Chemscore.CHOScore>
0.0000

> <Gold.PLP.Chemscore.Metal>
0.0000

> <Gold.Chemscore.Hbonds>
donor molecule, donor type, donor heavy atom, donor atom, acceptor molecule, acceptor atom, score
      P1  H  7997  8008       L1     3  1.00

> <Gold.PLP.Chemscore.Internal.Correction>
0.2471

> <Gold.Rescore>
     Score         DG    S(hbond)    S(metal)    S(lipo)     H(rot)  DE(clash)    DE(int)     intcor
     14.88     -16.15       1.00        0.00     105.99       1.98       0.84       0.43       ----

> <Gold.Chemscore.Fitness>
14.8806

> <Gold.Chemscore.DG>
-16.1539

> <Gold.Chemscore.ZeroCoef>
-5.4800

> <Gold.Chemscore.Hbond>
0.9998

> <Gold.Chemscore.Metal>
0.0000

> <Gold.Chemscore.Lipo>
105.9913

> <Gold.Chemscore.Internal_Hbond>
0.0000

> <Gold.Chemscore.DEClash>
0.8437

> <Gold.Chemscore.DEInternal>
0.4296

> <Gold.Chemscore.Rot>
1.9791

> <Gold.Chemscore.Internal.Correction>
   9.000000E+99

> <Gold.Chemscore.Hbonds>
donor molecule, donor type, donor heavy atom, donor atom, acceptor molecule, acceptor atom, score
      P1  H  7997  8008       L1     3  1.00

> <Gold.Chemscore.Hbond.Weighted>
-3.3394

> <Gold.Chemscore.Metal.Weighted>
-0.0000

> <Gold.Chemscore.Lipo.Weighted>
-12.4010

> <Gold.Chemscore.Internal_Hbond.Weighted>
0.0000

> <Gold.Chemscore.DEClash.Weighted>
0.8437

> <Gold.Chemscore.DEInternal.Weighted>
0.4296

> <Gold.Chemscore.Rot.Weighted>
5.0665

> <Gold.Chemscore.Internal.Correction.Weighted>
   9.000000E+99

> <Gold.Protein.RotatedTorsions>
[ 6907 6896 6895 6894 ] final  145.78 input  -60.11 | X-H torsion
[ 7974 7965 7964 7962 ] final  132.95 input  175.53 | X-H torsion
[ 8008 7997 7996 7995 ] final -148.23 input   59.86 | X-H torsion
[ 10167 10162 10161 10158 ] final   93.06 input  -65.29 | X-H torsion
[ 10718 10713 10712 10709 ] final   67.41 input   66.30 | X-H torsion
[ 10763 10752 10751 10750 ] final  -91.18 input  -60.55 | X-H torsion
[ 11005 11000 10999 10996 ] final   98.50 input  -57.11 | X-H torsion

> <Gold.Protein.ActiveResidues>
 VAL166  LYS551  ARG553  GLY616  TRP617  ASP618  TYR619  PRO620  LYS621  CYS622 
 ASP623  PHE694  ASN695  SER759  ASP760  ASP761  ALA762  ILE779  LEU786  VAL792 
 PHE793  MET794  SER795  GLU796  ALA797  LYS798  CYS799  TRP800  GLU811  SER814 

> <Gold.Protein.RotatedAtoms>
  152.1764  133.4678  159.4935 H   0  0  0  0  0  0  0  0  0  0  0  0  # atno 6907 bound_to 6896
  150.6927  134.1888  159.4286 H   0  0  0  0  0  0  0  0  0  0  0  0  # atno 6908 bound_to 6896
  151.9797  135.0034  160.0607 H   0  0  0  0  0  0  0  0  0  0  0  0  # atno 6909 bound_to 6896
  144.9916  139.4401  143.5336 H   0  0  0  0  0  0  0  0  0  0  0  0  # atno 7974 bound_to 7965
  155.5883  140.0650  157.2765 H   0  0  0  0  0  0  0  0  0  0  0  0  # atno 8008 bound_to 7997
  154.4312  140.1840  156.1095 H   0  0  0  0  0  0  0  0  0  0  0  0  # atno 8009 bound_to 7997
  156.0252  140.3312  155.7084 H   0  0  0  0  0  0  0  0  0  0  0  0  # atno 8010 bound_to 7997
  139.8216  144.6728  150.9511 H   0  0  0  0  0  0  0  0  0  0  0  0  # atno 10167 bound_to 10162
  157.6229  130.9319  150.0239 H   0  0  0  0  0  0  0  0  0  0  0  0  # atno 10718 bound_to 10713
  154.6734  135.5277  153.8168 H   0  0  0  0  0  0  0  0  0  0  0  0  # atno 10763 bound_to 10752
  153.0516  135.6534  154.0689 H   0  0  0  0  0  0  0  0  0  0  0  0  # atno 10764 bound_to 10752
  154.0585  135.2963  155.3308 H   0  0  0  0  0  0  0  0  0  0  0  0  # atno 10765 bound_to 10752
  139.8772  134.9052  156.4466 H   0  0  0  0  0  0  0  0  0  0  0  0  # atno 11005 bound_to 11000
  146.3432  139.9250  142.8761 LP  0  0  0  0  0  0  0  0  0  0  0  0  # atno 17320 bound_to 7965
  145.2278  140.9961  143.4008 LP  0  0  0  0  0  0  0  0  0  0  0  0  # atno 17321 bound_to 7965
  140.7813  143.4086  151.1030 LP  0  0  0  0  0  0  0  0  0  0  0  0  # atno 17342 bound_to 10162
  139.7746  143.8444  152.3127 LP  0  0  0  0  0  0  0  0  0  0  0  0  # atno 17343 bound_to 10162
  156.1384  130.3642  149.9621 LP  0  0  0  0  0  0  0  0  0  0  0  0  # atno 17370 bound_to 10713
  156.7667  130.9171  151.3643 LP  0  0  0  0  0  0  0  0  0  0  0  0  # atno 17371 bound_to 10713
  140.8961  133.7813  155.9627 LP  0  0  0  0  0  0  0  0  0  0  0  0  # atno 17394 bound_to 11000
  140.8701  134.2737  157.5195 LP  0  0  0  0  0  0  0  0  0  0  0  0  # atno 17395 bound_to 11000

$$$$
