AV-unprocessed.smi:3002|AV-procd|sdf|11433|dock8
  -GOLD-   2272016363D 1   1.00000     0.00000
 Structure written by MMmdl.
 34 35  0  0  0  0  0  0  0  0  1 V2000
  150.3470  133.7137  156.4583 C   0  0  0  0  0  0  0  0  0  0  0  0
  149.6003  132.3695  156.3097 C   0  0  2  0  0  0  0  0  0  0  0  0
  148.9943  131.9305  157.6530 C   0  0  0  0  0  0  0  0  0  0  0  0
  149.2836  130.8382  158.1420 O   0  0  0  0  0  0  0  0  0  0  0  0
  148.1417  132.7890  158.2315 N   0  0  0  0  0  0  0  0  0  0  0  0
  147.4342  132.5408  159.4807 C   0  0  0  0  0  0  0  0  0  0  0  0
  147.7637  133.6217  160.5238 C   0  0  2  0  0  0  0  0  0  0  0  0
  146.7056  133.7018  161.6410 C   0  0  0  0  0  0  0  0  0  0  0  0
  146.9648  134.9641  162.4685 C   0  0  0  0  0  0  0  0  0  0  0  0
  147.5796  136.2123  161.2781 S   0  0  0  0  0  0  0  0  0  0  0  0
  146.4729  137.0939  160.8771 O   0  0  0  0  0  0  0  0  0  0  0  0
  148.8475  136.7666  161.7761 O   0  0  0  0  0  0  0  0  0  0  0  0
  147.9173  135.0289  159.9183 C   0  0  0  0  0  0  0  0  0  0  0  0
  150.4290  131.3024  155.7419 N   0  0  0  0  0  0  0  0  0  0  0  0
  151.5436  130.7279  156.2095 C   0  0  0  0  0  0  0  0  0  0  0  0
  151.9962  129.7307  155.4632 N   0  0  0  0  0  0  0  0  0  0  0  0
  151.0374  129.7221  154.4917 C   0  0  0  0  0  0  0  0  0  0  0  0
  150.0665  130.6254  154.6223 N   0  0  0  0  0  0  0  0  0  0  0  0
  149.7228  134.4614  156.9492 H   0  0  0  0  0  0  0  0  0  0  0  0
  150.6249  134.1198  155.4852 H   0  0  0  0  0  0  0  0  0  0  0  0
  151.2593  133.6067  157.0469 H   0  0  0  0  0  0  0  0  0  0  0  0
  148.7784  132.5303  155.6100 H   0  0  0  0  0  0  0  0  0  0  0  0
  147.9592  133.6671  157.7674 H   0  0  0  0  0  0  0  0  0  0  0  0
  146.3579  132.5147  159.3009 H   0  0  0  0  0  0  0  0  0  0  0  0
  147.7192  131.5572  159.8566 H   0  0  0  0  0  0  0  0  0  0  0  0
  148.7119  133.3650  160.9991 H   0  0  0  0  0  0  0  0  0  0  0  0
  145.7135  133.7727  161.1928 H   0  0  0  0  0  0  0  0  0  0  0  0
  146.7092  132.8087  162.2666 H   0  0  0  0  0  0  0  0  0  0  0  0
  146.0760  135.3330  162.9807 H   0  0  0  0  0  0  0  0  0  0  0  0
  147.7471  134.7874  163.2072 H   0  0  0  0  0  0  0  0  0  0  0  0
  148.9091  135.2092  159.5034 H   0  0  0  0  0  0  0  0  0  0  0  0
  147.1783  135.2033  159.1353 H   0  0  0  0  0  0  0  0  0  0  0  0
  152.0358  131.0410  157.1187 H   0  0  0  0  0  0  0  0  0  0  0  0
  151.0480  129.0209  153.6701 H   0  0  0  0  0  0  0  0  0  0  0  0
  1  2  1  0  0  0  0
  1 19  1  0  0  0  0
  1 20  1  0  0  0  0
  1 21  1  0  0  0  0
  2  3  1  0  0  0  0
  2 14  1  0  0  0  0
  2 22  1  0  0  0  0
  3  4  2  0  0  0  0
  3  5  1  0  0  0  0
  5  6  1  0  0  0  0
  5 23  1  0  0  0  0
  6  7  1  0  0  0  0
  6 24  1  0  0  0  0
  6 25  1  0  0  0  0
  7 13  1  0  0  0  0
  7  8  1  0  0  0  0
  7 26  1  0  0  0  0
  8  9  1  0  0  0  0
  8 27  1  0  0  0  0
  8 28  1  0  0  0  0
  9 10  1  0  0  0  0
  9 29  1  0  0  0  0
  9 30  1  0  0  0  0
 10 11  2  0  0  0  0
 10 12  2  0  0  0  0
 10 13  1  0  0  0  0
 13 31  1  0  0  0  0
 13 32  1  0  0  0  0
 14 18  1  0  0  0  0
 14 15  1  0  0  0  0
 15 16  2  0  0  0  0
 15 33  1  0  0  0  0
 16 17  1  0  0  0  0
 17 18  2  0  0  0  0
 17 34  1  0  0  0  0
M  END
> <s_m_source_file>
AV-unprocessed.smi

> <i_m_source_file_index>
3002

> <i_lp_mmshare_version>
43012

> <i_f3d_flags>
0

> <s_epik_input>
bjFbY0hdbltjSF1uMVtDQEhdKFtDSDNdKUMoPU8pW05IXVtDSDJdW0NAQEhdKFtDSDJdMilbQ0gyXVtDSDJdUzIoPU8pPU8=

> <s_epik_cmdline>
J2VwaWtfcHl0aG9uJywgJy1waCcsICc3LjAnLCAnLXRuJywgJzgnLCAnLW1hJywgJzIwMCcsICctbWV0YWxfYmluZGluZycsICctaW1hZScsICc8aW5maWxlLm1hZT4nLCAnLW9tYWUnLCAnPG91dGZpbGUubWFlPic=

> <r_lp_tautomer_probability>
1

> <r_epik_Ionization_Penalty>
1.1748e-05

> <r_epik_Ionization_Penalty_Charging>
0

> <r_epik_Ionization_Penalty_Neutral>
1.1748e-05

> <r_epik_State_Penalty>
-0

> <r_epik_Charging_Adjusted_Penalty>
0

> <i_epik_Tot_Q>
0

> <i_epik_Tot_abs_Q>
0

> <r_epik_Metal_State_Penalty>
-0

> <b_epik_Metal_Only>
0

> <s_lp_Force_Field>
OPLS_2005

> <r_lp_Energy>
11.0715

> <b_lp_Chiralities_Consistent>
1

> <s_lp_Variant>
AV-unprocessed.smi:3002-1

> <Gold.Version>
5.8.1

> <Gold.Id.Protein>
6NUR|6NUR_protein|mol2

> <Gold.PLP.Fitness>
30.6590

> <Gold.PLP.PLP>
-22.2272

> <Gold.PLP.part.hbond>
-1.8796

> <Gold.PLP.part.metal>
0.0000

> <Gold.PLP.part.buried>
-1.0642

> <Gold.PLP.part.nonpolar>
-19.7436

> <Gold.PLP.part.repulsive>
0.1478

> <Gold.PLP.ligand.clash>
0.0000

> <Gold.PLP.ligand.torsion>
0.2939

> <Gold.PLP.Chemscore.Hbond>
1.9663

> <Gold.PLP.Chemscore.CHOScore>
1.0000

> <Gold.PLP.Chemscore.Metal>
0.0000

> <Gold.Chemscore.Hbonds>
donor molecule, donor type, donor heavy atom, donor atom, acceptor molecule, acceptor atom, score
      P1  H  6931  6943       L1    12  0.89
      P1  H  6934  6947       L1    11  0.96
      L1  C    17    34       P1 10737  1.00

> <Gold.PLP.Chemscore.Internal.Correction>
0.1209

> <Gold.Rescore>
     Score         DG    S(hbond)    S(metal)    S(lipo)     H(rot)  DE(clash)    DE(int)     intcor
      8.33      -9.32       1.66        0.00      37.74       2.39       0.42       0.57       ----

> <Gold.Chemscore.Fitness>
8.3302

> <Gold.Chemscore.DG>
-9.3219

> <Gold.Chemscore.ZeroCoef>
-5.4800

> <Gold.Chemscore.Hbond>
1.6635

> <Gold.Chemscore.Metal>
0.0000

> <Gold.Chemscore.Lipo>
37.7420

> <Gold.Chemscore.Internal_Hbond>
0.0000

> <Gold.Chemscore.DEClash>
0.4212

> <Gold.Chemscore.DEInternal>
0.5706

> <Gold.Chemscore.Rot>
2.3946

> <Gold.Chemscore.Internal.Correction>
   9.000000E+99

> <Gold.Chemscore.Hbonds>
donor molecule, donor type, donor heavy atom, donor atom, acceptor molecule, acceptor atom, score
      P1  H  6931  6943       L1    12  0.86
      P1  H  6934  6947       L1    11  0.59

> <Gold.Chemscore.Hbond.Weighted>
-5.5562

> <Gold.Chemscore.Metal.Weighted>
-0.0000

> <Gold.Chemscore.Lipo.Weighted>
-4.4158

> <Gold.Chemscore.Internal_Hbond.Weighted>
0.0000

> <Gold.Chemscore.DEClash.Weighted>
0.4212

> <Gold.Chemscore.DEInternal.Weighted>
0.5706

> <Gold.Chemscore.Rot.Weighted>
6.1301

> <Gold.Chemscore.Internal.Correction.Weighted>
   9.000000E+99

> <Gold.Protein.RotatedTorsions>
[ 6907 6896 6895 6894 ] final   87.57 input  -60.11 | X-H torsion
[ 7974 7965 7964 7962 ] final  -37.17 input  175.53 | X-H torsion
[ 8008 7997 7996 7995 ] final   29.69 input   59.86 | X-H torsion
[ 10167 10162 10161 10158 ] final  -18.81 input  -65.29 | X-H torsion
[ 10718 10713 10712 10709 ] final -154.35 input   66.30 | X-H torsion
[ 10763 10752 10751 10750 ] final -139.01 input  -60.55 | X-H torsion
[ 11005 11000 10999 10996 ] final    1.04 input  -57.11 | X-H torsion

> <Gold.Protein.ActiveResidues>
 VAL166  LYS551  ARG553  GLY616  TRP617  ASP618  TYR619  PRO620  LYS621  CYS622 
 ASP623  PHE694  ASN695  SER759  ASP760  ASP761  ALA762  ILE779  LEU786  VAL792 
 PHE793  MET794  SER795  GLU796  ALA797  LYS798  CYS799  TRP800  GLU811  SER814 

> <Gold.Protein.RotatedAtoms>
  152.5413  134.2256  159.8804 H   0  0  0  0  0  0  0  0  0  0  0  0  # atno 6907 bound_to 6896
  151.2230  133.4485  159.2609 H   0  0  0  0  0  0  0  0  0  0  0  0  # atno 6908 bound_to 6896
  151.0787  134.9857  159.8401 H   0  0  0  0  0  0  0  0  0  0  0  0  # atno 6909 bound_to 6896
  146.0598  140.6365  142.9002 H   0  0  0  0  0  0  0  0  0  0  0  0  # atno 7974 bound_to 7965
  155.0786  140.3208  155.4608 H   0  0  0  0  0  0  0  0  0  0  0  0  # atno 8008 bound_to 7997
  156.2773  140.2099  156.5859 H   0  0  0  0  0  0  0  0  0  0  0  0  # atno 8009 bound_to 7997
  154.6997  140.0508  157.0433 H   0  0  0  0  0  0  0  0  0  0  0  0  # atno 8010 bound_to 7997
  140.7262  143.4879  151.0030 H   0  0  0  0  0  0  0  0  0  0  0  0  # atno 10167 bound_to 10162
  156.4981  130.8379  151.2598 H   0  0  0  0  0  0  0  0  0  0  0  0  # atno 10718 bound_to 10713
  154.8621  135.3595  154.5477 H   0  0  0  0  0  0  0  0  0  0  0  0  # atno 10763 bound_to 10752
  153.6096  135.7010  153.5357 H   0  0  0  0  0  0  0  0  0  0  0  0  # atno 10764 bound_to 10752
  153.3220  135.4148  155.1386 H   0  0  0  0  0  0  0  0  0  0  0  0  # atno 10765 bound_to 10752
  140.6199  133.9671  155.8219 H   0  0  0  0  0  0  0  0  0  0  0  0  # atno 11005 bound_to 11000
  144.7168  140.4238  143.7038 LP  0  0  0  0  0  0  0  0  0  0  0  0  # atno 17320 bound_to 7965
  145.6580  139.1576  143.2824 LP  0  0  0  0  0  0  0  0  0  0  0  0  # atno 17321 bound_to 7965
  139.8582  143.7349  152.3175 LP  0  0  0  0  0  0  0  0  0  0  0  0  # atno 17342 bound_to 10162
  139.7555  144.7522  151.0442 LP  0  0  0  0  0  0  0  0  0  0  0  0  # atno 17343 bound_to 10162
  157.7466  130.9991  150.2876 LP  0  0  0  0  0  0  0  0  0  0  0  0  # atno 17370 bound_to 10713
  156.3359  130.3808  149.7450 LP  0  0  0  0  0  0  0  0  0  0  0  0  # atno 17371 bound_to 10713
  141.0750  134.0149  157.3471 LP  0  0  0  0  0  0  0  0  0  0  0  0  # atno 17394 bound_to 11000
  139.9158  135.0196  156.7873 LP  0  0  0  0  0  0  0  0  0  0  0  0  # atno 17395 bound_to 11000

$$$$
