AV-unprocessed.smi:1672|AV-procd|sdf|6701|dock1
  -GOLD-   22720 7433D 1   1.00000     0.00000
 Structure written by MMmdl.
 48 50  0  0  0  0  0  0  0  0  2 V2000
  144.9230  134.6772  150.1286 C   0  0  0  0  0  0  0  0  0  0  0  0
  145.0946  135.9639  150.9482 C   0  0  2  0  0  0  0  0  0  0  0  0
  145.9398  137.0070  150.1984 C   0  0  0  0  0  0  0  0  0  0  0  0
  146.1279  138.2799  151.0394 C   0  0  0  0  0  0  0  0  0  0  0  0
  146.7454  137.9670  152.3558 N   0  3  1  0  0  0  0  0  0  0  0  0
  147.0663  139.1795  153.1509 C   0  0  0  0  0  0  0  0  0  0  0  0
  148.2047  138.9266  154.1643 C   0  0  2  0  0  0  0  0  0  0  0  0
  147.6359  138.6649  155.4311 O   0  0  0  0  0  0  0  0  0  0  0  0
  149.1811  140.1102  154.3223 C   0  0  0  0  0  0  0  0  0  0  0  0
  150.2715  139.8379  155.2503 N   0  0  0  0  0  0  0  0  0  0  0  0
  151.1089  138.7689  155.2811 C   0  0  0  0  0  0  0  0  0  0  0  0
  151.0324  137.6470  154.2907 C   0  0  0  0  0  0  0  0  0  0  0  0
  152.2485  137.4498  153.6015 O   0  0  0  0  0  0  0  0  0  0  0  0
  152.0265  138.7798  156.2481 N   0  0  0  0  0  0  0  0  0  0  0  0
  151.7594  139.9608  156.9106 C   0  0  0  0  0  0  0  0  0  0  0  0
  152.3881  140.5457  158.0328 C   0  0  0  0  0  0  0  0  0  0  0  0
  151.9368  141.7814  158.5403 C   0  0  0  0  0  0  0  0  0  0  0  0
  150.8536  142.4491  157.9336 C   0  0  0  0  0  0  0  0  0  0  0  0
  150.2131  141.8838  156.8140 C   0  0  0  0  0  0  0  0  0  0  0  0
  150.6659  140.6484  156.3121 C   0  0  0  0  0  0  0  0  0  0  0  0
  145.9312  136.9867  153.1186 C   0  0  0  0  0  0  0  0  0  0  0  0
  145.7334  135.6868  152.3197 C   0  0  0  0  0  0  0  0  0  0  0  0
  145.8832  134.1979  149.9353 H   0  0  0  0  0  0  0  0  0  0  0  0
  144.4546  134.8844  149.1658 H   0  0  0  0  0  0  0  0  0  0  0  0
  144.2921  133.9591  150.6532 H   0  0  0  0  0  0  0  0  0  0  0  0
  144.1022  136.3862  151.1140 H   0  0  0  0  0  0  0  0  0  0  0  0
  146.9157  136.5865  149.9502 H   0  0  0  0  0  0  0  0  0  0  0  0
  145.4639  137.2619  149.2508 H   0  0  0  0  0  0  0  0  0  0  0  0
  146.7487  138.9814  150.4835 H   0  0  0  0  0  0  0  0  0  0  0  0
  145.1652  138.7698  151.1950 H   0  0  0  0  0  0  0  0  0  0  0  0
  147.3180  139.9851  152.4604 H   0  0  0  0  0  0  0  0  0  0  0  0
  146.1851  139.5184  153.6981 H   0  0  0  0  0  0  0  0  0  0  0  0
  148.7741  138.0452  153.8776 H   0  0  0  0  0  0  0  0  0  0  0  0
  147.0098  137.9620  155.3431 H   0  0  0  0  0  0  0  0  0  0  0  0
  149.6129  140.3638  153.3536 H   0  0  0  0  0  0  0  0  0  0  0  0
  148.6521  141.0050  154.6516 H   0  0  0  0  0  0  0  0  0  0  0  0
  150.7814  136.7263  154.8185 H   0  0  0  0  0  0  0  0  0  0  0  0
  150.2320  137.8191  153.5725 H   0  0  0  0  0  0  0  0  0  0  0  0
  152.0507  137.2465  152.6998 H   0  0  0  0  0  0  0  0  0  0  0  0
  153.2192  140.0424  158.5045 H   0  0  0  0  0  0  0  0  0  0  0  0
  152.4242  142.2186  159.3996 H   0  0  0  0  0  0  0  0  0  0  0  0
  150.5141  143.3953  158.3294 H   0  0  0  0  0  0  0  0  0  0  0  0
  149.3835  142.3965  156.3506 H   0  0  0  0  0  0  0  0  0  0  0  0
  146.4262  136.7525  154.0620 H   0  0  0  0  0  0  0  0  0  0  0  0
  144.9652  137.4287  153.3672 H   0  0  0  0  0  0  0  0  0  0  0  0
  145.1099  134.9973  152.8901 H   0  0  0  0  0  0  0  0  0  0  0  0
  146.6966  135.1922  152.1858 H   0  0  0  0  0  0  0  0  0  0  0  0
  147.6284  137.5130  152.1685 H   0  0  0  0  0  0  0  0  0  0  0  0
  1  2  1  0  0  0  0
  1 23  1  0  0  0  0
  1 24  1  0  0  0  0
  1 25  1  0  0  0  0
  2 22  1  0  0  0  0
  2  3  1  0  0  0  0
  2 26  1  0  0  0  0
  3  4  1  0  0  0  0
  3 27  1  0  0  0  0
  3 28  1  0  0  0  0
  4  5  1  0  0  0  0
  4 29  1  0  0  0  0
  4 30  1  0  0  0  0
  5  6  1  0  0  0  0
  5 21  1  0  0  0  0
  5 48  1  0  0  0  0
  6  7  1  0  0  0  0
  6 31  1  0  0  0  0
  6 32  1  0  0  0  0
  7  8  1  0  0  0  0
  7  9  1  0  0  0  0
  7 33  1  0  0  0  0
  8 34  1  0  0  0  0
  9 10  1  0  0  0  0
  9 35  1  0  0  0  0
  9 36  1  0  0  0  0
 10 20  1  0  0  0  0
 10 11  1  0  0  0  0
 11 12  1  0  0  0  0
 11 14  2  0  0  0  0
 12 13  1  0  0  0  0
 12 37  1  0  0  0  0
 12 38  1  0  0  0  0
 13 39  1  0  0  0  0
 14 15  1  0  0  0  0
 15 20  2  0  0  0  0
 15 16  1  0  0  0  0
 16 17  2  0  0  0  0
 16 40  1  0  0  0  0
 17 18  1  0  0  0  0
 17 41  1  0  0  0  0
 18 19  2  0  0  0  0
 18 42  1  0  0  0  0
 19 20  1  0  0  0  0
 19 43  1  0  0  0  0
 21 22  1  0  0  0  0
 21 44  1  0  0  0  0
 21 45  1  0  0  0  0
 22 46  1  0  0  0  0
 22 47  1  0  0  0  0
M  CHG  1   5   1
M  END
> <s_m_source_file>
AV-unprocessed.smi

> <i_m_source_file_index>
1672

> <i_lp_mmshare_version>
43012

> <i_f3d_flags>
0

> <s_epik_input>
W0NIM11bQ0hdMVtDSDJdW0NIMl1OKFtDSDJdW0NIMl0xKVtDSDJdW0NASF0oW09IXSlbQ0gyXW4oYyhuMilbQ0gyXVtPSF0pYyhjMjMpW2NIXVtjSF1bY0hdW2NIXTM=

> <s_epik_cmdline>
J2VwaWtfcHl0aG9uJywgJy1waCcsICc3LjAnLCAnLXRuJywgJzgnLCAnLW1hJywgJzIwMCcsICctbWV0YWxfYmluZGluZycsICctaW1hZScsICc8aW5maWxlLm1hZT4nLCAnLW9tYWUnLCAnPG91dGZpbGUubWFlPic=

> <r_epik_Ionization_Penalty>
0.0498263

> <r_epik_Ionization_Penalty_Charging>
0.00181365

> <r_epik_Ionization_Penalty_Neutral>
0.0480127

> <r_epik_State_Penalty>
0.0408546

> <r_epik_Charging_Adjusted_Penalty>
0.0426682

> <i_epik_Tot_Q>
1

> <i_epik_Tot_abs_Q>
1

> <r_epik_Metal_State_Penalty>
4.22946e-05

> <b_epik_Metal_Only>
0

> <s_lp_Force_Field>
OPLS_2005

> <r_lp_Energy>
22.4872

> <b_lp_Chiralities_Consistent>
1

> <s_lp_Variant>
AV-unprocessed.smi:1672-1

> <Gold.Version>
5.8.1

> <Gold.Id.Protein>
6NUR|6NUR_protein|mol2

> <Gold.PLP.Fitness>
47.3823

> <Gold.PLP.PLP>
-37.9197

> <Gold.PLP.part.hbond>
-3.0000

> <Gold.PLP.part.metal>
0.0000

> <Gold.PLP.part.buried>
2.8566

> <Gold.PLP.part.nonpolar>
-38.1095

> <Gold.PLP.part.repulsive>
0.0537

> <Gold.PLP.ligand.clash>
0.0000

> <Gold.PLP.ligand.torsion>
0.8377

> <Gold.PLP.Chemscore.Hbond>
3.6840

> <Gold.PLP.Chemscore.CHOScore>
0.0000

> <Gold.PLP.Chemscore.Metal>
0.0000

> <Gold.Chemscore.Hbonds>
donor molecule, donor type, donor heavy atom, donor atom, acceptor molecule, acceptor atom, score
      L1  H     5    48       P1  7948  2.00
      L1  H    13    39       P1  7949  0.93
      P1  H 10752 10764       L1    13  0.55

> <Gold.PLP.Chemscore.Internal.Correction>
0.0859

> <Gold.Rescore>
     Score         DG    S(hbond)    S(metal)    S(lipo)     H(rot)  DE(clash)    DE(int)     intcor
     15.13     -17.55       2.23        0.00     102.55       2.88       1.70       0.72       ----

> <Gold.Chemscore.Fitness>
15.1278

> <Gold.Chemscore.DG>
-17.5481

> <Gold.Chemscore.ZeroCoef>
-5.4800

> <Gold.Chemscore.Hbond>
2.2266

> <Gold.Chemscore.Metal>
0.0000

> <Gold.Chemscore.Lipo>
102.5499

> <Gold.Chemscore.Internal_Hbond>
0.0000

> <Gold.Chemscore.DEClash>
1.7033

> <Gold.Chemscore.DEInternal>
0.7171

> <Gold.Chemscore.Rot>
2.8778

> <Gold.Chemscore.Internal.Correction>
   9.000000E+99

> <Gold.Chemscore.Hbonds>
donor molecule, donor type, donor heavy atom, donor atom, acceptor molecule, acceptor atom, score
      L1  H     5    48       P1  7948  1.00
      L1  H    13    39       P1  7949  0.89
      P1  H 10752 10764       L1    13  0.09

> <Gold.Chemscore.Hbond.Weighted>
-7.4369

> <Gold.Chemscore.Metal.Weighted>
-0.0000

> <Gold.Chemscore.Lipo.Weighted>
-11.9983

> <Gold.Chemscore.Internal_Hbond.Weighted>
0.0000

> <Gold.Chemscore.DEClash.Weighted>
1.7033

> <Gold.Chemscore.DEInternal.Weighted>
0.7171

> <Gold.Chemscore.Rot.Weighted>
7.3671

> <Gold.Chemscore.Internal.Correction.Weighted>
   9.000000E+99

> <Gold.Protein.RotatedTorsions>
[ 6907 6896 6895 6894 ] final -137.80 input  -60.11 | X-H torsion
[ 7974 7965 7964 7962 ] final  -84.72 input  175.53 | X-H torsion
[ 8008 7997 7996 7995 ] final  169.46 input   59.86 | X-H torsion
[ 10167 10162 10161 10158 ] final   94.20 input  -65.29 | X-H torsion
[ 10718 10713 10712 10709 ] final   21.67 input   66.30 | X-H torsion
[ 10763 10752 10751 10750 ] final  -70.36 input  -60.55 | X-H torsion
[ 11005 11000 10999 10996 ] final   15.85 input  -57.11 | X-H torsion

> <Gold.Protein.ActiveResidues>
 VAL166  LYS551  ARG553  GLY616  TRP617  ASP618  TYR619  PRO620  LYS621  CYS622 
 ASP623  PHE694  ASN695  SER759  ASP760  ASP761  ALA762  ILE779  LEU786  VAL792 
 PHE793  MET794  SER795  GLU796  ALA797  LYS798  CYS799  TRP800  GLU811  SER814 

> <Gold.Protein.RotatedAtoms>
  151.0270  133.5824  159.2664 H   0  0  0  0  0  0  0  0  0  0  0  0  # atno 6907 bound_to 6896
  151.2920  135.0743  159.9217 H   0  0  0  0  0  0  0  0  0  0  0  0  # atno 6908 bound_to 6896
  152.5336  133.9967  159.7930 H   0  0  0  0  0  0  0  0  0  0  0  0  # atno 6909 bound_to 6896
  145.5029  140.9546  143.1750 H   0  0  0  0  0  0  0  0  0  0  0  0  # atno 7974 bound_to 7965
  156.1455  140.1563  156.8853 H   0  0  0  0  0  0  0  0  0  0  0  0  # atno 8008 bound_to 7997
  154.5024  140.0822  156.7863 H   0  0  0  0  0  0  0  0  0  0  0  0  # atno 8009 bound_to 7997
  155.3997  140.3414  155.4258 H   0  0  0  0  0  0  0  0  0  0  0  0  # atno 8010 bound_to 7997
  139.8106  144.6775  150.9645 H   0  0  0  0  0  0  0  0  0  0  0  0  # atno 10167 bound_to 10162
  157.1416  130.6635  149.5983 H   0  0  0  0  0  0  0  0  0  0  0  0  # atno 10718 bound_to 10713
  154.4165  135.5996  153.5984 H   0  0  0  0  0  0  0  0  0  0  0  0  # atno 10763 bound_to 10752
  152.9792  135.5942  154.4006 H   0  0  0  0  0  0  0  0  0  0  0  0  # atno 10764 bound_to 10752
  154.3826  135.2841  155.2181 H   0  0  0  0  0  0  0  0  0  0  0  0  # atno 10765 bound_to 10752
  140.4537  134.1198  155.7706 H   0  0  0  0  0  0  0  0  0  0  0  0  # atno 11005 bound_to 11000
  144.7770  139.6608  143.7170 LP  0  0  0  0  0  0  0  0  0  0  0  0  # atno 17320 bound_to 7965
  146.2215  139.5644  142.9615 LP  0  0  0  0  0  0  0  0  0  0  0  0  # atno 17321 bound_to 7965
  140.7818  143.4189  151.0873 LP  0  0  0  0  0  0  0  0  0  0  0  0  # atno 17342 bound_to 10162
  139.7856  143.8293  152.3144 LP  0  0  0  0  0  0  0  0  0  0  0  0  # atno 17343 bound_to 10162
  155.9787  130.4775  150.6673 LP  0  0  0  0  0  0  0  0  0  0  0  0  # atno 17370 bound_to 10713
  157.4302  131.0848  151.1046 LP  0  0  0  0  0  0  0  0  0  0  0  0  # atno 17371 bound_to 10713
  141.1653  133.8715  157.1733 LP  0  0  0  0  0  0  0  0  0  0  0  0  # atno 17394 bound_to 11000
  139.9990  135.0035  157.0148 LP  0  0  0  0  0  0  0  0  0  0  0  0  # atno 17395 bound_to 11000

$$$$
