AV-unprocessed.smi:47|AV-procd|sdf|439|dock8
  -GOLD-   2262016313D 1   1.00000     0.00000
 Structure written by MMmdl.
 32 34  0  0  0  0  0  0  0  0  2 V2000
  145.4407  141.7236  154.2469 O   0  0  0  0  0  0  0  0  0  0  0  0
  146.5444  140.8994  154.5595 C   0  0  1  0  0  0  0  0  0  0  0  0
  147.3009  140.4850  153.2893 C   0  0  0  0  0  0  0  0  0  0  0  0
  148.7230  140.4961  153.6613 N   0  3  0  0  0  0  0  0  0  0  0  0
  148.8833  141.5877  154.6363 C   0  0  2  0  0  0  0  0  0  0  0  0
  150.1028  141.2377  155.4359 C   0  0  0  0  0  0  0  0  0  0  0  0
  151.0350  140.3466  155.0892 N   0  0  0  0  0  0  0  0  0  0  0  0
  151.9477  140.3513  156.1270 N   0  0  0  0  0  0  0  0  0  0  0  0
  151.4994  141.2402  157.0254 C   0  0  0  0  0  0  0  0  0  0  0  0
  152.1778  141.5483  158.2864 C   0  0  0  0  0  0  0  0  0  0  0  0
  153.0271  140.5951  158.8954 C   0  0  0  0  0  0  0  0  0  0  0  0
  153.6829  140.8931  160.1058 C   0  0  0  0  0  0  0  0  0  0  0  0
  153.4991  142.1469  160.7181 C   0  0  0  0  0  0  0  0  0  0  0  0
  152.6577  143.1028  160.1193 C   0  0  0  0  0  0  0  0  0  0  0  0
  152.0000  142.8054  158.9099 C   0  0  0  0  0  0  0  0  0  0  0  0
  150.3496  141.8097  156.6220 N   0  0  0  0  0  0  0  0  0  0  0  0
  147.5729  141.6373  155.4330 C   0  0  0  0  0  0  0  0  0  0  0  0
  146.1877  140.0123  155.0848 H   0  0  0  0  0  0  0  0  0  0  0  0
  149.0358  142.5217  154.0932 H   0  0  0  0  0  0  0  0  0  0  0  0
  149.7991  142.5032  157.1077 H   0  0  0  0  0  0  0  0  0  0  0  0
  144.8506  141.2412  153.6871 H   0  0  0  0  0  0  0  0  0  0  0  0
  146.9883  139.5125  152.9078 H   0  0  0  0  0  0  0  0  0  0  0  0
  147.1577  141.2200  152.4954 H   0  0  0  0  0  0  0  0  0  0  0  0
  148.9396  139.6262  154.1273 H   0  0  0  0  0  0  0  0  0  0  0  0
  153.1828  139.6263  158.4444 H   0  0  0  0  0  0  0  0  0  0  0  0
  154.3287  140.1592  160.5651 H   0  0  0  0  0  0  0  0  0  0  0  0
  154.0034  142.3755  161.6455 H   0  0  0  0  0  0  0  0  0  0  0  0
  152.5167  144.0661  160.5872 H   0  0  0  0  0  0  0  0  0  0  0  0
  151.3605  143.5547  158.4668 H   0  0  0  0  0  0  0  0  0  0  0  0
  147.2897  142.6641  155.6683 H   0  0  0  0  0  0  0  0  0  0  0  0
  147.6752  141.1076  156.3815 H   0  0  0  0  0  0  0  0  0  0  0  0
  149.3253  140.6162  152.8594 H   0  0  0  0  0  0  0  0  0  0  0  0
  1  2  1  0  0  0  0
  1 21  1  0  0  0  0
  2 18  1  0  0  0  0
  2 17  1  0  0  0  0
  2  3  1  0  0  0  0
  3  4  1  0  0  0  0
  3 22  1  0  0  0  0
  3 23  1  0  0  0  0
  4  5  1  0  0  0  0
  4 24  1  0  0  0  0
  4 32  1  0  0  0  0
  5 19  1  0  0  0  0
  5 17  1  0  0  0  0
  5  6  1  0  0  0  0
  6  7  2  0  0  0  0
  6 16  1  0  0  0  0
  7  8  1  0  0  0  0
  8  9  2  0  0  0  0
  9 16  1  0  0  0  0
  9 10  1  0  0  0  0
 10 15  1  0  0  0  0
 10 11  2  0  0  0  0
 11 12  1  0  0  0  0
 11 25  1  0  0  0  0
 12 13  2  0  0  0  0
 12 26  1  0  0  0  0
 13 14  1  0  0  0  0
 13 27  1  0  0  0  0
 14 15  2  0  0  0  0
 14 28  1  0  0  0  0
 15 29  1  0  0  0  0
 16 20  1  0  0  0  0
 17 30  1  0  0  0  0
 17 31  1  0  0  0  0
M  CHG  1   4   1
M  END
> <s_m_source_file>
AV-unprocessed.smi

> <i_m_source_file_index>
47

> <i_lp_mmshare_version>
43012

> <i_f3d_flags>
0

> <s_epik_input>
W09IXVtDQEhdMVtDSDJdW05IXVtDQEBIXShbQ0gyXTEpYzJuW25IXWMobjIpLWMzW2NIXVtjSF1bY0hdW2NIXVtjSF0z

> <s_epik_cmdline>
J2VwaWtfcHl0aG9uJywgJy1waCcsICc3LjAnLCAnLXRuJywgJzgnLCAnLW1hJywgJzIwMCcsICctbWV0YWxfYmluZGluZycsICctaW1hZScsICc8aW5maWxlLm1hZT4nLCAnLW9tYWUnLCAnPG91dGZpbGUubWFlPic=

> <r_lp_tautomer_probability>
0.0517155

> <r_epik_Ionization_Penalty>
2.45729

> <r_epik_Ionization_Penalty_Charging>
0.0688988

> <r_epik_Ionization_Penalty_Neutral>
2.3884

> <r_epik_State_Penalty>
2.69236

> <r_epik_Charging_Adjusted_Penalty>
2.76126

> <i_epik_Tot_Q>
1

> <i_epik_Tot_abs_Q>
1

> <r_epik_Metal_State_Penalty>
3.18974

> <b_epik_Metal_Only>
0

> <s_lp_Force_Field>
OPLS_2005

> <r_lp_Energy>
30.5648

> <b_lp_Chiralities_Consistent>
1

> <s_lp_Variant>
AV-unprocessed.smi:47-17

> <Gold.Version>
5.8.1

> <Gold.Id.Protein>
6NUR|6NUR_protein|mol2

> <Gold.PLP.Fitness>
42.5031

> <Gold.PLP.PLP>
-34.8738

> <Gold.PLP.part.hbond>
-3.0000

> <Gold.PLP.part.metal>
0.0000

> <Gold.PLP.part.buried>
-4.9228

> <Gold.PLP.part.nonpolar>
-27.5481

> <Gold.PLP.part.repulsive>
0.2368

> <Gold.PLP.ligand.clash>
0.0000

> <Gold.PLP.ligand.torsion>
0.6801

> <Gold.PLP.Chemscore.Hbond>
2.9920

> <Gold.PLP.Chemscore.CHOScore>
0.0000

> <Gold.PLP.Chemscore.Metal>
0.0000

> <Gold.Chemscore.Hbonds>
donor molecule, donor type, donor heavy atom, donor atom, acceptor molecule, acceptor atom, score
      L1  H     1    21       P1 10175  1.00
      L1  H     4    32       P1  7957  0.86
      P1  H  7989  7998       L1     7  1.00

> <Gold.PLP.Chemscore.Internal.Correction>
0.0136

> <Gold.Rescore>
     Score         DG    S(hbond)    S(metal)    S(lipo)     H(rot)  DE(clash)    DE(int)     intcor
     19.22     -19.92       2.50        0.00      84.71       1.50       0.18       0.51       ----

> <Gold.Chemscore.Fitness>
19.2198

> <Gold.Chemscore.DG>
-19.9169

> <Gold.Chemscore.ZeroCoef>
-5.4800

> <Gold.Chemscore.Hbond>
2.5020

> <Gold.Chemscore.Metal>
0.0000

> <Gold.Chemscore.Lipo>
84.7145

> <Gold.Chemscore.Internal_Hbond>
0.0000

> <Gold.Chemscore.DEClash>
0.1838

> <Gold.Chemscore.DEInternal>
0.5133

> <Gold.Chemscore.Rot>
1.4966

> <Gold.Chemscore.Internal.Correction>
   9.000000E+99

> <Gold.Chemscore.Hbonds>
donor molecule, donor type, donor heavy atom, donor atom, acceptor molecule, acceptor atom, score
      L1  H     1    21       P1 10175  0.40
      L1  H     4    32       P1  7957  0.85
      P1  H  7989  7998       L1     7  0.50

> <Gold.Chemscore.Hbond.Weighted>
-8.3565

> <Gold.Chemscore.Metal.Weighted>
-0.0000

> <Gold.Chemscore.Lipo.Weighted>
-9.9116

> <Gold.Chemscore.Internal_Hbond.Weighted>
0.0000

> <Gold.Chemscore.DEClash.Weighted>
0.1838

> <Gold.Chemscore.DEInternal.Weighted>
0.5133

> <Gold.Chemscore.Rot.Weighted>
3.8312

> <Gold.Chemscore.Internal.Correction.Weighted>
   9.000000E+99

> <Gold.Protein.RotatedTorsions>
[ 6907 6896 6895 6894 ] final   72.11 input  -60.11 | X-H torsion
[ 7974 7965 7964 7962 ] final  164.12 input  175.53 | X-H torsion
[ 8008 7997 7996 7995 ] final  167.97 input   59.86 | X-H torsion
[ 10167 10162 10161 10158 ] final   63.06 input  -65.29 | X-H torsion
[ 10718 10713 10712 10709 ] final -174.12 input   66.30 | X-H torsion
[ 10763 10752 10751 10750 ] final   88.11 input  -60.55 | X-H torsion
[ 11005 11000 10999 10996 ] final -127.49 input  -57.11 | X-H torsion

> <Gold.Protein.ActiveResidues>
 VAL166  LYS551  ARG553  GLY616  TRP617  ASP618  TYR619  PRO620  LYS621  CYS622 
 ASP623  PHE694  ASN695  SER759  ASP760  ASP761  ALA762  ILE779  LEU786  VAL792 
 PHE793  MET794  SER795  GLU796  ALA797  LYS798  CYS799  TRP800  GLU811  SER814 

> <Gold.Protein.RotatedAtoms>
  152.4849  134.4620  159.9607 H   0  0  0  0  0  0  0  0  0  0  0  0  # atno 6907 bound_to 6896
  151.4618  133.3585  159.2818 H   0  0  0  0  0  0  0  0  0  0  0  0  # atno 6908 bound_to 6896
  150.8951  134.8384  159.7381 H   0  0  0  0  0  0  0  0  0  0  0  0  # atno 6909 bound_to 6896
  144.7559  139.8281  143.6350 H   0  0  0  0  0  0  0  0  0  0  0  0  # atno 7974 bound_to 7965
  156.1587  140.1603  156.8648 H   0  0  0  0  0  0  0  0  0  0  0  0  # atno 8008 bound_to 7997
  154.5140  140.0794  156.8081 H   0  0  0  0  0  0  0  0  0  0  0  0  # atno 8009 bound_to 7997
  155.3750  140.3402  155.4247 H   0  0  0  0  0  0  0  0  0  0  0  0  # atno 8010 bound_to 7997
  140.1371  144.4588  150.6832 H   0  0  0  0  0  0  0  0  0  0  0  0  # atno 10167 bound_to 10162
  156.7804  130.9481  151.3120 H   0  0  0  0  0  0  0  0  0  0  0  0  # atno 10718 bound_to 10713
  153.1736  135.4519  154.9935 H   0  0  0  0  0  0  0  0  0  0  0  0  # atno 10763 bound_to 10752
  154.7982  135.3246  154.7617 H   0  0  0  0  0  0  0  0  0  0  0  0  # atno 10764 bound_to 10752
  153.8090  135.6956  153.4898 H   0  0  0  0  0  0  0  0  0  0  0  0  # atno 10765 bound_to 10752
  140.9595  134.0956  157.3982 H   0  0  0  0  0  0  0  0  0  0  0  0  # atno 11005 bound_to 11000
  146.1568  139.4669  143.0014 LP  0  0  0  0  0  0  0  0  0  0  0  0  # atno 17320 bound_to 7965
  145.6782  141.0198  143.1621 LP  0  0  0  0  0  0  0  0  0  0  0  0  # atno 17321 bound_to 7965
  140.6782  143.2315  151.5452 LP  0  0  0  0  0  0  0  0  0  0  0  0  # atno 17342 bound_to 10162
  139.5490  144.2444  152.1496 LP  0  0  0  0  0  0  0  0  0  0  0  0  # atno 17343 bound_to 10162
  157.6649  130.8999  149.9910 LP  0  0  0  0  0  0  0  0  0  0  0  0  # atno 17370 bound_to 10713
  156.1222  130.3645  149.9869 LP  0  0  0  0  0  0  0  0  0  0  0  0  # atno 17371 bound_to 10713
  139.8873  135.0089  156.6553 LP  0  0  0  0  0  0  0  0  0  0  0  0  # atno 17394 bound_to 11000
  140.7488  133.8915  155.8331 LP  0  0  0  0  0  0  0  0  0  0  0  0  # atno 17395 bound_to 11000

$$$$
