AV-unprocessed.smi:1483|AV-procd|sdf|5990|dock3
  -GOLD-   22720 6 83D 1   1.00000     0.00000
 Structure written by MMmdl.
 49 50  0  0  0  0  0  0  0  0  2 V2000
  151.2647  145.7317  159.7409 C   0  0  0  0  0  0  0  0  0  0  0  0
  151.2985  144.2999  159.2489 C   0  0  0  0  0  0  0  0  0  0  0  0
  152.5121  143.5826  159.1969 C   0  0  0  0  0  0  0  0  0  0  0  0
  152.4843  142.2471  158.7509 C   0  0  0  0  0  0  0  0  0  0  0  0
  151.2477  141.6807  158.3775 C   0  0  0  0  0  0  0  0  0  0  0  0
  151.1510  140.2183  157.9687 C   0  0  0  0  0  0  0  0  0  0  0  0
  151.2583  140.1063  156.4457 C   0  0  0  0  0  0  0  0  0  0  0  0
  152.3563  140.1466  155.8925 O   0  0  0  0  0  0  0  0  0  0  0  0
  150.1026  139.9104  155.7927 N   0  0  0  0  0  0  0  0  0  0  0  0
  149.9448  139.4824  154.4055 C   0  0  2  0  0  0  0  0  0  0  0  0
  148.5955  138.7637  154.2446 C   0  0  0  0  0  0  0  0  0  0  0  0
  148.5549  137.4444  155.0431 C   0  0  0  0  0  0  0  0  0  0  0  0
  149.6714  136.5328  154.6750 N   0  3  2  0  0  0  0  0  0  0  0  0
  149.5954  135.2477  155.4188 C   0  0  0  0  0  0  0  0  0  0  0  0
  150.5822  134.1781  154.9028 C   0  0  0  0  0  0  0  0  0  0  0  0
  150.0291  133.4335  153.6764 C   0  0  0  0  0  0  0  0  0  0  0  0
  150.9315  133.1854  156.0214 C   0  0  0  0  0  0  0  0  0  0  0  0
  151.0004  137.1933  154.7928 C   0  0  0  0  0  0  0  0  0  0  0  0
  151.0589  138.5030  153.9842 C   0  0  0  0  0  0  0  0  0  0  0  0
  150.0941  142.4916  158.4496 C   0  0  0  0  0  0  0  0  0  0  0  0
  150.1101  143.7689  158.8861 N   0  0  0  0  0  0  0  0  0  0  0  0
  152.2559  146.1840  159.6983 H   0  0  0  0  0  0  0  0  0  0  0  0
  150.9164  145.7655  160.7734 H   0  0  0  0  0  0  0  0  0  0  0  0
  150.5918  146.3349  159.1302 H   0  0  0  0  0  0  0  0  0  0  0  0
  153.4429  144.0402  159.4991 H   0  0  0  0  0  0  0  0  0  0  0  0
  153.3925  141.6632  158.7170 H   0  0  0  0  0  0  0  0  0  0  0  0
  151.9479  139.6400  158.4376 H   0  0  0  0  0  0  0  0  0  0  0  0
  150.2038  139.7994  158.3111 H   0  0  0  0  0  0  0  0  0  0  0  0
  149.2592  139.9355  156.3470 H   0  0  0  0  0  0  0  0  0  0  0  0
  149.9654  140.3651  153.7642 H   0  0  0  0  0  0  0  0  0  0  0  0
  147.7812  139.4157  154.5629 H   0  0  0  0  0  0  0  0  0  0  0  0
  148.4198  138.5529  153.1887 H   0  0  0  0  0  0  0  0  0  0  0  0
  148.5926  137.6472  156.1147 H   0  0  0  0  0  0  0  0  0  0  0  0
  147.6033  136.9459  154.8545 H   0  0  0  0  0  0  0  0  0  0  0  0
  149.7603  135.4414  156.4803 H   0  0  0  0  0  0  0  0  0  0  0  0
  148.5854  134.8421  155.3415 H   0  0  0  0  0  0  0  0  0  0  0  0
  151.5162  134.6571  154.6117 H   0  0  0  0  0  0  0  0  0  0  0  0
  149.0925  132.9263  153.9093 H   0  0  0  0  0  0  0  0  0  0  0  0
  150.7347  132.6801  153.3244 H   0  0  0  0  0  0  0  0  0  0  0  0
  149.8421  134.1143  152.8458 H   0  0  0  0  0  0  0  0  0  0  0  0
  150.0471  132.6517  156.3708 H   0  0  0  0  0  0  0  0  0  0  0  0
  151.3712  133.6970  156.8780 H   0  0  0  0  0  0  0  0  0  0  0  0
  151.6535  132.4436  155.6789 H   0  0  0  0  0  0  0  0  0  0  0  0
  151.2195  137.3871  155.8436 H   0  0  0  0  0  0  0  0  0  0  0  0
  151.7847  136.5301  154.4310 H   0  0  0  0  0  0  0  0  0  0  0  0
  150.9565  138.2750  152.9223 H   0  0  0  0  0  0  0  0  0  0  0  0
  152.0413  138.9630  154.0949 H   0  0  0  0  0  0  0  0  0  0  0  0
  149.1256  142.0929  158.1850 H   0  0  0  0  0  0  0  0  0  0  0  0
  149.5397  136.3099  153.6986 H   0  0  0  0  0  0  0  0  0  0  0  0
  1  2  1  0  0  0  0
  1 22  1  0  0  0  0
  1 23  1  0  0  0  0
  1 24  1  0  0  0  0
  2 21  1  0  0  0  0
  2  3  2  0  0  0  0
  3  4  1  0  0  0  0
  3 25  1  0  0  0  0
  4  5  2  0  0  0  0
  4 26  1  0  0  0  0
  5  6  1  0  0  0  0
  5 20  1  0  0  0  0
  6  7  1  0  0  0  0
  6 27  1  0  0  0  0
  6 28  1  0  0  0  0
  7  8  2  0  0  0  0
  7  9  1  0  0  0  0
  9 10  1  0  0  0  0
  9 29  1  0  0  0  0
 10 19  1  0  0  0  0
 10 11  1  0  0  0  0
 10 30  1  0  0  0  0
 11 12  1  0  0  0  0
 11 31  1  0  0  0  0
 11 32  1  0  0  0  0
 12 13  1  0  0  0  0
 12 33  1  0  0  0  0
 12 34  1  0  0  0  0
 13 14  1  0  0  0  0
 13 18  1  0  0  0  0
 13 49  1  0  0  0  0
 14 15  1  0  0  0  0
 14 35  1  0  0  0  0
 14 36  1  0  0  0  0
 15 16  1  0  0  0  0
 15 17  1  0  0  0  0
 15 37  1  0  0  0  0
 16 38  1  0  0  0  0
 16 39  1  0  0  0  0
 16 40  1  0  0  0  0
 17 41  1  0  0  0  0
 17 42  1  0  0  0  0
 17 43  1  0  0  0  0
 18 19  1  0  0  0  0
 18 44  1  0  0  0  0
 18 45  1  0  0  0  0
 19 46  1  0  0  0  0
 19 47  1  0  0  0  0
 20 21  2  0  0  0  0
 20 48  1  0  0  0  0
M  CHG  1  13   1
M  END
> <s_m_source_file>
AV-unprocessed.smi

> <i_m_source_file_index>
1483

> <i_lp_mmshare_version>
43012

> <i_f3d_flags>
0

> <s_epik_input>
W0NIM11jMVtjSF1bY0hdYyhbY0hdbjEpW0NIMl1DKD1PKVtOSF1bQ0hdMltDSDJdW0NIMl1OKFtDSDJdW0NIMl0yKVtDSDJdW0NIXShbQ0gzXSlbQ0gzXQ==

> <s_epik_cmdline>
J2VwaWtfcHl0aG9uJywgJy1waCcsICc3LjAnLCAnLXRuJywgJzgnLCAnLW1hJywgJzIwMCcsICctbWV0YWxfYmluZGluZycsICctaW1hZScsICc8aW5maWxlLm1hZT4nLCAnLW9tYWUnLCAnPG91dGZpbGUubWFlPic=

> <r_epik_Ionization_Penalty>
0.0186701

> <r_epik_Ionization_Penalty_Charging>
0.00405837

> <r_epik_Ionization_Penalty_Neutral>
0.0146117

> <r_epik_State_Penalty>
0.0114383

> <r_epik_Charging_Adjusted_Penalty>
0.0154967

> <i_epik_Tot_Q>
1

> <i_epik_Tot_abs_Q>
1

> <r_epik_Metal_State_Penalty>
0.0111573

> <b_epik_Metal_Only>
0

> <s_lp_Force_Field>
OPLS_2005

> <r_lp_Energy>
15.6664

> <b_lp_Chiralities_Consistent>
1

> <s_lp_Variant>
AV-unprocessed.smi:1483-2

> <Gold.Version>
5.8.1

> <Gold.Id.Protein>
6NUR|6NUR_protein|mol2

> <Gold.PLP.Fitness>
50.1114

> <Gold.PLP.PLP>
-43.5302

> <Gold.PLP.part.hbond>
-2.0000

> <Gold.PLP.part.metal>
0.0000

> <Gold.PLP.part.buried>
-4.9894

> <Gold.PLP.part.nonpolar>
-35.7906

> <Gold.PLP.part.repulsive>
0.2223

> <Gold.PLP.ligand.clash>
0.0000

> <Gold.PLP.ligand.torsion>
1.2800

> <Gold.PLP.Chemscore.Hbond>
3.0000

> <Gold.PLP.Chemscore.CHOScore>
0.0000

> <Gold.PLP.Chemscore.Metal>
0.0000

> <Gold.Chemscore.Hbonds>
donor molecule, donor type, donor heavy atom, donor atom, acceptor molecule, acceptor atom, score
      L1  H    13    49       P1  7948  2.00
      P1  H  7997  8008       L1     8  1.00

> <Gold.PLP.Chemscore.Internal.Correction>
0.1412

> <Gold.Rescore>
     Score         DG    S(hbond)    S(metal)    S(lipo)     H(rot)  DE(clash)    DE(int)     intcor
     19.41     -21.93       1.99        0.00     116.06       1.47       0.04       2.48       ----

> <Gold.Chemscore.Fitness>
19.4129

> <Gold.Chemscore.DG>
-21.9345

> <Gold.Chemscore.ZeroCoef>
-5.4800

> <Gold.Chemscore.Hbond>
1.9895

> <Gold.Chemscore.Metal>
0.0000

> <Gold.Chemscore.Lipo>
116.0560

> <Gold.Chemscore.Internal_Hbond>
0.0000

> <Gold.Chemscore.DEClash>
0.0419

> <Gold.Chemscore.DEInternal>
2.4797

> <Gold.Chemscore.Rot>
1.4723

> <Gold.Chemscore.Internal.Correction>
   9.000000E+99

> <Gold.Chemscore.Hbonds>
donor molecule, donor type, donor heavy atom, donor atom, acceptor molecule, acceptor atom, score
      L1  H    13    49       P1  7948  0.65
      P1  H  7997  8008       L1     8  0.95

> <Gold.Chemscore.Hbond.Weighted>
-6.6451

> <Gold.Chemscore.Metal.Weighted>
-0.0000

> <Gold.Chemscore.Lipo.Weighted>
-13.5786

> <Gold.Chemscore.Internal_Hbond.Weighted>
0.0000

> <Gold.Chemscore.DEClash.Weighted>
0.0419

> <Gold.Chemscore.DEInternal.Weighted>
2.4797

> <Gold.Chemscore.Rot.Weighted>
3.7691

> <Gold.Chemscore.Internal.Correction.Weighted>
   9.000000E+99

> <Gold.Protein.RotatedTorsions>
[ 6907 6896 6895 6894 ] final -113.16 input  -60.11 | X-H torsion
[ 7974 7965 7964 7962 ] final  169.57 input  175.53 | X-H torsion
[ 8008 7997 7996 7995 ] final  -38.93 input   59.86 | X-H torsion
[ 10167 10162 10161 10158 ] final    4.25 input  -65.29 | X-H torsion
[ 10718 10713 10712 10709 ] final  -57.87 input   66.30 | X-H torsion
[ 10763 10752 10751 10750 ] final  159.57 input  -60.55 | X-H torsion
[ 11005 11000 10999 10996 ] final   50.26 input  -57.11 | X-H torsion

> <Gold.Protein.ActiveResidues>
 VAL166  LYS551  ARG553  GLY616  TRP617  ASP618  TYR619  PRO620  LYS621  CYS622 
 ASP623  PHE694  ASN695  SER759  ASP760  ASP761  ALA762  ILE779  LEU786  VAL792 
 PHE793  MET794  SER795  GLU796  ALA797  LYS798  CYS799  TRP800  GLU811  SER814 

> <Gold.Protein.RotatedAtoms>
  150.7809  133.8985  159.3334 H   0  0  0  0  0  0  0  0  0  0  0  0  # atno 6907 bound_to 6896
  151.6848  135.0954  160.0232 H   0  0  0  0  0  0  0  0  0  0  0  0  # atno 6908 bound_to 6896
  152.3860  133.6573  159.6234 H   0  0  0  0  0  0  0  0  0  0  0  0  # atno 6909 bound_to 6896
  144.7351  139.9074  143.6413 H   0  0  0  0  0  0  0  0  0  0  0  0  # atno 7974 bound_to 7965
  154.4030  140.1565  156.2780 H   0  0  0  0  0  0  0  0  0  0  0  0  # atno 8008 bound_to 7997
  155.8894  140.3439  155.5923 H   0  0  0  0  0  0  0  0  0  0  0  0  # atno 8009 bound_to 7997
  155.7575  140.0813  157.2162 H   0  0  0  0  0  0  0  0  0  0  0  0  # atno 8010 bound_to 7997
  140.6545  143.7463  150.7629 H   0  0  0  0  0  0  0  0  0  0  0  0  # atno 10167 bound_to 10162
  156.1178  130.4169  150.0499 H   0  0  0  0  0  0  0  0  0  0  0  0  # atno 10718 bound_to 10713
  154.2338  135.2777  155.2880 H   0  0  0  0  0  0  0  0  0  0  0  0  # atno 10763 bound_to 10752
  154.5601  135.5649  153.7003 H   0  0  0  0  0  0  0  0  0  0  0  0  # atno 10764 bound_to 10752
  153.0014  135.6296  154.2481 H   0  0  0  0  0  0  0  0  0  0  0  0  # atno 10765 bound_to 10752
  140.1032  134.5053  155.8743 H   0  0  0  0  0  0  0  0  0  0  0  0  # atno 11005 bound_to 11000
  146.1026  139.4023  143.0337 LP  0  0  0  0  0  0  0  0  0  0  0  0  # atno 17320 bound_to 7965
  145.7557  140.9955  143.1227 LP  0  0  0  0  0  0  0  0  0  0  0  0  # atno 17321 bound_to 7965
  140.1120  143.4690  152.2364 LP  0  0  0  0  0  0  0  0  0  0  0  0  # atno 17342 bound_to 10162
  139.5765  144.7490  151.3752 LP  0  0  0  0  0  0  0  0  0  0  0  0  # atno 17343 bound_to 10162
  156.8445  130.9437  151.3630 LP  0  0  0  0  0  0  0  0  0  0  0  0  # atno 17370 bound_to 10713
  157.6361  130.8768  149.9362 LP  0  0  0  0  0  0  0  0  0  0  0  0  # atno 17371 bound_to 10713
  141.2111  133.6703  156.6560 LP  0  0  0  0  0  0  0  0  0  0  0  0  # atno 17394 bound_to 11000
  140.3191  134.8023  157.4238 LP  0  0  0  0  0  0  0  0  0  0  0  0  # atno 17395 bound_to 11000

$$$$
