AV-unprocessed.smi:1709|AV-procd|sdf|6894|dock6
  -GOLD-   22720 8103D 1   1.00000     0.00000
 Structure written by MMmdl.
 43 45  0  0  0  0  0  0  0  0  2 V2000
  150.9771  137.7640  154.5032 C   0  0  0  0  0  0  0  0  0  0  0  0
  150.2928  139.1146  154.6434 C   0  0  0  0  0  0  0  0  0  0  0  0
  151.0190  140.2004  155.1769 C   0  0  0  0  0  0  0  0  0  0  0  0
  150.3896  141.4501  155.3048 C   0  0  0  0  0  0  0  0  0  0  0  0
  149.0527  141.5617  154.8889 C   0  0  0  0  0  0  0  0  0  0  0  0
  148.3515  140.5291  154.3776 N   0  0  0  0  0  0  0  0  0  0  0  0
  148.9409  139.3117  154.2519 C   0  0  0  0  0  0  0  0  0  0  0  0
  148.2765  138.1685  153.7084 N   0  0  0  0  0  0  0  0  0  0  0  0
  146.9907  137.7628  153.7768 C   0  0  0  0  0  0  0  0  0  0  0  0
  146.1496  138.4162  154.3913 O   0  0  0  0  0  0  0  0  0  0  0  0
  146.6959  136.6174  153.1400 N   0  0  0  0  0  0  0  0  0  0  0  0
  145.3861  135.9715  153.1009 C   0  0  1  0  0  0  0  0  0  0  0  0
  144.3626  136.7538  152.2548 C   0  0  0  0  0  0  0  0  0  0  0  0
  143.6185  135.6822  151.4517 C   0  0  0  0  0  0  0  0  0  0  0  0
  144.6479  134.6591  151.2350 N   0  3  2  0  0  0  0  0  0  0  0  0
  144.2343  133.3451  150.7027 C   0  0  0  0  0  0  0  0  0  0  0  0
  145.5033  132.5211  150.3955 C   0  0  0  0  0  0  0  0  0  0  0  0
  146.4595  132.4461  151.6073 C   0  0  0  0  0  0  0  0  0  0  0  0
  146.7498  133.8434  152.1957 C   0  0  0  0  0  0  0  0  0  0  0  0
  145.4144  134.5516  152.4882 C   0  0  1  0  0  0  0  0  0  0  0  0
  151.9967  137.7932  154.8883 H   0  0  0  0  0  0  0  0  0  0  0  0
  151.0227  137.4670  153.4550 H   0  0  0  0  0  0  0  0  0  0  0  0
  150.4327  136.9990  155.0576 H   0  0  0  0  0  0  0  0  0  0  0  0
  152.0472  140.0806  155.4852 H   0  0  0  0  0  0  0  0  0  0  0  0
  150.9185  142.3002  155.7099 H   0  0  0  0  0  0  0  0  0  0  0  0
  148.5310  142.5039  154.9679 H   0  0  0  0  0  0  0  0  0  0  0  0
  148.8644  137.5878  153.1281 H   0  0  0  0  0  0  0  0  0  0  0  0
  147.4507  136.1483  152.6589 H   0  0  0  0  0  0  0  0  0  0  0  0
  144.9951  135.8990  154.1179 H   0  0  0  0  0  0  0  0  0  0  0  0
  143.6900  137.3594  152.8629 H   0  0  0  0  0  0  0  0  0  0  0  0
  144.8760  137.4259  151.5652 H   0  0  0  0  0  0  0  0  0  0  0  0
  142.7984  135.2628  152.0367 H   0  0  0  0  0  0  0  0  0  0  0  0
  143.2163  136.0625  150.5123 H   0  0  0  0  0  0  0  0  0  0  0  0
  143.5998  132.8293  151.4250 H   0  0  0  0  0  0  0  0  0  0  0  0
  143.6469  133.4833  149.7945 H   0  0  0  0  0  0  0  0  0  0  0  0
  145.2287  131.5164  150.0730 H   0  0  0  0  0  0  0  0  0  0  0  0
  146.0303  132.9779  149.5568 H   0  0  0  0  0  0  0  0  0  0  0  0
  146.0116  131.8177  152.3781 H   0  0  0  0  0  0  0  0  0  0  0  0
  147.3919  131.9600  151.3189 H   0  0  0  0  0  0  0  0  0  0  0  0
  147.3390  133.7434  153.1075 H   0  0  0  0  0  0  0  0  0  0  0  0
  147.3456  134.4282  151.4933 H   0  0  0  0  0  0  0  0  0  0  0  0
  144.8421  133.9159  153.1675 H   0  0  0  0  0  0  0  0  0  0  0  0
  145.2813  135.0564  150.5559 H   0  0  0  0  0  0  0  0  0  0  0  0
  1  2  1  0  0  0  0
  1 21  1  0  0  0  0
  1 22  1  0  0  0  0
  1 23  1  0  0  0  0
  2  7  1  0  0  0  0
  2  3  2  0  0  0  0
  3  4  1  0  0  0  0
  3 24  1  0  0  0  0
  4  5  2  0  0  0  0
  4 25  1  0  0  0  0
  5  6  1  0  0  0  0
  5 26  1  0  0  0  0
  6  7  2  0  0  0  0
  7  8  1  0  0  0  0
  8  9  1  0  0  0  0
  8 27  1  0  0  0  0
  9 10  2  0  0  0  0
  9 11  1  0  0  0  0
 11 12  1  0  0  0  0
 11 28  1  0  0  0  0
 12 20  1  0  0  0  0
 12 13  1  0  0  0  0
 12 29  1  0  0  0  0
 13 14  1  0  0  0  0
 13 30  1  0  0  0  0
 13 31  1  0  0  0  0
 14 15  1  0  0  0  0
 14 32  1  0  0  0  0
 14 33  1  0  0  0  0
 15 20  1  0  0  0  0
 15 16  1  0  0  0  0
 15 43  1  0  0  0  0
 16 17  1  0  0  0  0
 16 34  1  0  0  0  0
 16 35  1  0  0  0  0
 17 18  1  0  0  0  0
 17 36  1  0  0  0  0
 17 37  1  0  0  0  0
 18 19  1  0  0  0  0
 18 38  1  0  0  0  0
 18 39  1  0  0  0  0
 19 20  1  0  0  0  0
 19 40  1  0  0  0  0
 19 41  1  0  0  0  0
 20 42  1  0  0  0  0
M  CHG  1  15   1
M  END
> <s_m_source_file>
AV-unprocessed.smi

> <i_m_source_file_index>
1709

> <i_lp_mmshare_version>
43012

> <i_f3d_flags>
0

> <s_epik_input>
W0NIM11jMVtjSF1bY0hdW2NIXW5jMVtOSF1DKD1PKVtOSF1bQ0BIXShbQ0gyXVtDSDJdMilbQ0BASF0oTjIzKVtDSDJdW0NIMl1bQ0gyXVtDSDJdMw==

> <s_epik_cmdline>
J2VwaWtfcHl0aG9uJywgJy1waCcsICc3LjAnLCAnLXRuJywgJzgnLCAnLW1hJywgJzIwMCcsICctbWV0YWxfYmluZGluZycsICctaW1hZScsICc8aW5maWxlLm1hZT4nLCAnLW9tYWUnLCAnPG91dGZpbGUubWFlPic=

> <r_epik_Ionization_Penalty>
0.00101524

> <r_epik_Ionization_Penalty_Charging>
0.000974069

> <r_epik_Ionization_Penalty_Neutral>
4.11757e-05

> <r_epik_State_Penalty>
0.000633842

> <r_epik_Charging_Adjusted_Penalty>
0.00160791

> <i_epik_Tot_Q>
1

> <i_epik_Tot_abs_Q>
1

> <r_epik_Metal_State_Penalty>
-0

> <b_epik_Metal_Only>
0

> <s_lp_Force_Field>
OPLS_2005

> <r_lp_Energy>
46.0591

> <b_lp_Chiralities_Consistent>
1

> <s_lp_Variant>
AV-unprocessed.smi:1709-4

> <Gold.Version>
5.8.1

> <Gold.Id.Protein>
6NUR|6NUR_protein|mol2

> <Gold.PLP.Fitness>
39.8639

> <Gold.PLP.PLP>
-31.5444

> <Gold.PLP.part.hbond>
-2.0000

> <Gold.PLP.part.metal>
0.0000

> <Gold.PLP.part.buried>
-2.1545

> <Gold.PLP.part.nonpolar>
-27.1347

> <Gold.PLP.part.repulsive>
0.1759

> <Gold.PLP.ligand.clash>
0.0000

> <Gold.PLP.ligand.torsion>
0.3285

> <Gold.PLP.Chemscore.Hbond>
1.9920

> <Gold.PLP.Chemscore.CHOScore>
1.0000

> <Gold.PLP.Chemscore.Metal>
0.0000

> <Gold.Chemscore.Hbonds>
donor molecule, donor type, donor heavy atom, donor atom, acceptor molecule, acceptor atom, score
      L1  H     8    27       P1  7948  0.96
      L1  H    11    28       P1  7948  0.99
      L1  C     5    26       P1  8028  1.00

> <Gold.PLP.Chemscore.Internal.Correction>
0.0005

> <Gold.Rescore>
     Score         DG    S(hbond)    S(metal)    S(lipo)     H(rot)  DE(clash)    DE(int)     intcor
     18.27     -18.84       1.89        0.00      82.16       1.00       0.19       0.37       ----

> <Gold.Chemscore.Fitness>
18.2722

> <Gold.Chemscore.DG>
-18.8402

> <Gold.Chemscore.ZeroCoef>
-5.4800

> <Gold.Chemscore.Hbond>
1.8884

> <Gold.Chemscore.Metal>
0.0000

> <Gold.Chemscore.Lipo>
82.1635

> <Gold.Chemscore.Internal_Hbond>
0.0000

> <Gold.Chemscore.DEClash>
0.1941

> <Gold.Chemscore.DEInternal>
0.3740

> <Gold.Chemscore.Rot>
1.0000

> <Gold.Chemscore.Internal.Correction>
   9.000000E+99

> <Gold.Chemscore.Hbonds>
donor molecule, donor type, donor heavy atom, donor atom, acceptor molecule, acceptor atom, score
      L1  H     8    27       P1  7948  0.92
      L1  H    11    28       P1  7948  0.94

> <Gold.Chemscore.Hbond.Weighted>
-6.3071

> <Gold.Chemscore.Metal.Weighted>
-0.0000

> <Gold.Chemscore.Lipo.Weighted>
-9.6131

> <Gold.Chemscore.Internal_Hbond.Weighted>
0.0000

> <Gold.Chemscore.DEClash.Weighted>
0.1941

> <Gold.Chemscore.DEInternal.Weighted>
0.3740

> <Gold.Chemscore.Rot.Weighted>
2.5600

> <Gold.Chemscore.Internal.Correction.Weighted>
   9.000000E+99

> <Gold.Protein.RotatedTorsions>
[ 6907 6896 6895 6894 ] final -163.24 input  -60.11 | X-H torsion
[ 7974 7965 7964 7962 ] final  114.40 input  175.53 | X-H torsion
[ 8008 7997 7996 7995 ] final -174.32 input   59.86 | X-H torsion
[ 10167 10162 10161 10158 ] final   53.31 input  -65.29 | X-H torsion
[ 10718 10713 10712 10709 ] final   72.20 input   66.30 | X-H torsion
[ 10763 10752 10751 10750 ] final   -1.26 input  -60.55 | X-H torsion
[ 11005 11000 10999 10996 ] final   70.60 input  -57.11 | X-H torsion

> <Gold.Protein.ActiveResidues>
 VAL166  LYS551  ARG553  GLY616  TRP617  ASP618  TYR619  PRO620  LYS621  CYS622 
 ASP623  PHE694  ASN695  SER759  ASP760  ASP761  ALA762  ILE779  LEU786  VAL792 
 PHE793  MET794  SER795  GLU796  ALA797  LYS798  CYS799  TRP800  GLU811  SER814 

> <Gold.Protein.RotatedAtoms>
  151.3929  133.3783  159.2722 H   0  0  0  0  0  0  0  0  0  0  0  0  # atno 6907 bound_to 6896
  150.9491  134.8894  159.7671 H   0  0  0  0  0  0  0  0  0  0  0  0  # atno 6908 bound_to 6896
  152.5104  134.3883  159.9427 H   0  0  0  0  0  0  0  0  0  0  0  0  # atno 6909 bound_to 6896
  145.2049  139.2934  143.4299 H   0  0  0  0  0  0  0  0  0  0  0  0  # atno 7974 bound_to 7965
  155.9686  140.1158  157.0832 H   0  0  0  0  0  0  0  0  0  0  0  0  # atno 8008 bound_to 7997
  154.4150  140.1167  156.5343 H   0  0  0  0  0  0  0  0  0  0  0  0  # atno 8009 bound_to 7997
  155.6626  140.3473  155.4790 H   0  0  0  0  0  0  0  0  0  0  0  0  # atno 8010 bound_to 7997
  140.2421  144.3572  150.6377 H   0  0  0  0  0  0  0  0  0  0  0  0  # atno 10167 bound_to 10162
  157.6489  130.9567  150.0896 H   0  0  0  0  0  0  0  0  0  0  0  0  # atno 10718 bound_to 10713
  153.3425  135.6981  153.6855 H   0  0  0  0  0  0  0  0  0  0  0  0  # atno 10763 bound_to 10752
  153.5614  135.3534  155.2801 H   0  0  0  0  0  0  0  0  0  0  0  0  # atno 10764 bound_to 10752
  154.8639  135.4250  154.2641 H   0  0  0  0  0  0  0  0  0  0  0  0  # atno 10765 bound_to 10752
  139.9588  134.7096  156.0691 H   0  0  0  0  0  0  0  0  0  0  0  0  # atno 11005 bound_to 11000
  146.3410  140.2306  142.8593 LP  0  0  0  0  0  0  0  0  0  0  0  0  # atno 17320 bound_to 7965
  144.9912  140.8548  143.5338 LP  0  0  0  0  0  0  0  0  0  0  0  0  # atno 17321 bound_to 7965
  140.6106  143.2169  151.6894 LP  0  0  0  0  0  0  0  0  0  0  0  0  # atno 17342 bound_to 10162
  139.5074  144.3648  152.0527 LP  0  0  0  0  0  0  0  0  0  0  0  0  # atno 17343 bound_to 10162
  156.1849  130.3652  149.8986 LP  0  0  0  0  0  0  0  0  0  0  0  0  # atno 17370 bound_to 10713
  156.6929  130.8903  151.3590 LP  0  0  0  0  0  0  0  0  0  0  0  0  # atno 17371 bound_to 10713
  141.1263  133.6598  156.3346 LP  0  0  0  0  0  0  0  0  0  0  0  0  # atno 17394 bound_to 11000
  140.5546  134.5994  157.5417 LP  0  0  0  0  0  0  0  0  0  0  0  0  # atno 17395 bound_to 11000

$$$$
