AV-unprocessed.smi:2536|AV-procd|sdf|9979|dock7
  -GOLD-   2272014 23D 1   1.00000     0.00000
 Structure written by MMmdl.
 32 33  0  0  0  0  0  0  0  0  1 V2000
  152.5040  144.0260  161.8780 C   0  0  0  0  0  0  0  0  0  0  0  0
  151.9347  143.6422  160.5254 C   0  0  0  0  0  0  0  0  0  0  0  0
  151.0257  144.4895  159.8561 C   0  0  0  0  0  0  0  0  0  0  0  0
  150.5017  144.1690  158.6535 N   0  0  0  0  0  0  0  0  0  0  0  0
  150.8800  143.0073  158.1169 C   0  0  0  0  0  0  0  0  0  0  0  0
  150.3186  142.7113  156.8875 N   0  0  0  0  0  0  0  0  0  0  0  0
  150.1044  141.3675  156.3648 C   0  0  1  0  0  0  0  0  0  0  0  0
  149.4572  141.3967  154.9693 C   0  0  0  0  0  0  0  0  0  0  0  0
  149.3400  139.9705  154.4217 C   0  0  0  0  0  0  0  0  0  0  0  0
  150.7048  139.2658  154.4683 C   0  0  0  0  0  0  0  0  0  0  0  0
  151.2112  139.2775  155.7990 O   0  0  0  0  0  0  0  0  0  0  0  0
  151.4333  140.5915  156.3013 C   0  0  0  0  0  0  0  0  0  0  0  0
  151.7340  142.1296  158.6557 N   0  0  0  0  0  0  0  0  0  0  0  0
  152.2666  142.4371  159.8590 C   0  0  0  0  0  0  0  0  0  0  0  0
  153.2243  141.4062  160.4288 C   0  0  0  0  0  0  0  0  0  0  0  0
  152.1034  144.9820  162.2162 H   0  0  0  0  0  0  0  0  0  0  0  0
  153.5891  144.1163  161.8236 H   0  0  0  0  0  0  0  0  0  0  0  0
  152.2527  143.2724  162.6247 H   0  0  0  0  0  0  0  0  0  0  0  0
  150.7132  145.4297  160.2860 H   0  0  0  0  0  0  0  0  0  0  0  0
  149.9598  143.4878  156.3513 H   0  0  0  0  0  0  0  0  0  0  0  0
  149.4420  140.8358  157.0491 H   0  0  0  0  0  0  0  0  0  0  0  0
  148.4719  141.8620  155.0057 H   0  0  0  0  0  0  0  0  0  0  0  0
  150.0629  141.9985  154.2902 H   0  0  0  0  0  0  0  0  0  0  0  0
  148.6186  139.4081  155.0157 H   0  0  0  0  0  0  0  0  0  0  0  0
  148.9589  139.9888  153.4004 H   0  0  0  0  0  0  0  0  0  0  0  0
  150.6040  138.2315  154.1390 H   0  0  0  0  0  0  0  0  0  0  0  0
  151.4143  139.7473  153.7935 H   0  0  0  0  0  0  0  0  0  0  0  0
  152.1631  141.1094  155.6764 H   0  0  0  0  0  0  0  0  0  0  0  0
  151.8691  140.5104  157.2976 H   0  0  0  0  0  0  0  0  0  0  0  0
  153.6893  141.7292  161.3588 H   0  0  0  0  0  0  0  0  0  0  0  0
  154.0211  141.1998  159.7137 H   0  0  0  0  0  0  0  0  0  0  0  0
  152.6943  140.4737  160.6241 H   0  0  0  0  0  0  0  0  0  0  0  0
  1  2  1  0  0  0  0
  1 16  1  0  0  0  0
  1 17  1  0  0  0  0
  1 18  1  0  0  0  0
  2 14  1  0  0  0  0
  2  3  2  0  0  0  0
  3  4  1  0  0  0  0
  3 19  1  0  0  0  0
  4  5  2  0  0  0  0
  5  6  1  0  0  0  0
  5 13  1  0  0  0  0
  6  7  1  0  0  0  0
  6 20  1  0  0  0  0
  7 12  1  0  0  0  0
  7  8  1  0  0  0  0
  7 21  1  0  0  0  0
  8  9  1  0  0  0  0
  8 22  1  0  0  0  0
  8 23  1  0  0  0  0
  9 10  1  0  0  0  0
  9 24  1  0  0  0  0
  9 25  1  0  0  0  0
 10 11  1  0  0  0  0
 10 26  1  0  0  0  0
 10 27  1  0  0  0  0
 11 12  1  0  0  0  0
 12 28  1  0  0  0  0
 12 29  1  0  0  0  0
 13 14  2  0  0  0  0
 14 15  1  0  0  0  0
 15 30  1  0  0  0  0
 15 31  1  0  0  0  0
 15 32  1  0  0  0  0
M  END
> <s_m_source_file>
AV-unprocessed.smi

> <i_m_source_file_index>
2536

> <i_lp_mmshare_version>
43012

> <i_f3d_flags>
0

> <s_epik_input>
W0NIM11jMVtjSF1uYyhuYzFbQ0gzXSlbTkhdW0NAQEhdMltDSDJdW0NIMl1bQ0gyXU9bQ0gyXTI=

> <s_epik_cmdline>
J2VwaWtfcHl0aG9uJywgJy1waCcsICc3LjAnLCAnLXRuJywgJzgnLCAnLW1hJywgJzIwMCcsICctbWV0YWxfYmluZGluZycsICctaW1hZScsICc8aW5maWxlLm1hZT4nLCAnLW9tYWUnLCAnPG91dGZpbGUubWFlPic=

> <r_lp_tautomer_probability>
1

> <r_epik_Ionization_Penalty>
0.00982357

> <r_epik_Ionization_Penalty_Charging>
0

> <r_epik_Ionization_Penalty_Neutral>
0.00982357

> <r_epik_State_Penalty>
0.0064698

> <r_epik_Charging_Adjusted_Penalty>
0.0064698

> <i_epik_Tot_Q>
0

> <i_epik_Tot_abs_Q>
0

> <r_epik_Metal_State_Penalty>
-0

> <b_epik_Metal_Only>
0

> <s_lp_Force_Field>
OPLS_2005

> <r_lp_Energy>
1.83983

> <b_lp_Chiralities_Consistent>
1

> <s_lp_Variant>
AV-unprocessed.smi:2536-2

> <Gold.Version>
5.8.1

> <Gold.Id.Protein>
6NUR|6NUR_protein|mol2

> <Gold.PLP.Fitness>
37.5263

> <Gold.PLP.PLP>
-34.8373

> <Gold.PLP.part.hbond>
-1.0000

> <Gold.PLP.part.metal>
0.0000

> <Gold.PLP.part.buried>
-3.8802

> <Gold.PLP.part.nonpolar>
-29.4365

> <Gold.PLP.part.repulsive>
0.2012

> <Gold.PLP.ligand.clash>
0.0000

> <Gold.PLP.ligand.torsion>
0.1569

> <Gold.PLP.Chemscore.Hbond>
1.0000

> <Gold.PLP.Chemscore.CHOScore>
0.0000

> <Gold.PLP.Chemscore.Metal>
0.0000

> <Gold.Chemscore.Hbonds>
donor molecule, donor type, donor heavy atom, donor atom, acceptor molecule, acceptor atom, score
      L1  H     6    20       P1  8028  1.00

> <Gold.PLP.Chemscore.Internal.Correction>
0.0029

> <Gold.Rescore>
     Score         DG    S(hbond)    S(metal)    S(lipo)     H(rot)  DE(clash)    DE(int)     intcor
     15.13     -16.80       1.00        0.00      90.09       1.00       0.24       1.43       ----

> <Gold.Chemscore.Fitness>
15.1294

> <Gold.Chemscore.DG>
-16.7988

> <Gold.Chemscore.ZeroCoef>
-5.4800

> <Gold.Chemscore.Hbond>
0.9994

> <Gold.Chemscore.Metal>
0.0000

> <Gold.Chemscore.Lipo>
90.0909

> <Gold.Chemscore.Internal_Hbond>
0.0000

> <Gold.Chemscore.DEClash>
0.2405

> <Gold.Chemscore.DEInternal>
1.4290

> <Gold.Chemscore.Rot>
1.0000

> <Gold.Chemscore.Internal.Correction>
   9.000000E+99

> <Gold.Chemscore.Hbonds>
donor molecule, donor type, donor heavy atom, donor atom, acceptor molecule, acceptor atom, score
      L1  H     6    20       P1  8028  1.00

> <Gold.Chemscore.Hbond.Weighted>
-3.3381

> <Gold.Chemscore.Metal.Weighted>
-0.0000

> <Gold.Chemscore.Lipo.Weighted>
-10.5406

> <Gold.Chemscore.Internal_Hbond.Weighted>
0.0000

> <Gold.Chemscore.DEClash.Weighted>
0.2405

> <Gold.Chemscore.DEInternal.Weighted>
1.4290

> <Gold.Chemscore.Rot.Weighted>
2.5600

> <Gold.Chemscore.Internal.Correction.Weighted>
   9.000000E+99

> <Gold.Protein.RotatedTorsions>
[ 6907 6896 6895 6894 ] final -100.06 input  -60.11 | X-H torsion
[ 7974 7965 7964 7962 ] final  -13.31 input  175.53 | X-H torsion
[ 8008 7997 7996 7995 ] final  -63.95 input   59.86 | X-H torsion
[ 10167 10162 10161 10158 ] final   -3.58 input  -65.29 | X-H torsion
[ 10718 10713 10712 10709 ] final  -32.57 input   66.30 | X-H torsion
[ 10763 10752 10751 10750 ] final  117.76 input  -60.55 | X-H torsion
[ 11005 11000 10999 10996 ] final   41.52 input  -57.11 | X-H torsion

> <Gold.Protein.ActiveResidues>
 VAL166  LYS551  ARG553  GLY616  TRP617  ASP618  TYR619  PRO620  LYS621  CYS622 
 ASP623  PHE694  ASN695  SER759  ASP760  ASP761  ALA762  ILE779  LEU786  VAL792 
 PHE793  MET794  SER795  GLU796  ALA797  LYS798  CYS799  TRP800  GLU811  SER814 

> <Gold.Protein.RotatedAtoms>
  150.7102  134.0945  159.3943 H   0  0  0  0  0  0  0  0  0  0  0  0  # atno 6907 bound_to 6896
  151.8931  135.0406  160.0509 H   0  0  0  0  0  0  0  0  0  0  0  0  # atno 6908 bound_to 6896
  152.2475  133.5152  159.5343 H   0  0  0  0  0  0  0  0  0  0  0  0  # atno 6909 bound_to 6896
  146.2119  140.3184  142.8388 H   0  0  0  0  0  0  0  0  0  0  0  0  # atno 7974 bound_to 7965
  154.4584  140.0964  156.6822 H   0  0  0  0  0  0  0  0  0  0  0  0  # atno 8008 bound_to 7997
  155.5069  140.3475  155.4363 H   0  0  0  0  0  0  0  0  0  0  0  0  # atno 8009 bound_to 7997
  156.0822  140.1376  156.9687 H   0  0  0  0  0  0  0  0  0  0  0  0  # atno 8010 bound_to 7997
  140.6896  143.6523  150.8339 H   0  0  0  0  0  0  0  0  0  0  0  0  # atno 10167 bound_to 10162
  156.3733  130.4343  149.7528 H   0  0  0  0  0  0  0  0  0  0  0  0  # atno 10718 bound_to 10713
  153.5573  135.3527  155.2785 H   0  0  0  0  0  0  0  0  0  0  0  0  # atno 10763 bound_to 10752
  154.8699  135.4128  154.2870 H   0  0  0  0  0  0  0  0  0  0  0  0  # atno 10764 bound_to 10752
  153.3608  135.7060  153.6783 H   0  0  0  0  0  0  0  0  0  0  0  0  # atno 10765 bound_to 10752
  140.1827  134.4084  155.8191 H   0  0  0  0  0  0  0  0  0  0  0  0  # atno 11005 bound_to 11000
  144.8938  140.7557  143.5910 LP  0  0  0  0  0  0  0  0  0  0  0  0  # atno 17320 bound_to 7965
  145.3107  139.1819  143.4640 LP  0  0  0  0  0  0  0  0  0  0  0  0  # atno 17321 bound_to 7965
  140.0234  143.5519  152.2791 LP  0  0  0  0  0  0  0  0  0  0  0  0  # atno 17342 bound_to 10162
  139.6285  144.7641  151.2587 LP  0  0  0  0  0  0  0  0  0  0  0  0  # atno 17343 bound_to 10162
  156.4647  130.7968  151.2988 LP  0  0  0  0  0  0  0  0  0  0  0  0  # atno 17370 bound_to 10713
  157.7486  131.0055  150.3115 LP  0  0  0  0  0  0  0  0  0  0  0  0  # atno 17371 bound_to 10713
  141.2223  133.7008  156.7958 LP  0  0  0  0  0  0  0  0  0  0  0  0  # atno 17394 bound_to 11000
  140.2249  134.8729  157.3416 LP  0  0  0  0  0  0  0  0  0  0  0  0  # atno 17395 bound_to 11000

$$$$
