AV-unprocessed.smi:244|AV-procd|sdf|1864|dock4
  -GOLD-   2262020503D 1   1.00000     0.00000
 Structure written by MMmdl.
 57 61  0  0  0  0  0  0  0  0  2 V2000
  150.0725  144.4314  159.3020 C   0  0  0  0  0  0  0  0  0  0  0  0
  150.1812  143.6191  158.0711 N   0  3  1  0  0  0  0  0  0  0  0  0
  151.5752  143.1847  157.8042 C   0  0  0  0  0  0  0  0  0  0  0  0
  151.6733  142.4374  156.4647 C   0  0  0  0  0  0  0  0  0  0  0  0
  150.7098  141.2449  156.4449 C   0  0  2  0  0  0  0  0  0  0  0  0
  150.7755  140.5984  155.1787 O   0  0  0  0  0  0  0  0  0  0  0  0
  149.9459  139.4421  155.1343 C   0  0  0  0  0  0  0  0  0  0  0  0
  148.4843  139.8541  155.3714 C   0  0  0  0  0  0  0  0  0  0  0  0
  148.3576  140.5830  156.6320 N   0  0  0  0  0  0  0  0  0  0  0  0
  147.0745  140.8464  156.9716 C   0  0  0  0  0  0  0  0  0  0  0  0
  146.4895  140.1850  158.0050 N   0  0  0  0  0  0  0  0  0  0  0  0
  145.2154  140.4378  158.3221 C   0  0  0  0  0  0  0  0  0  0  0  0
  144.3633  141.2864  157.7423 N   0  0  0  0  0  0  0  0  0  0  0  0
  144.9482  141.9452  156.7011 C   0  0  0  0  0  0  0  0  0  0  0  0
  146.2878  141.7834  156.2516 C   0  0  0  0  0  0  0  0  0  0  0  0
  146.5298  142.6047  155.1583 N   0  0  0  0  0  0  0  0  0  0  0  0
  145.3949  143.2223  154.9727 C   0  0  0  0  0  0  0  0  0  0  0  0
  144.3935  142.8938  155.8597 N   0  0  0  0  0  0  0  0  0  0  0  0
  143.0409  143.4299  155.8840 C   0  0  0  0  0  0  0  0  0  0  0  0
  142.9743  144.9646  156.0856 C   0  0  0  0  0  0  0  0  0  0  0  0
  141.8569  145.2443  156.9109 O   0  0  0  0  0  0  0  0  0  0  0  0
  144.2381  145.5319  156.7687 C   0  0  0  0  0  0  0  0  0  0  0  0
  144.2580  147.0708  156.7686 C   0  0  0  0  0  0  0  0  0  0  0  0
  144.1118  147.5644  155.4427 O   0  0  0  0  0  0  0  0  0  0  0  0
  142.8670  147.2042  154.8569 C   0  0  0  0  0  0  0  0  0  0  0  0
  142.7688  145.6737  154.7321 C   0  0  0  0  0  0  0  0  0  0  0  0
  149.2673  141.7299  156.7069 C   0  0  1  0  0  0  0  0  0  0  0  0
  149.2228  142.4847  158.0585 C   0  0  0  0  0  0  0  0  0  0  0  0
  150.3357  143.8442  160.1829 H   0  0  0  0  0  0  0  0  0  0  0  0
  149.0555  144.8033  159.4299 H   0  0  0  0  0  0  0  0  0  0  0  0
  150.7374  145.2943  159.2546 H   0  0  0  0  0  0  0  0  0  0  0  0
  152.2320  144.0553  157.7844 H   0  0  0  0  0  0  0  0  0  0  0  0
  151.9205  142.5445  158.6176 H   0  0  0  0  0  0  0  0  0  0  0  0
  151.4389  143.1174  155.6444 H   0  0  0  0  0  0  0  0  0  0  0  0
  152.6961  142.0953  156.3032 H   0  0  0  0  0  0  0  0  0  0  0  0
  151.0122  140.5378  157.2203 H   0  0  0  0  0  0  0  0  0  0  0  0
  150.0495  138.9670  154.1588 H   0  0  0  0  0  0  0  0  0  0  0  0
  150.2715  138.7148  155.8797 H   0  0  0  0  0  0  0  0  0  0  0  0
  148.1468  140.4792  154.5433 H   0  0  0  0  0  0  0  0  0  0  0  0
  147.8470  138.9687  155.3882 H   0  0  0  0  0  0  0  0  0  0  0  0
  144.8223  139.8802  159.1595 H   0  0  0  0  0  0  0  0  0  0  0  0
  145.2571  143.9461  154.1825 H   0  0  0  0  0  0  0  0  0  0  0  0
  142.5572  143.1564  154.9455 H   0  0  0  0  0  0  0  0  0  0  0  0
  142.4828  142.9193  156.6703 H   0  0  0  0  0  0  0  0  0  0  0  0
  141.6836  144.4874  157.4497 H   0  0  0  0  0  0  0  0  0  0  0  0
  144.3237  145.1685  157.7932 H   0  0  0  0  0  0  0  0  0  0  0  0
  145.1226  145.1736  156.2407 H   0  0  0  0  0  0  0  0  0  0  0  0
  143.4713  147.4741  157.4078 H   0  0  0  0  0  0  0  0  0  0  0  0
  145.2049  147.4295  157.1725 H   0  0  0  0  0  0  0  0  0  0  0  0
  142.0428  147.6063  155.4479 H   0  0  0  0  0  0  0  0  0  0  0  0
  142.7991  147.6626  153.8703 H   0  0  0  0  0  0  0  0  0  0  0  0
  143.5323  145.3374  154.0292 H   0  0  0  0  0  0  0  0  0  0  0  0
  141.8093  145.3945  154.2950 H   0  0  0  0  0  0  0  0  0  0  0  0
  148.9850  142.4266  155.9154 H   0  0  0  0  0  0  0  0  0  0  0  0
  149.4481  141.8054  158.8823 H   0  0  0  0  0  0  0  0  0  0  0  0
  148.2243  142.8852  158.2376 H   0  0  0  0  0  0  0  0  0  0  0  0
  149.9184  144.2240  157.3059 H   0  0  0  0  0  0  0  0  0  0  0  0
  1  2  1  0  0  0  0
  1 29  1  0  0  0  0
  1 30  1  0  0  0  0
  1 31  1  0  0  0  0
  2 28  1  0  0  0  0
  2  3  1  0  0  0  0
  2 57  1  0  0  0  0
  3  4  1  0  0  0  0
  3 32  1  0  0  0  0
  3 33  1  0  0  0  0
  4  5  1  0  0  0  0
  4 34  1  0  0  0  0
  4 35  1  0  0  0  0
  5 27  1  0  0  0  0
  5  6  1  0  0  0  0
  5 36  1  0  0  0  0
  6  7  1  0  0  0  0
  7  8  1  0  0  0  0
  7 37  1  0  0  0  0
  7 38  1  0  0  0  0
  8  9  1  0  0  0  0
  8 39  1  0  0  0  0
  8 40  1  0  0  0  0
  9 10  1  0  0  0  0
  9 27  1  0  0  0  0
 10 15  1  0  0  0  0
 10 11  2  0  0  0  0
 11 12  1  0  0  0  0
 12 13  2  0  0  0  0
 12 41  1  0  0  0  0
 13 14  1  0  0  0  0
 14 18  1  0  0  0  0
 14 15  2  0  0  0  0
 15 16  1  0  0  0  0
 16 17  2  0  0  0  0
 17 18  1  0  0  0  0
 17 42  1  0  0  0  0
 18 19  1  0  0  0  0
 19 20  1  0  0  0  0
 19 43  1  0  0  0  0
 19 44  1  0  0  0  0
 20 26  1  0  0  0  0
 20 21  1  0  0  0  0
 20 22  1  0  0  0  0
 21 45  1  0  0  0  0
 22 23  1  0  0  0  0
 22 46  1  0  0  0  0
 22 47  1  0  0  0  0
 23 24  1  0  0  0  0
 23 48  1  0  0  0  0
 23 49  1  0  0  0  0
 24 25  1  0  0  0  0
 25 26  1  0  0  0  0
 25 50  1  0  0  0  0
 25 51  1  0  0  0  0
 26 52  1  0  0  0  0
 26 53  1  0  0  0  0
 27 28  1  0  0  0  0
 27 54  1  0  0  0  0
 28 55  1  0  0  0  0
 28 56  1  0  0  0  0
M  CHG  1   2   1
M  END
> <s_m_source_file>
AV-unprocessed.smi

> <i_m_source_file_index>
244

> <i_lp_mmshare_version>
43012

> <i_f3d_flags>
0

> <s_epik_input>
W0NIMl0xW0NIMl1OKFtDSDNdKVtDSDJdW0NAQEhdKFtDQEhdMTIpTihbQ0gyXVtDSDJdTzIpYyhuW2NIXW4zKWMoYzM0KW5bY0hdbjRbQ0gyXUM1KFtPSF0pW0NIMl1bQ0gyXU9bQ0gyXVtDSDJdNQ==

> <s_epik_cmdline>
J2VwaWtfcHl0aG9uJywgJy1waCcsICc3LjAnLCAnLXRuJywgJzgnLCAnLW1hJywgJzIwMCcsICctbWV0YWxfYmluZGluZycsICctaW1hZScsICc8aW5maWxlLm1hZT4nLCAnLW9tYWUnLCAnPG91dGZpbGUubWFlPic=

> <r_lp_tautomer_probability>
1

> <r_epik_Ionization_Penalty>
0.0136215

> <r_epik_Ionization_Penalty_Charging>
0.0131385

> <r_epik_Ionization_Penalty_Neutral>
0.000483022

> <r_epik_State_Penalty>
0.0104001

> <r_epik_Charging_Adjusted_Penalty>
0.0235387

> <i_epik_Tot_Q>
1

> <i_epik_Tot_abs_Q>
1

> <r_epik_Metal_State_Penalty>
0.0104469

> <b_epik_Metal_Only>
0

> <s_lp_Force_Field>
OPLS_2005

> <r_lp_Energy>
41.0301

> <b_lp_Chiralities_Consistent>
1

> <s_lp_Variant>
AV-unprocessed.smi:244-1

> <Gold.Version>
5.8.1

> <Gold.Id.Protein>
6NUR|6NUR_protein|mol2

> <Gold.PLP.Fitness>
38.3656

> <Gold.PLP.PLP>
-31.1831

> <Gold.PLP.part.hbond>
-3.4907

> <Gold.PLP.part.metal>
0.0000

> <Gold.PLP.part.buried>
-6.7061

> <Gold.PLP.part.nonpolar>
-21.4869

> <Gold.PLP.part.repulsive>
0.3566

> <Gold.PLP.ligand.clash>
0.0000

> <Gold.PLP.ligand.torsion>
0.8912

> <Gold.PLP.Chemscore.Hbond>
2.9440

> <Gold.PLP.Chemscore.CHOScore>
0.0000

> <Gold.PLP.Chemscore.Metal>
0.0000

> <Gold.Chemscore.Hbonds>
donor molecule, donor type, donor heavy atom, donor atom, acceptor molecule, acceptor atom, score
      L1  H     2    57       P1  8028  2.00
      P1  H  7989  7998       L1     6  0.94

> <Gold.PLP.Chemscore.Internal.Correction>
0.1329

> <Gold.Rescore>
     Score         DG    S(hbond)    S(metal)    S(lipo)     H(rot)  DE(clash)    DE(int)     intcor
     12.74     -15.36       1.75        0.00      80.23       2.09       1.64       0.97       ----

> <Gold.Chemscore.Fitness>
12.7424

> <Gold.Chemscore.DG>
-15.3577

> <Gold.Chemscore.ZeroCoef>
-5.4800

> <Gold.Chemscore.Hbond>
1.7497

> <Gold.Chemscore.Metal>
0.0000

> <Gold.Chemscore.Lipo>
80.2294

> <Gold.Chemscore.Internal_Hbond>
0.0000

> <Gold.Chemscore.DEClash>
1.6442

> <Gold.Chemscore.DEInternal>
0.9711

> <Gold.Chemscore.Rot>
2.0911

> <Gold.Chemscore.Internal.Correction>
   9.000000E+99

> <Gold.Chemscore.Hbonds>
donor molecule, donor type, donor heavy atom, donor atom, acceptor molecule, acceptor atom, score
      L1  H     2    57       P1  8028  0.53
      P1  H  7989  7998       L1     6  0.71

> <Gold.Chemscore.Hbond.Weighted>
-5.8440

> <Gold.Chemscore.Metal.Weighted>
-0.0000

> <Gold.Chemscore.Lipo.Weighted>
-9.3868

> <Gold.Chemscore.Internal_Hbond.Weighted>
0.0000

> <Gold.Chemscore.DEClash.Weighted>
1.6442

> <Gold.Chemscore.DEInternal.Weighted>
0.9711

> <Gold.Chemscore.Rot.Weighted>
5.3531

> <Gold.Chemscore.Internal.Correction.Weighted>
   9.000000E+99

> <Gold.Protein.RotatedTorsions>
[ 6907 6896 6895 6894 ] final   92.86 input  -60.11 | X-H torsion
[ 7974 7965 7964 7962 ] final  -53.85 input  175.53 | X-H torsion
[ 8008 7997 7996 7995 ] final -140.35 input   59.86 | X-H torsion
[ 10167 10162 10161 10158 ] final   94.03 input  -65.29 | X-H torsion
[ 10718 10713 10712 10709 ] final   96.89 input   66.30 | X-H torsion
[ 10763 10752 10751 10750 ] final  -65.26 input  -60.55 | X-H torsion
[ 11005 11000 10999 10996 ] final -120.99 input  -57.11 | X-H torsion

> <Gold.Protein.ActiveResidues>
 VAL166  LYS551  ARG553  GLY616  TRP617  ASP618  TYR619  PRO620  LYS621  CYS622 
 ASP623  PHE694  ASN695  SER759  ASP760  ASP761  ALA762  ILE779  LEU786  VAL792 
 PHE793  MET794  SER795  GLU796  ALA797  LYS798  CYS799  TRP800  GLU811  SER814 

> <Gold.Protein.RotatedAtoms>
  152.5453  134.1437  159.8489 H   0  0  0  0  0  0  0  0  0  0  0  0  # atno 6907 bound_to 6896
  151.1470  133.4925  159.2603 H   0  0  0  0  0  0  0  0  0  0  0  0  # atno 6908 bound_to 6896
  151.1512  135.0238  159.8724 H   0  0  0  0  0  0  0  0  0  0  0  0  # atno 6909 bound_to 6896
  145.8922  140.8061  142.9785 H   0  0  0  0  0  0  0  0  0  0  0  0  # atno 7974 bound_to 7965
  155.4599  140.0545  157.2992 H   0  0  0  0  0  0  0  0  0  0  0  0  # atno 8008 bound_to 7997
  154.4741  140.2053  155.9875 H   0  0  0  0  0  0  0  0  0  0  0  0  # atno 8009 bound_to 7997
  156.1104  140.3205  155.8069 H   0  0  0  0  0  0  0  0  0  0  0  0  # atno 8010 bound_to 7997
  139.8122  144.6768  150.9625 H   0  0  0  0  0  0  0  0  0  0  0  0  # atno 10167 bound_to 10162
  157.6920  131.0592  150.4561 H   0  0  0  0  0  0  0  0  0  0  0  0  # atno 10718 bound_to 10713
  154.3423  135.6154  153.5602 H   0  0  0  0  0  0  0  0  0  0  0  0  # atno 10763 bound_to 10752
  152.9803  135.5772  154.4838 H   0  0  0  0  0  0  0  0  0  0  0  0  # atno 10764 bound_to 10752
  154.4545  135.2854  155.1735 H   0  0  0  0  0  0  0  0  0  0  0  0  # atno 10765 bound_to 10752
  141.0103  134.0274  157.3422 H   0  0  0  0  0  0  0  0  0  0  0  0  # atno 11005 bound_to 11000
  144.6731  140.1548  143.7427 LP  0  0  0  0  0  0  0  0  0  0  0  0  # atno 17320 bound_to 7965
  145.8894  139.2367  143.1558 LP  0  0  0  0  0  0  0  0  0  0  0  0  # atno 17321 bound_to 7965
  140.7817  143.4173  151.0896 LP  0  0  0  0  0  0  0  0  0  0  0  0  # atno 17342 bound_to 10162
  139.7839  143.8315  152.3142 LP  0  0  0  0  0  0  0  0  0  0  0  0  # atno 17343 bound_to 10162
  156.4909  130.4095  149.6407 LP  0  0  0  0  0  0  0  0  0  0  0  0  # atno 17370 bound_to 10713
  156.3418  130.7386  151.2332 LP  0  0  0  0  0  0  0  0  0  0  0  0  # atno 17371 bound_to 10713
  139.9086  135.0185  156.7595 LP  0  0  0  0  0  0  0  0  0  0  0  0  # atno 17394 bound_to 11000
  140.6744  133.9530  155.7875 LP  0  0  0  0  0  0  0  0  0  0  0  0  # atno 17395 bound_to 11000

$$$$
