AV-unprocessed.smi:2377|AV-procd|sdf|9445|dock6
  -GOLD-   2272013 73D 1   1.00000     0.00000
 Structure written by MMmdl.
 24 24  0  0  0  0  0  0  0  0  2 V2000
  146.7717  138.9906  152.6674 C   0  0  0  0  0  0  0  0  0  0  0  0
  148.2173  138.8718  152.9328 N   0  3  0  0  0  0  0  0  0  0  0  0
  148.5902  139.1166  154.3406 C   0  0  0  0  0  0  0  0  0  0  0  0
  149.0088  140.5799  154.5685 C   0  0  2  0  0  0  0  0  0  0  0  0
  149.4529  141.1235  153.3401 O   0  0  0  0  0  0  0  0  0  0  0  0
  150.0724  140.6837  155.6496 C   0  0  0  0  0  0  0  0  0  0  0  0
  149.8573  141.4347  156.8262 C   0  0  0  0  0  0  0  0  0  0  0  0
  150.8830  141.5016  157.7885 C   0  0  0  0  0  0  0  0  0  0  0  0
  152.0872  140.8158  157.5342 C   0  0  0  0  0  0  0  0  0  0  0  0
  152.3076  140.0982  156.4119 N   0  0  0  0  0  0  0  0  0  0  0  0
  151.3187  140.0379  155.4950 C   0  0  0  0  0  0  0  0  0  0  0  0
  146.5689  138.7960  151.6143 H   0  0  0  0  0  0  0  0  0  0  0  0
  146.4152  139.9936  152.9046 H   0  0  0  0  0  0  0  0  0  0  0  0
  146.2084  138.2709  153.2623 H   0  0  0  0  0  0  0  0  0  0  0  0
  148.5160  137.9388  152.6855 H   0  0  0  0  0  0  0  0  0  0  0  0
  147.7322  138.8771  154.9707 H   0  0  0  0  0  0  0  0  0  0  0  0
  149.3966  138.4402  154.6286 H   0  0  0  0  0  0  0  0  0  0  0  0
  148.1391  141.1580  154.8844 H   0  0  0  0  0  0  0  0  0  0  0  0
  149.4198  140.4460  152.6812 H   0  0  0  0  0  0  0  0  0  0  0  0
  148.9241  141.9533  156.9907 H   0  0  0  0  0  0  0  0  0  0  0  0
  150.7504  142.0653  158.7003 H   0  0  0  0  0  0  0  0  0  0  0  0
  152.8953  140.8460  158.2502 H   0  0  0  0  0  0  0  0  0  0  0  0
  151.5316  139.4574  154.6093 H   0  0  0  0  0  0  0  0  0  0  0  0
  148.7095  139.5332  152.3493 H   0  0  0  0  0  0  0  0  0  0  0  0
  1  2  1  0  0  0  0
  1 12  1  0  0  0  0
  1 13  1  0  0  0  0
  1 14  1  0  0  0  0
  2  3  1  0  0  0  0
  2 15  1  0  0  0  0
  2 24  1  0  0  0  0
  3  4  1  0  0  0  0
  3 16  1  0  0  0  0
  3 17  1  0  0  0  0
  4  5  1  0  0  0  0
  4  6  1  0  0  0  0
  4 18  1  0  0  0  0
  5 19  1  0  0  0  0
  6 11  1  0  0  0  0
  6  7  2  0  0  0  0
  7  8  1  0  0  0  0
  7 20  1  0  0  0  0
  8  9  2  0  0  0  0
  8 21  1  0  0  0  0
  9 10  1  0  0  0  0
  9 22  1  0  0  0  0
 10 11  2  0  0  0  0
 11 23  1  0  0  0  0
M  CHG  1   2   1
M  END
> <s_m_source_file>
AV-unprocessed.smi

> <i_m_source_file_index>
2377

> <i_lp_mmshare_version>
43012

> <i_f3d_flags>
0

> <s_epik_input>
W0NIM11bTkhdW0NIMl1bQ0BIXShbT0hdKWMxW2NIXVtjSF1bY0hdbltjSF0x

> <s_epik_cmdline>
J2VwaWtfcHl0aG9uJywgJy1waCcsICc3LjAnLCAnLXRuJywgJzgnLCAnLW1hJywgJzIwMCcsICctbWV0YWxfYmluZGluZycsICctaW1hZScsICc8aW5maWxlLm1hZT4nLCAnLW9tYWUnLCAnPG91dGZpbGUubWFlPic=

> <r_epik_Ionization_Penalty>
0.00990913

> <r_epik_Ionization_Penalty_Charging>
0.00939893

> <r_epik_Ionization_Penalty_Neutral>
0.000510194

> <r_epik_State_Penalty>
0.00713549

> <r_epik_Charging_Adjusted_Penalty>
0.0165344

> <i_epik_Tot_Q>
1

> <i_epik_Tot_abs_Q>
1

> <r_epik_Metal_State_Penalty>
0.00716299

> <b_epik_Metal_Only>
0

> <s_lp_Force_Field>
OPLS_2005

> <r_lp_Energy>
6.48909

> <b_lp_Chiralities_Consistent>
1

> <s_lp_Variant>
AV-unprocessed.smi:2377-1

> <Gold.Version>
5.8.1

> <Gold.Id.Protein>
6NUR|6NUR_protein|mol2

> <Gold.PLP.Fitness>
40.2473

> <Gold.PLP.PLP>
-23.6858

> <Gold.PLP.part.hbond>
-5.5553

> <Gold.PLP.part.metal>
0.0000

> <Gold.PLP.part.buried>
-1.7510

> <Gold.PLP.part.nonpolar>
-15.9099

> <Gold.PLP.part.repulsive>
0.0707

> <Gold.PLP.ligand.clash>
0.0000

> <Gold.PLP.ligand.torsion>
0.6887

> <Gold.PLP.Chemscore.Hbond>
5.9762

> <Gold.PLP.Chemscore.CHOScore>
0.0000

> <Gold.PLP.Chemscore.Metal>
0.0000

> <Gold.Chemscore.Hbonds>
donor molecule, donor type, donor heavy atom, donor atom, acceptor molecule, acceptor atom, score
      L1  H     2    15       P1  7948  2.00
      L1  H     2    24       P1  7957  1.00
      L1  H     5    19       P1  7957  0.94
      P1  H  7989  7998       L1     5  0.05
      P1  H  7997  8008       L1    10  0.95
      P1  H  8011  8017       L1     5  0.90

> <Gold.PLP.Chemscore.Internal.Correction>
0.0105

> <Gold.Rescore>
     Score         DG    S(hbond)    S(metal)    S(lipo)     H(rot)  DE(clash)    DE(int)     intcor
     18.94     -19.46       4.00        0.00      49.81       2.03       0.01       0.51       ----

> <Gold.Chemscore.Fitness>
18.9383

> <Gold.Chemscore.DG>
-19.4637

> <Gold.Chemscore.ZeroCoef>
-5.4800

> <Gold.Chemscore.Hbond>
4.0010

> <Gold.Chemscore.Metal>
0.0000

> <Gold.Chemscore.Lipo>
49.8139

> <Gold.Chemscore.Internal_Hbond>
0.0000

> <Gold.Chemscore.DEClash>
0.0121

> <Gold.Chemscore.DEInternal>
0.5133

> <Gold.Chemscore.Rot>
2.0344

> <Gold.Chemscore.Internal.Correction>
   9.000000E+99

> <Gold.Chemscore.Hbonds>
donor molecule, donor type, donor heavy atom, donor atom, acceptor molecule, acceptor atom, score
      L1  H     2    15       P1  7948  1.00
      L1  H     2    24       P1  7957  0.96
      L1  H     5    19       P1  7957  0.89
      P1  H  7997  8008       L1    10  0.20
      P1  H  8011  8017       L1     5  0.18

> <Gold.Chemscore.Hbond.Weighted>
-13.3634

> <Gold.Chemscore.Metal.Weighted>
-0.0000

> <Gold.Chemscore.Lipo.Weighted>
-5.8282

> <Gold.Chemscore.Internal_Hbond.Weighted>
0.0000

> <Gold.Chemscore.DEClash.Weighted>
0.0121

> <Gold.Chemscore.DEInternal.Weighted>
0.5133

> <Gold.Chemscore.Rot.Weighted>
5.2080

> <Gold.Chemscore.Internal.Correction.Weighted>
   9.000000E+99

> <Gold.Protein.RotatedTorsions>
[ 6907 6896 6895 6894 ] final   69.09 input  -60.11 | X-H torsion
[ 7974 7965 7964 7962 ] final -121.47 input  175.53 | X-H torsion
[ 8008 7997 7996 7995 ] final  -45.34 input   59.86 | X-H torsion
[ 10167 10162 10161 10158 ] final  -79.12 input  -65.29 | X-H torsion
[ 10718 10713 10712 10709 ] final  147.34 input   66.30 | X-H torsion
[ 10763 10752 10751 10750 ] final -133.43 input  -60.55 | X-H torsion
[ 11005 11000 10999 10996 ] final -167.75 input  -57.11 | X-H torsion

> <Gold.Protein.ActiveResidues>
 VAL166  LYS551  ARG553  GLY616  TRP617  ASP618  TYR619  PRO620  LYS621  CYS622 
 ASP623  PHE694  ASN695  SER759  ASP760  ASP761  ALA762  ILE779  LEU786  VAL792 
 PHE793  MET794  SER795  GLU796  ALA797  LYS798  CYS799  TRP800  GLU811  SER814 

> <Gold.Protein.RotatedAtoms>
  152.4663  134.5066  159.9740 H   0  0  0  0  0  0  0  0  0  0  0  0  # atno 6907 bound_to 6896
  151.5103  133.3480  159.2892 H   0  0  0  0  0  0  0  0  0  0  0  0  # atno 6908 bound_to 6896
  150.8650  134.8039  159.7173 H   0  0  0  0  0  0  0  0  0  0  0  0  # atno 6909 bound_to 6896
  145.0400  140.8137  143.4272 H   0  0  0  0  0  0  0  0  0  0  0  0  # atno 7974 bound_to 7965
  154.4000  140.1399  156.3832 H   0  0  0  0  0  0  0  0  0  0  0  0  # atno 8008 bound_to 7997
  155.7984  140.3476  155.5368 H   0  0  0  0  0  0  0  0  0  0  0  0  # atno 8009 bound_to 7997
  155.8508  140.0941  157.1666 H   0  0  0  0  0  0  0  0  0  0  0  0  # atno 8010 bound_to 7997
  140.4621  143.2450  151.8333 H   0  0  0  0  0  0  0  0  0  0  0  0  # atno 10167 bound_to 10162
  157.3221  131.0906  151.1231 H   0  0  0  0  0  0  0  0  0  0  0  0  # atno 10718 bound_to 10713
  154.8732  135.3766  154.4571 H   0  0  0  0  0  0  0  0  0  0  0  0  # atno 10763 bound_to 10752
  153.5242  135.7028  153.5721 H   0  0  0  0  0  0  0  0  0  0  0  0  # atno 10764 bound_to 10752
  153.3954  135.3962  155.1917 H   0  0  0  0  0  0  0  0  0  0  0  0  # atno 10765 bound_to 10752
  140.5497  134.5440  157.5119 H   0  0  0  0  0  0  0  0  0  0  0  0  # atno 11005 bound_to 11000
  145.1660  139.2431  143.5367 LP  0  0  0  0  0  0  0  0  0  0  0  0  # atno 17320 bound_to 7965
  146.3508  140.1399  142.8595 LP  0  0  0  0  0  0  0  0  0  0  0  0  # atno 17321 bound_to 7965
  139.4807  144.4995  151.9079 LP  0  0  0  0  0  0  0  0  0  0  0  0  # atno 17342 bound_to 10162
  140.4081  144.2406  150.5890 LP  0  0  0  0  0  0  0  0  0  0  0  0  # atno 17343 bound_to 10162
  157.2512  130.6615  149.5932 LP  0  0  0  0  0  0  0  0  0  0  0  0  # atno 17370 bound_to 10713
  155.9687  130.4538  150.5824 LP  0  0  0  0  0  0  0  0  0  0  0  0  # atno 17371 bound_to 10713
  139.9461  134.7699  156.0558 LP  0  0  0  0  0  0  0  0  0  0  0  0  # atno 17394 bound_to 11000
  141.1179  133.6622  156.3140 LP  0  0  0  0  0  0  0  0  0  0  0  0  # atno 17395 bound_to 11000

$$$$
