AV-unprocessed.smi:2124|AV-procd|sdf|8654|dock6
  -GOLD-   2272011403D 1   1.00000     0.00000
 Structure written by MMmdl.
 47 49  0  0  0  0  0  0  0  0  1 V2000
  145.3546  143.3878  154.2033 C   0  0  0  0  0  0  0  0  0  0  0  0
  146.2444  142.3582  154.8666 C   0  0  0  0  0  0  0  0  0  0  0  0
  145.9380  141.7366  155.9576 N   0  0  0  0  0  0  0  0  0  0  0  0
  146.8420  140.7988  156.4757 C   0  0  0  0  0  0  0  0  0  0  0  0
  146.4057  140.1057  157.7549 C   0  0  0  0  0  0  0  0  0  0  0  0
  148.0326  140.5375  155.8605 C   0  0  0  0  0  0  0  0  0  0  0  0
  149.0404  139.5181  156.3884 C   0  0  0  0  0  0  0  0  0  0  0  0
  150.4357  140.0605  156.7104 C   0  0  0  0  0  0  0  0  0  0  0  0
  151.3620  139.9208  155.9115 O   0  0  0  0  0  0  0  0  0  0  0  0
  150.5660  140.6856  157.8902 N   0  0  0  0  0  0  0  0  0  0  0  0
  151.7872  141.3128  158.3926 C   0  0  2  0  0  0  0  0  0  0  0  0
  152.5502  140.2937  159.2578 C   0  0  0  0  0  0  0  0  0  0  0  0
  151.4208  142.6056  159.1630 C   0  0  2  0  0  0  0  0  0  0  0  0
  150.5666  143.6005  158.3360 C   0  0  0  0  0  0  0  0  0  0  0  0
  151.3543  144.9178  158.4388 C   0  0  1  0  0  0  0  0  0  0  0  0
  151.2732  145.4578  159.8779 C   0  0  0  0  0  0  0  0  0  0  0  0
  152.1792  144.4844  160.6546 C   0  0  0  0  0  0  0  0  0  0  0  0
  152.6275  143.4919  159.5641 C   0  0  2  0  0  0  0  0  0  0  0  0
  152.7907  144.4188  158.3637 C   0  0  0  0  0  0  0  0  0  0  0  0
  148.3721  141.2526  154.6155 C   0  0  0  0  0  0  0  0  0  0  0  0
  149.4110  141.0862  153.9782 O   0  0  0  0  0  0  0  0  0  0  0  0
  147.4409  142.1341  154.1873 N   0  0  0  0  0  0  0  0  0  0  0  0
  147.6248  142.6466  153.3374 H   0  0  0  0  0  0  0  0  0  0  0  0
  144.3875  142.9465  153.9612 H   0  0  0  0  0  0  0  0  0  0  0  0
  145.7960  143.7686  153.2811 H   0  0  0  0  0  0  0  0  0  0  0  0
  145.1892  144.2297  154.8759 H   0  0  0  0  0  0  0  0  0  0  0  0
  147.0371  140.4143  158.5880 H   0  0  0  0  0  0  0  0  0  0  0  0
  146.4720  139.0226  157.6514 H   0  0  0  0  0  0  0  0  0  0  0  0
  145.3734  140.3521  158.0063 H   0  0  0  0  0  0  0  0  0  0  0  0
  148.6323  139.0261  157.2729 H   0  0  0  0  0  0  0  0  0  0  0  0
  149.1612  138.7182  155.6584 H   0  0  0  0  0  0  0  0  0  0  0  0
  149.7490  140.7515  158.4799 H   0  0  0  0  0  0  0  0  0  0  0  0
  152.4208  141.5857  157.5469 H   0  0  0  0  0  0  0  0  0  0  0  0
  153.5130  140.6813  159.5885 H   0  0  0  0  0  0  0  0  0  0  0  0
  152.7529  139.3793  158.6991 H   0  0  0  0  0  0  0  0  0  0  0  0
  151.9786  140.0190  160.1447 H   0  0  0  0  0  0  0  0  0  0  0  0
  150.8706  142.3153  160.0599 H   0  0  0  0  0  0  0  0  0  0  0  0
  150.4971  143.2972  157.2900 H   0  0  0  0  0  0  0  0  0  0  0  0
  149.5496  143.6923  158.7188 H   0  0  0  0  0  0  0  0  0  0  0  0
  151.0803  145.6508  157.6794 H   0  0  0  0  0  0  0  0  0  0  0  0
  151.6639  146.4744  159.9359 H   0  0  0  0  0  0  0  0  0  0  0  0
  150.2507  145.4687  160.2575 H   0  0  0  0  0  0  0  0  0  0  0  0
  153.0375  145.0127  161.0716 H   0  0  0  0  0  0  0  0  0  0  0  0
  151.6585  143.9951  161.4785 H   0  0  0  0  0  0  0  0  0  0  0  0
  153.5275  142.9439  159.8399 H   0  0  0  0  0  0  0  0  0  0  0  0
  153.0202  143.8953  157.4342 H   0  0  0  0  0  0  0  0  0  0  0  0
  153.5308  145.2054  158.5217 H   0  0  0  0  0  0  0  0  0  0  0  0
  1  2  1  0  0  0  0
  1 24  1  0  0  0  0
  1 25  1  0  0  0  0
  1 26  1  0  0  0  0
  2 22  1  0  0  0  0
  2  3  2  0  0  0  0
  3  4  1  0  0  0  0
  4  5  1  0  0  0  0
  4  6  2  0  0  0  0
  5 27  1  0  0  0  0
  5 28  1  0  0  0  0
  5 29  1  0  0  0  0
  6  7  1  0  0  0  0
  6 20  1  0  0  0  0
  7  8  1  0  0  0  0
  7 30  1  0  0  0  0
  7 31  1  0  0  0  0
  8  9  2  0  0  0  0
  8 10  1  0  0  0  0
 10 11  1  0  0  0  0
 10 32  1  0  0  0  0
 11 12  1  0  0  0  0
 11 13  1  0  0  0  0
 11 33  1  0  0  0  0
 12 34  1  0  0  0  0
 12 35  1  0  0  0  0
 12 36  1  0  0  0  0
 13 18  1  0  0  0  0
 13 14  1  0  0  0  0
 13 37  1  0  0  0  0
 14 15  1  0  0  0  0
 14 38  1  0  0  0  0
 14 39  1  0  0  0  0
 15 19  1  0  0  0  0
 15 16  1  0  0  0  0
 15 40  1  0  0  0  0
 16 17  1  0  0  0  0
 16 41  1  0  0  0  0
 16 42  1  0  0  0  0
 17 18  1  0  0  0  0
 17 43  1  0  0  0  0
 17 44  1  0  0  0  0
 18 19  1  0  0  0  0
 18 45  1  0  0  0  0
 19 46  1  0  0  0  0
 19 47  1  0  0  0  0
 20 21  2  0  0  0  0
 20 22  1  0  0  0  0
 22 23  1  0  0  0  0
M  END
> <s_m_source_file>
AV-unprocessed.smi

> <i_m_source_file_index>
2124

> <i_lp_mmshare_version>
43012

> <i_f3d_flags>
0

> <s_epik_input>
W0NIM11jMW5jKFtDSDNdKWMoYyg9TylbbkhdMSlbQ0gyXUMoPU8pW05IXVtDQEhdKFtDSDNdKVtDQEhdKFtDSDJdW0NASF0yMylbQ0BIXShbQ0gyXTMpW0NIMl1bQ0gyXTI=

> <s_epik_cmdline>
J2VwaWtfcHl0aG9uJywgJy1waCcsICc3LjAnLCAnLXRuJywgJzgnLCAnLW1hJywgJzIwMCcsICctbWV0YWxfYmluZGluZycsICctaW1hZScsICc8aW5maWxlLm1hZT4nLCAnLW9tYWUnLCAnPG91dGZpbGUubWFlPic=

> <r_lp_tautomer_probability>
0.839158

> <r_epik_Ionization_Penalty>
0.000383628

> <r_epik_Ionization_Penalty_Charging>
0.00035045

> <r_epik_Ionization_Penalty_Neutral>
3.31781e-05

> <r_epik_State_Penalty>
0.09125

> <r_epik_Charging_Adjusted_Penalty>
0.0916005

> <i_epik_Tot_Q>
0

> <i_epik_Tot_abs_Q>
0

> <r_epik_Metal_State_Penalty>
0.255229

> <b_epik_Metal_Only>
0

> <s_lp_Force_Field>
OPLS_2005

> <r_lp_Energy>
52.554

> <b_lp_Chiralities_Consistent>
1

> <s_lp_Variant>
AV-unprocessed.smi:2124-5

> <Gold.Version>
5.8.1

> <Gold.Id.Protein>
6NUR|6NUR_protein|mol2

> <Gold.PLP.Fitness>
45.4222

> <Gold.PLP.PLP>
-43.5792

> <Gold.PLP.part.hbond>
-2.6409

> <Gold.PLP.part.metal>
0.0000

> <Gold.PLP.part.buried>
-7.6364

> <Gold.PLP.part.nonpolar>
-35.1136

> <Gold.PLP.part.repulsive>
1.4045

> <Gold.PLP.ligand.clash>
0.0000

> <Gold.PLP.ligand.torsion>
0.6823

> <Gold.PLP.Chemscore.Hbond>
1.0608

> <Gold.PLP.Chemscore.CHOScore>
0.0000

> <Gold.PLP.Chemscore.Metal>
0.0000

> <Gold.Chemscore.Hbonds>
donor molecule, donor type, donor heavy atom, donor atom, acceptor molecule, acceptor atom, score
      P1  H  7989  7998       L1    21  0.17
      P1  H  8011  8017       L1    21  0.60

> <Gold.PLP.Chemscore.Internal.Correction>
0.0253

> <Gold.Rescore>
     Score         DG    S(hbond)    S(metal)    S(lipo)     H(rot)  DE(clash)    DE(int)     intcor
     18.42     -19.10       1.58        0.00     107.47       1.65       0.15       0.53       ----

> <Gold.Chemscore.Fitness>
18.4175

> <Gold.Chemscore.DG>
-19.1010

> <Gold.Chemscore.ZeroCoef>
-5.4800

> <Gold.Chemscore.Hbond>
1.5807

> <Gold.Chemscore.Metal>
0.0000

> <Gold.Chemscore.Lipo>
107.4705

> <Gold.Chemscore.Internal_Hbond>
0.0000

> <Gold.Chemscore.DEClash>
0.1518

> <Gold.Chemscore.DEInternal>
0.5317

> <Gold.Chemscore.Rot>
1.6534

> <Gold.Chemscore.Internal.Correction>
   9.000000E+99

> <Gold.Chemscore.Hbonds>
donor molecule, donor type, donor heavy atom, donor atom, acceptor molecule, acceptor atom, score
      P1  H  7989  7998       L1    21  0.17
      P1  H  8011  8017       L1    21  0.58

> <Gold.Chemscore.Hbond.Weighted>
-5.2796

> <Gold.Chemscore.Metal.Weighted>
-0.0000

> <Gold.Chemscore.Lipo.Weighted>
-12.5740

> <Gold.Chemscore.Internal_Hbond.Weighted>
0.0000

> <Gold.Chemscore.DEClash.Weighted>
0.1518

> <Gold.Chemscore.DEInternal.Weighted>
0.5317

> <Gold.Chemscore.Rot.Weighted>
4.2326

> <Gold.Chemscore.Internal.Correction.Weighted>
   9.000000E+99

> <Gold.Protein.RotatedTorsions>
[ 6907 6896 6895 6894 ] final   65.99 input  -60.11 | X-H torsion
[ 7974 7965 7964 7962 ] final  -37.25 input  175.53 | X-H torsion
[ 8008 7997 7996 7995 ] final  -15.75 input   59.86 | X-H torsion
[ 10167 10162 10161 10158 ] final   -2.69 input  -65.29 | X-H torsion
[ 10718 10713 10712 10709 ] final  -35.13 input   66.30 | X-H torsion
[ 10763 10752 10751 10750 ] final  -25.40 input  -60.55 | X-H torsion
[ 11005 11000 10999 10996 ] final  -91.15 input  -57.11 | X-H torsion

> <Gold.Protein.ActiveResidues>
 VAL166  LYS551  ARG553  GLY616  TRP617  ASP618  TYR619  PRO620  LYS621  CYS622 
 ASP623  PHE694  ASN695  SER759  ASP760  ASP761  ALA762  ILE779  LEU786  VAL792 
 PHE793  MET794  SER795  GLU796  ALA797  LYS798  CYS799  TRP800  GLU811  SER814 

> <Gold.Protein.RotatedAtoms>
  152.4449  134.5516  159.9868 H   0  0  0  0  0  0  0  0  0  0  0  0  # atno 6907 bound_to 6896
  151.5604  133.3398  159.2978 H   0  0  0  0  0  0  0  0  0  0  0  0  # atno 6908 bound_to 6896
  150.8362  134.7669  159.6959 H   0  0  0  0  0  0  0  0  0  0  0  0  # atno 6909 bound_to 6896
  146.0591  140.6374  142.9005 H   0  0  0  0  0  0  0  0  0  0  0  0  # atno 7974 bound_to 7965
  154.5106  140.2188  155.9163 H   0  0  0  0  0  0  0  0  0  0  0  0  # atno 8008 bound_to 7997
  156.1548  140.3154  155.8673 H   0  0  0  0  0  0  0  0  0  0  0  0  # atno 8009 bound_to 7997
  155.3869  140.0476  157.3032 H   0  0  0  0  0  0  0  0  0  0  0  0  # atno 8010 bound_to 7997
  140.6861  143.6628  150.8252 H   0  0  0  0  0  0  0  0  0  0  0  0  # atno 10167 bound_to 10162
  156.3423  130.4295  149.7776 H   0  0  0  0  0  0  0  0  0  0  0  0  # atno 10718 bound_to 10713
  153.6993  135.6957  153.5067 H   0  0  0  0  0  0  0  0  0  0  0  0  # atno 10763 bound_to 10752
  153.2354  135.4323  155.0640 H   0  0  0  0  0  0  0  0  0  0  0  0  # atno 10764 bound_to 10752
  154.8349  135.3494  154.6533 H   0  0  0  0  0  0  0  0  0  0  0  0  # atno 10765 bound_to 10752
  141.1551  133.7737  156.9839 H   0  0  0  0  0  0  0  0  0  0  0  0  # atno 11005 bound_to 11000
  144.7164  140.4226  143.7041 LP  0  0  0  0  0  0  0  0  0  0  0  0  # atno 17320 bound_to 7965
  145.6592  139.1578  143.2818 LP  0  0  0  0  0  0  0  0  0  0  0  0  # atno 17321 bound_to 7965
  140.0335  143.5419  152.2749 LP  0  0  0  0  0  0  0  0  0  0  0  0  # atno 17342 bound_to 10162
  139.6220  144.7631  151.2719 LP  0  0  0  0  0  0  0  0  0  0  0  0  # atno 17343 bound_to 10162
  156.5008  130.8128  151.3132 LP  0  0  0  0  0  0  0  0  0  0  0  0  # atno 17370 bound_to 10713
  157.7449  130.9945  150.2710 LP  0  0  0  0  0  0  0  0  0  0  0  0  # atno 17371 bound_to 10713
  140.1047  134.9513  157.1977 LP  0  0  0  0  0  0  0  0  0  0  0  0  # atno 17394 bound_to 11000
  140.3271  134.2851  155.7235 LP  0  0  0  0  0  0  0  0  0  0  0  0  # atno 17395 bound_to 11000

$$$$
