AV-unprocessed.smi:2492|AV-procd|sdf|9817|dock8
  -GOLD-   2272013443D 1   1.00000     0.00000
 Structure written by MMmdl.
 32 33  0  0  0  0  0  0  0  0  2 V2000
  153.6230  141.5214  161.5344 C   0  0  0  0  0  0  0  0  0  0  0  0
  152.7953  143.1288  161.4095 S   0  0  0  0  0  0  0  0  0  0  0  0
  152.6503  143.2756  159.6051 C   0  0  2  0  0  0  0  0  0  0  0  0
  152.1109  144.6358  159.1706 C   0  0  0  0  0  0  0  0  0  0  0  0
  151.6089  144.4005  157.7457 C   0  0  0  0  0  0  0  0  0  0  0  0
  151.1508  142.9287  157.6941 C   0  0  2  0  0  0  0  0  0  0  0  0
  149.6968  142.8181  157.5968 N   0  0  0  0  0  0  0  0  0  0  0  0
  148.9748  141.7127  157.8315 C   0  0  0  0  0  0  0  0  0  0  0  0
  149.5410  140.6659  158.1545 O   0  0  0  0  0  0  0  0  0  0  0  0
  147.6430  141.8882  157.6746 N   0  5  0  0  0  0  0  0  0  0  0  0
  146.9510  142.6064  158.5742 C   0  0  0  0  0  0  0  0  0  0  0  0
  147.2258  142.7092  159.8751 N   0  0  0  0  0  0  0  0  0  0  0  0
  146.2406  143.5428  160.3036 C   0  0  0  0  0  0  0  0  0  0  0  0
  146.1035  143.9738  161.7236 C   0  0  0  0  0  0  0  0  0  0  0  0
  145.3974  143.9666  159.3741 N   0  0  0  0  0  0  0  0  0  0  0  0
  145.8704  143.3450  158.2098 O   0  0  0  0  0  0  0  0  0  0  0  0
  151.6629  142.2771  158.9926 C   0  0  0  0  0  0  0  0  0  0  0  0
  153.8241  141.2836  162.5789 H   0  0  0  0  0  0  0  0  0  0  0  0
  154.5700  141.5373  160.9945 H   0  0  0  0  0  0  0  0  0  0  0  0
  152.9961  140.7332  161.1178 H   0  0  0  0  0  0  0  0  0  0  0  0
  153.6349  143.1301  159.1584 H   0  0  0  0  0  0  0  0  0  0  0  0
  151.2739  144.9275  159.8068 H   0  0  0  0  0  0  0  0  0  0  0  0
  152.8624  145.4238  159.2245 H   0  0  0  0  0  0  0  0  0  0  0  0
  150.8282  145.1102  157.4678 H   0  0  0  0  0  0  0  0  0  0  0  0
  152.4330  144.5431  157.0456 H   0  0  0  0  0  0  0  0  0  0  0  0
  151.6115  142.4344  156.8368 H   0  0  0  0  0  0  0  0  0  0  0  0
  149.1929  143.6519  157.3327 H   0  0  0  0  0  0  0  0  0  0  0  0
  146.4454  145.0025  161.8385 H   0  0  0  0  0  0  0  0  0  0  0  0
  146.6980  143.3358  162.3781 H   0  0  0  0  0  0  0  0  0  0  0  0
  145.0616  143.9151  162.0405 H   0  0  0  0  0  0  0  0  0  0  0  0
  152.1248  141.3071  158.8065 H   0  0  0  0  0  0  0  0  0  0  0  0
  150.8365  142.1117  159.6862 H   0  0  0  0  0  0  0  0  0  0  0  0
  1  2  1  0  0  0  0
  1 18  1  0  0  0  0
  1 19  1  0  0  0  0
  1 20  1  0  0  0  0
  2  3  1  0  0  0  0
  3 17  1  0  0  0  0
  3  4  1  0  0  0  0
  3 21  1  0  0  0  0
  4  5  1  0  0  0  0
  4 22  1  0  0  0  0
  4 23  1  0  0  0  0
  5  6  1  0  0  0  0
  5 24  1  0  0  0  0
  5 25  1  0  0  0  0
  6  7  1  0  0  0  0
  6 17  1  0  0  0  0
  6 26  1  0  0  0  0
  7  8  1  0  0  0  0
  7 27  1  0  0  0  0
  8  9  2  0  0  0  0
  8 10  1  0  0  0  0
 10 11  1  0  0  0  0
 11 16  1  0  0  0  0
 11 12  2  0  0  0  0
 12 13  1  0  0  0  0
 13 14  1  0  0  0  0
 13 15  2  0  0  0  0
 14 28  1  0  0  0  0
 14 29  1  0  0  0  0
 14 30  1  0  0  0  0
 15 16  1  0  0  0  0
 17 31  1  0  0  0  0
 17 32  1  0  0  0  0
M  CHG  1  10  -1
M  END
> <s_m_source_file>
AV-unprocessed.smi

> <i_m_source_file_index>
2492

> <i_lp_mmshare_version>
43012

> <i_f3d_flags>
0

> <s_epik_input>
W0NIM11TW0NAQEhdMVtDSDJdW0NIMl1bQ0BIXShbQ0gyXTEpW05IXUMoPU8pW05IXWMybmMoW0NIM10pbm8y

> <s_epik_cmdline>
J2VwaWtfcHl0aG9uJywgJy1waCcsICc3LjAnLCAnLXRuJywgJzgnLCAnLW1hJywgJzIwMCcsICctbWV0YWxfYmluZGluZycsICctaW1hZScsICc8aW5maWxlLm1hZT4nLCAnLW9tYWUnLCAnPG91dGZpbGUubWFlPic=

> <r_lp_tautomer_probability>
1

> <r_epik_Ionization_Penalty>
6.26454

> <r_epik_Ionization_Penalty_Charging>
6.26445

> <r_epik_Ionization_Penalty_Neutral>
9.05726e-05

> <r_epik_State_Penalty>
6.26444

> <r_epik_Charging_Adjusted_Penalty>
12.5289

> <i_epik_Tot_Q>
-1

> <i_epik_Tot_abs_Q>
1

> <r_epik_Metal_State_Penalty>
2.20125

> <b_epik_Metal_Only>
1

> <s_lp_Force_Field>
OPLS_2005

> <r_lp_Energy>
10.8343

> <b_lp_Chiralities_Consistent>
1

> <s_lp_Variant>
AV-unprocessed.smi:2492-7

> <Gold.Version>
5.8.1

> <Gold.Id.Protein>
6NUR|6NUR_protein|mol2

> <Gold.PLP.Fitness>
39.9436

> <Gold.PLP.PLP>
-35.3756

> <Gold.PLP.part.hbond>
-3.0000

> <Gold.PLP.part.metal>
0.0000

> <Gold.PLP.part.buried>
-5.3725

> <Gold.PLP.part.nonpolar>
-28.2538

> <Gold.PLP.part.repulsive>
0.4003

> <Gold.PLP.ligand.clash>
0.0000

> <Gold.PLP.ligand.torsion>
1.1027

> <Gold.PLP.Chemscore.Hbond>
2.2523

> <Gold.PLP.Chemscore.CHOScore>
0.0000

> <Gold.PLP.Chemscore.Metal>
0.0000

> <Gold.Chemscore.Hbonds>
donor molecule, donor type, donor heavy atom, donor atom, acceptor molecule, acceptor atom, score
      L1  H     7    27       P1  8028  0.77
      P1  H  6933  6944       L1    12  0.72
      P1  H  6934  6946       L1    12  0.72

> <Gold.PLP.Chemscore.Internal.Correction>
0.0164

> <Gold.Rescore>
     Score         DG    S(hbond)    S(metal)    S(lipo)     H(rot)  DE(clash)    DE(int)     intcor
     15.97     -18.61       1.78        0.00      89.19       1.27       0.09       2.54       ----

> <Gold.Chemscore.Fitness>
15.9739

> <Gold.Chemscore.DG>
-18.6085

> <Gold.Chemscore.ZeroCoef>
-5.4800

> <Gold.Chemscore.Hbond>
1.7805

> <Gold.Chemscore.Metal>
0.0000

> <Gold.Chemscore.Lipo>
89.1940

> <Gold.Chemscore.Internal_Hbond>
0.0000

> <Gold.Chemscore.DEClash>
0.0901

> <Gold.Chemscore.DEInternal>
2.5446

> <Gold.Chemscore.Rot>
1.2712

> <Gold.Chemscore.Internal.Correction>
   9.000000E+99

> <Gold.Chemscore.Hbonds>
donor molecule, donor type, donor heavy atom, donor atom, acceptor molecule, acceptor atom, score
      L1  H     7    27       P1  8028  0.33
      P1  H  6933  6944       L1    12  0.48
      P1  H  6934  6946       L1    12  0.32

> <Gold.Chemscore.Hbond.Weighted>
-5.9470

> <Gold.Chemscore.Metal.Weighted>
-0.0000

> <Gold.Chemscore.Lipo.Weighted>
-10.4357

> <Gold.Chemscore.Internal_Hbond.Weighted>
0.0000

> <Gold.Chemscore.DEClash.Weighted>
0.0901

> <Gold.Chemscore.DEInternal.Weighted>
2.5446

> <Gold.Chemscore.Rot.Weighted>
3.2542

> <Gold.Chemscore.Internal.Correction.Weighted>
   9.000000E+99

> <Gold.Protein.RotatedTorsions>
[ 6907 6896 6895 6894 ] final  -53.97 input  -60.11 | X-H torsion
[ 7974 7965 7964 7962 ] final -152.22 input  175.53 | X-H torsion
[ 8008 7997 7996 7995 ] final -132.14 input   59.86 | X-H torsion
[ 10167 10162 10161 10158 ] final  112.91 input  -65.29 | X-H torsion
[ 10718 10713 10712 10709 ] final   14.94 input   66.30 | X-H torsion
[ 10763 10752 10751 10750 ] final  168.77 input  -60.55 | X-H torsion
[ 11005 11000 10999 10996 ] final   -1.14 input  -57.11 | X-H torsion

> <Gold.Protein.ActiveResidues>
 VAL166  LYS551  ARG553  GLY616  TRP617  ASP618  TYR619  PRO620  LYS621  CYS622 
 ASP623  PHE694  ASN695  SER759  ASP760  ASP761  ALA762  ILE779  LEU786  VAL792 
 PHE793  MET794  SER795  GLU796  ALA797  LYS798  CYS799  TRP800  GLU811  SER814 

> <Gold.Protein.RotatedAtoms>
  150.8379  134.7660  159.6908 H   0  0  0  0  0  0  0  0  0  0  0  0  # atno 6907 bound_to 6896
  152.4473  134.5465  159.9864 H   0  0  0  0  0  0  0  0  0  0  0  0  # atno 6908 bound_to 6896
  151.5612  133.3365  159.3007 H   0  0  0  0  0  0  0  0  0  0  0  0  # atno 6909 bound_to 6896
  144.7806  140.4692  143.5842 H   0  0  0  0  0  0  0  0  0  0  0  0  # atno 7974 bound_to 7965
  155.3239  140.0463  157.3040 H   0  0  0  0  0  0  0  0  0  0  0  0  # atno 8008 bound_to 7997
  154.5365  140.2274  155.8680 H   0  0  0  0  0  0  0  0  0  0  0  0  # atno 8009 bound_to 7997
  156.1840  140.3067  155.9209 H   0  0  0  0  0  0  0  0  0  0  0  0  # atno 8010 bound_to 7997
  139.6500  144.7128  151.2067 H   0  0  0  0  0  0  0  0  0  0  0  0  # atno 10167 bound_to 10162
  157.0463  130.6251  149.5760 H   0  0  0  0  0  0  0  0  0  0  0  0  # atno 10718 bound_to 10713
  154.3734  135.2753  155.2253 H   0  0  0  0  0  0  0  0  0  0  0  0  # atno 10763 bound_to 10752
  154.4391  135.5958  153.6121 H   0  0  0  0  0  0  0  0  0  0  0  0  # atno 10764 bound_to 10752
  152.9837  135.6014  154.3967 H   0  0  0  0  0  0  0  0  0  0  0  0  # atno 10765 bound_to 10752
  140.6441  133.9463  155.8342 H   0  0  0  0  0  0  0  0  0  0  0  0  # atno 11005 bound_to 11000
  145.6061  139.1508  143.3102 LP  0  0  0  0  0  0  0  0  0  0  0  0  # atno 17320 bound_to 7965
  146.2012  140.6179  142.9101 LP  0  0  0  0  0  0  0  0  0  0  0  0  # atno 17321 bound_to 7965
  140.7533  143.6166  150.8554 LP  0  0  0  0  0  0  0  0  0  0  0  0  # atno 17342 bound_to 10162
  139.9813  143.5948  152.2942 LP  0  0  0  0  0  0  0  0  0  0  0  0  # atno 17343 bound_to 10162
  156.0022  130.5103  150.7703 LP  0  0  0  0  0  0  0  0  0  0  0  0  # atno 17370 bound_to 10713
  157.5065  131.0922  151.0251 LP  0  0  0  0  0  0  0  0  0  0  0  0  # atno 17371 bound_to 10713
  141.0585  134.0381  157.3690 LP  0  0  0  0  0  0  0  0  0  0  0  0  # atno 17394 bound_to 11000
  139.9069  135.0181  156.7526 LP  0  0  0  0  0  0  0  0  0  0  0  0  # atno 17395 bound_to 11000

$$$$
