AV-unprocessed.smi:2009|AV-procd|sdf|8146|dock8
  -GOLD-   2272010383D 1   1.00000     0.00000
 Structure written by MMmdl.
 38 39  0  0  0  0  0  0  0  0  1 V2000
  149.6781  138.6873  154.4566 C   0  0  0  0  0  0  0  0  0  0  0  0
  149.4054  140.1949  154.5703 C   0  0  1  0  0  0  0  0  0  0  0  0
  147.9481  140.5840  154.2307 C   0  0  0  0  0  0  0  0  0  0  0  0
  147.1494  139.4827  153.7168 N   0  0  0  0  0  0  0  0  0  0  0  0
  146.9497  139.1064  152.4048 C   0  0  0  0  0  0  0  0  0  0  0  0
  146.1217  138.0207  152.4142 C   0  0  0  0  0  0  0  0  0  0  0  0
  145.8611  137.8065  153.7964 C   0  0  0  0  0  0  0  0  0  0  0  0
  146.4742  138.6845  154.5728 N   0  0  0  0  0  0  0  0  0  0  0  0
  149.7675  140.6453  155.9166 N   0  0  0  0  0  0  0  0  0  0  0  0
  151.2609  140.1574  156.6288 S   0  0  0  0  0  0  0  0  0  0  0  0
  151.0277  138.8957  157.3484 O   0  0  0  0  0  0  0  0  0  0  0  0
  152.3299  140.2677  155.6248 O   0  0  0  0  0  0  0  0  0  0  0  0
  151.4542  141.4374  157.7796 N   0  0  0  0  0  0  0  0  0  0  0  0
  152.5877  141.3217  158.7183 C   0  0  0  0  0  0  0  0  0  0  0  0
  152.4354  142.2857  159.9071 C   0  0  0  0  0  0  0  0  0  0  0  0
  152.2414  143.7286  159.4321 C   0  0  0  0  0  0  0  0  0  0  0  0
  151.0401  143.7919  158.4846 C   0  0  0  0  0  0  0  0  0  0  0  0
  151.2088  142.8173  157.3075 C   0  0  0  0  0  0  0  0  0  0  0  0
  149.4177  138.3172  153.4647 H   0  0  0  0  0  0  0  0  0  0  0  0
  149.1048  138.1160  155.1875 H   0  0  0  0  0  0  0  0  0  0  0  0
  150.7333  138.4675  154.6222 H   0  0  0  0  0  0  0  0  0  0  0  0
  150.0626  140.7013  153.8624 H   0  0  0  0  0  0  0  0  0  0  0  0
  147.4437  141.0064  155.1000 H   0  0  0  0  0  0  0  0  0  0  0  0
  147.9510  141.3736  153.4782 H   0  0  0  0  0  0  0  0  0  0  0  0
  147.4105  139.6357  151.5839 H   0  0  0  0  0  0  0  0  0  0  0  0
  145.7561  137.4654  151.5636 H   0  0  0  0  0  0  0  0  0  0  0  0
  145.2469  137.0459  154.2556 H   0  0  0  0  0  0  0  0  0  0  0  0
  148.9909  140.6324  156.5773 H   0  0  0  0  0  0  0  0  0  0  0  0
  152.6545  140.2992  159.0898 H   0  0  0  0  0  0  0  0  0  0  0  0
  153.5145  141.5235  158.1799 H   0  0  0  0  0  0  0  0  0  0  0  0
  151.5820  141.9820  160.5147 H   0  0  0  0  0  0  0  0  0  0  0  0
  153.3122  142.2211  160.5518 H   0  0  0  0  0  0  0  0  0  0  0  0
  152.0857  144.3902  160.2844 H   0  0  0  0  0  0  0  0  0  0  0  0
  153.1393  144.0766  158.9202 H   0  0  0  0  0  0  0  0  0  0  0  0
  150.1278  143.5492  159.0312 H   0  0  0  0  0  0  0  0  0  0  0  0
  150.9147  144.8079  158.1100 H   0  0  0  0  0  0  0  0  0  0  0  0
  152.0416  143.1274  156.6751 H   0  0  0  0  0  0  0  0  0  0  0  0
  150.3160  142.8488  156.6839 H   0  0  0  0  0  0  0  0  0  0  0  0
  1  2  1  0  0  0  0
  1 19  1  0  0  0  0
  1 20  1  0  0  0  0
  1 21  1  0  0  0  0
  2  3  1  0  0  0  0
  2  9  1  0  0  0  0
  2 22  1  0  0  0  0
  3  4  1  0  0  0  0
  3 23  1  0  0  0  0
  3 24  1  0  0  0  0
  4  8  1  0  0  0  0
  4  5  1  0  0  0  0
  5  6  2  0  0  0  0
  5 25  1  0  0  0  0
  6  7  1  0  0  0  0
  6 26  1  0  0  0  0
  7  8  2  0  0  0  0
  7 27  1  0  0  0  0
  9 10  1  0  0  0  0
  9 28  1  0  0  0  0
 10 11  2  0  0  0  0
 10 12  2  0  0  0  0
 10 13  1  0  0  0  0
 13 18  1  0  0  0  0
 13 14  1  0  0  0  0
 14 15  1  0  0  0  0
 14 29  1  0  0  0  0
 14 30  1  0  0  0  0
 15 16  1  0  0  0  0
 15 31  1  0  0  0  0
 15 32  1  0  0  0  0
 16 17  1  0  0  0  0
 16 33  1  0  0  0  0
 16 34  1  0  0  0  0
 17 18  1  0  0  0  0
 17 35  1  0  0  0  0
 17 36  1  0  0  0  0
 18 37  1  0  0  0  0
 18 38  1  0  0  0  0
M  END
> <s_m_source_file>
AV-unprocessed.smi

> <i_m_source_file_index>
2009

> <i_lp_mmshare_version>
43012

> <i_f3d_flags>
0

> <s_epik_input>
bjFbY0hdW2NIXVtjSF1uMVtDSDJdW0NAQEhdKFtDSDNdKVtOSF1TKD1PKSg9TylOMltDSDJdW0NIMl1bQ0gyXVtDSDJdW0NIMl0y

> <s_epik_cmdline>
J2VwaWtfcHl0aG9uJywgJy1waCcsICc3LjAnLCAnLXRuJywgJzgnLCAnLW1hJywgJzIwMCcsICctbWV0YWxfYmluZGluZycsICctaW1hZScsICc8aW5maWxlLm1hZT4nLCAnLW9tYWUnLCAnPG91dGZpbGUubWFlPic=

> <r_lp_tautomer_probability>
1

> <r_epik_Ionization_Penalty>
0.0313937

> <r_epik_Ionization_Penalty_Charging>
0

> <r_epik_Ionization_Penalty_Neutral>
0.0313937

> <r_epik_State_Penalty>
0.0259441

> <r_epik_Charging_Adjusted_Penalty>
0.0259441

> <i_epik_Tot_Q>
0

> <i_epik_Tot_abs_Q>
0

> <r_epik_Metal_State_Penalty>
0.365037

> <b_epik_Metal_Only>
0

> <s_lp_Force_Field>
OPLS_2005

> <r_lp_Energy>
8.11637

> <b_lp_Chiralities_Consistent>
1

> <s_lp_Variant>
AV-unprocessed.smi:2009-2

> <Gold.Version>
5.8.1

> <Gold.Id.Protein>
6NUR|6NUR_protein|mol2

> <Gold.PLP.Fitness>
36.0957

> <Gold.PLP.PLP>
-32.6170

> <Gold.PLP.part.hbond>
-2.0000

> <Gold.PLP.part.metal>
0.0000

> <Gold.PLP.part.buried>
0.5916

> <Gold.PLP.part.nonpolar>
-31.4659

> <Gold.PLP.part.repulsive>
0.1348

> <Gold.PLP.ligand.clash>
0.0000

> <Gold.PLP.ligand.torsion>
1.9648

> <Gold.PLP.Chemscore.Hbond>
1.2215

> <Gold.PLP.Chemscore.CHOScore>
0.9847

> <Gold.PLP.Chemscore.Metal>
0.0000

> <Gold.Chemscore.Hbonds>
donor molecule, donor type, donor heavy atom, donor atom, acceptor molecule, acceptor atom, score
      P1  H  7989  7998       L1    12  0.21
      P1  H  7997  8008       L1    12  0.84
      L1  C     5    25       P1  7957  1.00

> <Gold.PLP.Chemscore.Internal.Correction>
0.7899

> <Gold.Rescore>
     Score         DG    S(hbond)    S(metal)    S(lipo)     H(rot)  DE(clash)    DE(int)     intcor
     12.57     -15.39       1.18        0.00      90.87       1.82       0.97       1.84       ----

> <Gold.Chemscore.Fitness>
12.5729

> <Gold.Chemscore.DG>
-15.3919

> <Gold.Chemscore.ZeroCoef>
-5.4800

> <Gold.Chemscore.Hbond>
1.1822

> <Gold.Chemscore.Metal>
0.0000

> <Gold.Chemscore.Lipo>
90.8694

> <Gold.Chemscore.Internal_Hbond>
0.0000

> <Gold.Chemscore.DEClash>
0.9747

> <Gold.Chemscore.DEInternal>
1.8443

> <Gold.Chemscore.Rot>
1.8237

> <Gold.Chemscore.Internal.Correction>
   9.000000E+99

> <Gold.Chemscore.Hbonds>
donor molecule, donor type, donor heavy atom, donor atom, acceptor molecule, acceptor atom, score
      P1  H  7989  7998       L1    12  0.18
      P1  H  7997  8008       L1    12  0.81

> <Gold.Chemscore.Hbond.Weighted>
-3.9487

> <Gold.Chemscore.Metal.Weighted>
-0.0000

> <Gold.Chemscore.Lipo.Weighted>
-10.6317

> <Gold.Chemscore.Internal_Hbond.Weighted>
0.0000

> <Gold.Chemscore.DEClash.Weighted>
0.9747

> <Gold.Chemscore.DEInternal.Weighted>
1.8443

> <Gold.Chemscore.Rot.Weighted>
4.6686

> <Gold.Chemscore.Internal.Correction.Weighted>
   9.000000E+99

> <Gold.Protein.RotatedTorsions>
[ 6907 6896 6895 6894 ] final  -15.16 input  -60.11 | X-H torsion
[ 7974 7965 7964 7962 ] final  -96.19 input  175.53 | X-H torsion
[ 8008 7997 7996 7995 ] final  -27.71 input   59.86 | X-H torsion
[ 10167 10162 10161 10158 ] final -172.02 input  -65.29 | X-H torsion
[ 10718 10713 10712 10709 ] final -141.53 input   66.30 | X-H torsion
[ 10763 10752 10751 10750 ] final   -9.71 input  -60.55 | X-H torsion
[ 11005 11000 10999 10996 ] final    9.04 input  -57.11 | X-H torsion

> <Gold.Protein.ActiveResidues>
 VAL166  LYS551  ARG553  GLY616  TRP617  ASP618  TYR619  PRO620  LYS621  CYS622 
 ASP623  PHE694  ASN695  SER759  ASP760  ASP761  ALA762  ILE779  LEU786  VAL792 
 PHE793  MET794  SER795  GLU796  ALA797  LYS798  CYS799  TRP800  GLU811  SER814 

> <Gold.Protein.RotatedAtoms>
  151.3283  135.0835  159.9329 H   0  0  0  0  0  0  0  0  0  0  0  0  # atno 6907 bound_to 6896
  152.5240  133.9569  159.7709 H   0  0  0  0  0  0  0  0  0  0  0  0  # atno 6908 bound_to 6896
  150.9902  133.6104  159.2739 H   0  0  0  0  0  0  0  0  0  0  0  0  # atno 6909 bound_to 6896
  145.3501  140.9475  143.2559 H   0  0  0  0  0  0  0  0  0  0  0  0  # atno 7974 bound_to 7965
  154.4365  140.1865  156.0975 H   0  0  0  0  0  0  0  0  0  0  0  0  # atno 8008 bound_to 7997
  156.0318  140.3329  155.7121 H   0  0  0  0  0  0  0  0  0  0  0  0  # atno 8009 bound_to 7997
  155.5829  140.0623  157.2769 H   0  0  0  0  0  0  0  0  0  0  0  0  # atno 8010 bound_to 7997
  139.5768  144.1514  152.1461 H   0  0  0  0  0  0  0  0  0  0  0  0  # atno 10167 bound_to 10162
  156.3352  130.7607  151.1733 H   0  0  0  0  0  0  0  0  0  0  0  0  # atno 10718 bound_to 10713
  153.4587  135.7016  153.6064 H   0  0  0  0  0  0  0  0  0  0  0  0  # atno 10763 bound_to 10752
  153.4367  135.3789  155.2204 H   0  0  0  0  0  0  0  0  0  0  0  0  # atno 10764 bound_to 10752
  154.8727  135.3964  154.4009 H   0  0  0  0  0  0  0  0  0  0  0  0  # atno 10765 bound_to 10752
  140.5302  134.0473  155.7871 H   0  0  0  0  0  0  0  0  0  0  0  0  # atno 11005 bound_to 11000
  144.8724  139.5019  143.6761 LP  0  0  0  0  0  0  0  0  0  0  0  0  # atno 17320 bound_to 7965
  146.2971  139.7313  142.9118 LP  0  0  0  0  0  0  0  0  0  0  0  0  # atno 17321 bound_to 7965
  140.1058  144.5500  150.6958 LP  0  0  0  0  0  0  0  0  0  0  0  0  # atno 17342 bound_to 10162
  140.7050  143.2461  151.4753 LP  0  0  0  0  0  0  0  0  0  0  0  0  # atno 17343 bound_to 10162
  157.7437  131.0470  150.4922 LP  0  0  0  0  0  0  0  0  0  0  0  0  # atno 17370 bound_to 10713
  156.5094  130.4136  149.6309 LP  0  0  0  0  0  0  0  0  0  0  0  0  # atno 17371 bound_to 10713
  141.1285  133.9342  157.2585 LP  0  0  0  0  0  0  0  0  0  0  0  0  # atno 17394 bound_to 11000
  139.9558  135.0166  156.9124 LP  0  0  0  0  0  0  0  0  0  0  0  0  # atno 17395 bound_to 11000

$$$$
