AV-unprocessed.smi:1996|AV-procd|sdf|8084|dock3
  -GOLD-   2272010303D 1   1.00000     0.00000
 Structure written by MMmdl.
 33 34  0  0  0  0  0  0  0  0  1 V2000
  148.7037  144.2714  161.5514 O   0  0  0  0  0  0  0  0  0  0  0  0
  148.5166  144.6524  160.3955 C   0  0  0  0  0  0  0  0  0  0  0  0
  149.4708  145.2138  159.6389 N   0  0  0  0  0  0  0  0  0  0  0  0
  150.8490  145.4373  160.0597 C   0  0  0  0  0  0  0  0  0  0  0  0
  151.8485  144.8706  159.0362 C   0  0  0  0  0  0  0  0  0  0  0  0
  152.2188  143.4231  159.3128 C   0  0  0  0  0  0  0  0  0  0  0  0
  152.8473  143.0526  160.4454 C   0  0  0  0  0  0  0  0  0  0  0  0
  153.2529  141.6254  160.7700 C   0  0  0  0  0  0  0  0  0  0  0  0
  153.1765  140.6992  159.5444 C   0  0  0  0  0  0  0  0  0  0  0  0
  151.9020  140.9575  158.7312 C   0  0  0  0  0  0  0  0  0  0  0  0
  151.8384  142.4134  158.2357 C   0  0  0  0  0  0  0  0  0  0  0  0
  147.3542  144.5639  159.7253 N   0  0  0  0  0  0  0  0  0  0  0  0
  146.1210  144.0173  160.1691 C   0  0  0  0  0  0  0  0  0  0  0  0
  145.0906  143.7437  159.3533 N   0  0  0  0  0  0  0  0  0  0  0  0
  144.0054  143.2206  160.0447 N   0  0  0  0  0  0  0  0  0  0  0  0
  144.2599  143.1201  161.3525 C   0  0  0  0  0  0  0  0  0  0  0  0
  145.8504  143.6543  161.8676 S   0  0  0  0  0  0  0  0  0  0  0  0
  149.2299  145.5004  158.7012 H   0  0  0  0  0  0  0  0  0  0  0  0
  150.9908  146.5122  160.1727 H   0  0  0  0  0  0  0  0  0  0  0  0
  151.0168  144.9957  161.0436 H   0  0  0  0  0  0  0  0  0  0  0  0
  151.4274  144.9444  158.0326 H   0  0  0  0  0  0  0  0  0  0  0  0
  152.7601  145.4692  159.0291 H   0  0  0  0  0  0  0  0  0  0  0  0
  153.0849  143.7935  161.1950 H   0  0  0  0  0  0  0  0  0  0  0  0
  154.2654  141.6225  161.1744 H   0  0  0  0  0  0  0  0  0  0  0  0
  152.5951  141.2603  161.5593 H   0  0  0  0  0  0  0  0  0  0  0  0
  154.0462  140.8656  158.9075 H   0  0  0  0  0  0  0  0  0  0  0  0
  153.2208  139.6571  159.8616 H   0  0  0  0  0  0  0  0  0  0  0  0
  151.8476  140.2738  157.8836 H   0  0  0  0  0  0  0  0  0  0  0  0
  151.0316  140.7466  159.3539 H   0  0  0  0  0  0  0  0  0  0  0  0
  150.8335  142.6292  157.8710 H   0  0  0  0  0  0  0  0  0  0  0  0
  152.5156  142.5439  157.3911 H   0  0  0  0  0  0  0  0  0  0  0  0
  147.3530  144.9236  158.7823 H   0  0  0  0  0  0  0  0  0  0  0  0
  143.5053  142.7285  162.0185 H   0  0  0  0  0  0  0  0  0  0  0  0
  1  2  2  0  0  0  0
  2  3  1  0  0  0  0
  2 12  1  0  0  0  0
  3  4  1  0  0  0  0
  3 18  1  0  0  0  0
  4  5  1  0  0  0  0
  4 19  1  0  0  0  0
  4 20  1  0  0  0  0
  5  6  1  0  0  0  0
  5 21  1  0  0  0  0
  5 22  1  0  0  0  0
  6 11  1  0  0  0  0
  6  7  2  0  0  0  0
  7  8  1  0  0  0  0
  7 23  1  0  0  0  0
  8  9  1  0  0  0  0
  8 24  1  0  0  0  0
  8 25  1  0  0  0  0
  9 10  1  0  0  0  0
  9 26  1  0  0  0  0
  9 27  1  0  0  0  0
 10 11  1  0  0  0  0
 10 28  1  0  0  0  0
 10 29  1  0  0  0  0
 11 30  1  0  0  0  0
 11 31  1  0  0  0  0
 12 13  1  0  0  0  0
 12 32  1  0  0  0  0
 13 17  1  0  0  0  0
 13 14  2  0  0  0  0
 14 15  1  0  0  0  0
 15 16  2  0  0  0  0
 16 17  1  0  0  0  0
 16 33  1  0  0  0  0
M  END
> <s_m_source_file>
AV-unprocessed.smi

> <i_m_source_file_index>
1996

> <i_lp_mmshare_version>
43012

> <i_f3d_flags>
0

> <s_epik_input>
czFbY0hdbm5jMVtOSF1DKD1PKVtOSF1bQ0gyXVtDSDJdQzI9W0NIXVtDSDJdW0NIMl1bQ0gyXVtDSDJdMg==

> <s_epik_cmdline>
J2VwaWtfcHl0aG9uJywgJy1waCcsICc3LjAnLCAnLXRuJywgJzgnLCAnLW1hJywgJzIwMCcsICctbWV0YWxfYmluZGluZycsICctaW1hZScsICc8aW5maWxlLm1hZT4nLCAnLW9tYWUnLCAnPG91dGZpbGUubWFlPic=

> <r_lp_tautomer_probability>
1

> <r_epik_Ionization_Penalty>
0.00157076

> <r_epik_Ionization_Penalty_Charging>
0

> <r_epik_Ionization_Penalty_Neutral>
0.00157076

> <r_epik_State_Penalty>
-0

> <r_epik_Charging_Adjusted_Penalty>
0

> <i_epik_Tot_Q>
0

> <i_epik_Tot_abs_Q>
0

> <r_epik_Metal_State_Penalty>
0.323125

> <b_epik_Metal_Only>
0

> <s_lp_Force_Field>
OPLS_2005

> <r_lp_Energy>
6.02977

> <b_lp_Chiralities_Consistent>
1

> <s_lp_Variant>
AV-unprocessed.smi:1996-1

> <Gold.Version>
5.8.1

> <Gold.Id.Protein>
6NUR|6NUR_protein|mol2

> <Gold.PLP.Fitness>
46.7756

> <Gold.PLP.PLP>
-39.2295

> <Gold.PLP.part.hbond>
-3.0000

> <Gold.PLP.part.metal>
0.0000

> <Gold.PLP.part.buried>
-6.2445

> <Gold.PLP.part.nonpolar>
-31.3254

> <Gold.PLP.part.repulsive>
0.6345

> <Gold.PLP.ligand.clash>
0.0000

> <Gold.PLP.ligand.torsion>
0.2646

> <Gold.PLP.Chemscore.Hbond>
2.6880

> <Gold.PLP.Chemscore.CHOScore>
0.0000

> <Gold.PLP.Chemscore.Metal>
0.0000

> <Gold.Chemscore.Hbonds>
donor molecule, donor type, donor heavy atom, donor atom, acceptor molecule, acceptor atom, score
      L1  H     3    18       P1  8029  1.00
      L1  H    12    32       P1  8029  1.00
      P1  H  6933  6944       L1     1  0.69

> <Gold.PLP.Chemscore.Internal.Correction>
0.0113

> <Gold.Rescore>
     Score         DG    S(hbond)    S(metal)    S(lipo)     H(rot)  DE(clash)    DE(int)     intcor
     19.59     -21.34       2.67        0.00      94.72       1.62       0.34       1.41       ----

> <Gold.Chemscore.Fitness>
19.5924

> <Gold.Chemscore.DG>
-21.3394

> <Gold.Chemscore.ZeroCoef>
-5.4800

> <Gold.Chemscore.Hbond>
2.6694

> <Gold.Chemscore.Metal>
0.0000

> <Gold.Chemscore.Lipo>
94.7199

> <Gold.Chemscore.Internal_Hbond>
0.0000

> <Gold.Chemscore.DEClash>
0.3364

> <Gold.Chemscore.DEInternal>
1.4106

> <Gold.Chemscore.Rot>
1.6167

> <Gold.Chemscore.Internal.Correction>
   9.000000E+99

> <Gold.Chemscore.Hbonds>
donor molecule, donor type, donor heavy atom, donor atom, acceptor molecule, acceptor atom, score
      L1  H     3    18       P1  8029  0.93
      L1  H    12    32       P1  8029  0.99
      P1  H  6933  6944       L1     1  0.35

> <Gold.Chemscore.Hbond.Weighted>
-8.9159

> <Gold.Chemscore.Metal.Weighted>
-0.0000

> <Gold.Chemscore.Lipo.Weighted>
-11.0822

> <Gold.Chemscore.Internal_Hbond.Weighted>
0.0000

> <Gold.Chemscore.DEClash.Weighted>
0.3364

> <Gold.Chemscore.DEInternal.Weighted>
1.4106

> <Gold.Chemscore.Rot.Weighted>
4.1387

> <Gold.Chemscore.Internal.Correction.Weighted>
   9.000000E+99

> <Gold.Protein.RotatedTorsions>
[ 6907 6896 6895 6894 ] final  129.37 input  -60.11 | X-H torsion
[ 7974 7965 7964 7962 ] final -125.98 input  175.53 | X-H torsion
[ 8008 7997 7996 7995 ] final   57.54 input   59.86 | X-H torsion
[ 10167 10162 10161 10158 ] final  -62.89 input  -65.29 | X-H torsion
[ 10718 10713 10712 10709 ] final  129.37 input   66.30 | X-H torsion
[ 10763 10752 10751 10750 ] final -110.36 input  -60.55 | X-H torsion
[ 11005 11000 10999 10996 ] final  135.17 input  -57.11 | X-H torsion

> <Gold.Protein.ActiveResidues>
 VAL166  LYS551  ARG553  GLY616  TRP617  ASP618  TYR619  PRO620  LYS621  CYS622 
 ASP623  PHE694  ASN695  SER759  ASP760  ASP761  ALA762  ILE779  LEU786  VAL792 
 PHE793  MET794  SER795  GLU796  ALA797  LYS798  CYS799  TRP800  GLU811  SER814 

> <Gold.Protein.RotatedAtoms>
  152.3631  133.6322  159.6029 H   0  0  0  0  0  0  0  0  0  0  0  0  # atno 6907 bound_to 6896
  150.7615  133.9392  159.3459 H   0  0  0  0  0  0  0  0  0  0  0  0  # atno 6908 bound_to 6896
  151.7227  135.0892  160.0338 H   0  0  0  0  0  0  0  0  0  0  0  0  # atno 6909 bound_to 6896
  144.9920  140.7741  143.4548 H   0  0  0  0  0  0  0  0  0  0  0  0  # atno 7974 bound_to 7965
  155.5355  140.3483  155.4435 H   0  0  0  0  0  0  0  0  0  0  0  0  # atno 8008 bound_to 7997
  156.0688  140.1358  156.9880 H   0  0  0  0  0  0  0  0  0  0  0  0  # atno 8009 bound_to 7997
  154.4517  140.0970  156.6613 H   0  0  0  0  0  0  0  0  0  0  0  0  # atno 8010 bound_to 7997
  140.5908  143.2341  151.6142 H   0  0  0  0  0  0  0  0  0  0  0  0  # atno 10167 bound_to 10162
  157.5161  131.1097  150.9223 H   0  0  0  0  0  0  0  0  0  0  0  0  # atno 10718 bound_to 10713
  154.8244  135.4567  154.0874 H   0  0  0  0  0  0  0  0  0  0  0  0  # atno 10763 bound_to 10752
  153.2201  135.6893  153.8017 H   0  0  0  0  0  0  0  0  0  0  0  0  # atno 10764 bound_to 10752
  153.7438  135.3308  155.3285 H   0  0  0  0  0  0  0  0  0  0  0  0  # atno 10765 bound_to 10752
  139.9962  134.9496  156.9969 H   0  0  0  0  0  0  0  0  0  0  0  0  # atno 11005 bound_to 11000
  145.2272  139.2131  143.5062 LP  0  0  0  0  0  0  0  0  0  0  0  0  # atno 17320 bound_to 7965
  146.3433  140.2142  142.8590 LP  0  0  0  0  0  0  0  0  0  0  0  0  # atno 17321 bound_to 7965
  139.5226  144.3156  152.0955 LP  0  0  0  0  0  0  0  0  0  0  0  0  # atno 17342 bound_to 10162
  140.2321  144.4358  150.6296 LP  0  0  0  0  0  0  0  0  0  0  0  0  # atno 17343 bound_to 10162
  156.9848  130.5541  149.5299 LP  0  0  0  0  0  0  0  0  0  0  0  0  # atno 17370 bound_to 10713
  156.0321  130.5411  150.8561 LP  0  0  0  0  0  0  0  0  0  0  0  0  # atno 17371 bound_to 10713
  140.4814  134.1286  155.7217 LP  0  0  0  0  0  0  0  0  0  0  0  0  # atno 17394 bound_to 11000
  141.1606  133.8800  157.1858 LP  0  0  0  0  0  0  0  0  0  0  0  0  # atno 17395 bound_to 11000

$$$$
