AV-unprocessed.smi:1508|AV-procd|sdf|6087|dock10
  -GOLD-   22720 6213D 1   1.00000     0.00000
 Structure written by MMmdl.
 38 39  0  0  0  0  0  0  0  0  2 V2000
  148.1343  132.1660  153.0819 C   0  0  0  0  0  0  0  0  0  0  0  0
  147.5940  133.5457  152.6764 C   0  0  0  0  0  0  0  0  0  0  0  0
  146.0456  133.6335  152.5933 C   0  0  1  0  0  0  0  0  0  0  0  0
  145.5553  135.0634  152.2271 C   0  0  0  0  0  0  0  0  0  0  0  0
  146.5428  136.1046  152.5101 N   0  0  0  0  0  0  0  0  0  0  0  0
  146.2982  137.2629  153.1395 C   0  0  0  0  0  0  0  0  0  0  0  0
  145.1897  137.5816  153.5669 O   0  0  0  0  0  0  0  0  0  0  0  0
  147.4121  138.0058  153.2385 N   0  0  0  0  0  0  0  0  0  0  0  0
  147.5607  139.2764  153.8492 C   0  0  0  0  0  0  0  0  0  0  0  0
  146.4574  140.0033  154.0601 N   0  0  0  0  0  0  0  0  0  0  0  0
  146.7447  141.2221  154.6622 N   0  0  0  0  0  0  0  0  0  0  0  0
  148.0551  141.3664  154.8824 C   0  0  0  0  0  0  0  0  0  0  0  0
  149.0701  140.0286  154.3736 S   0  0  0  0  0  0  0  0  0  0  0  0
  145.4858  132.6198  151.6474 N   0  3  0  0  0  0  0  0  0  0  0  0
  144.0174  132.6324  151.4662 C   0  0  0  0  0  0  0  0  0  0  0  0
  143.7739  131.8929  150.1560 C   0  0  0  0  0  0  0  0  0  0  0  0
  144.9497  132.3284  149.2902 C   0  0  0  0  0  0  0  0  0  0  0  0
  146.0776  132.6363  150.2844 C   0  0  0  0  0  0  0  0  0  0  0  0
  149.2219  132.1460  153.0107 H   0  0  0  0  0  0  0  0  0  0  0  0
  147.7475  131.3832  152.4290 H   0  0  0  0  0  0  0  0  0  0  0  0
  147.8785  131.9068  154.1080 H   0  0  0  0  0  0  0  0  0  0  0  0
  147.9825  134.3064  153.3537 H   0  0  0  0  0  0  0  0  0  0  0  0
  148.0333  133.7632  151.7038 H   0  0  0  0  0  0  0  0  0  0  0  0
  145.6583  133.3945  153.5853 H   0  0  0  0  0  0  0  0  0  0  0  0
  145.3450  135.1160  151.1593 H   0  0  0  0  0  0  0  0  0  0  0  0
  144.6006  135.2939  152.6997 H   0  0  0  0  0  0  0  0  0  0  0  0
  147.4827  135.9388  152.1809 H   0  0  0  0  0  0  0  0  0  0  0  0
  148.2534  137.6200  152.8360 H   0  0  0  0  0  0  0  0  0  0  0  0
  148.4266  142.2675  155.3476 H   0  0  0  0  0  0  0  0  0  0  0  0
  143.4975  132.1564  152.2981 H   0  0  0  0  0  0  0  0  0  0  0  0
  143.6638  133.6616  151.3814 H   0  0  0  0  0  0  0  0  0  0  0  0
  143.8170  130.8162  150.3254 H   0  0  0  0  0  0  0  0  0  0  0  0
  142.8069  132.1260  149.7092 H   0  0  0  0  0  0  0  0  0  0  0  0
  145.2304  131.5693  148.5592 H   0  0  0  0  0  0  0  0  0  0  0  0
  144.6865  133.2336  148.7409 H   0  0  0  0  0  0  0  0  0  0  0  0
  146.5152  133.6070  150.0463 H   0  0  0  0  0  0  0  0  0  0  0  0
  146.8719  131.8916  150.2270 H   0  0  0  0  0  0  0  0  0  0  0  0
  145.7019  131.7115  152.0325 H   0  0  0  0  0  0  0  0  0  0  0  0
  1  2  1  0  0  0  0
  1 19  1  0  0  0  0
  1 20  1  0  0  0  0
  1 21  1  0  0  0  0
  2  3  1  0  0  0  0
  2 22  1  0  0  0  0
  2 23  1  0  0  0  0
  3  4  1  0  0  0  0
  3 14  1  0  0  0  0
  3 24  1  0  0  0  0
  4  5  1  0  0  0  0
  4 25  1  0  0  0  0
  4 26  1  0  0  0  0
  5  6  1  0  0  0  0
  5 27  1  0  0  0  0
  6  7  2  0  0  0  0
  6  8  1  0  0  0  0
  8  9  1  0  0  0  0
  8 28  1  0  0  0  0
  9 13  1  0  0  0  0
  9 10  2  0  0  0  0
 10 11  1  0  0  0  0
 11 12  2  0  0  0  0
 12 13  1  0  0  0  0
 12 29  1  0  0  0  0
 14 18  1  0  0  0  0
 14 15  1  0  0  0  0
 14 38  1  0  0  0  0
 15 16  1  0  0  0  0
 15 30  1  0  0  0  0
 15 31  1  0  0  0  0
 16 17  1  0  0  0  0
 16 32  1  0  0  0  0
 16 33  1  0  0  0  0
 17 18  1  0  0  0  0
 17 34  1  0  0  0  0
 17 35  1  0  0  0  0
 18 36  1  0  0  0  0
 18 37  1  0  0  0  0
M  CHG  1  14   1
M  END
> <s_m_source_file>
AV-unprocessed.smi

> <i_m_source_file_index>
1508

> <i_lp_mmshare_version>
43012

> <i_f3d_flags>
0

> <s_epik_input>
W0NIMl0xW0NIMl1bQ0gyXVtDSDJdTjFbQ0BIXShbQ0gyXVtDSDNdKVtDSDJdW05IXUMoPU8pW05IXWMybm5bY0hdczI=

> <s_epik_cmdline>
J2VwaWtfcHl0aG9uJywgJy1waCcsICc3LjAnLCAnLXRuJywgJzgnLCAnLW1hJywgJzIwMCcsICctbWV0YWxfYmluZGluZycsICctaW1hZScsICc8aW5maWxlLm1hZT4nLCAnLW9tYWUnLCAnPG91dGZpbGUubWFlPic=

> <r_lp_tautomer_probability>
1

> <r_epik_Ionization_Penalty>
0.00193711

> <r_epik_Ionization_Penalty_Charging>
0.00115997

> <r_epik_Ionization_Penalty_Neutral>
0.000777142

> <r_epik_State_Penalty>
-0

> <r_epik_Charging_Adjusted_Penalty>
0.00115997

> <i_epik_Tot_Q>
1

> <i_epik_Tot_abs_Q>
1

> <r_epik_Metal_State_Penalty>
0.264283

> <b_epik_Metal_Only>
0

> <s_lp_Force_Field>
OPLS_2005

> <r_lp_Energy>
37.6611

> <b_lp_Chiralities_Consistent>
1

> <s_lp_Variant>
AV-unprocessed.smi:1508-2

> <Gold.Version>
5.8.1

> <Gold.Id.Protein>
6NUR|6NUR_protein|mol2

> <Gold.PLP.Fitness>
36.0886

> <Gold.PLP.PLP>
-28.5776

> <Gold.PLP.part.hbond>
-2.0000

> <Gold.PLP.part.metal>
0.0000

> <Gold.PLP.part.buried>
-2.2908

> <Gold.PLP.part.nonpolar>
-25.3656

> <Gold.PLP.part.repulsive>
0.5496

> <Gold.PLP.ligand.clash>
0.0000

> <Gold.PLP.ligand.torsion>
0.7129

> <Gold.PLP.Chemscore.Hbond>
1.9600

> <Gold.PLP.Chemscore.CHOScore>
1.0000

> <Gold.PLP.Chemscore.Metal>
0.0000

> <Gold.Chemscore.Hbonds>
donor molecule, donor type, donor heavy atom, donor atom, acceptor molecule, acceptor atom, score
      L1  H     5    27       P1  7948  0.96
      L1  H     8    28       P1  7948  0.91
      L1  C    12    29       P1  8028  1.00

> <Gold.PLP.Chemscore.Internal.Correction>
0.0569

> <Gold.Rescore>
     Score         DG    S(hbond)    S(metal)    S(lipo)     H(rot)  DE(clash)    DE(int)     intcor
     12.87     -15.31       1.94        0.00      70.12       1.89       0.01       2.42       ----

> <Gold.Chemscore.Fitness>
12.8720

> <Gold.Chemscore.DG>
-15.3072

> <Gold.Chemscore.ZeroCoef>
-5.4800

> <Gold.Chemscore.Hbond>
1.9383

> <Gold.Chemscore.Metal>
0.0000

> <Gold.Chemscore.Lipo>
70.1223

> <Gold.Chemscore.Internal_Hbond>
0.0000

> <Gold.Chemscore.DEClash>
0.0127

> <Gold.Chemscore.DEInternal>
2.4226

> <Gold.Chemscore.Rot>
1.8950

> <Gold.Chemscore.Internal.Correction>
   9.000000E+99

> <Gold.Chemscore.Hbonds>
donor molecule, donor type, donor heavy atom, donor atom, acceptor molecule, acceptor atom, score
      L1  H     5    27       P1  7948  0.91
      L1  H     8    28       P1  7948  0.90

> <Gold.Chemscore.Hbond.Weighted>
-6.4740

> <Gold.Chemscore.Metal.Weighted>
-0.0000

> <Gold.Chemscore.Lipo.Weighted>
-8.2043

> <Gold.Chemscore.Internal_Hbond.Weighted>
0.0000

> <Gold.Chemscore.DEClash.Weighted>
0.0127

> <Gold.Chemscore.DEInternal.Weighted>
2.4226

> <Gold.Chemscore.Rot.Weighted>
4.8511

> <Gold.Chemscore.Internal.Correction.Weighted>
   9.000000E+99

> <Gold.Protein.RotatedTorsions>
[ 6907 6896 6895 6894 ] final  135.56 input  -60.11 | X-H torsion
[ 7974 7965 7964 7962 ] final -104.37 input  175.53 | X-H torsion
[ 8008 7997 7996 7995 ] final   27.85 input   59.86 | X-H torsion
[ 10167 10162 10161 10158 ] final  -48.86 input  -65.29 | X-H torsion
[ 10718 10713 10712 10709 ] final   -7.79 input   66.30 | X-H torsion
[ 10763 10752 10751 10750 ] final  125.30 input  -60.55 | X-H torsion
[ 11005 11000 10999 10996 ] final   58.73 input  -57.11 | X-H torsion

> <Gold.Protein.ActiveResidues>
 VAL166  LYS551  ARG553  GLY616  TRP617  ASP618  TYR619  PRO620  LYS621  CYS622 
 ASP623  PHE694  ASN695  SER759  ASP760  ASP761  ALA762  ILE779  LEU786  VAL792 
 PHE793  MET794  SER795  GLU796  ALA797  LYS798  CYS799  TRP800  GLU811  SER814 

> <Gold.Protein.RotatedAtoms>
  152.2991  133.5637  159.5606 H   0  0  0  0  0  0  0  0  0  0  0  0  # atno 6907 bound_to 6896
  150.7269  134.0317  159.3744 H   0  0  0  0  0  0  0  0  0  0  0  0  # atno 6908 bound_to 6896
  151.8218  135.0649  160.0477 H   0  0  0  0  0  0  0  0  0  0  0  0  # atno 6909 bound_to 6896
  145.2440  140.9215  143.3133 H   0  0  0  0  0  0  0  0  0  0  0  0  # atno 7974 bound_to 7965
  155.0494  140.3178  155.4697 H   0  0  0  0  0  0  0  0  0  0  0  0  # atno 8008 bound_to 7997
  156.2838  140.2149  156.5563 H   0  0  0  0  0  0  0  0  0  0  0  0  # atno 8009 bound_to 7997
  154.7223  140.0488  157.0639 H   0  0  0  0  0  0  0  0  0  0  0  0  # atno 8010 bound_to 7997
  140.6712  143.2722  151.4131 H   0  0  0  0  0  0  0  0  0  0  0  0  # atno 10167 bound_to 10162
  156.7121  130.5125  149.5889 H   0  0  0  0  0  0  0  0  0  0  0  0  # atno 10718 bound_to 10713
  153.6751  135.3324  155.3164 H   0  0  0  0  0  0  0  0  0  0  0  0  # atno 10763 bound_to 10752
  154.8480  135.4395  154.1664 H   0  0  0  0  0  0  0  0  0  0  0  0  # atno 10764 bound_to 10752
  153.2666  135.6996  153.7600 H   0  0  0  0  0  0  0  0  0  0  0  0  # atno 10765 bound_to 10752
  140.0356  134.5949  155.9449 H   0  0  0  0  0  0  0  0  0  0  0  0  # atno 11005 bound_to 11000
  144.9563  139.4028  143.6378 LP  0  0  0  0  0  0  0  0  0  0  0  0  # atno 17320 bound_to 7965
  146.3321  139.8594  142.8859 LP  0  0  0  0  0  0  0  0  0  0  0  0  # atno 17321 bound_to 7965
  139.5981  144.1354  152.2167 LP  0  0  0  0  0  0  0  0  0  0  0  0  # atno 17342 bound_to 10162
  140.0729  144.5764  150.7178 LP  0  0  0  0  0  0  0  0  0  0  0  0  # atno 17343 bound_to 10162
  156.1654  130.6401  151.0771 LP  0  0  0  0  0  0  0  0  0  0  0  0  # atno 17370 bound_to 10713
  157.6932  131.0803  150.7047 LP  0  0  0  0  0  0  0  0  0  0  0  0  # atno 17371 bound_to 10713
  141.1855  133.6555  156.5201 LP  0  0  0  0  0  0  0  0  0  0  0  0  # atno 17394 bound_to 11000
  140.4154  134.7235  157.4860 LP  0  0  0  0  0  0  0  0  0  0  0  0  # atno 17395 bound_to 11000

$$$$
