AV-unprocessed.smi:1659|AV-procd|sdf|6651|dock4
  -GOLD-   22720 7353D 1   1.00000     0.00000
 Structure written by MMmdl.
 42 43  0  0  0  0  0  0  0  0  2 V2000
  145.0416  134.8796  162.2424 C   0  0  0  0  0  0  0  0  0  0  0  0
  146.1973  135.4146  161.4684 C   0  0  0  0  0  0  0  0  0  0  0  0
  147.1977  134.8123  160.7595 C   0  0  0  0  0  0  0  0  0  0  0  0
  147.9542  135.9111  160.2673 C   0  0  0  0  0  0  0  0  0  0  0  0
  149.0618  135.8327  159.5138 N   0  5  0  0  0  0  0  0  0  0  0  0
  149.3051  136.7616  158.5604 C   0  0  0  0  0  0  0  0  0  0  0  0
  148.5058  137.1660  157.7125 O   0  0  0  0  0  0  0  0  0  0  0  0
  150.5511  137.2534  158.5890 N   0  0  0  0  0  0  0  0  0  0  0  0
  151.0751  138.2665  157.6805 C   0  0  0  0  0  0  0  0  0  0  0  0
  150.6924  139.6828  158.1360 C   0  0  0  0  0  0  0  0  0  0  0  0
  151.8594  140.6862  158.0642 C   0  0  0  0  0  0  0  0  0  0  0  0
  151.5165  141.9593  158.7096 N   0  0  0  0  0  0  0  0  0  0  0  0
  152.4487  142.4265  159.7477 C   0  0  0  0  0  0  0  0  0  0  0  0
  153.2811  143.6594  159.3266 C   0  0  0  0  0  0  0  0  0  0  0  0
  152.6017  144.6359  158.3459 C   0  0  0  0  0  0  0  0  0  0  0  0
  151.1934  145.1091  158.7635 C   0  0  0  0  0  0  0  0  0  0  0  0
  150.1520  144.0046  159.0666 C   0  0  0  0  0  0  0  0  0  0  0  0
  150.4147  142.6660  158.3566 C   0  0  0  0  0  0  0  0  0  0  0  0
  149.6188  142.2854  157.4980 O   0  0  0  0  0  0  0  0  0  0  0  0
  147.4664  137.0764  160.6590 N   0  0  0  0  0  0  0  0  0  0  0  0
  146.3353  136.7670  161.4238 O   0  0  0  0  0  0  0  0  0  0  0  0
  145.3556  134.0581  162.8861 H   0  0  0  0  0  0  0  0  0  0  0  0
  144.2687  134.5070  161.5704 H   0  0  0  0  0  0  0  0  0  0  0  0
  144.5992  135.6513  162.8727 H   0  0  0  0  0  0  0  0  0  0  0  0
  147.3609  133.7555  160.6103 H   0  0  0  0  0  0  0  0  0  0  0  0
  151.1787  136.8989  159.2960 H   0  0  0  0  0  0  0  0  0  0  0  0
  152.1612  138.1746  157.6385 H   0  0  0  0  0  0  0  0  0  0  0  0
  150.7001  138.0867  156.6716 H   0  0  0  0  0  0  0  0  0  0  0  0
  149.8547  140.0403  157.5360 H   0  0  0  0  0  0  0  0  0  0  0  0
  150.3292  139.6317  159.1631 H   0  0  0  0  0  0  0  0  0  0  0  0
  152.7464  140.2549  158.5300 H   0  0  0  0  0  0  0  0  0  0  0  0
  152.1431  140.8642  157.0254 H   0  0  0  0  0  0  0  0  0  0  0  0
  151.8886  142.6536  160.6548 H   0  0  0  0  0  0  0  0  0  0  0  0
  153.1237  141.6258  160.0527 H   0  0  0  0  0  0  0  0  0  0  0  0
  153.5909  144.1974  160.2232 H   0  0  0  0  0  0  0  0  0  0  0  0
  154.2035  143.3110  158.8604 H   0  0  0  0  0  0  0  0  0  0  0  0
  153.2432  145.5087  158.2197 H   0  0  0  0  0  0  0  0  0  0  0  0
  152.5521  144.1784  157.3566 H   0  0  0  0  0  0  0  0  0  0  0  0
  151.2823  145.7512  159.6404 H   0  0  0  0  0  0  0  0  0  0  0  0
  150.8025  145.7500  157.9724 H   0  0  0  0  0  0  0  0  0  0  0  0
  150.0953  143.8281  160.1407 H   0  0  0  0  0  0  0  0  0  0  0  0
  149.1596  144.3648  158.7924 H   0  0  0  0  0  0  0  0  0  0  0  0
  1  2  1  0  0  0  0
  1 22  1  0  0  0  0
  1 23  1  0  0  0  0
  1 24  1  0  0  0  0
  2 21  1  0  0  0  0
  2  3  2  0  0  0  0
  3  4  1  0  0  0  0
  3 25  1  0  0  0  0
  4  5  1  0  0  0  0
  4 20  2  0  0  0  0
  5  6  1  0  0  0  0
  6  7  2  0  0  0  0
  6  8  1  0  0  0  0
  8  9  1  0  0  0  0
  8 26  1  0  0  0  0
  9 10  1  0  0  0  0
  9 27  1  0  0  0  0
  9 28  1  0  0  0  0
 10 11  1  0  0  0  0
 10 29  1  0  0  0  0
 10 30  1  0  0  0  0
 11 12  1  0  0  0  0
 11 31  1  0  0  0  0
 11 32  1  0  0  0  0
 12 18  1  0  0  0  0
 12 13  1  0  0  0  0
 13 14  1  0  0  0  0
 13 33  1  0  0  0  0
 13 34  1  0  0  0  0
 14 15  1  0  0  0  0
 14 35  1  0  0  0  0
 14 36  1  0  0  0  0
 15 16  1  0  0  0  0
 15 37  1  0  0  0  0
 15 38  1  0  0  0  0
 16 17  1  0  0  0  0
 16 39  1  0  0  0  0
 16 40  1  0  0  0  0
 17 18  1  0  0  0  0
 17 41  1  0  0  0  0
 17 42  1  0  0  0  0
 18 19  2  0  0  0  0
 20 21  1  0  0  0  0
M  CHG  1   5  -1
M  END
> <s_m_source_file>
AV-unprocessed.smi

> <i_m_source_file_index>
1659

> <i_lp_mmshare_version>
43012

> <i_f3d_flags>
0

> <s_epik_input>
W0NIM11jMVtjSF1jKG5vMSlbTkhdQyg9TylbTkhdW0NIMl1bQ0gyXVtDSDJdTjJbQ0gyXVtDSDJdW0NIMl1bQ0gyXVtDSDJdQzI9Tw==

> <s_epik_cmdline>
J2VwaWtfcHl0aG9uJywgJy1waCcsICc3LjAnLCAnLXRuJywgJzgnLCAnLW1hJywgJzIwMCcsICctbWV0YWxfYmluZGluZycsICctaW1hZScsICc8aW5maWxlLm1hZT4nLCAnLW9tYWUnLCAnPG91dGZpbGUubWFlPic=

> <r_lp_tautomer_probability>
1

> <r_epik_Ionization_Penalty>
6.59786

> <r_epik_Ionization_Penalty_Charging>
6.59773

> <r_epik_Ionization_Penalty_Neutral>
0.00012688

> <r_epik_State_Penalty>
6.59772

> <r_epik_Charging_Adjusted_Penalty>
13.1954

> <i_epik_Tot_Q>
-1

> <i_epik_Tot_abs_Q>
1

> <r_epik_Metal_State_Penalty>
2.522

> <b_epik_Metal_Only>
1

> <s_lp_Force_Field>
OPLS_2005

> <r_lp_Energy>
19.1909

> <b_lp_Chiralities_Consistent>
1

> <s_lp_Variant>
AV-unprocessed.smi:1659-2

> <Gold.Version>
5.8.1

> <Gold.Id.Protein>
6NUR|6NUR_protein|mol2

> <Gold.PLP.Fitness>
48.5462

> <Gold.PLP.PLP>
-39.9226

> <Gold.PLP.part.hbond>
-3.0000

> <Gold.PLP.part.metal>
0.0000

> <Gold.PLP.part.buried>
-7.1649

> <Gold.PLP.part.nonpolar>
-30.9109

> <Gold.PLP.part.repulsive>
0.2914

> <Gold.PLP.ligand.clash>
0.0000

> <Gold.PLP.ligand.torsion>
1.1966

> <Gold.PLP.Chemscore.Hbond>
3.6499

> <Gold.PLP.Chemscore.CHOScore>
0.0000

> <Gold.PLP.Chemscore.Metal>
0.0000

> <Gold.Chemscore.Hbonds>
donor molecule, donor type, donor heavy atom, donor atom, acceptor molecule, acceptor atom, score
      P1  H  6896  6907       L1     5  2.00
      P1  H  6931  6943       L1    20  0.23
      P1  H  6934  6947       L1    20  0.60

> <Gold.PLP.Chemscore.Internal.Correction>
0.0671

> <Gold.Rescore>
     Score         DG    S(hbond)    S(metal)    S(lipo)     H(rot)  DE(clash)    DE(int)     intcor
     15.38     -17.99       1.88        0.00      93.61       1.84       0.02       2.60       ----

> <Gold.Chemscore.Fitness>
15.3775

> <Gold.Chemscore.DG>
-17.9917

> <Gold.Chemscore.ZeroCoef>
-5.4800

> <Gold.Chemscore.Hbond>
1.8766

> <Gold.Chemscore.Metal>
0.0000

> <Gold.Chemscore.Lipo>
93.6063

> <Gold.Chemscore.Internal_Hbond>
0.0000

> <Gold.Chemscore.DEClash>
0.0185

> <Gold.Chemscore.DEInternal>
2.5958

> <Gold.Chemscore.Rot>
1.8391

> <Gold.Chemscore.Internal.Correction>
   9.000000E+99

> <Gold.Chemscore.Hbonds>
donor molecule, donor type, donor heavy atom, donor atom, acceptor molecule, acceptor atom, score
      P1  H  6896  6907       L1     5  0.53
      P1  H  6931  6943       L1    20  0.15
      P1  H  6934  6947       L1    20  0.04

> <Gold.Chemscore.Hbond.Weighted>
-6.2680

> <Gold.Chemscore.Metal.Weighted>
-0.0000

> <Gold.Chemscore.Lipo.Weighted>
-10.9519

> <Gold.Chemscore.Internal_Hbond.Weighted>
0.0000

> <Gold.Chemscore.DEClash.Weighted>
0.0185

> <Gold.Chemscore.DEInternal.Weighted>
2.5958

> <Gold.Chemscore.Rot.Weighted>
4.7082

> <Gold.Chemscore.Internal.Correction.Weighted>
   9.000000E+99

> <Gold.Protein.RotatedTorsions>
[ 6907 6896 6895 6894 ] final  -58.85 input  -60.11 | X-H torsion
[ 7974 7965 7964 7962 ] final   60.24 input  175.53 | X-H torsion
[ 8008 7997 7996 7995 ] final  -12.92 input   59.86 | X-H torsion
[ 10167 10162 10161 10158 ] final  -85.80 input  -65.29 | X-H torsion
[ 10718 10713 10712 10709 ] final   76.61 input   66.30 | X-H torsion
[ 10763 10752 10751 10750 ] final  -46.29 input  -60.55 | X-H torsion
[ 11005 11000 10999 10996 ] final  144.33 input  -57.11 | X-H torsion

> <Gold.Protein.ActiveResidues>
 VAL166  LYS551  ARG553  GLY616  TRP617  ASP618  TYR619  PRO620  LYS621  CYS622 
 ASP623  PHE694  ASN695  SER759  ASP760  ASP761  ALA762  ILE779  LEU786  VAL792 
 PHE793  MET794  SER795  GLU796  ALA797  LYS798  CYS799  TRP800  GLU811  SER814 

> <Gold.Protein.RotatedAtoms>
  150.7975  134.7045  159.6568 H   0  0  0  0  0  0  0  0  0  0  0  0  # atno 6907 bound_to 6896
  152.4089  134.6156  160.0047 H   0  0  0  0  0  0  0  0  0  0  0  0  # atno 6908 bound_to 6896
  151.6405  133.3289  159.3165 H   0  0  0  0  0  0  0  0  0  0  0  0  # atno 6909 bound_to 6896
  145.8983  139.3562  143.0608 H   0  0  0  0  0  0  0  0  0  0  0  0  # atno 7974 bound_to 7965
  154.5336  140.2263  155.8762 H   0  0  0  0  0  0  0  0  0  0  0  0  # atno 8008 bound_to 7997
  156.1789  140.3105  155.9074 H   0  0  0  0  0  0  0  0  0  0  0  0  # atno 8009 bound_to 7997
  155.3401  140.0450  157.3035 H   0  0  0  0  0  0  0  0  0  0  0  0  # atno 8010 bound_to 7997
  140.4003  143.2666  151.9152 H   0  0  0  0  0  0  0  0  0  0  0  0  # atno 10167 bound_to 10162
  157.6680  130.9782  150.1522 H   0  0  0  0  0  0  0  0  0  0  0  0  # atno 10718 bound_to 10713
  154.0426  135.6642  153.4791 H   0  0  0  0  0  0  0  0  0  0  0  0  # atno 10763 bound_to 10752
  153.0495  135.5093  154.7828 H   0  0  0  0  0  0  0  0  0  0  0  0  # atno 10764 bound_to 10752
  154.6808  135.3045  154.9581 H   0  0  0  0  0  0  0  0  0  0  0  0  # atno 10765 bound_to 10752
  140.0624  134.9197  157.1206 H   0  0  0  0  0  0  0  0  0  0  0  0  # atno 11005 bound_to 11000
  145.8823  140.9355  143.0595 LP  0  0  0  0  0  0  0  0  0  0  0  0  # atno 17320 bound_to 7965
  144.6734  140.0796  143.7470 LP  0  0  0  0  0  0  0  0  0  0  0  0  # atno 17321 bound_to 7965
  139.4785  144.5641  151.8193 LP  0  0  0  0  0  0  0  0  0  0  0  0  # atno 17342 bound_to 10162
  140.4747  144.1536  150.5923 LP  0  0  0  0  0  0  0  0  0  0  0  0  # atno 17343 bound_to 10162
  156.2318  130.3683  149.8436 LP  0  0  0  0  0  0  0  0  0  0  0  0  # atno 17370 bound_to 10713
  156.6260  130.8646  151.3485 LP  0  0  0  0  0  0  0  0  0  0  0  0  # atno 17371 bound_to 10713
  140.3751  134.2348  155.7175 LP  0  0  0  0  0  0  0  0  0  0  0  0  # atno 17394 bound_to 11000
  141.1978  133.8049  157.0609 LP  0  0  0  0  0  0  0  0  0  0  0  0  # atno 17395 bound_to 11000

$$$$
