AV-unprocessed.smi:1352|AV-procd|sdf|5529|dock8
  -GOLD-   22720 5123D 1   1.00000     0.00000
 Structure written by MMmdl.
 47 48  0  0  0  0  0  0  0  0  2 V2000
  146.1111  131.3215  152.2156 C   0  0  0  0  0  0  0  0  0  0  0  0
  147.0271  132.0548  153.2057 C   0  0  1  0  0  0  0  0  0  0  0  0
  148.3098  131.2505  153.4820 C   0  0  0  0  0  0  0  0  0  0  0  0
  149.2459  132.0129  154.4358 C   0  0  1  0  0  0  0  0  0  0  0  0
  150.5397  131.2286  154.6951 C   0  0  0  0  0  0  0  0  0  0  0  0
  149.5435  133.4181  153.8719 C   0  0  0  0  0  0  0  0  0  0  0  0
  148.3013  134.1945  153.6188 N   0  3  2  0  0  0  0  0  0  0  0  0
  147.6676  134.7207  154.8573 C   0  0  0  0  0  0  0  0  0  0  0  0
  148.7030  135.2676  155.8586 C   0  0  0  0  0  0  0  0  0  0  0  0
  149.3409  136.4813  155.3621 N   0  0  0  0  0  0  0  0  0  0  0  0
  150.6655  136.6868  155.3080 C   0  0  0  0  0  0  0  0  0  0  0  0
  151.4895  135.8604  155.7025 O   0  0  0  0  0  0  0  0  0  0  0  0
  151.1140  138.0415  154.7406 C   0  0  0  0  0  0  0  0  0  0  0  0
  150.7674  139.1818  155.6053 N   0  0  0  0  0  0  0  0  0  0  0  0
  149.5471  139.8371  155.3454 C   0  0  0  0  0  0  0  0  0  0  0  0
  149.1357  140.8870  156.0736 C   0  0  0  0  0  0  0  0  0  0  0  0
  149.9819  141.3442  157.1505 C   0  0  0  0  0  0  0  0  0  0  0  0
  151.1493  140.7224  157.4101 C   0  0  0  0  0  0  0  0  0  0  0  0
  151.6013  139.5724  156.6184 C   0  0  0  0  0  0  0  0  0  0  0  0
  152.6636  138.9947  156.8516 O   0  0  0  0  0  0  0  0  0  0  0  0
  147.3788  133.4718  152.7004 C   0  0  0  0  0  0  0  0  0  0  0  0
  146.5959  131.1904  151.2475 H   0  0  0  0  0  0  0  0  0  0  0  0
  145.1861  131.8751  152.0522 H   0  0  0  0  0  0  0  0  0  0  0  0
  145.8409  130.3332  152.5888 H   0  0  0  0  0  0  0  0  0  0  0  0
  146.4756  132.1434  154.1419 H   0  0  0  0  0  0  0  0  0  0  0  0
  148.0542  130.2798  153.9091 H   0  0  0  0  0  0  0  0  0  0  0  0
  148.8274  131.0484  152.5430 H   0  0  0  0  0  0  0  0  0  0  0  0
  148.7383  132.1245  155.3948 H   0  0  0  0  0  0  0  0  0  0  0  0
  151.1042  131.0772  153.7744 H   0  0  0  0  0  0  0  0  0  0  0  0
  150.3255  130.2469  155.1189 H   0  0  0  0  0  0  0  0  0  0  0  0
  151.1850  131.7562  155.3984 H   0  0  0  0  0  0  0  0  0  0  0  0
  150.2013  133.9724  154.5427 H   0  0  0  0  0  0  0  0  0  0  0  0
  150.0855  133.3260  152.9296 H   0  0  0  0  0  0  0  0  0  0  0  0
  146.9246  135.4819  154.6206 H   0  0  0  0  0  0  0  0  0  0  0  0
  147.1224  133.9091  155.3403 H   0  0  0  0  0  0  0  0  0  0  0  0
  148.2351  135.4625  156.8252 H   0  0  0  0  0  0  0  0  0  0  0  0
  149.4932  134.5396  156.0374 H   0  0  0  0  0  0  0  0  0  0  0  0
  148.7333  137.2120  155.0201 H   0  0  0  0  0  0  0  0  0  0  0  0
  152.1912  138.0213  154.5639 H   0  0  0  0  0  0  0  0  0  0  0  0
  150.6655  138.1602  153.7534 H   0  0  0  0  0  0  0  0  0  0  0  0
  148.9701  139.4306  154.5275 H   0  0  0  0  0  0  0  0  0  0  0  0
  148.1955  141.3748  155.8620 H   0  0  0  0  0  0  0  0  0  0  0  0
  149.6770  142.1879  157.7518 H   0  0  0  0  0  0  0  0  0  0  0  0
  151.7688  141.0779  158.2204 H   0  0  0  0  0  0  0  0  0  0  0  0
  147.8683  133.3963  151.7284 H   0  0  0  0  0  0  0  0  0  0  0  0
  146.4724  134.0516  152.5306 H   0  0  0  0  0  0  0  0  0  0  0  0
  148.6039  135.0181  153.1182 H   0  0  0  0  0  0  0  0  0  0  0  0
  1  2  1  0  0  0  0
  1 22  1  0  0  0  0
  1 23  1  0  0  0  0
  1 24  1  0  0  0  0
  2 21  1  0  0  0  0
  2  3  1  0  0  0  0
  2 25  1  0  0  0  0
  3  4  1  0  0  0  0
  3 26  1  0  0  0  0
  3 27  1  0  0  0  0
  4  5  1  0  0  0  0
  4  6  1  0  0  0  0
  4 28  1  0  0  0  0
  5 29  1  0  0  0  0
  5 30  1  0  0  0  0
  5 31  1  0  0  0  0
  6  7  1  0  0  0  0
  6 32  1  0  0  0  0
  6 33  1  0  0  0  0
  7  8  1  0  0  0  0
  7 21  1  0  0  0  0
  7 47  1  0  0  0  0
  8  9  1  0  0  0  0
  8 34  1  0  0  0  0
  8 35  1  0  0  0  0
  9 10  1  0  0  0  0
  9 36  1  0  0  0  0
  9 37  1  0  0  0  0
 10 11  1  0  0  0  0
 10 38  1  0  0  0  0
 11 12  2  0  0  0  0
 11 13  1  0  0  0  0
 13 14  1  0  0  0  0
 13 39  1  0  0  0  0
 13 40  1  0  0  0  0
 14 19  1  0  0  0  0
 14 15  1  0  0  0  0
 15 16  2  0  0  0  0
 15 41  1  0  0  0  0
 16 17  1  0  0  0  0
 16 42  1  0  0  0  0
 17 18  2  0  0  0  0
 17 43  1  0  0  0  0
 18 19  1  0  0  0  0
 18 44  1  0  0  0  0
 19 20  2  0  0  0  0
 21 45  1  0  0  0  0
 21 46  1  0  0  0  0
M  CHG  1   7   1
M  END
> <s_m_source_file>
AV-unprocessed.smi

> <i_m_source_file_index>
1352

> <i_lp_mmshare_version>
43012

> <i_f3d_flags>
0

> <s_epik_input>
W0NIM11bQ0BASF0xW0NIMl1bQ0BASF0oW0NIM10pW0NIMl1OKFtDSDJdMSlbQ0gyXVtDSDJdW05IXUMoPU8pW0NIMl1uMltjSF1bY0hdW2NIXVtjSF1jMj1P

> <s_epik_cmdline>
J2VwaWtfcHl0aG9uJywgJy1waCcsICc3LjAnLCAnLXRuJywgJzgnLCAnLW1hJywgJzIwMCcsICctbWV0YWxfYmluZGluZycsICctaW1hZScsICc8aW5maWxlLm1hZT4nLCAnLW9tYWUnLCAnPG91dGZpbGUubWFlPic=

> <r_lp_tautomer_probability>
1

> <r_epik_Ionization_Penalty>
0.00156146

> <r_epik_Ionization_Penalty_Charging>
0.00156138

> <r_epik_Ionization_Penalty_Neutral>
8.12891e-08

> <r_epik_State_Penalty>
0.00104868

> <r_epik_Charging_Adjusted_Penalty>
0.00261006

> <i_epik_Tot_Q>
1

> <i_epik_Tot_abs_Q>
1

> <r_epik_Metal_State_Penalty>
-0

> <b_epik_Metal_Only>
0

> <s_lp_Force_Field>
OPLS_2005

> <r_lp_Energy>
27.4422

> <b_lp_Chiralities_Consistent>
1

> <s_lp_Variant>
AV-unprocessed.smi:1352-2

> <Gold.Version>
5.8.1

> <Gold.Id.Protein>
6NUR|6NUR_protein|mol2

> <Gold.PLP.Fitness>
54.6167

> <Gold.PLP.PLP>
-41.5944

> <Gold.PLP.part.hbond>
-3.9942

> <Gold.PLP.part.metal>
0.0000

> <Gold.PLP.part.buried>
-1.5111

> <Gold.PLP.part.nonpolar>
-34.7621

> <Gold.PLP.part.repulsive>
0.1054

> <Gold.PLP.ligand.clash>
0.0000

> <Gold.PLP.ligand.torsion>
0.5906

> <Gold.PLP.Chemscore.Hbond>
3.9280

> <Gold.PLP.Chemscore.CHOScore>
0.7884

> <Gold.PLP.Chemscore.Metal>
0.0000

> <Gold.Chemscore.Hbonds>
donor molecule, donor type, donor heavy atom, donor atom, acceptor molecule, acceptor atom, score
      L1  H     7    47       P1  7948  2.00
      P1  H  7997  8010       L1    20  0.89
      P1  H 10752 10764       L1    12  0.74

> <Gold.PLP.Chemscore.Internal.Correction>
0.0544

> <Gold.Rescore>
     Score         DG    S(hbond)    S(metal)    S(lipo)     H(rot)  DE(clash)    DE(int)     intcor
     17.71     -18.40       2.91        0.00      67.31       1.83       0.08       0.61       ----

> <Gold.Chemscore.Fitness>
17.7130

> <Gold.Chemscore.DG>
-18.3959

> <Gold.Chemscore.ZeroCoef>
-5.4800

> <Gold.Chemscore.Hbond>
2.9139

> <Gold.Chemscore.Metal>
0.0000

> <Gold.Chemscore.Lipo>
67.3124

> <Gold.Chemscore.Internal_Hbond>
0.0000

> <Gold.Chemscore.DEClash>
0.0765

> <Gold.Chemscore.DEInternal>
0.6064

> <Gold.Chemscore.Rot>
1.8329

> <Gold.Chemscore.Internal.Correction>
   9.000000E+99

> <Gold.Chemscore.Hbonds>
donor molecule, donor type, donor heavy atom, donor atom, acceptor molecule, acceptor atom, score
      L1  H     7    47       P1  7948  0.60
      P1  H  7997  8010       L1    20  0.76
      P1  H 10752 10764       L1    12  0.60

> <Gold.Chemscore.Hbond.Weighted>
-9.7326

> <Gold.Chemscore.Metal.Weighted>
-0.0000

> <Gold.Chemscore.Lipo.Weighted>
-7.8756

> <Gold.Chemscore.Internal_Hbond.Weighted>
0.0000

> <Gold.Chemscore.DEClash.Weighted>
0.0765

> <Gold.Chemscore.DEInternal.Weighted>
0.6064

> <Gold.Chemscore.Rot.Weighted>
4.6922

> <Gold.Chemscore.Internal.Correction.Weighted>
   9.000000E+99

> <Gold.Protein.RotatedTorsions>
[ 6907 6896 6895 6894 ] final  116.55 input  -60.11 | X-H torsion
[ 7974 7965 7964 7962 ] final   36.09 input  175.53 | X-H torsion
[ 8008 7997 7996 7995 ] final   76.53 input   59.86 | X-H torsion
[ 10167 10162 10161 10158 ] final -128.95 input  -65.29 | X-H torsion
[ 10718 10713 10712 10709 ] final -131.63 input   66.30 | X-H torsion
[ 10763 10752 10751 10750 ] final  -72.62 input  -60.55 | X-H torsion
[ 11005 11000 10999 10996 ] final   12.23 input  -57.11 | X-H torsion

> <Gold.Protein.ActiveResidues>
 VAL166  LYS551  ARG553  GLY616  TRP617  ASP618  TYR619  PRO620  LYS621  CYS622 
 ASP623  PHE694  ASN695  SER759  ASP760  ASP761  ALA762  ILE779  LEU786  VAL792 
 PHE793  MET794  SER795  GLU796  ALA797  LYS798  CYS799  TRP800  GLU811  SER814 

> <Gold.Protein.RotatedAtoms>
  152.4670  133.7946  159.6919 H   0  0  0  0  0  0  0  0  0  0  0  0  # atno 6907 bound_to 6896
  150.8640  133.7592  159.2989 H   0  0  0  0  0  0  0  0  0  0  0  0  # atno 6908 bound_to 6896
  151.5148  135.1069  159.9915 H   0  0  0  0  0  0  0  0  0  0  0  0  # atno 6909 bound_to 6896
  146.1236  139.6061  142.9273 H   0  0  0  0  0  0  0  0  0  0  0  0  # atno 7974 bound_to 7965
  155.8287  140.3467  155.5558 H   0  0  0  0  0  0  0  0  0  0  0  0  # atno 8008 bound_to 7997
  155.8265  140.0920  157.1838 H   0  0  0  0  0  0  0  0  0  0  0  0  # atno 8009 bound_to 7997
  154.4004  140.1420  156.3550 H   0  0  0  0  0  0  0  0  0  0  0  0  # atno 8010 bound_to 7997
  139.9449  143.6121  152.2493 H   0  0  0  0  0  0  0  0  0  0  0  0  # atno 10167 bound_to 10162
  156.2263  130.7010  151.0811 H   0  0  0  0  0  0  0  0  0  0  0  0  # atno 10718 bound_to 10713
  154.4483  135.5924  153.6174 H   0  0  0  0  0  0  0  0  0  0  0  0  # atno 10763 bound_to 10752
  152.9811  135.6014  154.3637 H   0  0  0  0  0  0  0  0  0  0  0  0  # atno 10764 bound_to 10752
  154.3495  135.2841  155.2358 H   0  0  0  0  0  0  0  0  0  0  0  0  # atno 10765 bound_to 10752
  140.4943  134.0809  155.7778 H   0  0  0  0  0  0  0  0  0  0  0  0  # atno 11005 bound_to 11000
  145.5413  141.0420  143.2329 LP  0  0  0  0  0  0  0  0  0  0  0  0  # atno 17320 bound_to 7965
  144.7621  139.6932  143.7230 LP  0  0  0  0  0  0  0  0  0  0  0  0  # atno 17321 bound_to 7965
  139.6675  144.7662  151.1846 LP  0  0  0  0  0  0  0  0  0  0  0  0  # atno 17342 bound_to 10162
  140.7600  143.5916  150.8790 LP  0  0  0  0  0  0  0  0  0  0  0  0  # atno 17343 bound_to 10162
  157.7112  131.0733  150.6493 LP  0  0  0  0  0  0  0  0  0  0  0  0  # atno 17370 bound_to 10713
  156.6558  130.4498  149.5704 LP  0  0  0  0  0  0  0  0  0  0  0  0  # atno 17371 bound_to 10713
  141.1468  133.9041  157.2196 LP  0  0  0  0  0  0  0  0  0  0  0  0  # atno 17394 bound_to 11000
  139.9750  135.0116  156.9609 LP  0  0  0  0  0  0  0  0  0  0  0  0  # atno 17395 bound_to 11000

$$$$
