AV-unprocessed.smi:1022|AV-procd|sdf|4459|dock6
  -GOLD-   22720 2433D 1   1.00000     0.00000
 Structure written by MMmdl.
 33 34  0  0  0  0  0  0  0  0  1 V2000
  145.8441  133.7029  151.2284 C   0  0  0  0  0  0  0  0  0  0  0  0
  145.8213  134.7766  152.1525 O   0  0  0  0  0  0  0  0  0  0  0  0
  144.9756  135.8362  151.7348 C   0  0  0  0  0  0  0  0  0  0  0  0
  145.1524  137.0350  152.6793 C   0  0  1  0  0  0  0  0  0  0  0  0
  144.5258  136.7623  154.0565 C   0  0  0  0  0  0  0  0  0  0  0  0
  146.5744  137.3383  152.8219 N   0  0  0  0  0  0  0  0  0  0  0  0
  147.0893  138.2820  153.6235 C   0  0  0  0  0  0  0  0  0  0  0  0
  146.4052  139.0005  154.3530 O   0  0  0  0  0  0  0  0  0  0  0  0
  148.4290  138.3305  153.5186 N   0  0  0  0  0  0  0  0  0  0  0  0
  149.3357  139.1763  154.2108 C   0  0  0  0  0  0  0  0  0  0  0  0
  150.6662  139.0178  154.1895 N   0  0  0  0  0  0  0  0  0  0  0  0
  151.3154  139.9848  154.9443 N   0  0  0  0  0  0  0  0  0  0  0  0
  150.4606  140.8422  155.5152 C   0  0  0  0  0  0  0  0  0  0  0  0
  150.9210  141.9717  156.3753 C   0  0  0  0  0  0  0  0  0  0  0  0
  151.7274  141.7125  157.6275 C   0  0  0  0  0  0  0  0  0  0  0  0
  150.3146  142.2265  157.7381 C   0  0  0  0  0  0  0  0  0  0  0  0
  148.7626  140.5330  155.1656 S   0  0  0  0  0  0  0  0  0  0  0  0
  146.5049  132.9177  151.5955 H   0  0  0  0  0  0  0  0  0  0  0  0
  146.2145  134.0266  150.2548 H   0  0  0  0  0  0  0  0  0  0  0  0
  144.8500  133.2723  151.0997 H   0  0  0  0  0  0  0  0  0  0  0  0
  145.2360  136.1255  150.7152 H   0  0  0  0  0  0  0  0  0  0  0  0
  143.9341  135.5098  151.7246 H   0  0  0  0  0  0  0  0  0  0  0  0
  144.6445  137.8925  152.2336 H   0  0  0  0  0  0  0  0  0  0  0  0
  143.4619  136.5424  153.9654 H   0  0  0  0  0  0  0  0  0  0  0  0
  144.6248  137.6250  154.7160 H   0  0  0  0  0  0  0  0  0  0  0  0
  145.0004  135.9119  154.5471 H   0  0  0  0  0  0  0  0  0  0  0  0
  147.2101  136.7982  152.2532 H   0  0  0  0  0  0  0  0  0  0  0  0
  148.8506  137.6837  152.8687 H   0  0  0  0  0  0  0  0  0  0  0  0
  151.1856  142.8347  155.7672 H   0  0  0  0  0  0  0  0  0  0  0  0
  151.9081  140.6762  157.9073 H   0  0  0  0  0  0  0  0  0  0  0  0
  152.5345  142.4055  157.8565 H   0  0  0  0  0  0  0  0  0  0  0  0
  150.1790  143.2632  158.0395 H   0  0  0  0  0  0  0  0  0  0  0  0
  149.5618  141.5322  158.1062 H   0  0  0  0  0  0  0  0  0  0  0  0
  1  2  1  0  0  0  0
  1 18  1  0  0  0  0
  1 19  1  0  0  0  0
  1 20  1  0  0  0  0
  2  3  1  0  0  0  0
  3  4  1  0  0  0  0
  3 21  1  0  0  0  0
  3 22  1  0  0  0  0
  4  5  1  0  0  0  0
  4  6  1  0  0  0  0
  4 23  1  0  0  0  0
  5 24  1  0  0  0  0
  5 25  1  0  0  0  0
  5 26  1  0  0  0  0
  6  7  1  0  0  0  0
  6 27  1  0  0  0  0
  7  8  2  0  0  0  0
  7  9  1  0  0  0  0
  9 10  1  0  0  0  0
  9 28  1  0  0  0  0
 10 17  1  0  0  0  0
 10 11  2  0  0  0  0
 11 12  1  0  0  0  0
 12 13  2  0  0  0  0
 13 14  1  0  0  0  0
 13 17  1  0  0  0  0
 14 16  1  0  0  0  0
 14 15  1  0  0  0  0
 14 29  1  0  0  0  0
 15 16  1  0  0  0  0
 15 30  1  0  0  0  0
 15 31  1  0  0  0  0
 16 32  1  0  0  0  0
 16 33  1  0  0  0  0
M  END
> <s_m_source_file>
AV-unprocessed.smi

> <i_m_source_file_index>
1022

> <i_lp_mmshare_version>
43012

> <i_f3d_flags>
0

> <s_epik_input>
W0NIM11PW0NIMl1bQ0BIXShbQ0gzXSlbTkhdQyg9TylbTkhdYzFubmMoczEpW0NIXTJbQ0gyXVtDSDJdMg==

> <s_epik_cmdline>
J2VwaWtfcHl0aG9uJywgJy1waCcsICc3LjAnLCAnLXRuJywgJzgnLCAnLW1hJywgJzIwMCcsICctbWV0YWxfYmluZGluZycsICctaW1hZScsICc8aW5maWxlLm1hZT4nLCAnLW9tYWUnLCAnPG91dGZpbGUubWFlPic=

> <r_lp_tautomer_probability>
1

> <r_epik_Ionization_Penalty>
0.00129266

> <r_epik_Ionization_Penalty_Charging>
0

> <r_epik_Ionization_Penalty_Neutral>
0.00129266

> <r_epik_State_Penalty>
-0

> <r_epik_Charging_Adjusted_Penalty>
0

> <i_epik_Tot_Q>
0

> <i_epik_Tot_abs_Q>
0

> <r_epik_Metal_State_Penalty>
0.30857

> <b_epik_Metal_Only>
0

> <s_lp_Force_Field>
OPLS_2005

> <r_lp_Energy>
1.4297

> <b_lp_Chiralities_Consistent>
1

> <s_lp_Variant>
AV-unprocessed.smi:1022-2

> <Gold.Version>
5.8.1

> <Gold.Id.Protein>
6NUR|6NUR_protein|mol2

> <Gold.PLP.Fitness>
33.1262

> <Gold.PLP.PLP>
-26.3536

> <Gold.PLP.part.hbond>
-4.6563

> <Gold.PLP.part.metal>
0.0000

> <Gold.PLP.part.buried>
-2.4831

> <Gold.PLP.part.nonpolar>
-19.6119

> <Gold.PLP.part.repulsive>
0.6041

> <Gold.PLP.ligand.clash>
0.0000

> <Gold.PLP.ligand.torsion>
0.2266

> <Gold.PLP.Chemscore.Hbond>
2.3600

> <Gold.PLP.Chemscore.CHOScore>
0.0000

> <Gold.PLP.Chemscore.Metal>
0.0000

> <Gold.Chemscore.Hbonds>
donor molecule, donor type, donor heavy atom, donor atom, acceptor molecule, acceptor atom, score
      L1  H     6    27       P1  7948  1.00
      L1  H     9    28       P1  7948  1.00
      P1  H  7989  7998       L1    12  0.48

> <Gold.PLP.Chemscore.Internal.Correction>
0.1459

> <Gold.Rescore>
     Score         DG    S(hbond)    S(metal)    S(lipo)     H(rot)  DE(clash)    DE(int)     intcor
     11.59     -14.02       1.96        0.00      54.90       1.73       0.03       2.40       ----

> <Gold.Chemscore.Fitness>
11.5911

> <Gold.Chemscore.DG>
-14.0204

> <Gold.Chemscore.ZeroCoef>
-5.4800

> <Gold.Chemscore.Hbond>
1.9612

> <Gold.Chemscore.Metal>
0.0000

> <Gold.Chemscore.Lipo>
54.9019

> <Gold.Chemscore.Internal_Hbond>
0.0000

> <Gold.Chemscore.DEClash>
0.0306

> <Gold.Chemscore.DEInternal>
2.3987

> <Gold.Chemscore.Rot>
1.7318

> <Gold.Chemscore.Internal.Correction>
   9.000000E+99

> <Gold.Chemscore.Hbonds>
donor molecule, donor type, donor heavy atom, donor atom, acceptor molecule, acceptor atom, score
      L1  H     6    27       P1  7948  0.95
      L1  H     9    28       P1  7948  0.99

> <Gold.Chemscore.Hbond.Weighted>
-6.5504

> <Gold.Chemscore.Metal.Weighted>
-0.0000

> <Gold.Chemscore.Lipo.Weighted>
-6.4235

> <Gold.Chemscore.Internal_Hbond.Weighted>
0.0000

> <Gold.Chemscore.DEClash.Weighted>
0.0306

> <Gold.Chemscore.DEInternal.Weighted>
2.3987

> <Gold.Chemscore.Rot.Weighted>
4.4335

> <Gold.Chemscore.Internal.Correction.Weighted>
   9.000000E+99

> <Gold.Protein.RotatedTorsions>
[ 6907 6896 6895 6894 ] final  107.99 input  -60.11 | X-H torsion
[ 7974 7965 7964 7962 ] final   36.81 input  175.53 | X-H torsion
[ 8008 7997 7996 7995 ] final  -86.77 input   59.86 | X-H torsion
[ 10167 10162 10161 10158 ] final  -54.70 input  -65.29 | X-H torsion
[ 10718 10713 10712 10709 ] final  124.96 input   66.30 | X-H torsion
[ 10763 10752 10751 10750 ] final   59.91 input  -60.55 | X-H torsion
[ 11005 11000 10999 10996 ] final   43.86 input  -57.11 | X-H torsion

> <Gold.Protein.ActiveResidues>
 VAL166  LYS551  ARG553  GLY616  TRP617  ASP618  TYR619  PRO620  LYS621  CYS622 
 ASP623  PHE694  ASN695  SER759  ASP760  ASP761  ALA762  ILE779  LEU786  VAL792 
 PHE793  MET794  SER795  GLU796  ALA797  LYS798  CYS799  TRP800  GLU811  SER814 

> <Gold.Protein.RotatedAtoms>
  152.5131  133.9154  159.7508 H   0  0  0  0  0  0  0  0  0  0  0  0  # atno 6907 bound_to 6896
  150.9538  133.6511  159.2774 H   0  0  0  0  0  0  0  0  0  0  0  0  # atno 6908 bound_to 6896
  151.3780  135.0940  159.9540 H   0  0  0  0  0  0  0  0  0  0  0  0  # atno 6909 bound_to 6896
  146.1184  139.5972  142.9306 H   0  0  0  0  0  0  0  0  0  0  0  0  # atno 7974 bound_to 7965
  154.6557  140.0574  157.0006 H   0  0  0  0  0  0  0  0  0  0  0  0  # atno 8008 bound_to 7997
  155.1304  140.3256  155.4457 H   0  0  0  0  0  0  0  0  0  0  0  0  # atno 8009 bound_to 7997
  156.2596  140.1982  156.6423 H   0  0  0  0  0  0  0  0  0  0  0  0  # atno 8010 bound_to 7997
  140.6416  143.2511  151.4973 H   0  0  0  0  0  0  0  0  0  0  0  0  # atno 10167 bound_to 10162
  157.5543  131.1092  150.8649 H   0  0  0  0  0  0  0  0  0  0  0  0  # atno 10718 bound_to 10713
  152.9907  135.5555  154.5790 H   0  0  0  0  0  0  0  0  0  0  0  0  # atno 10763 bound_to 10752
  154.5175  135.2806  155.1293 H   0  0  0  0  0  0  0  0  0  0  0  0  # atno 10764 bound_to 10752
  154.2660  135.6372  153.5345 H   0  0  0  0  0  0  0  0  0  0  0  0  # atno 10765 bound_to 10752
  140.1605  134.4347  155.8321 H   0  0  0  0  0  0  0  0  0  0  0  0  # atno 11005 bound_to 11000
  145.5518  141.0412  143.2274 LP  0  0  0  0  0  0  0  0  0  0  0  0  # atno 17320 bound_to 7965
  144.7574  139.7040  143.7248 LP  0  0  0  0  0  0  0  0  0  0  0  0  # atno 17321 bound_to 7965
  139.5625  144.2121  152.1714 LP  0  0  0  0  0  0  0  0  0  0  0  0  # atno 17342 bound_to 10162
  140.1393  144.5217  150.6754 LP  0  0  0  0  0  0  0  0  0  0  0  0  # atno 17343 bound_to 10162
  156.9165  130.5299  149.5279 LP  0  0  0  0  0  0  0  0  0  0  0  0  # atno 17370 bound_to 10713
  156.0604  130.5658  150.9180 LP  0  0  0  0  0  0  0  0  0  0  0  0  # atno 17371 bound_to 10713
  141.2209  133.6911  156.7585 LP  0  0  0  0  0  0  0  0  0  0  0  0  # atno 17394 bound_to 11000
  140.2495  134.8551  157.3654 LP  0  0  0  0  0  0  0  0  0  0  0  0  # atno 17395 bound_to 11000

$$$$
