AV-unprocessed.smi:3264|AV-procd|sdf|12494|dock8
  -GOLD-   2272018393D 1   1.00000     0.00000
 Structure written by MMmdl.
 32 33  0  0  0  0  0  0  0  0  1 V2000
  153.8375  141.2502  161.3715 C   0  0  0  0  0  0  0  0  0  0  0  0
  152.9731  142.3510  160.8598 C   0  0  0  0  0  0  0  0  0  0  0  0
  152.4846  142.3873  159.6175 N   0  0  0  0  0  0  0  0  0  0  0  0
  151.6990  143.5200  159.3809 C   0  0  0  0  0  0  0  0  0  0  0  0
  151.0646  143.7238  158.0385 C   0  0  0  0  0  0  0  0  0  0  0  0
  151.0814  142.4427  157.1880 C   0  0  0  0  0  0  0  0  0  0  0  0
  150.0044  142.4348  156.2047 N   0  0  0  0  0  0  0  0  0  0  0  0
  149.8122  141.4841  155.2776 C   0  0  0  0  0  0  0  0  0  0  0  0
  150.5452  140.5019  155.1557 O   0  0  0  0  0  0  0  0  0  0  0  0
  148.6154  141.6825  154.3404 C   0  0  2  0  0  0  0  0  0  0  0  0
  147.2626  141.8261  155.0639 C   0  0  0  0  0  0  0  0  0  0  0  0
  146.5054  140.5723  154.6695 C   0  0  0  0  0  0  0  0  0  0  0  0
  147.1201  140.2436  153.3168 C   0  0  0  0  0  0  0  0  0  0  0  0
  148.4957  140.5223  153.5204 O   0  0  0  0  0  0  0  0  0  0  0  0
  151.5975  144.3458  160.4725 C   0  0  0  0  0  0  0  0  0  0  0  0
  152.4873  143.7301  161.8380 S   0  0  0  0  0  0  0  0  0  0  0  0
  154.4285  140.8219  160.5613 H   0  0  0  0  0  0  0  0  0  0  0  0
  153.2202  140.4660  161.8093 H   0  0  0  0  0  0  0  0  0  0  0  0
  154.5166  141.6296  162.1351 H   0  0  0  0  0  0  0  0  0  0  0  0
  150.0371  144.0667  158.1662 H   0  0  0  0  0  0  0  0  0  0  0  0
  151.5801  144.5220  157.5031 H   0  0  0  0  0  0  0  0  0  0  0  0
  152.0269  142.3658  156.6504 H   0  0  0  0  0  0  0  0  0  0  0  0
  151.0141  141.5593  157.8253 H   0  0  0  0  0  0  0  0  0  0  0  0
  149.3596  143.2116  156.2270 H   0  0  0  0  0  0  0  0  0  0  0  0
  148.7791  142.5512  153.7003 H   0  0  0  0  0  0  0  0  0  0  0  0
  147.3420  141.9291  156.1469 H   0  0  0  0  0  0  0  0  0  0  0  0
  146.7408  142.7091  154.6928 H   0  0  0  0  0  0  0  0  0  0  0  0
  146.7145  139.7700  155.3784 H   0  0  0  0  0  0  0  0  0  0  0  0
  145.4259  140.7192  154.6246 H   0  0  0  0  0  0  0  0  0  0  0  0
  146.9588  139.2075  153.0185 H   0  0  0  0  0  0  0  0  0  0  0  0
  146.7240  140.8963  152.5374 H   0  0  0  0  0  0  0  0  0  0  0  0
  151.0531  145.2748  160.5565 H   0  0  0  0  0  0  0  0  0  0  0  0
  1  2  1  0  0  0  0
  1 17  1  0  0  0  0
  1 18  1  0  0  0  0
  1 19  1  0  0  0  0
  2 16  1  0  0  0  0
  2  3  2  0  0  0  0
  3  4  1  0  0  0  0
  4  5  1  0  0  0  0
  4 15  2  0  0  0  0
  5  6  1  0  0  0  0
  5 20  1  0  0  0  0
  5 21  1  0  0  0  0
  6  7  1  0  0  0  0
  6 22  1  0  0  0  0
  6 23  1  0  0  0  0
  7  8  1  0  0  0  0
  7 24  1  0  0  0  0
  8  9  2  0  0  0  0
  8 10  1  0  0  0  0
 10 14  1  0  0  0  0
 10 11  1  0  0  0  0
 10 25  1  0  0  0  0
 11 12  1  0  0  0  0
 11 26  1  0  0  0  0
 11 27  1  0  0  0  0
 12 13  1  0  0  0  0
 12 28  1  0  0  0  0
 12 29  1  0  0  0  0
 13 14  1  0  0  0  0
 13 30  1  0  0  0  0
 13 31  1  0  0  0  0
 15 16  1  0  0  0  0
 15 32  1  0  0  0  0
M  END
> <s_m_source_file>
AV-unprocessed.smi

> <i_m_source_file_index>
3264

> <i_lp_mmshare_version>
43012

> <i_f3d_flags>
0

> <s_epik_input>
W0NIM11jMW5jKFtjSF1zMSlbQ0gyXVtDSDJdW05IXUMoPU8pW0NAQEhdMltDSDJdW0NIMl1bQ0gyXU8y

> <s_epik_cmdline>
J2VwaWtfcHl0aG9uJywgJy1waCcsICc3LjAnLCAnLXRuJywgJzgnLCAnLW1hJywgJzIwMCcsICctbWV0YWxfYmluZGluZycsICctaW1hZScsICc8aW5maWxlLm1hZT4nLCAnLW9tYWUnLCAnPG91dGZpbGUubWFlPic=

> <r_epik_Ionization_Penalty>
0.00112246

> <r_epik_Ionization_Penalty_Charging>
0

> <r_epik_Ionization_Penalty_Neutral>
0.00112246

> <r_epik_State_Penalty>
0.000737392

> <r_epik_Charging_Adjusted_Penalty>
0.000737392

> <i_epik_Tot_Q>
0

> <i_epik_Tot_abs_Q>
0

> <r_epik_Metal_State_Penalty>
-0

> <b_epik_Metal_Only>
0

> <s_lp_Force_Field>
OPLS_2005

> <r_lp_Energy>
12.7546

> <b_lp_Chiralities_Consistent>
1

> <s_lp_Variant>
AV-unprocessed.smi:3264-1

> <Gold.Version>
5.8.1

> <Gold.Id.Protein>
6NUR|6NUR_protein|mol2

> <Gold.PLP.Fitness>
42.0914

> <Gold.PLP.PLP>
-36.8958

> <Gold.PLP.part.hbond>
-2.0000

> <Gold.PLP.part.metal>
0.0000

> <Gold.PLP.part.buried>
-6.0509

> <Gold.PLP.part.nonpolar>
-32.0025

> <Gold.PLP.part.repulsive>
3.0599

> <Gold.PLP.ligand.clash>
0.0000

> <Gold.PLP.ligand.torsion>
0.3838

> <Gold.PLP.Chemscore.Hbond>
1.9833

> <Gold.PLP.Chemscore.CHOScore>
0.0000

> <Gold.PLP.Chemscore.Metal>
0.0000

> <Gold.Chemscore.Hbonds>
donor molecule, donor type, donor heavy atom, donor atom, acceptor molecule, acceptor atom, score
      L1  H     7    24       P1  8028  0.99
      P1  H  7989  7998       L1     9  0.99

> <Gold.PLP.Chemscore.Internal.Correction>
0.0131

> <Gold.Rescore>
     Score         DG    S(hbond)    S(metal)    S(lipo)     H(rot)  DE(clash)    DE(int)     intcor
     16.97     -18.55       1.62        0.00      98.70       1.52       1.30       0.27       ----

> <Gold.Chemscore.Fitness>
16.9744

> <Gold.Chemscore.DG>
-18.5454

> <Gold.Chemscore.ZeroCoef>
-5.4800

> <Gold.Chemscore.Hbond>
1.6164

> <Gold.Chemscore.Metal>
0.0000

> <Gold.Chemscore.Lipo>
98.6953

> <Gold.Chemscore.Internal_Hbond>
0.0000

> <Gold.Chemscore.DEClash>
1.2998

> <Gold.Chemscore.DEInternal>
0.2712

> <Gold.Chemscore.Rot>
1.5159

> <Gold.Chemscore.Internal.Correction>
   9.000000E+99

> <Gold.Chemscore.Hbonds>
donor molecule, donor type, donor heavy atom, donor atom, acceptor molecule, acceptor atom, score
      L1  H     7    24       P1  8028  0.94
      P1  H  7989  7998       L1     9  0.40

> <Gold.Chemscore.Hbond.Weighted>
-5.3987

> <Gold.Chemscore.Metal.Weighted>
-0.0000

> <Gold.Chemscore.Lipo.Weighted>
-11.5474

> <Gold.Chemscore.Internal_Hbond.Weighted>
0.0000

> <Gold.Chemscore.DEClash.Weighted>
1.2998

> <Gold.Chemscore.DEInternal.Weighted>
0.2712

> <Gold.Chemscore.Rot.Weighted>
3.8807

> <Gold.Chemscore.Internal.Correction.Weighted>
   9.000000E+99

> <Gold.Protein.RotatedTorsions>
[ 6907 6896 6895 6894 ] final   20.89 input  -60.11 | X-H torsion
[ 7974 7965 7964 7962 ] final -114.96 input  175.53 | X-H torsion
[ 8008 7997 7996 7995 ] final  -66.20 input   59.86 | X-H torsion
[ 10167 10162 10161 10158 ] final   86.50 input  -65.29 | X-H torsion
[ 10718 10713 10712 10709 ] final  -96.94 input   66.30 | X-H torsion
[ 10763 10752 10751 10750 ] final   35.84 input  -60.55 | X-H torsion
[ 11005 11000 10999 10996 ] final  -34.84 input  -57.11 | X-H torsion

> <Gold.Protein.ActiveResidues>
 VAL166  LYS551  ARG553  GLY616  TRP617  ASP618  TYR619  PRO620  LYS621  CYS622 
 ASP623  PHE694  ASN695  SER759  ASP760  ASP761  ALA762  ILE779  LEU786  VAL792 
 PHE793  MET794  SER795  GLU796  ALA797  LYS798  CYS799  TRP800  GLU811  SER814 

> <Gold.Protein.RotatedAtoms>
  151.9034  135.0369  160.0508 H   0  0  0  0  0  0  0  0  0  0  0  0  # atno 6907 bound_to 6896
  152.2339  133.5076  159.5240 H   0  0  0  0  0  0  0  0  0  0  0  0  # atno 6908 bound_to 6896
  150.7033  134.1096  159.4038 H   0  0  0  0  0  0  0  0  0  0  0  0  # atno 6909 bound_to 6896
  145.1140  140.8629  143.3853 H   0  0  0  0  0  0  0  0  0  0  0  0  # atno 7974 bound_to 7965
  154.4720  140.0917  156.7167 H   0  0  0  0  0  0  0  0  0  0  0  0  # atno 8008 bound_to 7997
  155.4699  140.3464  155.4306 H   0  0  0  0  0  0  0  0  0  0  0  0  # atno 8009 bound_to 7997
  156.1054  140.1433  156.9400 H   0  0  0  0  0  0  0  0  0  0  0  0  # atno 8010 bound_to 7997
  139.8869  144.6408  150.8781 H   0  0  0  0  0  0  0  0  0  0  0  0  # atno 10167 bound_to 10162
  156.0073  130.5173  150.6300 H   0  0  0  0  0  0  0  0  0  0  0  0  # atno 10718 bound_to 10713
  153.0102  135.6322  154.1890 H   0  0  0  0  0  0  0  0  0  0  0  0  # atno 10763 bound_to 10752
  154.1633  135.2822  155.3104 H   0  0  0  0  0  0  0  0  0  0  0  0  # atno 10764 bound_to 10752
  154.5965  135.5601  153.7391 H   0  0  0  0  0  0  0  0  0  0  0  0  # atno 10765 bound_to 10752
  140.9748  133.7089  156.1584 H   0  0  0  0  0  0  0  0  0  0  0  0  # atno 11005 bound_to 11000
  145.0814  139.2957  143.5781 LP  0  0  0  0  0  0  0  0  0  0  0  0  # atno 17320 bound_to 7965
  146.3525  140.0322  142.8649 LP  0  0  0  0  0  0  0  0  0  0  0  0  # atno 17321 bound_to 7965
  140.7734  143.3541  151.1956 LP  0  0  0  0  0  0  0  0  0  0  0  0  # atno 17342 bound_to 10162
  139.7145  143.9323  152.2961 LP  0  0  0  0  0  0  0  0  0  0  0  0  # atno 17343 bound_to 10162
  157.4100  131.0822  151.1230 LP  0  0  0  0  0  0  0  0  0  0  0  0  # atno 17370 bound_to 10713
  157.1864  130.6332  149.5689 LP  0  0  0  0  0  0  0  0  0  0  0  0  # atno 17371 bound_to 10713
  140.7275  134.4291  157.5569 LP  0  0  0  0  0  0  0  0  0  0  0  0  # atno 17394 bound_to 11000
  139.8926  134.8750  156.2262 LP  0  0  0  0  0  0  0  0  0  0  0  0  # atno 17395 bound_to 11000

$$$$
