AV-unprocessed.smi:1457|AV-procd|sdf|5920|dock2
  -GOLD-   22720 6 03D 1   1.00000     0.00000
 Structure written by MMmdl.
 36 37  0  0  0  0  0  0  0  0  2 V2000
  143.8164  143.2473  154.8109 C   0  0  0  0  0  0  0  0  0  0  0  0
  144.9336  142.3050  154.5849 N   0  3  2  0  0  0  0  0  0  0  0  0
  145.4016  141.6716  155.8429 C   0  0  0  0  0  0  0  0  0  0  0  0
  146.4723  140.6018  155.5605 C   0  0  0  0  0  0  0  0  0  0  0  0
  147.6541  141.1655  154.7515 C   0  0  2  0  0  0  0  0  0  0  0  0
  148.4602  142.0699  155.5728 N   0  0  0  0  0  0  0  0  0  0  0  0
  149.3291  141.7043  156.5267 C   0  0  0  0  0  0  0  0  0  0  0  0
  149.5523  140.5341  156.8350 O   0  0  0  0  0  0  0  0  0  0  0  0
  149.8938  142.7791  157.1031 N   0  0  0  0  0  0  0  0  0  0  0  0
  150.8942  142.8169  158.1118 C   0  0  0  0  0  0  0  0  0  0  0  0
  151.5358  144.0002  158.5522 C   0  0  0  0  0  0  0  0  0  0  0  0
  152.4938  143.9115  159.5802 C   0  0  0  0  0  0  0  0  0  0  0  0
  152.7713  142.6469  160.1343 C   0  0  0  0  0  0  0  0  0  0  0  0
  152.1593  141.5128  159.7330 N   0  0  0  0  0  0  0  0  0  0  0  0
  151.2408  141.6057  158.7479 C   0  0  0  0  0  0  0  0  0  0  0  0
  147.1372  141.8856  153.4929 C   0  0  0  0  0  0  0  0  0  0  0  0
  146.0480  142.9224  153.8234 C   0  0  0  0  0  0  0  0  0  0  0  0
  144.1308  144.0868  155.4324 H   0  0  0  0  0  0  0  0  0  0  0  0
  142.9847  142.7466  155.3078 H   0  0  0  0  0  0  0  0  0  0  0  0
  143.4479  143.6422  153.8635 H   0  0  0  0  0  0  0  0  0  0  0  0
  145.7960  142.4362  156.5144 H   0  0  0  0  0  0  0  0  0  0  0  0
  144.5561  141.2096  156.3543 H   0  0  0  0  0  0  0  0  0  0  0  0
  146.8270  140.1684  156.4966 H   0  0  0  0  0  0  0  0  0  0  0  0
  146.0168  139.7829  155.0021 H   0  0  0  0  0  0  0  0  0  0  0  0
  148.2684  140.3251  154.4241 H   0  0  0  0  0  0  0  0  0  0  0  0
  148.3457  143.0580  155.4019 H   0  0  0  0  0  0  0  0  0  0  0  0
  149.5387  143.6789  156.8145 H   0  0  0  0  0  0  0  0  0  0  0  0
  151.3031  144.9688  158.1379 H   0  0  0  0  0  0  0  0  0  0  0  0
  153.0006  144.7948  159.9399 H   0  0  0  0  0  0  0  0  0  0  0  0
  153.4993  142.5451  160.9256 H   0  0  0  0  0  0  0  0  0  0  0  0
  150.7683  140.6790  158.4562 H   0  0  0  0  0  0  0  0  0  0  0  0
  147.9630  142.3635  152.9641 H   0  0  0  0  0  0  0  0  0  0  0  0
  146.7256  141.1465  152.8042 H   0  0  0  0  0  0  0  0  0  0  0  0
  145.6629  143.3491  152.8965 H   0  0  0  0  0  0  0  0  0  0  0  0
  146.4720  143.7474  154.3980 H   0  0  0  0  0  0  0  0  0  0  0  0
  144.5667  141.5615  154.0074 H   0  0  0  0  0  0  0  0  0  0  0  0
  1  2  1  0  0  0  0
  1 18  1  0  0  0  0
  1 19  1  0  0  0  0
  1 20  1  0  0  0  0
  2 17  1  0  0  0  0
  2  3  1  0  0  0  0
  2 36  1  0  0  0  0
  3  4  1  0  0  0  0
  3 21  1  0  0  0  0
  3 22  1  0  0  0  0
  4  5  1  0  0  0  0
  4 23  1  0  0  0  0
  4 24  1  0  0  0  0
  5  6  1  0  0  0  0
  5 16  1  0  0  0  0
  5 25  1  0  0  0  0
  6  7  1  0  0  0  0
  6 26  1  0  0  0  0
  7  8  2  0  0  0  0
  7  9  1  0  0  0  0
  9 10  1  0  0  0  0
  9 27  1  0  0  0  0
 10 15  1  0  0  0  0
 10 11  2  0  0  0  0
 11 12  1  0  0  0  0
 11 28  1  0  0  0  0
 12 13  2  0  0  0  0
 12 29  1  0  0  0  0
 13 14  1  0  0  0  0
 13 30  1  0  0  0  0
 14 15  2  0  0  0  0
 15 31  1  0  0  0  0
 16 17  1  0  0  0  0
 16 32  1  0  0  0  0
 16 33  1  0  0  0  0
 17 34  1  0  0  0  0
 17 35  1  0  0  0  0
M  CHG  1   2   1
M  END
> <s_m_source_file>
AV-unprocessed.smi

> <i_m_source_file_index>
1457

> <i_lp_mmshare_version>
43012

> <i_f3d_flags>
0

> <s_epik_input>
W0NIM11OMVtDSDJdW0NIMl1bQ0hdKFtDSDJdW0NIMl0xKVtOSF1DKD1PKVtOSF1jMltjSF1bY0hdW2NIXW5bY0hdMg==

> <s_epik_cmdline>
J2VwaWtfcHl0aG9uJywgJy1waCcsICc3LjAnLCAnLXRuJywgJzgnLCAnLW1hJywgJzIwMCcsICctbWV0YWxfYmluZGluZycsICctaW1hZScsICc8aW5maWxlLm1hZT4nLCAnLW9tYWUnLCAnPG91dGZpbGUubWFlPic=

> <r_lp_tautomer_probability>
1

> <r_epik_Ionization_Penalty>
0.00766642

> <r_epik_Ionization_Penalty_Charging>
0.00366825

> <r_epik_Ionization_Penalty_Neutral>
0.00399817

> <r_epik_State_Penalty>
-0

> <r_epik_Charging_Adjusted_Penalty>
0.00366825

> <i_epik_Tot_Q>
1

> <i_epik_Tot_abs_Q>
1

> <r_epik_Metal_State_Penalty>
-0

> <b_epik_Metal_Only>
0

> <s_lp_Force_Field>
OPLS_2005

> <r_lp_Energy>
18.514

> <b_lp_Chiralities_Consistent>
1

> <s_lp_Variant>
AV-unprocessed.smi:1457-2

> <Gold.Version>
5.8.1

> <Gold.Id.Protein>
6NUR|6NUR_protein|mol2

> <Gold.PLP.Fitness>
41.6282

> <Gold.PLP.PLP>
-30.4567

> <Gold.PLP.part.hbond>
-3.0000

> <Gold.PLP.part.metal>
0.0000

> <Gold.PLP.part.buried>
-4.1748

> <Gold.PLP.part.nonpolar>
-24.0658

> <Gold.PLP.part.repulsive>
0.1478

> <Gold.PLP.ligand.clash>
0.0000

> <Gold.PLP.ligand.torsion>
0.2436

> <Gold.PLP.Chemscore.Hbond>
3.8850

> <Gold.PLP.Chemscore.CHOScore>
0.0000

> <Gold.PLP.Chemscore.Metal>
0.0000

> <Gold.Chemscore.Hbonds>
donor molecule, donor type, donor heavy atom, donor atom, acceptor molecule, acceptor atom, score
      L1  H     2    36       P1 10175  1.76
      L1  H     6    26       P1  8028  1.00
      L1  H     9    27       P1  8028  1.00

> <Gold.PLP.Chemscore.Internal.Correction>
0.0037

> <Gold.Rescore>
     Score         DG    S(hbond)    S(metal)    S(lipo)     H(rot)  DE(clash)    DE(int)     intcor
     19.24     -20.88       2.55        0.00      80.72       1.00       0.02       1.62       ----

> <Gold.Chemscore.Fitness>
19.2429

> <Gold.Chemscore.DG>
-20.8819

> <Gold.Chemscore.ZeroCoef>
-5.4800

> <Gold.Chemscore.Hbond>
2.5503

> <Gold.Chemscore.Metal>
0.0000

> <Gold.Chemscore.Lipo>
80.7182

> <Gold.Chemscore.Internal_Hbond>
0.0000

> <Gold.Chemscore.DEClash>
0.0224

> <Gold.Chemscore.DEInternal>
1.6167

> <Gold.Chemscore.Rot>
1.0000

> <Gold.Chemscore.Internal.Correction>
   9.000000E+99

> <Gold.Chemscore.Hbonds>
donor molecule, donor type, donor heavy atom, donor atom, acceptor molecule, acceptor atom, score
      L1  H     2    36       P1 10175  0.16
      L1  H     6    26       P1  8028  0.94
      L1  H     9    27       P1  8028  0.94

> <Gold.Chemscore.Hbond.Weighted>
-8.5179

> <Gold.Chemscore.Metal.Weighted>
-0.0000

> <Gold.Chemscore.Lipo.Weighted>
-9.4440

> <Gold.Chemscore.Internal_Hbond.Weighted>
0.0000

> <Gold.Chemscore.DEClash.Weighted>
0.0224

> <Gold.Chemscore.DEInternal.Weighted>
1.6167

> <Gold.Chemscore.Rot.Weighted>
2.5600

> <Gold.Chemscore.Internal.Correction.Weighted>
   9.000000E+99

> <Gold.Protein.RotatedTorsions>
[ 6907 6896 6895 6894 ] final   90.32 input  -60.11 | X-H torsion
[ 7974 7965 7964 7962 ] final  -62.43 input  175.53 | X-H torsion
[ 8008 7997 7996 7995 ] final  109.78 input   59.86 | X-H torsion
[ 10167 10162 10161 10158 ] final  -70.63 input  -65.29 | X-H torsion
[ 10718 10713 10712 10709 ] final  -70.34 input   66.30 | X-H torsion
[ 10763 10752 10751 10750 ] final  150.49 input  -60.55 | X-H torsion
[ 11005 11000 10999 10996 ] final  -75.38 input  -57.11 | X-H torsion

> <Gold.Protein.ActiveResidues>
 VAL166  LYS551  ARG553  GLY616  TRP617  ASP618  TYR619  PRO620  LYS621  CYS622 
 ASP623  PHE694  ASN695  SER759  ASP760  ASP761  ALA762  ILE779  LEU786  VAL792 
 PHE793  MET794  SER795  GLU796  ALA797  LYS798  CYS799  TRP800  GLU811  SER814 

> <Gold.Protein.RotatedAtoms>
  152.5443  134.1830  159.8642 H   0  0  0  0  0  0  0  0  0  0  0  0  # atno 6907 bound_to 6896
  151.1831  133.4706  159.2601 H   0  0  0  0  0  0  0  0  0  0  0  0  # atno 6908 bound_to 6896
  151.1158  135.0064  159.8571 H   0  0  0  0  0  0  0  0  0  0  0  0  # atno 6909 bound_to 6896
  145.7914  140.8707  143.0279 H   0  0  0  0  0  0  0  0  0  0  0  0  # atno 7974 bound_to 7965
  156.2005  140.3051  155.9516 H   0  0  0  0  0  0  0  0  0  0  0  0  # atno 8008 bound_to 7997
  155.2965  140.0444  157.3043 H   0  0  0  0  0  0  0  0  0  0  0  0  # atno 8009 bound_to 7997
  154.5564  140.2307  155.8412 H   0  0  0  0  0  0  0  0  0  0  0  0  # atno 8010 bound_to 7997
  140.5337  143.2319  151.7215 H   0  0  0  0  0  0  0  0  0  0  0  0  # atno 10167 bound_to 10162
  156.0412  130.4329  150.2281 H   0  0  0  0  0  0  0  0  0  0  0  0  # atno 10718 bound_to 10713
  154.0883  135.2854  155.3277 H   0  0  0  0  0  0  0  0  0  0  0  0  # atno 10763 bound_to 10752
  154.6637  135.5325  153.8054 H   0  0  0  0  0  0  0  0  0  0  0  0  # atno 10764 bound_to 10752
  153.0423  135.6540  154.1053 H   0  0  0  0  0  0  0  0  0  0  0  0  # atno 10765 bound_to 10752
  141.1645  133.6944  156.7508 H   0  0  0  0  0  0  0  0  0  0  0  0  # atno 11005 bound_to 11000
  144.6781  140.0129  143.7484 LP  0  0  0  0  0  0  0  0  0  0  0  0  # atno 17320 bound_to 7965
  145.9973  139.3062  143.0949 LP  0  0  0  0  0  0  0  0  0  0  0  0  # atno 17321 bound_to 7965
  139.4963  144.4075  152.0116 LP  0  0  0  0  0  0  0  0  0  0  0  0  # atno 17342 bound_to 10162
  140.3179  144.3462  150.6017 LP  0  0  0  0  0  0  0  0  0  0  0  0  # atno 17343 bound_to 10162
  157.0376  131.0026  151.3293 LP  0  0  0  0  0  0  0  0  0  0  0  0  # atno 17370 bound_to 10713
  157.5233  130.8011  149.7833 LP  0  0  0  0  0  0  0  0  0  0  0  0  # atno 17371 bound_to 10713
  140.2605  134.8470  157.3754 LP  0  0  0  0  0  0  0  0  0  0  0  0  # atno 17394 bound_to 11000
  140.1615  134.4722  155.7891 LP  0  0  0  0  0  0  0  0  0  0  0  0  # atno 17395 bound_to 11000

$$$$
