AV-unprocessed.smi:1697|AV-procd|sdf|6807|dock7
  -GOLD-   22720 7583D 1   1.00000     0.00000
 Structure written by MMmdl.
 55 57  0  0  0  0  0  0  0  0  3 V2000
  144.5430  134.7575  150.4128 C   0  0  0  0  0  0  0  0  0  0  0  0
  145.4652  135.8665  150.9245 C   0  0  0  0  0  0  0  0  0  0  0  0
  144.6975  136.7746  151.7005 O   0  0  0  0  0  0  0  0  0  0  0  0
  145.4340  137.4694  152.6979 C   0  0  2  0  0  0  0  0  0  0  0  0
  146.5122  138.3728  152.0712 C   0  0  0  0  0  0  0  0  0  0  0  0
  147.4139  138.9935  153.1521 C   0  0  0  0  0  0  0  0  0  0  0  0
  148.0420  137.9429  153.9982 N   0  3  1  0  0  0  0  0  0  0  0  0
  149.0144  138.4788  154.9866 C   0  0  0  0  0  0  0  0  0  0  0  0
  150.4565  138.5631  154.4441 C   0  0  2  0  0  0  0  0  0  0  0  0
  150.9149  137.2615  154.1291 O   0  0  0  0  0  0  0  0  0  0  0  0
  151.4100  139.1873  155.4826 C   0  0  0  0  0  0  0  0  0  0  0  0
  150.9889  140.5264  155.9157 N   0  0  0  0  0  0  0  0  0  0  0  0
  150.1250  141.4031  155.3344 C   0  0  0  0  0  0  0  0  0  0  0  0
  150.0725  142.5120  156.1232 N   0  3  0  0  0  0  0  0  0  0  0  0
  150.9163  142.3417  157.2230 C   0  0  0  0  0  0  0  0  0  0  0  0
  151.2007  143.1828  158.2923 C   0  0  0  0  0  0  0  0  0  0  0  0
  152.1169  142.7099  159.2590 C   0  0  0  0  0  0  0  0  0  0  0  0
  152.4523  143.6060  160.4391 C   0  0  0  0  0  0  0  0  0  0  0  0
  152.7129  141.4279  159.1348 C   0  0  0  0  0  0  0  0  0  0  0  0
  153.6964  140.9299  160.1803 C   0  0  0  0  0  0  0  0  0  0  0  0
  152.4094  140.5866  158.0404 C   0  0  0  0  0  0  0  0  0  0  0  0
  151.5070  141.0695  157.0960 C   0  0  0  0  0  0  0  0  0  0  0  0
  147.0167  137.0791  154.6389 C   0  0  0  0  0  0  0  0  0  0  0  0
  146.1119  136.4177  153.5871 C   0  0  0  0  0  0  0  0  0  0  0  0
  145.0976  134.0356  149.8129 H   0  0  0  0  0  0  0  0  0  0  0  0
  143.7463  135.1664  149.7908 H   0  0  0  0  0  0  0  0  0  0  0  0
  144.0795  134.2198  151.2405 H   0  0  0  0  0  0  0  0  0  0  0  0
  146.2684  135.4303  151.5185 H   0  0  0  0  0  0  0  0  0  0  0  0
  145.9217  136.3846  150.0799 H   0  0  0  0  0  0  0  0  0  0  0  0
  144.7596  138.0643  153.3167 H   0  0  0  0  0  0  0  0  0  0  0  0
  147.1219  137.7908  151.3783 H   0  0  0  0  0  0  0  0  0  0  0  0
  146.0540  139.1695  151.4856 H   0  0  0  0  0  0  0  0  0  0  0  0
  148.1763  139.5985  152.6635 H   0  0  0  0  0  0  0  0  0  0  0  0
  146.8319  139.6693  153.7812 H   0  0  0  0  0  0  0  0  0  0  0  0
  148.6761  139.4608  155.3213 H   0  0  0  0  0  0  0  0  0  0  0  0
  149.0206  137.8435  155.8740 H   0  0  0  0  0  0  0  0  0  0  0  0
  150.4918  139.1654  153.5374 H   0  0  0  0  0  0  0  0  0  0  0  0
  150.9333  137.1600  153.1898 H   0  0  0  0  0  0  0  0  0  0  0  0
  151.4996  138.5518  156.3647 H   0  0  0  0  0  0  0  0  0  0  0  0
  152.4147  139.2808  155.0674 H   0  0  0  0  0  0  0  0  0  0  0  0
  149.5787  141.2469  154.4152 H   0  0  0  0  0  0  0  0  0  0  0  0
  150.7424  144.1571  158.3808 H   0  0  0  0  0  0  0  0  0  0  0  0
  153.5217  143.8156  160.4699 H   0  0  0  0  0  0  0  0  0  0  0  0
  152.1656  143.1281  161.3762 H   0  0  0  0  0  0  0  0  0  0  0  0
  151.9282  144.5602  160.3773 H   0  0  0  0  0  0  0  0  0  0  0  0
  154.0462  139.9228  159.9521 H   0  0  0  0  0  0  0  0  0  0  0  0
  153.2298  140.9047  161.1651 H   0  0  0  0  0  0  0  0  0  0  0  0
  154.5684  141.5826  160.2260 H   0  0  0  0  0  0  0  0  0  0  0  0
  152.8639  139.6117  157.9456 H   0  0  0  0  0  0  0  0  0  0  0  0
  147.5040  136.3002  155.2267 H   0  0  0  0  0  0  0  0  0  0  0  0
  146.4186  137.6729  155.3320 H   0  0  0  0  0  0  0  0  0  0  0  0
  145.3557  135.8059  154.0805 H   0  0  0  0  0  0  0  0  0  0  0  0
  146.7045  135.7391  152.9715 H   0  0  0  0  0  0  0  0  0  0  0  0
  148.5663  137.3394  153.3812 H   0  0  0  0  0  0  0  0  0  0  0  0
  149.5034  143.3242  155.9219 H   0  0  0  0  0  0  0  0  0  0  0  0
  1  2  1  0  0  0  0
  1 25  1  0  0  0  0
  1 26  1  0  0  0  0
  1 27  1  0  0  0  0
  2  3  1  0  0  0  0
  2 28  1  0  0  0  0
  2 29  1  0  0  0  0
  3  4  1  0  0  0  0
  4 24  1  0  0  0  0
  4  5  1  0  0  0  0
  4 30  1  0  0  0  0
  5  6  1  0  0  0  0
  5 31  1  0  0  0  0
  5 32  1  0  0  0  0
  6  7  1  0  0  0  0
  6 33  1  0  0  0  0
  6 34  1  0  0  0  0
  7  8  1  0  0  0  0
  7 23  1  0  0  0  0
  7 54  1  0  0  0  0
  8  9  1  0  0  0  0
  8 35  1  0  0  0  0
  8 36  1  0  0  0  0
  9 10  1  0  0  0  0
  9 11  1  0  0  0  0
  9 37  1  0  0  0  0
 10 38  1  0  0  0  0
 11 12  1  0  0  0  0
 11 39  1  0  0  0  0
 11 40  1  0  0  0  0
 12 22  1  0  0  0  0
 12 13  1  0  0  0  0
 13 14  2  0  0  0  0
 13 41  1  0  0  0  0
 14 15  1  0  0  0  0
 14 55  1  0  0  0  0
 15 22  2  0  0  0  0
 15 16  1  0  0  0  0
 16 17  2  0  0  0  0
 16 42  1  0  0  0  0
 17 18  1  0  0  0  0
 17 19  1  0  0  0  0
 18 43  1  0  0  0  0
 18 44  1  0  0  0  0
 18 45  1  0  0  0  0
 19 20  1  0  0  0  0
 19 21  2  0  0  0  0
 20 46  1  0  0  0  0
 20 47  1  0  0  0  0
 20 48  1  0  0  0  0
 21 22  1  0  0  0  0
 21 49  1  0  0  0  0
 23 24  1  0  0  0  0
 23 50  1  0  0  0  0
 23 51  1  0  0  0  0
 24 52  1  0  0  0  0
 24 53  1  0  0  0  0
M  CHG  1   7   1
M  CHG  1  14   1
M  END
> <s_m_source_file>
AV-unprocessed.smi

> <i_m_source_file_index>
1697

> <i_lp_mmshare_version>
43012

> <i_f3d_flags>
0

> <s_epik_input>
W0NIM11bQ0gyXU9bQ0hdMVtDSDJdW0NIMl1OKFtDSDJdW0NIMl0xKVtDSDJdW0NASF0oW09IXSlbQ0gyXW4oW2NIXW4yKWMoYzIzKVtjSF1jKFtDSDNdKWMoW2NIXTMpW0NIM10=

> <s_epik_cmdline>
J2VwaWtfcHl0aG9uJywgJy1waCcsICc3LjAnLCAnLXRuJywgJzgnLCAnLW1hJywgJzIwMCcsICctbWV0YWxfYmluZGluZycsICctaW1hZScsICc8aW5maWxlLm1hZT4nLCAnLW9tYWUnLCAnPG91dGZpbGUubWFlPic=

> <r_epik_Ionization_Penalty>
1.20016

> <r_epik_Ionization_Penalty_Charging>
1.20016

> <r_epik_Ionization_Penalty_Neutral>
1.70998e-06

> <r_epik_State_Penalty>
1.27959

> <r_epik_Charging_Adjusted_Penalty>
2.47975

> <i_epik_Tot_Q>
2

> <i_epik_Tot_abs_Q>
2

> <r_epik_Metal_State_Penalty>
5.29682

> <b_epik_Metal_Only>
0

> <s_lp_Force_Field>
OPLS_2005

> <r_lp_Energy>
32.2014

> <b_lp_Chiralities_Consistent>
1

> <s_lp_Variant>
AV-unprocessed.smi:1697-5

> <Gold.Version>
5.8.1

> <Gold.Id.Protein>
6NUR|6NUR_protein|mol2

> <Gold.PLP.Fitness>
62.5879

> <Gold.PLP.PLP>
-49.3051

> <Gold.PLP.part.hbond>
-3.6877

> <Gold.PLP.part.metal>
0.0000

> <Gold.PLP.part.buried>
-4.8071

> <Gold.PLP.part.nonpolar>
-41.5851

> <Gold.PLP.part.repulsive>
1.8817

> <Gold.PLP.ligand.clash>
0.0000

> <Gold.PLP.ligand.torsion>
0.8545

> <Gold.PLP.Chemscore.Hbond>
4.9350

> <Gold.PLP.Chemscore.CHOScore>
0.0000

> <Gold.PLP.Chemscore.Metal>
0.0000

> <Gold.Chemscore.Hbonds>
donor molecule, donor type, donor heavy atom, donor atom, acceptor molecule, acceptor atom, score
      L1  H     7    54       P1  7948  2.00
      L1  H    10    38       P1  7949  0.83
      L1  H    14    55       P1  8028  2.00

> <Gold.PLP.Chemscore.Internal.Correction>
0.1869

> <Gold.Rescore>
     Score         DG    S(hbond)    S(metal)    S(lipo)     H(rot)  DE(clash)    DE(int)     intcor
     21.07     -22.37       2.42        0.00     126.73       2.35       0.49       0.81       ----

> <Gold.Chemscore.Fitness>
21.0684

> <Gold.Chemscore.DG>
-22.3722

> <Gold.Chemscore.ZeroCoef>
-5.4800

> <Gold.Chemscore.Hbond>
2.4168

> <Gold.Chemscore.Metal>
0.0000

> <Gold.Chemscore.Lipo>
126.7344

> <Gold.Chemscore.Internal_Hbond>
0.0000

> <Gold.Chemscore.DEClash>
0.4945

> <Gold.Chemscore.DEInternal>
0.8093

> <Gold.Chemscore.Rot>
2.3468

> <Gold.Chemscore.Internal.Correction>
   9.000000E+99

> <Gold.Chemscore.Hbonds>
donor molecule, donor type, donor heavy atom, donor atom, acceptor molecule, acceptor atom, score
      L1  H     7    54       P1  7948  0.99
      L1  H    10    38       P1  7949  0.18
      L1  H    14    55       P1  8028  0.95

> <Gold.Chemscore.Hbond.Weighted>
-8.0720

> <Gold.Chemscore.Metal.Weighted>
-0.0000

> <Gold.Chemscore.Lipo.Weighted>
-14.8279

> <Gold.Chemscore.Internal_Hbond.Weighted>
0.0000

> <Gold.Chemscore.DEClash.Weighted>
0.4945

> <Gold.Chemscore.DEInternal.Weighted>
0.8093

> <Gold.Chemscore.Rot.Weighted>
6.0077

> <Gold.Chemscore.Internal.Correction.Weighted>
   9.000000E+99

> <Gold.Protein.RotatedTorsions>
[ 6907 6896 6895 6894 ] final -129.18 input  -60.11 | X-H torsion
[ 7974 7965 7964 7962 ] final  -64.35 input  175.53 | X-H torsion
[ 8008 7997 7996 7995 ] final  168.41 input   59.86 | X-H torsion
[ 10167 10162 10161 10158 ] final    6.51 input  -65.29 | X-H torsion
[ 10718 10713 10712 10709 ] final   22.03 input   66.30 | X-H torsion
[ 10763 10752 10751 10750 ] final   36.27 input  -60.55 | X-H torsion
[ 11005 11000 10999 10996 ] final   21.28 input  -57.11 | X-H torsion

> <Gold.Protein.ActiveResidues>
 VAL166  LYS551  ARG553  GLY616  TRP617  ASP618  TYR619  PRO620  LYS621  CYS622 
 ASP623  PHE694  ASN695  SER759  ASP760  ASP761  ALA762  ILE779  LEU786  VAL792 
 PHE793  MET794  SER795  GLU796  ALA797  LYS798  CYS799  TRP800  GLU811  SER814 

> <Gold.Protein.RotatedAtoms>
  150.9259  133.6824  159.2821 H   0  0  0  0  0  0  0  0  0  0  0  0  # atno 6907 bound_to 6896
  151.4263  135.1003  159.9638 H   0  0  0  0  0  0  0  0  0  0  0  0  # atno 6908 bound_to 6896
  152.5002  133.8700  159.7348 H   0  0  0  0  0  0  0  0  0  0  0  0  # atno 6909 bound_to 6896
  145.7677  140.8829  143.0396 H   0  0  0  0  0  0  0  0  0  0  0  0  # atno 7974 bound_to 7965
  156.1549  140.1591  156.8709 H   0  0  0  0  0  0  0  0  0  0  0  0  # atno 8008 bound_to 7997
  154.5105  140.0802  156.8017 H   0  0  0  0  0  0  0  0  0  0  0  0  # atno 8009 bound_to 7997
  155.3823  140.3406  155.4249 H   0  0  0  0  0  0  0  0  0  0  0  0  # atno 8010 bound_to 7997
  140.6424  143.7743  150.7447 H   0  0  0  0  0  0  0  0  0  0  0  0  # atno 10167 bound_to 10162
  157.1466  130.6656  149.5998 H   0  0  0  0  0  0  0  0  0  0  0  0  # atno 10718 bound_to 10713
  153.0084  135.6310  154.1958 H   0  0  0  0  0  0  0  0  0  0  0  0  # atno 10763 bound_to 10752
  154.1701  135.2819  155.3085 H   0  0  0  0  0  0  0  0  0  0  0  0  # atno 10764 bound_to 10752
  154.5915  135.5616  153.7343 H   0  0  0  0  0  0  0  0  0  0  0  0  # atno 10765 bound_to 10752
  140.3933  134.1796  155.7663 H   0  0  0  0  0  0  0  0  0  0  0  0  # atno 11005 bound_to 11000
  144.6818  139.9812  143.7483 LP  0  0  0  0  0  0  0  0  0  0  0  0  # atno 17320 bound_to 7965
  146.0201  139.3243  143.0818 LP  0  0  0  0  0  0  0  0  0  0  0  0  # atno 17321 bound_to 7965
  140.1377  143.4469  152.2213 LP  0  0  0  0  0  0  0  0  0  0  0  0  # atno 17342 bound_to 10162
  139.5633  144.7419  151.4093 LP  0  0  0  0  0  0  0  0  0  0  0  0  # atno 17343 bound_to 10162
  155.9778  130.4759  150.6617 LP  0  0  0  0  0  0  0  0  0  0  0  0  # atno 17370 bound_to 10713
  157.4258  131.0843  151.1086 LP  0  0  0  0  0  0  0  0  0  0  0  0  # atno 17371 bound_to 10713
  141.1883  133.8263  157.0999 LP  0  0  0  0  0  0  0  0  0  0  0  0  # atno 17394 bound_to 11000
  140.0391  134.9863  157.0927 LP  0  0  0  0  0  0  0  0  0  0  0  0  # atno 17395 bound_to 11000

$$$$
