AV-unprocessed.smi:3353|AV-procd|sdf|12953|dock7
  -GOLD-   2272019393D 1   1.00000     0.00000
 Structure written by MMmdl.
 43 44  0  0  0  0  0  0  0  0  2 V2000
  151.1665  141.7492  157.8672 C   0  0  0  0  0  0  0  0  0  0  0  0
  150.6900  142.1091  156.4552 C   0  0  0  0  0  0  0  0  0  0  0  0
  150.4691  140.9254  155.6480 N   0  0  0  0  0  0  0  0  0  0  0  0
  149.3025  140.5193  155.0310 C   0  0  0  0  0  0  0  0  0  0  0  0
  149.6058  139.3431  154.4054 C   0  0  0  0  0  0  0  0  0  0  0  0
  148.7748  138.4969  153.6285 N   0  0  0  0  0  0  0  0  0  0  0  0
  147.4422  138.5763  153.4810 C   0  0  0  0  0  0  0  0  0  0  0  0
  146.7196  139.4260  154.0025 O   0  0  0  0  0  0  0  0  0  0  0  0
  146.9785  137.6011  152.6866 N   0  0  0  0  0  0  0  0  0  0  0  0
  145.5749  137.4154  152.3306 C   0  0  0  0  0  0  0  0  0  0  0  0
  145.3480  136.2266  151.3602 C   0  0  2  0  0  0  0  0  0  0  0  0
  143.8898  135.7219  151.4433 C   0  0  0  0  0  0  0  0  0  0  0  0
  146.3209  135.1305  151.6370 N   0  3  0  0  0  0  0  0  0  0  0  0
  146.3188  134.6002  153.0181 C   0  0  0  0  0  0  0  0  0  0  0  0
  146.9821  133.2318  152.9171 C   0  0  0  0  0  0  0  0  0  0  0  0
  146.4720  132.7020  151.5823 C   0  0  0  0  0  0  0  0  0  0  0  0
  146.2202  133.9557  150.7331 C   0  0  0  0  0  0  0  0  0  0  0  0
  150.9752  139.0975  154.6859 C   0  0  0  0  0  0  0  0  0  0  0  0
  151.4900  140.0579  155.4386 N   0  0  0  0  0  0  0  0  0  0  0  0
  151.3195  142.6476  158.4653 H   0  0  0  0  0  0  0  0  0  0  0  0
  152.1103  141.2038  157.8386 H   0  0  0  0  0  0  0  0  0  0  0  0
  150.4344  141.1265  158.3822 H   0  0  0  0  0  0  0  0  0  0  0  0
  149.7593  142.6755  156.5041 H   0  0  0  0  0  0  0  0  0  0  0  0
  151.4227  142.7454  155.9569 H   0  0  0  0  0  0  0  0  0  0  0  0
  148.3898  141.0925  155.0977 H   0  0  0  0  0  0  0  0  0  0  0  0
  149.2453  137.7502  153.1384 H   0  0  0  0  0  0  0  0  0  0  0  0
  147.6410  136.9457  152.2976 H   0  0  0  0  0  0  0  0  0  0  0  0
  145.0034  137.2957  153.2516 H   0  0  0  0  0  0  0  0  0  0  0  0
  145.2204  138.3396  151.8730 H   0  0  0  0  0  0  0  0  0  0  0  0
  145.5237  136.5664  150.3382 H   0  0  0  0  0  0  0  0  0  0  0  0
  143.1754  136.5220  151.2494 H   0  0  0  0  0  0  0  0  0  0  0  0
  143.6679  135.3140  152.4299 H   0  0  0  0  0  0  0  0  0  0  0  0
  143.6820  134.9469  150.7058 H   0  0  0  0  0  0  0  0  0  0  0  0
  146.8459  135.2580  153.7100 H   0  0  0  0  0  0  0  0  0  0  0  0
  145.2915  134.4855  153.3688 H   0  0  0  0  0  0  0  0  0  0  0  0
  148.0665  133.3465  152.8816 H   0  0  0  0  0  0  0  0  0  0  0  0
  146.7383  132.5782  153.7554 H   0  0  0  0  0  0  0  0  0  0  0  0
  147.1735  132.0108  151.1136 H   0  0  0  0  0  0  0  0  0  0  0  0
  145.5331  132.1676  151.7341 H   0  0  0  0  0  0  0  0  0  0  0  0
  145.2364  133.8890  150.2654 H   0  0  0  0  0  0  0  0  0  0  0  0
  146.9601  134.0510  149.9377 H   0  0  0  0  0  0  0  0  0  0  0  0
  151.5998  138.2722  154.3771 H   0  0  0  0  0  0  0  0  0  0  0  0
  147.2453  135.5119  151.4944 H   0  0  0  0  0  0  0  0  0  0  0  0
  1  2  1  0  0  0  0
  1 20  1  0  0  0  0
  1 21  1  0  0  0  0
  1 22  1  0  0  0  0
  2  3  1  0  0  0  0
  2 23  1  0  0  0  0
  2 24  1  0  0  0  0
  3 19  1  0  0  0  0
  3  4  1  0  0  0  0
  4  5  2  0  0  0  0
  4 25  1  0  0  0  0
  5  6  1  0  0  0  0
  5 18  1  0  0  0  0
  6  7  1  0  0  0  0
  6 26  1  0  0  0  0
  7  8  2  0  0  0  0
  7  9  1  0  0  0  0
  9 10  1  0  0  0  0
  9 27  1  0  0  0  0
 10 11  1  0  0  0  0
 10 28  1  0  0  0  0
 10 29  1  0  0  0  0
 11 12  1  0  0  0  0
 11 13  1  0  0  0  0
 11 30  1  0  0  0  0
 12 31  1  0  0  0  0
 12 32  1  0  0  0  0
 12 33  1  0  0  0  0
 13 17  1  0  0  0  0
 13 14  1  0  0  0  0
 13 43  1  0  0  0  0
 14 15  1  0  0  0  0
 14 34  1  0  0  0  0
 14 35  1  0  0  0  0
 15 16  1  0  0  0  0
 15 36  1  0  0  0  0
 15 37  1  0  0  0  0
 16 17  1  0  0  0  0
 16 38  1  0  0  0  0
 16 39  1  0  0  0  0
 17 40  1  0  0  0  0
 17 41  1  0  0  0  0
 18 19  2  0  0  0  0
 18 42  1  0  0  0  0
M  CHG  1  13   1
M  END
> <s_m_source_file>
AV-unprocessed.smi

> <i_m_source_file_index>
3353

> <i_lp_mmshare_version>
43012

> <i_f3d_flags>
0

> <s_epik_input>
W0NIM11bQ0gyXW4xW2NIXWMoW2NIXW4xKVtOSF1DKD1PKVtOSF1bQ0gyXVtDQEhdKFtDSDNdKU4yW0NIMl1bQ0gyXVtDSDJdW0NIMl0y

> <s_epik_cmdline>
J2VwaWtfcHl0aG9uJywgJy1waCcsICc3LjAnLCAnLXRuJywgJzgnLCAnLW1hJywgJzIwMCcsICctbWV0YWxfYmluZGluZycsICctaW1hZScsICc8aW5maWxlLm1hZT4nLCAnLW9tYWUnLCAnPG91dGZpbGUubWFlPic=

> <r_lp_tautomer_probability>
1

> <r_epik_Ionization_Penalty>
0.000914091

> <r_epik_Ionization_Penalty_Charging>
0.000761583

> <r_epik_Ionization_Penalty_Neutral>
0.000152508

> <r_epik_State_Penalty>
0.000487427

> <r_epik_Charging_Adjusted_Penalty>
0.00124901

> <i_epik_Tot_Q>
1

> <i_epik_Tot_abs_Q>
1

> <r_epik_Metal_State_Penalty>
-0

> <b_epik_Metal_Only>
0

> <s_lp_Force_Field>
OPLS_2005

> <r_lp_Energy>
33.6396

> <b_lp_Chiralities_Consistent>
1

> <s_lp_Variant>
AV-unprocessed.smi:3353-1

> <Gold.Version>
5.8.1

> <Gold.Id.Protein>
6NUR|6NUR_protein|mol2

> <Gold.PLP.Fitness>
46.4319

> <Gold.PLP.PLP>
-35.3497

> <Gold.PLP.part.hbond>
-4.9754

> <Gold.PLP.part.metal>
0.0000

> <Gold.PLP.part.buried>
-2.8988

> <Gold.PLP.part.nonpolar>
-28.3833

> <Gold.PLP.part.repulsive>
0.3192

> <Gold.PLP.ligand.clash>
0.0000

> <Gold.PLP.ligand.torsion>
0.3062

> <Gold.PLP.Chemscore.Hbond>
3.8800

> <Gold.PLP.Chemscore.CHOScore>
0.0000

> <Gold.PLP.Chemscore.Metal>
0.0000

> <Gold.Chemscore.Hbonds>
donor molecule, donor type, donor heavy atom, donor atom, acceptor molecule, acceptor atom, score
      L1  H     6    26       P1  7948  0.90
      L1  H     9    27       P1  7948  1.00
      L1  H    13    43       P1  7948  2.00

> <Gold.PLP.Chemscore.Internal.Correction>
0.0547

> <Gold.Rescore>
     Score         DG    S(hbond)    S(metal)    S(lipo)     H(rot)  DE(clash)    DE(int)     intcor
     17.92     -19.46       2.81        0.00      74.38       1.61       0.20       1.33       ----

> <Gold.Chemscore.Fitness>
17.9210

> <Gold.Chemscore.DG>
-19.4554

> <Gold.Chemscore.ZeroCoef>
-5.4800

> <Gold.Chemscore.Hbond>
2.8139

> <Gold.Chemscore.Metal>
0.0000

> <Gold.Chemscore.Lipo>
74.3847

> <Gold.Chemscore.Internal_Hbond>
0.0000

> <Gold.Chemscore.DEClash>
0.2029

> <Gold.Chemscore.DEInternal>
1.3315

> <Gold.Chemscore.Rot>
1.6117

> <Gold.Chemscore.Internal.Correction>
   9.000000E+99

> <Gold.Chemscore.Hbonds>
donor molecule, donor type, donor heavy atom, donor atom, acceptor molecule, acceptor atom, score
      L1  H     6    26       P1  7948  0.83
      L1  H     9    27       P1  7948  0.94
      L1  H    13    43       P1  7948  0.97

> <Gold.Chemscore.Hbond.Weighted>
-9.3984

> <Gold.Chemscore.Metal.Weighted>
-0.0000

> <Gold.Chemscore.Lipo.Weighted>
-8.7030

> <Gold.Chemscore.Internal_Hbond.Weighted>
0.0000

> <Gold.Chemscore.DEClash.Weighted>
0.2029

> <Gold.Chemscore.DEInternal.Weighted>
1.3315

> <Gold.Chemscore.Rot.Weighted>
4.1260

> <Gold.Chemscore.Internal.Correction.Weighted>
   9.000000E+99

> <Gold.Protein.RotatedTorsions>
[ 6907 6896 6895 6894 ] final   -3.22 input  -60.11 | X-H torsion
[ 7974 7965 7964 7962 ] final  -63.73 input  175.53 | X-H torsion
[ 8008 7997 7996 7995 ] final   32.20 input   59.86 | X-H torsion
[ 10167 10162 10161 10158 ] final -165.30 input  -65.29 | X-H torsion
[ 10718 10713 10712 10709 ] final -171.74 input   66.30 | X-H torsion
[ 10763 10752 10751 10750 ] final   49.22 input  -60.55 | X-H torsion
[ 11005 11000 10999 10996 ] final  -63.52 input  -57.11 | X-H torsion

> <Gold.Protein.ActiveResidues>
 VAL166  LYS551  ARG553  GLY616  TRP617  ASP618  TYR619  PRO620  LYS621  CYS622 
 ASP623  PHE694  ASN695  SER759  ASP760  ASP761  ALA762  ILE779  LEU786  VAL792 
 PHE793  MET794  SER795  GLU796  ALA797  LYS798  CYS799  TRP800  GLU811  SER814 

> <Gold.Protein.RotatedAtoms>
  151.5173  135.1066  159.9869 H   0  0  0  0  0  0  0  0  0  0  0  0  # atno 6907 bound_to 6896
  152.4636  133.7870  159.6892 H   0  0  0  0  0  0  0  0  0  0  0  0  # atno 6908 bound_to 6896
  150.8609  133.7581  159.3018 H   0  0  0  0  0  0  0  0  0  0  0  0  # atno 6909 bound_to 6896
  145.7755  140.8790  143.0358 H   0  0  0  0  0  0  0  0  0  0  0  0  # atno 7974 bound_to 7965
  155.1187  140.3246  155.4503 H   0  0  0  0  0  0  0  0  0  0  0  0  # atno 8008 bound_to 7997
  156.2669  140.2031  156.6258 H   0  0  0  0  0  0  0  0  0  0  0  0  # atno 8009 bound_to 7997
  154.6700  140.0537  157.0142 H   0  0  0  0  0  0  0  0  0  0  0  0  # atno 8010 bound_to 7997
  139.6191  144.0660  152.1916 H   0  0  0  0  0  0  0  0  0  0  0  0  # atno 10167 bound_to 10162
  156.7453  130.9357  151.3112 H   0  0  0  0  0  0  0  0  0  0  0  0  # atno 10718 bound_to 10713
  152.9788  135.5919  154.4053 H   0  0  0  0  0  0  0  0  0  0  0  0  # atno 10763 bound_to 10752
  154.3694  135.2767  155.2277 H   0  0  0  0  0  0  0  0  0  0  0  0  # atno 10764 bound_to 10752
  154.4239  135.6052  153.6081 H   0  0  0  0  0  0  0  0  0  0  0  0  # atno 10765 bound_to 10752
  141.1396  133.6653  156.5693 H   0  0  0  0  0  0  0  0  0  0  0  0  # atno 11005 bound_to 11000
  144.6805  139.9915  143.7484 LP  0  0  0  0  0  0  0  0  0  0  0  0  # atno 17320 bound_to 7965
  146.0127  139.3183  143.0860 LP  0  0  0  0  0  0  0  0  0  0  0  0  # atno 17321 bound_to 7965
  140.0297  144.6090  150.7498 LP  0  0  0  0  0  0  0  0  0  0  0  0  # atno 17342 bound_to 10162
  140.7370  143.2761  151.3739 LP  0  0  0  0  0  0  0  0  0  0  0  0  # atno 17343 bound_to 10162
  157.6801  130.9131  150.0245 LP  0  0  0  0  0  0  0  0  0  0  0  0  # atno 17370 bound_to 10713
  156.1437  130.3642  149.9542 LP  0  0  0  0  0  0  0  0  0  0  0  0  # atno 17371 bound_to 10713
  140.3926  134.7427  157.4730 LP  0  0  0  0  0  0  0  0  0  0  0  0  # atno 17394 bound_to 11000
  140.0555  134.6069  155.8810 LP  0  0  0  0  0  0  0  0  0  0  0  0  # atno 17395 bound_to 11000

$$$$
