AV-unprocessed.smi:1966|AV-procd|sdf|7951|dock5
  -GOLD-   2272010123D 1   1.00000     0.00000
 Structure written by MMmdl.
 53 54  0  0  0  0  0  0  0  0  1 V2000
  150.9277  128.3814  152.0206 C   0  0  0  0  0  0  0  0  0  0  0  0
  149.7664  128.3619  153.0083 C   0  0  0  0  0  0  0  0  0  0  0  0
  149.7985  127.6163  153.9869 O   0  0  0  0  0  0  0  0  0  0  0  0
  148.7441  129.1887  152.7375 N   0  0  0  0  0  0  0  0  0  0  0  0
  147.5358  129.3432  153.5516 C   0  0  1  0  0  0  0  0  0  0  0  0
  147.7397  130.5159  154.5322 C   0  0  0  0  0  0  0  0  0  0  0  0
  148.1409  131.6024  154.1137 O   0  0  0  0  0  0  0  0  0  0  0  0
  147.4474  130.2505  155.8192 N   0  0  0  0  0  0  0  0  0  0  0  0
  147.5166  131.1043  156.9539 C   0  0  0  0  0  0  0  0  0  0  0  0
  148.2528  132.3107  157.0143 C   0  0  0  0  0  0  0  0  0  0  0  0
  148.2228  133.0701  158.2000 C   0  0  0  0  0  0  0  0  0  0  0  0
  147.4523  132.6156  159.2962 C   0  0  0  0  0  0  0  0  0  0  0  0
  147.4105  133.3619  160.4942 N   0  0  0  0  0  0  0  0  0  0  0  0
  147.0951  134.7852  160.4084 C   0  0  0  0  0  0  0  0  0  0  0  0
  146.7467  135.3425  161.7998 C   0  0  2  0  0  0  0  0  0  0  0  0
  146.5396  136.8604  161.7715 C   0  0  0  0  0  0  0  0  0  0  0  0
  147.8088  135.0581  162.7096 O   0  0  0  0  0  0  0  0  0  0  0  0
  148.1279  133.6711  162.8428 C   0  0  1  0  0  0  0  0  0  0  0  0
  147.0416  132.8943  163.6080 C   0  0  0  0  0  0  0  0  0  0  0  0
  148.4599  133.0641  161.4652 C   0  0  0  0  0  0  0  0  0  0  0  0
  146.7433  131.4622  159.2320 N   0  0  0  0  0  0  0  0  0  0  0  0
  146.7750  130.7376  158.0944 C   0  0  0  0  0  0  0  0  0  0  0  0
  146.3293  129.6376  152.6115 C   0  0  0  0  0  0  0  0  0  0  0  0
  145.0278  129.9531  153.3779 C   0  0  0  0  0  0  0  0  0  0  0  0
  146.0659  128.4757  151.6331 C   0  0  0  0  0  0  0  0  0  0  0  0
  151.3323  129.3898  151.9271 H   0  0  0  0  0  0  0  0  0  0  0  0
  150.5956  128.0492  151.0368 H   0  0  0  0  0  0  0  0  0  0  0  0
  151.7302  127.7216  152.3519 H   0  0  0  0  0  0  0  0  0  0  0  0
  148.8112  129.7688  151.9140 H   0  0  0  0  0  0  0  0  0  0  0  0
  147.3470  128.4207  154.1052 H   0  0  0  0  0  0  0  0  0  0  0  0
  147.1830  129.2963  156.0172 H   0  0  0  0  0  0  0  0  0  0  0  0
  148.8317  132.6776  156.1819 H   0  0  0  0  0  0  0  0  0  0  0  0
  148.7984  133.9818  158.2573 H   0  0  0  0  0  0  0  0  0  0  0  0
  147.9518  135.3169  159.9918 H   0  0  0  0  0  0  0  0  0  0  0  0
  146.2520  134.9458  159.7351 H   0  0  0  0  0  0  0  0  0  0  0  0
  145.8245  134.8838  162.1570 H   0  0  0  0  0  0  0  0  0  0  0  0
  145.7308  137.1337  161.0937 H   0  0  0  0  0  0  0  0  0  0  0  0
  147.4420  137.3759  161.4413 H   0  0  0  0  0  0  0  0  0  0  0  0
  146.2845  137.2371  162.7624 H   0  0  0  0  0  0  0  0  0  0  0  0
  149.0324  133.6258  163.4501 H   0  0  0  0  0  0  0  0  0  0  0  0
  147.3668  131.8731  163.8079 H   0  0  0  0  0  0  0  0  0  0  0  0
  146.1072  132.8310  163.0509 H   0  0  0  0  0  0  0  0  0  0  0  0
  146.8292  133.3661  164.5675 H   0  0  0  0  0  0  0  0  0  0  0  0
  148.6285  131.9937  161.5736 H   0  0  0  0  0  0  0  0  0  0  0  0
  149.3937  133.4894  161.0953 H   0  0  0  0  0  0  0  0  0  0  0  0
  146.1883  129.8308  158.0982 H   0  0  0  0  0  0  0  0  0  0  0  0
  146.5679  130.5146  152.0070 H   0  0  0  0  0  0  0  0  0  0  0  0
  144.7572  129.1363  154.0479 H   0  0  0  0  0  0  0  0  0  0  0  0
  144.1953  130.1053  152.6905 H   0  0  0  0  0  0  0  0  0  0  0  0
  145.1106  130.8614  153.9746 H   0  0  0  0  0  0  0  0  0  0  0  0
  145.8558  127.5495  152.1690 H   0  0  0  0  0  0  0  0  0  0  0  0
  146.9154  128.2942  150.9747 H   0  0  0  0  0  0  0  0  0  0  0  0
  145.2098  128.6885  150.9923 H   0  0  0  0  0  0  0  0  0  0  0  0
  1  2  1  0  0  0  0
  1 26  1  0  0  0  0
  1 27  1  0  0  0  0
  1 28  1  0  0  0  0
  2  3  2  0  0  0  0
  2  4  1  0  0  0  0
  4  5  1  0  0  0  0
  4 29  1  0  0  0  0
  5  6  1  0  0  0  0
  5 23  1  0  0  0  0
  5 30  1  0  0  0  0
  6  7  2  0  0  0  0
  6  8  1  0  0  0  0
  8  9  1  0  0  0  0
  8 31  1  0  0  0  0
  9 22  1  0  0  0  0
  9 10  2  0  0  0  0
 10 11  1  0  0  0  0
 10 32  1  0  0  0  0
 11 12  2  0  0  0  0
 11 33  1  0  0  0  0
 12 13  1  0  0  0  0
 12 21  1  0  0  0  0
 13 20  1  0  0  0  0
 13 14  1  0  0  0  0
 14 15  1  0  0  0  0
 14 34  1  0  0  0  0
 14 35  1  0  0  0  0
 15 16  1  0  0  0  0
 15 17  1  0  0  0  0
 15 36  1  0  0  0  0
 16 37  1  0  0  0  0
 16 38  1  0  0  0  0
 16 39  1  0  0  0  0
 17 18  1  0  0  0  0
 18 19  1  0  0  0  0
 18 20  1  0  0  0  0
 18 40  1  0  0  0  0
 19 41  1  0  0  0  0
 19 42  1  0  0  0  0
 19 43  1  0  0  0  0
 20 44  1  0  0  0  0
 20 45  1  0  0  0  0
 21 22  2  0  0  0  0
 22 46  1  0  0  0  0
 23 24  1  0  0  0  0
 23 25  1  0  0  0  0
 23 47  1  0  0  0  0
 24 48  1  0  0  0  0
 24 49  1  0  0  0  0
 24 50  1  0  0  0  0
 25 51  1  0  0  0  0
 25 52  1  0  0  0  0
 25 53  1  0  0  0  0
M  END
> <s_m_source_file>
AV-unprocessed.smi

> <i_m_source_file_index>
1966

> <i_lp_mmshare_version>
43012

> <i_f3d_flags>
0

> <s_epik_input>
W0NIM11DKD1PKVtOSF1bQ0BASF0oW0NIXShbQ0gzXSlbQ0gzXSlDKD1PKVtOSF1jMVtjSF1bY0hdYyhuW2NIXTEpTjJbQ0gyXVtDQEBIXShbQ0gzXSlPW0NAQEhdKFtDSDNdKVtDSDJdMg==

> <s_epik_cmdline>
J2VwaWtfcHl0aG9uJywgJy1waCcsICc3LjAnLCAnLXRuJywgJzgnLCAnLW1hJywgJzIwMCcsICctbWV0YWxfYmluZGluZycsICctaW1hZScsICc8aW5maWxlLm1hZT4nLCAnLW9tYWUnLCAnPG91dGZpbGUubWFlPic=

> <r_lp_tautomer_probability>
1

> <r_epik_Ionization_Penalty>
0.000679699

> <r_epik_Ionization_Penalty_Charging>
0

> <r_epik_Ionization_Penalty_Neutral>
0.000679699

> <r_epik_State_Penalty>
0.000430485

> <r_epik_Charging_Adjusted_Penalty>
0.000430485

> <i_epik_Tot_Q>
0

> <i_epik_Tot_abs_Q>
0

> <r_epik_Metal_State_Penalty>
-0

> <b_epik_Metal_Only>
0

> <s_lp_Force_Field>
OPLS_2005

> <r_lp_Energy>
28.9115

> <b_lp_Chiralities_Consistent>
1

> <s_lp_Variant>
AV-unprocessed.smi:1966-4

> <Gold.Version>
5.8.1

> <Gold.Id.Protein>
6NUR|6NUR_protein|mol2

> <Gold.PLP.Fitness>
42.9641

> <Gold.PLP.PLP>
-36.9108

> <Gold.PLP.part.hbond>
-2.3044

> <Gold.PLP.part.metal>
0.0000

> <Gold.PLP.part.buried>
-6.2874

> <Gold.PLP.part.nonpolar>
-28.5918

> <Gold.PLP.part.repulsive>
0.2552

> <Gold.PLP.ligand.clash>
0.0000

> <Gold.PLP.ligand.torsion>
1.0762

> <Gold.PLP.Chemscore.Hbond>
1.6143

> <Gold.PLP.Chemscore.CHOScore>
1.0000

> <Gold.PLP.Chemscore.Metal>
0.0000

> <Gold.Chemscore.Hbonds>
donor molecule, donor type, donor heavy atom, donor atom, acceptor molecule, acceptor atom, score
      L1  H     4    29       P1 10747  0.70

> <Gold.PLP.Chemscore.Internal.Correction>
0.3630

> <Gold.Rescore>
     Score         DG    S(hbond)    S(metal)    S(lipo)     H(rot)  DE(clash)    DE(int)     intcor
     12.81     -15.11       1.24        0.00      83.70       1.68       0.57       1.73       ----

> <Gold.Chemscore.Fitness>
12.8081

> <Gold.Chemscore.DG>
-15.1143

> <Gold.Chemscore.ZeroCoef>
-5.4800

> <Gold.Chemscore.Hbond>
1.2371

> <Gold.Chemscore.Metal>
0.0000

> <Gold.Chemscore.Lipo>
83.6964

> <Gold.Chemscore.Internal_Hbond>
0.0000

> <Gold.Chemscore.DEClash>
0.5714

> <Gold.Chemscore.DEInternal>
1.7348

> <Gold.Chemscore.Rot>
1.6759

> <Gold.Chemscore.Internal.Correction>
   9.000000E+99

> <Gold.Chemscore.Hbonds>
donor molecule, donor type, donor heavy atom, donor atom, acceptor molecule, acceptor atom, score
      L1  H     4    29       P1 10747  0.07

> <Gold.Chemscore.Hbond.Weighted>
-4.1321

> <Gold.Chemscore.Metal.Weighted>
-0.0000

> <Gold.Chemscore.Lipo.Weighted>
-9.7925

> <Gold.Chemscore.Internal_Hbond.Weighted>
0.0000

> <Gold.Chemscore.DEClash.Weighted>
0.5714

> <Gold.Chemscore.DEInternal.Weighted>
1.7348

> <Gold.Chemscore.Rot.Weighted>
4.2902

> <Gold.Chemscore.Internal.Correction.Weighted>
   9.000000E+99

> <Gold.Protein.RotatedTorsions>
[ 6907 6896 6895 6894 ] final   -0.98 input  -60.11 | X-H torsion
[ 7974 7965 7964 7962 ] final  152.33 input  175.53 | X-H torsion
[ 8008 7997 7996 7995 ] final  -94.00 input   59.86 | X-H torsion
[ 10167 10162 10161 10158 ] final  -86.23 input  -65.29 | X-H torsion
[ 10718 10713 10712 10709 ] final -122.08 input   66.30 | X-H torsion
[ 10763 10752 10751 10750 ] final  -41.74 input  -60.55 | X-H torsion
[ 11005 11000 10999 10996 ] final    3.85 input  -57.11 | X-H torsion

> <Gold.Protein.ActiveResidues>
 VAL166  LYS551  ARG553  GLY616  TRP617  ASP618  TYR619  PRO620  LYS621  CYS622 
 ASP623  PHE694  ASN695  SER759  ASP760  ASP761  ALA762  ILE779  LEU786  VAL792 
 PHE793  MET794  SER795  GLU796  ALA797  LYS798  CYS799  TRP800  GLU811  SER814 

> <Gold.Protein.RotatedAtoms>
  151.5535  135.1067  159.9955 H   0  0  0  0  0  0  0  0  0  0  0  0  # atno 6907 bound_to 6896
  152.4480  133.7569  159.6736 H   0  0  0  0  0  0  0  0  0  0  0  0  # atno 6908 bound_to 6896
  150.8400  133.7883  159.3088 H   0  0  0  0  0  0  0  0  0  0  0  0  # atno 6909 bound_to 6896
  144.8230  139.6654  143.6092 H   0  0  0  0  0  0  0  0  0  0  0  0  # atno 7974 bound_to 7965
  154.7428  140.0493  157.0826 H   0  0  0  0  0  0  0  0  0  0  0  0  # atno 8008 bound_to 7997
  155.0156  140.3141  155.4793 H   0  0  0  0  0  0  0  0  0  0  0  0  # atno 8009 bound_to 7997
  156.2868  140.2176  156.5272 H   0  0  0  0  0  0  0  0  0  0  0  0  # atno 8010 bound_to 7997
  140.3961  143.2683  151.9202 H   0  0  0  0  0  0  0  0  0  0  0  0  # atno 10167 bound_to 10162
  156.1390  130.6451  150.9741 H   0  0  0  0  0  0  0  0  0  0  0  0  # atno 10718 bound_to 10713
  153.9675  135.6732  153.4746 H   0  0  0  0  0  0  0  0  0  0  0  0  # atno 10763 bound_to 10752
  153.0808  135.4924  154.8496 H   0  0  0  0  0  0  0  0  0  0  0  0  # atno 10764 bound_to 10752
  154.7238  135.3123  154.8965 H   0  0  0  0  0  0  0  0  0  0  0  0  # atno 10765 bound_to 10752
  140.5885  133.9946  155.8078 H   0  0  0  0  0  0  0  0  0  0  0  0  # atno 11005 bound_to 11000
  146.2535  139.6252  142.9410 LP  0  0  0  0  0  0  0  0  0  0  0  0  # atno 17320 bound_to 7965
  145.5063  141.0436  143.2513 LP  0  0  0  0  0  0  0  0  0  0  0  0  # atno 17321 bound_to 7965
  139.4786  144.5679  151.8135 LP  0  0  0  0  0  0  0  0  0  0  0  0  # atno 17342 bound_to 10162
  140.4789  144.1479  150.5929 LP  0  0  0  0  0  0  0  0  0  0  0  0  # atno 17343 bound_to 10162
  157.6558  131.0889  150.7950 LP  0  0  0  0  0  0  0  0  0  0  0  0  # atno 17370 bound_to 10713
  156.8027  130.4926  149.5367 LP  0  0  0  0  0  0  0  0  0  0  0  0  # atno 17371 bound_to 10713
  141.0950  133.9857  157.3174 LP  0  0  0  0  0  0  0  0  0  0  0  0  # atno 17394 bound_to 11000
  139.9285  135.0201  156.8318 LP  0  0  0  0  0  0  0  0  0  0  0  0  # atno 17395 bound_to 11000

$$$$
