AV-unprocessed.smi:3253|AV-procd|sdf|12452|dock2
  -GOLD-   2272018343D 1   1.00000     0.00000
 Structure written by MMmdl.
 36 37  0  0  0  0  0  0  0  0  1 V2000
  145.8248  135.3257  153.1544 C   0  0  0  0  0  0  0  0  0  0  0  0
  146.3776  134.0542  152.4966 C   0  0  1  0  0  0  0  0  0  0  0  0
  146.3829  134.1736  150.9573 C   0  0  0  0  0  0  0  0  0  0  0  0
  145.4145  133.2979  150.3220 N   0  0  0  0  0  0  0  0  0  0  0  0
  144.0461  133.5063  150.2059 C   0  0  0  0  0  0  0  0  0  0  0  0
  143.5406  132.4252  149.5200 C   0  0  0  0  0  0  0  0  0  0  0  0
  144.5719  131.5410  149.2133 N   0  0  0  0  0  0  0  0  0  0  0  0
  145.6504  132.1233  149.7218 C   0  0  0  0  0  0  0  0  0  0  0  0
  147.7274  133.8045  153.0011 N   0  0  0  0  0  0  0  0  0  0  0  0
  148.1773  132.6353  153.4839 C   0  0  0  0  0  0  0  0  0  0  0  0
  147.4694  131.6347  153.6050 O   0  0  0  0  0  0  0  0  0  0  0  0
  149.6651  132.5778  153.8611 C   0  0  1  0  0  0  0  0  0  0  0  0
  149.9889  133.4943  155.0589 C   0  0  0  0  0  0  0  0  0  0  0  0
  150.3129  132.5250  156.1841 C   0  0  0  0  0  0  0  0  0  0  0  0
  150.5169  132.8886  157.3415 O   0  0  0  0  0  0  0  0  0  0  0  0
  150.3300  131.2655  155.7394 N   0  0  0  0  0  0  0  0  0  0  0  0
  150.5799  130.0792  156.5465 C   0  0  0  0  0  0  0  0  0  0  0  0
  150.0898  131.1629  154.3105 C   0  0  0  0  0  0  0  0  0  0  0  0
  144.8090  135.5315  152.8160 H   0  0  0  0  0  0  0  0  0  0  0  0
  146.4372  136.1960  152.9162 H   0  0  0  0  0  0  0  0  0  0  0  0
  145.7952  135.2251  154.2398 H   0  0  0  0  0  0  0  0  0  0  0  0
  145.7163  133.2335  152.7804 H   0  0  0  0  0  0  0  0  0  0  0  0
  146.1531  135.1976  150.6599 H   0  0  0  0  0  0  0  0  0  0  0  0
  147.3731  133.9479  150.5589 H   0  0  0  0  0  0  0  0  0  0  0  0
  143.5604  134.3860  150.6014 H   0  0  0  0  0  0  0  0  0  0  0  0
  142.5224  132.2174  149.2261 H   0  0  0  0  0  0  0  0  0  0  0  0
  146.6370  131.6897  149.6477 H   0  0  0  0  0  0  0  0  0  0  0  0
  148.3820  134.5708  152.9398 H   0  0  0  0  0  0  0  0  0  0  0  0
  150.2615  132.8800  152.9982 H   0  0  0  0  0  0  0  0  0  0  0  0
  150.8616  134.1147  154.8536 H   0  0  0  0  0  0  0  0  0  0  0  0
  149.1676  134.1536  155.3444 H   0  0  0  0  0  0  0  0  0  0  0  0
  151.5188  130.1752  157.0927 H   0  0  0  0  0  0  0  0  0  0  0  0
  150.6416  129.1863  155.9238 H   0  0  0  0  0  0  0  0  0  0  0  0
  149.7748  129.9349  157.2677 H   0  0  0  0  0  0  0  0  0  0  0  0
  149.3342  130.4027  154.1032 H   0  0  0  0  0  0  0  0  0  0  0  0
  151.0098  130.8573  153.8105 H   0  0  0  0  0  0  0  0  0  0  0  0
  1  2  1  0  0  0  0
  1 19  1  0  0  0  0
  1 20  1  0  0  0  0
  1 21  1  0  0  0  0
  2  3  1  0  0  0  0
  2  9  1  0  0  0  0
  2 22  1  0  0  0  0
  3  4  1  0  0  0  0
  3 23  1  0  0  0  0
  3 24  1  0  0  0  0
  4  8  1  0  0  0  0
  4  5  1  0  0  0  0
  5  6  2  0  0  0  0
  5 25  1  0  0  0  0
  6  7  1  0  0  0  0
  6 26  1  0  0  0  0
  7  8  2  0  0  0  0
  8 27  1  0  0  0  0
  9 10  1  0  0  0  0
  9 28  1  0  0  0  0
 10 11  2  0  0  0  0
 10 12  1  0  0  0  0
 12 18  1  0  0  0  0
 12 13  1  0  0  0  0
 12 29  1  0  0  0  0
 13 14  1  0  0  0  0
 13 30  1  0  0  0  0
 13 31  1  0  0  0  0
 14 15  2  0  0  0  0
 14 16  1  0  0  0  0
 16 17  1  0  0  0  0
 16 18  1  0  0  0  0
 17 32  1  0  0  0  0
 17 33  1  0  0  0  0
 17 34  1  0  0  0  0
 18 35  1  0  0  0  0
 18 36  1  0  0  0  0
M  END
> <s_m_source_file>
AV-unprocessed.smi

> <i_m_source_file_index>
3253

> <i_lp_mmshare_version>
43012

> <i_f3d_flags>
0

> <s_epik_input>
W2NIXTFuW2NIXVtjSF1uMVtDSDJdW0NAQEhdKFtDSDNdKVtOSF1DKD1PKVtDQEBIXTJbQ0gyXUMoPU8pTihbQ0gzXSlbQ0gyXTI=

> <s_epik_cmdline>
J2VwaWtfcHl0aG9uJywgJy1waCcsICc3LjAnLCAnLXRuJywgJzgnLCAnLW1hJywgJzIwMCcsICctbWV0YWxfYmluZGluZycsICctaW1hZScsICc8aW5maWxlLm1hZT4nLCAnLW9tYWUnLCAnPG91dGZpbGUubWFlPic=

> <r_lp_tautomer_probability>
1

> <r_epik_Ionization_Penalty>
0.628884

> <r_epik_Ionization_Penalty_Charging>
0.628884

> <r_epik_Ionization_Penalty_Neutral>
2.35084e-08

> <r_epik_State_Penalty>
0.64556

> <r_epik_Charging_Adjusted_Penalty>
1.27444

> <i_epik_Tot_Q>
0

> <i_epik_Tot_abs_Q>
0

> <r_epik_Metal_State_Penalty>
0.308736

> <b_epik_Metal_Only>
0

> <s_lp_Force_Field>
OPLS_2005

> <r_lp_Energy>
12.6198

> <b_lp_Chiralities_Consistent>
1

> <s_lp_Variant>
AV-unprocessed.smi:3253-8

> <Gold.Version>
5.8.1

> <Gold.Id.Protein>
6NUR|6NUR_protein|mol2

> <Gold.PLP.Fitness>
40.9871

> <Gold.PLP.PLP>
-28.7910

> <Gold.PLP.part.hbond>
-3.0000

> <Gold.PLP.part.metal>
0.0000

> <Gold.PLP.part.buried>
-1.2041

> <Gold.PLP.part.nonpolar>
-25.3002

> <Gold.PLP.part.repulsive>
0.2234

> <Gold.PLP.ligand.clash>
0.0000

> <Gold.PLP.ligand.torsion>
1.1423

> <Gold.PLP.Chemscore.Hbond>
2.1376

> <Gold.PLP.Chemscore.CHOScore>
2.6645

> <Gold.PLP.Chemscore.Metal>
0.0000

> <Gold.Chemscore.Hbonds>
donor molecule, donor type, donor heavy atom, donor atom, acceptor molecule, acceptor atom, score
      L1  H     9    28       P1  7948  0.91
      P1  H  6896  6909       L1    15  0.98
      P1  H 10785 10796       L1     7  0.19
      L1  C     5    25       P1 10186  0.24
      L1  C     6    26       P1 10186  0.38
      L1  C     6    26       P1 10952  0.97
      L1  C     8    27       P1 10747  0.97

> <Gold.PLP.Chemscore.Internal.Correction>
0.0742

> <Gold.Rescore>
     Score         DG    S(hbond)    S(metal)    S(lipo)     H(rot)  DE(clash)    DE(int)     intcor
     10.50     -12.28       1.70        0.00      52.67       1.97       0.70       1.09       ----

> <Gold.Chemscore.Fitness>
10.4965

> <Gold.Chemscore.DG>
-12.2849

> <Gold.Chemscore.ZeroCoef>
-5.4800

> <Gold.Chemscore.Hbond>
1.6998

> <Gold.Chemscore.Metal>
0.0000

> <Gold.Chemscore.Lipo>
52.6728

> <Gold.Chemscore.Internal_Hbond>
0.0000

> <Gold.Chemscore.DEClash>
0.6999

> <Gold.Chemscore.DEInternal>
1.0885

> <Gold.Chemscore.Rot>
1.9669

> <Gold.Chemscore.Internal.Correction>
   9.000000E+99

> <Gold.Chemscore.Hbonds>
donor molecule, donor type, donor heavy atom, donor atom, acceptor molecule, acceptor atom, score
      L1  H     9    28       P1  7948  0.33
      P1  H  6896  6909       L1    15  0.92
      P1  H 10785 10796       L1     7  0.01

> <Gold.Chemscore.Hbond.Weighted>
-5.6774

> <Gold.Chemscore.Metal.Weighted>
-0.0000

> <Gold.Chemscore.Lipo.Weighted>
-6.1627

> <Gold.Chemscore.Internal_Hbond.Weighted>
0.0000

> <Gold.Chemscore.DEClash.Weighted>
0.6999

> <Gold.Chemscore.DEInternal.Weighted>
1.0885

> <Gold.Chemscore.Rot.Weighted>
5.0352

> <Gold.Chemscore.Internal.Correction.Weighted>
   9.000000E+99

> <Gold.Protein.RotatedTorsions>
[ 6907 6896 6895 6894 ] final  -26.15 input  -60.11 | X-H torsion
[ 7974 7965 7964 7962 ] final   61.28 input  175.53 | X-H torsion
[ 8008 7997 7996 7995 ] final  121.16 input   59.86 | X-H torsion
[ 10167 10162 10161 10158 ] final  179.28 input  -65.29 | X-H torsion
[ 10718 10713 10712 10709 ] final  -12.01 input   66.30 | X-H torsion
[ 10763 10752 10751 10750 ] final   15.89 input  -60.55 | X-H torsion
[ 11005 11000 10999 10996 ] final  140.29 input  -57.11 | X-H torsion

> <Gold.Protein.ActiveResidues>
 VAL166  LYS551  ARG553  GLY616  TRP617  ASP618  TYR619  PRO620  LYS621  CYS622 
 ASP623  PHE694  ASN695  SER759  ASP760  ASP761  ALA762  ILE779  LEU786  VAL792 
 PHE793  MET794  SER795  GLU796  ALA797  LYS798  CYS799  TRP800  GLU811  SER814 

> <Gold.Protein.RotatedAtoms>
  151.1651  135.0291  159.8726 H   0  0  0  0  0  0  0  0  0  0  0  0  # atno 6907 bound_to 6896
  152.5450  134.1235  159.8419 H   0  0  0  0  0  0  0  0  0  0  0  0  # atno 6908 bound_to 6896
  151.1334  133.4974  159.2631 H   0  0  0  0  0  0  0  0  0  0  0  0  # atno 6909 bound_to 6896
  145.8865  139.3480  143.0674 H   0  0  0  0  0  0  0  0  0  0  0  0  # atno 7974 bound_to 7965
  156.2674  140.2814  156.1265 H   0  0  0  0  0  0  0  0  0  0  0  0  # atno 8008 bound_to 7997
  155.1100  140.0390  157.2739 H   0  0  0  0  0  0  0  0  0  0  0  0  # atno 8009 bound_to 7997
  154.6750  140.2596  155.6974 H   0  0  0  0  0  0  0  0  0  0  0  0  # atno 8010 bound_to 7997
  139.5329  144.2580  152.0730 H   0  0  0  0  0  0  0  0  0  0  0  0  # atno 10167 bound_to 10162
  156.6507  130.4954  149.6063 H   0  0  0  0  0  0  0  0  0  0  0  0  # atno 10718 bound_to 10713
  153.1482  135.6773  153.8922 H   0  0  0  0  0  0  0  0  0  0  0  0  # atno 10763 bound_to 10752
  153.8356  135.3112  155.3423 H   0  0  0  0  0  0  0  0  0  0  0  0  # atno 10764 bound_to 10752
  154.7842  135.4871  153.9995 H   0  0  0  0  0  0  0  0  0  0  0  0  # atno 10765 bound_to 10752
  140.0317  134.9349  157.0674 H   0  0  0  0  0  0  0  0  0  0  0  0  # atno 11005 bound_to 11000
  145.8960  140.9273  143.0527 LP  0  0  0  0  0  0  0  0  0  0  0  0  # atno 17320 bound_to 7965
  144.6729  140.0969  143.7462 LP  0  0  0  0  0  0  0  0  0  0  0  0  # atno 17321 bound_to 7965
  140.2046  144.4623  150.6414 LP  0  0  0  0  0  0  0  0  0  0  0  0  # atno 17342 bound_to 10162
  140.6519  143.2227  151.6058 LP  0  0  0  0  0  0  0  0  0  0  0  0  # atno 17343 bound_to 10162
  156.2086  130.6665  151.1245 LP  0  0  0  0  0  0  0  0  0  0  0  0  # atno 17370 bound_to 10713
  157.7142  131.0719  150.6390 LP  0  0  0  0  0  0  0  0  0  0  0  0  # atno 17371 bound_to 10713
  140.4215  134.1875  155.7164 LP  0  0  0  0  0  0  0  0  0  0  0  0  # atno 17394 bound_to 11000
  141.1834  133.8364  157.1174 LP  0  0  0  0  0  0  0  0  0  0  0  0  # atno 17395 bound_to 11000

$$$$
