AV-unprocessed.smi:1409|AV-procd|sdf|5727|dock6
  -GOLD-   22720 5363D 1   1.00000     0.00000
 Structure written by MMmdl.
 37 38  0  0  0  0  0  0  0  0  1 V2000
  148.0828  131.9251  153.1831 C   0  0  0  0  0  0  0  0  0  0  0  0
  147.4926  133.0929  152.6230 O   0  0  0  0  0  0  0  0  0  0  0  0
  146.2960  132.9663  151.9433 C   0  0  0  0  0  0  0  0  0  0  0  0
  145.7412  131.7328  151.8367 N   0  0  0  0  0  0  0  0  0  0  0  0
  144.5725  131.6087  151.1748 C   0  0  0  0  0  0  0  0  0  0  0  0
  143.8961  132.6976  150.5950 C   0  0  0  0  0  0  0  0  0  0  0  0
  144.4692  133.9781  150.7043 C   0  0  0  0  0  0  0  0  0  0  0  0
  145.7037  134.1220  151.3827 C   0  0  0  0  0  0  0  0  0  0  0  0
  146.3555  135.3720  151.5690 N   0  0  0  0  0  0  0  0  0  0  0  0
  145.8022  136.5877  151.7140 C   0  0  0  0  0  0  0  0  0  0  0  0
  144.5954  136.8285  151.6869 O   0  0  0  0  0  0  0  0  0  0  0  0
  146.7414  137.5311  151.8693 N   0  0  0  0  0  0  0  0  0  0  0  0
  146.4796  138.9591  152.0169 C   0  0  0  0  0  0  0  0  0  0  0  0
  146.9430  139.5002  153.3842 C   0  0  2  0  0  0  0  0  0  0  0  0
  147.1133  141.0340  153.4132 C   0  0  0  0  0  0  0  0  0  0  0  0
  147.8441  141.4192  154.7023 C   0  0  0  0  0  0  0  0  0  0  0  0
  149.0240  140.0567  155.0220 S   0  0  0  0  0  0  0  0  0  0  0  0
  150.3555  140.4364  154.5262 O   0  0  0  0  0  0  0  0  0  0  0  0
  148.8379  139.5731  156.3984 O   0  0  0  0  0  0  0  0  0  0  0  0
  148.2686  138.8711  153.8439 C   0  0  0  0  0  0  0  0  0  0  0  0
  149.0182  132.1942  153.6735 H   0  0  0  0  0  0  0  0  0  0  0  0
  148.3144  131.1859  152.4149 H   0  0  0  0  0  0  0  0  0  0  0  0
  147.4341  131.4714  153.9339 H   0  0  0  0  0  0  0  0  0  0  0  0
  144.1607  130.6123  151.1110 H   0  0  0  0  0  0  0  0  0  0  0  0
  142.9560  132.5547  150.0829 H   0  0  0  0  0  0  0  0  0  0  0  0
  143.9470  134.8227  150.2819 H   0  0  0  0  0  0  0  0  0  0  0  0
  147.3632  135.3443  151.5146 H   0  0  0  0  0  0  0  0  0  0  0  0
  147.7088  137.2426  151.8774 H   0  0  0  0  0  0  0  0  0  0  0  0
  146.9634  139.5101  151.2084 H   0  0  0  0  0  0  0  0  0  0  0  0
  145.4076  139.1174  151.8966 H   0  0  0  0  0  0  0  0  0  0  0  0
  146.1917  139.2452  154.1334 H   0  0  0  0  0  0  0  0  0  0  0  0
  147.7170  141.3439  152.5592 H   0  0  0  0  0  0  0  0  0  0  0  0
  146.1574  141.5527  153.3333 H   0  0  0  0  0  0  0  0  0  0  0  0
  148.3726  142.3699  154.6299 H   0  0  0  0  0  0  0  0  0  0  0  0
  147.1481  141.4669  155.5401 H   0  0  0  0  0  0  0  0  0  0  0  0
  148.1329  137.9012  154.3227 H   0  0  0  0  0  0  0  0  0  0  0  0
  148.9597  138.7502  153.0092 H   0  0  0  0  0  0  0  0  0  0  0  0
  1  2  1  0  0  0  0
  1 21  1  0  0  0  0
  1 22  1  0  0  0  0
  1 23  1  0  0  0  0
  2  3  1  0  0  0  0
  3  8  1  0  0  0  0
  3  4  2  0  0  0  0
  4  5  1  0  0  0  0
  5  6  2  0  0  0  0
  5 24  1  0  0  0  0
  6  7  1  0  0  0  0
  6 25  1  0  0  0  0
  7  8  2  0  0  0  0
  7 26  1  0  0  0  0
  8  9  1  0  0  0  0
  9 10  1  0  0  0  0
  9 27  1  0  0  0  0
 10 11  2  0  0  0  0
 10 12  1  0  0  0  0
 12 13  1  0  0  0  0
 12 28  1  0  0  0  0
 13 14  1  0  0  0  0
 13 29  1  0  0  0  0
 13 30  1  0  0  0  0
 14 20  1  0  0  0  0
 14 15  1  0  0  0  0
 14 31  1  0  0  0  0
 15 16  1  0  0  0  0
 15 32  1  0  0  0  0
 15 33  1  0  0  0  0
 16 17  1  0  0  0  0
 16 34  1  0  0  0  0
 16 35  1  0  0  0  0
 17 18  2  0  0  0  0
 17 19  2  0  0  0  0
 17 20  1  0  0  0  0
 20 36  1  0  0  0  0
 20 37  1  0  0  0  0
M  END
> <s_m_source_file>
AV-unprocessed.smi

> <i_m_source_file_index>
1409

> <i_lp_mmshare_version>
43012

> <i_f3d_flags>
0

> <s_epik_input>
W0NIM11PYzFuW2NIXVtjSF1bY0hdYzFbTkhdQyg9TylbTkhdW0NIMl1bQ0BASF0oW0NIMl0yKVtDSDJdW0NIMl1TMig9Tyk9Tw==

> <s_epik_cmdline>
J2VwaWtfcHl0aG9uJywgJy1waCcsICc3LjAnLCAnLXRuJywgJzgnLCAnLW1hJywgJzIwMCcsICctbWV0YWxfYmluZGluZycsICctaW1hZScsICc8aW5maWxlLm1hZT4nLCAnLW9tYWUnLCAnPG91dGZpbGUubWFlPic=

> <r_lp_tautomer_probability>
1

> <r_epik_Ionization_Penalty>
9.0549e-05

> <r_epik_Ionization_Penalty_Charging>
0

> <r_epik_Ionization_Penalty_Neutral>
9.0549e-05

> <r_epik_State_Penalty>
-0

> <r_epik_Charging_Adjusted_Penalty>
0

> <i_epik_Tot_Q>
0

> <i_epik_Tot_abs_Q>
0

> <r_epik_Metal_State_Penalty>
-0

> <b_epik_Metal_Only>
0

> <s_lp_Force_Field>
OPLS_2005

> <r_lp_Energy>
8.54576

> <b_lp_Chiralities_Consistent>
1

> <s_lp_Variant>
AV-unprocessed.smi:1409-1

> <Gold.Version>
5.8.1

> <Gold.Id.Protein>
6NUR|6NUR_protein|mol2

> <Gold.PLP.Fitness>
40.9721

> <Gold.PLP.PLP>
-32.9358

> <Gold.PLP.part.hbond>
-2.9302

> <Gold.PLP.part.metal>
0.0000

> <Gold.PLP.part.buried>
-5.1385

> <Gold.PLP.part.nonpolar>
-28.7086

> <Gold.PLP.part.repulsive>
3.6002

> <Gold.PLP.ligand.clash>
0.0000

> <Gold.PLP.ligand.torsion>
0.4132

> <Gold.PLP.Chemscore.Hbond>
2.9520

> <Gold.PLP.Chemscore.CHOScore>
0.0000

> <Gold.PLP.Chemscore.Metal>
0.0000

> <Gold.Chemscore.Hbonds>
donor molecule, donor type, donor heavy atom, donor atom, acceptor molecule, acceptor atom, score
      L1  H     9    27       P1  7948  0.96
      L1  H    12    28       P1  7948  1.00
      P1  H  7989  7998       L1    18  1.00

> <Gold.PLP.Chemscore.Internal.Correction>
0.0068

> <Gold.Rescore>
     Score         DG    S(hbond)    S(metal)    S(lipo)     H(rot)  DE(clash)    DE(int)     intcor
     16.43     -18.86       2.89        0.00      66.58       1.59       1.31       1.12       ----

> <Gold.Chemscore.Fitness>
16.4255

> <Gold.Chemscore.DG>
-18.8587

> <Gold.Chemscore.ZeroCoef>
-5.4800

> <Gold.Chemscore.Hbond>
2.8936

> <Gold.Chemscore.Metal>
0.0000

> <Gold.Chemscore.Lipo>
66.5772

> <Gold.Chemscore.Internal_Hbond>
0.0000

> <Gold.Chemscore.DEClash>
1.3137

> <Gold.Chemscore.DEInternal>
1.1196

> <Gold.Chemscore.Rot>
1.5919

> <Gold.Chemscore.Internal.Correction>
   9.000000E+99

> <Gold.Chemscore.Hbonds>
donor molecule, donor type, donor heavy atom, donor atom, acceptor molecule, acceptor atom, score
      L1  H     9    27       P1  7948  0.84
      L1  H    12    28       P1  7948  0.97
      P1  H  7989  7998       L1    18  0.94

> <Gold.Chemscore.Hbond.Weighted>
-9.6645

> <Gold.Chemscore.Metal.Weighted>
-0.0000

> <Gold.Chemscore.Lipo.Weighted>
-7.7895

> <Gold.Chemscore.Internal_Hbond.Weighted>
0.0000

> <Gold.Chemscore.DEClash.Weighted>
1.3137

> <Gold.Chemscore.DEInternal.Weighted>
1.1196

> <Gold.Chemscore.Rot.Weighted>
4.0754

> <Gold.Chemscore.Internal.Correction.Weighted>
   9.000000E+99

> <Gold.Protein.RotatedTorsions>
[ 6907 6896 6895 6894 ] final   98.50 input  -60.11 | X-H torsion
[ 7974 7965 7964 7962 ] final -173.34 input  175.53 | X-H torsion
[ 8008 7997 7996 7995 ] final   81.19 input   59.86 | X-H torsion
[ 10167 10162 10161 10158 ] final  172.99 input  -65.29 | X-H torsion
[ 10718 10713 10712 10709 ] final  -16.77 input   66.30 | X-H torsion
[ 10763 10752 10751 10750 ] final  147.92 input  -60.55 | X-H torsion
[ 11005 11000 10999 10996 ] final   -0.78 input  -57.11 | X-H torsion

> <Gold.Protein.ActiveResidues>
 VAL166  LYS551  ARG553  GLY616  TRP617  ASP618  TYR619  PRO620  LYS621  CYS622 
 ASP623  PHE694  ASN695  SER759  ASP760  ASP761  ALA762  ILE779  LEU786  VAL792 
 PHE793  MET794  SER795  GLU796  ALA797  LYS798  CYS799  TRP800  GLU811  SER814 

> <Gold.Protein.RotatedAtoms>
  152.5408  134.0571  159.8135 H   0  0  0  0  0  0  0  0  0  0  0  0  # atno 6907 bound_to 6896
  151.0704  133.5463  159.2635 H   0  0  0  0  0  0  0  0  0  0  0  0  # atno 6908 bound_to 6896
  151.2329  135.0569  159.9048 H   0  0  0  0  0  0  0  0  0  0  0  0  # atno 6909 bound_to 6896
  144.7139  140.1637  143.6374 H   0  0  0  0  0  0  0  0  0  0  0  0  # atno 7974 bound_to 7965
  155.8937  140.3437  155.5975 H   0  0  0  0  0  0  0  0  0  0  0  0  # atno 8008 bound_to 7997
  155.7581  140.0829  157.2188 H   0  0  0  0  0  0  0  0  0  0  0  0  # atno 8009 bound_to 7997
  154.4036  140.1541  156.2788 H   0  0  0  0  0  0  0  0  0  0  0  0  # atno 8010 bound_to 7997
  139.5094  144.3311  152.0110 H   0  0  0  0  0  0  0  0  0  0  0  0  # atno 10167 bound_to 10162
  156.5830  130.4779  149.6312 H   0  0  0  0  0  0  0  0  0  0  0  0  # atno 10718 bound_to 10713
  154.0463  135.2885  155.3347 H   0  0  0  0  0  0  0  0  0  0  0  0  # atno 10763 bound_to 10752
  154.6897  135.5231  153.8379 H   0  0  0  0  0  0  0  0  0  0  0  0  # atno 10764 bound_to 10752
  153.0579  135.6602  154.0663 H   0  0  0  0  0  0  0  0  0  0  0  0  # atno 10765 bound_to 10752
  140.6400  133.9498  155.8321 H   0  0  0  0  0  0  0  0  0  0  0  0  # atno 11005 bound_to 11000
  145.9007  139.2428  143.1495 LP  0  0  0  0  0  0  0  0  0  0  0  0  # atno 17320 bound_to 7965
  145.9813  140.8680  143.0113 LP  0  0  0  0  0  0  0  0  0  0  0  0  # atno 17321 bound_to 7965
  140.2750  144.3922  150.6138 LP  0  0  0  0  0  0  0  0  0  0  0  0  # atno 17342 bound_to 10162
  140.6060  143.2168  151.6980 LP  0  0  0  0  0  0  0  0  0  0  0  0  # atno 17343 bound_to 10162
  156.2615  130.6965  151.1735 LP  0  0  0  0  0  0  0  0  0  0  0  0  # atno 17370 bound_to 10713
  157.7322  131.0602  150.5640 LP  0  0  0  0  0  0  0  0  0  0  0  0  # atno 17371 bound_to 10713
  141.0614  134.0341  157.3654 LP  0  0  0  0  0  0  0  0  0  0  0  0  # atno 17394 bound_to 11000
  139.9084  135.0185  156.7585 LP  0  0  0  0  0  0  0  0  0  0  0  0  # atno 17395 bound_to 11000

$$$$
