AV-unprocessed.smi:2226|AV-procd|sdf|9002|dock3
  -GOLD-   2272012213D 1   1.00000     0.00000
 Structure written by MMmdl.
 40 42  0  0  0  0  0  0  0  0  2 V2000
  145.9035  143.1162  153.7787 C   0  0  0  0  0  0  0  0  0  0  0  0
  146.0473  141.6518  153.9589 N   0  3  2  0  0  0  0  0  0  0  0  0
  145.6920  141.1511  155.3090 C   0  0  1  0  0  0  0  0  0  0  0  0
  145.4610  139.6235  155.2307 C   0  0  0  0  0  0  0  0  0  0  0  0
  146.6314  138.8459  154.5939 C   0  0  0  0  0  0  0  0  0  0  0  0
  147.2167  139.5659  153.3614 C   0  0  0  0  0  0  0  0  0  0  0  0
  147.3563  141.0965  153.5370 C   0  0  2  0  0  0  0  0  0  0  0  0
  148.4913  141.5406  154.4937 C   0  0  0  0  0  0  0  0  0  0  0  0
  148.2013  141.2977  155.9929 C   0  0  1  0  0  0  0  0  0  0  0  0
  149.0882  142.1354  156.8001 N   0  0  0  0  0  0  0  0  0  0  0  0
  149.9924  141.6967  157.6901 C   0  0  0  0  0  0  0  0  0  0  0  0
  150.1856  140.5063  157.9372 O   0  0  0  0  0  0  0  0  0  0  0  0
  150.6473  142.7200  158.2650 N   0  0  0  0  0  0  0  0  0  0  0  0
  151.6677  142.6486  159.2475 C   0  0  0  0  0  0  0  0  0  0  0  0
  151.6382  143.1918  160.4655 N   0  0  0  0  0  0  0  0  0  0  0  0
  152.8555  142.8443  161.0335 C   0  0  0  0  0  0  0  0  0  0  0  0
  153.5584  142.1038  160.1180 C   0  0  0  0  0  0  0  0  0  0  0  0
  152.8144  141.9711  158.9762 O   0  0  0  0  0  0  0  0  0  0  0  0
  146.7316  141.5983  156.3674 C   0  0  0  0  0  0  0  0  0  0  0  0
  146.5914  143.6807  154.4076 H   0  0  0  0  0  0  0  0  0  0  0  0
  144.8881  143.4305  154.0221 H   0  0  0  0  0  0  0  0  0  0  0  0
  146.0921  143.3910  152.7406 H   0  0  0  0  0  0  0  0  0  0  0  0
  144.7347  141.5940  155.5875 H   0  0  0  0  0  0  0  0  0  0  0  0
  145.2379  139.2202  156.2191 H   0  0  0  0  0  0  0  0  0  0  0  0
  144.5683  139.4457  154.6291 H   0  0  0  0  0  0  0  0  0  0  0  0
  147.4089  138.6596  155.3300 H   0  0  0  0  0  0  0  0  0  0  0  0
  146.2901  137.8514  154.3040 H   0  0  0  0  0  0  0  0  0  0  0  0
  148.1762  139.1238  153.0908 H   0  0  0  0  0  0  0  0  0  0  0  0
  146.5549  139.3805  152.5142 H   0  0  0  0  0  0  0  0  0  0  0  0
  147.5872  141.5004  152.5503 H   0  0  0  0  0  0  0  0  0  0  0  0
  149.4259  141.0517  154.2156 H   0  0  0  0  0  0  0  0  0  0  0  0
  148.6676  142.6053  154.3352 H   0  0  0  0  0  0  0  0  0  0  0  0
  148.4048  140.2541  156.2162 H   0  0  0  0  0  0  0  0  0  0  0  0
  149.0065  143.1333  156.6700 H   0  0  0  0  0  0  0  0  0  0  0  0
  150.3907  143.6506  157.9706 H   0  0  0  0  0  0  0  0  0  0  0  0
  153.1242  143.1478  162.0348 H   0  0  0  0  0  0  0  0  0  0  0  0
  154.5298  141.6317  160.1226 H   0  0  0  0  0  0  0  0  0  0  0  0
  146.6174  142.6725  156.5182 H   0  0  0  0  0  0  0  0  0  0  0  0
  146.4982  141.1476  157.3328 H   0  0  0  0  0  0  0  0  0  0  0  0
  145.3658  141.2490  153.3312 H   0  0  0  0  0  0  0  0  0  0  0  0
  1  2  1  0  0  0  0
  1 20  1  0  0  0  0
  1 21  1  0  0  0  0
  1 22  1  0  0  0  0
  2  7  1  0  0  0  0
  2  3  1  0  0  0  0
  2 40  1  0  0  0  0
  3 19  1  0  0  0  0
  3  4  1  0  0  0  0
  3 23  1  0  0  0  0
  4  5  1  0  0  0  0
  4 24  1  0  0  0  0
  4 25  1  0  0  0  0
  5  6  1  0  0  0  0
  5 26  1  0  0  0  0
  5 27  1  0  0  0  0
  6  7  1  0  0  0  0
  6 28  1  0  0  0  0
  6 29  1  0  0  0  0
  7  8  1  0  0  0  0
  7 30  1  0  0  0  0
  8  9  1  0  0  0  0
  8 31  1  0  0  0  0
  8 32  1  0  0  0  0
  9 10  1  0  0  0  0
  9 19  1  0  0  0  0
  9 33  1  0  0  0  0
 10 11  1  0  0  0  0
 10 34  1  0  0  0  0
 11 12  2  0  0  0  0
 11 13  1  0  0  0  0
 13 14  1  0  0  0  0
 13 35  1  0  0  0  0
 14 18  1  0  0  0  0
 14 15  2  0  0  0  0
 15 16  1  0  0  0  0
 16 17  2  0  0  0  0
 16 36  1  0  0  0  0
 17 18  1  0  0  0  0
 17 37  1  0  0  0  0
 19 38  1  0  0  0  0
 19 39  1  0  0  0  0
M  CHG  1   2   1
M  END
> <s_m_source_file>
AV-unprocessed.smi

> <i_m_source_file_index>
2226

> <i_lp_mmshare_version>
43012

> <i_f3d_flags>
0

> <s_epik_input>
W0NIMl0xW0NIMl1bQ0gyXVtDQEhdKE4oW0NIM10pW0NIXTEyKVtDSDJdW0NASF0oW0NIMl0yKVtOSF1DKD1PKVtOSF1jM25bY0hdW2NIXW8z

> <s_epik_cmdline>
J2VwaWtfcHl0aG9uJywgJy1waCcsICc3LjAnLCAnLXRuJywgJzgnLCAnLW1hJywgJzIwMCcsICctbWV0YWxfYmluZGluZycsICctaW1hZScsICc8aW5maWxlLm1hZT4nLCAnLW9tYWUnLCAnPG91dGZpbGUubWFlPic=

> <r_lp_tautomer_probability>
0.785861

> <r_epik_Ionization_Penalty>
0.000929358

> <r_epik_Ionization_Penalty_Charging>
0.000890041

> <r_epik_Ionization_Penalty_Neutral>
3.93161e-05

> <r_epik_State_Penalty>
0.0312137

> <r_epik_Charging_Adjusted_Penalty>
0.0321037

> <i_epik_Tot_Q>
1

> <i_epik_Tot_abs_Q>
1

> <r_epik_Metal_State_Penalty>
0.0605703

> <b_epik_Metal_Only>
0

> <s_lp_Force_Field>
OPLS_2005

> <r_lp_Energy>
35.273

> <b_lp_Chiralities_Consistent>
1

> <s_lp_Variant>
AV-unprocessed.smi:2226-2

> <Gold.Version>
5.8.1

> <Gold.Id.Protein>
6NUR|6NUR_protein|mol2

> <Gold.PLP.Fitness>
39.5243

> <Gold.PLP.PLP>
-31.6312

> <Gold.PLP.part.hbond>
-2.4137

> <Gold.PLP.part.metal>
0.0000

> <Gold.PLP.part.buried>
-6.9037

> <Gold.PLP.part.nonpolar>
-23.7687

> <Gold.PLP.part.repulsive>
0.1541

> <Gold.PLP.ligand.clash>
0.0000

> <Gold.PLP.ligand.torsion>
0.5567

> <Gold.PLP.Chemscore.Hbond>
3.0000

> <Gold.PLP.Chemscore.CHOScore>
0.0000

> <Gold.PLP.Chemscore.Metal>
0.0000

> <Gold.Chemscore.Hbonds>
donor molecule, donor type, donor heavy atom, donor atom, acceptor molecule, acceptor atom, score
      L1  H     2    40       P1 10175  2.00
      L1  H    10    34       P1  8028  1.00

> <Gold.PLP.Chemscore.Internal.Correction>
0.0066

> <Gold.Rescore>
     Score         DG    S(hbond)    S(metal)    S(lipo)     H(rot)  DE(clash)    DE(int)     intcor
     16.38     -16.96       1.97        0.00      63.85       1.00       0.10       0.48       ----

> <Gold.Chemscore.Fitness>
16.3824

> <Gold.Chemscore.DG>
-16.9597

> <Gold.Chemscore.ZeroCoef>
-5.4800

> <Gold.Chemscore.Hbond>
1.9670

> <Gold.Chemscore.Metal>
0.0000

> <Gold.Chemscore.Lipo>
63.8468

> <Gold.Chemscore.Internal_Hbond>
0.0000

> <Gold.Chemscore.DEClash>
0.0984

> <Gold.Chemscore.DEInternal>
0.4789

> <Gold.Chemscore.Rot>
1.0000

> <Gold.Chemscore.Internal.Correction>
   9.000000E+99

> <Gold.Chemscore.Hbonds>
donor molecule, donor type, donor heavy atom, donor atom, acceptor molecule, acceptor atom, score
      L1  H     2    40       P1 10175  0.24
      L1  H    10    34       P1  8028  0.95

> <Gold.Chemscore.Hbond.Weighted>
-6.5697

> <Gold.Chemscore.Metal.Weighted>
-0.0000

> <Gold.Chemscore.Lipo.Weighted>
-7.4701

> <Gold.Chemscore.Internal_Hbond.Weighted>
0.0000

> <Gold.Chemscore.DEClash.Weighted>
0.0984

> <Gold.Chemscore.DEInternal.Weighted>
0.4789

> <Gold.Chemscore.Rot.Weighted>
2.5600

> <Gold.Chemscore.Internal.Correction.Weighted>
   9.000000E+99

> <Gold.Protein.RotatedTorsions>
[ 6907 6896 6895 6894 ] final    8.89 input  -60.11 | X-H torsion
[ 7974 7965 7964 7962 ] final  -94.61 input  175.53 | X-H torsion
[ 8008 7997 7996 7995 ] final -129.59 input   59.86 | X-H torsion
[ 10167 10162 10161 10158 ] final   45.98 input  -65.29 | X-H torsion
[ 10718 10713 10712 10709 ] final   81.40 input   66.30 | X-H torsion
[ 10763 10752 10751 10750 ] final  111.21 input  -60.55 | X-H torsion
[ 11005 11000 10999 10996 ] final  177.96 input  -57.11 | X-H torsion

> <Gold.Protein.ActiveResidues>
 VAL166  LYS551  ARG553  GLY616  TRP617  ASP618  TYR619  PRO620  LYS621  CYS622 
 ASP623  PHE694  ASN695  SER759  ASP760  ASP761  ALA762  ILE779  LEU786  VAL792 
 PHE793  MET794  SER795  GLU796  ALA797  LYS798  CYS799  TRP800  GLU811  SER814 

> <Gold.Protein.RotatedAtoms>
  151.7133  135.0908  160.0271 H   0  0  0  0  0  0  0  0  0  0  0  0  # atno 6907 bound_to 6896
  152.3648  133.6338  159.6050 H   0  0  0  0  0  0  0  0  0  0  0  0  # atno 6908 bound_to 6896
  150.7630  133.9282  159.3460 H   0  0  0  0  0  0  0  0  0  0  0  0  # atno 6909 bound_to 6896
  145.3709  140.9505  143.2447 H   0  0  0  0  0  0  0  0  0  0  0  0  # atno 7974 bound_to 7965
  155.2817  140.0444  157.3016 H   0  0  0  0  0  0  0  0  0  0  0  0  # atno 8008 bound_to 7997
  154.5593  140.2341  155.8329 H   0  0  0  0  0  0  0  0  0  0  0  0  # atno 8009 bound_to 7997
  156.2034  140.3019  155.9581 H   0  0  0  0  0  0  0  0  0  0  0  0  # atno 8010 bound_to 7997
  140.3186  144.2733  150.6187 H   0  0  0  0  0  0  0  0  0  0  0  0  # atno 10167 bound_to 10162
  157.6832  131.0002  150.2221 H   0  0  0  0  0  0  0  0  0  0  0  0  # atno 10718 bound_to 10713
  153.4601  135.3724  155.2333 H   0  0  0  0  0  0  0  0  0  0  0  0  # atno 10763 bound_to 10752
  154.8757  135.3906  154.3935 H   0  0  0  0  0  0  0  0  0  0  0  0  # atno 10764 bound_to 10752
  153.4507  135.7085  153.6175 H   0  0  0  0  0  0  0  0  0  0  0  0  # atno 10765 bound_to 10752
  140.3899  134.6871  157.4501 H   0  0  0  0  0  0  0  0  0  0  0  0  # atno 11005 bound_to 11000
  144.8577  139.5225  143.6827 LP  0  0  0  0  0  0  0  0  0  0  0  0  # atno 17320 bound_to 7965
  146.2885  139.7073  142.9178 LP  0  0  0  0  0  0  0  0  0  0  0  0  # atno 17321 bound_to 7965
  140.5504  143.2207  151.7937 LP  0  0  0  0  0  0  0  0  0  0  0  0  # atno 17342 bound_to 10162
  139.4879  144.4484  151.9683 LP  0  0  0  0  0  0  0  0  0  0  0  0  # atno 17343 bound_to 10162
  156.2870  130.3740  149.7879 LP  0  0  0  0  0  0  0  0  0  0  0  0  # atno 17370 bound_to 10713
  156.5550  130.8358  151.3311 LP  0  0  0  0  0  0  0  0  0  0  0  0  # atno 17371 bound_to 10713
  140.0414  134.6261  155.8975 LP  0  0  0  0  0  0  0  0  0  0  0  0  # atno 17394 bound_to 11000
  141.1894  133.6565  156.5368 LP  0  0  0  0  0  0  0  0  0  0  0  0  # atno 17395 bound_to 11000

$$$$
