AV-unprocessed.smi:258|AV-procd|sdf|1966|dock1
  -GOLD-   2262021113D 1   1.00000     0.00000
 Structure written by MMmdl.
 57 60  0  0  0  0  0  0  0  0  1 V2000
  146.2189  131.5626  151.7869 O   0  0  0  0  0  0  0  0  0  0  0  0
  146.3713  132.9646  151.8550 C   0  0  0  0  0  0  0  0  0  0  0  0
  146.7315  133.3909  153.2833 C   0  0  0  0  0  0  0  0  0  0  0  0
  147.8945  132.6882  153.6977 O   0  0  0  0  0  0  0  0  0  0  0  0
  148.1632  132.7662  155.0913 C   0  0  1  0  0  0  0  0  0  0  0  0
  149.1081  131.6319  155.5363 C   0  0  0  0  0  0  0  0  0  0  0  0
  149.5056  131.8191  157.0082 C   0  0  0  0  0  0  0  0  0  0  0  0
  150.1141  133.2109  157.2430 C   0  0  0  0  0  0  0  0  0  0  0  0
  149.2135  134.2604  156.7625 N   0  0  0  0  0  0  0  0  0  0  0  0
  149.4453  135.5322  157.1770 C   0  0  0  0  0  0  0  0  0  0  0  0
  148.8167  136.0113  158.2846 N   0  0  0  0  0  0  0  0  0  0  0  0
  149.0477  137.2576  158.7076 C   0  0  0  0  0  0  0  0  0  0  0  0
  149.8539  138.1818  158.1819 N   0  0  0  0  0  0  0  0  0  0  0  0
  150.4799  137.7118  157.0657 C   0  0  0  0  0  0  0  0  0  0  0  0
  150.3335  136.4143  156.4980 C   0  0  0  0  0  0  0  0  0  0  0  0
  151.1181  136.3088  155.3548 N   0  0  0  0  0  0  0  0  0  0  0  0
  151.7047  137.4708  155.2608 C   0  0  0  0  0  0  0  0  0  0  0  0
  151.3766  138.3735  156.2468 N   0  0  0  0  0  0  0  0  0  0  0  0
  151.8777  139.7294  156.3878 C   0  0  0  0  0  0  0  0  0  0  0  0
  150.9983  140.6206  157.3004 C   0  0  2  0  0  0  0  0  0  0  0  0
  149.7716  141.2096  156.5624 C   0  0  0  0  0  0  0  0  0  0  0  0
  150.1637  142.0125  155.4678 O   0  0  0  0  0  0  0  0  0  0  0  0
  151.8395  141.7145  158.0054 C   0  0  2  0  0  0  0  0  0  0  0  0
  152.7306  141.2098  159.1268 C   0  0  0  0  0  0  0  0  0  0  0  0
  153.0441  142.4918  159.8908 C   0  0  0  0  0  0  0  0  0  0  0  0
  151.8966  143.3207  159.7404 O   0  0  0  0  0  0  0  0  0  0  0  0
  151.0238  142.7702  158.7589 C   0  0  0  0  0  0  0  0  0  0  0  0
  148.8119  134.1352  155.3612 C   0  0  0  0  0  0  0  0  0  0  0  0
  147.0123  131.1912  151.4329 H   0  0  0  0  0  0  0  0  0  0  0  0
  147.1197  133.3032  151.1380 H   0  0  0  0  0  0  0  0  0  0  0  0
  145.4206  133.4127  151.5653 H   0  0  0  0  0  0  0  0  0  0  0  0
  146.9541  134.4589  153.2876 H   0  0  0  0  0  0  0  0  0  0  0  0
  145.8902  133.2341  153.9591 H   0  0  0  0  0  0  0  0  0  0  0  0
  147.2301  132.7150  155.6559 H   0  0  0  0  0  0  0  0  0  0  0  0
  148.6373  130.6578  155.4082 H   0  0  0  0  0  0  0  0  0  0  0  0
  150.0030  131.6315  154.9126 H   0  0  0  0  0  0  0  0  0  0  0  0
  148.6255  131.6958  157.6405 H   0  0  0  0  0  0  0  0  0  0  0  0
  150.2138  131.0463  157.3078 H   0  0  0  0  0  0  0  0  0  0  0  0
  150.3119  133.3434  158.3078 H   0  0  0  0  0  0  0  0  0  0  0  0
  151.0700  133.2917  156.7236 H   0  0  0  0  0  0  0  0  0  0  0  0
  148.5100  137.5560  159.5954 H   0  0  0  0  0  0  0  0  0  0  0  0
  152.3913  137.7059  154.4605 H   0  0  0  0  0  0  0  0  0  0  0  0
  152.8939  139.6662  156.7773 H   0  0  0  0  0  0  0  0  0  0  0  0
  151.9567  140.1709  155.3937 H   0  0  0  0  0  0  0  0  0  0  0  0
  150.5987  139.9715  158.0811 H   0  0  0  0  0  0  0  0  0  0  0  0
  149.1167  140.4180  156.1981 H   0  0  0  0  0  0  0  0  0  0  0  0
  149.1626  141.8107  157.2372 H   0  0  0  0  0  0  0  0  0  0  0  0
  149.9420  142.9108  155.6596 H   0  0  0  0  0  0  0  0  0  0  0  0
  152.4690  142.2212  157.2720 H   0  0  0  0  0  0  0  0  0  0  0  0
  152.1826  140.5173  159.7675 H   0  0  0  0  0  0  0  0  0  0  0  0
  153.6303  140.7072  158.7711 H   0  0  0  0  0  0  0  0  0  0  0  0
  153.2694  142.3072  160.9414 H   0  0  0  0  0  0  0  0  0  0  0  0
  153.8997  142.9999  159.4445 H   0  0  0  0  0  0  0  0  0  0  0  0
  150.6373  143.5484  158.1006 H   0  0  0  0  0  0  0  0  0  0  0  0
  150.1779  142.3118  159.2731 H   0  0  0  0  0  0  0  0  0  0  0  0
  149.6973  134.2567  154.7353 H   0  0  0  0  0  0  0  0  0  0  0  0
  148.1182  134.9234  155.0715 H   0  0  0  0  0  0  0  0  0  0  0  0
  1  2  1  0  0  0  0
  1 29  1  0  0  0  0
  2  3  1  0  0  0  0
  2 30  1  0  0  0  0
  2 31  1  0  0  0  0
  3  4  1  0  0  0  0
  3 32  1  0  0  0  0
  3 33  1  0  0  0  0
  4  5  1  0  0  0  0
  5 28  1  0  0  0  0
  5  6  1  0  0  0  0
  5 34  1  0  0  0  0
  6  7  1  0  0  0  0
  6 35  1  0  0  0  0
  6 36  1  0  0  0  0
  7  8  1  0  0  0  0
  7 37  1  0  0  0  0
  7 38  1  0  0  0  0
  8  9  1  0  0  0  0
  8 39  1  0  0  0  0
  8 40  1  0  0  0  0
  9 10  1  0  0  0  0
  9 28  1  0  0  0  0
 10 15  1  0  0  0  0
 10 11  2  0  0  0  0
 11 12  1  0  0  0  0
 12 13  2  0  0  0  0
 12 41  1  0  0  0  0
 13 14  1  0  0  0  0
 14 18  1  0  0  0  0
 14 15  2  0  0  0  0
 15 16  1  0  0  0  0
 16 17  2  0  0  0  0
 17 18  1  0  0  0  0
 17 42  1  0  0  0  0
 18 19  1  0  0  0  0
 19 20  1  0  0  0  0
 19 43  1  0  0  0  0
 19 44  1  0  0  0  0
 20 21  1  0  0  0  0
 20 23  1  0  0  0  0
 20 45  1  0  0  0  0
 21 22  1  0  0  0  0
 21 46  1  0  0  0  0
 21 47  1  0  0  0  0
 22 48  1  0  0  0  0
 23 27  1  0  0  0  0
 23 24  1  0  0  0  0
 23 49  1  0  0  0  0
 24 25  1  0  0  0  0
 24 50  1  0  0  0  0
 24 51  1  0  0  0  0
 25 26  1  0  0  0  0
 25 52  1  0  0  0  0
 25 53  1  0  0  0  0
 26 27  1  0  0  0  0
 27 54  1  0  0  0  0
 27 55  1  0  0  0  0
 28 56  1  0  0  0  0
 28 57  1  0  0  0  0
M  END
> <s_m_source_file>
AV-unprocessed.smi

> <i_m_source_file_index>
258

> <i_lp_mmshare_version>
43012

> <i_f3d_flags>
0

> <s_epik_input>
W09IXVtDSDJdW0NIMl1PW0NAQEhdMVtDSDJdW0NIMl1bQ0gyXU4oW0NIMl0xKWMobltjSF1uMiljKGMyMyluW2NIXW4zW0NIMl1bQ0BIXShbQ0gyXVtPSF0pW0NAQEhdNFtDSDJdW0NIMl1PW0NIMl00

> <s_epik_cmdline>
J2VwaWtfcHl0aG9uJywgJy1waCcsICc3LjAnLCAnLXRuJywgJzgnLCAnLW1hJywgJzIwMCcsICctbWV0YWxfYmluZGluZycsICctaW1hZScsICc8aW5maWxlLm1hZT4nLCAnLW9tYWUnLCAnPG91dGZpbGUubWFlPic=

> <r_lp_tautomer_probability>
1

> <r_epik_Ionization_Penalty>
0.00349036

> <r_epik_Ionization_Penalty_Charging>
0

> <r_epik_Ionization_Penalty_Neutral>
0.00349036

> <r_epik_State_Penalty>
0.00229798

> <r_epik_Charging_Adjusted_Penalty>
0.00229798

> <i_epik_Tot_Q>
0

> <i_epik_Tot_abs_Q>
0

> <r_epik_Metal_State_Penalty>
-0

> <b_epik_Metal_Only>
0

> <s_lp_Force_Field>
OPLS_2005

> <r_lp_Energy>
45.891

> <b_lp_Chiralities_Consistent>
1

> <s_lp_Variant>
AV-unprocessed.smi:258-2

> <Gold.Version>
5.8.1

> <Gold.Id.Protein>
6NUR|6NUR_protein|mol2

> <Gold.PLP.Fitness>
51.6084

> <Gold.PLP.PLP>
-44.2871

> <Gold.PLP.part.hbond>
-2.9337

> <Gold.PLP.part.metal>
0.0000

> <Gold.PLP.part.buried>
-8.6482

> <Gold.PLP.part.nonpolar>
-32.6024

> <Gold.PLP.part.repulsive>
0.4034

> <Gold.PLP.ligand.clash>
0.0000

> <Gold.PLP.ligand.torsion>
1.4318

> <Gold.PLP.Chemscore.Hbond>
3.0000

> <Gold.PLP.Chemscore.CHOScore>
0.0000

> <Gold.PLP.Chemscore.Metal>
0.0000

> <Gold.Chemscore.Hbonds>
donor molecule, donor type, donor heavy atom, donor atom, acceptor molecule, acceptor atom, score
      L1  H     1    29       P1 10747  0.32
      L1  H    22    48       P1  8028  0.84
      P1  H 10752 10765       L1    16  0.11

> <Gold.PLP.Chemscore.Internal.Correction>
1.1849

> <Gold.Rescore>
     Score         DG    S(hbond)    S(metal)    S(lipo)     H(rot)  DE(clash)    DE(int)     intcor
     12.26     -15.38       2.82        0.00      96.59       4.22       0.00       3.11       ----

> <Gold.Chemscore.Fitness>
12.2644

> <Gold.Chemscore.DG>
-15.3768

> <Gold.Chemscore.ZeroCoef>
-5.4800

> <Gold.Chemscore.Hbond>
2.8175

> <Gold.Chemscore.Metal>
0.0000

> <Gold.Chemscore.Lipo>
96.5922

> <Gold.Chemscore.Internal_Hbond>
0.0000

> <Gold.Chemscore.DEClash>
0.0024

> <Gold.Chemscore.DEInternal>
3.1100

> <Gold.Chemscore.Rot>
4.2246

> <Gold.Chemscore.Internal.Correction>
   9.000000E+99

> <Gold.Chemscore.Hbonds>
donor molecule, donor type, donor heavy atom, donor atom, acceptor molecule, acceptor atom, score
      L1  H     1    29       P1 10747  0.31
      L1  H    22    48       P1  8028  0.82

> <Gold.Chemscore.Hbond.Weighted>
-9.4103

> <Gold.Chemscore.Metal.Weighted>
-0.0000

> <Gold.Chemscore.Lipo.Weighted>
-11.3013

> <Gold.Chemscore.Internal_Hbond.Weighted>
0.0000

> <Gold.Chemscore.DEClash.Weighted>
0.0024

> <Gold.Chemscore.DEInternal.Weighted>
3.1100

> <Gold.Chemscore.Rot.Weighted>
10.8149

> <Gold.Chemscore.Internal.Correction.Weighted>
   9.000000E+99

> <Gold.Protein.RotatedTorsions>
[ 6907 6896 6895 6894 ] final   54.44 input  -60.11 | X-H torsion
[ 7974 7965 7964 7962 ] final   41.52 input  175.53 | X-H torsion
[ 8008 7997 7996 7995 ] final  -32.51 input   59.86 | X-H torsion
[ 10167 10162 10161 10158 ] final -167.75 input  -65.29 | X-H torsion
[ 10718 10713 10712 10709 ] final  -70.59 input   66.30 | X-H torsion
[ 10763 10752 10751 10750 ] final  171.03 input  -60.55 | X-H torsion
[ 11005 11000 10999 10996 ] final -142.52 input  -57.11 | X-H torsion

> <Gold.Protein.ActiveResidues>
 VAL166  LYS551  ARG553  GLY616  TRP617  ASP618  TYR619  PRO620  LYS621  CYS622 
 ASP623  PHE694  ASN695  SER759  ASP760  ASP761  ALA762  ILE779  LEU786  VAL792 
 PHE793  MET794  SER795  GLU796  ALA797  LYS798  CYS799  TRP800  GLU811  SER814 

> <Gold.Protein.RotatedAtoms>
  152.3438  134.7098  160.0255 H   0  0  0  0  0  0  0  0  0  0  0  0  # atno 6907 bound_to 6896
  151.7474  133.3320  159.3390 H   0  0  0  0  0  0  0  0  0  0  0  0  # atno 6908 bound_to 6896
  150.7496  134.6156  159.6153 H   0  0  0  0  0  0  0  0  0  0  0  0  # atno 6909 bound_to 6896
  146.0816  139.5406  142.9533 H   0  0  0  0  0  0  0  0  0  0  0  0  # atno 7974 bound_to 7965
  154.4178  140.1735  156.1738 H   0  0  0  0  0  0  0  0  0  0  0  0  # atno 8008 bound_to 7997
  155.9738  140.3383  155.6576 H   0  0  0  0  0  0  0  0  0  0  0  0  # atno 8009 bound_to 7997
  155.6590  140.0699  157.2551 H   0  0  0  0  0  0  0  0  0  0  0  0  # atno 8010 bound_to 7997
  139.6029  144.0973  152.1762 H   0  0  0  0  0  0  0  0  0  0  0  0  # atno 10167 bound_to 10162
  156.0401  130.4334  150.2318 H   0  0  0  0  0  0  0  0  0  0  0  0  # atno 10718 bound_to 10713
  154.4061  135.2755  155.2066 H   0  0  0  0  0  0  0  0  0  0  0  0  # atno 10763 bound_to 10752
  154.4071  135.6031  153.5934 H   0  0  0  0  0  0  0  0  0  0  0  0  # atno 10764 bound_to 10752
  152.9831  135.5940  154.4336 H   0  0  0  0  0  0  0  0  0  0  0  0  # atno 10765 bound_to 10752
  140.8216  134.2624  157.4897 H   0  0  0  0  0  0  0  0  0  0  0  0  # atno 11005 bound_to 11000
  145.6207  141.0323  143.1916 LP  0  0  0  0  0  0  0  0  0  0  0  0  # atno 17320 bound_to 7965
  144.7297  139.7763  143.7351 LP  0  0  0  0  0  0  0  0  0  0  0  0  # atno 17321 bound_to 7965
  140.0573  144.5884  150.7289 LP  0  0  0  0  0  0  0  0  0  0  0  0  # atno 17342 bound_to 10162
  140.7263  143.2640  151.4108 LP  0  0  0  0  0  0  0  0  0  0  0  0  # atno 17343 bound_to 10162
  157.0414  131.0036  151.3282 LP  0  0  0  0  0  0  0  0  0  0  0  0  # atno 17370 bound_to 10713
  157.5207  130.7996  149.7805 LP  0  0  0  0  0  0  0  0  0  0  0  0  # atno 17371 bound_to 10713
  139.8708  134.9538  156.4158 LP  0  0  0  0  0  0  0  0  0  0  0  0  # atno 17394 bound_to 11000
  140.9092  133.7723  155.9772 LP  0  0  0  0  0  0  0  0  0  0  0  0  # atno 17395 bound_to 11000

$$$$
