AV-unprocessed.smi:592|AV-procd|sdf|3010|dock5
  -GOLD-   2262023513D 1   1.00000     0.00000
 Structure written by MMmdl.
 27 28  0  0  0  0  0  0  0  0  1 V2000
  151.2939  140.8779  156.4155 O   0  0  0  0  0  0  0  0  0  0  0  0
  150.5779  141.8294  156.1042 C   0  0  0  0  0  0  0  0  0  0  0  0
  149.6328  141.6965  154.8891 C   0  0  0  0  0  0  0  0  0  0  0  0
  149.0111  140.3666  154.7660 N   0  0  0  0  0  0  0  0  0  0  0  0
  147.6072  140.3049  154.8737 C   0  0  0  0  0  0  0  0  0  0  0  0
  146.9374  139.1458  154.7764 C   0  0  0  0  0  0  0  0  0  0  0  0
  147.6946  137.9366  154.5564 C   0  0  0  0  0  0  0  0  0  0  0  0
  149.0371  137.9845  154.4462 C   0  0  0  0  0  0  0  0  0  0  0  0
  149.7729  139.2505  154.5460 C   0  0  0  0  0  0  0  0  0  0  0  0
  150.9985  139.3035  154.4378 O   0  0  0  0  0  0  0  0  0  0  0  0
  150.6330  142.9613  156.8398 N   0  0  0  0  0  0  0  0  0  0  0  0
  151.4142  143.2637  157.9581 C   0  0  0  0  0  0  0  0  0  0  0  0
  152.1760  142.4597  158.6140 N   0  0  0  0  0  0  0  0  0  0  0  0
  152.8542  143.1714  159.6891 C   0  0  0  0  0  0  0  0  0  0  0  0
  152.2079  144.5590  159.9349 C   0  0  0  0  0  0  0  0  0  0  0  0
  151.2285  144.9552  158.4823 S   0  0  0  0  0  0  0  0  0  0  0  0
  148.8535  142.4579  154.9498 H   0  0  0  0  0  0  0  0  0  0  0  0
  150.1957  141.9202  153.9819 H   0  0  0  0  0  0  0  0  0  0  0  0
  147.1159  141.2542  155.0308 H   0  0  0  0  0  0  0  0  0  0  0  0
  145.8607  139.1190  154.8566 H   0  0  0  0  0  0  0  0  0  0  0  0
  147.1820  136.9890  154.4791 H   0  0  0  0  0  0  0  0  0  0  0  0
  149.5870  137.0696  154.2816 H   0  0  0  0  0  0  0  0  0  0  0  0
  150.0181  143.6951  156.5191 H   0  0  0  0  0  0  0  0  0  0  0  0
  152.8345  142.5791  160.6045 H   0  0  0  0  0  0  0  0  0  0  0  0
  153.9048  143.2963  159.4240 H   0  0  0  0  0  0  0  0  0  0  0  0
  151.5396  144.5170  160.7955 H   0  0  0  0  0  0  0  0  0  0  0  0
  152.9533  145.3309  160.1272 H   0  0  0  0  0  0  0  0  0  0  0  0
  1  2  2  0  0  0  0
  2  3  1  0  0  0  0
  2 11  1  0  0  0  0
  3  4  1  0  0  0  0
  3 17  1  0  0  0  0
  3 18  1  0  0  0  0
  4  9  1  0  0  0  0
  4  5  1  0  0  0  0
  5  6  2  0  0  0  0
  5 19  1  0  0  0  0
  6  7  1  0  0  0  0
  6 20  1  0  0  0  0
  7  8  2  0  0  0  0
  7 21  1  0  0  0  0
  8  9  1  0  0  0  0
  8 22  1  0  0  0  0
  9 10  2  0  0  0  0
 11 12  1  0  0  0  0
 11 23  1  0  0  0  0
 12 16  1  0  0  0  0
 12 13  2  0  0  0  0
 13 14  1  0  0  0  0
 14 15  1  0  0  0  0
 14 24  1  0  0  0  0
 14 25  1  0  0  0  0
 15 16  1  0  0  0  0
 15 26  1  0  0  0  0
 15 27  1  0  0  0  0
M  END
> <s_m_source_file>
AV-unprocessed.smi

> <i_m_source_file_index>
592

> <i_lp_mmshare_version>
43012

> <i_f3d_flags>
0

> <s_epik_input>
UzFbQ0gyXVtDSDJdTj1DMVtOSF1DKD1PKVtDSDJdbjJbY0hdW2NIXVtjSF1bY0hdYzI9Tw==

> <s_epik_cmdline>
J2VwaWtfcHl0aG9uJywgJy1waCcsICc3LjAnLCAnLXRuJywgJzgnLCAnLW1hJywgJzIwMCcsICctbWV0YWxfYmluZGluZycsICctaW1hZScsICc8aW5maWxlLm1hZT4nLCAnLW9tYWUnLCAnPG91dGZpbGUubWFlPic=

> <r_lp_tautomer_probability>
1

> <r_epik_Ionization_Penalty>
0.0449927

> <r_epik_Ionization_Penalty_Charging>
2.12211e-07

> <r_epik_Ionization_Penalty_Neutral>
0.0449925

> <r_epik_State_Penalty>
0.0415249

> <r_epik_Charging_Adjusted_Penalty>
0.0415251

> <i_epik_Tot_Q>
0

> <i_epik_Tot_abs_Q>
0

> <r_epik_Metal_State_Penalty>
0.0415666

> <b_epik_Metal_Only>
0

> <s_epik_Chemistry_Notes>
This compound has an imine and may undergo hydrolysis.

> <s_lp_Force_Field>
OPLS_2005

> <r_lp_Energy>
28.1841

> <b_lp_Chiralities_Consistent>
1

> <s_lp_Variant>
AV-unprocessed.smi:592-1

> <Gold.Version>
5.8.1

> <Gold.Id.Protein>
6NUR|6NUR_protein|mol2

> <Gold.PLP.Fitness>
34.6323

> <Gold.PLP.PLP>
-29.2804

> <Gold.PLP.part.hbond>
-2.0000

> <Gold.PLP.part.metal>
0.0000

> <Gold.PLP.part.buried>
-2.4353

> <Gold.PLP.part.nonpolar>
-24.3950

> <Gold.PLP.part.repulsive>
0.1934

> <Gold.PLP.ligand.clash>
0.0000

> <Gold.PLP.ligand.torsion>
0.3259

> <Gold.PLP.Chemscore.Hbond>
2.0000

> <Gold.PLP.Chemscore.CHOScore>
0.0000

> <Gold.PLP.Chemscore.Metal>
0.0000

> <Gold.Chemscore.Hbonds>
donor molecule, donor type, donor heavy atom, donor atom, acceptor molecule, acceptor atom, score
      L1  H    11    23       P1  8028  1.00
      P1  H  7989  7998       L1    10  1.00

> <Gold.PLP.Chemscore.Internal.Correction>
0.0036

> <Gold.Rescore>
     Score         DG    S(hbond)    S(metal)    S(lipo)     H(rot)  DE(clash)    DE(int)     intcor
     10.88     -15.75       1.98        0.00      60.53       1.33       0.45       4.43       ----

> <Gold.Chemscore.Fitness>
10.8797

> <Gold.Chemscore.DG>
-15.7527

> <Gold.Chemscore.ZeroCoef>
-5.4800

> <Gold.Chemscore.Hbond>
1.9755

> <Gold.Chemscore.Metal>
0.0000

> <Gold.Chemscore.Lipo>
60.5265

> <Gold.Chemscore.Internal_Hbond>
0.0000

> <Gold.Chemscore.DEClash>
0.4469

> <Gold.Chemscore.DEInternal>
4.4261

> <Gold.Chemscore.Rot>
1.3309

> <Gold.Chemscore.Internal.Correction>
   9.000000E+99

> <Gold.Chemscore.Hbonds>
donor molecule, donor type, donor heavy atom, donor atom, acceptor molecule, acceptor atom, score
      L1  H    11    23       P1  8028  1.00
      P1  H  7989  7998       L1    10  0.88

> <Gold.Chemscore.Hbond.Weighted>
-6.5982

> <Gold.Chemscore.Metal.Weighted>
-0.0000

> <Gold.Chemscore.Lipo.Weighted>
-7.0816

> <Gold.Chemscore.Internal_Hbond.Weighted>
0.0000

> <Gold.Chemscore.DEClash.Weighted>
0.4469

> <Gold.Chemscore.DEInternal.Weighted>
4.4261

> <Gold.Chemscore.Rot.Weighted>
3.4071

> <Gold.Chemscore.Internal.Correction.Weighted>
   9.000000E+99

> <Gold.Protein.RotatedTorsions>
[ 6907 6896 6895 6894 ] final  -58.49 input  -60.11 | X-H torsion
[ 7974 7965 7964 7962 ] final   79.05 input  175.53 | X-H torsion
[ 8008 7997 7996 7995 ] final -174.00 input   59.86 | X-H torsion
[ 10167 10162 10161 10158 ] final -124.74 input  -65.29 | X-H torsion
[ 10718 10713 10712 10709 ] final  124.56 input   66.30 | X-H torsion
[ 10763 10752 10751 10750 ] final -115.10 input  -60.55 | X-H torsion
[ 11005 11000 10999 10996 ] final  170.96 input  -57.11 | X-H torsion

> <Gold.Protein.ActiveResidues>
 VAL166  LYS551  ARG553  GLY616  TRP617  ASP618  TYR619  PRO620  LYS621  CYS622 
 ASP623  PHE694  ASN695  SER759  ASP760  ASP761  ALA762  ILE779  LEU786  VAL792 
 PHE793  MET794  SER795  GLU796  ALA797  LYS798  CYS799  TRP800  GLU811  SER814 

> <Gold.Protein.RotatedAtoms>
  150.8003  134.7091  159.6593 H   0  0  0  0  0  0  0  0  0  0  0  0  # atno 6907 bound_to 6896
  152.4119  134.6106  160.0034 H   0  0  0  0  0  0  0  0  0  0  0  0  # atno 6908 bound_to 6896
  151.6347  133.3293  159.3153 H   0  0  0  0  0  0  0  0  0  0  0  0  # atno 6909 bound_to 6896
  145.6692  139.2492  143.1878 H   0  0  0  0  0  0  0  0  0  0  0  0  # atno 7974 bound_to 7965
  155.9645  140.1151  157.0866 H   0  0  0  0  0  0  0  0  0  0  0  0  # atno 8008 bound_to 7997
  154.4140  140.1175  156.5291 H   0  0  0  0  0  0  0  0  0  0  0  0  # atno 8009 bound_to 7997
  155.6677  140.3473  155.4809 H   0  0  0  0  0  0  0  0  0  0  0  0  # atno 8010 bound_to 7997
  139.9896  143.5655  152.2347 H   0  0  0  0  0  0  0  0  0  0  0  0  # atno 10167 bound_to 10162
  157.5575  131.1091  150.8596 H   0  0  0  0  0  0  0  0  0  0  0  0  # atno 10718 bound_to 10713
  154.8467  135.4394  154.1610 H   0  0  0  0  0  0  0  0  0  0  0  0  # atno 10763 bound_to 10752
  153.2747  135.6948  153.7451 H   0  0  0  0  0  0  0  0  0  0  0  0  # atno 10764 bound_to 10752
  153.6678  135.3424  155.3120 H   0  0  0  0  0  0  0  0  0  0  0  0  # atno 10765 bound_to 10752
  140.3139  134.7494  157.4012 H   0  0  0  0  0  0  0  0  0  0  0  0  # atno 11005 bound_to 11000
  146.1060  140.7487  142.9526 LP  0  0  0  0  0  0  0  0  0  0  0  0  # atno 17320 bound_to 7965
  144.7062  140.3862  143.7116 LP  0  0  0  0  0  0  0  0  0  0  0  0  # atno 17321 bound_to 7965
  139.6350  144.7649  151.2457 LP  0  0  0  0  0  0  0  0  0  0  0  0  # atno 17342 bound_to 10162
  140.7460  143.6414  150.8331 LP  0  0  0  0  0  0  0  0  0  0  0  0  # atno 17343 bound_to 10162
  156.9103  130.5278  149.5280 LP  0  0  0  0  0  0  0  0  0  0  0  0  # atno 17370 bound_to 10713
  156.0632  130.5680  150.9235 LP  0  0  0  0  0  0  0  0  0  0  0  0  # atno 17371 bound_to 10713
  140.1000  134.5485  155.8361 LP  0  0  0  0  0  0  0  0  0  0  0  0  # atno 17394 bound_to 11000
  141.2102  133.6692  156.6492 LP  0  0  0  0  0  0  0  0  0  0  0  0  # atno 17395 bound_to 11000

$$$$
