AV-unprocessed.smi:229|AV-procd|sdf|1760|dock9
  -GOLD-   2262020293D 1   1.00000     0.00000
 Structure written by MMmdl.
 58 62  0  0  0  0  0  0  0  0  1 V2000
  152.0539  130.9176  155.6103 C   0  0  0  0  0  0  0  0  0  0  0  0
  151.4261  131.5348  156.8662 C   0  0  0  0  0  0  0  0  0  0  0  0
  150.6961  132.8560  156.5824 C   0  0  1  0  0  0  0  0  0  0  0  0
  151.6727  134.0402  156.4874 C   0  0  0  0  0  0  0  0  0  0  0  0
  150.9482  135.2496  156.1133 N   0  0  0  0  0  0  0  0  0  0  0  0
  151.5587  136.4491  156.2853 C   0  0  0  0  0  0  0  0  0  0  0  0
  152.9125  136.5130  156.4008 N   0  0  0  0  0  0  0  0  0  0  0  0
  153.5216  137.6904  156.5710 C   0  0  0  0  0  0  0  0  0  0  0  0
  152.9788  138.9063  156.6573 N   0  0  0  0  0  0  0  0  0  0  0  0
  151.6208  138.8483  156.5491 C   0  0  0  0  0  0  0  0  0  0  0  0
  150.8376  137.6743  156.3618 C   0  0  0  0  0  0  0  0  0  0  0  0
  149.4893  138.0103  156.3111 N   0  0  0  0  0  0  0  0  0  0  0  0
  149.4772  139.3079  156.4504 C   0  0  0  0  0  0  0  0  0  0  0  0
  150.7142  139.8913  156.6046 N   0  0  0  0  0  0  0  0  0  0  0  0
  150.9945  141.3039  156.7920 C   0  0  0  0  0  0  0  0  0  0  0  0
  151.7583  141.5833  158.1015 C   0  0  2  0  0  0  0  0  0  0  0  0
  150.9593  141.1846  159.2002 O   0  0  0  0  0  0  0  0  0  0  0  0
  152.1574  143.0678  158.2317 C   0  0  1  0  0  0  0  0  0  0  0  0
  151.0253  144.1011  158.2315 C   0  0  0  0  0  0  0  0  0  0  0  0
  151.6736  145.2488  158.9724 C   0  0  0  0  0  0  0  0  0  0  0  0
  152.4879  144.5116  160.0323 C   0  0  0  0  0  0  0  0  0  0  0  0
  152.9105  143.2961  159.4203 O   0  0  0  0  0  0  0  0  0  0  0  0
  150.2019  135.1001  154.8699 C   0  0  0  0  0  0  0  0  0  0  0  0
  149.2529  133.8819  154.9442 C   0  0  2  0  0  0  0  0  0  0  0  0
  148.6327  133.5866  153.5818 C   0  0  0  0  0  0  0  0  0  0  0  0
  147.2860  134.2903  153.6492 C   0  0  0  0  0  0  0  0  0  0  0  0
  146.8720  134.0189  154.9747 O   0  0  0  0  0  0  0  0  0  0  0  0
  148.0067  134.1377  155.8248 C   0  0  0  0  0  0  0  0  0  0  0  0
  149.9926  132.7245  155.3452 O   0  0  0  0  0  0  0  0  0  0  0  0
  152.5519  129.9774  155.8475 H   0  0  0  0  0  0  0  0  0  0  0  0
  152.7956  131.5841  155.1696 H   0  0  0  0  0  0  0  0  0  0  0  0
  151.2970  130.7111  154.8532 H   0  0  0  0  0  0  0  0  0  0  0  0
  150.7237  130.8180  157.2931 H   0  0  0  0  0  0  0  0  0  0  0  0
  152.1978  131.6945  157.6200 H   0  0  0  0  0  0  0  0  0  0  0  0
  149.9939  133.0442  157.3950 H   0  0  0  0  0  0  0  0  0  0  0  0
  152.1711  134.1808  157.4477 H   0  0  0  0  0  0  0  0  0  0  0  0
  152.4450  133.8356  155.7444 H   0  0  0  0  0  0  0  0  0  0  0  0
  154.5981  137.6525  156.6502 H   0  0  0  0  0  0  0  0  0  0  0  0
  148.5594  139.8780  156.4544 H   0  0  0  0  0  0  0  0  0  0  0  0
  151.5729  141.6527  155.9357 H   0  0  0  0  0  0  0  0  0  0  0  0
  150.0509  141.8507  156.7736 H   0  0  0  0  0  0  0  0  0  0  0  0
  152.6659  140.9783  158.1102 H   0  0  0  0  0  0  0  0  0  0  0  0
  151.4251  141.3865  159.9971 H   0  0  0  0  0  0  0  0  0  0  0  0
  152.8376  143.3144  157.4148 H   0  0  0  0  0  0  0  0  0  0  0  0
  150.6972  144.3715  157.2276 H   0  0  0  0  0  0  0  0  0  0  0  0
  150.1570  143.7530  158.7912 H   0  0  0  0  0  0  0  0  0  0  0  0
  152.3363  145.8009  158.3044 H   0  0  0  0  0  0  0  0  0  0  0  0
  150.9531  145.9485  159.3970 H   0  0  0  0  0  0  0  0  0  0  0  0
  153.3361  145.0956  160.3902 H   0  0  0  0  0  0  0  0  0  0  0  0
  151.8595  144.2662  160.8895 H   0  0  0  0  0  0  0  0  0  0  0  0
  149.6355  135.9977  154.6246 H   0  0  0  0  0  0  0  0  0  0  0  0
  150.9224  134.9599  154.0627 H   0  0  0  0  0  0  0  0  0  0  0  0
  149.2430  133.9139  152.7396 H   0  0  0  0  0  0  0  0  0  0  0  0
  148.4653  132.5143  153.4696 H   0  0  0  0  0  0  0  0  0  0  0  0
  147.3940  135.3666  153.5061 H   0  0  0  0  0  0  0  0  0  0  0  0
  146.5725  133.9109  152.9177 H   0  0  0  0  0  0  0  0  0  0  0  0
  147.9074  133.4244  156.6425 H   0  0  0  0  0  0  0  0  0  0  0  0
  148.0244  135.1381  156.2594 H   0  0  0  0  0  0  0  0  0  0  0  0
  1  2  1  0  0  0  0
  1 30  1  0  0  0  0
  1 31  1  0  0  0  0
  1 32  1  0  0  0  0
  2  3  1  0  0  0  0
  2 33  1  0  0  0  0
  2 34  1  0  0  0  0
  3 29  1  0  0  0  0
  3  4  1  0  0  0  0
  3 35  1  0  0  0  0
  4  5  1  0  0  0  0
  4 36  1  0  0  0  0
  4 37  1  0  0  0  0
  5  6  1  0  0  0  0
  5 23  1  0  0  0  0
  6 11  1  0  0  0  0
  6  7  2  0  0  0  0
  7  8  1  0  0  0  0
  8  9  2  0  0  0  0
  8 38  1  0  0  0  0
  9 10  1  0  0  0  0
 10 14  1  0  0  0  0
 10 11  2  0  0  0  0
 11 12  1  0  0  0  0
 12 13  2  0  0  0  0
 13 14  1  0  0  0  0
 13 39  1  0  0  0  0
 14 15  1  0  0  0  0
 15 16  1  0  0  0  0
 15 40  1  0  0  0  0
 15 41  1  0  0  0  0
 16 17  1  0  0  0  0
 16 18  1  0  0  0  0
 16 42  1  0  0  0  0
 17 43  1  0  0  0  0
 18 22  1  0  0  0  0
 18 19  1  0  0  0  0
 18 44  1  0  0  0  0
 19 20  1  0  0  0  0
 19 45  1  0  0  0  0
 19 46  1  0  0  0  0
 20 21  1  0  0  0  0
 20 47  1  0  0  0  0
 20 48  1  0  0  0  0
 21 22  1  0  0  0  0
 21 49  1  0  0  0  0
 21 50  1  0  0  0  0
 23 24  1  0  0  0  0
 23 51  1  0  0  0  0
 23 52  1  0  0  0  0
 24 28  1  0  0  0  0
 24 25  1  0  0  0  0
 24 29  1  0  0  0  0
 25 26  1  0  0  0  0
 25 53  1  0  0  0  0
 25 54  1  0  0  0  0
 26 27  1  0  0  0  0
 26 55  1  0  0  0  0
 26 56  1  0  0  0  0
 27 28  1  0  0  0  0
 28 57  1  0  0  0  0
 28 58  1  0  0  0  0
M  END
> <s_m_source_file>
AV-unprocessed.smi

> <i_m_source_file_index>
229

> <i_lp_mmshare_version>
43012

> <i_f3d_flags>
0

> <s_epik_input>
W0NIMl0xT1tDSDJdW0NIMl1bQ0BdMTJbQ0gyXU4oW0NIMl1bQ0BIXShPMilbQ0gyXVtDSDNdKWMobltjSF1uMyljKGMzNCluW2NIXW40W0NIMl1bQ0BIXShbT0hdKVtDQEBIXTVbQ0gyXVtDSDJdW0NIMl1PNQ==

> <s_epik_cmdline>
J2VwaWtfcHl0aG9uJywgJy1waCcsICc3LjAnLCAnLXRuJywgJzgnLCAnLW1hJywgJzIwMCcsICctbWV0YWxfYmluZGluZycsICctaW1hZScsICc8aW5maWxlLm1hZT4nLCAnLW9tYWUnLCAnPG91dGZpbGUubWFlPic=

> <r_lp_tautomer_probability>
1

> <r_epik_Ionization_Penalty>
0.00318402

> <r_epik_Ionization_Penalty_Charging>
0

> <r_epik_Ionization_Penalty_Neutral>
0.00318402

> <r_epik_State_Penalty>
0.00215642

> <r_epik_Charging_Adjusted_Penalty>
0.00215642

> <i_epik_Tot_Q>
0

> <i_epik_Tot_abs_Q>
0

> <r_epik_Metal_State_Penalty>
-0

> <b_epik_Metal_Only>
0

> <s_lp_Force_Field>
OPLS_2005

> <r_lp_Energy>
56.4449

> <b_lp_Chiralities_Consistent>
1

> <s_lp_Variant>
AV-unprocessed.smi:229-14

> <Gold.Version>
5.8.1

> <Gold.Id.Protein>
6NUR|6NUR_protein|mol2

> <Gold.PLP.Fitness>
41.2062

> <Gold.PLP.PLP>
-37.3838

> <Gold.PLP.part.hbond>
-2.7059

> <Gold.PLP.part.metal>
0.0000

> <Gold.PLP.part.buried>
-4.1733

> <Gold.PLP.part.nonpolar>
-29.2880

> <Gold.PLP.part.repulsive>
0.0726

> <Gold.PLP.ligand.clash>
0.0000

> <Gold.PLP.ligand.torsion>
0.4877

> <Gold.PLP.Chemscore.Hbond>
1.4867

> <Gold.PLP.Chemscore.CHOScore>
0.0000

> <Gold.PLP.Chemscore.Metal>
0.0000

> <Gold.Chemscore.Hbonds>
donor molecule, donor type, donor heavy atom, donor atom, acceptor molecule, acceptor atom, score
      P1  H  7997  8008       L1     9  0.52
      P1  H 10752 10763       L1     7  0.88

> <Gold.PLP.Chemscore.Internal.Correction>
0.3376

> <Gold.Rescore>
     Score         DG    S(hbond)    S(metal)    S(lipo)     H(rot)  DE(clash)    DE(int)     intcor
     12.60     -13.22       0.48        0.00     106.17       2.46       0.12       0.50       ----

> <Gold.Chemscore.Fitness>
12.5968

> <Gold.Chemscore.DG>
-13.2158

> <Gold.Chemscore.ZeroCoef>
-5.4800

> <Gold.Chemscore.Hbond>
0.4818

> <Gold.Chemscore.Metal>
0.0000

> <Gold.Chemscore.Lipo>
106.1708

> <Gold.Chemscore.Internal_Hbond>
0.0000

> <Gold.Chemscore.DEClash>
0.1210

> <Gold.Chemscore.DEInternal>
0.4980

> <Gold.Chemscore.Rot>
2.4591

> <Gold.Chemscore.Internal.Correction>
   9.000000E+99

> <Gold.Chemscore.Hbonds>
donor molecule, donor type, donor heavy atom, donor atom, acceptor molecule, acceptor atom, score
      P1  H  7997  8008       L1     9  0.13
      P1  H 10752 10763       L1     7  0.17

> <Gold.Chemscore.Hbond.Weighted>
-1.6092

> <Gold.Chemscore.Metal.Weighted>
-0.0000

> <Gold.Chemscore.Lipo.Weighted>
-12.4220

> <Gold.Chemscore.Internal_Hbond.Weighted>
0.0000

> <Gold.Chemscore.DEClash.Weighted>
0.1210

> <Gold.Chemscore.DEInternal.Weighted>
0.4980

> <Gold.Chemscore.Rot.Weighted>
6.2953

> <Gold.Chemscore.Internal.Correction.Weighted>
   9.000000E+99

> <Gold.Protein.RotatedTorsions>
[ 6907 6896 6895 6894 ] final   68.28 input  -60.11 | X-H torsion
[ 7974 7965 7964 7962 ] final  102.93 input  175.53 | X-H torsion
[ 8008 7997 7996 7995 ] final  -92.83 input   59.86 | X-H torsion
[ 10167 10162 10161 10158 ] final   70.99 input  -65.29 | X-H torsion
[ 10718 10713 10712 10709 ] final   52.39 input   66.30 | X-H torsion
[ 10763 10752 10751 10750 ] final   99.51 input  -60.55 | X-H torsion
[ 11005 11000 10999 10996 ] final  102.75 input  -57.11 | X-H torsion

> <Gold.Protein.ActiveResidues>
 VAL166  LYS551  ARG553  GLY616  TRP617  ASP618  TYR619  PRO620  LYS621  CYS622 
 ASP623  PHE694  ASN695  SER759  ASP760  ASP761  ALA762  ILE779  LEU786  VAL792 
 PHE793  MET794  SER795  GLU796  ALA797  LYS798  CYS799  TRP800  GLU811  SER814 

> <Gold.Protein.RotatedAtoms>
  152.4610  134.5185  159.9775 H   0  0  0  0  0  0  0  0  0  0  0  0  # atno 6907 bound_to 6896
  151.5234  133.3456  159.2913 H   0  0  0  0  0  0  0  0  0  0  0  0  # atno 6908 bound_to 6896
  150.8572  134.7944  159.7117 H   0  0  0  0  0  0  0  0  0  0  0  0  # atno 6909 bound_to 6896
  145.3525  139.2436  143.3550 H   0  0  0  0  0  0  0  0  0  0  0  0  # atno 7974 bound_to 7965
  154.7280  140.0505  157.0701 H   0  0  0  0  0  0  0  0  0  0  0  0  # atno 8008 bound_to 7997
  155.0339  140.3161  155.4729 H   0  0  0  0  0  0  0  0  0  0  0  0  # atno 8009 bound_to 7997
  156.2834  140.2145  156.5461 H   0  0  0  0  0  0  0  0  0  0  0  0  # atno 8010 bound_to 7997
  140.0509  144.5312  150.7364 H   0  0  0  0  0  0  0  0  0  0  0  0  # atno 10167 bound_to 10162
  157.5070  130.8475  149.8387 H   0  0  0  0  0  0  0  0  0  0  0  0  # atno 10718 bound_to 10713
  153.3023  135.4111  155.1264 H   0  0  0  0  0  0  0  0  0  0  0  0  # atno 10763 bound_to 10752
  154.8553  135.3544  154.5834 H   0  0  0  0  0  0  0  0  0  0  0  0  # atno 10764 bound_to 10752
  153.6260  135.7062  153.5351 H   0  0  0  0  0  0  0  0  0  0  0  0  # atno 10765 bound_to 10752
  139.8779  134.9236  156.5106 H   0  0  0  0  0  0  0  0  0  0  0  0  # atno 11005 bound_to 11000
  146.2962  140.4144  142.8721 LP  0  0  0  0  0  0  0  0  0  0  0  0  # atno 17320 bound_to 7965
  144.8707  140.7268  143.6049 LP  0  0  0  0  0  0  0  0  0  0  0  0  # atno 17321 bound_to 7965
  140.7217  143.2595  151.4256 LP  0  0  0  0  0  0  0  0  0  0  0  0  # atno 17342 bound_to 10162
  139.5954  144.1409  152.2137 LP  0  0  0  0  0  0  0  0  0  0  0  0  # atno 17343 bound_to 10162
  156.0264  130.3778  150.1810 LP  0  0  0  0  0  0  0  0  0  0  0  0  # atno 17370 bound_to 10713
  157.0000  130.9919  151.3393 LP  0  0  0  0  0  0  0  0  0  0  0  0  # atno 17371 bound_to 10713
  140.8523  133.8122  155.9181 LP  0  0  0  0  0  0  0  0  0  0  0  0  # atno 17394 bound_to 11000
  140.9132  134.2235  157.4973 LP  0  0  0  0  0  0  0  0  0  0  0  0  # atno 17395 bound_to 11000

$$$$
