AV-unprocessed.smi:1283|AV-procd|sdf|5362|dock8
  -GOLD-   22720 4503D 1   1.00000     0.00000
 Structure written by MMmdl.
 30 31  0  0  0  0  0  0  0  0  1 V2000
  152.1565  138.2810  154.3921 C   0  0  0  0  0  0  0  0  0  0  0  0
  152.1071  139.1256  155.5865 N   0  0  0  0  0  0  0  0  0  0  0  0
  152.9978  138.7369  156.5654 N   0  0  0  0  0  0  0  0  0  0  0  0
  153.0540  139.3946  157.6716 C   0  0  0  0  0  0  0  0  0  0  0  0
  152.2112  140.5475  157.9456 C   0  0  0  0  0  0  0  0  0  0  0  0
  152.2736  141.2508  159.1407 N   0  0  0  0  0  0  0  0  0  0  0  0
  153.1343  140.9982  160.2857 C   0  0  0  0  0  0  0  0  0  0  0  0
  153.4968  142.2889  161.0372 C   0  0  1  0  0  0  0  0  0  0  0  0
  152.3415  143.2621  161.2832 C   0  0  0  0  0  0  0  0  0  0  0  0
  152.8478  144.0238  162.4874 C   0  0  0  0  0  0  0  0  0  0  0  0
  153.5387  142.9201  163.2842 C   0  0  0  0  0  0  0  0  0  0  0  0
  154.0503  142.0037  162.3196 O   0  0  0  0  0  0  0  0  0  0  0  0
  151.3440  140.9120  156.9637 C   0  0  0  0  0  0  0  0  0  0  0  0
  150.2970  142.2742  157.1864 Cl  0  0  0  0  0  0  0  0  0  0  0  0
  151.2520  140.1866  155.6877 C   0  0  0  0  0  0  0  0  0  0  0  0
  150.4749  140.5026  154.7860 O   0  0  0  0  0  0  0  0  0  0  0  0
  151.4561  138.5742  153.6093 H   0  0  0  0  0  0  0  0  0  0  0  0
  151.9326  137.2466  154.6561 H   0  0  0  0  0  0  0  0  0  0  0  0
  153.1569  138.3056  153.9583 H   0  0  0  0  0  0  0  0  0  0  0  0
  153.7468  139.1090  158.4627 H   0  0  0  0  0  0  0  0  0  0  0  0
  151.6516  142.0405  159.2425 H   0  0  0  0  0  0  0  0  0  0  0  0
  152.6300  140.3076  160.9620 H   0  0  0  0  0  0  0  0  0  0  0  0
  154.0450  140.5054  159.9435 H   0  0  0  0  0  0  0  0  0  0  0  0
  154.2703  142.8143  160.4753 H   0  0  0  0  0  0  0  0  0  0  0  0
  152.1352  143.9031  160.4257 H   0  0  0  0  0  0  0  0  0  0  0  0
  151.4229  142.7347  161.5432 H   0  0  0  0  0  0  0  0  0  0  0  0
  153.5749  144.7758  162.1775 H   0  0  0  0  0  0  0  0  0  0  0  0
  152.0554  144.5222  163.0464 H   0  0  0  0  0  0  0  0  0  0  0  0
  154.3290  143.3043  163.9295 H   0  0  0  0  0  0  0  0  0  0  0  0
  152.8157  142.3951  163.9096 H   0  0  0  0  0  0  0  0  0  0  0  0
  1  2  1  0  0  0  0
  1 17  1  0  0  0  0
  1 18  1  0  0  0  0
  1 19  1  0  0  0  0
  2 15  1  0  0  0  0
  2  3  1  0  0  0  0
  3  4  2  0  0  0  0
  4  5  1  0  0  0  0
  4 20  1  0  0  0  0
  5  6  1  0  0  0  0
  5 13  2  0  0  0  0
  6  7  1  0  0  0  0
  6 21  1  0  0  0  0
  7  8  1  0  0  0  0
  7 22  1  0  0  0  0
  7 23  1  0  0  0  0
  8 12  1  0  0  0  0
  8  9  1  0  0  0  0
  8 24  1  0  0  0  0
  9 10  1  0  0  0  0
  9 25  1  0  0  0  0
  9 26  1  0  0  0  0
 10 11  1  0  0  0  0
 10 27  1  0  0  0  0
 10 28  1  0  0  0  0
 11 12  1  0  0  0  0
 11 29  1  0  0  0  0
 11 30  1  0  0  0  0
 13 14  1  0  0  0  0
 13 15  1  0  0  0  0
 15 16  2  0  0  0  0
M  END
> <s_m_source_file>
AV-unprocessed.smi

> <i_m_source_file_index>
1283

> <i_lp_mmshare_version>
43012

> <i_f3d_flags>
0

> <s_epik_input>
W0NIM11uMW5bY0hdYyhjKENsKWMxPU8pW05IXVtDSDJdW0NAQEhdMltDSDJdW0NIMl1bQ0gyXU8y

> <s_epik_cmdline>
J2VwaWtfcHl0aG9uJywgJy1waCcsICc3LjAnLCAnLXRuJywgJzgnLCAnLW1hJywgJzIwMCcsICctbWV0YWxfYmluZGluZycsICctaW1hZScsICc8aW5maWxlLm1hZT4nLCAnLW9tYWUnLCAnPG91dGZpbGUubWFlPic=

> <r_lp_tautomer_probability>
1

> <r_epik_Ionization_Penalty>
2.40876e-05

> <r_epik_Ionization_Penalty_Charging>
4.17655e-09

> <r_epik_Ionization_Penalty_Neutral>
2.40834e-05

> <r_epik_State_Penalty>
-0

> <r_epik_Charging_Adjusted_Penalty>
4.17655e-09

> <i_epik_Tot_Q>
0

> <i_epik_Tot_abs_Q>
0

> <r_epik_Metal_State_Penalty>
-0

> <b_epik_Metal_Only>
0

> <s_lp_Force_Field>
OPLS_2005

> <r_lp_Energy>
41.0811

> <b_lp_Chiralities_Consistent>
1

> <s_lp_Variant>
AV-unprocessed.smi:1283-2

> <Gold.Version>
5.8.1

> <Gold.Id.Protein>
6NUR|6NUR_protein|mol2

> <Gold.PLP.Fitness>
37.9855

> <Gold.PLP.PLP>
-35.5786

> <Gold.PLP.part.hbond>
-3.0000

> <Gold.PLP.part.metal>
0.0000

> <Gold.PLP.part.buried>
-0.8823

> <Gold.PLP.part.nonpolar>
-29.8536

> <Gold.PLP.part.repulsive>
0.2284

> <Gold.PLP.ligand.clash>
0.0000

> <Gold.PLP.ligand.torsion>
0.2967

> <Gold.PLP.Chemscore.Hbond>
1.0000

> <Gold.PLP.Chemscore.CHOScore>
0.0000

> <Gold.PLP.Chemscore.Metal>
0.0000

> <Gold.Chemscore.Hbonds>
donor molecule, donor type, donor heavy atom, donor atom, acceptor molecule, acceptor atom, score
      P1  H  7989  7998       L1    16  1.00

> <Gold.PLP.Chemscore.Internal.Correction>
0.0004

> <Gold.Rescore>
     Score         DG    S(hbond)    S(metal)    S(lipo)     H(rot)  DE(clash)    DE(int)     intcor
     15.27     -15.85       0.97        0.00      87.61       1.22       0.28       0.31       ----

> <Gold.Chemscore.Fitness>
15.2687

> <Gold.Chemscore.DG>
-15.8540

> <Gold.Chemscore.ZeroCoef>
-5.4800

> <Gold.Chemscore.Hbond>
0.9729

> <Gold.Chemscore.Metal>
0.0000

> <Gold.Chemscore.Lipo>
87.6067

> <Gold.Chemscore.Internal_Hbond>
0.0000

> <Gold.Chemscore.DEClash>
0.2772

> <Gold.Chemscore.DEInternal>
0.3082

> <Gold.Chemscore.Rot>
1.2208

> <Gold.Chemscore.Internal.Correction>
   9.000000E+99

> <Gold.Chemscore.Hbonds>
donor molecule, donor type, donor heavy atom, donor atom, acceptor molecule, acceptor atom, score
      P1  H  7989  7998       L1    16  0.24

> <Gold.Chemscore.Hbond.Weighted>
-3.2494

> <Gold.Chemscore.Metal.Weighted>
-0.0000

> <Gold.Chemscore.Lipo.Weighted>
-10.2500

> <Gold.Chemscore.Internal_Hbond.Weighted>
0.0000

> <Gold.Chemscore.DEClash.Weighted>
0.2772

> <Gold.Chemscore.DEInternal.Weighted>
0.3082

> <Gold.Chemscore.Rot.Weighted>
3.1253

> <Gold.Chemscore.Internal.Correction.Weighted>
   9.000000E+99

> <Gold.Protein.RotatedTorsions>
[ 6907 6896 6895 6894 ] final   62.96 input  -60.11 | X-H torsion
[ 7974 7965 7964 7962 ] final  -48.42 input  175.53 | X-H torsion
[ 8008 7997 7996 7995 ] final -174.60 input   59.86 | X-H torsion
[ 10167 10162 10161 10158 ] final  102.43 input  -65.29 | X-H torsion
[ 10718 10713 10712 10709 ] final  105.30 input   66.30 | X-H torsion
[ 10763 10752 10751 10750 ] final -112.56 input  -60.55 | X-H torsion
[ 11005 11000 10999 10996 ] final   43.39 input  -57.11 | X-H torsion

> <Gold.Protein.ActiveResidues>
 VAL166  LYS551  ARG553  GLY616  TRP617  ASP618  TYR619  PRO620  LYS621  CYS622 
 ASP623  PHE694  ASN695  SER759  ASP760  ASP761  ALA762  ILE779  LEU786  VAL792 
 PHE793  MET794  SER795  GLU796  ALA797  LYS798  CYS799  TRP800  GLU811  SER814 

> <Gold.Protein.RotatedAtoms>
  152.4214  134.5947  159.9983 H   0  0  0  0  0  0  0  0  0  0  0  0  # atno 6907 bound_to 6896
  151.6096  133.3343  159.3072 H   0  0  0  0  0  0  0  0  0  0  0  0  # atno 6908 bound_to 6896
  150.8103  134.7291  159.6747 H   0  0  0  0  0  0  0  0  0  0  0  0  # atno 6909 bound_to 6896
  145.9514  140.7569  142.9503 H   0  0  0  0  0  0  0  0  0  0  0  0  # atno 7974 bound_to 7965
  155.9721  140.1165  157.0802 H   0  0  0  0  0  0  0  0  0  0  0  0  # atno 8008 bound_to 7997
  154.4159  140.1161  156.5389 H   0  0  0  0  0  0  0  0  0  0  0  0  # atno 8009 bound_to 7997
  155.6582  140.3473  155.4775 H   0  0  0  0  0  0  0  0  0  0  0  0  # atno 8010 bound_to 7997
  139.7351  144.7026  151.0662 H   0  0  0  0  0  0  0  0  0  0  0  0  # atno 10167 bound_to 10162
  157.6710  131.0824  150.5836 H   0  0  0  0  0  0  0  0  0  0  0  0  # atno 10718 bound_to 10713
  154.8355  135.4486  154.1213 H   0  0  0  0  0  0  0  0  0  0  0  0  # atno 10763 bound_to 10752
  153.2448  135.6920  153.7749 H   0  0  0  0  0  0  0  0  0  0  0  0  # atno 10764 bound_to 10752
  153.7083  135.3360  155.3216 H   0  0  0  0  0  0  0  0  0  0  0  0  # atno 10765 bound_to 10752
  140.1649  134.4294  155.8294 H   0  0  0  0  0  0  0  0  0  0  0  0  # atno 11005 bound_to 11000
  144.6796  140.2440  143.7340 LP  0  0  0  0  0  0  0  0  0  0  0  0  # atno 17320 bound_to 7965
  145.8166  139.2026  143.1962 LP  0  0  0  0  0  0  0  0  0  0  0  0  # atno 17321 bound_to 7965
  140.7777  143.4994  150.9790 LP  0  0  0  0  0  0  0  0  0  0  0  0  # atno 17342 bound_to 10162
  139.8683  143.7226  152.3168 LP  0  0  0  0  0  0  0  0  0  0  0  0  # atno 17343 bound_to 10162
  156.6136  130.4387  149.5849 LP  0  0  0  0  0  0  0  0  0  0  0  0  # atno 17370 bound_to 10713
  156.2410  130.6851  151.1556 LP  0  0  0  0  0  0  0  0  0  0  0  0  # atno 17371 bound_to 10713
  141.2213  133.6930  156.7660 LP  0  0  0  0  0  0  0  0  0  0  0  0  # atno 17394 bound_to 11000
  140.2446  134.8588  157.3607 LP  0  0  0  0  0  0  0  0  0  0  0  0  # atno 17395 bound_to 11000

$$$$
