AV-unprocessed.smi:1005|AV-procd|sdf|4384|dock6
  -GOLD-   22720 2313D 1   1.00000     0.00000
 Structure written by MMmdl.
 58 60  0  0  0  0  0  0  0  0  4 V2000
  151.8976  144.1743  160.8768 C   0  0  0  0  0  0  0  0  0  0  0  0
  151.8181  143.2005  159.7132 C   0  0  0  0  0  0  0  0  0  0  0  0
  150.9184  143.4798  158.6602 C   0  0  0  0  0  0  0  0  0  0  0  0
  150.8653  142.5682  157.6123 C   0  0  0  0  0  0  0  0  0  0  0  0
  150.0936  142.5575  156.4488 N   0  3  0  0  0  0  0  0  0  0  0  0
  150.3893  141.4483  155.7169 C   0  0  0  0  0  0  0  0  0  0  0  0
  151.3360  140.7462  156.3978 N   0  0  0  0  0  0  0  0  0  0  0  0
  151.9982  139.4805  156.0471 C   0  0  0  0  0  0  0  0  0  0  0  0
  151.0234  138.2871  155.9906 C   0  0  2  0  0  0  0  0  0  0  0  0
  151.5226  137.2277  156.7840 O   0  0  0  0  0  0  0  0  0  0  0  0
  150.8327  137.7748  154.5485 C   0  0  0  0  0  0  0  0  0  0  0  0
  149.8174  136.6945  154.4484 N   0  3  2  0  0  0  0  0  0  0  0  0
  148.6322  136.9501  155.3000 C   0  0  0  0  0  0  0  0  0  0  0  0
  147.5838  135.8437  155.1032 C   0  0  0  0  0  0  0  0  0  0  0  0
  148.1688  134.5792  155.3905 O   0  0  0  0  0  0  0  0  0  0  0  0
  149.2534  134.2719  154.5201 C   0  0  2  0  0  0  0  0  0  0  0  0
  149.7587  132.8596  154.8711 C   0  0  0  0  0  0  0  0  0  0  0  0
  148.8367  131.7886  154.4125 N   0  3  0  0  0  0  0  0  0  0  0  0
  148.1040  132.1336  153.1721 C   0  0  0  0  0  0  0  0  0  0  0  0
  149.5179  130.4805  154.2916 C   0  0  0  0  0  0  0  0  0  0  0  0
  150.3544  135.3356  154.7097 C   0  0  0  0  0  0  0  0  0  0  0  0
  151.6682  141.4110  157.5853 C   0  0  0  0  0  0  0  0  0  0  0  0
  152.5624  141.1229  158.6139 C   0  0  0  0  0  0  0  0  0  0  0  0
  152.6308  142.0376  159.6891 C   0  0  0  0  0  0  0  0  0  0  0  0
  153.5960  141.7475  160.8260 C   0  0  0  0  0  0  0  0  0  0  0  0
  151.1793  144.9872  160.7672 H   0  0  0  0  0  0  0  0  0  0  0  0
  152.8930  144.6144  160.9391 H   0  0  0  0  0  0  0  0  0  0  0  0
  151.6832  143.6670  161.8179 H   0  0  0  0  0  0  0  0  0  0  0  0
  150.2974  144.3638  158.6709 H   0  0  0  0  0  0  0  0  0  0  0  0
  149.9510  141.1762  154.7672 H   0  0  0  0  0  0  0  0  0  0  0  0
  152.4619  139.6243  155.0703 H   0  0  0  0  0  0  0  0  0  0  0  0
  152.8147  139.2960  156.7457 H   0  0  0  0  0  0  0  0  0  0  0  0
  150.0696  138.6045  156.4107 H   0  0  0  0  0  0  0  0  0  0  0  0
  152.1350  137.5843  157.4100 H   0  0  0  0  0  0  0  0  0  0  0  0
  150.5552  138.5942  153.8835 H   0  0  0  0  0  0  0  0  0  0  0  0
  151.7926  137.4018  154.1870 H   0  0  0  0  0  0  0  0  0  0  0  0
  148.9362  136.9970  156.3470 H   0  0  0  0  0  0  0  0  0  0  0  0
  148.1942  137.9170  155.0491 H   0  0  0  0  0  0  0  0  0  0  0  0
  146.7385  136.0030  155.7730 H   0  0  0  0  0  0  0  0  0  0  0  0
  147.1903  135.8547  154.0854 H   0  0  0  0  0  0  0  0  0  0  0  0
  148.9118  134.3016  153.4850 H   0  0  0  0  0  0  0  0  0  0  0  0
  150.7493  132.6884  154.4468 H   0  0  0  0  0  0  0  0  0  0  0  0
  149.8765  132.7998  155.9543 H   0  0  0  0  0  0  0  0  0  0  0  0
  148.7938  132.2922  152.3422 H   0  0  0  0  0  0  0  0  0  0  0  0
  147.5058  133.0354  153.2958 H   0  0  0  0  0  0  0  0  0  0  0  0
  147.4210  131.3300  152.8949 H   0  0  0  0  0  0  0  0  0  0  0  0
  150.2984  130.5145  153.5303 H   0  0  0  0  0  0  0  0  0  0  0  0
  148.8079  129.6989  154.0189 H   0  0  0  0  0  0  0  0  0  0  0  0
  149.9747  130.1913  155.2388 H   0  0  0  0  0  0  0  0  0  0  0  0
  151.1807  135.1188  154.0340 H   0  0  0  0  0  0  0  0  0  0  0  0
  150.7521  135.2907  155.7249 H   0  0  0  0  0  0  0  0  0  0  0  0
  153.1795  140.2366  158.6014 H   0  0  0  0  0  0  0  0  0  0  0  0
  154.1906  140.8554  160.6281 H   0  0  0  0  0  0  0  0  0  0  0  0
  153.0517  141.5862  161.7567 H   0  0  0  0  0  0  0  0  0  0  0  0
  154.2855  142.5802  160.9671 H   0  0  0  0  0  0  0  0  0  0  0  0
  148.1456  131.6726  155.1403 H   0  0  0  0  0  0  0  0  0  0  0  0
  149.4867  136.7078  153.4936 H   0  0  0  0  0  0  0  0  0  0  0  0
  149.4160  143.2561  156.1710 H   0  0  0  0  0  0  0  0  0  0  0  0
  1  2  1  0  0  0  0
  1 26  1  0  0  0  0
  1 27  1  0  0  0  0
  1 28  1  0  0  0  0
  2 24  1  0  0  0  0
  2  3  2  0  0  0  0
  3  4  1  0  0  0  0
  3 29  1  0  0  0  0
  4 22  2  0  0  0  0
  4  5  1  0  0  0  0
  5  6  2  0  0  0  0
  5 58  1  0  0  0  0
  6  7  1  0  0  0  0
  6 30  1  0  0  0  0
  7  8  1  0  0  0  0
  7 22  1  0  0  0  0
  8  9  1  0  0  0  0
  8 31  1  0  0  0  0
  8 32  1  0  0  0  0
  9 10  1  0  0  0  0
  9 11  1  0  0  0  0
  9 33  1  0  0  0  0
 10 34  1  0  0  0  0
 11 12  1  0  0  0  0
 11 35  1  0  0  0  0
 11 36  1  0  0  0  0
 12 21  1  0  0  0  0
 12 13  1  0  0  0  0
 12 57  1  0  0  0  0
 13 14  1  0  0  0  0
 13 37  1  0  0  0  0
 13 38  1  0  0  0  0
 14 15  1  0  0  0  0
 14 39  1  0  0  0  0
 14 40  1  0  0  0  0
 15 16  1  0  0  0  0
 16 17  1  0  0  0  0
 16 21  1  0  0  0  0
 16 41  1  0  0  0  0
 17 18  1  0  0  0  0
 17 42  1  0  0  0  0
 17 43  1  0  0  0  0
 18 19  1  0  0  0  0
 18 20  1  0  0  0  0
 18 56  1  0  0  0  0
 19 44  1  0  0  0  0
 19 45  1  0  0  0  0
 19 46  1  0  0  0  0
 20 47  1  0  0  0  0
 20 48  1  0  0  0  0
 20 49  1  0  0  0  0
 21 50  1  0  0  0  0
 21 51  1  0  0  0  0
 22 23  1  0  0  0  0
 23 24  2  0  0  0  0
 23 52  1  0  0  0  0
 24 25  1  0  0  0  0
 25 53  1  0  0  0  0
 25 54  1  0  0  0  0
 25 55  1  0  0  0  0
M  CHG  1   5   1
M  CHG  1  12   1
M  CHG  1  18   1
M  END
> <s_m_source_file>
AV-unprocessed.smi

> <i_m_source_file_index>
1005

> <i_lp_mmshare_version>
43012

> <i_f3d_flags>
0

> <s_epik_input>
W0NIM11jKFtjSF0xKWMoW0NIM10pW2NIXWMoYzEyKW4oW2NIXW4yKVtDSDJdW0NASF0oW09IXSlbQ0gyXU4zW0NIMl1bQ0gyXU9bQ0BIXShbQ0gyXTMpW0NIMl1OKFtDSDNdKVtDSDNd

> <s_epik_cmdline>
J2VwaWtfcHl0aG9uJywgJy1waCcsICc3LjAnLCAnLXRuJywgJzgnLCAnLW1hJywgJzIwMCcsICctbWV0YWxfYmluZGluZycsICctaW1hZScsICc8aW5maWxlLm1hZT4nLCAnLW9tYWUnLCAnPG91dGZpbGUubWFlPic=

> <r_epik_Ionization_Penalty>
2.30802

> <r_epik_Ionization_Penalty_Charging>
2.30798

> <r_epik_Ionization_Penalty_Neutral>
3.4851e-05

> <r_epik_State_Penalty>
2.52618

> <r_epik_Charging_Adjusted_Penalty>
4.83416

> <i_epik_Tot_Q>
3

> <i_epik_Tot_abs_Q>
3

> <r_epik_Metal_State_Penalty>
6.53149

> <b_epik_Metal_Only>
0

> <s_lp_Force_Field>
OPLS_2005

> <r_lp_Energy>
42.4593

> <b_lp_Chiralities_Consistent>
1

> <s_lp_Variant>
AV-unprocessed.smi:1005-23

> <Gold.Version>
5.8.1

> <Gold.Id.Protein>
6NUR|6NUR_protein|mol2

> <Gold.PLP.Fitness>
58.3358

> <Gold.PLP.PLP>
-48.8379

> <Gold.PLP.part.hbond>
-2.0000

> <Gold.PLP.part.metal>
0.0000

> <Gold.PLP.part.buried>
-6.2406

> <Gold.PLP.part.nonpolar>
-41.1680

> <Gold.PLP.part.repulsive>
0.1460

> <Gold.PLP.ligand.clash>
0.0000

> <Gold.PLP.ligand.torsion>
1.3332

> <Gold.PLP.Chemscore.Hbond>
4.0000

> <Gold.PLP.Chemscore.CHOScore>
0.0000

> <Gold.PLP.Chemscore.Metal>
0.0000

> <Gold.Chemscore.Hbonds>
donor molecule, donor type, donor heavy atom, donor atom, acceptor molecule, acceptor atom, score
      L1  H     5    58       P1  8028  2.00
      L1  H    12    57       P1  7948  2.00

> <Gold.PLP.Chemscore.Internal.Correction>
0.1643

> <Gold.Rescore>
     Score         DG    S(hbond)    S(metal)    S(lipo)     H(rot)  DE(clash)    DE(int)     intcor
     19.16     -20.51       1.92        0.00     129.64       2.56       0.04       1.31       ----

> <Gold.Chemscore.Fitness>
19.1605

> <Gold.Chemscore.DG>
-20.5144

> <Gold.Chemscore.ZeroCoef>
-5.4800

> <Gold.Chemscore.Hbond>
1.9197

> <Gold.Chemscore.Metal>
0.0000

> <Gold.Chemscore.Lipo>
129.6385

> <Gold.Chemscore.Internal_Hbond>
0.0000

> <Gold.Chemscore.DEClash>
0.0396

> <Gold.Chemscore.DEInternal>
1.3143

> <Gold.Chemscore.Rot>
2.5566

> <Gold.Chemscore.Internal.Correction>
   9.000000E+99

> <Gold.Chemscore.Hbonds>
donor molecule, donor type, donor heavy atom, donor atom, acceptor molecule, acceptor atom, score
      L1  H     5    58       P1  8028  0.98
      L1  H    12    57       P1  7948  0.82

> <Gold.Chemscore.Hbond.Weighted>
-6.4116

> <Gold.Chemscore.Metal.Weighted>
-0.0000

> <Gold.Chemscore.Lipo.Weighted>
-15.1677

> <Gold.Chemscore.Internal_Hbond.Weighted>
0.0000

> <Gold.Chemscore.DEClash.Weighted>
0.0396

> <Gold.Chemscore.DEInternal.Weighted>
1.3143

> <Gold.Chemscore.Rot.Weighted>
6.5450

> <Gold.Chemscore.Internal.Correction.Weighted>
   9.000000E+99

> <Gold.Protein.RotatedTorsions>
[ 6907 6896 6895 6894 ] final   -5.07 input  -60.11 | X-H torsion
[ 7974 7965 7964 7962 ] final  -58.30 input  175.53 | X-H torsion
[ 8008 7997 7996 7995 ] final  -76.99 input   59.86 | X-H torsion
[ 10167 10162 10161 10158 ] final   55.36 input  -65.29 | X-H torsion
[ 10718 10713 10712 10709 ] final   50.60 input   66.30 | X-H torsion
[ 10763 10752 10751 10750 ] final  -35.95 input  -60.55 | X-H torsion
[ 11005 11000 10999 10996 ] final   38.65 input  -57.11 | X-H torsion

> <Gold.Protein.ActiveResidues>
 VAL166  LYS551  ARG553  GLY616  TRP617  ASP618  TYR619  PRO620  LYS621  CYS622 
 ASP623  PHE694  ASN695  SER759  ASP760  ASP761  ALA762  ILE779  LEU786  VAL792 
 PHE793  MET794  SER795  GLU796  ALA797  LYS798  CYS799  TRP800  GLU811  SER814 

> <Gold.Protein.RotatedAtoms>
  151.4875  135.1055  159.9794 H   0  0  0  0  0  0  0  0  0  0  0  0  # atno 6907 bound_to 6896
  152.4754  133.8123  159.7020 H   0  0  0  0  0  0  0  0  0  0  0  0  # atno 6908 bound_to 6896
  150.8789  133.7337  159.2964 H   0  0  0  0  0  0  0  0  0  0  0  0  # atno 6909 bound_to 6896
  145.8410  140.8417  143.0034 H   0  0  0  0  0  0  0  0  0  0  0  0  # atno 7974 bound_to 7965
  154.5555  140.0718  156.8736 H   0  0  0  0  0  0  0  0  0  0  0  0  # atno 8008 bound_to 7997
  155.2911  140.3378  155.4234 H   0  0  0  0  0  0  0  0  0  0  0  0  # atno 8009 bound_to 7997
  156.1998  140.1717  156.7909 H   0  0  0  0  0  0  0  0  0  0  0  0  # atno 8010 bound_to 7997
  140.2203  144.3796  150.6453 H   0  0  0  0  0  0  0  0  0  0  0  0  # atno 10167 bound_to 10162
  157.4900  130.8370  149.8192 H   0  0  0  0  0  0  0  0  0  0  0  0  # atno 10718 bound_to 10713
  153.8717  135.6830  153.4774 H   0  0  0  0  0  0  0  0  0  0  0  0  # atno 10763 bound_to 10752
  153.1283  135.4709  154.9306 H   0  0  0  0  0  0  0  0  0  0  0  0  # atno 10764 bound_to 10752
  154.7711  135.3239  154.8138 H   0  0  0  0  0  0  0  0  0  0  0  0  # atno 10765 bound_to 10752
  140.2105  134.3761  155.8051 H   0  0  0  0  0  0  0  0  0  0  0  0  # atno 11005 bound_to 11000
  144.6733  140.0812  143.7469 LP  0  0  0  0  0  0  0  0  0  0  0  0  # atno 17320 bound_to 7965
  145.9465  139.2704  143.1237 LP  0  0  0  0  0  0  0  0  0  0  0  0  # atno 17321 bound_to 7965
  140.6260  143.2181  151.6596 LP  0  0  0  0  0  0  0  0  0  0  0  0  # atno 17342 bound_to 10162
  139.5147  144.3403  152.0746 LP  0  0  0  0  0  0  0  0  0  0  0  0  # atno 17343 bound_to 10162
  156.0168  130.3810  150.2085 LP  0  0  0  0  0  0  0  0  0  0  0  0  # atno 17370 bound_to 10713
  157.0273  130.9997  151.3322 LP  0  0  0  0  0  0  0  0  0  0  0  0  # atno 17371 bound_to 10713
  141.2226  133.7140  156.8410 LP  0  0  0  0  0  0  0  0  0  0  0  0  # atno 17394 bound_to 11000
  140.1956  134.8934  157.3110 LP  0  0  0  0  0  0  0  0  0  0  0  0  # atno 17395 bound_to 11000

$$$$
