AV-unprocessed.smi:878|AV-procd|sdf|4031|dock2
  -GOLD-   22720 1523D 1   1.00000     0.00000
 Structure written by MMmdl.
 33 34  0  0  0  0  0  0  0  0  1 V2000
  151.9467  145.6902  159.5491 C   0  0  0  0  0  0  0  0  0  0  0  0
  151.2161  144.0469  159.7815 S   0  0  0  0  0  0  0  0  0  0  0  0
  152.4443  142.9933  160.4986 C   0  0  0  0  0  0  0  0  0  0  0  0
  152.9758  141.8926  159.7942 C   0  0  0  0  0  0  0  0  0  0  0  0
  153.9519  141.0729  160.3943 C   0  0  0  0  0  0  0  0  0  0  0  0
  154.4114  141.3446  161.7074 C   0  0  0  0  0  0  0  0  0  0  0  0
  155.3660  140.6003  162.3655 O   0  0  0  0  0  0  0  0  0  0  0  0
  155.3534  140.5881  163.7864 C   0  0  0  0  0  0  0  0  0  0  0  0
  156.2830  141.6878  164.3256 C   0  0  0  0  0  0  0  0  0  0  0  0
  156.0956  141.9506  165.7325 N   0  0  0  0  0  0  0  0  0  0  0  0
  155.9113  143.2340  166.2231 C   0  0  0  0  0  0  0  0  0  0  0  0
  155.7492  143.5106  167.5395 C   0  0  0  0  0  0  0  0  0  0  0  0
  155.5250  145.1381  168.0729 Cl  0  0  0  0  0  0  0  0  0  0  0  0
  155.7656  142.4279  168.5222 C   0  0  0  0  0  0  0  0  0  0  0  0
  155.6245  142.5650  169.7358 O   0  0  0  0  0  0  0  0  0  0  0  0
  155.9628  141.1525  167.9842 N   0  0  0  0  0  0  0  0  0  0  0  0
  156.1338  140.8586  166.6311 C   0  0  0  0  0  0  0  0  0  0  0  0
  156.3086  139.6927  166.2769 O   0  0  0  0  0  0  0  0  0  0  0  0
  153.8713  142.4462  162.4012 C   0  0  0  0  0  0  0  0  0  0  0  0
  152.8931  143.2644  161.8049 C   0  0  0  0  0  0  0  0  0  0  0  0
  155.9856  140.3773  168.6307 H   0  0  0  0  0  0  0  0  0  0  0  0
  151.1938  146.3822  159.1720 H   0  0  0  0  0  0  0  0  0  0  0  0
  152.7644  145.6505  158.8297 H   0  0  0  0  0  0  0  0  0  0  0  0
  152.3253  146.0769  160.4953 H   0  0  0  0  0  0  0  0  0  0  0  0
  152.6470  141.6593  158.7938 H   0  0  0  0  0  0  0  0  0  0  0  0
  154.3351  140.2413  159.8231 H   0  0  0  0  0  0  0  0  0  0  0  0
  154.3401  140.7374  164.1635 H   0  0  0  0  0  0  0  0  0  0  0  0
  155.7060  139.6207  164.1467 H   0  0  0  0  0  0  0  0  0  0  0  0
  157.3253  141.3817  164.2239 H   0  0  0  0  0  0  0  0  0  0  0  0
  156.1930  142.6266  163.7753 H   0  0  0  0  0  0  0  0  0  0  0  0
  155.8979  144.0576  165.5232 H   0  0  0  0  0  0  0  0  0  0  0  0
  154.2105  142.6654  163.4030 H   0  0  0  0  0  0  0  0  0  0  0  0
  152.4903  144.1033  162.3534 H   0  0  0  0  0  0  0  0  0  0  0  0
  1  2  1  0  0  0  0
  1 22  1  0  0  0  0
  1 23  1  0  0  0  0
  1 24  1  0  0  0  0
  2  3  1  0  0  0  0
  3 20  1  0  0  0  0
  3  4  2  0  0  0  0
  4  5  1  0  0  0  0
  4 25  1  0  0  0  0
  5  6  2  0  0  0  0
  5 26  1  0  0  0  0
  6  7  1  0  0  0  0
  6 19  1  0  0  0  0
  7  8  1  0  0  0  0
  8  9  1  0  0  0  0
  8 27  1  0  0  0  0
  8 28  1  0  0  0  0
  9 10  1  0  0  0  0
  9 29  1  0  0  0  0
  9 30  1  0  0  0  0
 10 17  1  0  0  0  0
 10 11  1  0  0  0  0
 11 12  2  0  0  0  0
 11 31  1  0  0  0  0
 12 13  1  0  0  0  0
 12 14  1  0  0  0  0
 14 15  2  0  0  0  0
 14 16  1  0  0  0  0
 16 21  1  0  0  0  0
 16 17  1  0  0  0  0
 17 18  2  0  0  0  0
 19 20  2  0  0  0  0
 19 32  1  0  0  0  0
 20 33  1  0  0  0  0
M  END
> <s_m_source_file>
AV-unprocessed.smi

> <i_m_source_file_index>
878

> <i_lp_mmshare_version>
43012

> <i_f3d_flags>
0

> <s_epik_input>
W0NIM11TYzFbY0hdW2NIXWMoW2NIXVtjSF0xKU9bQ0gyXVtDSDJdbjJbY0hdYyhDbCljKD1PKVtuSF1jMj1P

> <s_epik_cmdline>
J2VwaWtfcHl0aG9uJywgJy1waCcsICc3LjAnLCAnLXRuJywgJzgnLCAnLW1hJywgJzIwMCcsICctbWV0YWxfYmluZGluZycsICctaW1hZScsICc8aW5maWxlLm1hZT4nLCAnLW9tYWUnLCAnPG91dGZpbGUubWFlPic=

> <r_lp_tautomer_probability>
0.999537

> <r_epik_Ionization_Penalty>
0.037527

> <r_epik_Ionization_Penalty_Charging>
0.037527

> <r_epik_Ionization_Penalty_Neutral>
0

> <r_epik_State_Penalty>
0.0314158

> <r_epik_Charging_Adjusted_Penalty>
0.0689428

> <i_epik_Tot_Q>
0

> <i_epik_Tot_abs_Q>
0

> <r_epik_Metal_State_Penalty>
2.37917

> <b_epik_Metal_Only>
0

> <s_lp_Force_Field>
OPLS_2005

> <r_lp_Energy>
14.7844

> <b_lp_Chiralities_Consistent>
1

> <s_lp_Variant>
AV-unprocessed.smi:878-1

> <Gold.Version>
5.8.1

> <Gold.Id.Protein>
6NUR|6NUR_protein|mol2

> <Gold.PLP.Fitness>
45.5474

> <Gold.PLP.PLP>
-46.9914

> <Gold.PLP.part.hbond>
-1.0054

> <Gold.PLP.part.metal>
0.0000

> <Gold.PLP.part.buried>
-4.0408

> <Gold.PLP.part.nonpolar>
-41.2745

> <Gold.PLP.part.repulsive>
0.4606

> <Gold.PLP.ligand.clash>
0.0000

> <Gold.PLP.ligand.torsion>
0.7333

> <Gold.PLP.Chemscore.Hbond>
0.0000

> <Gold.PLP.Chemscore.CHOScore>
0.0000

> <Gold.PLP.Chemscore.Metal>
0.0000

> <Gold.PLP.Chemscore.Internal.Correction>
0.0226

> <Gold.Rescore>
     Score         DG    S(hbond)    S(metal)    S(lipo)     H(rot)  DE(clash)    DE(int)     intcor
     12.84     -14.76       0.00        0.00     122.58       1.98       0.12       1.80       ----

> <Gold.Chemscore.Fitness>
12.8399

> <Gold.Chemscore.DG>
-14.7640

> <Gold.Chemscore.ZeroCoef>
-5.4800

> <Gold.Chemscore.Hbond>
0.0000

> <Gold.Chemscore.Metal>
0.0000

> <Gold.Chemscore.Lipo>
122.5764

> <Gold.Chemscore.Internal_Hbond>
0.0000

> <Gold.Chemscore.DEClash>
0.1231

> <Gold.Chemscore.DEInternal>
1.8010

> <Gold.Chemscore.Rot>
1.9755

> <Gold.Chemscore.Internal.Correction>
   9.000000E+99

> <Gold.Chemscore.Hbond.Weighted>
-0.0000

> <Gold.Chemscore.Metal.Weighted>
-0.0000

> <Gold.Chemscore.Lipo.Weighted>
-14.3414

> <Gold.Chemscore.Internal_Hbond.Weighted>
0.0000

> <Gold.Chemscore.DEClash.Weighted>
0.1231

> <Gold.Chemscore.DEInternal.Weighted>
1.8010

> <Gold.Chemscore.Rot.Weighted>
5.0574

> <Gold.Chemscore.Internal.Correction.Weighted>
   9.000000E+99

> <Gold.Protein.RotatedTorsions>
[ 6907 6896 6895 6894 ] final  154.17 input  -60.11 | X-H torsion
[ 7974 7965 7964 7962 ] final  168.44 input  175.53 | X-H torsion
[ 8008 7997 7996 7995 ] final -111.06 input   59.86 | X-H torsion
[ 10167 10162 10161 10158 ] final  -64.06 input  -65.29 | X-H torsion
[ 10718 10713 10712 10709 ] final  105.03 input   66.30 | X-H torsion
[ 10763 10752 10751 10750 ] final  116.75 input  -60.55 | X-H torsion
[ 11005 11000 10999 10996 ] final  112.44 input  -57.11 | X-H torsion

> <Gold.Protein.ActiveResidues>
 VAL166  LYS551  ARG553  GLY616  TRP617  ASP618  TYR619  PRO620  LYS621  CYS622 
 ASP623  PHE694  ASN695  SER759  ASP760  ASP761  ALA762  ILE779  LEU786  VAL792 
 PHE793  MET794  SER795  GLU796  ALA797  LYS798  CYS799  TRP800  GLU811  SER814 

> <Gold.Protein.RotatedAtoms>
  152.0622  133.4067  159.4422 H   0  0  0  0  0  0  0  0  0  0  0  0  # atno 6907 bound_to 6896
  150.6866  134.3187  159.4786 H   0  0  0  0  0  0  0  0  0  0  0  0  # atno 6908 bound_to 6896
  152.1009  134.9341  160.0620 H   0  0  0  0  0  0  0  0  0  0  0  0  # atno 6909 bound_to 6896
  144.7389  139.8907  143.6403 H   0  0  0  0  0  0  0  0  0  0  0  0  # atno 7974 bound_to 7965
  154.9841  140.0396  157.2290 H   0  0  0  0  0  0  0  0  0  0  0  0  # atno 8008 bound_to 7997
  154.7688  140.2798  155.6132 H   0  0  0  0  0  0  0  0  0  0  0  0  # atno 8009 bound_to 7997
  156.2917  140.2614  156.2485 H   0  0  0  0  0  0  0  0  0  0  0  0  # atno 8010 bound_to 7997
  140.5828  143.2329  151.6307 H   0  0  0  0  0  0  0  0  0  0  0  0  # atno 10167 bound_to 10162
  157.6720  131.0818  150.5795 H   0  0  0  0  0  0  0  0  0  0  0  0  # atno 10718 bound_to 10713
  153.5420  135.3557  155.2722 H   0  0  0  0  0  0  0  0  0  0  0  0  # atno 10763 bound_to 10752
  154.8716  135.4093  154.3033 H   0  0  0  0  0  0  0  0  0  0  0  0  # atno 10764 bound_to 10752
  153.3742  135.7065  153.6682 H   0  0  0  0  0  0  0  0  0  0  0  0  # atno 10765 bound_to 10752
  139.8927  134.9530  156.6585 H   0  0  0  0  0  0  0  0  0  0  0  0  # atno 11005 bound_to 11000
  146.1144  139.4153  143.0267 LP  0  0  0  0  0  0  0  0  0  0  0  0  # atno 17320 bound_to 7965
  145.7396  141.0013  143.1308 LP  0  0  0  0  0  0  0  0  0  0  0  0  # atno 17321 bound_to 7965
  139.5179  144.3299  152.0835 LP  0  0  0  0  0  0  0  0  0  0  0  0  # atno 17342 bound_to 10162
  140.2452  144.4227  150.6244 LP  0  0  0  0  0  0  0  0  0  0  0  0  # atno 17343 bound_to 10162
  156.6096  130.4376  149.5864 LP  0  0  0  0  0  0  0  0  0  0  0  0  # atno 17370 bound_to 10713
  156.2441  130.6868  151.1583 LP  0  0  0  0  0  0  0  0  0  0  0  0  # atno 17371 bound_to 10713
  140.7465  133.8933  155.8316 LP  0  0  0  0  0  0  0  0  0  0  0  0  # atno 17394 bound_to 11000
  141.0035  134.1118  157.4293 LP  0  0  0  0  0  0  0  0  0  0  0  0  # atno 17395 bound_to 11000

$$$$
