AV-unprocessed.smi:3268|AV-procd|sdf|12508|dock2
  -GOLD-   2272018413D 1   1.00000     0.00000
 Structure written by MMmdl.
 40 41  0  0  0  0  0  0  0  0  2 V2000
  147.1299  132.1352  153.0552 C   0  0  0  0  0  0  0  0  0  0  0  0
  146.5649  133.3042  152.2236 C   0  0  2  0  0  0  0  0  0  0  0  0
  145.9440  134.3900  153.1148 C   0  0  0  0  0  0  0  0  0  0  0  0
  144.9489  134.1436  153.7973 O   0  0  0  0  0  0  0  0  0  0  0  0
  146.5411  135.5927  153.1018 N   0  0  0  0  0  0  0  0  0  0  0  0
  146.1067  136.7502  153.8759 C   0  0  0  0  0  0  0  0  0  0  0  0
  145.5642  137.8708  152.9666 C   0  0  0  0  0  0  0  0  0  0  0  0
  145.6321  139.2060  153.6121 N   0  3  0  0  0  0  0  0  0  0  0  0
  145.2098  139.1628  155.0370 C   0  0  0  0  0  0  0  0  0  0  0  0
  145.1627  140.5727  155.6500 C   0  0  0  0  0  0  0  0  0  0  0  0
  146.5155  141.2807  155.5052 C   0  0  0  0  0  0  0  0  0  0  0  0
  146.9449  141.2894  154.0328 C   0  0  0  0  0  0  0  0  0  0  0  0
  146.9570  139.8646  153.4535 C   0  0  0  0  0  0  0  0  0  0  0  0
  145.6003  132.8605  151.2241 N   0  0  0  0  0  0  0  0  0  0  0  0
  145.7608  132.0374  150.1853 C   0  0  0  0  0  0  0  0  0  0  0  0
  144.6724  131.8857  149.4439 N   0  0  0  0  0  0  0  0  0  0  0  0
  143.8192  132.7108  150.1200 C   0  0  0  0  0  0  0  0  0  0  0  0
  144.3271  133.3283  151.1863 N   0  0  0  0  0  0  0  0  0  0  0  0
  147.8888  132.4843  153.7564 H   0  0  0  0  0  0  0  0  0  0  0  0
  147.5998  131.3918  152.4107 H   0  0  0  0  0  0  0  0  0  0  0  0
  146.3565  131.6285  153.6341 H   0  0  0  0  0  0  0  0  0  0  0  0
  147.4015  133.7476  151.6807 H   0  0  0  0  0  0  0  0  0  0  0  0
  147.3522  135.7137  152.5122 H   0  0  0  0  0  0  0  0  0  0  0  0
  145.3398  136.4059  154.5689 H   0  0  0  0  0  0  0  0  0  0  0  0
  146.9334  137.1191  154.4853 H   0  0  0  0  0  0  0  0  0  0  0  0
  146.1608  137.8906  152.0536 H   0  0  0  0  0  0  0  0  0  0  0  0
  144.5396  137.6590  152.6565 H   0  0  0  0  0  0  0  0  0  0  0  0
  144.2204  138.7099  155.1155 H   0  0  0  0  0  0  0  0  0  0  0  0
  145.8949  138.5284  155.6020 H   0  0  0  0  0  0  0  0  0  0  0  0
  144.3866  141.1606  155.1581 H   0  0  0  0  0  0  0  0  0  0  0  0
  144.8842  140.5127  156.7027 H   0  0  0  0  0  0  0  0  0  0  0  0
  146.4517  142.3005  155.8861 H   0  0  0  0  0  0  0  0  0  0  0  0
  147.2673  140.7681  156.1068 H   0  0  0  0  0  0  0  0  0  0  0  0
  146.2630  141.9148  153.4548 H   0  0  0  0  0  0  0  0  0  0  0  0
  147.9340  141.7390  153.9369 H   0  0  0  0  0  0  0  0  0  0  0  0
  147.7230  139.2668  153.9502 H   0  0  0  0  0  0  0  0  0  0  0  0
  147.2319  139.9156  152.4007 H   0  0  0  0  0  0  0  0  0  0  0  0
  146.6941  131.5401  149.9655 H   0  0  0  0  0  0  0  0  0  0  0  0
  142.7949  132.8656  149.8140 H   0  0  0  0  0  0  0  0  0  0  0  0
  144.9540  139.7862  153.1387 H   0  0  0  0  0  0  0  0  0  0  0  0
  1  2  1  0  0  0  0
  1 19  1  0  0  0  0
  1 20  1  0  0  0  0
  1 21  1  0  0  0  0
  2  3  1  0  0  0  0
  2 14  1  0  0  0  0
  2 22  1  0  0  0  0
  3  4  2  0  0  0  0
  3  5  1  0  0  0  0
  5  6  1  0  0  0  0
  5 23  1  0  0  0  0
  6  7  1  0  0  0  0
  6 24  1  0  0  0  0
  6 25  1  0  0  0  0
  7  8  1  0  0  0  0
  7 26  1  0  0  0  0
  7 27  1  0  0  0  0
  8 13  1  0  0  0  0
  8  9  1  0  0  0  0
  8 40  1  0  0  0  0
  9 10  1  0  0  0  0
  9 28  1  0  0  0  0
  9 29  1  0  0  0  0
 10 11  1  0  0  0  0
 10 30  1  0  0  0  0
 10 31  1  0  0  0  0
 11 12  1  0  0  0  0
 11 32  1  0  0  0  0
 11 33  1  0  0  0  0
 12 13  1  0  0  0  0
 12 34  1  0  0  0  0
 12 35  1  0  0  0  0
 13 36  1  0  0  0  0
 13 37  1  0  0  0  0
 14 18  1  0  0  0  0
 14 15  1  0  0  0  0
 15 16  2  0  0  0  0
 15 38  1  0  0  0  0
 16 17  1  0  0  0  0
 17 18  2  0  0  0  0
 17 39  1  0  0  0  0
M  CHG  1   8   1
M  END
> <s_m_source_file>
AV-unprocessed.smi

> <i_m_source_file_index>
3268

> <i_lp_mmshare_version>
43012

> <i_f3d_flags>
0

> <s_epik_input>
bjFbY0hdbltjSF1uMVtDQEhdKFtDSDNdKUMoPU8pW05IXVtDSDJdW0NIMl1OMltDSDJdW0NIMl1bQ0gyXVtDSDJdW0NIMl0y

> <s_epik_cmdline>
J2VwaWtfcHl0aG9uJywgJy1waCcsICc3LjAnLCAnLXRuJywgJzgnLCAnLW1hJywgJzIwMCcsICctbWV0YWxfYmluZGluZycsICctaW1hZScsICc8aW5maWxlLm1hZT4nLCAnLW9tYWUnLCAnPG91dGZpbGUubWFlPic=

> <r_lp_tautomer_probability>
1

> <r_epik_Ionization_Penalty>
0.00266407

> <r_epik_Ionization_Penalty_Charging>
0.00265606

> <r_epik_Ionization_Penalty_Neutral>
8.01095e-06

> <r_epik_State_Penalty>
0.00184955

> <r_epik_Charging_Adjusted_Penalty>
0.00450561

> <i_epik_Tot_Q>
1

> <i_epik_Tot_abs_Q>
1

> <r_epik_Metal_State_Penalty>
-0

> <b_epik_Metal_Only>
0

> <s_lp_Force_Field>
OPLS_2005

> <r_lp_Energy>
22.0187

> <b_lp_Chiralities_Consistent>
1

> <s_lp_Variant>
AV-unprocessed.smi:3268-1

> <Gold.Version>
5.8.1

> <Gold.Id.Protein>
6NUR|6NUR_protein|mol2

> <Gold.PLP.Fitness>
41.7751

> <Gold.PLP.PLP>
-26.8022

> <Gold.PLP.part.hbond>
-2.9587

> <Gold.PLP.part.metal>
0.0000

> <Gold.PLP.part.buried>
-4.4770

> <Gold.PLP.part.nonpolar>
-20.8094

> <Gold.PLP.part.repulsive>
0.3706

> <Gold.PLP.ligand.clash>
0.0000

> <Gold.PLP.ligand.torsion>
0.4163

> <Gold.PLP.Chemscore.Hbond>
3.2122

> <Gold.PLP.Chemscore.CHOScore>
2.0000

> <Gold.PLP.Chemscore.Metal>
0.0000

> <Gold.Chemscore.Hbonds>
donor molecule, donor type, donor heavy atom, donor atom, acceptor molecule, acceptor atom, score
      L1  H     5    23       P1  7948  1.00
      L1  H     8    40       P1 10175  2.00
      P1  H 10785 10796       L1    16  0.07
      L1  C    15    38       P1 10747  1.00
      L1  C    17    39       P1 10186  1.00

> <Gold.PLP.Chemscore.Internal.Correction>
0.1691

> <Gold.Rescore>
     Score         DG    S(hbond)    S(metal)    S(lipo)     H(rot)  DE(clash)    DE(int)     intcor
     10.13     -12.11       2.60        0.00      38.78       2.57       0.06       1.92       ----

> <Gold.Chemscore.Fitness>
10.1349

> <Gold.Chemscore.DG>
-12.1150

> <Gold.Chemscore.ZeroCoef>
-5.4800

> <Gold.Chemscore.Hbond>
2.5970

> <Gold.Chemscore.Metal>
0.0000

> <Gold.Chemscore.Lipo>
38.7825

> <Gold.Chemscore.Internal_Hbond>
0.0000

> <Gold.Chemscore.DEClash>
0.0603

> <Gold.Chemscore.DEInternal>
1.9197

> <Gold.Chemscore.Rot>
2.5690

> <Gold.Chemscore.Internal.Correction>
   9.000000E+99

> <Gold.Chemscore.Hbonds>
donor molecule, donor type, donor heavy atom, donor atom, acceptor molecule, acceptor atom, score
      L1  H     5    23       P1  7948  1.00
      L1  H     8    40       P1 10175  0.98
      P1  H 10785 10796       L1    16  0.03

> <Gold.Chemscore.Hbond.Weighted>
-8.6740

> <Gold.Chemscore.Metal.Weighted>
-0.0000

> <Gold.Chemscore.Lipo.Weighted>
-4.5376

> <Gold.Chemscore.Internal_Hbond.Weighted>
0.0000

> <Gold.Chemscore.DEClash.Weighted>
0.0603

> <Gold.Chemscore.DEInternal.Weighted>
1.9197

> <Gold.Chemscore.Rot.Weighted>
6.5766

> <Gold.Chemscore.Internal.Correction.Weighted>
   9.000000E+99

> <Gold.Protein.RotatedTorsions>
[ 6907 6896 6895 6894 ] final -129.98 input  -60.11 | X-H torsion
[ 7974 7965 7964 7962 ] final  -37.57 input  175.53 | X-H torsion
[ 8008 7997 7996 7995 ] final  -80.60 input   59.86 | X-H torsion
[ 10167 10162 10161 10158 ] final  157.81 input  -65.29 | X-H torsion
[ 10718 10713 10712 10709 ] final  -22.59 input   66.30 | X-H torsion
[ 10763 10752 10751 10750 ] final  142.47 input  -60.55 | X-H torsion
[ 11005 11000 10999 10996 ] final   -1.54 input  -57.11 | X-H torsion

> <Gold.Protein.ActiveResidues>
 VAL166  LYS551  ARG553  GLY616  TRP617  ASP618  TYR619  PRO620  LYS621  CYS622 
 ASP623  PHE694  ASN695  SER759  ASP760  ASP761  ALA762  ILE779  LEU786  VAL792 
 PHE793  MET794  SER795  GLU796  ALA797  LYS798  CYS799  TRP800  GLU811  SER814 

> <Gold.Protein.RotatedAtoms>
  150.9347  133.6726  159.2803 H   0  0  0  0  0  0  0  0  0  0  0  0  # atno 6907 bound_to 6896
  151.4136  135.0987  159.9602 H   0  0  0  0  0  0  0  0  0  0  0  0  # atno 6908 bound_to 6896
  152.5042  133.8814  159.7403 H   0  0  0  0  0  0  0  0  0  0  0  0  # atno 6909 bound_to 6896
  146.0563  140.6412  142.9018 H   0  0  0  0  0  0  0  0  0  0  0  0  # atno 7974 bound_to 7965
  154.5899  140.0660  156.9224 H   0  0  0  0  0  0  0  0  0  0  0  0  # atno 8008 bound_to 7997
  155.2313  140.3337  155.4285 H   0  0  0  0  0  0  0  0  0  0  0  0  # atno 8009 bound_to 7997
  156.2249  140.1815  156.7373 H   0  0  0  0  0  0  0  0  0  0  0  0  # atno 8010 bound_to 7997
  139.4824  144.4883  151.8346 H   0  0  0  0  0  0  0  0  0  0  0  0  # atno 10167 bound_to 10162
  156.5025  130.4591  149.6693 H   0  0  0  0  0  0  0  0  0  0  0  0  # atno 10718 bound_to 10713
  153.9564  135.2964  155.3436 H   0  0  0  0  0  0  0  0  0  0  0  0  # atno 10763 bound_to 10752
  154.7398  135.5030  153.9107 H   0  0  0  0  0  0  0  0  0  0  0  0  # atno 10764 bound_to 10752
  153.0968  135.6723  153.9857 H   0  0  0  0  0  0  0  0  0  0  0  0  # atno 10765 bound_to 10752
  140.6485  133.9426  155.8366 H   0  0  0  0  0  0  0  0  0  0  0  0  # atno 11005 bound_to 11000
  144.7150  140.4176  143.7051 LP  0  0  0  0  0  0  0  0  0  0  0  0  # atno 17320 bound_to 7965
  145.6638  139.1586  143.2793 LP  0  0  0  0  0  0  0  0  0  0  0  0  # atno 17321 bound_to 7965
  140.4364  144.2045  150.5889 LP  0  0  0  0  0  0  0  0  0  0  0  0  # atno 17342 bound_to 10162
  140.4727  143.2407  151.9066 LP  0  0  0  0  0  0  0  0  0  0  0  0  # atno 17343 bound_to 10162
  156.3319  130.7336  151.2267 LP  0  0  0  0  0  0  0  0  0  0  0  0  # atno 17370 bound_to 10713
  157.7461  131.0427  150.4710 LP  0  0  0  0  0  0  0  0  0  0  0  0  # atno 17371 bound_to 10713
  141.0554  134.0424  157.3729 LP  0  0  0  0  0  0  0  0  0  0  0  0  # atno 17394 bound_to 11000
  139.9054  135.0178  156.7462 LP  0  0  0  0  0  0  0  0  0  0  0  0  # atno 17395 bound_to 11000

$$$$
