AV-unprocessed.smi:2235|AV-procd|sdf|9044|dock2
  -GOLD-   2272012253D 1   1.00000     0.00000
 Structure written by MMmdl.
 36 37  0  0  0  0  0  0  0  0  1 V2000
  149.5528  141.2221  157.7627 O   0  0  0  0  0  0  0  0  0  0  0  0
  150.6049  141.7016  157.3403 C   0  0  0  0  0  0  0  0  0  0  0  0
  151.1671  141.2452  155.9936 C   0  0  0  0  0  0  0  0  0  0  0  0
  150.1492  140.5816  155.1990 N   0  0  0  0  0  0  0  0  0  0  0  0
  148.9312  141.0753  154.7812 C   0  0  0  0  0  0  0  0  0  0  0  0
  148.3138  140.0924  154.0603 C   0  0  0  0  0  0  0  0  0  0  0  0
  146.9700  140.1222  153.3863 C   0  0  0  0  0  0  0  0  0  0  0  0
  146.6833  138.8134  152.6380 C   0  0  0  0  0  0  0  0  0  0  0  0
  147.4124  138.7810  151.4299 O   0  0  0  0  0  0  0  0  0  0  0  0
  149.2501  139.0202  154.0946 C   0  0  0  0  0  0  0  0  0  0  0  0
  150.3457  139.3145  154.7754 N   0  0  0  0  0  0  0  0  0  0  0  0
  151.3167  142.6256  158.0038 N   0  0  0  0  0  0  0  0  0  0  0  0
  150.9548  143.1922  159.2999 C   0  0  0  0  0  0  0  0  0  0  0  0
  150.6605  144.6972  159.1682 C   0  0  0  0  0  0  0  0  0  0  0  0
  151.8500  145.4134  159.8076 C   0  0  0  0  0  0  0  0  0  0  0  0
  152.3039  144.4648  160.9123 C   0  0  0  0  0  0  0  0  0  0  0  0
  152.1068  143.0682  160.3196 C   0  0  0  0  0  0  0  0  0  0  0  0
  151.5654  142.0994  155.4434 H   0  0  0  0  0  0  0  0  0  0  0  0
  151.9946  140.5520  156.1509 H   0  0  0  0  0  0  0  0  0  0  0  0
  148.6087  142.0760  155.0290 H   0  0  0  0  0  0  0  0  0  0  0  0
  146.1816  140.2985  154.1190 H   0  0  0  0  0  0  0  0  0  0  0  0
  146.9146  140.9560  152.6850 H   0  0  0  0  0  0  0  0  0  0  0  0
  146.9647  137.9523  153.2450 H   0  0  0  0  0  0  0  0  0  0  0  0
  145.6202  138.7220  152.4131 H   0  0  0  0  0  0  0  0  0  0  0  0
  148.0398  139.4876  151.4384 H   0  0  0  0  0  0  0  0  0  0  0  0
  149.1653  138.0410  153.6468 H   0  0  0  0  0  0  0  0  0  0  0  0
  152.1673  142.9644  157.5774 H   0  0  0  0  0  0  0  0  0  0  0  0
  150.0609  142.6909  159.6760 H   0  0  0  0  0  0  0  0  0  0  0  0
  150.4904  145.0188  158.1398 H   0  0  0  0  0  0  0  0  0  0  0  0
  149.7568  144.9360  159.7307 H   0  0  0  0  0  0  0  0  0  0  0  0
  152.6478  145.5311  159.0728 H   0  0  0  0  0  0  0  0  0  0  0  0
  151.5918  146.4041  160.1828 H   0  0  0  0  0  0  0  0  0  0  0  0
  153.3320  144.6458  161.2264 H   0  0  0  0  0  0  0  0  0  0  0  0
  151.6620  144.5869  161.7859 H   0  0  0  0  0  0  0  0  0  0  0  0
  151.8933  142.3270  161.0903 H   0  0  0  0  0  0  0  0  0  0  0  0
  153.0291  142.7591  159.8249 H   0  0  0  0  0  0  0  0  0  0  0  0
  1  2  2  0  0  0  0
  2  3  1  0  0  0  0
  2 12  1  0  0  0  0
  3  4  1  0  0  0  0
  3 18  1  0  0  0  0
  3 19  1  0  0  0  0
  4 11  1  0  0  0  0
  4  5  1  0  0  0  0
  5  6  2  0  0  0  0
  5 20  1  0  0  0  0
  6  7  1  0  0  0  0
  6 10  1  0  0  0  0
  7  8  1  0  0  0  0
  7 21  1  0  0  0  0
  7 22  1  0  0  0  0
  8  9  1  0  0  0  0
  8 23  1  0  0  0  0
  8 24  1  0  0  0  0
  9 25  1  0  0  0  0
 10 11  2  0  0  0  0
 10 26  1  0  0  0  0
 12 13  1  0  0  0  0
 12 27  1  0  0  0  0
 13 17  1  0  0  0  0
 13 14  1  0  0  0  0
 13 28  1  0  0  0  0
 14 15  1  0  0  0  0
 14 29  1  0  0  0  0
 14 30  1  0  0  0  0
 15 16  1  0  0  0  0
 15 31  1  0  0  0  0
 15 32  1  0  0  0  0
 16 17  1  0  0  0  0
 16 33  1  0  0  0  0
 16 34  1  0  0  0  0
 17 35  1  0  0  0  0
 17 36  1  0  0  0  0
M  END
> <s_m_source_file>
AV-unprocessed.smi

> <i_m_source_file_index>
2235

> <i_lp_mmshare_version>
43012

> <i_f3d_flags>
0

> <s_epik_input>
W0NIMl0xW0NIMl1bQ0gyXVtDSDJdW0NIXTFbTkhdQyg9TylbQ0gyXW4yW2NIXWMoW2NIXW4yKVtDSDJdW0NIMl1bT0hd

> <s_epik_cmdline>
J2VwaWtfcHl0aG9uJywgJy1waCcsICc3LjAnLCAnLXRuJywgJzgnLCAnLW1hJywgJzIwMCcsICctbWV0YWxfYmluZGluZycsICctaW1hZScsICc8aW5maWxlLm1hZT4nLCAnLW9tYWUnLCAnPG91dGZpbGUubWFlPic=

> <r_lp_tautomer_probability>
1

> <r_epik_Ionization_Penalty>
3.35381e-05

> <r_epik_Ionization_Penalty_Charging>
0

> <r_epik_Ionization_Penalty_Neutral>
3.35381e-05

> <r_epik_State_Penalty>
-0

> <r_epik_Charging_Adjusted_Penalty>
0

> <i_epik_Tot_Q>
0

> <i_epik_Tot_abs_Q>
0

> <r_epik_Metal_State_Penalty>
-0

> <b_epik_Metal_Only>
0

> <s_lp_Force_Field>
OPLS_2005

> <r_lp_Energy>
18.0157

> <b_lp_Chiralities_Consistent>
1

> <s_lp_Variant>
AV-unprocessed.smi:2235-1

> <Gold.Version>
5.8.1

> <Gold.Id.Protein>
6NUR|6NUR_protein|mol2

> <Gold.PLP.Fitness>
46.7517

> <Gold.PLP.PLP>
-37.8926

> <Gold.PLP.part.hbond>
-2.9611

> <Gold.PLP.part.metal>
0.0000

> <Gold.PLP.part.buried>
-2.8321

> <Gold.PLP.part.nonpolar>
-31.2094

> <Gold.PLP.part.repulsive>
0.1823

> <Gold.PLP.ligand.clash>
0.0000

> <Gold.PLP.ligand.torsion>
0.3455

> <Gold.PLP.Chemscore.Hbond>
1.6720

> <Gold.PLP.Chemscore.CHOScore>
1.4972

> <Gold.PLP.Chemscore.Metal>
0.0000

> <Gold.Chemscore.Hbonds>
donor molecule, donor type, donor heavy atom, donor atom, acceptor molecule, acceptor atom, score
      L1  H     9    25       P1  7957  0.98
      P1  H  7954  7966       L1     9  0.70
      L1  C     5    20       P1  8028  0.53
      L1  C    10    26       P1  7948  1.00

> <Gold.PLP.Chemscore.Internal.Correction>
0.0423

> <Gold.Rescore>
     Score         DG    S(hbond)    S(metal)    S(lipo)     H(rot)  DE(clash)    DE(int)     intcor
     13.08     -13.67       0.98        0.00      95.83       2.46       0.27       0.32       ----

> <Gold.Chemscore.Fitness>
13.0774

> <Gold.Chemscore.DG>
-13.6709

> <Gold.Chemscore.ZeroCoef>
-5.4800

> <Gold.Chemscore.Hbond>
0.9797

> <Gold.Chemscore.Metal>
0.0000

> <Gold.Chemscore.Lipo>
95.8251

> <Gold.Chemscore.Internal_Hbond>
0.0000

> <Gold.Chemscore.DEClash>
0.2713

> <Gold.Chemscore.DEInternal>
0.3221

> <Gold.Chemscore.Rot>
2.4581

> <Gold.Chemscore.Internal.Correction>
   9.000000E+99

> <Gold.Chemscore.Hbonds>
donor molecule, donor type, donor heavy atom, donor atom, acceptor molecule, acceptor atom, score
      L1  H     9    25       P1  7957  0.90
      P1  H  7954  7966       L1     9  0.08

> <Gold.Chemscore.Hbond.Weighted>
-3.2722

> <Gold.Chemscore.Metal.Weighted>
-0.0000

> <Gold.Chemscore.Lipo.Weighted>
-11.2115

> <Gold.Chemscore.Internal_Hbond.Weighted>
0.0000

> <Gold.Chemscore.DEClash.Weighted>
0.2713

> <Gold.Chemscore.DEInternal.Weighted>
0.3221

> <Gold.Chemscore.Rot.Weighted>
6.2928

> <Gold.Chemscore.Internal.Correction.Weighted>
   9.000000E+99

> <Gold.Protein.RotatedTorsions>
[ 6907 6896 6895 6894 ] final  -14.94 input  -60.11 | X-H torsion
[ 7974 7965 7964 7962 ] final  -82.91 input  175.53 | X-H torsion
[ 8008 7997 7996 7995 ] final  -72.90 input   59.86 | X-H torsion
[ 10167 10162 10161 10158 ] final   31.71 input  -65.29 | X-H torsion
[ 10718 10713 10712 10709 ] final  -69.18 input   66.30 | X-H torsion
[ 10763 10752 10751 10750 ] final -130.93 input  -60.55 | X-H torsion
[ 11005 11000 10999 10996 ] final  149.24 input  -57.11 | X-H torsion

> <Gold.Protein.ActiveResidues>
 VAL166  LYS551  ARG553  GLY616  TRP617  ASP618  TYR619  PRO620  LYS621  CYS622 
 ASP623  PHE694  ASN695  SER759  ASP760  ASP761  ALA762  ILE779  LEU786  VAL792 
 PHE793  MET794  SER795  GLU796  ALA797  LYS798  CYS799  TRP800  GLU811  SER814 

> <Gold.Protein.RotatedAtoms>
  151.3316  135.0843  159.9340 H   0  0  0  0  0  0  0  0  0  0  0  0  # atno 6907 bound_to 6896
  152.5233  133.9537  159.7694 H   0  0  0  0  0  0  0  0  0  0  0  0  # atno 6908 bound_to 6896
  150.9877  133.6128  159.2743 H   0  0  0  0  0  0  0  0  0  0  0  0  # atno 6909 bound_to 6896
  145.5271  140.9525  143.1623 H   0  0  0  0  0  0  0  0  0  0  0  0  # atno 7974 bound_to 7965
  154.5203  140.0789  156.8160 H   0  0  0  0  0  0  0  0  0  0  0  0  # atno 8008 bound_to 7997
  155.3590  140.3417  155.4222 H   0  0  0  0  0  0  0  0  0  0  0  0  # atno 8009 bound_to 7997
  156.1674  140.1608  156.8494 H   0  0  0  0  0  0  0  0  0  0  0  0  # atno 8010 bound_to 7997
  140.4564  144.0972  150.6203 H   0  0  0  0  0  0  0  0  0  0  0  0  # atno 10167 bound_to 10162
  156.0468  130.4308  150.2109 H   0  0  0  0  0  0  0  0  0  0  0  0  # atno 10718 bound_to 10713
  154.8753  135.3846  154.4164 H   0  0  0  0  0  0  0  0  0  0  0  0  # atno 10763 bound_to 10752
  153.4872  135.7030  153.5909 H   0  0  0  0  0  0  0  0  0  0  0  0  # atno 10764 bound_to 10752
  153.4299  135.3881  155.2131 H   0  0  0  0  0  0  0  0  0  0  0  0  # atno 10765 bound_to 10752
  140.1028  134.8973  157.1821 H   0  0  0  0  0  0  0  0  0  0  0  0  # atno 11005 bound_to 11000
  144.7645  139.6877  143.7220 LP  0  0  0  0  0  0  0  0  0  0  0  0  # atno 17320 bound_to 7965
  146.2069  139.5398  142.9707 LP  0  0  0  0  0  0  0  0  0  0  0  0  # atno 17321 bound_to 7965
  140.4146  143.2640  151.9791 LP  0  0  0  0  0  0  0  0  0  0  0  0  # atno 17342 bound_to 10162
  139.4801  144.5885  151.7812 LP  0  0  0  0  0  0  0  0  0  0  0  0  # atno 17343 bound_to 10162
  157.0198  130.9976  151.3343 LP  0  0  0  0  0  0  0  0  0  0  0  0  # atno 17370 bound_to 10713
  157.5352  130.8084  149.7964 LP  0  0  0  0  0  0  0  0  0  0  0  0  # atno 17371 bound_to 10713
  140.3197  134.2931  155.7249 LP  0  0  0  0  0  0  0  0  0  0  0  0  # atno 17394 bound_to 11000
  141.2110  133.7702  156.9893 LP  0  0  0  0  0  0  0  0  0  0  0  0  # atno 17395 bound_to 11000

$$$$
