AV-unprocessed.smi:3019|AV-procd|sdf|11495|dock3
  -GOLD-   2272016433D 1   1.00000     0.00000
 Structure written by MMmdl.
 29 30  0  0  0  0  0  0  0  0  2 V2000
  152.1468  143.6578  161.5968 C   0  0  0  0  0  0  0  0  0  0  0  0
  152.4743  143.8358  160.1084 C   0  0  0  0  0  0  0  0  0  0  0  0
  151.8760  145.1157  159.5081 C   0  0  0  0  0  0  0  0  0  0  0  0
  152.0924  142.6092  159.3028 C   0  0  0  0  0  0  0  0  0  0  0  0
  151.5124  141.4975  159.7895 N   0  5  0  0  0  0  0  0  0  0  0  0
  151.3140  140.6338  158.8146 N   0  0  0  0  0  0  0  0  0  0  0  0
  151.7737  141.2336  157.7057 C   0  0  0  0  0  0  0  0  0  0  0  0
  151.7929  140.5949  156.3309 C   0  0  2  0  0  0  0  0  0  0  0  0
  150.3595  140.3573  155.8132 C   0  0  0  0  0  0  0  0  0  0  0  0
  150.3832  139.7286  154.4925 N   0  0  0  0  0  0  0  0  0  0  0  0
  151.1708  138.4982  154.5075 C   0  0  0  0  0  0  0  0  0  0  0  0
  152.5840  138.7775  155.0468 C   0  0  0  0  0  0  0  0  0  0  0  0
  152.4904  139.3503  156.3461 O   0  0  0  0  0  0  0  0  0  0  0  0
  152.2637  142.4484  157.9937 N   0  0  0  0  0  0  0  0  0  0  0  0
  152.6455  142.7779  162.0038 H   0  0  0  0  0  0  0  0  0  0  0  0
  151.0747  143.5346  161.7528 H   0  0  0  0  0  0  0  0  0  0  0  0
  152.4717  144.5213  162.1774 H   0  0  0  0  0  0  0  0  0  0  0  0
  153.5585  143.9276  160.0310 H   0  0  0  0  0  0  0  0  0  0  0  0
  152.1849  145.2423  158.4701 H   0  0  0  0  0  0  0  0  0  0  0  0
  152.1993  145.9980  160.0605 H   0  0  0  0  0  0  0  0  0  0  0  0
  150.7862  145.0891  159.5302 H   0  0  0  0  0  0  0  0  0  0  0  0
  152.3160  141.2823  155.6632 H   0  0  0  0  0  0  0  0  0  0  0  0
  149.8182  139.7220  156.5156 H   0  0  0  0  0  0  0  0  0  0  0  0
  149.8174  141.3021  155.7641 H   0  0  0  0  0  0  0  0  0  0  0  0
  150.6807  137.7521  155.1342 H   0  0  0  0  0  0  0  0  0  0  0  0
  151.2283  138.0773  153.5036 H   0  0  0  0  0  0  0  0  0  0  0  0
  153.1505  137.8486  155.1115 H   0  0  0  0  0  0  0  0  0  0  0  0
  153.1355  139.4407  154.3784 H   0  0  0  0  0  0  0  0  0  0  0  0
  149.4336  139.5205  154.2007 H   0  0  0  0  0  0  0  0  0  0  0  0
  1  2  1  0  0  0  0
  1 15  1  0  0  0  0
  1 16  1  0  0  0  0
  1 17  1  0  0  0  0
  2  3  1  0  0  0  0
  2  4  1  0  0  0  0
  2 18  1  0  0  0  0
  3 19  1  0  0  0  0
  3 20  1  0  0  0  0
  3 21  1  0  0  0  0
  4 14  2  0  0  0  0
  4  5  1  0  0  0  0
  5  6  1  0  0  0  0
  6  7  2  0  0  0  0
  7  8  1  0  0  0  0
  7 14  1  0  0  0  0
  8 13  1  0  0  0  0
  8  9  1  0  0  0  0
  8 22  1  0  0  0  0
  9 10  1  0  0  0  0
  9 23  1  0  0  0  0
  9 24  1  0  0  0  0
 10 11  1  0  0  0  0
 10 29  1  0  0  0  0
 11 12  1  0  0  0  0
 11 25  1  0  0  0  0
 11 26  1  0  0  0  0
 12 13  1  0  0  0  0
 12 27  1  0  0  0  0
 12 28  1  0  0  0  0
M  CHG  1   5  -1
M  END
> <s_m_source_file>
AV-unprocessed.smi

> <i_m_source_file_index>
3019

> <i_lp_mmshare_version>
43012

> <i_f3d_flags>
0

> <s_epik_input>
W0NIM11bQ0hdKFtDSDNdKWMxbltuSF1jKG4xKVtDQEBIXTJbQ0gyXVtOSF1bQ0gyXVtDSDJdTzI=

> <s_epik_cmdline>
J2VwaWtfcHl0aG9uJywgJy1waCcsICc3LjAnLCAnLXRuJywgJzgnLCAnLW1hJywgJzIwMCcsICctbWV0YWxfYmluZGluZycsICctaW1hZScsICc8aW5maWxlLm1hZT4nLCAnLW9tYWUnLCAnPG91dGZpbGUubWFlPic=

> <r_lp_tautomer_probability>
0.948284

> <r_epik_Ionization_Penalty>
17.5852

> <r_epik_Ionization_Penalty_Charging>
16.0119

> <r_epik_Ionization_Penalty_Neutral>
1.5733

> <r_epik_State_Penalty>
6.64574

> <r_epik_Charging_Adjusted_Penalty>
22.6576

> <i_epik_Tot_Q>
-1

> <i_epik_Tot_abs_Q>
1

> <r_epik_Metal_State_Penalty>
2.89273

> <b_epik_Metal_Only>
1

> <s_lp_Force_Field>
OPLS_2005

> <r_lp_Energy>
9.70462

> <b_lp_Chiralities_Consistent>
1

> <s_lp_Variant>
AV-unprocessed.smi:3019-11

> <Gold.Version>
5.8.1

> <Gold.Id.Protein>
6NUR|6NUR_protein|mol2

> <Gold.PLP.Fitness>
36.0131

> <Gold.PLP.PLP>
-30.6992

> <Gold.PLP.part.hbond>
-2.6636

> <Gold.PLP.part.metal>
0.0000

> <Gold.PLP.part.buried>
-2.8447

> <Gold.PLP.part.nonpolar>
-24.5911

> <Gold.PLP.part.repulsive>
0.0155

> <Gold.PLP.ligand.clash>
0.0000

> <Gold.PLP.ligand.torsion>
0.0788

> <Gold.PLP.Chemscore.Hbond>
1.8000

> <Gold.PLP.Chemscore.CHOScore>
0.0000

> <Gold.PLP.Chemscore.Metal>
0.0000

> <Gold.Chemscore.Hbonds>
donor molecule, donor type, donor heavy atom, donor atom, acceptor molecule, acceptor atom, score
      P1  H  7989  7998       L1    10  0.95
      P1  H  7997  8009       L1    13  0.76

> <Gold.PLP.Chemscore.Internal.Correction>
0.0715

> <Gold.Rescore>
     Score         DG    S(hbond)    S(metal)    S(lipo)     H(rot)  DE(clash)    DE(int)     intcor
     10.85     -10.95       0.32        0.00      64.79       1.24       0.01       0.09       ----

> <Gold.Chemscore.Fitness>
10.8508

> <Gold.Chemscore.DG>
-10.9514

> <Gold.Chemscore.ZeroCoef>
-5.4800

> <Gold.Chemscore.Hbond>
0.3208

> <Gold.Chemscore.Metal>
0.0000

> <Gold.Chemscore.Lipo>
64.7851

> <Gold.Chemscore.Internal_Hbond>
0.0000

> <Gold.Chemscore.DEClash>
0.0098

> <Gold.Chemscore.DEInternal>
0.0908

> <Gold.Chemscore.Rot>
1.2422

> <Gold.Chemscore.Internal.Correction>
   9.000000E+99

> <Gold.Chemscore.Hbonds>
donor molecule, donor type, donor heavy atom, donor atom, acceptor molecule, acceptor atom, score
      P1  H  7989  7998       L1    10  0.08
      P1  H  7997  8009       L1    13  0.03

> <Gold.Chemscore.Hbond.Weighted>
-1.0715

> <Gold.Chemscore.Metal.Weighted>
-0.0000

> <Gold.Chemscore.Lipo.Weighted>
-7.5799

> <Gold.Chemscore.Internal_Hbond.Weighted>
0.0000

> <Gold.Chemscore.DEClash.Weighted>
0.0098

> <Gold.Chemscore.DEInternal.Weighted>
0.0908

> <Gold.Chemscore.Rot.Weighted>
3.1799

> <Gold.Chemscore.Internal.Correction.Weighted>
   9.000000E+99

> <Gold.Protein.RotatedTorsions>
[ 6907 6896 6895 6894 ] final  102.20 input  -60.11 | X-H torsion
[ 7974 7965 7964 7962 ] final   -4.89 input  175.53 | X-H torsion
[ 8008 7997 7996 7995 ] final -168.73 input   59.86 | X-H torsion
[ 10167 10162 10161 10158 ] final  -53.55 input  -65.29 | X-H torsion
[ 10718 10713 10712 10709 ] final   58.08 input   66.30 | X-H torsion
[ 10763 10752 10751 10750 ] final  -69.87 input  -60.55 | X-H torsion
[ 11005 11000 10999 10996 ] final   25.47 input  -57.11 | X-H torsion

> <Gold.Protein.ActiveResidues>
 VAL166  LYS551  ARG553  GLY616  TRP617  ASP618  TYR619  PRO620  LYS621  CYS622 
 ASP623  PHE694  ASN695  SER759  ASP760  ASP761  ALA762  ILE779  LEU786  VAL792 
 PHE793  MET794  SER795  GLU796  ALA797  LYS798  CYS799  TRP800  GLU811  SER814 

> <Gold.Protein.RotatedAtoms>
  152.5330  134.0011  159.7894 H   0  0  0  0  0  0  0  0  0  0  0  0  # atno 6907 bound_to 6896
  151.0229  133.5852  159.2676 H   0  0  0  0  0  0  0  0  0  0  0  0  # atno 6908 bound_to 6896
  151.2885  135.0742  159.9249 H   0  0  0  0  0  0  0  0  0  0  0  0  # atno 6909 bound_to 6896
  146.2364  140.1939  142.8333 H   0  0  0  0  0  0  0  0  0  0  0  0  # atno 7974 bound_to 7965
  155.8953  140.1032  157.1389 H   0  0  0  0  0  0  0  0  0  0  0  0  # atno 8008 bound_to 7997
  154.4019  140.1303  156.4431 H   0  0  0  0  0  0  0  0  0  0  0  0  # atno 8009 bound_to 7997
  155.7486  140.3465  155.5141 H   0  0  0  0  0  0  0  0  0  0  0  0  # atno 8010 bound_to 7997
  140.6478  143.2546  151.4809 H   0  0  0  0  0  0  0  0  0  0  0  0  # atno 10167 bound_to 10162
  157.5567  130.8805  149.9047 H   0  0  0  0  0  0  0  0  0  0  0  0  # atno 10718 bound_to 10713
  154.4096  135.6012  153.5945 H   0  0  0  0  0  0  0  0  0  0  0  0  # atno 10763 bound_to 10752
  152.9790  135.5926  154.4085 H   0  0  0  0  0  0  0  0  0  0  0  0  # atno 10764 bound_to 10752
  154.3896  135.2842  155.2141 H   0  0  0  0  0  0  0  0  0  0  0  0  # atno 10765 bound_to 10752
  140.3475  134.2266  155.7683 H   0  0  0  0  0  0  0  0  0  0  0  0  # atno 11005 bound_to 11000
  144.9836  140.8482  143.5382 LP  0  0  0  0  0  0  0  0  0  0  0  0  # atno 17320 bound_to 7965
  145.1935  139.2288  143.5230 LP  0  0  0  0  0  0  0  0  0  0  0  0  # atno 17321 bound_to 7965
  139.5690  144.1972  152.1809 LP  0  0  0  0  0  0  0  0  0  0  0  0  # atno 17342 bound_to 10162
  140.1263  144.5328  150.6830 LP  0  0  0  0  0  0  0  0  0  0  0  0  # atno 17343 bound_to 10162
  156.0625  130.3697  150.0950 LP  0  0  0  0  0  0  0  0  0  0  0  0  # atno 17370 bound_to 10713
  156.9118  130.9654  151.3562 LP  0  0  0  0  0  0  0  0  0  0  0  0  # atno 17371 bound_to 10713
  141.2021  133.7945  157.0405 LP  0  0  0  0  0  0  0  0  0  0  0  0  # atno 17394 bound_to 11000
  140.0730  134.9691  157.1500 LP  0  0  0  0  0  0  0  0  0  0  0  0  # atno 17395 bound_to 11000

$$$$
