AV-unprocessed.smi:924|AV-procd|sdf|4179|dock1
  -GOLD-   22720 2 83D 1   1.00000     0.00000
 Structure written by MMmdl.
 46 49  0  0  0  0  0  0  0  0  1 V2000
  155.1889  138.9608  159.8258 O   0  0  0  0  0  0  0  0  0  0  0  0
  153.9715  139.0272  160.0031 C   0  0  0  0  0  0  0  0  0  0  0  0
  153.1350  137.7624  160.2432 C   0  0  0  0  0  0  0  0  0  0  0  0
  153.6762  136.9051  161.3083 N   0  0  0  0  0  0  0  0  0  0  0  0
  153.5964  137.3112  162.6328 C   0  0  0  0  0  0  0  0  0  0  0  0
  154.0879  136.5875  163.6661 C   0  0  0  0  0  0  0  0  0  0  0  0
  154.7440  135.3071  163.4246 C   0  0  0  0  0  0  0  0  0  0  0  0
  155.2178  134.5780  164.2933 O   0  0  0  0  0  0  0  0  0  0  0  0
  154.8085  134.9349  162.0792 N   0  0  0  0  0  0  0  0  0  0  0  0
  154.3079  135.6782  161.0089 C   0  0  0  0  0  0  0  0  0  0  0  0
  154.4270  135.2604  159.8576 O   0  0  0  0  0  0  0  0  0  0  0  0
  153.2936  140.1852  160.0150 N   0  0  0  0  0  0  0  0  0  0  0  0
  153.8763  141.5159  159.8562 C   0  0  0  0  0  0  0  0  0  0  0  0
  152.8287  142.6101  159.5274 C   0  0  0  0  0  0  0  0  0  0  0  0
  151.8044  142.1065  158.4735 C   0  0  0  0  0  0  0  0  0  0  0  0
  150.7966  143.2235  158.1257 C   0  0  1  0  0  0  0  0  0  0  0  0
  150.0355  143.6476  159.3994 C   0  0  0  0  0  0  0  0  0  0  0  0
  151.0433  144.1760  160.4419 C   0  0  2  0  0  0  0  0  0  0  0  0
  151.7971  145.3919  159.8657 C   0  0  0  0  0  0  0  0  0  0  0  0
  152.5529  144.9616  158.5918 C   0  0  2  0  0  0  0  0  0  0  0  0
  151.5490  144.4382  157.5440 C   0  0  0  0  0  0  0  0  0  0  0  0
  153.5611  143.8469  158.9430 C   0  0  0  0  0  0  0  0  0  0  0  0
  152.0509  143.0614  160.7950 C   0  0  0  0  0  0  0  0  0  0  0  0
  155.2581  134.0572  161.8630 H   0  0  0  0  0  0  0  0  0  0  0  0
  152.1169  138.0600  160.5003 H   0  0  0  0  0  0  0  0  0  0  0  0
  153.0431  137.2152  159.3033 H   0  0  0  0  0  0  0  0  0  0  0  0
  153.1225  138.2568  162.8565 H   0  0  0  0  0  0  0  0  0  0  0  0
  153.9965  136.9585  164.6766 H   0  0  0  0  0  0  0  0  0  0  0  0
  152.2959  140.1448  160.1648 H   0  0  0  0  0  0  0  0  0  0  0  0
  154.4467  141.7938  160.7442 H   0  0  0  0  0  0  0  0  0  0  0  0
  154.6045  141.4533  159.0468 H   0  0  0  0  0  0  0  0  0  0  0  0
  152.3219  141.7799  157.5705 H   0  0  0  0  0  0  0  0  0  0  0  0
  151.2633  141.2361  158.8462 H   0  0  0  0  0  0  0  0  0  0  0  0
  150.0859  142.8516  157.3870 H   0  0  0  0  0  0  0  0  0  0  0  0
  149.2992  144.4163  159.1617 H   0  0  0  0  0  0  0  0  0  0  0  0
  149.4788  142.8023  159.8062 H   0  0  0  0  0  0  0  0  0  0  0  0
  150.5070  144.4768  161.3426 H   0  0  0  0  0  0  0  0  0  0  0  0
  151.0977  146.1972  159.6373 H   0  0  0  0  0  0  0  0  0  0  0  0
  152.4948  145.7890  160.6040 H   0  0  0  0  0  0  0  0  0  0  0  0
  153.0887  145.8187  158.1827 H   0  0  0  0  0  0  0  0  0  0  0  0
  152.0700  144.1577  156.6276 H   0  0  0  0  0  0  0  0  0  0  0  0
  150.8442  145.2240  157.2696 H   0  0  0  0  0  0  0  0  0  0  0  0
  154.2933  144.2252  159.6581 H   0  0  0  0  0  0  0  0  0  0  0  0
  154.1242  143.5666  158.0517 H   0  0  0  0  0  0  0  0  0  0  0  0
  151.5106  142.2241  161.2369 H   0  0  0  0  0  0  0  0  0  0  0  0
  152.7453  143.4141  161.5587 H   0  0  0  0  0  0  0  0  0  0  0  0
  1  2  2  0  0  0  0
  2  3  1  0  0  0  0
  2 12  1  0  0  0  0
  3  4  1  0  0  0  0
  3 25  1  0  0  0  0
  3 26  1  0  0  0  0
  4 10  1  0  0  0  0
  4  5  1  0  0  0  0
  5  6  2  0  0  0  0
  5 27  1  0  0  0  0
  6  7  1  0  0  0  0
  6 28  1  0  0  0  0
  7  8  2  0  0  0  0
  7  9  1  0  0  0  0
  9 24  1  0  0  0  0
  9 10  1  0  0  0  0
 10 11  2  0  0  0  0
 12 13  1  0  0  0  0
 12 29  1  0  0  0  0
 13 14  1  0  0  0  0
 13 30  1  0  0  0  0
 13 31  1  0  0  0  0
 14 22  1  0  0  0  0
 14 23  1  0  0  0  0
 14 15  1  0  0  0  0
 15 16  1  0  0  0  0
 15 32  1  0  0  0  0
 15 33  1  0  0  0  0
 16 21  1  0  0  0  0
 16 17  1  0  0  0  0
 16 34  1  0  0  0  0
 17 18  1  0  0  0  0
 17 35  1  0  0  0  0
 17 36  1  0  0  0  0
 18 19  1  0  0  0  0
 18 23  1  0  0  0  0
 18 37  1  0  0  0  0
 19 20  1  0  0  0  0
 19 38  1  0  0  0  0
 19 39  1  0  0  0  0
 20 21  1  0  0  0  0
 20 22  1  0  0  0  0
 20 40  1  0  0  0  0
 21 41  1  0  0  0  0
 21 42  1  0  0  0  0
 22 43  1  0  0  0  0
 22 44  1  0  0  0  0
 23 45  1  0  0  0  0
 23 46  1  0  0  0  0
M  END
> <s_m_source_file>
AV-unprocessed.smi

> <i_m_source_file_index>
924

> <i_lp_mmshare_version>
43012

> <i_f3d_flags>
0

> <s_epik_input>
Tz1jMVtuSF1jKD1PKVtjSF1bY0hdbjFbQ0gyXUMoPU8pW05IXVtDSDJdQzIzW0NIMl1bQ0BIXTRbQ0gyXVtDQEBIXShbQ0gyXTMpW0NIMl1bQ0BIXShbQ0gyXTQpW0NIMl0y

> <s_epik_cmdline>
J2VwaWtfcHl0aG9uJywgJy1waCcsICc3LjAnLCAnLXRuJywgJzgnLCAnLW1hJywgJzIwMCcsICctbWV0YWxfYmluZGluZycsICctaW1hZScsICc8aW5maWxlLm1hZT4nLCAnLW9tYWUnLCAnPG91dGZpbGUubWFlPic=

> <r_lp_tautomer_probability>
0.999537

> <r_epik_Ionization_Penalty>
0.00304541

> <r_epik_Ionization_Penalty_Charging>
0.00304539

> <r_epik_Ionization_Penalty_Neutral>
1.85865e-08

> <r_epik_State_Penalty>
0.00214042

> <r_epik_Charging_Adjusted_Penalty>
0.00518582

> <i_epik_Tot_Q>
0

> <i_epik_Tot_abs_Q>
0

> <r_epik_Metal_State_Penalty>
0.361861

> <b_epik_Metal_Only>
0

> <s_lp_Force_Field>
OPLS_2005

> <r_lp_Energy>
33.277

> <b_lp_Chiralities_Consistent>
1

> <s_lp_Variant>
AV-unprocessed.smi:924-1

> <Gold.Version>
5.8.1

> <Gold.Id.Protein>
6NUR|6NUR_protein|mol2

> <Gold.PLP.Fitness>
49.2914

> <Gold.PLP.PLP>
-47.3264

> <Gold.PLP.part.hbond>
-1.0000

> <Gold.PLP.part.metal>
0.0000

> <Gold.PLP.part.buried>
-5.4985

> <Gold.PLP.part.nonpolar>
-41.2891

> <Gold.PLP.part.repulsive>
0.2216

> <Gold.PLP.ligand.clash>
0.0000

> <Gold.PLP.ligand.torsion>
0.5249

> <Gold.PLP.Chemscore.Hbond>
1.0000

> <Gold.PLP.Chemscore.CHOScore>
0.0000

> <Gold.PLP.Chemscore.Metal>
0.0000

> <Gold.Chemscore.Hbonds>
donor molecule, donor type, donor heavy atom, donor atom, acceptor molecule, acceptor atom, score
      P1  H  6896  6907       L1    11  0.45

> <Gold.PLP.Chemscore.Internal.Correction>
0.0149

> <Gold.Rescore>
     Score         DG    S(hbond)    S(metal)    S(lipo)     H(rot)  DE(clash)    DE(int)     intcor
     18.29     -20.09       0.97        0.00     139.62       1.94       1.52       0.27       ----

> <Gold.Chemscore.Fitness>
18.2933

> <Gold.Chemscore.DG>
-20.0866

> <Gold.Chemscore.ZeroCoef>
-5.4800

> <Gold.Chemscore.Hbond>
0.9705

> <Gold.Chemscore.Metal>
0.0000

> <Gold.Chemscore.Lipo>
139.6175

> <Gold.Chemscore.Internal_Hbond>
0.0000

> <Gold.Chemscore.DEClash>
1.5227

> <Gold.Chemscore.DEInternal>
0.2706

> <Gold.Chemscore.Rot>
1.9415

> <Gold.Chemscore.Internal.Correction>
   9.000000E+99

> <Gold.Chemscore.Hbonds>
donor molecule, donor type, donor heavy atom, donor atom, acceptor molecule, acceptor atom, score
      P1  H  6896  6907       L1    11  0.01

> <Gold.Chemscore.Hbond.Weighted>
-3.2415

> <Gold.Chemscore.Metal.Weighted>
-0.0000

> <Gold.Chemscore.Lipo.Weighted>
-16.3352

> <Gold.Chemscore.Internal_Hbond.Weighted>
0.0000

> <Gold.Chemscore.DEClash.Weighted>
1.5227

> <Gold.Chemscore.DEInternal.Weighted>
0.2706

> <Gold.Chemscore.Rot.Weighted>
4.9701

> <Gold.Chemscore.Internal.Correction.Weighted>
   9.000000E+99

> <Gold.Protein.RotatedTorsions>
[ 6907 6896 6895 6894 ] final   68.41 input  -60.11 | X-H torsion
[ 7974 7965 7964 7962 ] final   51.79 input  175.53 | X-H torsion
[ 8008 7997 7996 7995 ] final   27.13 input   59.86 | X-H torsion
[ 10167 10162 10161 10158 ] final  -46.34 input  -65.29 | X-H torsion
[ 10718 10713 10712 10709 ] final  -57.85 input   66.30 | X-H torsion
[ 10763 10752 10751 10750 ] final -137.72 input  -60.55 | X-H torsion
[ 11005 11000 10999 10996 ] final  106.96 input  -57.11 | X-H torsion

> <Gold.Protein.ActiveResidues>
 VAL166  LYS551  ARG553  GLY616  TRP617  ASP618  TYR619  PRO620  LYS621  CYS622 
 ASP623  PHE694  ASN695  SER759  ASP760  ASP761  ALA762  ILE779  LEU786  VAL792 
 PHE793  MET794  SER795  GLU796  ALA797  LYS798  CYS799  TRP800  GLU811  SER814 

> <Gold.Protein.RotatedAtoms>
  152.4619  134.5165  159.9769 H   0  0  0  0  0  0  0  0  0  0  0  0  # atno 6907 bound_to 6896
  151.5212  133.3460  159.2909 H   0  0  0  0  0  0  0  0  0  0  0  0  # atno 6908 bound_to 6896
  150.8585  134.7960  159.7127 H   0  0  0  0  0  0  0  0  0  0  0  0  # atno 6909 bound_to 6896
  145.9878  139.4308  143.0092 H   0  0  0  0  0  0  0  0  0  0  0  0  # atno 7974 bound_to 7965
  155.0381  140.3166  155.4734 H   0  0  0  0  0  0  0  0  0  0  0  0  # atno 8008 bound_to 7997
  156.2860  140.2168  156.5447 H   0  0  0  0  0  0  0  0  0  0  0  0  # atno 8009 bound_to 7997
  154.7313  140.0481  157.0717 H   0  0  0  0  0  0  0  0  0  0  0  0  # atno 8010 bound_to 7997
  140.6821  143.2836  151.3768 H   0  0  0  0  0  0  0  0  0  0  0  0  # atno 10167 bound_to 10162
  156.1179  130.4168  150.0496 H   0  0  0  0  0  0  0  0  0  0  0  0  # atno 10718 bound_to 10713
  154.8655  135.3634  154.5268 H   0  0  0  0  0  0  0  0  0  0  0  0  # atno 10763 bound_to 10752
  153.5896  135.7016  153.5434 H   0  0  0  0  0  0  0  0  0  0  0  0  # atno 10764 bound_to 10752
  153.3385  135.4104  155.1515 H   0  0  0  0  0  0  0  0  0  0  0  0  # atno 10765 bound_to 10752
  139.8821  134.9386  156.5746 H   0  0  0  0  0  0  0  0  0  0  0  0  # atno 11005 bound_to 11000
  145.7674  140.9910  143.1167 LP  0  0  0  0  0  0  0  0  0  0  0  0  # atno 17320 bound_to 7965
  144.6880  139.9405  143.7475 LP  0  0  0  0  0  0  0  0  0  0  0  0  # atno 17321 bound_to 7965
  139.6152  144.1018  152.2338 LP  0  0  0  0  0  0  0  0  0  0  0  0  # atno 17342 bound_to 10162
  140.0444  144.5982  150.7385 LP  0  0  0  0  0  0  0  0  0  0  0  0  # atno 17343 bound_to 10162
  156.8442  130.9436  151.3630 LP  0  0  0  0  0  0  0  0  0  0  0  0  # atno 17370 bound_to 10713
  157.6363  130.8769  149.9365 LP  0  0  0  0  0  0  0  0  0  0  0  0  # atno 17371 bound_to 10713
  140.8072  133.8458  155.8778 LP  0  0  0  0  0  0  0  0  0  0  0  0  # atno 17394 bound_to 11000
  140.9539  134.1743  157.4707 LP  0  0  0  0  0  0  0  0  0  0  0  0  # atno 17395 bound_to 11000

$$$$
