AV-unprocessed.smi:1104|AV-procd|sdf|4775|dock1
  -GOLD-   22720 3313D 1   1.00000     0.00000
 Structure written by MMmdl.
 43 44  0  0  0  0  0  0  0  0  1 V2000
  145.2083  135.2274  150.3847 C   0  0  0  0  0  0  0  0  0  0  0  0
  144.8631  135.4303  151.7938 N   0  0  0  0  0  0  0  0  0  0  0  0
  144.1680  134.3222  152.4543 C   0  0  0  0  0  0  0  0  0  0  0  0
  145.1777  136.5874  152.4212 C   0  0  0  0  0  0  0  0  0  0  0  0
  144.9238  136.7748  153.6133 O   0  0  0  0  0  0  0  0  0  0  0  0
  145.8931  137.6926  151.6194 C   0  0  0  0  0  0  0  0  0  0  0  0
  147.2341  137.9894  152.1201 N   0  0  0  0  0  0  0  0  0  0  0  0
  147.5088  138.7910  153.1594 C   0  0  0  0  0  0  0  0  0  0  0  0
  146.6458  139.3902  153.8010 O   0  0  0  0  0  0  0  0  0  0  0  0
  148.8286  138.8268  153.4099 N   0  0  0  0  0  0  0  0  0  0  0  0
  149.5181  139.5765  154.4003 C   0  0  0  0  0  0  0  0  0  0  0  0
  150.8695  139.3672  154.7598 C   0  0  0  0  0  0  0  0  0  0  0  0
  151.4349  140.1598  155.7771 C   0  0  0  0  0  0  0  0  0  0  0  0
  150.6380  141.1375  156.4176 C   0  0  0  0  0  0  0  0  0  0  0  0
  151.1862  141.9387  157.4425 N   0  0  0  0  0  0  0  0  0  0  0  0
  151.7153  141.2124  158.5944 C   0  0  0  0  0  0  0  0  0  0  0  0
  152.5452  142.1523  159.4863 C   0  0  0  0  0  0  0  0  0  0  0  0
  151.7634  143.2836  159.8555 O   0  0  0  0  0  0  0  0  0  0  0  0
  151.3551  144.0381  158.7194 C   0  0  0  0  0  0  0  0  0  0  0  0
  150.4784  143.1647  157.8062 C   0  0  0  0  0  0  0  0  0  0  0  0
  149.3414  141.3315  156.0729 N   0  0  0  0  0  0  0  0  0  0  0  0
  148.8025  140.5677  155.0998 C   0  0  0  0  0  0  0  0  0  0  0  0
  146.2511  135.4869  150.1956 H   0  0  0  0  0  0  0  0  0  0  0  0
  144.5819  135.8539  149.7488 H   0  0  0  0  0  0  0  0  0  0  0  0
  145.0777  134.1933  150.0658 H   0  0  0  0  0  0  0  0  0  0  0  0
  143.2975  134.6719  153.0106 H   0  0  0  0  0  0  0  0  0  0  0  0
  144.8392  133.8134  153.1474 H   0  0  0  0  0  0  0  0  0  0  0  0
  143.8038  133.5793  151.7442 H   0  0  0  0  0  0  0  0  0  0  0  0
  145.9862  137.3679  150.5829 H   0  0  0  0  0  0  0  0  0  0  0  0
  145.2981  138.6071  151.6133 H   0  0  0  0  0  0  0  0  0  0  0  0
  148.0037  137.5283  151.6575 H   0  0  0  0  0  0  0  0  0  0  0  0
  149.4031  138.2055  152.8593 H   0  0  0  0  0  0  0  0  0  0  0  0
  151.4777  138.6108  154.2888 H   0  0  0  0  0  0  0  0  0  0  0  0
  152.4706  140.0150  156.0457 H   0  0  0  0  0  0  0  0  0  0  0  0
  150.8805  140.8005  159.1630 H   0  0  0  0  0  0  0  0  0  0  0  0
  152.3370  140.3714  158.2908 H   0  0  0  0  0  0  0  0  0  0  0  0
  152.8608  141.6297  160.3893 H   0  0  0  0  0  0  0  0  0  0  0  0
  153.4522  142.4753  158.9725 H   0  0  0  0  0  0  0  0  0  0  0  0
  150.7945  144.9107  159.0549 H   0  0  0  0  0  0  0  0  0  0  0  0
  152.2294  144.4086  158.1817 H   0  0  0  0  0  0  0  0  0  0  0  0
  150.2152  143.7285  156.9104 H   0  0  0  0  0  0  0  0  0  0  0  0
  149.5486  142.9080  158.3162 H   0  0  0  0  0  0  0  0  0  0  0  0
  147.7642  140.7594  154.8706 H   0  0  0  0  0  0  0  0  0  0  0  0
  1  2  1  0  0  0  0
  1 23  1  0  0  0  0
  1 24  1  0  0  0  0
  1 25  1  0  0  0  0
  2  3  1  0  0  0  0
  2  4  1  0  0  0  0
  3 26  1  0  0  0  0
  3 27  1  0  0  0  0
  3 28  1  0  0  0  0
  4  5  2  0  0  0  0
  4  6  1  0  0  0  0
  6  7  1  0  0  0  0
  6 29  1  0  0  0  0
  6 30  1  0  0  0  0
  7  8  1  0  0  0  0
  7 31  1  0  0  0  0
  8  9  2  0  0  0  0
  8 10  1  0  0  0  0
 10 11  1  0  0  0  0
 10 32  1  0  0  0  0
 11 22  1  0  0  0  0
 11 12  2  0  0  0  0
 12 13  1  0  0  0  0
 12 33  1  0  0  0  0
 13 14  2  0  0  0  0
 13 34  1  0  0  0  0
 14 15  1  0  0  0  0
 14 21  1  0  0  0  0
 15 20  1  0  0  0  0
 15 16  1  0  0  0  0
 16 17  1  0  0  0  0
 16 35  1  0  0  0  0
 16 36  1  0  0  0  0
 17 18  1  0  0  0  0
 17 37  1  0  0  0  0
 17 38  1  0  0  0  0
 18 19  1  0  0  0  0
 19 20  1  0  0  0  0
 19 39  1  0  0  0  0
 19 40  1  0  0  0  0
 20 41  1  0  0  0  0
 20 42  1  0  0  0  0
 21 22  2  0  0  0  0
 22 43  1  0  0  0  0
M  END
> <s_m_source_file>
AV-unprocessed.smi

> <i_m_source_file_index>
1104

> <i_lp_mmshare_version>
43012

> <i_f3d_flags>
0

> <s_epik_input>
W0NIM11OKFtDSDNdKUMoPU8pW0NIMl1bTkhdQyg9TylbTkhdYzFbY0hdW2NIXWMobltjSF0xKU4yW0NIMl1bQ0gyXU9bQ0gyXVtDSDJdMg==

> <s_epik_cmdline>
J2VwaWtfcHl0aG9uJywgJy1waCcsICc3LjAnLCAnLXRuJywgJzgnLCAnLW1hJywgJzIwMCcsICctbWV0YWxfYmluZGluZycsICctaW1hZScsICc8aW5maWxlLm1hZT4nLCAnLW9tYWUnLCAnPG91dGZpbGUubWFlPic=

> <r_lp_tautomer_probability>
1

> <r_epik_Ionization_Penalty>
0.00584487

> <r_epik_Ionization_Penalty_Charging>
0

> <r_epik_Ionization_Penalty_Neutral>
0.00584487

> <r_epik_State_Penalty>
0.00427029

> <r_epik_Charging_Adjusted_Penalty>
0.00427029

> <i_epik_Tot_Q>
0

> <i_epik_Tot_abs_Q>
0

> <r_epik_Metal_State_Penalty>
-0

> <b_epik_Metal_Only>
0

> <s_lp_Force_Field>
OPLS_2005

> <r_lp_Energy>
22.3559

> <b_lp_Chiralities_Consistent>
1

> <s_lp_Variant>
AV-unprocessed.smi:1104-1

> <Gold.Version>
5.8.1

> <Gold.Id.Protein>
6NUR|6NUR_protein|mol2

> <Gold.PLP.Fitness>
44.9580

> <Gold.PLP.PLP>
-40.5636

> <Gold.PLP.part.hbond>
-3.2842

> <Gold.PLP.part.metal>
0.0000

> <Gold.PLP.part.buried>
-0.8065

> <Gold.PLP.part.nonpolar>
-38.4709

> <Gold.PLP.part.repulsive>
0.5808

> <Gold.PLP.ligand.clash>
0.0000

> <Gold.PLP.ligand.torsion>
0.4320

> <Gold.PLP.Chemscore.Hbond>
1.6354

> <Gold.PLP.Chemscore.CHOScore>
0.0000

> <Gold.PLP.Chemscore.Metal>
0.0000

> <Gold.Chemscore.Hbonds>
donor molecule, donor type, donor heavy atom, donor atom, acceptor molecule, acceptor atom, score
      L1  H     7    31       P1  7948  0.82
      L1  H    10    32       P1  7948  0.36

> <Gold.PLP.Chemscore.Internal.Correction>
0.3522

> <Gold.Rescore>
     Score         DG    S(hbond)    S(metal)    S(lipo)     H(rot)  DE(clash)    DE(int)     intcor
     15.06     -17.17       1.61        0.00      87.92       1.56       0.15       1.96       ----

> <Gold.Chemscore.Fitness>
15.0555

> <Gold.Chemscore.DG>
-17.1657

> <Gold.Chemscore.ZeroCoef>
-5.4800

> <Gold.Chemscore.Hbond>
1.6112

> <Gold.Chemscore.Metal>
0.0000

> <Gold.Chemscore.Lipo>
87.9166

> <Gold.Chemscore.Internal_Hbond>
0.0000

> <Gold.Chemscore.DEClash>
0.1521

> <Gold.Chemscore.DEInternal>
1.9582

> <Gold.Chemscore.Rot>
1.5555

> <Gold.Chemscore.Internal.Correction>
   9.000000E+99

> <Gold.Chemscore.Hbonds>
donor molecule, donor type, donor heavy atom, donor atom, acceptor molecule, acceptor atom, score
      L1  H     7    31       P1  7948  0.80
      L1  H    10    32       P1  7948  0.32

> <Gold.Chemscore.Hbond.Weighted>
-5.3815

> <Gold.Chemscore.Metal.Weighted>
-0.0000

> <Gold.Chemscore.Lipo.Weighted>
-10.2862

> <Gold.Chemscore.Internal_Hbond.Weighted>
0.0000

> <Gold.Chemscore.DEClash.Weighted>
0.1521

> <Gold.Chemscore.DEInternal.Weighted>
1.9582

> <Gold.Chemscore.Rot.Weighted>
3.9821

> <Gold.Chemscore.Internal.Correction.Weighted>
   9.000000E+99

> <Gold.Protein.RotatedTorsions>
[ 6907 6896 6895 6894 ] final  -22.17 input  -60.11 | X-H torsion
[ 7974 7965 7964 7962 ] final   94.39 input  175.53 | X-H torsion
[ 8008 7997 7996 7995 ] final  -94.27 input   59.86 | X-H torsion
[ 10167 10162 10161 10158 ] final   29.47 input  -65.29 | X-H torsion
[ 10718 10713 10712 10709 ] final  126.06 input   66.30 | X-H torsion
[ 10763 10752 10751 10750 ] final -156.56 input  -60.55 | X-H torsion
[ 11005 11000 10999 10996 ] final  139.75 input  -57.11 | X-H torsion

> <Gold.Protein.ActiveResidues>
 VAL166  LYS551  ARG553  GLY616  TRP617  ASP618  TYR619  PRO620  LYS621  CYS622 
 ASP623  PHE694  ASN695  SER759  ASP760  ASP761  ALA762  ILE779  LEU786  VAL792 
 PHE793  MET794  SER795  GLU796  ALA797  LYS798  CYS799  TRP800  GLU811  SER814 

> <Gold.Protein.RotatedAtoms>
  151.2225  135.0524  159.8955 H   0  0  0  0  0  0  0  0  0  0  0  0  # atno 6907 bound_to 6896
  152.5414  134.0625  159.8168 H   0  0  0  0  0  0  0  0  0  0  0  0  # atno 6908 bound_to 6896
  151.0793  133.5354  159.2653 H   0  0  0  0  0  0  0  0  0  0  0  0  # atno 6909 bound_to 6896
  145.4661  139.2284  143.2960 H   0  0  0  0  0  0  0  0  0  0  0  0  # atno 7974 bound_to 7965
  154.7463  140.0491  157.0855 H   0  0  0  0  0  0  0  0  0  0  0  0  # atno 8008 bound_to 7997
  155.0114  140.3136  155.4809 H   0  0  0  0  0  0  0  0  0  0  0  0  # atno 8009 bound_to 7997
  156.2875  140.2183  156.5228 H   0  0  0  0  0  0  0  0  0  0  0  0  # atno 8010 bound_to 7997
  140.4762  144.0686  150.6251 H   0  0  0  0  0  0  0  0  0  0  0  0  # atno 10167 bound_to 10162
  157.5451  131.1096  150.8795 H   0  0  0  0  0  0  0  0  0  0  0  0  # atno 10718 bound_to 10713
  154.7703  135.3143  154.8203 H   0  0  0  0  0  0  0  0  0  0  0  0  # atno 10763 bound_to 10752
  153.8940  135.6822  153.4763 H   0  0  0  0  0  0  0  0  0  0  0  0  # atno 10764 bound_to 10752
  153.1316  135.4778  154.9291 H   0  0  0  0  0  0  0  0  0  0  0  0  # atno 10765 bound_to 10752
  140.0277  134.9367  157.0601 H   0  0  0  0  0  0  0  0  0  0  0  0  # atno 11005 bound_to 11000
  146.2423  140.5435  142.8929 LP  0  0  0  0  0  0  0  0  0  0  0  0  # atno 17320 bound_to 7965
  144.7973  140.6147  143.6501 LP  0  0  0  0  0  0  0  0  0  0  0  0  # atno 17321 bound_to 7965
  140.3915  143.2750  152.0055 LP  0  0  0  0  0  0  0  0  0  0  0  0  # atno 17342 bound_to 10162
  139.4826  144.6073  151.7497 LP  0  0  0  0  0  0  0  0  0  0  0  0  # atno 17343 bound_to 10162
  156.9336  130.5359  149.5279 LP  0  0  0  0  0  0  0  0  0  0  0  0  # atno 17370 bound_to 10713
  156.0529  130.5595  150.9028 LP  0  0  0  0  0  0  0  0  0  0  0  0  # atno 17371 bound_to 10713
  140.4278  134.1812  155.7167 LP  0  0  0  0  0  0  0  0  0  0  0  0  # atno 17394 bound_to 11000
  141.1812  133.8409  157.1249 LP  0  0  0  0  0  0  0  0  0  0  0  0  # atno 17395 bound_to 11000

$$$$
