AV-unprocessed.smi:230|AV-procd|sdf|1763|dock8
  -GOLD-   2262020293D 1   1.00000     0.00000
 Structure written by MMmdl.
 56 59  0  0  0  0  0  0  0  0  1 V2000
  149.3856  136.7143  159.3583 C   0  0  0  0  0  0  0  0  0  0  0  0
  148.2038  136.4390  158.4184 C   0  0  0  0  0  0  0  0  0  0  0  0
  147.2275  135.3462  158.9280 C   0  0  2  0  0  0  0  0  0  0  0  0
  146.7455  135.6666  160.3612 C   0  0  0  0  0  0  0  0  0  0  0  0
  145.9226  134.6245  160.8796 O   0  0  0  0  0  0  0  0  0  0  0  0
  146.5281  133.3311  160.9131 C   0  0  0  0  0  0  0  0  0  0  0  0
  147.6921  133.2770  161.9260 C   0  0  0  0  0  0  0  0  0  0  0  0
  145.4187  132.3684  161.3643 C   0  0  0  0  0  0  0  0  0  0  0  0
  146.9840  132.9713  159.4856 C   0  0  0  0  0  0  0  0  0  0  0  0
  147.8367  134.0105  158.9187 N   0  0  0  0  0  0  0  0  0  0  0  0
  148.3724  133.5828  157.7522 C   0  0  0  0  0  0  0  0  0  0  0  0
  149.7220  133.5282  157.5955 N   0  0  0  0  0  0  0  0  0  0  0  0
  150.2418  133.1144  156.4357 C   0  0  0  0  0  0  0  0  0  0  0  0
  149.6074  132.7220  155.3283 N   0  0  0  0  0  0  0  0  0  0  0  0
  148.2534  132.7840  155.4842 C   0  0  0  0  0  0  0  0  0  0  0  0
  147.5596  133.2046  156.6522 C   0  0  0  0  0  0  0  0  0  0  0  0
  146.1881  133.1417  156.4437 N   0  0  0  0  0  0  0  0  0  0  0  0
  146.0763  132.7010  155.2199 C   0  0  0  0  0  0  0  0  0  0  0  0
  147.2663  132.4530  154.5724 N   0  0  0  0  0  0  0  0  0  0  0  0
  147.4331  131.9560  153.2153 C   0  0  0  0  0  0  0  0  0  0  0  0
  146.5666  132.6955  152.1656 C   0  0  0  0  0  0  0  0  0  0  0  0
  147.1699  132.5020  150.8975 O   0  0  0  0  0  0  0  0  0  0  0  0
  145.1453  132.0989  152.1244 C   0  0  0  0  0  0  0  0  0  0  0  0
  144.2006  132.9099  151.2190 C   0  0  0  0  0  0  0  0  0  0  0  0
  144.1787  134.2705  151.6330 O   0  0  0  0  0  0  0  0  0  0  0  0
  145.4476  134.9018  151.5139 C   0  0  0  0  0  0  0  0  0  0  0  0
  146.4710  134.2133  152.4345 C   0  0  0  0  0  0  0  0  0  0  0  0
  149.9763  137.5554  158.9951 H   0  0  0  0  0  0  0  0  0  0  0  0
  150.0549  135.8574  159.4302 H   0  0  0  0  0  0  0  0  0  0  0  0
  149.0402  136.9615  160.3625 H   0  0  0  0  0  0  0  0  0  0  0  0
  147.6789  137.3847  158.2841 H   0  0  0  0  0  0  0  0  0  0  0  0
  148.5812  136.1652  157.4325 H   0  0  0  0  0  0  0  0  0  0  0  0
  146.3544  135.3209  158.2739 H   0  0  0  0  0  0  0  0  0  0  0  0
  147.5881  135.8522  161.0273 H   0  0  0  0  0  0  0  0  0  0  0  0
  146.1487  136.5780  160.3659 H   0  0  0  0  0  0  0  0  0  0  0  0
  148.0732  132.2603  162.0264 H   0  0  0  0  0  0  0  0  0  0  0  0
  147.3685  133.6063  162.9138 H   0  0  0  0  0  0  0  0  0  0  0  0
  148.5347  133.9008  161.6288 H   0  0  0  0  0  0  0  0  0  0  0  0
  145.7751  131.3383  161.3961 H   0  0  0  0  0  0  0  0  0  0  0  0
  144.5656  132.4019  160.6855 H   0  0  0  0  0  0  0  0  0  0  0  0
  145.0553  132.6245  162.3601 H   0  0  0  0  0  0  0  0  0  0  0  0
  147.5089  132.0144  159.4951 H   0  0  0  0  0  0  0  0  0  0  0  0
  146.1127  132.8462  158.8402 H   0  0  0  0  0  0  0  0  0  0  0  0
  151.3207  133.0950  156.3883 H   0  0  0  0  0  0  0  0  0  0  0  0
  145.1158  132.5370  154.7533 H   0  0  0  0  0  0  0  0  0  0  0  0
  148.4898  132.0272  152.9535 H   0  0  0  0  0  0  0  0  0  0  0  0
  147.1935  130.8920  153.2142 H   0  0  0  0  0  0  0  0  0  0  0  0
  147.8080  131.8090  150.9712 H   0  0  0  0  0  0  0  0  0  0  0  0
  145.1753  131.0585  151.7980 H   0  0  0  0  0  0  0  0  0  0  0  0
  144.7294  132.0898  153.1329 H   0  0  0  0  0  0  0  0  0  0  0  0
  144.5013  132.8409  150.1725 H   0  0  0  0  0  0  0  0  0  0  0  0
  143.1891  132.5083  151.2822 H   0  0  0  0  0  0  0  0  0  0  0  0
  145.7794  134.8847  150.4746 H   0  0  0  0  0  0  0  0  0  0  0  0
  145.3441  135.9505  151.7926 H   0  0  0  0  0  0  0  0  0  0  0  0
  146.1690  134.3757  153.4700 H   0  0  0  0  0  0  0  0  0  0  0  0
  147.4442  134.6921  152.3208 H   0  0  0  0  0  0  0  0  0  0  0  0
  1  2  1  0  0  0  0
  1 28  1  0  0  0  0
  1 29  1  0  0  0  0
  1 30  1  0  0  0  0
  2  3  1  0  0  0  0
  2 31  1  0  0  0  0
  2 32  1  0  0  0  0
  3 10  1  0  0  0  0
  3  4  1  0  0  0  0
  3 33  1  0  0  0  0
  4  5  1  0  0  0  0
  4 34  1  0  0  0  0
  4 35  1  0  0  0  0
  5  6  1  0  0  0  0
  6  7  1  0  0  0  0
  6  8  1  0  0  0  0
  6  9  1  0  0  0  0
  7 36  1  0  0  0  0
  7 37  1  0  0  0  0
  7 38  1  0  0  0  0
  8 39  1  0  0  0  0
  8 40  1  0  0  0  0
  8 41  1  0  0  0  0
  9 10  1  0  0  0  0
  9 42  1  0  0  0  0
  9 43  1  0  0  0  0
 10 11  1  0  0  0  0
 11 16  1  0  0  0  0
 11 12  2  0  0  0  0
 12 13  1  0  0  0  0
 13 14  2  0  0  0  0
 13 44  1  0  0  0  0
 14 15  1  0  0  0  0
 15 19  1  0  0  0  0
 15 16  2  0  0  0  0
 16 17  1  0  0  0  0
 17 18  2  0  0  0  0
 18 19  1  0  0  0  0
 18 45  1  0  0  0  0
 19 20  1  0  0  0  0
 20 21  1  0  0  0  0
 20 46  1  0  0  0  0
 20 47  1  0  0  0  0
 21 27  1  0  0  0  0
 21 22  1  0  0  0  0
 21 23  1  0  0  0  0
 22 48  1  0  0  0  0
 23 24  1  0  0  0  0
 23 49  1  0  0  0  0
 23 50  1  0  0  0  0
 24 25  1  0  0  0  0
 24 51  1  0  0  0  0
 24 52  1  0  0  0  0
 25 26  1  0  0  0  0
 26 27  1  0  0  0  0
 26 53  1  0  0  0  0
 26 54  1  0  0  0  0
 27 55  1  0  0  0  0
 27 56  1  0  0  0  0
M  END
> <s_m_source_file>
AV-unprocessed.smi

> <i_m_source_file_index>
230

> <i_lp_mmshare_version>
43012

> <i_f3d_flags>
0

> <s_epik_input>
W0NIM11DMShbQ0gzXSlPW0NIMl1bQ0BASF0oW0NIMl1bQ0gzXSlOKFtDSDJdMSljKG5bY0hdbjIpYyhjMjMpbltjSF1uM1tDSDJdQzQoW09IXSlbQ0gyXVtDSDJdT1tDSDJdW0NIMl00

> <s_epik_cmdline>
J2VwaWtfcHl0aG9uJywgJy1waCcsICc3LjAnLCAnLXRuJywgJzgnLCAnLW1hJywgJzIwMCcsICctbWV0YWxfYmluZGluZycsICctaW1hZScsICc8aW5maWxlLm1hZT4nLCAnLW9tYWUnLCAnPG91dGZpbGUubWFlPic=

> <r_lp_tautomer_probability>
1

> <r_epik_Ionization_Penalty>
0.000120535

> <r_epik_Ionization_Penalty_Charging>
0

> <r_epik_Ionization_Penalty_Neutral>
0.000120535

> <r_epik_State_Penalty>
-0

> <r_epik_Charging_Adjusted_Penalty>
0

> <i_epik_Tot_Q>
0

> <i_epik_Tot_abs_Q>
0

> <r_epik_Metal_State_Penalty>
-0

> <b_epik_Metal_Only>
0

> <s_lp_Force_Field>
OPLS_2005

> <r_lp_Energy>
33.8878

> <b_lp_Chiralities_Consistent>
1

> <s_lp_Variant>
AV-unprocessed.smi:230-1

> <Gold.Version>
5.8.1

> <Gold.Id.Protein>
6NUR|6NUR_protein|mol2

> <Gold.PLP.Fitness>
35.9752

> <Gold.PLP.PLP>
-28.1994

> <Gold.PLP.part.hbond>
-2.0000

> <Gold.PLP.part.metal>
0.0000

> <Gold.PLP.part.buried>
-6.3679

> <Gold.PLP.part.nonpolar>
-21.2849

> <Gold.PLP.part.repulsive>
0.1904

> <Gold.PLP.ligand.clash>
0.0000

> <Gold.PLP.ligand.torsion>
0.6616

> <Gold.PLP.Chemscore.Hbond>
2.0000

> <Gold.PLP.Chemscore.CHOScore>
0.9796

> <Gold.PLP.Chemscore.Metal>
0.0000

> <Gold.Chemscore.Hbonds>
donor molecule, donor type, donor heavy atom, donor atom, acceptor molecule, acceptor atom, score
      L1  H    22    48       P1 10747  0.99
      P1  H  6896  6909       L1    12  0.96
      L1  C    18    45       P1 10957  0.96

> <Gold.PLP.Chemscore.Internal.Correction>
0.1601

> <Gold.Rescore>
     Score         DG    S(hbond)    S(metal)    S(lipo)     H(rot)  DE(clash)    DE(int)     intcor
     13.37     -14.04       1.92        0.00      66.54       2.21       0.01       0.66       ----

> <Gold.Chemscore.Fitness>
13.3677

> <Gold.Chemscore.DG>
-14.0352

> <Gold.Chemscore.ZeroCoef>
-5.4800

> <Gold.Chemscore.Hbond>
1.9250

> <Gold.Chemscore.Metal>
0.0000

> <Gold.Chemscore.Lipo>
66.5404

> <Gold.Chemscore.Internal_Hbond>
0.0000

> <Gold.Chemscore.DEClash>
0.0073

> <Gold.Chemscore.DEInternal>
0.6602

> <Gold.Chemscore.Rot>
2.2107

> <Gold.Chemscore.Internal.Correction>
   9.000000E+99

> <Gold.Chemscore.Hbonds>
donor molecule, donor type, donor heavy atom, donor atom, acceptor molecule, acceptor atom, score
      L1  H    22    48       P1 10747  0.93
      P1  H  6896  6909       L1    12  0.69

> <Gold.Chemscore.Hbond.Weighted>
-6.4295

> <Gold.Chemscore.Metal.Weighted>
-0.0000

> <Gold.Chemscore.Lipo.Weighted>
-7.7852

> <Gold.Chemscore.Internal_Hbond.Weighted>
0.0000

> <Gold.Chemscore.DEClash.Weighted>
0.0073

> <Gold.Chemscore.DEInternal.Weighted>
0.6602

> <Gold.Chemscore.Rot.Weighted>
5.6595

> <Gold.Chemscore.Internal.Correction.Weighted>
   9.000000E+99

> <Gold.Protein.RotatedTorsions>
[ 6907 6896 6895 6894 ] final   17.59 input  -60.11 | X-H torsion
[ 7974 7965 7964 7962 ] final  -92.49 input  175.53 | X-H torsion
[ 8008 7997 7996 7995 ] final -173.19 input   59.86 | X-H torsion
[ 10167 10162 10161 10158 ] final   70.60 input  -65.29 | X-H torsion
[ 10718 10713 10712 10709 ] final  108.65 input   66.30 | X-H torsion
[ 10763 10752 10751 10750 ] final  104.20 input  -60.55 | X-H torsion
[ 11005 11000 10999 10996 ] final -107.41 input  -57.11 | X-H torsion

> <Gold.Protein.ActiveResidues>
 VAL166  LYS551  ARG553  GLY616  TRP617  ASP618  TYR619  PRO620  LYS621  CYS622 
 ASP623  PHE694  ASN695  SER759  ASP760  ASP761  ALA762  ILE779  LEU786  VAL792 
 PHE793  MET794  SER795  GLU796  ALA797  LYS798  CYS799  TRP800  GLU811  SER814 

> <Gold.Protein.RotatedAtoms>
  151.8519  135.0554  160.0459 H   0  0  0  0  0  0  0  0  0  0  0  0  # atno 6907 bound_to 6896
  152.2729  133.5395  159.5459 H   0  0  0  0  0  0  0  0  0  0  0  0  # atno 6908 bound_to 6896
  150.7159  134.0588  159.3866 H   0  0  0  0  0  0  0  0  0  0  0  0  # atno 6909 bound_to 6896
  145.3992  140.9536  143.2297 H   0  0  0  0  0  0  0  0  0  0  0  0  # atno 7974 bound_to 7965
  155.9543  140.1132  157.0950 H   0  0  0  0  0  0  0  0  0  0  0  0  # atno 8008 bound_to 7997
  154.4117  140.1194  156.5161 H   0  0  0  0  0  0  0  0  0  0  0  0  # atno 8009 bound_to 7997
  155.6802  140.3473  155.4854 H   0  0  0  0  0  0  0  0  0  0  0  0  # atno 8010 bound_to 7997
  140.0552  144.5279  150.7334 H   0  0  0  0  0  0  0  0  0  0  0  0  # atno 10167 bound_to 10162
  157.6576  131.0898  150.6337 H   0  0  0  0  0  0  0  0  0  0  0  0  # atno 10718 bound_to 10713
  153.3628  135.3951  155.1731 H   0  0  0  0  0  0  0  0  0  0  0  0  # atno 10763 bound_to 10752
  154.8682  135.3683  154.5078 H   0  0  0  0  0  0  0  0  0  0  0  0  # atno 10764 bound_to 10752
  153.5539  135.7082  153.5639 H   0  0  0  0  0  0  0  0  0  0  0  0  # atno 10765 bound_to 10752
  141.0955  133.8978  157.1972 H   0  0  0  0  0  0  0  0  0  0  0  0  # atno 11005 bound_to 11000
  144.8386  139.5509  143.6911 LP  0  0  0  0  0  0  0  0  0  0  0  0  # atno 17320 bound_to 7965
  146.2760  139.6754  142.9262 LP  0  0  0  0  0  0  0  0  0  0  0  0  # atno 17321 bound_to 7965
  140.7198  143.2578  151.4316 LP  0  0  0  0  0  0  0  0  0  0  0  0  # atno 17342 bound_to 10162
  139.5928  144.1462  152.2108 LP  0  0  0  0  0  0  0  0  0  0  0  0  # atno 17343 bound_to 10162
  156.6643  130.4521  149.5677 LP  0  0  0  0  0  0  0  0  0  0  0  0  # atno 17370 bound_to 10713
  156.2044  130.6640  151.1202 LP  0  0  0  0  0  0  0  0  0  0  0  0  # atno 17371 bound_to 10713
  139.9791  135.0104  156.9705 LP  0  0  0  0  0  0  0  0  0  0  0  0  # atno 17394 bound_to 11000
  140.5149  134.0965  155.7278 LP  0  0  0  0  0  0  0  0  0  0  0  0  # atno 17395 bound_to 11000

$$$$
