AV-unprocessed.smi:2195|AV-procd|sdf|8905|dock9
  -GOLD-   2272012123D 1   1.00000     0.00000
 Structure written by MMmdl.
 39 41  0  0  0  0  0  0  0  0  1 V2000
  151.4501  144.8279  160.1914 C   0  0  0  0  0  0  0  0  0  0  0  0
  152.3643  143.6483  160.4516 C   0  0  0  0  0  0  0  0  0  0  0  0
  152.8073  143.3607  161.7579 C   0  0  0  0  0  0  0  0  0  0  0  0
  153.6557  142.2607  161.9894 C   0  0  0  0  0  0  0  0  0  0  0  0
  154.0732  141.4332  160.9266 C   0  0  0  0  0  0  0  0  0  0  0  0
  154.9004  140.3771  161.2437 O   0  0  0  0  0  0  0  0  0  0  0  0
  155.2343  140.1680  162.6099 C   0  0  0  0  0  0  0  0  0  0  0  0
  155.6201  138.6933  162.8041 C   0  0  1  0  0  0  0  0  0  0  0  0
  156.4173  138.5885  163.9678 O   0  0  0  0  0  0  0  0  0  0  0  0
  154.3821  137.7894  162.9651 C   0  0  0  0  0  0  0  0  0  0  0  0
  154.6890  136.3858  162.7540 N   0  0  0  0  0  0  0  0  0  0  0  0
  155.1590  135.8154  161.6278 C   0  0  0  0  0  0  0  0  0  0  0  0
  155.3717  134.5025  161.6523 N   0  0  0  0  0  0  0  0  0  0  0  0
  154.9943  134.1831  162.9454 C   0  0  0  0  0  0  0  0  0  0  0  0
  154.9781  132.9386  163.6154 C   0  0  0  0  0  0  0  0  0  0  0  0
  154.5446  132.8541  164.9550 C   0  0  0  0  0  0  0  0  0  0  0  0
  154.1218  134.0094  165.6444 C   0  0  0  0  0  0  0  0  0  0  0  0
  154.1302  135.2605  164.9982 C   0  0  0  0  0  0  0  0  0  0  0  0
  154.5628  135.3402  163.6614 C   0  0  0  0  0  0  0  0  0  0  0  0
  153.6265  141.7307  159.6143 C   0  0  0  0  0  0  0  0  0  0  0  0
  152.7783  142.8308  159.3818 C   0  0  0  0  0  0  0  0  0  0  0  0
  151.1239  145.2920  161.1227 H   0  0  0  0  0  0  0  0  0  0  0  0
  150.5637  144.5063  159.6442 H   0  0  0  0  0  0  0  0  0  0  0  0
  151.9667  145.5815  159.5967 H   0  0  0  0  0  0  0  0  0  0  0  0
  152.4991  143.9805  162.5872 H   0  0  0  0  0  0  0  0  0  0  0  0
  153.9883  142.0490  162.9950 H   0  0  0  0  0  0  0  0  0  0  0  0
  156.0429  140.8254  162.9349 H   0  0  0  0  0  0  0  0  0  0  0  0
  154.3557  140.3941  163.2167 H   0  0  0  0  0  0  0  0  0  0  0  0
  156.2000  138.3518  161.9455 H   0  0  0  0  0  0  0  0  0  0  0  0
  156.4118  139.4243  164.4091 H   0  0  0  0  0  0  0  0  0  0  0  0
  153.9482  137.9079  163.9593 H   0  0  0  0  0  0  0  0  0  0  0  0
  153.6090  138.0766  162.2514 H   0  0  0  0  0  0  0  0  0  0  0  0
  155.3525  136.3970  160.7383 H   0  0  0  0  0  0  0  0  0  0  0  0
  155.2995  132.0473  163.0975 H   0  0  0  0  0  0  0  0  0  0  0  0
  154.5361  131.8971  165.4559 H   0  0  0  0  0  0  0  0  0  0  0  0
  153.7908  133.9347  166.6698 H   0  0  0  0  0  0  0  0  0  0  0  0
  153.8075  136.1481  165.5220 H   0  0  0  0  0  0  0  0  0  0  0  0
  153.9207  141.1304  158.7669 H   0  0  0  0  0  0  0  0  0  0  0  0
  152.4452  143.0458  158.3770 H   0  0  0  0  0  0  0  0  0  0  0  0
  1  2  1  0  0  0  0
  1 22  1  0  0  0  0
  1 23  1  0  0  0  0
  1 24  1  0  0  0  0
  2 21  1  0  0  0  0
  2  3  2  0  0  0  0
  3  4  1  0  0  0  0
  3 25  1  0  0  0  0
  4  5  2  0  0  0  0
  4 26  1  0  0  0  0
  5  6  1  0  0  0  0
  5 20  1  0  0  0  0
  6  7  1  0  0  0  0
  7  8  1  0  0  0  0
  7 27  1  0  0  0  0
  7 28  1  0  0  0  0
  8  9  1  0  0  0  0
  8 10  1  0  0  0  0
  8 29  1  0  0  0  0
  9 30  1  0  0  0  0
 10 11  1  0  0  0  0
 10 31  1  0  0  0  0
 10 32  1  0  0  0  0
 11 19  1  0  0  0  0
 11 12  1  0  0  0  0
 12 13  2  0  0  0  0
 12 33  1  0  0  0  0
 13 14  1  0  0  0  0
 14 19  2  0  0  0  0
 14 15  1  0  0  0  0
 15 16  2  0  0  0  0
 15 34  1  0  0  0  0
 16 17  1  0  0  0  0
 16 35  1  0  0  0  0
 17 18  2  0  0  0  0
 17 36  1  0  0  0  0
 18 19  1  0  0  0  0
 18 37  1  0  0  0  0
 20 21  2  0  0  0  0
 20 38  1  0  0  0  0
 21 39  1  0  0  0  0
M  END
> <s_m_source_file>
AV-unprocessed.smi

> <i_m_source_file_index>
2195

> <i_lp_mmshare_version>
43012

> <i_f3d_flags>
0

> <s_epik_input>
W0NIM11jMVtjSF1bY0hdYyhbY0hdW2NIXTEpT1tDSDJdW0NASF0oW09IXSlbQ0gyXW4oW2NIXW4yKWMoYzIzKVtjSF1bY0hdW2NIXVtjSF0z

> <s_epik_cmdline>
J2VwaWtfcHl0aG9uJywgJy1waCcsICc3LjAnLCAnLXRuJywgJzgnLCAnLW1hJywgJzIwMCcsICctbWV0YWxfYmluZGluZycsICctaW1hZScsICc8aW5maWxlLm1hZT4nLCAnLW9tYWUnLCAnPG91dGZpbGUubWFlPic=

> <r_lp_tautomer_probability>
1

> <r_epik_Ionization_Penalty>
0.0609831

> <r_epik_Ionization_Penalty_Charging>
0

> <r_epik_Ionization_Penalty_Neutral>
0.0609831

> <r_epik_State_Penalty>
0.0529032

> <r_epik_Charging_Adjusted_Penalty>
0.0529032

> <i_epik_Tot_Q>
0

> <i_epik_Tot_abs_Q>
0

> <r_epik_Metal_State_Penalty>
5.53344e-05

> <b_epik_Metal_Only>
0

> <s_lp_Force_Field>
OPLS_2005

> <r_lp_Energy>
16.3269

> <b_lp_Chiralities_Consistent>
1

> <s_lp_Variant>
AV-unprocessed.smi:2195-2

> <Gold.Version>
5.8.1

> <Gold.Id.Protein>
6NUR|6NUR_protein|mol2

> <Gold.PLP.Fitness>
45.5290

> <Gold.PLP.PLP>
-48.5169

> <Gold.PLP.part.hbond>
0.0000

> <Gold.PLP.part.metal>
0.0000

> <Gold.PLP.part.buried>
-4.1572

> <Gold.PLP.part.nonpolar>
-45.1070

> <Gold.PLP.part.repulsive>
0.0000

> <Gold.PLP.ligand.clash>
2.0222

> <Gold.PLP.ligand.torsion>
0.4998

> <Gold.PLP.Chemscore.Hbond>
0.0000

> <Gold.PLP.Chemscore.CHOScore>
0.0000

> <Gold.PLP.Chemscore.Metal>
0.0000

> <Gold.PLP.Chemscore.Internal.Correction>
0.0339

> <Gold.Rescore>
     Score         DG    S(hbond)    S(metal)    S(lipo)     H(rot)  DE(clash)    DE(int)     intcor
     15.92     -16.79       0.00        0.00     144.54       2.19       0.19       0.68       ----

> <Gold.Chemscore.Fitness>
15.9170

> <Gold.Chemscore.DG>
-16.7913

> <Gold.Chemscore.ZeroCoef>
-5.4800

> <Gold.Chemscore.Hbond>
0.0000

> <Gold.Chemscore.Metal>
0.0000

> <Gold.Chemscore.Lipo>
144.5449

> <Gold.Chemscore.Internal_Hbond>
0.0000

> <Gold.Chemscore.DEClash>
0.1924

> <Gold.Chemscore.DEInternal>
0.6819

> <Gold.Chemscore.Rot>
2.1877

> <Gold.Chemscore.Internal.Correction>
   9.000000E+99

> <Gold.Chemscore.Hbond.Weighted>
-0.0000

> <Gold.Chemscore.Metal.Weighted>
-0.0000

> <Gold.Chemscore.Lipo.Weighted>
-16.9118

> <Gold.Chemscore.Internal_Hbond.Weighted>
0.0000

> <Gold.Chemscore.DEClash.Weighted>
0.1924

> <Gold.Chemscore.DEInternal.Weighted>
0.6819

> <Gold.Chemscore.Rot.Weighted>
5.6005

> <Gold.Chemscore.Internal.Correction.Weighted>
   9.000000E+99

> <Gold.Protein.RotatedTorsions>
[ 6907 6896 6895 6894 ] final   15.01 input  -60.11 | X-H torsion
[ 7974 7965 7964 7962 ] final   10.28 input  175.53 | X-H torsion
[ 8008 7997 7996 7995 ] final -124.25 input   59.86 | X-H torsion
[ 10167 10162 10161 10158 ] final -159.47 input  -65.29 | X-H torsion
[ 10718 10713 10712 10709 ] final -120.87 input   66.30 | X-H torsion
[ 10763 10752 10751 10750 ] final  -34.45 input  -60.55 | X-H torsion
[ 11005 11000 10999 10996 ] final   22.71 input  -57.11 | X-H torsion

> <Gold.Protein.ActiveResidues>
 VAL166  LYS551  ARG553  GLY616  TRP617  ASP618  TYR619  PRO620  LYS621  CYS622 
 ASP623  PHE694  ASN695  SER759  ASP760  ASP761  ALA762  ILE779  LEU786  VAL792 
 PHE793  MET794  SER795  GLU796  ALA797  LYS798  CYS799  TRP800  GLU811  SER814 

> <Gold.Protein.RotatedAtoms>
  151.8112  135.0680  160.0412 H   0  0  0  0  0  0  0  0  0  0  0  0  # atno 6907 bound_to 6896
  152.3019  133.5659  159.5632 H   0  0  0  0  0  0  0  0  0  0  0  0  # atno 6908 bound_to 6896
  150.7277  134.0195  159.3739 H   0  0  0  0  0  0  0  0  0  0  0  0  # atno 6909 bound_to 6896
  146.2391  139.9658  142.8453 H   0  0  0  0  0  0  0  0  0  0  0  0  # atno 7974 bound_to 7965
  155.1939  140.0414  157.2905 H   0  0  0  0  0  0  0  0  0  0  0  0  # atno 8008 bound_to 7997
  154.6120  140.2479  155.7629 H   0  0  0  0  0  0  0  0  0  0  0  0  # atno 8009 bound_to 7997
  156.2384  140.2913  156.0387 H   0  0  0  0  0  0  0  0  0  0  0  0  # atno 8010 bound_to 7997
  139.6613  143.9908  152.2227 H   0  0  0  0  0  0  0  0  0  0  0  0  # atno 10167 bound_to 10162
  156.1292  130.6382  150.9593 H   0  0  0  0  0  0  0  0  0  0  0  0  # atno 10718 bound_to 10713
  153.8469  135.6852  153.4796 H   0  0  0  0  0  0  0  0  0  0  0  0  # atno 10763 bound_to 10752
  153.1420  135.4653  154.9508 H   0  0  0  0  0  0  0  0  0  0  0  0  # atno 10764 bound_to 10752
  154.7820  135.3272  154.7917 H   0  0  0  0  0  0  0  0  0  0  0  0  # atno 10765 bound_to 10752
  140.3776  134.1955  155.7664 H   0  0  0  0  0  0  0  0  0  0  0  0  # atno 11005 bound_to 11000
  145.1728  140.9729  143.4312 LP  0  0  0  0  0  0  0  0  0  0  0  0  # atno 17320 bound_to 7965
  145.0013  139.3596  143.6166 LP  0  0  0  0  0  0  0  0  0  0  0  0  # atno 17321 bound_to 7965
  139.9648  144.6533  150.8045 LP  0  0  0  0  0  0  0  0  0  0  0  0  # atno 17342 bound_to 10162
  140.7581  143.3100  151.2869 LP  0  0  0  0  0  0  0  0  0  0  0  0  # atno 17343 bound_to 10162
  157.6471  131.0902  150.8130 LP  0  0  0  0  0  0  0  0  0  0  0  0  # atno 17370 bound_to 10713
  156.8217  130.4986  149.5342 LP  0  0  0  0  0  0  0  0  0  0  0  0  # atno 17371 bound_to 10713
  141.1934  133.8151  157.0800 LP  0  0  0  0  0  0  0  0  0  0  0  0  # atno 17394 bound_to 11000
  140.0503  134.9809  157.1124 LP  0  0  0  0  0  0  0  0  0  0  0  0  # atno 17395 bound_to 11000

$$$$
