AV-unprocessed.smi:1563|AV-procd|sdf|6290|dock7
  -GOLD-   22720 6493D 1   1.00000     0.00000
 Structure written by MMmdl.
 43 44  0  0  0  0  0  0  0  0  1 V2000
  146.5226  138.3686  152.0708 C   0  0  0  0  0  0  0  0  0  0  0  0
  145.7150  137.0764  152.1277 C   0  0  0  0  0  0  0  0  0  0  0  0
  144.5332  137.1036  152.4699 O   0  0  0  0  0  0  0  0  0  0  0  0
  146.3628  135.9530  151.7832 N   0  0  0  0  0  0  0  0  0  0  0  0
  145.7742  134.6180  151.7597 C   0  0  1  0  0  0  0  0  0  0  0  0
  144.4714  134.6085  150.9266 C   0  0  0  0  0  0  0  0  0  0  0  0
  143.9370  133.1803  150.7039 C   0  0  0  0  0  0  0  0  0  0  0  0
  145.0483  132.2475  150.1903 C   0  0  0  0  0  0  0  0  0  0  0  0
  146.1659  132.2815  151.1484 N   0  0  0  0  0  0  0  0  0  0  0  0
  146.4550  131.3336  152.0757 C   0  0  0  0  0  0  0  0  0  0  0  0
  145.6413  130.4891  152.4531 O   0  0  0  0  0  0  0  0  0  0  0  0
  147.7031  131.3921  152.5707 N   0  0  0  0  0  0  0  0  0  0  0  0
  148.2627  130.4671  153.5493 C   0  0  0  0  0  0  0  0  0  0  0  0
  148.8897  131.2167  154.7369 C   0  0  0  0  0  0  0  0  0  0  0  0
  150.3166  130.7783  155.0049 C   0  0  0  0  0  0  0  0  0  0  0  0
  151.1413  131.5131  155.8834 C   0  0  0  0  0  0  0  0  0  0  0  0
  152.4605  131.0679  156.0949 C   0  0  0  0  0  0  0  0  0  0  0  0
  152.9024  129.9122  155.4226 C   0  0  0  0  0  0  0  0  0  0  0  0
  152.0015  129.2507  154.5642 C   0  0  0  0  0  0  0  0  0  0  0  0
  150.7344  129.6689  154.3542 N   0  0  0  0  0  0  0  0  0  0  0  0
  146.7894  133.6101  151.1832 C   0  0  0  0  0  0  0  0  0  0  0  0
  147.5417  138.2074  152.4243 H   0  0  0  0  0  0  0  0  0  0  0  0
  146.0643  139.1365  152.6949 H   0  0  0  0  0  0  0  0  0  0  0  0
  146.5659  138.7401  151.0467 H   0  0  0  0  0  0  0  0  0  0  0  0
  147.3336  136.0285  151.5165 H   0  0  0  0  0  0  0  0  0  0  0  0
  145.5418  134.3139  152.7825 H   0  0  0  0  0  0  0  0  0  0  0  0
  143.7070  135.2199  151.4073 H   0  0  0  0  0  0  0  0  0  0  0  0
  144.6630  135.0648  149.9544 H   0  0  0  0  0  0  0  0  0  0  0  0
  143.5397  132.7898  151.6419 H   0  0  0  0  0  0  0  0  0  0  0  0
  143.1056  133.1991  149.9990 H   0  0  0  0  0  0  0  0  0  0  0  0
  144.6462  131.2500  150.0143 H   0  0  0  0  0  0  0  0  0  0  0  0
  145.3990  132.5900  149.2156 H   0  0  0  0  0  0  0  0  0  0  0  0
  148.3151  132.1176  152.2264 H   0  0  0  0  0  0  0  0  0  0  0  0
  147.4595  129.8182  153.8993 H   0  0  0  0  0  0  0  0  0  0  0  0
  149.0007  129.8193  153.0729 H   0  0  0  0  0  0  0  0  0  0  0  0
  148.8794  132.2917  154.5525 H   0  0  0  0  0  0  0  0  0  0  0  0
  148.2947  131.0563  155.6373 H   0  0  0  0  0  0  0  0  0  0  0  0
  150.7740  132.3977  156.3827 H   0  0  0  0  0  0  0  0  0  0  0  0
  153.1213  131.6037  156.7602 H   0  0  0  0  0  0  0  0  0  0  0  0
  153.9074  129.5419  155.5608 H   0  0  0  0  0  0  0  0  0  0  0  0
  152.3072  128.3623  154.0318 H   0  0  0  0  0  0  0  0  0  0  0  0
  147.0803  133.8991  150.1719 H   0  0  0  0  0  0  0  0  0  0  0  0
  147.7107  133.6225  151.7680 H   0  0  0  0  0  0  0  0  0  0  0  0
  1  2  1  0  0  0  0
  1 22  1  0  0  0  0
  1 23  1  0  0  0  0
  1 24  1  0  0  0  0
  2  3  2  0  0  0  0
  2  4  1  0  0  0  0
  4  5  1  0  0  0  0
  4 25  1  0  0  0  0
  5 21  1  0  0  0  0
  5  6  1  0  0  0  0
  5 26  1  0  0  0  0
  6  7  1  0  0  0  0
  6 27  1  0  0  0  0
  6 28  1  0  0  0  0
  7  8  1  0  0  0  0
  7 29  1  0  0  0  0
  7 30  1  0  0  0  0
  8  9  1  0  0  0  0
  8 31  1  0  0  0  0
  8 32  1  0  0  0  0
  9 10  1  0  0  0  0
  9 21  1  0  0  0  0
 10 11  2  0  0  0  0
 10 12  1  0  0  0  0
 12 13  1  0  0  0  0
 12 33  1  0  0  0  0
 13 14  1  0  0  0  0
 13 34  1  0  0  0  0
 13 35  1  0  0  0  0
 14 15  1  0  0  0  0
 14 36  1  0  0  0  0
 14 37  1  0  0  0  0
 15 20  1  0  0  0  0
 15 16  2  0  0  0  0
 16 17  1  0  0  0  0
 16 38  1  0  0  0  0
 17 18  2  0  0  0  0
 17 39  1  0  0  0  0
 18 19  1  0  0  0  0
 18 40  1  0  0  0  0
 19 20  2  0  0  0  0
 19 41  1  0  0  0  0
 21 42  1  0  0  0  0
 21 43  1  0  0  0  0
M  END
> <s_m_source_file>
AV-unprocessed.smi

> <i_m_source_file_index>
1563

> <i_lp_mmshare_version>
43012

> <i_f3d_flags>
0

> <s_epik_input>
W0NIM11DKD1PKVtOSF1bQ0BASF0xW0NIMl1bQ0gyXVtDSDJdTihbQ0gyXTEpQyg9TylbTkhdW0NIMl1bQ0gyXWMyW2NIXVtjSF1bY0hdW2NIXW4y

> <s_epik_cmdline>
J2VwaWtfcHl0aG9uJywgJy1waCcsICc3LjAnLCAnLXRuJywgJzgnLCAnLW1hJywgJzIwMCcsICctbWV0YWxfYmluZGluZycsICctaW1hZScsICc8aW5maWxlLm1hZT4nLCAnLW9tYWUnLCAnPG91dGZpbGUubWFlPic=

> <r_epik_Ionization_Penalty>
0.0442074

> <r_epik_Ionization_Penalty_Charging>
0

> <r_epik_Ionization_Penalty_Neutral>
0.0442074

> <r_epik_State_Penalty>
0.0374027

> <r_epik_Charging_Adjusted_Penalty>
0.0374027

> <i_epik_Tot_Q>
0

> <i_epik_Tot_abs_Q>
0

> <r_epik_Metal_State_Penalty>
0.0347963

> <b_epik_Metal_Only>
0

> <s_lp_Force_Field>
OPLS_2005

> <r_lp_Energy>
22.675

> <b_lp_Chiralities_Consistent>
1

> <s_lp_Variant>
AV-unprocessed.smi:1563-2

> <Gold.Version>
5.8.1

> <Gold.Id.Protein>
6NUR|6NUR_protein|mol2

> <Gold.PLP.Fitness>
43.3526

> <Gold.PLP.PLP>
-38.9740

> <Gold.PLP.part.hbond>
-2.0000

> <Gold.PLP.part.metal>
0.0000

> <Gold.PLP.part.buried>
-4.5634

> <Gold.PLP.part.nonpolar>
-33.6194

> <Gold.PLP.part.repulsive>
0.9582

> <Gold.PLP.ligand.clash>
0.0000

> <Gold.PLP.ligand.torsion>
0.8372

> <Gold.PLP.Chemscore.Hbond>
1.0000

> <Gold.PLP.Chemscore.CHOScore>
1.0000

> <Gold.PLP.Chemscore.Metal>
0.0000

> <Gold.Chemscore.Hbonds>
donor molecule, donor type, donor heavy atom, donor atom, acceptor molecule, acceptor atom, score
      L1  H     4    25       P1  7948  1.00
      L1  C    19    41       P1 10737  1.00

> <Gold.PLP.Chemscore.Internal.Correction>
0.0529

> <Gold.Rescore>
     Score         DG    S(hbond)    S(metal)    S(lipo)     H(rot)  DE(clash)    DE(int)     intcor
     12.47     -13.27       0.91        0.00      77.44       1.68       0.05       0.76       ----

> <Gold.Chemscore.Fitness>
12.4714

> <Gold.Chemscore.DG>
-13.2747

> <Gold.Chemscore.ZeroCoef>
-5.4800

> <Gold.Chemscore.Hbond>
0.9097

> <Gold.Chemscore.Metal>
0.0000

> <Gold.Chemscore.Lipo>
77.4412

> <Gold.Chemscore.Internal_Hbond>
0.0000

> <Gold.Chemscore.DEClash>
0.0460

> <Gold.Chemscore.DEInternal>
0.7573

> <Gold.Chemscore.Rot>
1.6813

> <Gold.Chemscore.Internal.Correction>
   9.000000E+99

> <Gold.Chemscore.Hbonds>
donor molecule, donor type, donor heavy atom, donor atom, acceptor molecule, acceptor atom, score
      L1  H     4    25       P1  7948  0.97

> <Gold.Chemscore.Hbond.Weighted>
-3.0383

> <Gold.Chemscore.Metal.Weighted>
-0.0000

> <Gold.Chemscore.Lipo.Weighted>
-9.0606

> <Gold.Chemscore.Internal_Hbond.Weighted>
0.0000

> <Gold.Chemscore.DEClash.Weighted>
0.0460

> <Gold.Chemscore.DEInternal.Weighted>
0.7573

> <Gold.Chemscore.Rot.Weighted>
4.3042

> <Gold.Chemscore.Internal.Correction.Weighted>
   9.000000E+99

> <Gold.Protein.RotatedTorsions>
[ 6907 6896 6895 6894 ] final   30.64 input  -60.11 | X-H torsion
[ 7974 7965 7964 7962 ] final  141.19 input  175.53 | X-H torsion
[ 8008 7997 7996 7995 ] final -163.43 input   59.86 | X-H torsion
[ 10167 10162 10161 10158 ] final  105.99 input  -65.29 | X-H torsion
[ 10718 10713 10712 10709 ] final -165.77 input   66.30 | X-H torsion
[ 10763 10752 10751 10750 ] final   36.14 input  -60.55 | X-H torsion
[ 11005 11000 10999 10996 ] final  -45.32 input  -57.11 | X-H torsion

> <Gold.Protein.ActiveResidues>
 VAL166  LYS551  ARG553  GLY616  TRP617  ASP618  TYR619  PRO620  LYS621  CYS622 
 ASP623  PHE694  ASN695  SER759  ASP760  ASP761  ALA762  ILE779  LEU786  VAL792 
 PHE793  MET794  SER795  GLU796  ALA797  LYS798  CYS799  TRP800  GLU811  SER814 

> <Gold.Protein.RotatedAtoms>
  152.0489  134.9666  160.0574 H   0  0  0  0  0  0  0  0  0  0  0  0  # atno 6907 bound_to 6896
  152.1075  133.4278  159.4623 H   0  0  0  0  0  0  0  0  0  0  0  0  # atno 6908 bound_to 6896
  150.6842  134.2607  159.4591 H   0  0  0  0  0  0  0  0  0  0  0  0  # atno 6909 bound_to 6896
  144.9119  139.5282  143.5705 H   0  0  0  0  0  0  0  0  0  0  0  0  # atno 7974 bound_to 7965
  155.8212  140.0920  157.1848 H   0  0  0  0  0  0  0  0  0  0  0  0  # atno 8008 bound_to 7997
  154.3979  140.1436  156.3562 H   0  0  0  0  0  0  0  0  0  0  0  0  # atno 8009 bound_to 7997
  155.8264  140.3444  155.5548 H   0  0  0  0  0  0  0  0  0  0  0  0  # atno 8010 bound_to 7997
  139.7047  144.7088  151.1127 H   0  0  0  0  0  0  0  0  0  0  0  0  # atno 10167 bound_to 10162
  156.6582  130.9035  151.3025 H   0  0  0  0  0  0  0  0  0  0  0  0  # atno 10718 bound_to 10713
  153.0089  135.6314  154.1938 H   0  0  0  0  0  0  0  0  0  0  0  0  # atno 10763 bound_to 10752
  154.1681  135.2820  155.3091 H   0  0  0  0  0  0  0  0  0  0  0  0  # atno 10764 bound_to 10752
  154.5930  135.5611  153.7357 H   0  0  0  0  0  0  0  0  0  0  0  0  # atno 10765 bound_to 10752
  141.0508  133.6744  156.2996 H   0  0  0  0  0  0  0  0  0  0  0  0  # atno 11005 bound_to 11000
  146.3162  139.7931  142.8981 LP  0  0  0  0  0  0  0  0  0  0  0  0  # atno 17320 bound_to 7965
  145.3440  141.0294  143.3376 LP  0  0  0  0  0  0  0  0  0  0  0  0  # atno 17321 bound_to 7965
  140.7718  143.5375  150.9350 LP  0  0  0  0  0  0  0  0  0  0  0  0  # atno 17342 bound_to 10162
  139.9058  143.6780  152.3123 LP  0  0  0  0  0  0  0  0  0  0  0  0  # atno 17343 bound_to 10162
  157.7118  130.9450  150.1116 LP  0  0  0  0  0  0  0  0  0  0  0  0  # atno 17370 bound_to 10713
  156.2031  130.3661  149.8763 LP  0  0  0  0  0  0  0  0  0  0  0  0  # atno 17371 bound_to 10713
  140.6059  134.5507  157.5525 LP  0  0  0  0  0  0  0  0  0  0  0  0  # atno 17394 bound_to 11000
  139.9349  134.7895  156.0831 LP  0  0  0  0  0  0  0  0  0  0  0  0  # atno 17395 bound_to 11000

$$$$
