AV-unprocessed.smi:3068|AV-procd|sdf|11706|dock8
  -GOLD-   2272017113D 1   1.00000     0.00000
 Structure written by MMmdl.
 39 41  0  0  0  0  0  0  0  0  1 V2000
  147.2269  142.2931  157.6045 N   0  0  0  0  0  0  0  0  0  0  0  0
  147.5079  141.8363  156.5789 C   0  0  0  0  0  0  0  0  0  0  0  0
  147.8620  141.2614  155.2873 C   0  0  0  0  0  0  0  0  0  0  0  0
  146.8424  140.7916  154.5319 N   0  0  0  0  0  0  0  0  0  0  0  0
  147.1564  140.2592  153.3317 C   0  0  0  0  0  0  0  0  0  0  0  0
  148.4887  140.1910  152.8807 C   0  0  0  0  0  0  0  0  0  0  0  0
  149.5119  140.6554  153.6285 N   0  0  0  0  0  0  0  0  0  0  0  0
  149.2106  141.1972  154.8355 C   0  0  0  0  0  0  0  0  0  0  0  0
  150.2662  141.6870  155.6272 N   0  0  0  0  0  0  0  0  0  0  0  0
  151.2276  140.7932  156.2623 C   0  0  0  0  0  0  0  0  0  0  0  0
  151.1808  140.8738  157.7971 C   0  0  2  0  0  0  0  0  0  0  0  0
  151.5402  142.2830  158.3016 C   0  0  0  0  0  0  0  0  0  0  0  0
  151.5703  142.3473  159.7571 N   0  0  0  0  0  0  0  0  0  0  0  0
  151.9164  143.6887  160.2236 C   0  0  0  0  0  0  0  0  0  0  0  0
  151.9217  143.7927  161.7570 C   0  0  0  0  0  0  0  0  0  0  0  0
  152.8821  142.7561  162.3574 C   0  0  0  0  0  0  0  0  0  0  0  0
  152.5468  141.3551  161.8227 C   0  0  0  0  0  0  0  0  0  0  0  0
  152.5070  141.3483  160.2805 C   0  0  1  0  0  0  0  0  0  0  0  0
  152.1630  139.9413  159.7506 C   0  0  0  0  0  0  0  0  0  0  0  0
  152.1316  139.9532  158.3270 O   0  0  0  0  0  0  0  0  0  0  0  0
  146.3419  139.8859  152.7284 H   0  0  0  0  0  0  0  0  0  0  0  0
  148.7336  139.7635  151.9195 H   0  0  0  0  0  0  0  0  0  0  0  0
  150.4922  142.6707  155.5862 H   0  0  0  0  0  0  0  0  0  0  0  0
  151.0146  139.7738  155.9401 H   0  0  0  0  0  0  0  0  0  0  0  0
  152.2309  141.0206  155.9004 H   0  0  0  0  0  0  0  0  0  0  0  0
  150.1833  140.6113  158.1538 H   0  0  0  0  0  0  0  0  0  0  0  0
  152.5112  142.5761  157.8989 H   0  0  0  0  0  0  0  0  0  0  0  0
  150.8141  143.0007  157.9180 H   0  0  0  0  0  0  0  0  0  0  0  0
  152.8967  143.9730  159.8378 H   0  0  0  0  0  0  0  0  0  0  0  0
  151.2049  144.4106  159.8210 H   0  0  0  0  0  0  0  0  0  0  0  0
  152.2114  144.7974  162.0653 H   0  0  0  0  0  0  0  0  0  0  0  0
  150.9137  143.6263  162.1395 H   0  0  0  0  0  0  0  0  0  0  0  0
  153.9088  143.0126  162.0932 H   0  0  0  0  0  0  0  0  0  0  0  0
  152.8254  142.7709  163.4461 H   0  0  0  0  0  0  0  0  0  0  0  0
  153.2832  140.6371  162.1851 H   0  0  0  0  0  0  0  0  0  0  0  0
  151.5815  141.0363  162.2185 H   0  0  0  0  0  0  0  0  0  0  0  0
  153.5085  141.5947  159.9229 H   0  0  0  0  0  0  0  0  0  0  0  0
  152.9098  139.2176  160.0777 H   0  0  0  0  0  0  0  0  0  0  0  0
  151.1999  139.6030  160.1363 H   0  0  0  0  0  0  0  0  0  0  0  0
  1  2  3  0  0  0  0
  2  3  1  0  0  0  0
  3  8  1  0  0  0  0
  3  4  2  0  0  0  0
  4  5  1  0  0  0  0
  5  6  2  0  0  0  0
  5 21  1  0  0  0  0
  6  7  1  0  0  0  0
  6 22  1  0  0  0  0
  7  8  2  0  0  0  0
  8  9  1  0  0  0  0
  9 10  1  0  0  0  0
  9 23  1  0  0  0  0
 10 11  1  0  0  0  0
 10 24  1  0  0  0  0
 10 25  1  0  0  0  0
 11 20  1  0  0  0  0
 11 12  1  0  0  0  0
 11 26  1  0  0  0  0
 12 13  1  0  0  0  0
 12 27  1  0  0  0  0
 12 28  1  0  0  0  0
 13 18  1  0  0  0  0
 13 14  1  0  0  0  0
 14 15  1  0  0  0  0
 14 29  1  0  0  0  0
 14 30  1  0  0  0  0
 15 16  1  0  0  0  0
 15 31  1  0  0  0  0
 15 32  1  0  0  0  0
 16 17  1  0  0  0  0
 16 33  1  0  0  0  0
 16 34  1  0  0  0  0
 17 18  1  0  0  0  0
 17 35  1  0  0  0  0
 17 36  1  0  0  0  0
 18 19  1  0  0  0  0
 18 37  1  0  0  0  0
 19 20  1  0  0  0  0
 19 38  1  0  0  0  0
 19 39  1  0  0  0  0
M  END
> <s_m_source_file>
AV-unprocessed.smi

> <i_m_source_file_index>
3068

> <i_lp_mmshare_version>
43012

> <i_f3d_flags>
0

> <s_epik_input>
TiNDYzFuW2NIXVtjSF1uYzFbTkhdW0NIMl1bQ0BIXShbQ0gyXTIpT1tDSDJdW0NAQEhdKE4yMylbQ0gyXVtDSDJdW0NIMl1bQ0gyXTM=

> <s_epik_cmdline>
J2VwaWtfcHl0aG9uJywgJy1waCcsICc3LjAnLCAnLXRuJywgJzgnLCAnLW1hJywgJzIwMCcsICctbWV0YWxfYmluZGluZycsICctaW1hZScsICc8aW5maWxlLm1hZT4nLCAnLW9tYWUnLCAnPG91dGZpbGUubWFlPic=

> <r_epik_Ionization_Penalty>
1.22359

> <r_epik_Ionization_Penalty_Charging>
0

> <r_epik_Ionization_Penalty_Neutral>
1.22359

> <r_epik_State_Penalty>
1.29103

> <r_epik_Charging_Adjusted_Penalty>
1.29103

> <i_epik_Tot_Q>
0

> <i_epik_Tot_abs_Q>
0

> <r_epik_Metal_State_Penalty>
1.29103

> <b_epik_Metal_Only>
0

> <s_lp_Force_Field>
OPLS_2005

> <r_lp_Energy>
45.8422

> <b_lp_Chiralities_Consistent>
1

> <s_lp_Variant>
AV-unprocessed.smi:3068-9

> <Gold.Version>
5.8.1

> <Gold.Id.Protein>
6NUR|6NUR_protein|mol2

> <Gold.PLP.Fitness>
47.5373

> <Gold.PLP.PLP>
-35.3095

> <Gold.PLP.part.hbond>
-4.1167

> <Gold.PLP.part.metal>
0.0000

> <Gold.PLP.part.buried>
-1.7844

> <Gold.PLP.part.nonpolar>
-29.3547

> <Gold.PLP.part.repulsive>
0.8426

> <Gold.PLP.ligand.clash>
0.0000

> <Gold.PLP.ligand.torsion>
0.6717

> <Gold.PLP.Chemscore.Hbond>
2.6285

> <Gold.PLP.Chemscore.CHOScore>
1.8940

> <Gold.PLP.Chemscore.Metal>
0.0000

> <Gold.Chemscore.Hbonds>
donor molecule, donor type, donor heavy atom, donor atom, acceptor molecule, acceptor atom, score
      P1  H  7989  7998       L1     7  0.36
      P1  H  8011  8017       L1     7  0.37
      L1  C     5    21       P1 10175  0.50

> <Gold.PLP.Chemscore.Internal.Correction>
0.0038

> <Gold.Rescore>
     Score         DG    S(hbond)    S(metal)    S(lipo)     H(rot)  DE(clash)    DE(int)     intcor
     12.92     -13.86       0.22        0.00      93.77       1.30       0.59       0.35       ----

> <Gold.Chemscore.Fitness>
12.9202

> <Gold.Chemscore.DG>
-13.8591

> <Gold.Chemscore.ZeroCoef>
-5.4800

> <Gold.Chemscore.Hbond>
0.2219

> <Gold.Chemscore.Metal>
0.0000

> <Gold.Chemscore.Lipo>
93.7667

> <Gold.Chemscore.Internal_Hbond>
0.0000

> <Gold.Chemscore.DEClash>
0.5871

> <Gold.Chemscore.DEInternal>
0.3517

> <Gold.Chemscore.Rot>
1.3019

> <Gold.Chemscore.Internal.Correction>
   9.000000E+99

> <Gold.Chemscore.Hbonds>
donor molecule, donor type, donor heavy atom, donor atom, acceptor molecule, acceptor atom, score
      P1  H  7989  7998       L1     7  0.16
      P1  H  8011  8017       L1     7  0.01

> <Gold.Chemscore.Hbond.Weighted>
-0.7411

> <Gold.Chemscore.Metal.Weighted>
-0.0000

> <Gold.Chemscore.Lipo.Weighted>
-10.9707

> <Gold.Chemscore.Internal_Hbond.Weighted>
0.0000

> <Gold.Chemscore.DEClash.Weighted>
0.5871

> <Gold.Chemscore.DEInternal.Weighted>
0.3517

> <Gold.Chemscore.Rot.Weighted>
3.3327

> <Gold.Chemscore.Internal.Correction.Weighted>
   9.000000E+99

> <Gold.Protein.RotatedTorsions>
[ 6907 6896 6895 6894 ] final  122.67 input  -60.11 | X-H torsion
[ 7974 7965 7964 7962 ] final  178.28 input  175.53 | X-H torsion
[ 8008 7997 7996 7995 ] final  177.21 input   59.86 | X-H torsion
[ 10167 10162 10161 10158 ] final  149.41 input  -65.29 | X-H torsion
[ 10718 10713 10712 10709 ] final   91.88 input   66.30 | X-H torsion
[ 10763 10752 10751 10750 ] final  131.43 input  -60.55 | X-H torsion
[ 11005 11000 10999 10996 ] final   22.01 input  -57.11 | X-H torsion

> <Gold.Protein.ActiveResidues>
 VAL166  LYS551  ARG553  GLY616  TRP617  ASP618  TYR619  PRO620  LYS621  CYS622 
 ASP623  PHE694  ASN695  SER759  ASP760  ASP761  ALA762  ILE779  LEU786  VAL792 
 PHE793  MET794  SER795  GLU796  ALA797  LYS798  CYS799  TRP800  GLU811  SER814 

> <Gold.Protein.RotatedAtoms>
  152.4224  133.7138  159.6493 H   0  0  0  0  0  0  0  0  0  0  0  0  # atno 6907 bound_to 6896
  150.8100  133.8429  159.3193 H   0  0  0  0  0  0  0  0  0  0  0  0  # atno 6908 bound_to 6896
  151.6141  135.1040  160.0139 H   0  0  0  0  0  0  0  0  0  0  0  0  # atno 6909 bound_to 6896
  144.7158  140.0374  143.6438 H   0  0  0  0  0  0  0  0  0  0  0  0  # atno 7974 bound_to 7965
  156.0681  140.1364  156.9861 H   0  0  0  0  0  0  0  0  0  0  0  0  # atno 8008 bound_to 7997
  154.4517  140.0977  156.6689 H   0  0  0  0  0  0  0  0  0  0  0  0  # atno 8009 bound_to 7997
  155.5271  140.3457  155.4421 H   0  0  0  0  0  0  0  0  0  0  0  0  # atno 8010 bound_to 7997
  139.4862  144.5604  151.7241 H   0  0  0  0  0  0  0  0  0  0  0  0  # atno 10167 bound_to 10162
  157.6959  131.0423  150.3797 H   0  0  0  0  0  0  0  0  0  0  0  0  # atno 10718 bound_to 10713
  153.7742  135.3177  155.3356 H   0  0  0  0  0  0  0  0  0  0  0  0  # atno 10763 bound_to 10752
  154.8185  135.4620  154.0714 H   0  0  0  0  0  0  0  0  0  0  0  0  # atno 10764 bound_to 10752
  153.1983  135.6919  153.8348 H   0  0  0  0  0  0  0  0  0  0  0  0  # atno 10765 bound_to 10752
  140.3852  134.1878  155.7663 H   0  0  0  0  0  0  0  0  0  0  0  0  # atno 11005 bound_to 11000
  146.0052  139.3124  143.0903 LP  0  0  0  0  0  0  0  0  0  0  0  0  # atno 17320 bound_to 7965
  145.8746  140.9399  143.0633 LP  0  0  0  0  0  0  0  0  0  0  0  0  # atno 17321 bound_to 7965
  140.5173  144.0934  150.6012 LP  0  0  0  0  0  0  0  0  0  0  0  0  # atno 17342 bound_to 10162
  140.3879  143.2767  152.0094 LP  0  0  0  0  0  0  0  0  0  0  0  0  # atno 17343 bound_to 10162
  156.4213  130.3953  149.6823 LP  0  0  0  0  0  0  0  0  0  0  0  0  # atno 17370 bound_to 10713
  156.4073  130.7705  151.2716 LP  0  0  0  0  0  0  0  0  0  0  0  0  # atno 17371 bound_to 10713
  141.1910  133.8205  157.0897 LP  0  0  0  0  0  0  0  0  0  0  0  0  # atno 17394 bound_to 11000
  140.0448  134.9836  157.1028 LP  0  0  0  0  0  0  0  0  0  0  0  0  # atno 17395 bound_to 11000

$$$$
