AV-unprocessed.smi:1220|AV-procd|sdf|5114|dock7
  -GOLD-   22720 4173D 1   1.00000     0.00000
 Structure written by MMmdl.
 35 36  0  0  0  0  0  0  0  0  1 V2000
  146.2893  138.0802  152.0303 C   0  0  0  0  0  0  0  0  0  0  0  0
  145.2612  136.9409  152.0422 C   0  0  2  0  0  0  0  0  0  0  0  0
  145.0402  136.3687  150.6251 C   0  0  0  0  0  0  0  0  0  0  0  0
  145.2606  134.9347  150.5560 N   0  0  0  0  0  0  0  0  0  0  0  0
  144.3470  133.9394  150.2782 C   0  0  0  0  0  0  0  0  0  0  0  0
  145.0105  132.7482  150.3470 C   0  0  0  0  0  0  0  0  0  0  0  0
  146.3442  133.1230  150.6715 C   0  0  0  0  0  0  0  0  0  0  0  0
  146.4918  134.4326  150.7916 N   0  0  0  0  0  0  0  0  0  0  0  0
  144.0049  137.4404  152.6001 N   0  0  0  0  0  0  0  0  0  0  0  0
  142.9478  136.6889  152.9479 C   0  0  0  0  0  0  0  0  0  0  0  0
  142.9360  135.4599  152.8756 O   0  0  0  0  0  0  0  0  0  0  0  0
  141.7043  137.4463  153.4269 C   0  0  2  0  0  0  0  0  0  0  0  0
  141.9902  138.3318  154.6589 C   0  0  0  0  0  0  0  0  0  0  0  0
  140.6516  138.7800  155.2550 C   0  0  0  0  0  0  0  0  0  0  0  0
  139.4926  137.3900  154.9726 S   0  0  0  0  0  0  0  0  0  0  0  0
  139.3626  136.6004  156.2063 O   0  0  0  0  0  0  0  0  0  0  0  0
  138.3048  137.8946  154.2677 O   0  0  0  0  0  0  0  0  0  0  0  0
  140.5632  136.4816  153.7952 C   0  0  0  0  0  0  0  0  0  0  0  0
  147.2502  137.7364  151.6465 H   0  0  0  0  0  0  0  0  0  0  0  0
  146.4575  138.4684  153.0354 H   0  0  0  0  0  0  0  0  0  0  0  0
  145.9583  138.9087  151.4031 H   0  0  0  0  0  0  0  0  0  0  0  0
  145.6640  136.1523  152.6804 H   0  0  0  0  0  0  0  0  0  0  0  0
  144.0281  136.5833  150.2794 H   0  0  0  0  0  0  0  0  0  0  0  0
  145.7176  136.8483  149.9170 H   0  0  0  0  0  0  0  0  0  0  0  0
  143.3110  134.1587  150.0659 H   0  0  0  0  0  0  0  0  0  0  0  0
  144.6051  131.7595  150.1913 H   0  0  0  0  0  0  0  0  0  0  0  0
  147.2039  132.4870  150.8216 H   0  0  0  0  0  0  0  0  0  0  0  0
  143.9214  138.4419  152.6978 H   0  0  0  0  0  0  0  0  0  0  0  0
  141.3483  138.0983  152.6270 H   0  0  0  0  0  0  0  0  0  0  0  0
  142.5321  137.7596  155.4136 H   0  0  0  0  0  0  0  0  0  0  0  0
  142.6126  139.1896  154.4029 H   0  0  0  0  0  0  0  0  0  0  0  0
  140.7126  139.0124  156.3183 H   0  0  0  0  0  0  0  0  0  0  0  0
  140.2659  139.6526  154.7279 H   0  0  0  0  0  0  0  0  0  0  0  0
  139.9776  136.1749  152.9285 H   0  0  0  0  0  0  0  0  0  0  0  0
  140.9295  135.5851  154.2980 H   0  0  0  0  0  0  0  0  0  0  0  0
  1  2  1  0  0  0  0
  1 19  1  0  0  0  0
  1 20  1  0  0  0  0
  1 21  1  0  0  0  0
  2  3  1  0  0  0  0
  2  9  1  0  0  0  0
  2 22  1  0  0  0  0
  3  4  1  0  0  0  0
  3 23  1  0  0  0  0
  3 24  1  0  0  0  0
  4  8  1  0  0  0  0
  4  5  1  0  0  0  0
  5  6  2  0  0  0  0
  5 25  1  0  0  0  0
  6  7  1  0  0  0  0
  6 26  1  0  0  0  0
  7  8  2  0  0  0  0
  7 27  1  0  0  0  0
  9 10  1  0  0  0  0
  9 28  1  0  0  0  0
 10 11  2  0  0  0  0
 10 12  1  0  0  0  0
 12 18  1  0  0  0  0
 12 13  1  0  0  0  0
 12 29  1  0  0  0  0
 13 14  1  0  0  0  0
 13 30  1  0  0  0  0
 13 31  1  0  0  0  0
 14 15  1  0  0  0  0
 14 32  1  0  0  0  0
 14 33  1  0  0  0  0
 15 16  2  0  0  0  0
 15 17  2  0  0  0  0
 15 18  1  0  0  0  0
 18 34  1  0  0  0  0
 18 35  1  0  0  0  0
M  END
> <s_m_source_file>
AV-unprocessed.smi

> <i_m_source_file_index>
1220

> <i_lp_mmshare_version>
43012

> <i_f3d_flags>
0

> <s_epik_input>
bjFbY0hdW2NIXVtjSF1uMVtDSDJdW0NAQEhdKFtDSDNdKVtOSF1DKD1PKVtDQEBIXShbQ0gyXTIpW0NIMl1bQ0gyXVMyKD1PKT1P

> <s_epik_cmdline>
J2VwaWtfcHl0aG9uJywgJy1waCcsICc3LjAnLCAnLXRuJywgJzgnLCAnLW1hJywgJzIwMCcsICctbWV0YWxfYmluZGluZycsICctaW1hZScsICc8aW5maWxlLm1hZT4nLCAnLW9tYWUnLCAnPG91dGZpbGUubWFlPic=

> <r_lp_tautomer_probability>
1

> <r_epik_Ionization_Penalty>
0.000293905

> <r_epik_Ionization_Penalty_Charging>
0

> <r_epik_Ionization_Penalty_Neutral>
0.000293905

> <r_epik_State_Penalty>
-0

> <r_epik_Charging_Adjusted_Penalty>
0

> <i_epik_Tot_Q>
0

> <i_epik_Tot_abs_Q>
0

> <r_epik_Metal_State_Penalty>
-0

> <b_epik_Metal_Only>
0

> <s_lp_Force_Field>
OPLS_2005

> <r_lp_Energy>
3.03909

> <b_lp_Chiralities_Consistent>
1

> <s_lp_Variant>
AV-unprocessed.smi:1220-1

> <Gold.Version>
5.8.1

> <Gold.Id.Protein>
6NUR|6NUR_protein|mol2

> <Gold.PLP.Fitness>
39.7807

> <Gold.PLP.PLP>
-29.5743

> <Gold.PLP.part.hbond>
-2.9027

> <Gold.PLP.part.metal>
0.0000

> <Gold.PLP.part.buried>
-1.6904

> <Gold.PLP.part.nonpolar>
-25.2566

> <Gold.PLP.part.repulsive>
0.4794

> <Gold.PLP.ligand.clash>
0.0000

> <Gold.PLP.ligand.torsion>
0.8405

> <Gold.PLP.Chemscore.Hbond>
1.9588

> <Gold.PLP.Chemscore.CHOScore>
2.0000

> <Gold.PLP.Chemscore.Metal>
0.0000

> <Gold.Chemscore.Hbonds>
donor molecule, donor type, donor heavy atom, donor atom, acceptor molecule, acceptor atom, score
      L1  H     9    28       P1 10175  1.00
      P1  H 11000 11005       L1    16  1.00
      L1  C     5    25       P1 10186  1.00
      L1  C     7    27       P1 10747  1.00

> <Gold.PLP.Chemscore.Internal.Correction>
0.0112

> <Gold.Rescore>
     Score         DG    S(hbond)    S(metal)    S(lipo)     H(rot)  DE(clash)    DE(int)     intcor
     12.65     -13.80       1.74        0.00      59.79       1.75       0.36       0.80       ----

> <Gold.Chemscore.Fitness>
12.6456

> <Gold.Chemscore.DG>
-13.8042

> <Gold.Chemscore.ZeroCoef>
-5.4800

> <Gold.Chemscore.Hbond>
1.7360

> <Gold.Chemscore.Metal>
0.0000

> <Gold.Chemscore.Lipo>
59.7933

> <Gold.Chemscore.Internal_Hbond>
0.0000

> <Gold.Chemscore.DEClash>
0.3568

> <Gold.Chemscore.DEInternal>
0.8018

> <Gold.Chemscore.Rot>
1.7460

> <Gold.Chemscore.Internal.Correction>
   9.000000E+99

> <Gold.Chemscore.Hbonds>
donor molecule, donor type, donor heavy atom, donor atom, acceptor molecule, acceptor atom, score
      L1  H     9    28       P1 10175  0.93
      P1  H 11000 11005       L1    16  1.00

> <Gold.Chemscore.Hbond.Weighted>
-5.7981

> <Gold.Chemscore.Metal.Weighted>
-0.0000

> <Gold.Chemscore.Lipo.Weighted>
-6.9958

> <Gold.Chemscore.Internal_Hbond.Weighted>
0.0000

> <Gold.Chemscore.DEClash.Weighted>
0.3568

> <Gold.Chemscore.DEInternal.Weighted>
0.8018

> <Gold.Chemscore.Rot.Weighted>
4.4697

> <Gold.Chemscore.Internal.Correction.Weighted>
   9.000000E+99

> <Gold.Protein.RotatedTorsions>
[ 6907 6896 6895 6894 ] final  153.62 input  -60.11 | X-H torsion
[ 7974 7965 7964 7962 ] final   28.45 input  175.53 | X-H torsion
[ 8008 7997 7996 7995 ] final  155.79 input   59.86 | X-H torsion
[ 10167 10162 10161 10158 ] final   30.29 input  -65.29 | X-H torsion
[ 10718 10713 10712 10709 ] final   -0.73 input   66.30 | X-H torsion
[ 10763 10752 10751 10750 ] final  -50.49 input  -60.55 | X-H torsion
[ 11005 11000 10999 10996 ] final  108.68 input  -57.11 | X-H torsion

> <Gold.Protein.ActiveResidues>
 VAL166  LYS551  ARG553  GLY616  TRP617  ASP618  TYR619  PRO620  LYS621  CYS622 
 ASP623  PHE694  ASN695  SER759  ASP760  ASP761  ALA762  ILE779  LEU786  VAL792 
 PHE793  MET794  SER795  GLU796  ALA797  LYS798  CYS799  TRP800  GLU811  SER814 

> <Gold.Protein.RotatedAtoms>
  152.0701  133.4102  159.4455 H   0  0  0  0  0  0  0  0  0  0  0  0  # atno 6907 bound_to 6896
  150.6864  134.3101  159.4752 H   0  0  0  0  0  0  0  0  0  0  0  0  # atno 6908 bound_to 6896
  152.0932  134.9392  160.0622 H   0  0  0  0  0  0  0  0  0  0  0  0  # atno 6909 bound_to 6896
  146.1728  139.7055  142.8955 H   0  0  0  0  0  0  0  0  0  0  0  0  # atno 7974 bound_to 7965
  156.2459  140.1930  156.6856 H   0  0  0  0  0  0  0  0  0  0  0  0  # atno 8008 bound_to 7997
  154.6290  140.0598  156.9734 H   0  0  0  0  0  0  0  0  0  0  0  0  # atno 8009 bound_to 7997
  155.1741  140.3271  155.4390 H   0  0  0  0  0  0  0  0  0  0  0  0  # atno 8010 bound_to 7997
  140.4690  144.0791  150.6232 H   0  0  0  0  0  0  0  0  0  0  0  0  # atno 10167 bound_to 10162
  156.8160  130.5440  149.5703 H   0  0  0  0  0  0  0  0  0  0  0  0  # atno 10718 bound_to 10713
  154.1112  135.6549  153.4885 H   0  0  0  0  0  0  0  0  0  0  0  0  # atno 10763 bound_to 10752
  153.0256  135.5248  154.7190 H   0  0  0  0  0  0  0  0  0  0  0  0  # atno 10764 bound_to 10752
  154.6370  135.2983  155.0118 H   0  0  0  0  0  0  0  0  0  0  0  0  # atno 10765 bound_to 10752
  139.8848  134.9437  156.6009 H   0  0  0  0  0  0  0  0  0  0  0  0  # atno 11005 bound_to 11000
  145.4293  141.0414  143.2919 LP  0  0  0  0  0  0  0  0  0  0  0  0  # atno 17320 bound_to 7965
  144.8189  139.5826  143.6995 LP  0  0  0  0  0  0  0  0  0  0  0  0  # atno 17321 bound_to 7965
  140.4000  143.2708  151.9959 LP  0  0  0  0  0  0  0  0  0  0  0  0  # atno 17342 bound_to 10162
  139.4816  144.6005  151.7613 LP  0  0  0  0  0  0  0  0  0  0  0  0  # atno 17343 bound_to 10162
  156.1016  130.5973  150.9903 LP  0  0  0  0  0  0  0  0  0  0  0  0  # atno 17370 bound_to 10713
  157.6481  131.0901  150.8110 LP  0  0  0  0  0  0  0  0  0  0  0  0  # atno 17371 bound_to 10713
  140.7884  133.8602  155.8625 LP  0  0  0  0  0  0  0  0  0  0  0  0  # atno 17394 bound_to 11000
  140.9699  134.1545  157.4585 LP  0  0  0  0  0  0  0  0  0  0  0  0  # atno 17395 bound_to 11000

$$$$
