AV-unprocessed.smi:3252|AV-procd|sdf|12439|dock7
  -GOLD-   2272018333D 1   1.00000     0.00000
 Structure written by MMmdl.
 37 38  0  0  0  0  0  0  0  0  2 V2000
  145.5044  142.8198  157.2834 C   0  0  0  0  0  0  0  0  0  0  0  0
  145.4136  141.4591  156.5780 C   0  0  0  0  0  0  0  0  0  0  0  0
  146.5238  141.2376  155.6179 N   0  3  1  0  0  0  0  0  0  0  0  0
  146.4169  142.1097  154.4244 C   0  0  0  0  0  0  0  0  0  0  0  0
  147.5596  141.8169  153.4386 C   0  0  0  0  0  0  0  0  0  0  0  0
  148.8084  141.9808  154.0983 O   0  0  0  0  0  0  0  0  0  0  0  0
  148.9677  141.0736  155.1843 C   0  0  1  0  0  0  0  0  0  0  0  0
  150.3745  141.2701  155.7751 C   0  0  0  0  0  0  0  0  0  0  0  0
  150.4344  142.3742  156.7255 N   0  0  0  0  0  0  0  0  0  0  0  0
  151.0539  142.2408  157.9768 C   0  0  0  0  0  0  0  0  0  0  0  0
  151.4198  143.4109  158.6750 C   0  0  0  0  0  0  0  0  0  0  0  0
  152.0433  143.2868  159.9322 C   0  0  0  0  0  0  0  0  0  0  0  0
  152.2804  141.9970  160.4466 C   0  0  0  0  0  0  0  0  0  0  0  0
  152.9229  141.8157  161.7370 C   0  0  0  0  0  0  0  0  0  0  0  0
  153.4347  141.6712  162.7645 N   0  0  0  0  0  0  0  0  0  0  0  0
  151.8789  140.8865  159.6770 C   0  0  0  0  0  0  0  0  0  0  0  0
  151.2802  140.9998  158.4714 N   0  0  0  0  0  0  0  0  0  0  0  0
  147.8711  141.3624  156.2277 C   0  0  0  0  0  0  0  0  0  0  0  0
  144.7316  142.9058  158.0473 H   0  0  0  0  0  0  0  0  0  0  0  0
  145.3654  143.6503  156.5919 H   0  0  0  0  0  0  0  0  0  0  0  0
  146.4693  142.9466  157.7746 H   0  0  0  0  0  0  0  0  0  0  0  0
  145.4477  140.6832  157.3441 H   0  0  0  0  0  0  0  0  0  0  0  0
  144.4530  141.3521  156.0722 H   0  0  0  0  0  0  0  0  0  0  0  0
  145.4574  141.9497  153.9310 H   0  0  0  0  0  0  0  0  0  0  0  0
  146.4495  143.1561  154.7324 H   0  0  0  0  0  0  0  0  0  0  0  0
  147.4769  140.8078  153.0312 H   0  0  0  0  0  0  0  0  0  0  0  0
  147.5132  142.5055  152.5948 H   0  0  0  0  0  0  0  0  0  0  0  0
  148.8577  140.0489  154.8251 H   0  0  0  0  0  0  0  0  0  0  0  0
  150.6934  140.3598  156.2834 H   0  0  0  0  0  0  0  0  0  0  0  0
  151.0994  141.4423  154.9785 H   0  0  0  0  0  0  0  0  0  0  0  0
  150.0332  143.2625  156.4607 H   0  0  0  0  0  0  0  0  0  0  0  0
  151.2278  144.3892  158.2588 H   0  0  0  0  0  0  0  0  0  0  0  0
  152.3327  144.1689  160.4854 H   0  0  0  0  0  0  0  0  0  0  0  0
  152.0416  139.8787  160.0308 H   0  0  0  0  0  0  0  0  0  0  0  0
  147.9953  142.3665  156.6369 H   0  0  0  0  0  0  0  0  0  0  0  0
  147.9753  140.6640  157.0575 H   0  0  0  0  0  0  0  0  0  0  0  0
  146.4357  140.2878  155.2854 H   0  0  0  0  0  0  0  0  0  0  0  0
  1  2  1  0  0  0  0
  1 19  1  0  0  0  0
  1 20  1  0  0  0  0
  1 21  1  0  0  0  0
  2  3  1  0  0  0  0
  2 22  1  0  0  0  0
  2 23  1  0  0  0  0
  3 18  1  0  0  0  0
  3  4  1  0  0  0  0
  3 37  1  0  0  0  0
  4  5  1  0  0  0  0
  4 24  1  0  0  0  0
  4 25  1  0  0  0  0
  5  6  1  0  0  0  0
  5 26  1  0  0  0  0
  5 27  1  0  0  0  0
  6  7  1  0  0  0  0
  7  8  1  0  0  0  0
  7 18  1  0  0  0  0
  7 28  1  0  0  0  0
  8  9  1  0  0  0  0
  8 29  1  0  0  0  0
  8 30  1  0  0  0  0
  9 10  1  0  0  0  0
  9 31  1  0  0  0  0
 10 17  1  0  0  0  0
 10 11  2  0  0  0  0
 11 12  1  0  0  0  0
 11 32  1  0  0  0  0
 12 13  2  0  0  0  0
 12 33  1  0  0  0  0
 13 14  1  0  0  0  0
 13 16  1  0  0  0  0
 14 15  3  0  0  0  0
 16 17  2  0  0  0  0
 16 34  1  0  0  0  0
 18 35  1  0  0  0  0
 18 36  1  0  0  0  0
M  CHG  1   3   1
M  END
> <s_m_source_file>
AV-unprocessed.smi

> <i_m_source_file_index>
3252

> <i_lp_mmshare_version>
43012

> <i_f3d_flags>
0

> <s_epik_input>
W0NIM11bQ0gyXU4xW0NIMl1bQ0gyXU9bQ0BIXShbQ0gyXTEpW0NIMl1bTkhdYzJbY0hdW2NIXWMoQyNOKVtjSF1uMg==

> <s_epik_cmdline>
J2VwaWtfcHl0aG9uJywgJy1waCcsICc3LjAnLCAnLXRuJywgJzgnLCAnLW1hJywgJzIwMCcsICctbWV0YWxfYmluZGluZycsICctaW1hZScsICc8aW5maWxlLm1hZT4nLCAnLW9tYWUnLCAnPG91dGZpbGUubWFlPic=

> <r_epik_Ionization_Penalty>
0.178512

> <r_epik_Ionization_Penalty_Charging>
0.178504

> <r_epik_Ionization_Penalty_Neutral>
8.15545e-06

> <r_epik_State_Penalty>
0.167974

> <r_epik_Charging_Adjusted_Penalty>
0.346478

> <i_epik_Tot_Q>
1

> <i_epik_Tot_abs_Q>
1

> <r_epik_Metal_State_Penalty>
0.167974

> <b_epik_Metal_Only>
0

> <s_lp_Force_Field>
OPLS_2005

> <r_lp_Energy>
17.3379

> <b_lp_Chiralities_Consistent>
1

> <s_lp_Variant>
AV-unprocessed.smi:3252-1

> <Gold.Version>
5.8.1

> <Gold.Id.Protein>
6NUR|6NUR_protein|mol2

> <Gold.PLP.Fitness>
40.2757

> <Gold.PLP.PLP>
-36.7045

> <Gold.PLP.part.hbond>
-3.0000

> <Gold.PLP.part.metal>
0.0000

> <Gold.PLP.part.buried>
-5.0096

> <Gold.PLP.part.nonpolar>
-28.1208

> <Gold.PLP.part.repulsive>
0.2942

> <Gold.PLP.ligand.clash>
0.0000

> <Gold.PLP.ligand.torsion>
0.4237

> <Gold.PLP.Chemscore.Hbond>
1.4671

> <Gold.PLP.Chemscore.CHOScore>
0.0000

> <Gold.PLP.Chemscore.Metal>
0.0000

> <Gold.Chemscore.Hbonds>
donor molecule, donor type, donor heavy atom, donor atom, acceptor molecule, acceptor atom, score
      L1  H     9    31       P1  8028  1.00
      P1  H  8011  8017       L1     6  0.25

> <Gold.PLP.Chemscore.Internal.Correction>
0.0174

> <Gold.Rescore>
     Score         DG    S(hbond)    S(metal)    S(lipo)     H(rot)  DE(clash)    DE(int)     intcor
     13.21     -14.15       1.27        0.00      69.97       1.47       0.38       0.56       ----

> <Gold.Chemscore.Fitness>
13.2107

> <Gold.Chemscore.DG>
-14.1475

> <Gold.Chemscore.ZeroCoef>
-5.4800

> <Gold.Chemscore.Hbond>
1.2693

> <Gold.Chemscore.Metal>
0.0000

> <Gold.Chemscore.Lipo>
69.9681

> <Gold.Chemscore.Internal_Hbond>
0.0000

> <Gold.Chemscore.DEClash>
0.3756

> <Gold.Chemscore.DEInternal>
0.5611

> <Gold.Chemscore.Rot>
1.4681

> <Gold.Chemscore.Internal.Correction>
   9.000000E+99

> <Gold.Chemscore.Hbonds>
donor molecule, donor type, donor heavy atom, donor atom, acceptor molecule, acceptor atom, score
      L1  H     9    31       P1  8028  0.94
      P1  H  8011  8017       L1     6  0.02

> <Gold.Chemscore.Hbond.Weighted>
-4.2396

> <Gold.Chemscore.Metal.Weighted>
-0.0000

> <Gold.Chemscore.Lipo.Weighted>
-8.1863

> <Gold.Chemscore.Internal_Hbond.Weighted>
0.0000

> <Gold.Chemscore.DEClash.Weighted>
0.3756

> <Gold.Chemscore.DEInternal.Weighted>
0.5611

> <Gold.Chemscore.Rot.Weighted>
3.7584

> <Gold.Chemscore.Internal.Correction.Weighted>
   9.000000E+99

> <Gold.Protein.RotatedTorsions>
[ 6907 6896 6895 6894 ] final  172.10 input  -60.11 | X-H torsion
[ 7974 7965 7964 7962 ] final   26.37 input  175.53 | X-H torsion
[ 8008 7997 7996 7995 ] final   95.94 input   59.86 | X-H torsion
[ 10167 10162 10161 10158 ] final   55.17 input  -65.29 | X-H torsion
[ 10718 10713 10712 10709 ] final   83.89 input   66.30 | X-H torsion
[ 10763 10752 10751 10750 ] final -149.09 input  -60.55 | X-H torsion
[ 11005 11000 10999 10996 ] final  134.02 input  -57.11 | X-H torsion

> <Gold.Protein.ActiveResidues>
 VAL166  LYS551  ARG553  GLY616  TRP617  ASP618  TYR619  PRO620  LYS621  CYS622 
 ASP623  PHE694  ASN695  SER759  ASP760  ASP761  ALA762  ILE779  LEU786  VAL792 
 PHE793  MET794  SER795  GLU796  ALA797  LYS798  CYS799  TRP800  GLU811  SER814 

> <Gold.Protein.RotatedAtoms>
  151.7897  133.3358  159.3495 H   0  0  0  0  0  0  0  0  0  0  0  0  # atno 6907 bound_to 6896
  150.7396  134.5854  159.5969 H   0  0  0  0  0  0  0  0  0  0  0  0  # atno 6908 bound_to 6896
  152.3218  134.7371  160.0363 H   0  0  0  0  0  0  0  0  0  0  0  0  # atno 6909 bound_to 6896
  146.1841  139.7337  142.8879 H   0  0  0  0  0  0  0  0  0  0  0  0  # atno 7974 bound_to 7965
  156.0743  140.3279  155.7614 H   0  0  0  0  0  0  0  0  0  0  0  0  # atno 8008 bound_to 7997
  155.5256  140.0589  157.2916 H   0  0  0  0  0  0  0  0  0  0  0  0  # atno 8009 bound_to 7997
  154.4547  140.1936  156.0433 H   0  0  0  0  0  0  0  0  0  0  0  0  # atno 8010 bound_to 7997
  140.2223  144.3775  150.6446 H   0  0  0  0  0  0  0  0  0  0  0  0  # atno 10167 bound_to 10162
  157.6888  131.0110  150.2591 H   0  0  0  0  0  0  0  0  0  0  0  0  # atno 10718 bound_to 10713
  154.8197  135.3318  154.7075 H   0  0  0  0  0  0  0  0  0  0  0  0  # atno 10763 bound_to 10752
  153.7710  135.6925  153.4911 H   0  0  0  0  0  0  0  0  0  0  0  0  # atno 10764 bound_to 10752
  153.2045  135.4504  155.0255 H   0  0  0  0  0  0  0  0  0  0  0  0  # atno 10765 bound_to 10752
  139.9888  134.9522  156.9808 H   0  0  0  0  0  0  0  0  0  0  0  0  # atno 11005 bound_to 11000
  145.3991  141.0383  143.3080 LP  0  0  0  0  0  0  0  0  0  0  0  0  # atno 17320 bound_to 7965
  144.8365  139.5541  143.6919 LP  0  0  0  0  0  0  0  0  0  0  0  0  # atno 17321 bound_to 7965
  140.6246  143.2180  151.6623 LP  0  0  0  0  0  0  0  0  0  0  0  0  # atno 17342 bound_to 10162
  139.5140  144.3426  152.0726 LP  0  0  0  0  0  0  0  0  0  0  0  0  # atno 17343 bound_to 10162
  156.3173  130.3780  149.7606 LP  0  0  0  0  0  0  0  0  0  0  0  0  # atno 17370 bound_to 10713
  156.5188  130.8205  151.3196 LP  0  0  0  0  0  0  0  0  0  0  0  0  # atno 17371 bound_to 10713
  140.4948  134.1156  155.7239 LP  0  0  0  0  0  0  0  0  0  0  0  0  # atno 17394 bound_to 11000
  141.1548  133.8902  157.2005 LP  0  0  0  0  0  0  0  0  0  0  0  0  # atno 17395 bound_to 11000

$$$$
