AV-unprocessed.smi:3346|AV-procd|sdf|12907|dock3
  -GOLD-   2272019323D 1   1.00000     0.00000
 Structure written by MMmdl.
 48 49  0  0  0  0  0  0  0  0  2 V2000
  144.2713  132.1194  150.9578 C   0  0  0  0  0  0  0  0  0  0  0  0
  145.4272  132.7202  150.1405 C   0  0  0  0  0  0  0  0  0  0  0  0
  145.8815  131.7340  149.0532 C   0  0  0  0  0  0  0  0  0  0  0  0
  146.6265  133.1273  151.0232 C   0  0  0  0  0  0  0  0  0  0  0  0
  146.3021  133.9755  152.2755 C   0  0  2  0  0  0  0  0  0  0  0  0
  145.6486  135.3193  151.9173 C   0  0  0  0  0  0  0  0  0  0  0  0
  147.5430  134.2306  153.0375 N   0  3  0  0  0  0  0  0  0  0  0  0
  148.3687  133.0357  153.3108 C   0  0  0  0  0  0  0  0  0  0  0  0
  149.3718  133.3332  154.4125 C   0  0  0  0  0  0  0  0  0  0  0  0
  149.5909  134.6665  154.8190 C   0  0  0  0  0  0  0  0  0  0  0  0
  150.5391  134.9289  155.8243 C   0  0  0  0  0  0  0  0  0  0  0  0
  151.2355  133.8426  156.3853 C   0  0  0  0  0  0  0  0  0  0  0  0
  151.0370  132.5630  156.0057 N   0  0  0  0  0  0  0  0  0  0  0  0
  150.1240  132.3046  155.0386 C   0  0  0  0  0  0  0  0  0  0  0  0
  149.9249  130.9610  154.6747 N   0  0  0  0  0  0  0  0  0  0  0  0
  150.9326  130.0192  155.1503 C   0  0  0  0  0  0  0  0  0  0  0  0
  150.6692  128.6255  154.5542 C   0  0  0  0  0  0  0  0  0  0  0  0
  149.3479  128.2094  154.8860 O   0  0  0  0  0  0  0  0  0  0  0  0
  148.3583  129.0912  154.3635 C   0  0  0  0  0  0  0  0  0  0  0  0
  148.5652  130.5048  154.9367 C   0  0  0  0  0  0  0  0  0  0  0  0
  144.6011  131.2560  151.5369 H   0  0  0  0  0  0  0  0  0  0  0  0
  143.4616  131.7904  150.3060 H   0  0  0  0  0  0  0  0  0  0  0  0
  143.8463  132.8463  151.6495 H   0  0  0  0  0  0  0  0  0  0  0  0
  145.0514  133.6045  149.6261 H   0  0  0  0  0  0  0  0  0  0  0  0
  146.2741  130.8148  149.4895 H   0  0  0  0  0  0  0  0  0  0  0  0
  146.6657  132.1665  148.4307 H   0  0  0  0  0  0  0  0  0  0  0  0
  145.0547  131.4634  148.3956 H   0  0  0  0  0  0  0  0  0  0  0  0
  147.1427  132.2169  151.3248 H   0  0  0  0  0  0  0  0  0  0  0  0
  147.3435  133.6775  150.4120 H   0  0  0  0  0  0  0  0  0  0  0  0
  145.6187  133.4348  152.9309 H   0  0  0  0  0  0  0  0  0  0  0  0
  144.6753  135.1792  151.4475 H   0  0  0  0  0  0  0  0  0  0  0  0
  146.2715  135.8959  151.2326 H   0  0  0  0  0  0  0  0  0  0  0  0
  145.4866  135.9257  152.8092 H   0  0  0  0  0  0  0  0  0  0  0  0
  148.0955  134.8982  152.5188 H   0  0  0  0  0  0  0  0  0  0  0  0
  147.7172  132.2115  153.6027 H   0  0  0  0  0  0  0  0  0  0  0  0
  148.8951  132.7045  152.4162 H   0  0  0  0  0  0  0  0  0  0  0  0
  149.0436  135.4797  154.3651 H   0  0  0  0  0  0  0  0  0  0  0  0
  150.7299  135.9386  156.1566 H   0  0  0  0  0  0  0  0  0  0  0  0
  151.9716  134.0051  157.1586 H   0  0  0  0  0  0  0  0  0  0  0  0
  151.9266  130.3675  154.8678 H   0  0  0  0  0  0  0  0  0  0  0  0
  150.9050  129.9619  156.2394 H   0  0  0  0  0  0  0  0  0  0  0  0
  150.7988  128.6311  153.4709 H   0  0  0  0  0  0  0  0  0  0  0  0
  151.3804  127.9040  154.9564 H   0  0  0  0  0  0  0  0  0  0  0  0
  148.4046  129.0994  153.2739 H   0  0  0  0  0  0  0  0  0  0  0  0
  147.3711  128.7174  154.6352 H   0  0  0  0  0  0  0  0  0  0  0  0
  148.3872  130.4988  156.0132 H   0  0  0  0  0  0  0  0  0  0  0  0
  147.8444  131.1950  154.4968 H   0  0  0  0  0  0  0  0  0  0  0  0
  147.2983  134.6414  153.9271 H   0  0  0  0  0  0  0  0  0  0  0  0
  1  2  1  0  0  0  0
  1 21  1  0  0  0  0
  1 22  1  0  0  0  0
  1 23  1  0  0  0  0
  2  3  1  0  0  0  0
  2  4  1  0  0  0  0
  2 24  1  0  0  0  0
  3 25  1  0  0  0  0
  3 26  1  0  0  0  0
  3 27  1  0  0  0  0
  4  5  1  0  0  0  0
  4 28  1  0  0  0  0
  4 29  1  0  0  0  0
  5  6  1  0  0  0  0
  5  7  1  0  0  0  0
  5 30  1  0  0  0  0
  6 31  1  0  0  0  0
  6 32  1  0  0  0  0
  6 33  1  0  0  0  0
  7  8  1  0  0  0  0
  7 34  1  0  0  0  0
  7 48  1  0  0  0  0
  8  9  1  0  0  0  0
  8 35  1  0  0  0  0
  8 36  1  0  0  0  0
  9 14  1  0  0  0  0
  9 10  2  0  0  0  0
 10 11  1  0  0  0  0
 10 37  1  0  0  0  0
 11 12  2  0  0  0  0
 11 38  1  0  0  0  0
 12 13  1  0  0  0  0
 12 39  1  0  0  0  0
 13 14  2  0  0  0  0
 14 15  1  0  0  0  0
 15 20  1  0  0  0  0
 15 16  1  0  0  0  0
 16 17  1  0  0  0  0
 16 40  1  0  0  0  0
 16 41  1  0  0  0  0
 17 18  1  0  0  0  0
 17 42  1  0  0  0  0
 17 43  1  0  0  0  0
 18 19  1  0  0  0  0
 19 20  1  0  0  0  0
 19 44  1  0  0  0  0
 19 45  1  0  0  0  0
 20 46  1  0  0  0  0
 20 47  1  0  0  0  0
M  CHG  1   7   1
M  END
> <s_m_source_file>
AV-unprocessed.smi

> <i_m_source_file_index>
3346

> <i_lp_mmshare_version>
43012

> <i_f3d_flags>
0

> <s_epik_input>
W0NIM11bQ0hdKFtDSDNdKVtDSDJdW0NASF0oW0NIM10pW05IXVtDSDJdYzFbY0hdW2NIXVtjSF1uYzFOMltDSDJdW0NIMl1PW0NIMl1bQ0gyXTI=

> <s_epik_cmdline>
J2VwaWtfcHl0aG9uJywgJy1waCcsICc3LjAnLCAnLXRuJywgJzgnLCAnLW1hJywgJzIwMCcsICctbWV0YWxfYmluZGluZycsICctaW1hZScsICc8aW5maWxlLm1hZT4nLCAnLW9tYWUnLCAnPG91dGZpbGUubWFlPic=

> <r_lp_tautomer_probability>
1

> <r_epik_Ionization_Penalty>
0.0185938

> <r_epik_Ionization_Penalty_Charging>
0.0176519

> <r_epik_Ionization_Penalty_Neutral>
0.000941891

> <r_epik_State_Penalty>
0.0140027

> <r_epik_Charging_Adjusted_Penalty>
0.0316546

> <i_epik_Tot_Q>
1

> <i_epik_Tot_abs_Q>
1

> <r_epik_Metal_State_Penalty>
0.0141454

> <b_epik_Metal_Only>
0

> <s_lp_Force_Field>
OPLS_2005

> <r_lp_Energy>
22.6913

> <b_lp_Chiralities_Consistent>
1

> <s_lp_Variant>
AV-unprocessed.smi:3346-1

> <Gold.Version>
5.8.1

> <Gold.Id.Protein>
6NUR|6NUR_protein|mol2

> <Gold.PLP.Fitness>
41.6590

> <Gold.PLP.PLP>
-36.3381

> <Gold.PLP.part.hbond>
-1.0000

> <Gold.PLP.part.metal>
0.0000

> <Gold.PLP.part.buried>
-4.2802

> <Gold.PLP.part.nonpolar>
-31.7337

> <Gold.PLP.part.repulsive>
0.0911

> <Gold.PLP.ligand.clash>
0.0326

> <Gold.PLP.ligand.torsion>
0.4426

> <Gold.PLP.Chemscore.Hbond>
2.0000

> <Gold.PLP.Chemscore.CHOScore>
0.0000

> <Gold.PLP.Chemscore.Metal>
0.0000

> <Gold.Chemscore.Hbonds>
donor molecule, donor type, donor heavy atom, donor atom, acceptor molecule, acceptor atom, score
      L1  H     7    34       P1  7948  2.00

> <Gold.PLP.Chemscore.Internal.Correction>
0.2387

> <Gold.Rescore>
     Score         DG    S(hbond)    S(metal)    S(lipo)     H(rot)  DE(clash)    DE(int)     intcor
     14.45     -15.07       0.87        0.00      92.57       1.62       0.05       0.57       ----

> <Gold.Chemscore.Fitness>
14.4497

> <Gold.Chemscore.DG>
-15.0725

> <Gold.Chemscore.ZeroCoef>
-5.4800

> <Gold.Chemscore.Hbond>
0.8747

> <Gold.Chemscore.Metal>
0.0000

> <Gold.Chemscore.Lipo>
92.5692

> <Gold.Chemscore.Internal_Hbond>
0.0000

> <Gold.Chemscore.DEClash>
0.0484

> <Gold.Chemscore.DEInternal>
0.5744

> <Gold.Chemscore.Rot>
1.6248

> <Gold.Chemscore.Internal.Correction>
   9.000000E+99

> <Gold.Chemscore.Hbonds>
donor molecule, donor type, donor heavy atom, donor atom, acceptor molecule, acceptor atom, score
      L1  H     7    34       P1  7948  0.74

> <Gold.Chemscore.Hbond.Weighted>
-2.9215

> <Gold.Chemscore.Metal.Weighted>
-0.0000

> <Gold.Chemscore.Lipo.Weighted>
-10.8306

> <Gold.Chemscore.Internal_Hbond.Weighted>
0.0000

> <Gold.Chemscore.DEClash.Weighted>
0.0484

> <Gold.Chemscore.DEInternal.Weighted>
0.5744

> <Gold.Chemscore.Rot.Weighted>
4.1596

> <Gold.Chemscore.Internal.Correction.Weighted>
   9.000000E+99

> <Gold.Protein.RotatedTorsions>
[ 6907 6896 6895 6894 ] final  123.18 input  -60.11 | X-H torsion
[ 7974 7965 7964 7962 ] final   56.33 input  175.53 | X-H torsion
[ 8008 7997 7996 7995 ] final  -76.33 input   59.86 | X-H torsion
[ 10167 10162 10161 10158 ] final   62.66 input  -65.29 | X-H torsion
[ 10718 10713 10712 10709 ] final  179.40 input   66.30 | X-H torsion
[ 10763 10752 10751 10750 ] final   21.44 input  -60.55 | X-H torsion
[ 11005 11000 10999 10996 ] final   25.79 input  -57.11 | X-H torsion

> <Gold.Protein.ActiveResidues>
 VAL166  LYS551  ARG553  GLY616  TRP617  ASP618  TYR619  PRO620  LYS621  CYS622 
 ASP623  PHE694  ASN695  SER759  ASP760  ASP761  ALA762  ILE779  LEU786  VAL792 
 PHE793  MET794  SER795  GLU796  ALA797  LYS798  CYS799  TRP800  GLU811  SER814 

> <Gold.Protein.RotatedAtoms>
  152.4183  133.7074  159.6458 H   0  0  0  0  0  0  0  0  0  0  0  0  # atno 6907 bound_to 6896
  150.8059  133.8500  159.3211 H   0  0  0  0  0  0  0  0  0  0  0  0  # atno 6908 bound_to 6896
  151.6224  135.1033  160.0156 H   0  0  0  0  0  0  0  0  0  0  0  0  # atno 6909 bound_to 6896
  145.9410  139.3888  143.0364 H   0  0  0  0  0  0  0  0  0  0  0  0  # atno 7974 bound_to 7965
  154.5495  140.0729  156.8645 H   0  0  0  0  0  0  0  0  0  0  0  0  # atno 8008 bound_to 7997
  155.3020  140.3385  155.4229 H   0  0  0  0  0  0  0  0  0  0  0  0  # atno 8009 bound_to 7997
  156.1949  140.1700  156.8004 H   0  0  0  0  0  0  0  0  0  0  0  0  # atno 8010 bound_to 7997
  140.1414  144.4549  150.6809 H   0  0  0  0  0  0  0  0  0  0  0  0  # atno 10167 bound_to 10162
  156.8764  130.9801  151.3067 H   0  0  0  0  0  0  0  0  0  0  0  0  # atno 10718 bound_to 10713
  153.0995  135.6669  153.9699 H   0  0  0  0  0  0  0  0  0  0  0  0  # atno 10763 bound_to 10752
  153.9273  135.3008  155.3448 H   0  0  0  0  0  0  0  0  0  0  0  0  # atno 10764 bound_to 10752
  154.7416  135.5077  153.9207 H   0  0  0  0  0  0  0  0  0  0  0  0  # atno 10765 bound_to 10752
  140.3440  134.2302  155.7687 H   0  0  0  0  0  0  0  0  0  0  0  0  # atno 11005 bound_to 11000
  145.8300  140.9635  143.0854 LP  0  0  0  0  0  0  0  0  0  0  0  0  # atno 17320 bound_to 7965
  144.6779  140.0150  143.7484 LP  0  0  0  0  0  0  0  0  0  0  0  0  # atno 17321 bound_to 7965
  140.6758  143.2304  151.5511 LP  0  0  0  0  0  0  0  0  0  0  0  0  # atno 17342 bound_to 10162
  139.5470  144.2495  152.1460 LP  0  0  0  0  0  0  0  0  0  0  0  0  # atno 17343 bound_to 10162
  157.6166  130.8623  149.9039 LP  0  0  0  0  0  0  0  0  0  0  0  0  # atno 17370 bound_to 10713
  156.0700  130.3686  150.0796 LP  0  0  0  0  0  0  0  0  0  0  0  0  # atno 17371 bound_to 10713
  141.2031  133.7921  157.0358 LP  0  0  0  0  0  0  0  0  0  0  0  0  # atno 17394 bound_to 11000
  140.0758  134.9677  157.1542 LP  0  0  0  0  0  0  0  0  0  0  0  0  # atno 17395 bound_to 11000

$$$$
