AV-unprocessed.smi:1762|AV-procd|sdf|7102|dock2
  -GOLD-   22720 8323D 1   1.00000     0.00000
 Structure written by MMmdl.
 52 53  0  0  0  0  0  0  0  0  1 V2000
  146.4727  129.4070  151.7930 C   0  0  0  0  0  0  0  0  0  0  0  0
  146.0039  130.7942  152.2452 C   0  0  1  0  0  0  0  0  0  0  0  0
  147.1565  131.6463  152.8101 C   0  0  0  0  0  0  0  0  0  0  0  0
  146.7322  133.0024  153.1779 N   0  0  0  0  0  0  0  0  0  0  0  0
  147.8352  133.8208  153.7554 C   0  0  1  0  0  0  0  0  0  0  0  0
  147.3277  135.0599  154.5308 C   0  0  0  0  0  0  0  0  0  0  0  0
  146.6286  134.9236  155.5356 O   0  0  0  0  0  0  0  0  0  0  0  0
  147.6608  136.2605  154.0310 N   0  0  0  0  0  0  0  0  0  0  0  0
  147.2418  137.5418  154.5852 C   0  0  0  0  0  0  0  0  0  0  0  0
  147.7686  138.7163  153.7435 C   0  0  0  0  0  0  0  0  0  0  0  0
  148.9511  139.4053  154.3972 C   0  0  0  0  0  0  0  0  0  0  0  0
  150.1580  138.7080  154.6192 C   0  0  0  0  0  0  0  0  0  0  0  0
  151.2293  139.3958  155.2212 C   0  0  0  0  0  0  0  0  0  0  0  0
  151.0538  140.7475  155.5749 C   0  0  0  0  0  0  0  0  0  0  0  0
  149.8095  141.3535  155.3104 C   0  0  0  0  0  0  0  0  0  0  0  0
  148.7757  140.7032  154.7336 N   0  0  0  0  0  0  0  0  0  0  0  0
  148.8808  133.0220  154.6043 C   0  0  0  0  0  0  0  0  0  0  0  0
  148.2879  132.3503  155.8587 C   0  0  0  0  0  0  0  0  0  0  0  0
  150.1291  133.8472  154.9763 C   0  0  0  0  0  0  0  0  0  0  0  0
  146.0702  133.6155  152.0126 C   0  0  0  0  0  0  0  0  0  0  0  0
  144.9307  132.7472  151.4451 C   0  0  1  0  0  0  0  0  0  0  0  0
  144.3183  133.3491  150.1752 C   0  0  0  0  0  0  0  0  0  0  0  0
  145.4384  131.4588  151.1229 O   0  0  0  0  0  0  0  0  0  0  0  0
  146.9029  128.8477  152.6240 H   0  0  0  0  0  0  0  0  0  0  0  0
  147.2294  129.4817  151.0114 H   0  0  0  0  0  0  0  0  0  0  0  0
  145.6404  128.8251  151.3965 H   0  0  0  0  0  0  0  0  0  0  0  0
  145.2343  130.6699  153.0093 H   0  0  0  0  0  0  0  0  0  0  0  0
  147.5437  131.1150  153.6772 H   0  0  0  0  0  0  0  0  0  0  0  0
  147.9678  131.6960  152.0818 H   0  0  0  0  0  0  0  0  0  0  0  0
  148.3969  134.2206  152.9082 H   0  0  0  0  0  0  0  0  0  0  0  0
  148.2321  136.2868  153.1989 H   0  0  0  0  0  0  0  0  0  0  0  0
  146.1536  137.5813  154.6580 H   0  0  0  0  0  0  0  0  0  0  0  0
  147.6236  137.6111  155.6042 H   0  0  0  0  0  0  0  0  0  0  0  0
  148.0663  138.3636  152.7549 H   0  0  0  0  0  0  0  0  0  0  0  0
  146.9768  139.4485  153.5802 H   0  0  0  0  0  0  0  0  0  0  0  0
  150.2627  137.6715  154.3334 H   0  0  0  0  0  0  0  0  0  0  0  0
  152.1687  138.8962  155.4071 H   0  0  0  0  0  0  0  0  0  0  0  0
  151.8537  141.3068  156.0375 H   0  0  0  0  0  0  0  0  0  0  0  0
  149.6400  142.3885  155.5682 H   0  0  0  0  0  0  0  0  0  0  0  0
  149.2747  132.2246  153.9762 H   0  0  0  0  0  0  0  0  0  0  0  0
  147.9494  133.0816  156.5919 H   0  0  0  0  0  0  0  0  0  0  0  0
  149.0318  131.7214  156.3485 H   0  0  0  0  0  0  0  0  0  0  0  0
  147.4407  131.7111  155.6096 H   0  0  0  0  0  0  0  0  0  0  0  0
  149.9033  134.6308  155.7000 H   0  0  0  0  0  0  0  0  0  0  0  0
  150.5656  134.3191  154.0955 H   0  0  0  0  0  0  0  0  0  0  0  0
  150.8966  133.2118  155.4189 H   0  0  0  0  0  0  0  0  0  0  0  0
  145.6311  134.5796  152.2666 H   0  0  0  0  0  0  0  0  0  0  0  0
  146.8077  133.8051  151.2307 H   0  0  0  0  0  0  0  0  0  0  0  0
  144.1448  132.6418  152.1952 H   0  0  0  0  0  0  0  0  0  0  0  0
  143.9015  134.3375  150.3696 H   0  0  0  0  0  0  0  0  0  0  0  0
  143.5146  132.7189  149.7939 H   0  0  0  0  0  0  0  0  0  0  0  0
  145.0649  133.4492  149.3866 H   0  0  0  0  0  0  0  0  0  0  0  0
  1  2  1  0  0  0  0
  1 24  1  0  0  0  0
  1 25  1  0  0  0  0
  1 26  1  0  0  0  0
  2 23  1  0  0  0  0
  2  3  1  0  0  0  0
  2 27  1  0  0  0  0
  3  4  1  0  0  0  0
  3 28  1  0  0  0  0
  3 29  1  0  0  0  0
  4  5  1  0  0  0  0
  4 20  1  0  0  0  0
  5  6  1  0  0  0  0
  5 17  1  0  0  0  0
  5 30  1  0  0  0  0
  6  7  2  0  0  0  0
  6  8  1  0  0  0  0
  8  9  1  0  0  0  0
  8 31  1  0  0  0  0
  9 10  1  0  0  0  0
  9 32  1  0  0  0  0
  9 33  1  0  0  0  0
 10 11  1  0  0  0  0
 10 34  1  0  0  0  0
 10 35  1  0  0  0  0
 11 16  1  0  0  0  0
 11 12  2  0  0  0  0
 12 13  1  0  0  0  0
 12 36  1  0  0  0  0
 13 14  2  0  0  0  0
 13 37  1  0  0  0  0
 14 15  1  0  0  0  0
 14 38  1  0  0  0  0
 15 16  2  0  0  0  0
 15 39  1  0  0  0  0
 17 18  1  0  0  0  0
 17 19  1  0  0  0  0
 17 40  1  0  0  0  0
 18 41  1  0  0  0  0
 18 42  1  0  0  0  0
 18 43  1  0  0  0  0
 19 44  1  0  0  0  0
 19 45  1  0  0  0  0
 19 46  1  0  0  0  0
 20 21  1  0  0  0  0
 20 47  1  0  0  0  0
 20 48  1  0  0  0  0
 21 22  1  0  0  0  0
 21 23  1  0  0  0  0
 21 49  1  0  0  0  0
 22 50  1  0  0  0  0
 22 51  1  0  0  0  0
 22 52  1  0  0  0  0
M  END
> <s_m_source_file>
AV-unprocessed.smi

> <i_m_source_file_index>
1762

> <i_lp_mmshare_version>
43012

> <i_f3d_flags>
0

> <s_epik_input>
W0NIM11bQ0BASF0xW0NIMl1OKFtDSDJdW0NASF0oTzEpW0NIM10pW0NAQEhdKFtDSF0oW0NIM10pW0NIM10pQyg9TylbTkhdW0NIMl1bQ0gyXWMyW2NIXVtjSF1bY0hdW2NIXW4y

> <s_epik_cmdline>
J2VwaWtfcHl0aG9uJywgJy1waCcsICc3LjAnLCAnLXRuJywgJzgnLCAnLW1hJywgJzIwMCcsICctbWV0YWxfYmluZGluZycsICctaW1hZScsICc8aW5maWxlLm1hZT4nLCAnLW9tYWUnLCAnPG91dGZpbGUubWFlPic=

> <r_epik_Ionization_Penalty>
0.0399736

> <r_epik_Ionization_Penalty_Charging>
0

> <r_epik_Ionization_Penalty_Neutral>
0.0399736

> <r_epik_State_Penalty>
0.0317634

> <r_epik_Charging_Adjusted_Penalty>
0.0317634

> <i_epik_Tot_Q>
0

> <i_epik_Tot_abs_Q>
0

> <r_epik_Metal_State_Penalty>
0.0307795

> <b_epik_Metal_Only>
0

> <s_lp_Force_Field>
OPLS_2005

> <r_lp_Energy>
24.971

> <b_lp_Chiralities_Consistent>
1

> <s_lp_Variant>
AV-unprocessed.smi:1762-4

> <Gold.Version>
5.8.1

> <Gold.Id.Protein>
6NUR|6NUR_protein|mol2

> <Gold.PLP.Fitness>
40.5229

> <Gold.PLP.PLP>
-35.8164

> <Gold.PLP.part.hbond>
-1.0000

> <Gold.PLP.part.metal>
0.0000

> <Gold.PLP.part.buried>
-3.6977

> <Gold.PLP.part.nonpolar>
-31.7440

> <Gold.PLP.part.repulsive>
0.3506

> <Gold.PLP.ligand.clash>
0.0000

> <Gold.PLP.ligand.torsion>
0.8064

> <Gold.PLP.Chemscore.Hbond>
1.0000

> <Gold.PLP.Chemscore.CHOScore>
1.0000

> <Gold.PLP.Chemscore.Metal>
0.0000

> <Gold.Chemscore.Hbonds>
donor molecule, donor type, donor heavy atom, donor atom, acceptor molecule, acceptor atom, score
      L1  H     8    31       P1  7948  0.98
      L1  C    15    39       P1  8028  1.00

> <Gold.PLP.Chemscore.Internal.Correction>
0.3193

> <Gold.Rescore>
     Score         DG    S(hbond)    S(metal)    S(lipo)     H(rot)  DE(clash)    DE(int)     intcor
     15.77     -16.47       0.94        0.00     101.99       1.60       0.01       0.70       ----

> <Gold.Chemscore.Fitness>
15.7674

> <Gold.Chemscore.DG>
-16.4726

> <Gold.Chemscore.ZeroCoef>
-5.4800

> <Gold.Chemscore.Hbond>
0.9444

> <Gold.Chemscore.Metal>
0.0000

> <Gold.Chemscore.Lipo>
101.9868

> <Gold.Chemscore.Internal_Hbond>
0.0000

> <Gold.Chemscore.DEClash>
0.0089

> <Gold.Chemscore.DEInternal>
0.6963

> <Gold.Chemscore.Rot>
1.5993

> <Gold.Chemscore.Internal.Correction>
   9.000000E+99

> <Gold.Chemscore.Hbonds>
donor molecule, donor type, donor heavy atom, donor atom, acceptor molecule, acceptor atom, score
      L1  H     8    31       P1  7948  0.91

> <Gold.Chemscore.Hbond.Weighted>
-3.1542

> <Gold.Chemscore.Metal.Weighted>
-0.0000

> <Gold.Chemscore.Lipo.Weighted>
-11.9325

> <Gold.Chemscore.Internal_Hbond.Weighted>
0.0000

> <Gold.Chemscore.DEClash.Weighted>
0.0089

> <Gold.Chemscore.DEInternal.Weighted>
0.6963

> <Gold.Chemscore.Rot.Weighted>
4.0941

> <Gold.Chemscore.Internal.Correction.Weighted>
   9.000000E+99

> <Gold.Protein.RotatedTorsions>
[ 6907 6896 6895 6894 ] final  119.62 input  -60.11 | X-H torsion
[ 7974 7965 7964 7962 ] final  -72.50 input  175.53 | X-H torsion
[ 8008 7997 7996 7995 ] final   64.52 input   59.86 | X-H torsion
[ 10167 10162 10161 10158 ] final  -96.44 input  -65.29 | X-H torsion
[ 10718 10713 10712 10709 ] final  -16.05 input   66.30 | X-H torsion
[ 10763 10752 10751 10750 ] final -153.93 input  -60.55 | X-H torsion
[ 11005 11000 10999 10996 ] final   -8.31 input  -57.11 | X-H torsion

> <Gold.Protein.ActiveResidues>
 VAL166  LYS551  ARG553  GLY616  TRP617  ASP618  TYR619  PRO620  LYS621  CYS622 
 ASP623  PHE694  ASN695  SER759  ASP760  ASP761  ALA762  ILE779  LEU786  VAL792 
 PHE793  MET794  SER795  GLU796  ALA797  LYS798  CYS799  TRP800  GLU811  SER814 

> <Gold.Protein.RotatedAtoms>
  152.4459  133.7535  159.6706 H   0  0  0  0  0  0  0  0  0  0  0  0  # atno 6907 bound_to 6896
  150.8358  133.8005  159.3086 H   0  0  0  0  0  0  0  0  0  0  0  0  # atno 6908 bound_to 6896
  151.5645  135.1067  160.0032 H   0  0  0  0  0  0  0  0  0  0  0  0  # atno 6909 bound_to 6896
  145.6644  140.9242  143.0917 H   0  0  0  0  0  0  0  0  0  0  0  0  # atno 7974 bound_to 7965
  155.6473  140.3497  155.4735 H   0  0  0  0  0  0  0  0  0  0  0  0  # atno 8008 bound_to 7997
  155.9877  140.1187  157.0691 H   0  0  0  0  0  0  0  0  0  0  0  0  # atno 8009 bound_to 7997
  154.4210  140.1125  156.5509 H   0  0  0  0  0  0  0  0  0  0  0  0  # atno 8010 bound_to 7997
  140.2938  143.3205  152.0319 H   0  0  0  0  0  0  0  0  0  0  0  0  # atno 10167 bound_to 10162
  156.5930  130.4804  149.6271 H   0  0  0  0  0  0  0  0  0  0  0  0  # atno 10718 bound_to 10713
  154.7894  135.3201  154.7812 H   0  0  0  0  0  0  0  0  0  0  0  0  # atno 10763 bound_to 10752
  153.8504  135.6862  153.4797 H   0  0  0  0  0  0  0  0  0  0  0  0  # atno 10764 bound_to 10752
  153.1558  135.4681  154.9642 H   0  0  0  0  0  0  0  0  0  0  0  0  # atno 10765 bound_to 10752
  140.7222  133.8819  155.8829 H   0  0  0  0  0  0  0  0  0  0  0  0  # atno 11005 bound_to 11000
  144.7078  139.8490  143.7424 LP  0  0  0  0  0  0  0  0  0  0  0  0  # atno 17320 bound_to 7965
  146.1098  139.4102  143.0294 LP  0  0  0  0  0  0  0  0  0  0  0  0  # atno 17321 bound_to 7965
  139.4931  144.6506  151.6684 LP  0  0  0  0  0  0  0  0  0  0  0  0  # atno 17342 bound_to 10162
  140.5710  144.0109  150.6217 LP  0  0  0  0  0  0  0  0  0  0  0  0  # atno 17343 bound_to 10162
  156.2533  130.6920  151.1665 LP  0  0  0  0  0  0  0  0  0  0  0  0  # atno 17370 bound_to 10713
  157.7299  131.0621  150.5753 LP  0  0  0  0  0  0  0  0  0  0  0  0  # atno 17371 bound_to 10713
  140.9994  134.1171  157.4332 LP  0  0  0  0  0  0  0  0  0  0  0  0  # atno 17394 bound_to 11000
  139.8845  135.0064  156.6376 LP  0  0  0  0  0  0  0  0  0  0  0  0  # atno 17395 bound_to 11000

$$$$
