AV-unprocessed.smi:158|AV-procd|sdf|1332|dock4
  -GOLD-   2262019 33D 1   1.00000     0.00000
 Structure written by MMmdl.
 31 33  0  0  0  0  0  0  0  0  1 V2000
  149.1373  130.2707  155.9232 N   0  0  0  0  0  0  0  0  0  0  0  0
  148.8734  131.2836  155.0857 C   0  0  0  0  0  0  0  0  0  0  0  0
  149.4820  132.4727  155.3021 N   0  0  0  0  0  0  0  0  0  0  0  0
  149.2457  133.5107  154.4903 C   0  0  0  0  0  0  0  0  0  0  0  0
  150.0739  134.9773  154.8592 Cl  0  0  0  0  0  0  0  0  0  0  0  0
  148.4380  133.5393  153.4252 N   0  0  0  0  0  0  0  0  0  0  0  0
  147.8217  132.3418  153.2033 C   0  0  0  0  0  0  0  0  0  0  0  0
  147.9878  131.1682  153.9864 C   0  0  0  0  0  0  0  0  0  0  0  0
  147.2109  130.1399  153.4700 N   0  0  0  0  0  0  0  0  0  0  0  0
  146.6200  130.6811  152.4381 C   0  0  0  0  0  0  0  0  0  0  0  0
  146.9296  132.0030  152.2050 N   0  0  0  0  0  0  0  0  0  0  0  0
  146.4117  132.8818  151.1107 C   0  0  1  0  0  0  0  0  0  0  0  0
  145.5277  132.1535  150.3095 O   0  0  0  0  0  0  0  0  0  0  0  0
  144.3161  132.8863  150.1187 C   0  0  2  0  0  0  0  0  0  0  0  0
  143.8335  132.7002  148.6721 C   0  0  0  0  0  0  0  0  0  0  0  0
  142.5659  132.0788  148.6470 O   0  0  0  0  0  0  0  0  0  0  0  0
  144.6863  134.3259  150.4960 C   0  0  1  0  0  0  0  0  0  0  0  0
  143.5827  135.1199  150.8840 O   0  0  0  0  0  0  0  0  0  0  0  0
  145.6491  134.0986  151.6446 C   0  0  1  0  0  0  0  0  0  0  0  0
  144.9959  133.7744  152.7649 F   0  0  0  0  0  0  0  0  0  0  0  0
  147.2896  133.1542  150.5235 H   0  0  0  0  0  0  0  0  0  0  0  0
  143.5809  132.4881  150.8206 H   0  0  0  0  0  0  0  0  0  0  0  0
  145.2077  134.8111  149.6696 H   0  0  0  0  0  0  0  0  0  0  0  0
  146.3151  134.9360  151.8542 H   0  0  0  0  0  0  0  0  0  0  0  0
  148.6950  129.3737  155.7827 H   0  0  0  0  0  0  0  0  0  0  0  0
  149.7763  130.4063  156.6932 H   0  0  0  0  0  0  0  0  0  0  0  0
  145.9358  130.1256  151.8132 H   0  0  0  0  0  0  0  0  0  0  0  0
  143.7844  133.6556  148.1486 H   0  0  0  0  0  0  0  0  0  0  0  0
  144.5338  132.0688  148.1248 H   0  0  0  0  0  0  0  0  0  0  0  0
  141.9025  132.7462  148.7348 H   0  0  0  0  0  0  0  0  0  0  0  0
  142.8420  134.8846  150.3456 H   0  0  0  0  0  0  0  0  0  0  0  0
  1  2  1  0  0  0  0
  1 25  1  0  0  0  0
  1 26  1  0  0  0  0
  2  8  1  0  0  0  0
  2  3  2  0  0  0  0
  3  4  1  0  0  0  0
  4  5  1  0  0  0  0
  4  6  2  0  0  0  0
  6  7  1  0  0  0  0
  7 11  1  0  0  0  0
  7  8  2  0  0  0  0
  8  9  1  0  0  0  0
  9 10  2  0  0  0  0
 10 11  1  0  0  0  0
 10 27  1  0  0  0  0
 11 12  1  0  0  0  0
 12 21  1  0  0  0  0
 12 19  1  0  0  0  0
 12 13  1  0  0  0  0
 13 14  1  0  0  0  0
 14 22  1  0  0  0  0
 14 15  1  0  0  0  0
 14 17  1  0  0  0  0
 15 16  1  0  0  0  0
 15 28  1  0  0  0  0
 15 29  1  0  0  0  0
 16 30  1  0  0  0  0
 17 23  1  0  0  0  0
 17 18  1  0  0  0  0
 17 19  1  0  0  0  0
 18 31  1  0  0  0  0
 19 24  1  0  0  0  0
 19 20  1  0  0  0  0
M  END
> <s_m_source_file>
AV-unprocessed.smi

> <i_m_source_file_index>
158

> <i_lp_mmshare_version>
43012

> <i_f3d_flags>
0

> <s_epik_input>
Q2xjKG4xKW5jKFtOSDJdKWMoYzEyKW5bY0hdbjJbQ0BASF0zT1tDQEhdKFtDSDJdW09IXSlbQ0BASF0oW09IXSlbQ0BASF0zRg==

> <s_epik_cmdline>
J2VwaWtfcHl0aG9uJywgJy1waCcsICc3LjAnLCAnLXRuJywgJzgnLCAnLW1hJywgJzIwMCcsICctbWV0YWxfYmluZGluZycsICctaW1hZScsICc8aW5maWxlLm1hZT4nLCAnLW9tYWUnLCAnPG91dGZpbGUubWFlPic=

> <r_lp_tautomer_probability>
1

> <r_epik_Ionization_Penalty>
6.51543e-05

> <r_epik_Ionization_Penalty_Charging>
0

> <r_epik_Ionization_Penalty_Neutral>
6.51543e-05

> <r_epik_State_Penalty>
-0

> <r_epik_Charging_Adjusted_Penalty>
0

> <i_epik_Tot_Q>
0

> <i_epik_Tot_abs_Q>
0

> <r_epik_Metal_State_Penalty>
-0

> <b_epik_Metal_Only>
0

> <s_epik_Chemistry_Notes>
This compound contains an acetal/aminal-like group ( X-CH(R)-Y where X, Y are N, S, or O) that may be acid/base labile, releasing an aldehyde.

> <s_lp_Force_Field>
OPLS_2005

> <r_lp_Energy>
35.9633

> <b_lp_Chiralities_Consistent>
1

> <s_lp_Variant>
AV-unprocessed.smi:158-10

> <Gold.Version>
5.8.1

> <Gold.Id.Protein>
6NUR|6NUR_protein|mol2

> <Gold.PLP.Fitness>
40.5072

> <Gold.PLP.PLP>
-33.3909

> <Gold.PLP.part.hbond>
-4.0000

> <Gold.PLP.part.metal>
0.0000

> <Gold.PLP.part.buried>
-3.9820

> <Gold.PLP.part.nonpolar>
-26.6430

> <Gold.PLP.part.repulsive>
0.5801

> <Gold.PLP.ligand.clash>
0.0000

> <Gold.PLP.ligand.torsion>
0.7437

> <Gold.PLP.Chemscore.Hbond>
2.8667

> <Gold.PLP.Chemscore.CHOScore>
0.0000

> <Gold.PLP.Chemscore.Metal>
0.0000

> <Gold.Chemscore.Hbonds>
donor molecule, donor type, donor heavy atom, donor atom, acceptor molecule, acceptor atom, score
      L1  H    16    30       P1 10186  0.98
      L1  H    18    31       P1 10186  0.94
      P1  H 10785 10796       L1    16  0.95

> <Gold.PLP.Chemscore.Internal.Correction>
0.0037

> <Gold.Rescore>
     Score         DG    S(hbond)    S(metal)    S(lipo)     H(rot)  DE(clash)    DE(int)     intcor
      6.79      -7.56       1.57        0.00      41.27       3.12       0.06       0.71       ----

> <Gold.Chemscore.Fitness>
6.7899

> <Gold.Chemscore.DG>
-7.5625

> <Gold.Chemscore.ZeroCoef>
-5.4800

> <Gold.Chemscore.Hbond>
1.5715

> <Gold.Chemscore.Metal>
0.0000

> <Gold.Chemscore.Lipo>
41.2712

> <Gold.Chemscore.Internal_Hbond>
0.0000

> <Gold.Chemscore.DEClash>
0.0640

> <Gold.Chemscore.DEInternal>
0.7087

> <Gold.Chemscore.Rot>
3.1230

> <Gold.Chemscore.Internal.Correction>
   9.000000E+99

> <Gold.Chemscore.Hbonds>
donor molecule, donor type, donor heavy atom, donor atom, acceptor molecule, acceptor atom, score
      L1  H    16    30       P1 10186  0.90
      L1  H    18    31       P1 10186  0.20
      P1  H 10785 10796       L1    16  0.19

> <Gold.Chemscore.Hbond.Weighted>
-5.2488

> <Gold.Chemscore.Metal.Weighted>
-0.0000

> <Gold.Chemscore.Lipo.Weighted>
-4.8287

> <Gold.Chemscore.Internal_Hbond.Weighted>
0.0000

> <Gold.Chemscore.DEClash.Weighted>
0.0640

> <Gold.Chemscore.DEInternal.Weighted>
0.7087

> <Gold.Chemscore.Rot.Weighted>
7.9950

> <Gold.Chemscore.Internal.Correction.Weighted>
   9.000000E+99

> <Gold.Protein.RotatedTorsions>
[ 6907 6896 6895 6894 ] final  154.11 input  -60.11 | X-H torsion
[ 7974 7965 7964 7962 ] final -175.12 input  175.53 | X-H torsion
[ 8008 7997 7996 7995 ] final  117.23 input   59.86 | X-H torsion
[ 10167 10162 10161 10158 ] final -102.11 input  -65.29 | X-H torsion
[ 10718 10713 10712 10709 ] final -148.29 input   66.30 | X-H torsion
[ 10763 10752 10751 10750 ] final  -81.11 input  -60.55 | X-H torsion
[ 11005 11000 10999 10996 ] final -136.72 input  -57.11 | X-H torsion

> <Gold.Protein.ActiveResidues>
 VAL166  LYS551  ARG553  GLY616  TRP617  ASP618  TYR619  PRO620  LYS621  CYS622 
 ASP623  PHE694  ASN695  SER759  ASP760  ASP761  ALA762  ILE779  LEU786  VAL792 
 PHE793  MET794  SER795  GLU796  ALA797  LYS798  CYS799  TRP800  GLU811  SER814 

> <Gold.Protein.RotatedAtoms>
  152.0631  133.4071  159.4426 H   0  0  0  0  0  0  0  0  0  0  0  0  # atno 6907 bound_to 6896
  150.6865  134.3177  159.4782 H   0  0  0  0  0  0  0  0  0  0  0  0  # atno 6908 bound_to 6896
  152.1000  134.9347  160.0620 H   0  0  0  0  0  0  0  0  0  0  0  0  # atno 6909 bound_to 6896
  144.7129  140.1369  143.6394 H   0  0  0  0  0  0  0  0  0  0  0  0  # atno 7974 bound_to 7965
  156.2483  140.2901  156.0646 H   0  0  0  0  0  0  0  0  0  0  0  0  # atno 8008 bound_to 7997
  155.1738  140.0402  157.2885 H   0  0  0  0  0  0  0  0  0  0  0  0  # atno 8009 bound_to 7997
  154.6307  140.2498  155.7444 H   0  0  0  0  0  0  0  0  0  0  0  0  # atno 8010 bound_to 7997
  140.2341  143.3585  152.0860 H   0  0  0  0  0  0  0  0  0  0  0  0  # atno 10167 bound_to 10162
  156.4183  130.8016  151.2238 H   0  0  0  0  0  0  0  0  0  0  0  0  # atno 10718 bound_to 10713
  154.5595  135.5638  153.6994 H   0  0  0  0  0  0  0  0  0  0  0  0  # atno 10763 bound_to 10752
  153.0013  135.6270  154.2264 H   0  0  0  0  0  0  0  0  0  0  0  0  # atno 10764 bound_to 10752
  154.2202  135.2870  155.2907 H   0  0  0  0  0  0  0  0  0  0  0  0  # atno 10765 bound_to 10752
  140.8779  134.1969  157.4610 H   0  0  0  0  0  0  0  0  0  0  0  0  # atno 11005 bound_to 11000
  145.9237  139.2562  143.1366 LP  0  0  0  0  0  0  0  0  0  0  0  0  # atno 17320 bound_to 7965
  145.9594  140.8847  143.0218 LP  0  0  0  0  0  0  0  0  0  0  0  0  # atno 17321 bound_to 7965
  139.5099  144.6876  151.5846 LP  0  0  0  0  0  0  0  0  0  0  0  0  # atno 17342 bound_to 10162
  140.6163  143.9343  150.6491 LP  0  0  0  0  0  0  0  0  0  0  0  0  # atno 17343 bound_to 10162
  157.7508  131.0236  150.3840 LP  0  0  0  0  0  0  0  0  0  0  0  0  # atno 17370 bound_to 10713
  156.4153  130.3942  149.6863 LP  0  0  0  0  0  0  0  0  0  0  0  0  # atno 17371 bound_to 10713
  139.8717  134.9804  156.5074 LP  0  0  0  0  0  0  0  0  0  0  0  0  # atno 17394 bound_to 11000
  140.8496  133.8142  155.9156 LP  0  0  0  0  0  0  0  0  0  0  0  0  # atno 17395 bound_to 11000

$$$$
