AV-unprocessed.smi:3037|AV-procd|sdf|11586|dock3
  -GOLD-   2272016563D 1   1.00000     0.00000
 Structure written by MMmdl.
 47 48  0  0  0  0  0  0  0  0  2 V2000
  144.9203  131.3163  150.8202 C   0  0  0  0  0  0  0  0  0  0  0  0
  144.6933  132.7782  151.0774 C   0  0  0  0  0  0  0  0  0  0  0  0
  143.7291  133.3745  151.9389 C   0  0  0  0  0  0  0  0  0  0  0  0
  143.7881  134.6963  151.9395 N   0  0  0  0  0  0  0  0  0  0  0  0
  144.7892  134.9897  151.0830 N   0  0  0  0  0  0  0  0  0  0  0  0
  145.1416  136.3754  150.8297 C   0  0  0  0  0  0  0  0  0  0  0  0
  145.6521  137.1085  152.0875 C   0  0  2  0  0  0  0  0  0  0  0  0
  144.7469  136.8804  153.3147 C   0  0  0  0  0  0  0  0  0  0  0  0
  145.7880  138.5509  151.7830 N   0  3  0  0  0  0  0  0  0  0  0  0
  146.9438  139.2286  152.4079 C   0  0  0  0  0  0  0  0  0  0  0  0
  146.7342  139.3820  153.9256 C   0  0  0  0  0  0  0  0  0  0  0  0
  147.4838  140.5792  154.5369 C   0  0  0  0  0  0  0  0  0  0  0  0
  146.8340  141.4576  155.1059 O   0  0  0  0  0  0  0  0  0  0  0  0
  148.8344  140.6341  154.4315 N   0  0  0  0  0  0  0  0  0  0  0  0
  149.6315  141.7173  155.0244 C   0  0  0  0  0  0  0  0  0  0  0  0
  150.4506  141.1520  156.1993 C   0  0  0  0  0  0  0  0  0  0  0  0
  151.3276  139.9717  155.7421 C   0  0  0  0  0  0  0  0  0  0  0  0
  150.5087  138.9262  154.9625 C   0  0  0  0  0  0  0  0  0  0  0  0
  149.6893  139.5931  153.8425 C   0  0  0  0  0  0  0  0  0  0  0  0
  145.3508  133.8510  150.5452 C   0  0  0  0  0  0  0  0  0  0  0  0
  144.4669  130.6939  151.5920 H   0  0  0  0  0  0  0  0  0  0  0  0
  145.9822  131.0710  150.7938 H   0  0  0  0  0  0  0  0  0  0  0  0
  144.4937  131.0061  149.8662 H   0  0  0  0  0  0  0  0  0  0  0  0
  142.9914  132.8875  152.5596 H   0  0  0  0  0  0  0  0  0  0  0  0
  145.9054  136.3884  150.0510 H   0  0  0  0  0  0  0  0  0  0  0  0
  144.2716  136.8907  150.4183 H   0  0  0  0  0  0  0  0  0  0  0  0
  146.6462  136.7195  152.3140 H   0  0  0  0  0  0  0  0  0  0  0  0
  144.6697  135.8218  153.5625 H   0  0  0  0  0  0  0  0  0  0  0  0
  143.7376  137.2519  153.1355 H   0  0  0  0  0  0  0  0  0  0  0  0
  145.1324  137.3783  154.2038 H   0  0  0  0  0  0  0  0  0  0  0  0
  145.8964  138.6398  150.7828 H   0  0  0  0  0  0  0  0  0  0  0  0
  147.8494  138.6530  152.2158 H   0  0  0  0  0  0  0  0  0  0  0  0
  147.0758  140.2089  151.9472 H   0  0  0  0  0  0  0  0  0  0  0  0
  145.6688  139.4927  154.1327 H   0  0  0  0  0  0  0  0  0  0  0  0
  147.0711  138.4714  154.4227 H   0  0  0  0  0  0  0  0  0  0  0  0
  150.2983  142.1306  154.2663 H   0  0  0  0  0  0  0  0  0  0  0  0
  149.0227  142.5541  155.3688 H   0  0  0  0  0  0  0  0  0  0  0  0
  151.0740  141.9339  156.6334 H   0  0  0  0  0  0  0  0  0  0  0  0
  149.7743  140.8207  156.9883 H   0  0  0  0  0  0  0  0  0  0  0  0
  152.1261  140.3486  155.1017 H   0  0  0  0  0  0  0  0  0  0  0  0
  151.8140  139.5078  156.6005 H   0  0  0  0  0  0  0  0  0  0  0  0
  151.1728  138.1699  154.5434 H   0  0  0  0  0  0  0  0  0  0  0  0
  149.8364  138.4047  155.6452 H   0  0  0  0  0  0  0  0  0  0  0  0
  149.1420  138.8331  153.2880 H   0  0  0  0  0  0  0  0  0  0  0  0
  150.3605  140.0533  153.1156 H   0  0  0  0  0  0  0  0  0  0  0  0
  146.1644  133.8971  149.8363 H   0  0  0  0  0  0  0  0  0  0  0  0
  144.9376  139.0229  152.0552 H   0  0  0  0  0  0  0  0  0  0  0  0
  1  2  1  0  0  0  0
  1 21  1  0  0  0  0
  1 22  1  0  0  0  0
  1 23  1  0  0  0  0
  2 20  2  0  0  0  0
  2  3  1  0  0  0  0
  3  4  2  0  0  0  0
  3 24  1  0  0  0  0
  4  5  1  0  0  0  0
  5  6  1  0  0  0  0
  5 20  1  0  0  0  0
  6  7  1  0  0  0  0
  6 25  1  0  0  0  0
  6 26  1  0  0  0  0
  7  8  1  0  0  0  0
  7  9  1  0  0  0  0
  7 27  1  0  0  0  0
  8 28  1  0  0  0  0
  8 29  1  0  0  0  0
  8 30  1  0  0  0  0
  9 10  1  0  0  0  0
  9 31  1  0  0  0  0
  9 47  1  0  0  0  0
 10 11  1  0  0  0  0
 10 32  1  0  0  0  0
 10 33  1  0  0  0  0
 11 12  1  0  0  0  0
 11 34  1  0  0  0  0
 11 35  1  0  0  0  0
 12 13  2  0  0  0  0
 12 14  1  0  0  0  0
 14 19  1  0  0  0  0
 14 15  1  0  0  0  0
 15 16  1  0  0  0  0
 15 36  1  0  0  0  0
 15 37  1  0  0  0  0
 16 17  1  0  0  0  0
 16 38  1  0  0  0  0
 16 39  1  0  0  0  0
 17 18  1  0  0  0  0
 17 40  1  0  0  0  0
 17 41  1  0  0  0  0
 18 19  1  0  0  0  0
 18 42  1  0  0  0  0
 18 43  1  0  0  0  0
 19 44  1  0  0  0  0
 19 45  1  0  0  0  0
 20 46  1  0  0  0  0
M  CHG  1   9   1
M  END
> <s_m_source_file>
AV-unprocessed.smi

> <i_m_source_file_index>
3037

> <i_lp_mmshare_version>
43012

> <i_f3d_flags>
0

> <s_epik_input>
W0NIM11jMVtjSF1ubihbY0hdMSlbQ0gyXVtDQEhdKFtDSDNdKVtOSF1bQ0gyXVtDSDJdQyg9TylOMltDSDJdW0NIMl1bQ0gyXVtDSDJdW0NIMl0y

> <s_epik_cmdline>
J2VwaWtfcHl0aG9uJywgJy1waCcsICc3LjAnLCAnLXRuJywgJzgnLCAnLW1hJywgJzIwMCcsICctbWV0YWxfYmluZGluZycsICctaW1hZScsICc8aW5maWxlLm1hZT4nLCAnLW9tYWUnLCAnPG91dGZpbGUubWFlPic=

> <r_lp_tautomer_probability>
1

> <r_epik_Ionization_Penalty>
0.00574983

> <r_epik_Ionization_Penalty_Charging>
0.00574185

> <r_epik_Ionization_Penalty_Neutral>
7.97936e-06

> <r_epik_State_Penalty>
0.00421386

> <r_epik_Charging_Adjusted_Penalty>
0.00995571

> <i_epik_Tot_Q>
1

> <i_epik_Tot_abs_Q>
1

> <r_epik_Metal_State_Penalty>
-0

> <b_epik_Metal_Only>
0

> <s_lp_Force_Field>
OPLS_2005

> <r_lp_Energy>
27.2307

> <b_lp_Chiralities_Consistent>
1

> <s_lp_Variant>
AV-unprocessed.smi:3037-1

> <Gold.Version>
5.8.1

> <Gold.Id.Protein>
6NUR|6NUR_protein|mol2

> <Gold.PLP.Fitness>
46.3452

> <Gold.PLP.PLP>
-35.2461

> <Gold.PLP.part.hbond>
-2.0000

> <Gold.PLP.part.metal>
0.0000

> <Gold.PLP.part.buried>
3.6036

> <Gold.PLP.part.nonpolar>
-37.5441

> <Gold.PLP.part.repulsive>
0.3203

> <Gold.PLP.ligand.clash>
0.0000

> <Gold.PLP.ligand.torsion>
0.7255

> <Gold.PLP.Chemscore.Hbond>
2.1420

> <Gold.PLP.Chemscore.CHOScore>
2.0000

> <Gold.PLP.Chemscore.Metal>
0.0000

> <Gold.Chemscore.Hbonds>
donor molecule, donor type, donor heavy atom, donor atom, acceptor molecule, acceptor atom, score
      L1  H     9    31       P1 10171  0.10
      L1  H     9    47       P1 10175  2.00
      L1  C     3    24       P1 10957  0.89
      L1  C    20    46       P1  7921  0.72

> <Gold.PLP.Chemscore.Internal.Correction>
0.1243

> <Gold.Rescore>
     Score         DG    S(hbond)    S(metal)    S(lipo)     H(rot)  DE(clash)    DE(int)     intcor
     10.21     -14.98       0.99        0.00      93.24       1.84       2.83       1.94       ----

> <Gold.Chemscore.Fitness>
10.2140

> <Gold.Chemscore.DG>
-14.9835

> <Gold.Chemscore.ZeroCoef>
-5.4800

> <Gold.Chemscore.Hbond>
0.9881

> <Gold.Chemscore.Metal>
0.0000

> <Gold.Chemscore.Lipo>
93.2420

> <Gold.Chemscore.Internal_Hbond>
0.0000

> <Gold.Chemscore.DEClash>
2.8316

> <Gold.Chemscore.DEInternal>
1.9379

> <Gold.Chemscore.Rot>
1.8383

> <Gold.Chemscore.Internal.Correction>
   9.000000E+99

> <Gold.Chemscore.Hbonds>
donor molecule, donor type, donor heavy atom, donor atom, acceptor molecule, acceptor atom, score
      L1  H     9    31       P1 10171  0.10
      L1  H     9    47       P1 10175  0.99

> <Gold.Chemscore.Hbond.Weighted>
-3.3003

> <Gold.Chemscore.Metal.Weighted>
-0.0000

> <Gold.Chemscore.Lipo.Weighted>
-10.9093

> <Gold.Chemscore.Internal_Hbond.Weighted>
0.0000

> <Gold.Chemscore.DEClash.Weighted>
2.8316

> <Gold.Chemscore.DEInternal.Weighted>
1.9379

> <Gold.Chemscore.Rot.Weighted>
4.7062

> <Gold.Chemscore.Internal.Correction.Weighted>
   9.000000E+99

> <Gold.Protein.RotatedTorsions>
[ 6907 6896 6895 6894 ] final  -25.49 input  -60.11 | X-H torsion
[ 7974 7965 7964 7962 ] final  130.05 input  175.53 | X-H torsion
[ 8008 7997 7996 7995 ] final   83.75 input   59.86 | X-H torsion
[ 10167 10162 10161 10158 ] final  142.90 input  -65.29 | X-H torsion
[ 10718 10713 10712 10709 ] final   12.31 input   66.30 | X-H torsion
[ 10763 10752 10751 10750 ] final   10.49 input  -60.55 | X-H torsion
[ 11005 11000 10999 10996 ] final  -43.58 input  -57.11 | X-H torsion

> <Gold.Protein.ActiveResidues>
 VAL166  LYS551  ARG553  GLY616  TRP617  ASP618  TYR619  PRO620  LYS621  CYS622 
 ASP623  PHE694  ASN695  SER759  ASP760  ASP761  ALA762  ILE779  LEU786  VAL792 
 PHE793  MET794  SER795  GLU796  ALA797  LYS798  CYS799  TRP800  GLU811  SER814 

> <Gold.Protein.RotatedAtoms>
  151.1745  135.0333  159.8765 H   0  0  0  0  0  0  0  0  0  0  0  0  # atno 6907 bound_to 6896
  152.5447  134.1133  159.8378 H   0  0  0  0  0  0  0  0  0  0  0  0  # atno 6908 bound_to 6896
  151.1242  133.5035  159.2633 H   0  0  0  0  0  0  0  0  0  0  0  0  # atno 6909 bound_to 6896
  145.0220  139.4123  143.5192 H   0  0  0  0  0  0  0  0  0  0  0  0  # atno 7974 bound_to 7965
  155.9281  140.3417  155.6226 H   0  0  0  0  0  0  0  0  0  0  0  0  # atno 8008 bound_to 7997
  155.7192  140.0781  157.2357 H   0  0  0  0  0  0  0  0  0  0  0  0  # atno 8009 bound_to 7997
  154.4080  140.1608  156.2370 H   0  0  0  0  0  0  0  0  0  0  0  0  # atno 8010 bound_to 7997
  139.4982  144.6076  151.6344 H   0  0  0  0  0  0  0  0  0  0  0  0  # atno 10167 bound_to 10162
  157.0084  130.6107  149.5705 H   0  0  0  0  0  0  0  0  0  0  0  0  # atno 10718 bound_to 10713
  153.2027  135.6858  153.8212 H   0  0  0  0  0  0  0  0  0  0  0  0  # atno 10763 bound_to 10752
  153.7472  135.3229  155.3316 H   0  0  0  0  0  0  0  0  0  0  0  0  # atno 10764 bound_to 10752
  154.8180  135.4672  154.0800 H   0  0  0  0  0  0  0  0  0  0  0  0  # atno 10765 bound_to 10752
  141.0393  133.6786  156.2753 H   0  0  0  0  0  0  0  0  0  0  0  0  # atno 11005 bound_to 11000
  146.3487  139.9723  142.8705 LP  0  0  0  0  0  0  0  0  0  0  0  0  # atno 17320 bound_to 7965
  145.1883  140.9799  143.4226 LP  0  0  0  0  0  0  0  0  0  0  0  0  # atno 17321 bound_to 7965
  140.5742  144.0057  150.6233 LP  0  0  0  0  0  0  0  0  0  0  0  0  # atno 17342 bound_to 10162
  140.3185  143.3152  152.0808 LP  0  0  0  0  0  0  0  0  0  0  0  0  # atno 17343 bound_to 10162
  156.0145  130.5239  150.8093 LP  0  0  0  0  0  0  0  0  0  0  0  0  # atno 17370 bound_to 10713
  157.5339  131.0938  150.9918 LP  0  0  0  0  0  0  0  0  0  0  0  0  # atno 17371 bound_to 10713
  140.6264  134.5309  157.5554 LP  0  0  0  0  0  0  0  0  0  0  0  0  # atno 17394 bound_to 11000
  139.9264  134.8048  156.1057 LP  0  0  0  0  0  0  0  0  0  0  0  0  # atno 17395 bound_to 11000

$$$$
