AV-unprocessed.smi:1380|AV-procd|sdf|5600|dock7
  -GOLD-   22720 5203D 1   1.00000     0.00000
 Structure written by MMmdl.
 33 34  0  0  0  0  0  0  0  0  1 V2000
  149.5897  134.1402  155.9216 O   0  0  0  0  0  0  0  0  0  0  0  0
  149.3299  134.7646  154.8929 C   0  0  0  0  0  0  0  0  0  0  0  0
  148.5463  134.2990  153.9110 N   0  0  0  0  0  0  0  0  0  0  0  0
  147.9249  132.9782  153.8954 C   0  0  0  0  0  0  0  0  0  0  0  0
  147.5868  132.4970  152.4705 C   0  0  0  0  0  0  0  0  0  0  0  0
  146.2908  133.0763  151.9301 C   0  0  0  0  0  0  0  0  0  0  0  0
  145.2500  132.2316  151.4933 C   0  0  0  0  0  0  0  0  0  0  0  0
  144.0628  132.8131  151.0084 C   0  0  0  0  0  0  0  0  0  0  0  0
  143.9674  134.2188  150.9805 C   0  0  0  0  0  0  0  0  0  0  0  0
  144.9574  135.0379  151.3963 N   0  0  0  0  0  0  0  0  0  0  0  0
  146.0932  134.4722  151.8582 C   0  0  0  0  0  0  0  0  0  0  0  0
  149.8092  135.9835  154.6109 N   0  0  0  0  0  0  0  0  0  0  0  0
  150.7311  136.7291  155.4571 C   0  0  0  0  0  0  0  0  0  0  0  0
  151.0638  138.1233  154.9602 C   0  0  0  0  0  0  0  0  0  0  0  0
  152.4565  138.4749  154.4896 C   0  0  0  0  0  0  0  0  0  0  0  0
  151.9333  139.0416  155.7867 C   0  0  0  0  0  0  0  0  0  0  0  0
  148.3925  134.8849  153.1034 H   0  0  0  0  0  0  0  0  0  0  0  0
  148.5660  132.2536  154.3997 H   0  0  0  0  0  0  0  0  0  0  0  0
  147.0096  133.0411  154.4844 H   0  0  0  0  0  0  0  0  0  0  0  0
  148.3998  132.7544  151.7902 H   0  0  0  0  0  0  0  0  0  0  0  0
  147.5194  131.4087  152.4575 H   0  0  0  0  0  0  0  0  0  0  0  0
  145.3574  131.1575  151.5316 H   0  0  0  0  0  0  0  0  0  0  0  0
  143.2446  132.1968  150.6662 H   0  0  0  0  0  0  0  0  0  0  0  0
  143.0711  134.6979  150.6152 H   0  0  0  0  0  0  0  0  0  0  0  0
  146.8632  135.1546  152.1879 H   0  0  0  0  0  0  0  0  0  0  0  0
  149.5389  136.4143  153.7388 H   0  0  0  0  0  0  0  0  0  0  0  0
  150.2725  136.8204  156.4416 H   0  0  0  0  0  0  0  0  0  0  0  0
  151.6510  136.1593  155.6005 H   0  0  0  0  0  0  0  0  0  0  0  0
  150.2424  138.6077  154.4353 H   0  0  0  0  0  0  0  0  0  0  0  0
  153.2224  137.7042  154.5504 H   0  0  0  0  0  0  0  0  0  0  0  0
  152.5429  139.1511  153.6416 H   0  0  0  0  0  0  0  0  0  0  0  0
  151.6728  140.0980  155.8052 H   0  0  0  0  0  0  0  0  0  0  0  0
  152.3544  138.6487  156.7099 H   0  0  0  0  0  0  0  0  0  0  0  0
  1  2  2  0  0  0  0
  2  3  1  0  0  0  0
  2 12  1  0  0  0  0
  3  4  1  0  0  0  0
  3 17  1  0  0  0  0
  4  5  1  0  0  0  0
  4 18  1  0  0  0  0
  4 19  1  0  0  0  0
  5  6  1  0  0  0  0
  5 20  1  0  0  0  0
  5 21  1  0  0  0  0
  6 11  1  0  0  0  0
  6  7  2  0  0  0  0
  7  8  1  0  0  0  0
  7 22  1  0  0  0  0
  8  9  2  0  0  0  0
  8 23  1  0  0  0  0
  9 10  1  0  0  0  0
  9 24  1  0  0  0  0
 10 11  2  0  0  0  0
 11 25  1  0  0  0  0
 12 13  1  0  0  0  0
 12 26  1  0  0  0  0
 13 14  1  0  0  0  0
 13 27  1  0  0  0  0
 13 28  1  0  0  0  0
 14 16  1  0  0  0  0
 14 15  1  0  0  0  0
 14 29  1  0  0  0  0
 15 16  1  0  0  0  0
 15 30  1  0  0  0  0
 15 31  1  0  0  0  0
 16 32  1  0  0  0  0
 16 33  1  0  0  0  0
M  END
> <s_m_source_file>
AV-unprocessed.smi

> <i_m_source_file_index>
1380

> <i_lp_mmshare_version>
43012

> <i_f3d_flags>
0

> <s_epik_input>
W0NIMl0xW0NIMl1bQ0hdMVtDSDJdW05IXUMoPU8pW05IXVtDSDJdW0NIMl1jMltjSF1bY0hdW2NIXW5bY0hdMg==

> <s_epik_cmdline>
J2VwaWtfcHl0aG9uJywgJy1waCcsICc3LjAnLCAnLXRuJywgJzgnLCAnLW1hJywgJzIwMCcsICctbWV0YWxfYmluZGluZycsICctaW1hZScsICc8aW5maWxlLm1hZT4nLCAnLW9tYWUnLCAnPG91dGZpbGUubWFlPic=

> <r_epik_Ionization_Penalty>
0.0144004

> <r_epik_Ionization_Penalty_Charging>
0

> <r_epik_Ionization_Penalty_Neutral>
0.0144004

> <r_epik_State_Penalty>
0.0112076

> <r_epik_Charging_Adjusted_Penalty>
0.0112076

> <i_epik_Tot_Q>
0

> <i_epik_Tot_abs_Q>
0

> <r_epik_Metal_State_Penalty>
0.0109423

> <b_epik_Metal_Only>
0

> <s_lp_Force_Field>
OPLS_2005

> <r_lp_Energy>
8.98924

> <b_lp_Chiralities_Consistent>
1

> <s_lp_Variant>
AV-unprocessed.smi:1380-1

> <Gold.Version>
5.8.1

> <Gold.Id.Protein>
6NUR|6NUR_protein|mol2

> <Gold.PLP.Fitness>
40.7441

> <Gold.PLP.PLP>
-29.4861

> <Gold.PLP.part.hbond>
-2.2570

> <Gold.PLP.part.metal>
0.0000

> <Gold.PLP.part.buried>
-2.3519

> <Gold.PLP.part.nonpolar>
-25.1982

> <Gold.PLP.part.repulsive>
0.2623

> <Gold.PLP.ligand.clash>
0.0000

> <Gold.PLP.ligand.torsion>
0.6556

> <Gold.PLP.Chemscore.Hbond>
2.0000

> <Gold.PLP.Chemscore.CHOScore>
2.0000

> <Gold.PLP.Chemscore.Metal>
0.0000

> <Gold.Chemscore.Hbonds>
donor molecule, donor type, donor heavy atom, donor atom, acceptor molecule, acceptor atom, score
      L1  H     3    17       P1  7948  1.00
      L1  H    12    26       P1  7948  0.98
      L1  C     9    24       P1 10186  1.00
      L1  C    11    25       P1  7948  1.00

> <Gold.PLP.Chemscore.Internal.Correction>
0.5692

> <Gold.Rescore>
     Score         DG    S(hbond)    S(metal)    S(lipo)     H(rot)  DE(clash)    DE(int)     intcor
     12.48     -14.55       1.47        0.00      72.80       1.70       1.46       0.62       ----

> <Gold.Chemscore.Fitness>
12.4779

> <Gold.Chemscore.DG>
-14.5531

> <Gold.Chemscore.ZeroCoef>
-5.4800

> <Gold.Chemscore.Hbond>
1.4699

> <Gold.Chemscore.Metal>
0.0000

> <Gold.Chemscore.Lipo>
72.7951

> <Gold.Chemscore.Internal_Hbond>
0.0000

> <Gold.Chemscore.DEClash>
1.4565

> <Gold.Chemscore.DEInternal>
0.6187

> <Gold.Chemscore.Rot>
1.7006

> <Gold.Chemscore.Internal.Correction>
   9.000000E+99

> <Gold.Chemscore.Hbonds>
donor molecule, donor type, donor heavy atom, donor atom, acceptor molecule, acceptor atom, score
      L1  H     3    17       P1  7948  0.72
      L1  H    12    26       P1  7948  0.65

> <Gold.Chemscore.Hbond.Weighted>
-4.9095

> <Gold.Chemscore.Metal.Weighted>
-0.0000

> <Gold.Chemscore.Lipo.Weighted>
-8.5170

> <Gold.Chemscore.Internal_Hbond.Weighted>
0.0000

> <Gold.Chemscore.DEClash.Weighted>
1.4565

> <Gold.Chemscore.DEInternal.Weighted>
0.6187

> <Gold.Chemscore.Rot.Weighted>
4.3534

> <Gold.Chemscore.Internal.Correction.Weighted>
   9.000000E+99

> <Gold.Protein.RotatedTorsions>
[ 6907 6896 6895 6894 ] final  152.55 input  -60.11 | X-H torsion
[ 7974 7965 7964 7962 ] final  -46.90 input  175.53 | X-H torsion
[ 8008 7997 7996 7995 ] final -110.24 input   59.86 | X-H torsion
[ 10167 10162 10161 10158 ] final  -95.77 input  -65.29 | X-H torsion
[ 10718 10713 10712 10709 ] final  -42.51 input   66.30 | X-H torsion
[ 10763 10752 10751 10750 ] final  -97.63 input  -60.55 | X-H torsion
[ 11005 11000 10999 10996 ] final  102.22 input  -57.11 | X-H torsion

> <Gold.Protein.ActiveResidues>
 VAL166  LYS551  ARG553  GLY616  TRP617  ASP618  TYR619  PRO620  LYS621  CYS622 
 ASP623  PHE694  ASN695  SER759  ASP760  ASP761  ALA762  ILE779  LEU786  VAL792 
 PHE793  MET794  SER795  GLU796  ALA797  LYS798  CYS799  TRP800  GLU811  SER814 

> <Gold.Protein.RotatedAtoms>
  152.0851  133.4172  159.4518 H   0  0  0  0  0  0  0  0  0  0  0  0  # atno 6907 bound_to 6896
  150.6862  134.2937  159.4686 H   0  0  0  0  0  0  0  0  0  0  0  0  # atno 6908 bound_to 6896
  152.0783  134.9488  160.0624 H   0  0  0  0  0  0  0  0  0  0  0  0  # atno 6909 bound_to 6896
  145.9672  140.7420  142.9428 H   0  0  0  0  0  0  0  0  0  0  0  0  # atno 7974 bound_to 7965
  154.9714  140.0397  157.2236 H   0  0  0  0  0  0  0  0  0  0  0  0  # atno 8008 bound_to 7997
  154.7797  140.2816  155.6051 H   0  0  0  0  0  0  0  0  0  0  0  0  # atno 8009 bound_to 7997
  156.2934  140.2594  156.2620 H   0  0  0  0  0  0  0  0  0  0  0  0  # atno 8010 bound_to 7997
  140.3007  143.3164  152.0251 H   0  0  0  0  0  0  0  0  0  0  0  0  # atno 10167 bound_to 10162
  156.2588  130.4195  149.8566 H   0  0  0  0  0  0  0  0  0  0  0  0  # atno 10718 bound_to 10713
  154.7345  135.5039  153.9019 H   0  0  0  0  0  0  0  0  0  0  0  0  # atno 10763 bound_to 10752
  153.0982  135.6678  153.9732 H   0  0  0  0  0  0  0  0  0  0  0  0  # atno 10764 bound_to 10752
  153.9525  135.3056  155.3417 H   0  0  0  0  0  0  0  0  0  0  0  0  # atno 10765 bound_to 10752
  139.8776  134.9215  156.5024 H   0  0  0  0  0  0  0  0  0  0  0  0  # atno 11005 bound_to 11000
  144.6828  140.2688  143.7309 LP  0  0  0  0  0  0  0  0  0  0  0  0  # atno 17320 bound_to 7965
  145.7958  139.1944  143.2077 LP  0  0  0  0  0  0  0  0  0  0  0  0  # atno 17321 bound_to 7965
  139.4916  144.6458  151.6781 LP  0  0  0  0  0  0  0  0  0  0  0  0  # atno 17342 bound_to 10162
  140.5654  144.0199  150.6189 LP  0  0  0  0  0  0  0  0  0  0  0  0  # atno 17343 bound_to 10162
  156.6088  130.8578  151.3449 LP  0  0  0  0  0  0  0  0  0  0  0  0  # atno 17370 bound_to 10713
  157.7243  130.9600  150.1567 LP  0  0  0  0  0  0  0  0  0  0  0  0  # atno 17371 bound_to 10713
  140.8579  133.8082  155.9235 LP  0  0  0  0  0  0  0  0  0  0  0  0  # atno 17394 bound_to 11000
  140.9078  134.2298  157.5003 LP  0  0  0  0  0  0  0  0  0  0  0  0  # atno 17395 bound_to 11000

$$$$
