AV-unprocessed.smi:1093|AV-procd|sdf|4738|dock4
  -GOLD-   22720 3273D 1   1.00000     0.00000
 Structure written by MMmdl.
 48 49  0  0  0  0  0  0  0  0  3 V2000
  145.6606  132.7187  150.9737 C   0  0  0  0  0  0  0  0  0  0  0  0
  144.5236  133.2324  150.0784 C   0  0  0  0  0  0  0  0  0  0  0  0
  143.7407  134.3200  150.7180 N   0  3  1  0  0  0  0  0  0  0  0  0
  143.0149  133.8507  151.9269 C   0  0  0  0  0  0  0  0  0  0  0  0
  142.1005  134.9516  152.4889 C   0  0  0  0  0  0  0  0  0  0  0  0
  142.8953  136.2277  152.7933 C   0  0  0  0  0  0  0  0  0  0  0  0
  143.6665  136.6796  151.5408 C   0  0  1  0  0  0  0  0  0  0  0  0
  144.4928  137.8472  151.8365 N   0  0  0  0  0  0  0  0  0  0  0  0
  145.5691  137.8478  152.6365 C   0  0  0  0  0  0  0  0  0  0  0  0
  145.9845  136.8430  153.2128 O   0  0  0  0  0  0  0  0  0  0  0  0
  146.1287  139.0687  152.7028 N   0  0  0  0  0  0  0  0  0  0  0  0
  147.2549  139.4859  153.4639 C   0  0  0  0  0  0  0  0  0  0  0  0
  148.2333  138.5194  153.7778 C   0  0  0  0  0  0  0  0  0  0  0  0
  149.3760  138.8900  154.5162 C   0  0  0  0  0  0  0  0  0  0  0  0
  149.5414  140.2338  154.9325 C   0  0  0  0  0  0  0  0  0  0  0  0
  150.6572  140.6829  155.6720 N   0  0  0  0  0  0  0  0  0  0  0  0
  151.7711  139.7751  155.9225 C   0  0  0  0  0  0  0  0  0  0  0  0
  150.7554  142.0864  156.0517 C   0  0  0  0  0  0  0  0  0  0  0  0
  148.5805  141.1287  154.5961 N   0  3  0  0  0  0  0  0  0  0  0  0
  147.4704  140.8172  153.8927 C   0  0  0  0  0  0  0  0  0  0  0  0
  144.5493  135.5352  151.0067 C   0  0  0  0  0  0  0  0  0  0  0  0
  146.2720  131.9935  150.4363 H   0  0  0  0  0  0  0  0  0  0  0  0
  145.2873  132.2231  151.8692 H   0  0  0  0  0  0  0  0  0  0  0  0
  146.3152  133.5330  151.2861 H   0  0  0  0  0  0  0  0  0  0  0  0
  144.9735  133.6081  149.1584 H   0  0  0  0  0  0  0  0  0  0  0  0
  143.8624  132.4152  149.7864 H   0  0  0  0  0  0  0  0  0  0  0  0
  142.4096  132.9779  151.6795 H   0  0  0  0  0  0  0  0  0  0  0  0
  143.7336  133.5340  152.6846 H   0  0  0  0  0  0  0  0  0  0  0  0
  141.3110  135.1746  151.7699 H   0  0  0  0  0  0  0  0  0  0  0  0
  141.6040  134.5980  153.3930 H   0  0  0  0  0  0  0  0  0  0  0  0
  142.2188  137.0137  153.1311 H   0  0  0  0  0  0  0  0  0  0  0  0
  143.5898  136.0391  153.6134 H   0  0  0  0  0  0  0  0  0  0  0  0
  142.9487  136.9401  150.7600 H   0  0  0  0  0  0  0  0  0  0  0  0
  144.2267  138.7164  151.3970 H   0  0  0  0  0  0  0  0  0  0  0  0
  145.7219  139.7766  152.1088 H   0  0  0  0  0  0  0  0  0  0  0  0
  148.1113  137.4944  153.4589 H   0  0  0  0  0  0  0  0  0  0  0  0
  150.1102  138.1334  154.7488 H   0  0  0  0  0  0  0  0  0  0  0  0
  151.4343  138.8970  156.4747 H   0  0  0  0  0  0  0  0  0  0  0  0
  152.5520  140.2577  156.5103 H   0  0  0  0  0  0  0  0  0  0  0  0
  152.2151  139.4454  154.9826 H   0  0  0  0  0  0  0  0  0  0  0  0
  149.9271  142.3673  156.7029 H   0  0  0  0  0  0  0  0  0  0  0  0
  150.7374  142.7238  155.1669 H   0  0  0  0  0  0  0  0  0  0  0  0
  151.6824  142.2884  156.5887 H   0  0  0  0  0  0  0  0  0  0  0  0
  146.8129  141.6505  153.6956 H   0  0  0  0  0  0  0  0  0  0  0  0
  145.3294  135.2878  151.7291 H   0  0  0  0  0  0  0  0  0  0  0  0
  145.0531  135.8726  150.1013 H   0  0  0  0  0  0  0  0  0  0  0  0
  143.0306  134.5896  150.0519 H   0  0  0  0  0  0  0  0  0  0  0  0
  148.7026  142.0979  154.8900 H   0  0  0  0  0  0  0  0  0  0  0  0
  1  2  1  0  0  0  0
  1 22  1  0  0  0  0
  1 23  1  0  0  0  0
  1 24  1  0  0  0  0
  2  3  1  0  0  0  0
  2 25  1  0  0  0  0
  2 26  1  0  0  0  0
  3 21  1  0  0  0  0
  3  4  1  0  0  0  0
  3 47  1  0  0  0  0
  4  5  1  0  0  0  0
  4 27  1  0  0  0  0
  4 28  1  0  0  0  0
  5  6  1  0  0  0  0
  5 29  1  0  0  0  0
  5 30  1  0  0  0  0
  6  7  1  0  0  0  0
  6 31  1  0  0  0  0
  6 32  1  0  0  0  0
  7  8  1  0  0  0  0
  7 21  1  0  0  0  0
  7 33  1  0  0  0  0
  8  9  1  0  0  0  0
  8 34  1  0  0  0  0
  9 10  2  0  0  0  0
  9 11  1  0  0  0  0
 11 12  1  0  0  0  0
 11 35  1  0  0  0  0
 12 20  1  0  0  0  0
 12 13  2  0  0  0  0
 13 14  1  0  0  0  0
 13 36  1  0  0  0  0
 14 15  2  0  0  0  0
 14 37  1  0  0  0  0
 15 16  1  0  0  0  0
 15 19  1  0  0  0  0
 16 17  1  0  0  0  0
 16 18  1  0  0  0  0
 17 38  1  0  0  0  0
 17 39  1  0  0  0  0
 17 40  1  0  0  0  0
 18 41  1  0  0  0  0
 18 42  1  0  0  0  0
 18 43  1  0  0  0  0
 19 20  2  0  0  0  0
 19 48  1  0  0  0  0
 20 44  1  0  0  0  0
 21 45  1  0  0  0  0
 21 46  1  0  0  0  0
M  CHG  1   3   1
M  CHG  1  19   1
M  END
> <s_m_source_file>
AV-unprocessed.smi

> <i_m_source_file_index>
1093

> <i_lp_mmshare_version>
43012

> <i_f3d_flags>
0

> <s_epik_input>
W0NIM11bQ0gyXU4xW0NIMl1bQ0gyXVtDSDJdW0NASF0oW0NIMl0xKVtOSF1DKD1PKVtOSF1jMltjSF1bY0hdYyhOKFtDSDNdKVtDSDNdKW5bY0hdMg==

> <s_epik_cmdline>
J2VwaWtfcHl0aG9uJywgJy1waCcsICc3LjAnLCAnLXRuJywgJzgnLCAnLW1hJywgJzIwMCcsICctbWV0YWxfYmluZGluZycsICctaW1hZScsICc8aW5maWxlLm1hZT4nLCAnLW9tYWUnLCAnPG91dGZpbGUubWFlPic=

> <r_lp_tautomer_probability>
0.999994

> <r_epik_Ionization_Penalty>
0.346711

> <r_epik_Ionization_Penalty_Charging>
0.346691

> <r_epik_Ionization_Penalty_Neutral>
1.93006e-05

> <r_epik_State_Penalty>
0.339838

> <r_epik_Charging_Adjusted_Penalty>
0.68653

> <i_epik_Tot_Q>
2

> <i_epik_Tot_abs_Q>
2

> <r_epik_Metal_State_Penalty>
0.600835

> <b_epik_Metal_Only>
0

> <s_lp_Force_Field>
OPLS_2005

> <r_lp_Energy>
27.8827

> <b_lp_Chiralities_Consistent>
1

> <s_lp_Variant>
AV-unprocessed.smi:1093-1

> <Gold.Version>
5.8.1

> <Gold.Id.Protein>
6NUR|6NUR_protein|mol2

> <Gold.PLP.Fitness>
47.4477

> <Gold.PLP.PLP>
-36.0899

> <Gold.PLP.part.hbond>
-4.0000

> <Gold.PLP.part.metal>
0.0000

> <Gold.PLP.part.buried>
-2.0557

> <Gold.PLP.part.nonpolar>
-30.4786

> <Gold.PLP.part.repulsive>
0.2652

> <Gold.PLP.ligand.clash>
0.0000

> <Gold.PLP.ligand.torsion>
0.2150

> <Gold.PLP.Chemscore.Hbond>
3.9200

> <Gold.PLP.Chemscore.CHOScore>
0.0000

> <Gold.PLP.Chemscore.Metal>
0.0000

> <Gold.Chemscore.Hbonds>
donor molecule, donor type, donor heavy atom, donor atom, acceptor molecule, acceptor atom, score
      L1  H     3    47       P1 10186  1.60
      L1  H     8    34       P1 10175  0.43
      L1  H    11    35       P1 10175  0.26

> <Gold.PLP.Chemscore.Internal.Correction>
0.0278

> <Gold.Rescore>
     Score         DG    S(hbond)    S(metal)    S(lipo)     H(rot)  DE(clash)    DE(int)     intcor
     17.42     -20.42       2.61        0.00      79.26       1.19       0.17       2.83       ----

> <Gold.Chemscore.Fitness>
17.4231

> <Gold.Chemscore.DG>
-20.4232

> <Gold.Chemscore.ZeroCoef>
-5.4800

> <Gold.Chemscore.Hbond>
2.6134

> <Gold.Chemscore.Metal>
0.0000

> <Gold.Chemscore.Lipo>
79.2599

> <Gold.Chemscore.Internal_Hbond>
0.0000

> <Gold.Chemscore.DEClash>
0.1664

> <Gold.Chemscore.DEInternal>
2.8337

> <Gold.Chemscore.Rot>
1.1949

> <Gold.Chemscore.Internal.Correction>
   9.000000E+99

> <Gold.Chemscore.Hbonds>
donor molecule, donor type, donor heavy atom, donor atom, acceptor molecule, acceptor atom, score
      L1  H     3    47       P1 10186  0.58
      L1  H     8    34       P1 10175  0.39
      L1  H    11    35       P1 10175  0.23

> <Gold.Chemscore.Hbond.Weighted>
-8.7288

> <Gold.Chemscore.Metal.Weighted>
-0.0000

> <Gold.Chemscore.Lipo.Weighted>
-9.2734

> <Gold.Chemscore.Internal_Hbond.Weighted>
0.0000

> <Gold.Chemscore.DEClash.Weighted>
0.1664

> <Gold.Chemscore.DEInternal.Weighted>
2.8337

> <Gold.Chemscore.Rot.Weighted>
3.0590

> <Gold.Chemscore.Internal.Correction.Weighted>
   9.000000E+99

> <Gold.Protein.RotatedTorsions>
[ 6907 6896 6895 6894 ] final  -13.02 input  -60.11 | X-H torsion
[ 7974 7965 7964 7962 ] final    4.58 input  175.53 | X-H torsion
[ 8008 7997 7996 7995 ] final  -24.07 input   59.86 | X-H torsion
[ 10167 10162 10161 10158 ] final   43.30 input  -65.29 | X-H torsion
[ 10718 10713 10712 10709 ] final  145.94 input   66.30 | X-H torsion
[ 10763 10752 10751 10750 ] final  -22.25 input  -60.55 | X-H torsion
[ 11005 11000 10999 10996 ] final -127.83 input  -57.11 | X-H torsion

> <Gold.Protein.ActiveResidues>
 VAL166  LYS551  ARG553  GLY616  TRP617  ASP618  TYR619  PRO620  LYS621  CYS622 
 ASP623  PHE694  ASN695  SER759  ASP760  ASP761  ALA762  ILE779  LEU786  VAL792 
 PHE793  MET794  SER795  GLU796  ALA797  LYS798  CYS799  TRP800  GLU811  SER814 

> <Gold.Protein.RotatedAtoms>
  151.3614  135.0905  159.9435 H   0  0  0  0  0  0  0  0  0  0  0  0  # atno 6907 bound_to 6896
  152.5161  133.9254  159.7565 H   0  0  0  0  0  0  0  0  0  0  0  0  # atno 6908 bound_to 6896
  150.9649  133.6351  159.2777 H   0  0  0  0  0  0  0  0  0  0  0  0  # atno 6909 bound_to 6896
  146.2443  140.0512  142.8375 H   0  0  0  0  0  0  0  0  0  0  0  0  # atno 7974 bound_to 7965
  154.4550  140.1963  156.0407 H   0  0  0  0  0  0  0  0  0  0  0  0  # atno 8008 bound_to 7997
  156.0726  140.3282  155.7567 H   0  0  0  0  0  0  0  0  0  0  0  0  # atno 8009 bound_to 7997
  155.5238  140.0572  157.2892 H   0  0  0  0  0  0  0  0  0  0  0  0  # atno 8010 bound_to 7997
  140.3458  144.2413  150.6150 H   0  0  0  0  0  0  0  0  0  0  0  0  # atno 10167 bound_to 10162
  157.3392  131.0933  151.1097 H   0  0  0  0  0  0  0  0  0  0  0  0  # atno 10718 bound_to 10713
  153.6489  135.6982  153.5216 H   0  0  0  0  0  0  0  0  0  0  0  0  # atno 10763 bound_to 10752
  153.2722  135.4211  155.0998 H   0  0  0  0  0  0  0  0  0  0  0  0  # atno 10764 bound_to 10752
  154.8481  135.3581  154.6033 H   0  0  0  0  0  0  0  0  0  0  0  0  # atno 10765 bound_to 10752
  140.9567  134.0992  157.4009 H   0  0  0  0  0  0  0  0  0  0  0  0  # atno 11005 bound_to 11000
  145.0982  140.9329  143.4728 LP  0  0  0  0  0  0  0  0  0  0  0  0  # atno 17320 bound_to 7965
  145.0700  139.3039  143.5837 LP  0  0  0  0  0  0  0  0  0  0  0  0  # atno 17321 bound_to 7965
  140.5266  143.2253  151.8305 LP  0  0  0  0  0  0  0  0  0  0  0  0  # atno 17342 bound_to 10162
  139.4833  144.4772  151.9352 LP  0  0  0  0  0  0  0  0  0  0  0  0  # atno 17343 bound_to 10162
  157.2315  130.6527  149.5852 LP  0  0  0  0  0  0  0  0  0  0  0  0  # atno 17370 bound_to 10713
  155.9705  130.4597  150.6046 LP  0  0  0  0  0  0  0  0  0  0  0  0  # atno 17371 bound_to 10713
  139.8864  135.0081  156.6499 LP  0  0  0  0  0  0  0  0  0  0  0  0  # atno 17394 bound_to 11000
  140.7526  133.8884  155.8358 LP  0  0  0  0  0  0  0  0  0  0  0  0  # atno 17395 bound_to 11000

$$$$
