AV-unprocessed.smi:2331|AV-procd|sdf|9314|dock7
  -GOLD-   2272012533D 1   1.00000     0.00000
 Structure written by MMmdl.
 49 50  0  0  0  0  0  0  0  0  1 V2000
  152.2729  144.2883  157.7249 C   0  0  0  0  0  0  0  0  0  0  0  0
  151.7210  144.2747  159.1712 C   0  0  0  0  0  0  0  0  0  0  0  0
  151.9453  145.6885  159.7480 C   0  0  0  0  0  0  0  0  0  0  0  0
  150.1943  143.9898  159.1253 C   0  0  0  0  0  0  0  0  0  0  0  0
  149.8228  143.0835  158.0410 N   0  0  0  0  0  0  0  0  0  0  0  0
  149.8819  141.7420  158.0738 C   0  0  0  0  0  0  0  0  0  0  0  0
  150.3843  141.1204  159.0097 O   0  0  0  0  0  0  0  0  0  0  0  0
  149.4105  141.1578  156.9478 N   0  0  0  0  0  0  0  0  0  0  0  0
  148.2654  141.6968  156.2031 C   0  0  0  0  0  0  0  0  0  0  0  0
  147.5022  140.4833  155.6917 C   0  0  0  0  0  0  0  0  0  0  0  0
  148.5936  139.4495  155.4920 C   0  0  0  0  0  0  0  0  0  0  0  0
  149.6312  139.7399  156.5945 C   0  0  1  0  0  0  0  0  0  0  0  0
  151.0958  139.3970  156.1591 C   0  0  0  0  0  0  0  0  0  0  0  0
  152.1096  139.6663  157.2905 C   0  0  0  0  0  0  0  0  0  0  0  0
  151.2646  137.9664  155.6084 C   0  0  0  0  0  0  0  0  0  0  0  0
  151.4899  140.2987  155.1440 O   0  0  0  0  0  0  0  0  0  0  0  0
  152.4297  143.2354  160.0625 C   0  0  0  0  0  0  0  0  0  0  0  0
  152.2505  143.1778  161.4669 C   0  0  0  0  0  0  0  0  0  0  0  0
  152.9609  142.2134  162.2087 C   0  0  0  0  0  0  0  0  0  0  0  0
  153.8132  141.3275  161.6541 N   0  0  0  0  0  0  0  0  0  0  0  0
  153.9855  141.3784  160.3176 C   0  0  0  0  0  0  0  0  0  0  0  0
  153.3255  142.3042  159.4863 C   0  0  0  0  0  0  0  0  0  0  0  0
  151.7545  145.0269  157.1124 H   0  0  0  0  0  0  0  0  0  0  0  0
  152.1536  143.3262  157.2267 H   0  0  0  0  0  0  0  0  0  0  0  0
  153.3332  144.5425  157.7029 H   0  0  0  0  0  0  0  0  0  0  0  0
  151.4706  146.4491  159.1273 H   0  0  0  0  0  0  0  0  0  0  0  0
  153.0078  145.9282  159.8040 H   0  0  0  0  0  0  0  0  0  0  0  0
  151.5333  145.7941  160.7516 H   0  0  0  0  0  0  0  0  0  0  0  0
  149.8792  143.5069  160.0507 H   0  0  0  0  0  0  0  0  0  0  0  0
  149.6260  144.9203  159.0757 H   0  0  0  0  0  0  0  0  0  0  0  0
  149.4332  143.5107  157.2131 H   0  0  0  0  0  0  0  0  0  0  0  0
  147.6107  142.3280  156.8072 H   0  0  0  0  0  0  0  0  0  0  0  0
  148.6392  142.2961  155.3721 H   0  0  0  0  0  0  0  0  0  0  0  0
  146.8021  140.1386  156.4538 H   0  0  0  0  0  0  0  0  0  0  0  0
  146.9374  140.6885  154.7819 H   0  0  0  0  0  0  0  0  0  0  0  0
  148.2127  138.4287  155.5314 H   0  0  0  0  0  0  0  0  0  0  0  0
  149.0269  139.6015  154.5032 H   0  0  0  0  0  0  0  0  0  0  0  0
  149.3579  139.1320  157.4597 H   0  0  0  0  0  0  0  0  0  0  0  0
  151.9868  138.9743  158.1234 H   0  0  0  0  0  0  0  0  0  0  0  0
  152.0052  140.6781  157.6841 H   0  0  0  0  0  0  0  0  0  0  0  0
  153.1369  139.5557  156.9400 H   0  0  0  0  0  0  0  0  0  0  0  0
  150.9653  137.2194  156.3434 H   0  0  0  0  0  0  0  0  0  0  0  0
  152.3031  137.7648  155.3438 H   0  0  0  0  0  0  0  0  0  0  0  0
  150.6689  137.8022  154.7104 H   0  0  0  0  0  0  0  0  0  0  0  0
  151.8664  141.0644  155.5500 H   0  0  0  0  0  0  0  0  0  0  0  0
  151.5934  143.8518  161.9938 H   0  0  0  0  0  0  0  0  0  0  0  0
  152.8421  142.1547  163.2805 H   0  0  0  0  0  0  0  0  0  0  0  0
  154.6743  140.6612  159.8963 H   0  0  0  0  0  0  0  0  0  0  0  0
  153.5165  142.2968  158.4235 H   0  0  0  0  0  0  0  0  0  0  0  0
  1  2  1  0  0  0  0
  1 23  1  0  0  0  0
  1 24  1  0  0  0  0
  1 25  1  0  0  0  0
  2  3  1  0  0  0  0
  2  4  1  0  0  0  0
  2 17  1  0  0  0  0
  3 26  1  0  0  0  0
  3 27  1  0  0  0  0
  3 28  1  0  0  0  0
  4  5  1  0  0  0  0
  4 29  1  0  0  0  0
  4 30  1  0  0  0  0
  5  6  1  0  0  0  0
  5 31  1  0  0  0  0
  6  7  2  0  0  0  0
  6  8  1  0  0  0  0
  8 12  1  0  0  0  0
  8  9  1  0  0  0  0
  9 10  1  0  0  0  0
  9 32  1  0  0  0  0
  9 33  1  0  0  0  0
 10 11  1  0  0  0  0
 10 34  1  0  0  0  0
 10 35  1  0  0  0  0
 11 12  1  0  0  0  0
 11 36  1  0  0  0  0
 11 37  1  0  0  0  0
 12 13  1  0  0  0  0
 12 38  1  0  0  0  0
 13 14  1  0  0  0  0
 13 15  1  0  0  0  0
 13 16  1  0  0  0  0
 14 39  1  0  0  0  0
 14 40  1  0  0  0  0
 14 41  1  0  0  0  0
 15 42  1  0  0  0  0
 15 43  1  0  0  0  0
 15 44  1  0  0  0  0
 16 45  1  0  0  0  0
 17 22  1  0  0  0  0
 17 18  2  0  0  0  0
 18 19  1  0  0  0  0
 18 46  1  0  0  0  0
 19 20  2  0  0  0  0
 19 47  1  0  0  0  0
 20 21  1  0  0  0  0
 21 22  2  0  0  0  0
 21 48  1  0  0  0  0
 22 49  1  0  0  0  0
M  END
> <s_m_source_file>
AV-unprocessed.smi

> <i_m_source_file_index>
2331

> <i_lp_mmshare_version>
43012

> <i_f3d_flags>
0

> <s_epik_input>
W2NIXTFbY0hdbltjSF1bY0hdYzFDKFtDSDNdKShbQ0gzXSlbQ0gyXVtOSF1DKD1PKU4yW0NIMl1bQ0gyXVtDSDJdW0NASF0yQyhbQ0gzXSkoW0NIM10pW09IXQ==

> <s_epik_cmdline>
J2VwaWtfcHl0aG9uJywgJy1waCcsICc3LjAnLCAnLXRuJywgJzgnLCAnLW1hJywgJzIwMCcsICctbWV0YWxfYmluZGluZycsICctaW1hZScsICc8aW5maWxlLm1hZT4nLCAnLW9tYWUnLCAnPG91dGZpbGUubWFlPic=

> <r_epik_Ionization_Penalty>
0.0581496

> <r_epik_Ionization_Penalty_Charging>
0

> <r_epik_Ionization_Penalty_Neutral>
0.0581496

> <r_epik_State_Penalty>
0.0501956

> <r_epik_Charging_Adjusted_Penalty>
0.0501956

> <i_epik_Tot_Q>
0

> <i_epik_Tot_abs_Q>
0

> <r_epik_Metal_State_Penalty>
0.0456895

> <b_epik_Metal_Only>
0

> <s_lp_Force_Field>
OPLS_2005

> <r_lp_Energy>
47.1334

> <b_lp_Chiralities_Consistent>
1

> <s_lp_Variant>
AV-unprocessed.smi:2331-1

> <Gold.Version>
5.8.1

> <Gold.Id.Protein>
6NUR|6NUR_protein|mol2

> <Gold.PLP.Fitness>
49.2810

> <Gold.PLP.PLP>
-45.6196

> <Gold.PLP.part.hbond>
-2.5819

> <Gold.PLP.part.metal>
0.0000

> <Gold.PLP.part.buried>
-3.3828

> <Gold.PLP.part.nonpolar>
-38.9621

> <Gold.PLP.part.repulsive>
0.0543

> <Gold.PLP.ligand.clash>
0.0540

> <Gold.PLP.ligand.torsion>
1.2298

> <Gold.PLP.Chemscore.Hbond>
1.9120

> <Gold.PLP.Chemscore.CHOScore>
0.0000

> <Gold.PLP.Chemscore.Metal>
0.0000

> <Gold.Chemscore.Hbonds>
donor molecule, donor type, donor heavy atom, donor atom, acceptor molecule, acceptor atom, score
      L1  H     5    31       P1  8028  0.99
      P1  H  7989  7998       L1    16  0.73

> <Gold.PLP.Chemscore.Internal.Correction>
0.4390

> <Gold.Rescore>
     Score         DG    S(hbond)    S(metal)    S(lipo)     H(rot)  DE(clash)    DE(int)     intcor
     18.06     -21.14       1.54        0.00     132.19       1.94       0.23       2.85       ----

> <Gold.Chemscore.Fitness>
18.0644

> <Gold.Chemscore.DG>
-21.1371

> <Gold.Chemscore.ZeroCoef>
-5.4800

> <Gold.Chemscore.Hbond>
1.5401

> <Gold.Chemscore.Metal>
0.0000

> <Gold.Chemscore.Lipo>
132.1941

> <Gold.Chemscore.Internal_Hbond>
0.0000

> <Gold.Chemscore.DEClash>
0.2251

> <Gold.Chemscore.DEInternal>
2.8476

> <Gold.Chemscore.Rot>
1.9350

> <Gold.Chemscore.Internal.Correction>
   9.000000E+99

> <Gold.Chemscore.Hbonds>
donor molecule, donor type, donor heavy atom, donor atom, acceptor molecule, acceptor atom, score
      L1  H     5    31       P1  8028  0.77
      P1  H  7989  7998       L1    16  0.09

> <Gold.Chemscore.Hbond.Weighted>
-5.1440

> <Gold.Chemscore.Metal.Weighted>
-0.0000

> <Gold.Chemscore.Lipo.Weighted>
-15.4667

> <Gold.Chemscore.Internal_Hbond.Weighted>
0.0000

> <Gold.Chemscore.DEClash.Weighted>
0.2251

> <Gold.Chemscore.DEInternal.Weighted>
2.8476

> <Gold.Chemscore.Rot.Weighted>
4.9536

> <Gold.Chemscore.Internal.Correction.Weighted>
   9.000000E+99

> <Gold.Protein.RotatedTorsions>
[ 6907 6896 6895 6894 ] final   42.16 input  -60.11 | X-H torsion
[ 7974 7965 7964 7962 ] final   17.06 input  175.53 | X-H torsion
[ 8008 7997 7996 7995 ] final   17.37 input   59.86 | X-H torsion
[ 10167 10162 10161 10158 ] final  163.31 input  -65.29 | X-H torsion
[ 10718 10713 10712 10709 ] final -148.14 input   66.30 | X-H torsion
[ 10763 10752 10751 10750 ] final   99.88 input  -60.55 | X-H torsion
[ 11005 11000 10999 10996 ] final -114.54 input  -57.11 | X-H torsion

> <Gold.Protein.ActiveResidues>
 VAL166  LYS551  ARG553  GLY616  TRP617  ASP618  TYR619  PRO620  LYS621  CYS622 
 ASP623  PHE694  ASN695  SER759  ASP760  ASP761  ALA762  ILE779  LEU786  VAL792 
 PHE793  MET794  SER795  GLU796  ALA797  LYS798  CYS799  TRP800  GLU811  SER814 

> <Gold.Protein.RotatedAtoms>
  152.2043  134.8559  160.0504 H   0  0  0  0  0  0  0  0  0  0  0  0  # atno 6907 bound_to 6896
  151.9401  133.3630  159.3970 H   0  0  0  0  0  0  0  0  0  0  0  0  # atno 6908 bound_to 6896
  150.6962  134.4372  159.5319 H   0  0  0  0  0  0  0  0  0  0  0  0  # atno 6909 bound_to 6896
  146.2230  139.8657  142.8596 H   0  0  0  0  0  0  0  0  0  0  0  0  # atno 7974 bound_to 7965
  154.8905  140.2986  155.5373 H   0  0  0  0  0  0  0  0  0  0  0  0  # atno 8008 bound_to 7997
  156.3021  140.2425  156.3854 H   0  0  0  0  0  0  0  0  0  0  0  0  # atno 8009 bound_to 7997
  154.8623  140.0405  157.1662 H   0  0  0  0  0  0  0  0  0  0  0  0  # atno 8010 bound_to 7997
  139.4872  144.4349  151.9024 H   0  0  0  0  0  0  0  0  0  0  0  0  # atno 10167 bound_to 10162
  156.4164  130.8007  151.2228 H   0  0  0  0  0  0  0  0  0  0  0  0  # atno 10718 bound_to 10713
  153.3070  135.4098  155.1302 H   0  0  0  0  0  0  0  0  0  0  0  0  # atno 10763 bound_to 10752
  154.8565  135.3555  154.5775 H   0  0  0  0  0  0  0  0  0  0  0  0  # atno 10764 bound_to 10752
  153.6202  135.7064  153.5372 H   0  0  0  0  0  0  0  0  0  0  0  0  # atno 10765 bound_to 10752
  141.0545  133.9634  157.2778 H   0  0  0  0  0  0  0  0  0  0  0  0  # atno 11005 bound_to 11000
  145.2659  141.0093  143.3799 LP  0  0  0  0  0  0  0  0  0  0  0  0  # atno 17320 bound_to 7965
  144.9261  139.4353  143.6517 LP  0  0  0  0  0  0  0  0  0  0  0  0  # atno 17321 bound_to 7965
  140.3799  144.2750  150.5910 LP  0  0  0  0  0  0  0  0  0  0  0  0  # atno 17342 bound_to 10162
  140.5243  143.2258  151.8339 LP  0  0  0  0  0  0  0  0  0  0  0  0  # atno 17343 bound_to 10162
  157.7508  131.0241  150.3864 LP  0  0  0  0  0  0  0  0  0  0  0  0  # atno 17370 bound_to 10713
  156.4173  130.3946  149.6850 LP  0  0  0  0  0  0  0  0  0  0  0  0  # atno 17371 bound_to 10713
  139.9378  135.0194  156.8613 LP  0  0  0  0  0  0  0  0  0  0  0  0  # atno 17394 bound_to 11000
  140.5991  134.0189  155.7530 LP  0  0  0  0  0  0  0  0  0  0  0  0  # atno 17395 bound_to 11000

$$$$
