AV-unprocessed.smi:150|AV-procd|sdf|1243|dock5
  -GOLD-   2262018463D 1   1.00000     0.00000
 Structure written by MMmdl.
 55 57  0  0  0  0  0  0  0  0  1 V2000
  147.4071  142.5716  158.2605 C   0  0  0  0  0  0  0  0  0  0  0  0
  147.1646  142.3444  156.7603 C   0  0  0  0  0  0  0  0  0  0  0  0
  145.7650  142.8465  156.3663 C   0  0  0  0  0  0  0  0  0  0  0  0
  147.3903  140.8596  156.3978 C   0  0  0  0  0  0  0  0  0  0  0  0
  148.1617  140.5730  155.0787 C   0  0  1  0  0  0  0  0  0  0  0  0
  147.8056  141.5253  153.9103 C   0  0  0  0  0  0  0  0  0  0  0  0
  148.4520  142.7724  154.0490 O   0  0  0  0  0  0  0  0  0  0  0  0
  149.6143  140.4996  155.3018 N   0  0  0  0  0  0  0  0  0  0  0  0
  150.2023  141.4081  156.2817 C   0  0  0  0  0  0  0  0  0  0  0  0
  150.3197  139.3512  155.1172 C   0  0  0  0  0  0  0  0  0  0  0  0
  151.6088  139.3988  154.6896 N   0  0  0  0  0  0  0  0  0  0  0  0
  152.3009  138.2732  154.4925 C   0  0  0  0  0  0  0  0  0  0  0  0
  151.9027  137.0105  154.6541 N   0  0  0  0  0  0  0  0  0  0  0  0
  150.6075  136.9518  155.0758 C   0  0  0  0  0  0  0  0  0  0  0  0
  149.7525  138.0619  155.3303 C   0  0  0  0  0  0  0  0  0  0  0  0
  148.5095  137.6107  155.7592 N   0  0  0  0  0  0  0  0  0  0  0  0
  148.6220  136.3109  155.7540 C   0  0  0  0  0  0  0  0  0  0  0  0
  149.8455  135.8287  155.3474 N   0  0  0  0  0  0  0  0  0  0  0  0
  150.2417  134.4321  155.2466 C   0  0  0  0  0  0  0  0  0  0  0  0
  149.0630  133.4563  155.0041 C   0  0  0  0  0  0  0  0  0  0  0  0
  148.3168  133.9426  153.9022 O   0  0  0  0  0  0  0  0  0  0  0  0
  149.5949  132.0532  154.6491 C   0  0  0  0  0  0  0  0  0  0  0  0
  148.4685  131.0078  154.5679 C   0  0  0  0  0  0  0  0  0  0  0  0
  147.7344  130.9893  155.7859 O   0  0  0  0  0  0  0  0  0  0  0  0
  147.0807  132.2240  156.0519 C   0  0  0  0  0  0  0  0  0  0  0  0
  148.1184  133.3479  156.2213 C   0  0  0  0  0  0  0  0  0  0  0  0
  146.7032  142.0011  158.8675 H   0  0  0  0  0  0  0  0  0  0  0  0
  147.2948  143.6242  158.5228 H   0  0  0  0  0  0  0  0  0  0  0  0
  148.4149  142.2699  158.5472 H   0  0  0  0  0  0  0  0  0  0  0  0
  147.9022  142.9493  156.2342 H   0  0  0  0  0  0  0  0  0  0  0  0
  144.9829  142.2455  156.8311 H   0  0  0  0  0  0  0  0  0  0  0  0
  145.6134  142.8176  155.2878 H   0  0  0  0  0  0  0  0  0  0  0  0
  145.6186  143.8804  156.6797 H   0  0  0  0  0  0  0  0  0  0  0  0
  147.9046  140.3843  157.2325 H   0  0  0  0  0  0  0  0  0  0  0  0
  146.4147  140.3747  156.3408 H   0  0  0  0  0  0  0  0  0  0  0  0
  147.8982  139.5636  154.7639 H   0  0  0  0  0  0  0  0  0  0  0  0
  148.0689  141.0905  152.9461 H   0  0  0  0  0  0  0  0  0  0  0  0
  146.7339  141.7247  153.8861 H   0  0  0  0  0  0  0  0  0  0  0  0
  149.3506  142.6767  153.7725 H   0  0  0  0  0  0  0  0  0  0  0  0
  150.8883  142.0985  155.7910 H   0  0  0  0  0  0  0  0  0  0  0  0
  150.7521  140.8651  157.0520 H   0  0  0  0  0  0  0  0  0  0  0  0
  149.4355  142.0013  156.7809 H   0  0  0  0  0  0  0  0  0  0  0  0
  153.3188  138.4032  154.1558 H   0  0  0  0  0  0  0  0  0  0  0  0
  147.8076  135.6629  156.0435 H   0  0  0  0  0  0  0  0  0  0  0  0
  150.9797  134.3415  154.4482 H   0  0  0  0  0  0  0  0  0  0  0  0
  150.7608  134.1658  156.1684 H   0  0  0  0  0  0  0  0  0  0  0  0
  148.7442  134.7156  153.5667 H   0  0  0  0  0  0  0  0  0  0  0  0
  150.1487  132.0798  153.7096 H   0  0  0  0  0  0  0  0  0  0  0  0
  150.3054  131.7334  155.4125 H   0  0  0  0  0  0  0  0  0  0  0  0
  147.8008  131.2113  153.7293 H   0  0  0  0  0  0  0  0  0  0  0  0
  148.8916  130.0174  154.3993 H   0  0  0  0  0  0  0  0  0  0  0  0
  146.3769  132.4558  155.2512 H   0  0  0  0  0  0  0  0  0  0  0  0
  146.4942  132.1199  156.9648 H   0  0  0  0  0  0  0  0  0  0  0  0
  148.7079  133.1434  157.1159 H   0  0  0  0  0  0  0  0  0  0  0  0
  147.6043  134.2927  156.4013 H   0  0  0  0  0  0  0  0  0  0  0  0
  1  2  1  0  0  0  0
  1 27  1  0  0  0  0
  1 28  1  0  0  0  0
  1 29  1  0  0  0  0
  2  3  1  0  0  0  0
  2  4  1  0  0  0  0
  2 30  1  0  0  0  0
  3 31  1  0  0  0  0
  3 32  1  0  0  0  0
  3 33  1  0  0  0  0
  4  5  1  0  0  0  0
  4 34  1  0  0  0  0
  4 35  1  0  0  0  0
  5  6  1  0  0  0  0
  5  8  1  0  0  0  0
  5 36  1  0  0  0  0
  6  7  1  0  0  0  0
  6 37  1  0  0  0  0
  6 38  1  0  0  0  0
  7 39  1  0  0  0  0
  8  9  1  0  0  0  0
  8 10  1  0  0  0  0
  9 40  1  0  0  0  0
  9 41  1  0  0  0  0
  9 42  1  0  0  0  0
 10 15  1  0  0  0  0
 10 11  2  0  0  0  0
 11 12  1  0  0  0  0
 12 13  2  0  0  0  0
 12 43  1  0  0  0  0
 13 14  1  0  0  0  0
 14 18  1  0  0  0  0
 14 15  2  0  0  0  0
 15 16  1  0  0  0  0
 16 17  2  0  0  0  0
 17 18  1  0  0  0  0
 17 44  1  0  0  0  0
 18 19  1  0  0  0  0
 19 20  1  0  0  0  0
 19 45  1  0  0  0  0
 19 46  1  0  0  0  0
 20 26  1  0  0  0  0
 20 21  1  0  0  0  0
 20 22  1  0  0  0  0
 21 47  1  0  0  0  0
 22 23  1  0  0  0  0
 22 48  1  0  0  0  0
 22 49  1  0  0  0  0
 23 24  1  0  0  0  0
 23 50  1  0  0  0  0
 23 51  1  0  0  0  0
 24 25  1  0  0  0  0
 25 26  1  0  0  0  0
 25 52  1  0  0  0  0
 25 53  1  0  0  0  0
 26 54  1  0  0  0  0
 26 55  1  0  0  0  0
M  END
> <s_m_source_file>
AV-unprocessed.smi

> <i_m_source_file_index>
150

> <i_lp_mmshare_version>
43012

> <i_f3d_flags>
0

> <s_epik_input>
W0NIM11bQ0hdKFtDSDNdKVtDSDJdW0NASF0oW0NIMl1bT0hdKU4oW0NIM10pYyhuW2NIXW4xKWMoYzEyKW5bY0hdbjJbQ0gyXUMzKFtPSF0pW0NIMl1bQ0gyXU9bQ0gyXVtDSDJdMw==

> <s_epik_cmdline>
J2VwaWtfcHl0aG9uJywgJy1waCcsICc3LjAnLCAnLXRuJywgJzgnLCAnLW1hJywgJzIwMCcsICctbWV0YWxfYmluZGluZycsICctaW1hZScsICc8aW5maWxlLm1hZT4nLCAnLW9tYWUnLCAnPG91dGZpbGUubWFlPic=

> <r_lp_tautomer_probability>
1

> <r_epik_Ionization_Penalty>
0.00548416

> <r_epik_Ionization_Penalty_Charging>
0

> <r_epik_Ionization_Penalty_Neutral>
0.00548416

> <r_epik_State_Penalty>
0.0038135

> <r_epik_Charging_Adjusted_Penalty>
0.0038135

> <i_epik_Tot_Q>
0

> <i_epik_Tot_abs_Q>
0

> <r_epik_Metal_State_Penalty>
-0

> <b_epik_Metal_Only>
0

> <s_lp_Force_Field>
OPLS_2005

> <r_lp_Energy>
26.5114

> <b_lp_Chiralities_Consistent>
1

> <s_lp_Variant>
AV-unprocessed.smi:150-2

> <Gold.Version>
5.8.1

> <Gold.Id.Protein>
6NUR|6NUR_protein|mol2

> <Gold.PLP.Fitness>
45.4153

> <Gold.PLP.PLP>
-38.4883

> <Gold.PLP.part.hbond>
-5.4660

> <Gold.PLP.part.metal>
0.0000

> <Gold.PLP.part.buried>
-2.6054

> <Gold.PLP.part.nonpolar>
-27.9533

> <Gold.PLP.part.repulsive>
0.3091

> <Gold.PLP.ligand.clash>
0.0000

> <Gold.PLP.ligand.torsion>
2.5119

> <Gold.PLP.Chemscore.Hbond>
3.6260

> <Gold.PLP.Chemscore.CHOScore>
0.0000

> <Gold.PLP.Chemscore.Metal>
0.0000

> <Gold.Chemscore.Hbonds>
donor molecule, donor type, donor heavy atom, donor atom, acceptor molecule, acceptor atom, score
      L1  H    21    47       P1  7948  0.42
      P1  H  7989  7998       L1    11  1.00
      P1  H  8022  8030       L1     7  0.40
      P1  H 10752 10763       L1    13  1.00

> <Gold.PLP.Chemscore.Internal.Correction>
1.0728

> <Gold.Rescore>
     Score         DG    S(hbond)    S(metal)    S(lipo)     H(rot)  DE(clash)    DE(int)     intcor
      6.61     -11.35       2.41        0.00      55.79       3.40       0.11       4.64       ----

> <Gold.Chemscore.Fitness>
6.6058

> <Gold.Chemscore.DG>
-11.3544

> <Gold.Chemscore.ZeroCoef>
-5.4800

> <Gold.Chemscore.Hbond>
2.4100

> <Gold.Chemscore.Metal>
0.0000

> <Gold.Chemscore.Lipo>
55.7943

> <Gold.Chemscore.Internal_Hbond>
0.0000

> <Gold.Chemscore.DEClash>
0.1072

> <Gold.Chemscore.DEInternal>
4.6414

> <Gold.Chemscore.Rot>
3.3995

> <Gold.Chemscore.Internal.Correction>
   9.000000E+99

> <Gold.Chemscore.Hbonds>
donor molecule, donor type, donor heavy atom, donor atom, acceptor molecule, acceptor atom, score
      L1  H    21    47       P1  7948  0.18
      P1  H  7989  7998       L1    11  0.49
      P1  H  8022  8030       L1     7  0.01
      P1  H 10752 10763       L1    13  0.95

> <Gold.Chemscore.Hbond.Weighted>
-8.0493

> <Gold.Chemscore.Metal.Weighted>
-0.0000

> <Gold.Chemscore.Lipo.Weighted>
-6.5279

> <Gold.Chemscore.Internal_Hbond.Weighted>
0.0000

> <Gold.Chemscore.DEClash.Weighted>
0.1072

> <Gold.Chemscore.DEInternal.Weighted>
4.6414

> <Gold.Chemscore.Rot.Weighted>
8.7028

> <Gold.Chemscore.Internal.Correction.Weighted>
   9.000000E+99

> <Gold.Protein.RotatedTorsions>
[ 6907 6896 6895 6894 ] final   43.69 input  -60.11 | X-H torsion
[ 7974 7965 7964 7962 ] final  -90.40 input  175.53 | X-H torsion
[ 8008 7997 7996 7995 ] final  -46.60 input   59.86 | X-H torsion
[ 10167 10162 10161 10158 ] final  -39.76 input  -65.29 | X-H torsion
[ 10718 10713 10712 10709 ] final   -1.34 input   66.30 | X-H torsion
[ 10763 10752 10751 10750 ] final   48.51 input  -60.55 | X-H torsion
[ 11005 11000 10999 10996 ] final  -25.70 input  -57.11 | X-H torsion

> <Gold.Protein.ActiveResidues>
 VAL166  LYS551  ARG553  GLY616  TRP617  ASP618  TYR619  PRO620  LYS621  CYS622 
 ASP623  PHE694  ASN695  SER759  ASP760  ASP761  ALA762  ILE779  LEU786  VAL792 
 PHE793  MET794  SER795  GLU796  ALA797  LYS798  CYS799  TRP800  GLU811  SER814 

> <Gold.Protein.RotatedAtoms>
  152.2234  134.8391  160.0482 H   0  0  0  0  0  0  0  0  0  0  0  0  # atno 6907 bound_to 6896
  151.9166  133.3569  159.3890 H   0  0  0  0  0  0  0  0  0  0  0  0  # atno 6908 bound_to 6896
  150.7006  134.4603  159.5421 H   0  0  0  0  0  0  0  0  0  0  0  0  # atno 6909 bound_to 6896
  145.4270  140.9554  143.2149 H   0  0  0  0  0  0  0  0  0  0  0  0  # atno 7974 bound_to 7965
  154.4009  140.1367  156.4038 H   0  0  0  0  0  0  0  0  0  0  0  0  # atno 8008 bound_to 7997
  155.7799  140.3482  155.5271 H   0  0  0  0  0  0  0  0  0  0  0  0  # atno 8009 bound_to 7997
  155.8684  140.0968  157.1557 H   0  0  0  0  0  0  0  0  0  0  0  0  # atno 8010 bound_to 7997
  140.7054  143.3194  151.2828 H   0  0  0  0  0  0  0  0  0  0  0  0  # atno 10167 bound_to 10162
  156.8070  130.5412  149.5714 H   0  0  0  0  0  0  0  0  0  0  0  0  # atno 10718 bound_to 10713
  152.9791  135.5942  154.3937 H   0  0  0  0  0  0  0  0  0  0  0  0  # atno 10763 bound_to 10752
  154.3590  135.2767  155.2332 H   0  0  0  0  0  0  0  0  0  0  0  0  # atno 10764 bound_to 10752
  154.4338  135.6030  153.6140 H   0  0  0  0  0  0  0  0  0  0  0  0  # atno 10765 bound_to 10752
  140.8962  133.7555  156.0484 H   0  0  0  0  0  0  0  0  0  0  0  0  # atno 11005 bound_to 11000
  144.8208  139.5796  143.6988 LP  0  0  0  0  0  0  0  0  0  0  0  0  # atno 17320 bound_to 7965
  146.2627  139.6447  142.9351 LP  0  0  0  0  0  0  0  0  0  0  0  0  # atno 17321 bound_to 7965
  139.6644  144.0132  152.2713 LP  0  0  0  0  0  0  0  0  0  0  0  0  # atno 17342 bound_to 10162
  139.9710  144.6494  150.7989 LP  0  0  0  0  0  0  0  0  0  0  0  0  # atno 17343 bound_to 10162
  156.1067  130.6009  150.9982 LP  0  0  0  0  0  0  0  0  0  0  0  0  # atno 17370 bound_to 10713
  157.6525  131.0895  150.8020 LP  0  0  0  0  0  0  0  0  0  0  0  0  # atno 17371 bound_to 10713
  140.8286  134.3205  157.5357 LP  0  0  0  0  0  0  0  0  0  0  0  0  # atno 17394 bound_to 11000
  139.8736  134.9350  156.3623 LP  0  0  0  0  0  0  0  0  0  0  0  0  # atno 17395 bound_to 11000

$$$$
