AV-unprocessed.smi:101|AV-procd|sdf|923|dock7
  -GOLD-   2262017433D 1   1.00000     0.00000
 Structure written by MMmdl.
 44 46  0  0  0  0  0  0  0  0  1 V2000
  145.9586  136.9582  157.3234 C   0  0  0  0  0  0  0  0  0  0  0  0
  147.2335  136.2490  157.7485 C   0  0  0  0  0  0  0  0  0  0  0  0
  148.4437  136.5408  157.2071 C   0  0  0  0  0  0  0  0  0  0  0  0
  149.6235  135.9069  157.5717 N   0  0  0  0  0  0  0  0  0  0  0  0
  150.9366  136.2964  156.9277 C   0  0  2  0  0  0  0  0  0  0  0  0
  151.0649  137.6793  157.0209 O   0  0  0  0  0  0  0  0  0  0  0  0
  151.7327  138.1584  155.8651 C   0  0  2  0  0  0  0  0  0  0  0  0
  151.4155  139.6445  155.6664 C   0  0  0  0  0  0  0  0  0  0  0  0
  151.7843  140.3575  156.8353 O   0  0  0  0  0  0  0  0  0  0  0  0
  151.0764  141.4379  157.2175 C   0  0  0  0  0  0  0  0  0  0  0  0
  150.0307  141.7959  156.6720 O   0  0  0  0  0  0  0  0  0  0  0  0
  151.6911  142.1566  158.3709 C   0  0  0  0  0  0  0  0  0  0  0  0
  152.6220  141.4786  159.1924 C   0  0  0  0  0  0  0  0  0  0  0  0
  153.2198  142.1305  160.2884 C   0  0  0  0  0  0  0  0  0  0  0  0
  152.8949  143.4690  160.5759 C   0  0  0  0  0  0  0  0  0  0  0  0
  151.9704  144.1546  159.7665 C   0  0  0  0  0  0  0  0  0  0  0  0
  151.3711  143.5042  158.6703 C   0  0  0  0  0  0  0  0  0  0  0  0
  151.1913  137.2618  154.7486 C   0  0  1  0  0  0  0  0  0  0  0  0
  152.1224  137.1832  153.6872 O   0  0  0  0  0  0  0  0  0  0  0  0
  151.0290  135.9080  155.4332 C   0  0  2  0  0  0  0  0  0  0  0  0
  149.8940  135.2253  154.9305 O   0  0  0  0  0  0  0  0  0  0  0  0
  149.5911  134.8891  158.5470 C   0  0  0  0  0  0  0  0  0  0  0  0
  150.5907  134.2655  158.9013 O   0  0  0  0  0  0  0  0  0  0  0  0
  148.3498  134.5930  159.1075 N   0  0  0  0  0  0  0  0  0  0  0  0
  147.1401  135.2108  158.7791 C   0  0  0  0  0  0  0  0  0  0  0  0
  146.1067  134.8620  159.3472 O   0  0  0  0  0  0  0  0  0  0  0  0
  148.3210  133.8673  159.8089 H   0  0  0  0  0  0  0  0  0  0  0  0
  146.1479  137.6993  156.5461 H   0  0  0  0  0  0  0  0  0  0  0  0
  145.5071  137.4720  158.1728 H   0  0  0  0  0  0  0  0  0  0  0  0
  145.2357  136.2413  156.9320 H   0  0  0  0  0  0  0  0  0  0  0  0
  148.4914  137.3034  156.4425 H   0  0  0  0  0  0  0  0  0  0  0  0
  151.7400  135.8570  157.5211 H   0  0  0  0  0  0  0  0  0  0  0  0
  152.8060  138.0000  155.9899 H   0  0  0  0  0  0  0  0  0  0  0  0
  151.9818  140.0368  154.8205 H   0  0  0  0  0  0  0  0  0  0  0  0
  150.3555  139.7812  155.4469 H   0  0  0  0  0  0  0  0  0  0  0  0
  152.8877  140.4505  158.9912 H   0  0  0  0  0  0  0  0  0  0  0  0
  153.9289  141.6024  160.9086 H   0  0  0  0  0  0  0  0  0  0  0  0
  153.3539  143.9687  161.4161 H   0  0  0  0  0  0  0  0  0  0  0  0
  151.7200  145.1821  159.9866 H   0  0  0  0  0  0  0  0  0  0  0  0
  150.6662  144.0600  158.0690 H   0  0  0  0  0  0  0  0  0  0  0  0
  150.2302  137.6387  154.3935 H   0  0  0  0  0  0  0  0  0  0  0  0
  151.6575  136.9722  152.8920 H   0  0  0  0  0  0  0  0  0  0  0  0
  151.9160  135.2851  155.3071 H   0  0  0  0  0  0  0  0  0  0  0  0
  149.6438  135.6249  154.1113 H   0  0  0  0  0  0  0  0  0  0  0  0
  1  2  1  0  0  0  0
  1 28  1  0  0  0  0
  1 29  1  0  0  0  0
  1 30  1  0  0  0  0
  2 25  1  0  0  0  0
  2  3  2  0  0  0  0
  3  4  1  0  0  0  0
  3 31  1  0  0  0  0
  4  5  1  0  0  0  0
  4 22  1  0  0  0  0
  5 20  1  0  0  0  0
  5  6  1  0  0  0  0
  5 32  1  0  0  0  0
  6  7  1  0  0  0  0
  7  8  1  0  0  0  0
  7 18  1  0  0  0  0
  7 33  1  0  0  0  0
  8  9  1  0  0  0  0
  8 34  1  0  0  0  0
  8 35  1  0  0  0  0
  9 10  1  0  0  0  0
 10 11  2  0  0  0  0
 10 12  1  0  0  0  0
 12 17  1  0  0  0  0
 12 13  2  0  0  0  0
 13 14  1  0  0  0  0
 13 36  1  0  0  0  0
 14 15  2  0  0  0  0
 14 37  1  0  0  0  0
 15 16  1  0  0  0  0
 15 38  1  0  0  0  0
 16 17  2  0  0  0  0
 16 39  1  0  0  0  0
 17 40  1  0  0  0  0
 18 19  1  0  0  0  0
 18 20  1  0  0  0  0
 18 41  1  0  0  0  0
 19 42  1  0  0  0  0
 20 21  1  0  0  0  0
 20 43  1  0  0  0  0
 21 44  1  0  0  0  0
 22 23  2  0  0  0  0
 22 24  1  0  0  0  0
 24 27  1  0  0  0  0
 24 25  1  0  0  0  0
 25 26  2  0  0  0  0
M  END
> <s_m_source_file>
AV-unprocessed.smi

> <i_m_source_file_index>
101

> <i_lp_mmshare_version>
43012

> <i_f3d_flags>
0

> <s_epik_input>
Tz1jMVtuSF1jKD1PKW4oW2NIXWMxW0NIM10pW0NAQEhdMk9bQ0BIXShbQ0BASF0oW09IXSlbQ0BIXTJbT0hdKVtDSDJdT0MoPU8pYzNbY0hdW2NIXVtjSF1bY0hdW2NIXTM=

> <s_epik_cmdline>
J2VwaWtfcHl0aG9uJywgJy1waCcsICc3LjAnLCAnLXRuJywgJzgnLCAnLW1hJywgJzIwMCcsICctbWV0YWxfYmluZGluZycsICctaW1hZScsICc8aW5maWxlLm1hZT4nLCAnLW9tYWUnLCAnPG91dGZpbGUubWFlPic=

> <r_lp_tautomer_probability>
0.999537

> <r_epik_Ionization_Penalty>
0.00263537

> <r_epik_Ionization_Penalty_Charging>
0.00263428

> <r_epik_Ionization_Penalty_Neutral>
1.09111e-06

> <r_epik_State_Penalty>
0.00183335

> <r_epik_Charging_Adjusted_Penalty>
0.00446763

> <i_epik_Tot_Q>
0

> <i_epik_Tot_abs_Q>
0

> <r_epik_Metal_State_Penalty>
1.00528

> <b_epik_Metal_Only>
0

> <s_epik_Chemistry_Notes>
This compound has an ester and may undergo hydrolysis at high or low pH. This compound contains an acetal/aminal-like group ( X-CH(R)-Y where X, Y are N, S, or O) that may be acid/base labile, releasing an aldehyde.

> <s_lp_Force_Field>
OPLS_2005

> <r_lp_Energy>
35.5527

> <b_lp_Chiralities_Consistent>
1

> <s_lp_Variant>
AV-unprocessed.smi:101-11

> <Gold.Version>
5.8.1

> <Gold.Id.Protein>
6NUR|6NUR_protein|mol2

> <Gold.PLP.Fitness>
47.4087

> <Gold.PLP.PLP>
-36.2492

> <Gold.PLP.part.hbond>
-4.0000

> <Gold.PLP.part.metal>
0.0000

> <Gold.PLP.part.buried>
-3.9888

> <Gold.PLP.part.nonpolar>
-27.3102

> <Gold.PLP.part.repulsive>
0.6540

> <Gold.PLP.ligand.clash>
0.0000

> <Gold.PLP.ligand.torsion>
0.5949

> <Gold.PLP.Chemscore.Hbond>
3.9920

> <Gold.PLP.Chemscore.CHOScore>
0.0000

> <Gold.PLP.Chemscore.Metal>
0.0000

> <Gold.Chemscore.Hbonds>
donor molecule, donor type, donor heavy atom, donor atom, acceptor molecule, acceptor atom, score
      L1  H    19    42       P1  7949  1.00
      L1  H    21    44       P1  7948  0.10
      P1  H 10752 10764       L1    19  0.99

> <Gold.PLP.Chemscore.Internal.Correction>
0.3734

> <Gold.Rescore>
     Score         DG    S(hbond)    S(metal)    S(lipo)     H(rot)  DE(clash)    DE(int)     intcor
     18.07     -19.47       3.57        0.00      90.20       3.32       0.04       1.36       ----

> <Gold.Chemscore.Fitness>
18.0675

> <Gold.Chemscore.DG>
-19.4667

> <Gold.Chemscore.ZeroCoef>
-5.4800

> <Gold.Chemscore.Hbond>
3.5705

> <Gold.Chemscore.Metal>
0.0000

> <Gold.Chemscore.Lipo>
90.1980

> <Gold.Chemscore.Internal_Hbond>
0.0000

> <Gold.Chemscore.DEClash>
0.0368

> <Gold.Chemscore.DEInternal>
1.3623

> <Gold.Chemscore.Rot>
3.3172

> <Gold.Chemscore.Internal.Correction>
   9.000000E+99

> <Gold.Chemscore.Hbonds>
donor molecule, donor type, donor heavy atom, donor atom, acceptor molecule, acceptor atom, score
      L1  H    19    42       P1  7949  0.97
      L1  H    21    44       P1  7948  0.04
      P1  H 10752 10764       L1    19  0.19

> <Gold.Chemscore.Hbond.Weighted>
-11.9255

> <Gold.Chemscore.Metal.Weighted>
-0.0000

> <Gold.Chemscore.Lipo.Weighted>
-10.5532

> <Gold.Chemscore.Internal_Hbond.Weighted>
0.0000

> <Gold.Chemscore.DEClash.Weighted>
0.0368

> <Gold.Chemscore.DEInternal.Weighted>
1.3623

> <Gold.Chemscore.Rot.Weighted>
8.4920

> <Gold.Chemscore.Internal.Correction.Weighted>
   9.000000E+99

> <Gold.Protein.RotatedTorsions>
[ 6907 6896 6895 6894 ] final   13.72 input  -60.11 | X-H torsion
[ 7974 7965 7964 7962 ] final  -34.77 input  175.53 | X-H torsion
[ 8008 7997 7996 7995 ] final   -5.72 input   59.86 | X-H torsion
[ 10167 10162 10161 10158 ] final  -48.66 input  -65.29 | X-H torsion
[ 10718 10713 10712 10709 ] final  178.02 input   66.30 | X-H torsion
[ 10763 10752 10751 10750 ] final -107.50 input  -60.55 | X-H torsion
[ 11005 11000 10999 10996 ] final  117.11 input  -57.11 | X-H torsion

> <Gold.Protein.ActiveResidues>
 VAL166  LYS551  ARG553  GLY616  TRP617  ASP618  TYR619  PRO620  LYS621  CYS622 
 ASP623  PHE694  ASN695  SER759  ASP760  ASP761  ALA762  ILE779  LEU786  VAL792 
 PHE793  MET794  SER795  GLU796  ALA797  LYS798  CYS799  TRP800  GLU811  SER814 

> <Gold.Protein.RotatedAtoms>
  151.7908  135.0736  160.0386 H   0  0  0  0  0  0  0  0  0  0  0  0  # atno 6907 bound_to 6896
  152.3158  133.5796  159.5719 H   0  0  0  0  0  0  0  0  0  0  0  0  # atno 6908 bound_to 6896
  150.7343  134.0001  159.3677 H   0  0  0  0  0  0  0  0  0  0  0  0  # atno 6909 bound_to 6896
  146.0802  140.6079  142.8912 H   0  0  0  0  0  0  0  0  0  0  0  0  # atno 7974 bound_to 7965
  154.6010  140.2451  155.7792 H   0  0  0  0  0  0  0  0  0  0  0  0  # atno 8008 bound_to 7997
  156.2311  140.2966  156.0143 H   0  0  0  0  0  0  0  0  0  0  0  0  # atno 8009 bound_to 7997
  155.2211  140.0400  157.2939 H   0  0  0  0  0  0  0  0  0  0  0  0  # atno 8010 bound_to 7997
  140.6721  143.2730  151.4102 H   0  0  0  0  0  0  0  0  0  0  0  0  # atno 10167 bound_to 10162
  156.8968  130.9865  151.3041 H   0  0  0  0  0  0  0  0  0  0  0  0  # atno 10718 bound_to 10713
  154.8079  135.4672  154.0440 H   0  0  0  0  0  0  0  0  0  0  0  0  # atno 10763 bound_to 10752
  153.1894  135.6853  153.8379 H   0  0  0  0  0  0  0  0  0  0  0  0  # atno 10764 bound_to 10752
  153.7902  135.3244  155.3355 H   0  0  0  0  0  0  0  0  0  0  0  0  # atno 10765 bound_to 10752
  139.9063  134.9606  156.7301 H   0  0  0  0  0  0  0  0  0  0  0  0  # atno 11005 bound_to 11000
  144.7288  140.4607  143.6953 LP  0  0  0  0  0  0  0  0  0  0  0  0  # atno 17320 bound_to 7965
  145.6233  139.1527  143.3010 LP  0  0  0  0  0  0  0  0  0  0  0  0  # atno 17321 bound_to 7965
  139.5994  144.1327  152.2181 LP  0  0  0  0  0  0  0  0  0  0  0  0  # atno 17342 bound_to 10162
  140.0707  144.5782  150.7194 LP  0  0  0  0  0  0  0  0  0  0  0  0  # atno 17343 bound_to 10162
  157.6050  130.8541  149.8862 LP  0  0  0  0  0  0  0  0  0  0  0  0  # atno 17370 bound_to 10713
  156.0602  130.3701  150.1000 LP  0  0  0  0  0  0  0  0  0  0  0  0  # atno 17371 bound_to 10713
  140.6932  133.9371  155.7979 LP  0  0  0  0  0  0  0  0  0  0  0  0  # atno 17394 bound_to 11000
  141.0426  134.0599  157.3883 LP  0  0  0  0  0  0  0  0  0  0  0  0  # atno 17395 bound_to 11000

$$$$
