AV-unprocessed.smi:1265|AV-procd|sdf|5319|dock1
  -GOLD-   22720 4443D 1   1.00000     0.00000
 Structure written by MMmdl.
 45 47  0  0  0  0  0  0  0  0  2 V2000
  144.7147  135.5125  153.3908 O   0  0  0  0  0  0  0  0  0  0  0  0
  145.7913  135.7241  152.8350 C   0  0  0  0  0  0  0  0  0  0  0  0
  146.6071  136.7332  153.1734 N   0  0  0  0  0  0  0  0  0  0  0  0
  146.3585  137.7063  154.2377 C   0  0  0  0  0  0  0  0  0  0  0  0
  147.5881  138.6205  154.5460 C   0  0  1  0  0  0  0  0  0  0  0  0
  148.8383  137.7733  154.5286 N   0  3  0  0  0  0  0  0  0  0  0  0
  150.1413  138.4833  154.6637 C   0  0  0  0  0  0  0  0  0  0  0  0
  151.3223  137.5065  154.5190 C   0  0  0  0  0  0  0  0  0  0  0  0
  151.2033  136.4464  155.4555 O   0  0  0  0  0  0  0  0  0  0  0  0
  150.0188  135.6946  155.2418 C   0  0  0  0  0  0  0  0  0  0  0  0
  148.7993  136.6041  155.4527 C   0  0  0  0  0  0  0  0  0  0  0  0
  147.6307  139.8067  153.5410 C   0  0  0  0  0  0  0  0  0  0  0  0
  146.4712  140.7563  153.8572 C   0  0  0  0  0  0  0  0  0  0  0  0
  146.2429  140.7287  155.6518 S   0  0  0  0  0  0  0  0  0  0  0  0
  147.3784  139.3358  155.9014 C   0  0  0  0  0  0  0  0  0  0  0  0
  146.3130  134.9978  151.8305 N   0  0  0  0  0  0  0  0  0  0  0  0
  145.7785  133.8615  151.1607 C   0  0  0  0  0  0  0  0  0  0  0  0
  144.3798  133.8139  150.9847 C   0  0  0  0  0  0  0  0  0  0  0  0
  143.8118  132.7013  150.3327 C   0  0  0  0  0  0  0  0  0  0  0  0
  144.5393  131.6656  149.8657 N   0  0  0  0  0  0  0  0  0  0  0  0
  145.8767  131.7069  150.0408 C   0  0  0  0  0  0  0  0  0  0  0  0
  146.5446  132.7707  150.6804 C   0  0  0  0  0  0  0  0  0  0  0  0
  147.4816  136.8180  152.6764 H   0  0  0  0  0  0  0  0  0  0  0  0
  145.4638  138.2874  154.0153 H   0  0  0  0  0  0  0  0  0  0  0  0
  146.0820  137.1347  155.1226 H   0  0  0  0  0  0  0  0  0  0  0  0
  150.2626  139.2319  153.8823 H   0  0  0  0  0  0  0  0  0  0  0  0
  150.1913  138.9943  155.6260 H   0  0  0  0  0  0  0  0  0  0  0  0
  151.3702  137.1053  153.5052 H   0  0  0  0  0  0  0  0  0  0  0  0
  152.2629  138.0284  154.6958 H   0  0  0  0  0  0  0  0  0  0  0  0
  150.0167  135.2586  154.2414 H   0  0  0  0  0  0  0  0  0  0  0  0
  149.9956  134.8664  155.9504 H   0  0  0  0  0  0  0  0  0  0  0  0
  148.7871  136.9440  156.4890 H   0  0  0  0  0  0  0  0  0  0  0  0
  147.8978  136.0131  155.3011 H   0  0  0  0  0  0  0  0  0  0  0  0
  148.5292  140.4061  153.6809 H   0  0  0  0  0  0  0  0  0  0  0  0
  147.6262  139.4885  152.4990 H   0  0  0  0  0  0  0  0  0  0  0  0
  146.6711  141.7701  153.5095 H   0  0  0  0  0  0  0  0  0  0  0  0
  145.5510  140.4240  153.3766 H   0  0  0  0  0  0  0  0  0  0  0  0
  146.9972  138.6725  156.6786 H   0  0  0  0  0  0  0  0  0  0  0  0
  148.3179  139.7531  156.2642 H   0  0  0  0  0  0  0  0  0  0  0  0
  147.2306  135.2788  151.5180 H   0  0  0  0  0  0  0  0  0  0  0  0
  143.7472  134.6151  151.3384 H   0  0  0  0  0  0  0  0  0  0  0  0
  142.7436  132.6424  150.1837 H   0  0  0  0  0  0  0  0  0  0  0  0
  146.4339  130.8630  149.6619 H   0  0  0  0  0  0  0  0  0  0  0  0
  147.6160  132.7170  150.7881 H   0  0  0  0  0  0  0  0  0  0  0  0
  148.8635  137.3831  153.5974 H   0  0  0  0  0  0  0  0  0  0  0  0
  1  2  2  0  0  0  0
  2  3  1  0  0  0  0
  2 16  1  0  0  0  0
  3  4  1  0  0  0  0
  3 23  1  0  0  0  0
  4  5  1  0  0  0  0
  4 24  1  0  0  0  0
  4 25  1  0  0  0  0
  5 15  1  0  0  0  0
  5  6  1  0  0  0  0
  5 12  1  0  0  0  0
  6 11  1  0  0  0  0
  6  7  1  0  0  0  0
  6 45  1  0  0  0  0
  7  8  1  0  0  0  0
  7 26  1  0  0  0  0
  7 27  1  0  0  0  0
  8  9  1  0  0  0  0
  8 28  1  0  0  0  0
  8 29  1  0  0  0  0
  9 10  1  0  0  0  0
 10 11  1  0  0  0  0
 10 30  1  0  0  0  0
 10 31  1  0  0  0  0
 11 32  1  0  0  0  0
 11 33  1  0  0  0  0
 12 13  1  0  0  0  0
 12 34  1  0  0  0  0
 12 35  1  0  0  0  0
 13 14  1  0  0  0  0
 13 36  1  0  0  0  0
 13 37  1  0  0  0  0
 14 15  1  0  0  0  0
 15 38  1  0  0  0  0
 15 39  1  0  0  0  0
 16 17  1  0  0  0  0
 16 40  1  0  0  0  0
 17 22  1  0  0  0  0
 17 18  2  0  0  0  0
 18 19  1  0  0  0  0
 18 41  1  0  0  0  0
 19 20  2  0  0  0  0
 19 42  1  0  0  0  0
 20 21  1  0  0  0  0
 21 22  2  0  0  0  0
 21 43  1  0  0  0  0
 22 44  1  0  0  0  0
M  CHG  1   6   1
M  END
> <s_m_source_file>
AV-unprocessed.smi

> <i_m_source_file_index>
1265

> <i_lp_mmshare_version>
43012

> <i_f3d_flags>
0

> <s_epik_input>
W2NIXTFbY0hdbltjSF1bY0hdYzFbTkhdQyg9TylbTkhdW0NIMl1bQ0BdMihbQ0gyXVtDSDJdU1tDSDJdMilOM1tDSDJdW0NIMl1PW0NIMl1bQ0gyXTM=

> <s_epik_cmdline>
J2VwaWtfcHl0aG9uJywgJy1waCcsICc3LjAnLCAnLXRuJywgJzgnLCAnLW1hJywgJzIwMCcsICctbWV0YWxfYmluZGluZycsICctaW1hZScsICc8aW5maWxlLm1hZT4nLCAnLW9tYWUnLCAnPG91dGZpbGUubWFlPic=

> <r_epik_Ionization_Penalty>
2.1318

> <r_epik_Ionization_Penalty_Charging>
2.03219

> <r_epik_Ionization_Penalty_Neutral>
0.0996087

> <r_epik_State_Penalty>
2.24194

> <r_epik_Charging_Adjusted_Penalty>
4.27413

> <i_epik_Tot_Q>
1

> <i_epik_Tot_abs_Q>
1

> <r_epik_Metal_State_Penalty>
2.2363

> <b_epik_Metal_Only>
0

> <s_lp_Force_Field>
OPLS_2005

> <r_lp_Energy>
49.9245

> <b_lp_Chiralities_Consistent>
1

> <s_lp_Variant>
AV-unprocessed.smi:1265-5

> <Gold.Version>
5.8.1

> <Gold.Id.Protein>
6NUR|6NUR_protein|mol2

> <Gold.PLP.Fitness>
50.2299

> <Gold.PLP.PLP>
-31.5073

> <Gold.PLP.part.hbond>
-4.8945

> <Gold.PLP.part.metal>
0.0000

> <Gold.PLP.part.buried>
-2.6709

> <Gold.PLP.part.nonpolar>
-25.9301

> <Gold.PLP.part.repulsive>
0.3864

> <Gold.PLP.ligand.clash>
0.0000

> <Gold.PLP.ligand.torsion>
0.5952

> <Gold.PLP.Chemscore.Hbond>
5.0432

> <Gold.PLP.Chemscore.CHOScore>
1.5242

> <Gold.PLP.Chemscore.Metal>
0.0000

> <Gold.Chemscore.Hbonds>
donor molecule, donor type, donor heavy atom, donor atom, acceptor molecule, acceptor atom, score
      L1  H     3    23       P1  7948  1.00
      L1  H     6    45       P1  7948  1.79
      L1  H    16    40       P1  7948  1.00
      P1  H 10752 10765       L1     9  0.53
      P1  H 10785 10796       L1    20  0.15
      L1  C    19    42       P1 10186  0.92
      L1  C    21    43       P1 10747  0.61

> <Gold.PLP.Chemscore.Internal.Correction>
0.2107

> <Gold.Rescore>
     Score         DG    S(hbond)    S(metal)    S(lipo)     H(rot)  DE(clash)    DE(int)     intcor
     21.94     -24.73       3.85        0.00      87.03       1.49       0.98       1.80       ----

> <Gold.Chemscore.Fitness>
21.9448

> <Gold.Chemscore.DG>
-24.7269

> <Gold.Chemscore.ZeroCoef>
-5.4800

> <Gold.Chemscore.Hbond>
3.8529

> <Gold.Chemscore.Metal>
0.0000

> <Gold.Chemscore.Lipo>
87.0301

> <Gold.Chemscore.Internal_Hbond>
0.0000

> <Gold.Chemscore.DEClash>
0.9782

> <Gold.Chemscore.DEInternal>
1.8039

> <Gold.Chemscore.Rot>
1.4860

> <Gold.Chemscore.Internal.Correction>
   9.000000E+99

> <Gold.Chemscore.Hbonds>
donor molecule, donor type, donor heavy atom, donor atom, acceptor molecule, acceptor atom, score
      L1  H     3    23       P1  7948  0.99
      L1  H     6    45       P1  7948  0.87
      L1  H    16    40       P1  7948  0.88
      P1  H 10752 10765       L1     9  0.05
      P1  H 10785 10796       L1    20  0.13

> <Gold.Chemscore.Hbond.Weighted>
-12.8686

> <Gold.Chemscore.Metal.Weighted>
-0.0000

> <Gold.Chemscore.Lipo.Weighted>
-10.1825

> <Gold.Chemscore.Internal_Hbond.Weighted>
0.0000

> <Gold.Chemscore.DEClash.Weighted>
0.9782

> <Gold.Chemscore.DEInternal.Weighted>
1.8039

> <Gold.Chemscore.Rot.Weighted>
3.8042

> <Gold.Chemscore.Internal.Correction.Weighted>
   9.000000E+99

> <Gold.Protein.RotatedTorsions>
[ 6907 6896 6895 6894 ] final -143.33 input  -60.11 | X-H torsion
[ 7974 7965 7964 7962 ] final  158.99 input  175.53 | X-H torsion
[ 8008 7997 7996 7995 ] final  -34.00 input   59.86 | X-H torsion
[ 10167 10162 10161 10158 ] final  -19.40 input  -65.29 | X-H torsion
[ 10718 10713 10712 10709 ] final   19.33 input   66.30 | X-H torsion
[ 10763 10752 10751 10750 ] final -161.16 input  -60.55 | X-H torsion
[ 11005 11000 10999 10996 ] final  167.96 input  -57.11 | X-H torsion

> <Gold.Protein.ActiveResidues>
 VAL166  LYS551  ARG553  GLY616  TRP617  ASP618  TYR619  PRO620  LYS621  CYS622 
 ASP623  PHE694  ASN695  SER759  ASP760  ASP761  ALA762  ILE779  LEU786  VAL792 
 PHE793  MET794  SER795  GLU796  ALA797  LYS798  CYS799  TRP800  GLU811  SER814 

> <Gold.Protein.RotatedAtoms>
  151.0990  133.5258  159.2610 H   0  0  0  0  0  0  0  0  0  0  0  0  # atno 6907 bound_to 6896
  151.2096  135.0475  159.8916 H   0  0  0  0  0  0  0  0  0  0  0  0  # atno 6908 bound_to 6896
  152.5441  134.0807  159.8288 H   0  0  0  0  0  0  0  0  0  0  0  0  # atno 6909 bound_to 6896
  144.7815  139.7554  143.6258 H   0  0  0  0  0  0  0  0  0  0  0  0  # atno 7974 bound_to 7965
  154.4133  140.1695  156.1979 H   0  0  0  0  0  0  0  0  0  0  0  0  # atno 8008 bound_to 7997
  155.9548  140.3398  155.6416 H   0  0  0  0  0  0  0  0  0  0  0  0  # atno 8009 bound_to 7997
  155.6823  140.0724  157.2470 H   0  0  0  0  0  0  0  0  0  0  0  0  # atno 8010 bound_to 7997
  140.7268  143.4822  151.0102 H   0  0  0  0  0  0  0  0  0  0  0  0  # atno 10167 bound_to 10162
  157.1089  130.6500  149.5892 H   0  0  0  0  0  0  0  0  0  0  0  0  # atno 10718 bound_to 10713
  154.7328  135.3050  154.8863 H   0  0  0  0  0  0  0  0  0  0  0  0  # atno 10763 bound_to 10752
  153.9701  135.6743  153.4751 H   0  0  0  0  0  0  0  0  0  0  0  0  # atno 10764 bound_to 10752
  153.0934  135.4948  154.8654 H   0  0  0  0  0  0  0  0  0  0  0  0  # atno 10765 bound_to 10752
  140.2822  134.7741  157.3768 H   0  0  0  0  0  0  0  0  0  0  0  0  # atno 11005 bound_to 11000
  146.2025  139.5329  142.9734 LP  0  0  0  0  0  0  0  0  0  0  0  0  # atno 17320 bound_to 7965
  145.6037  141.0351  143.2004 LP  0  0  0  0  0  0  0  0  0  0  0  0  # atno 17321 bound_to 7965
  139.8521  143.7424  152.3177 LP  0  0  0  0  0  0  0  0  0  0  0  0  # atno 17342 bound_to 10162
  139.7610  144.7506  151.0364 LP  0  0  0  0  0  0  0  0  0  0  0  0  # atno 17343 bound_to 10162
  155.9855  130.4885  150.7035 LP  0  0  0  0  0  0  0  0  0  0  0  0  # atno 17370 bound_to 10713
  157.4576  131.0879  151.0780 LP  0  0  0  0  0  0  0  0  0  0  0  0  # atno 17371 bound_to 10713
  140.1272  134.5142  155.8135 LP  0  0  0  0  0  0  0  0  0  0  0  0  # atno 17394 bound_to 11000
  141.2161  133.6777  156.6974 LP  0  0  0  0  0  0  0  0  0  0  0  0  # atno 17395 bound_to 11000

$$$$
