AV-unprocessed.smi:2862|AV-procd|sdf|11008|dock8
  -GOLD-   2272015463D 1   1.00000     0.00000
 Structure written by MMmdl.
 52 54  0  0  0  0  0  0  0  0  1 V2000
  146.1106  134.0522  154.9362 C   0  0  0  0  0  0  0  0  0  0  0  0
  147.5685  134.4714  154.6814 C   0  0  2  0  0  0  0  0  0  0  0  0
  147.5931  135.6840  153.8680 N   0  0  0  0  0  0  0  0  0  0  0  0
  147.0050  136.8512  154.1883 C   0  0  0  0  0  0  0  0  0  0  0  0
  146.4153  137.0280  155.2538 O   0  0  0  0  0  0  0  0  0  0  0  0
  147.0565  138.0040  153.1709 C   0  0  0  0  0  0  0  0  0  0  0  0
  147.6843  139.2430  153.6643 N   0  0  0  0  0  0  0  0  0  0  0  0
  147.0244  140.4513  153.3593 C   0  0  0  0  0  0  0  0  0  0  0  0
  147.4959  141.6442  153.7551 C   0  0  0  0  0  0  0  0  0  0  0  0
  148.7209  141.6773  154.5158 C   0  0  0  0  0  0  0  0  0  0  0  0
  149.3722  140.5282  154.7894 C   0  0  0  0  0  0  0  0  0  0  0  0
  150.5946  140.5334  155.5910 C   0  0  0  0  0  0  0  0  0  0  0  0
  151.6834  140.2316  155.0984 O   0  0  0  0  0  0  0  0  0  0  0  0
  150.4725  140.8568  156.9111 N   0  0  0  0  0  0  0  0  0  0  0  0
  149.1213  141.1050  157.4348 C   0  0  0  0  0  0  0  0  0  0  0  0
  151.5748  141.1351  157.8621 C   0  0  2  0  0  0  0  0  0  0  0  0
  151.7936  139.9524  158.8245 C   0  0  0  0  0  0  0  0  0  0  0  0
  151.4390  142.4608  158.5954 C   0  0  0  0  0  0  0  0  0  0  0  0
  151.7663  143.7647  157.9083 C   0  0  0  0  0  0  0  0  0  0  0  0
  152.6569  143.2489  159.0162 C   0  0  0  0  0  0  0  0  0  0  0  0
  148.8498  139.2043  154.3823 C   0  0  0  0  0  0  0  0  0  0  0  0
  149.3981  138.1336  154.6561 O   0  0  0  0  0  0  0  0  0  0  0  0
  148.3501  133.3282  154.0608 C   0  0  0  0  0  0  0  0  0  0  0  0
  149.6634  133.5891  153.3601 C   0  0  0  0  0  0  0  0  0  0  0  0
  148.4537  133.1646  152.5626 C   0  0  0  0  0  0  0  0  0  0  0  0
  146.0618  133.1685  155.5728 H   0  0  0  0  0  0  0  0  0  0  0  0
  145.5967  133.8175  154.0032 H   0  0  0  0  0  0  0  0  0  0  0  0
  145.5487  134.8419  155.4357 H   0  0  0  0  0  0  0  0  0  0  0  0
  148.0299  134.6920  155.6459 H   0  0  0  0  0  0  0  0  0  0  0  0
  148.0598  135.6206  152.9747 H   0  0  0  0  0  0  0  0  0  0  0  0
  147.5989  137.6475  152.2938 H   0  0  0  0  0  0  0  0  0  0  0  0
  146.0444  138.1922  152.8083 H   0  0  0  0  0  0  0  0  0  0  0  0
  146.1172  140.3437  152.7821 H   0  0  0  0  0  0  0  0  0  0  0  0
  146.9736  142.5565  153.5070 H   0  0  0  0  0  0  0  0  0  0  0  0
  149.1117  142.6258  154.8564 H   0  0  0  0  0  0  0  0  0  0  0  0
  148.6300  141.9032  156.8760 H   0  0  0  0  0  0  0  0  0  0  0  0
  149.1113  141.4044  158.4818 H   0  0  0  0  0  0  0  0  0  0  0  0
  148.5104  140.2051  157.3517 H   0  0  0  0  0  0  0  0  0  0  0  0
  152.5200  141.2212  157.3309 H   0  0  0  0  0  0  0  0  0  0  0  0
  152.6845  140.1058  159.4307 H   0  0  0  0  0  0  0  0  0  0  0  0
  151.9291  139.0169  158.2827 H   0  0  0  0  0  0  0  0  0  0  0  0
  150.9607  139.8173  159.5134 H   0  0  0  0  0  0  0  0  0  0  0  0
  150.6044  142.4951  159.2927 H   0  0  0  0  0  0  0  0  0  0  0  0
  152.1521  143.7188  156.8919 H   0  0  0  0  0  0  0  0  0  0  0  0
  151.1313  144.6205  158.1282 H   0  0  0  0  0  0  0  0  0  0  0  0
  152.6169  143.7617  159.9750 H   0  0  0  0  0  0  0  0  0  0  0  0
  153.6361  142.8718  158.7300 H   0  0  0  0  0  0  0  0  0  0  0  0
  148.3077  132.4076  154.6401 H   0  0  0  0  0  0  0  0  0  0  0  0
  149.9914  134.6219  153.2600 H   0  0  0  0  0  0  0  0  0  0  0  0
  150.4581  132.8583  153.4962 H   0  0  0  0  0  0  0  0  0  0  0  0
  148.4604  132.1543  152.1603 H   0  0  0  0  0  0  0  0  0  0  0  0
  147.9754  133.9139  151.9349 H   0  0  0  0  0  0  0  0  0  0  0  0
  1  2  1  0  0  0  0
  1 26  1  0  0  0  0
  1 27  1  0  0  0  0
  1 28  1  0  0  0  0
  2  3  1  0  0  0  0
  2 23  1  0  0  0  0
  2 29  1  0  0  0  0
  3  4  1  0  0  0  0
  3 30  1  0  0  0  0
  4  5  2  0  0  0  0
  4  6  1  0  0  0  0
  6  7  1  0  0  0  0
  6 31  1  0  0  0  0
  6 32  1  0  0  0  0
  7 21  1  0  0  0  0
  7  8  1  0  0  0  0
  8  9  2  0  0  0  0
  8 33  1  0  0  0  0
  9 10  1  0  0  0  0
  9 34  1  0  0  0  0
 10 11  2  0  0  0  0
 10 35  1  0  0  0  0
 11 12  1  0  0  0  0
 11 21  1  0  0  0  0
 12 13  2  0  0  0  0
 12 14  1  0  0  0  0
 14 15  1  0  0  0  0
 14 16  1  0  0  0  0
 15 36  1  0  0  0  0
 15 37  1  0  0  0  0
 15 38  1  0  0  0  0
 16 17  1  0  0  0  0
 16 18  1  0  0  0  0
 16 39  1  0  0  0  0
 17 40  1  0  0  0  0
 17 41  1  0  0  0  0
 17 42  1  0  0  0  0
 18 20  1  0  0  0  0
 18 19  1  0  0  0  0
 18 43  1  0  0  0  0
 19 20  1  0  0  0  0
 19 44  1  0  0  0  0
 19 45  1  0  0  0  0
 20 46  1  0  0  0  0
 20 47  1  0  0  0  0
 21 22  2  0  0  0  0
 23 25  1  0  0  0  0
 23 24  1  0  0  0  0
 23 48  1  0  0  0  0
 24 25  1  0  0  0  0
 24 49  1  0  0  0  0
 24 50  1  0  0  0  0
 25 51  1  0  0  0  0
 25 52  1  0  0  0  0
M  END
> <s_m_source_file>
AV-unprocessed.smi

> <i_m_source_file_index>
2862

> <i_lp_mmshare_version>
43012

> <i_f3d_flags>
0

> <s_epik_input>
W0NIMl0xW0NIMl1bQ0hdMVtDQEhdKFtDSDNdKVtOSF1DKD1PKVtDSDJdbjJbY0hdW2NIXVtjSF1jKGMyPU8pQyg9TylOKFtDSDNdKVtDQEhdKFtDSDNdKVtDSF0zW0NIMl1bQ0gyXTM=

> <s_epik_cmdline>
J2VwaWtfcHl0aG9uJywgJy1waCcsICc3LjAnLCAnLXRuJywgJzgnLCAnLW1hJywgJzIwMCcsICctbWV0YWxfYmluZGluZycsICctaW1hZScsICc8aW5maWxlLm1hZT4nLCAnLW9tYWUnLCAnPG91dGZpbGUubWFlPic=

> <r_lp_tautomer_probability>
1

> <r_epik_Ionization_Penalty>
4.00841e-08

> <r_epik_Ionization_Penalty_Charging>
2.07773e-08

> <r_epik_Ionization_Penalty_Neutral>
1.93069e-08

> <r_epik_State_Penalty>
-0

> <r_epik_Charging_Adjusted_Penalty>
2.07773e-08

> <i_epik_Tot_Q>
0

> <i_epik_Tot_abs_Q>
0

> <r_epik_Metal_State_Penalty>
-0

> <b_epik_Metal_Only>
0

> <s_lp_Force_Field>
OPLS_2005

> <r_lp_Energy>
63.2381

> <b_lp_Chiralities_Consistent>
1

> <s_lp_Variant>
AV-unprocessed.smi:2862-1

> <Gold.Version>
5.8.1

> <Gold.Id.Protein>
6NUR|6NUR_protein|mol2

> <Gold.PLP.Fitness>
50.4671

> <Gold.PLP.PLP>
-44.0226

> <Gold.PLP.part.hbond>
-2.0000

> <Gold.PLP.part.metal>
0.0000

> <Gold.PLP.part.buried>
-2.6592

> <Gold.PLP.part.nonpolar>
-39.5516

> <Gold.PLP.part.repulsive>
0.2139

> <Gold.PLP.ligand.clash>
1.1158

> <Gold.PLP.ligand.torsion>
2.9816

> <Gold.PLP.Chemscore.Hbond>
1.9280

> <Gold.PLP.Chemscore.CHOScore>
1.0000

> <Gold.PLP.Chemscore.Metal>
0.0000

> <Gold.Chemscore.Hbonds>
donor molecule, donor type, donor heavy atom, donor atom, acceptor molecule, acceptor atom, score
      L1  H     3    30       P1  7948  1.00
      P1  H  7989  7998       L1    13  0.93
      L1  C     8    33       P1 10175  1.00

> <Gold.PLP.Chemscore.Internal.Correction>
4.7395

> <Gold.Rescore>
     Score         DG    S(hbond)    S(metal)    S(lipo)     H(rot)  DE(clash)    DE(int)     intcor
     14.25     -18.67       1.80        0.00      99.22       1.73       0.02       4.39       ----

> <Gold.Chemscore.Fitness>
14.2540

> <Gold.Chemscore.DG>
-18.6666

> <Gold.Chemscore.ZeroCoef>
-5.4800

> <Gold.Chemscore.Hbond>
1.8020

> <Gold.Chemscore.Metal>
0.0000

> <Gold.Chemscore.Lipo>
99.2231

> <Gold.Chemscore.Internal_Hbond>
0.0000

> <Gold.Chemscore.DEClash>
0.0195

> <Gold.Chemscore.DEInternal>
4.3931

> <Gold.Chemscore.Rot>
1.7348

> <Gold.Chemscore.Internal.Correction>
   9.000000E+99

> <Gold.Chemscore.Hbonds>
donor molecule, donor type, donor heavy atom, donor atom, acceptor molecule, acceptor atom, score
      L1  H     3    30       P1  7948  0.91
      P1  H  7989  7998       L1    13  0.49

> <Gold.Chemscore.Hbond.Weighted>
-6.0187

> <Gold.Chemscore.Metal.Weighted>
-0.0000

> <Gold.Chemscore.Lipo.Weighted>
-11.6091

> <Gold.Chemscore.Internal_Hbond.Weighted>
0.0000

> <Gold.Chemscore.DEClash.Weighted>
0.0195

> <Gold.Chemscore.DEInternal.Weighted>
4.3931

> <Gold.Chemscore.Rot.Weighted>
4.4412

> <Gold.Chemscore.Internal.Correction.Weighted>
   9.000000E+99

> <Gold.Protein.RotatedTorsions>
[ 6907 6896 6895 6894 ] final   31.75 input  -60.11 | X-H torsion
[ 7974 7965 7964 7962 ] final  137.64 input  175.53 | X-H torsion
[ 8008 7997 7996 7995 ] final  119.90 input   59.86 | X-H torsion
[ 10167 10162 10161 10158 ] final  -94.86 input  -65.29 | X-H torsion
[ 10718 10713 10712 10709 ] final   -9.31 input   66.30 | X-H torsion
[ 10763 10752 10751 10750 ] final  155.99 input  -60.55 | X-H torsion
[ 11005 11000 10999 10996 ] final  153.86 input  -57.11 | X-H torsion

> <Gold.Protein.ActiveResidues>
 VAL166  LYS551  ARG553  GLY616  TRP617  ASP618  TYR619  PRO620  LYS621  CYS622 
 ASP623  PHE694  ASN695  SER759  ASP760  ASP761  ALA762  ILE779  LEU786  VAL792 
 PHE793  MET794  SER795  GLU796  ALA797  LYS798  CYS799  TRP800  GLU811  SER814 

> <Gold.Protein.RotatedAtoms>
  152.0647  134.9572  160.0574 H   0  0  0  0  0  0  0  0  0  0  0  0  # atno 6907 bound_to 6896
  152.0921  133.4201  159.4557 H   0  0  0  0  0  0  0  0  0  0  0  0  # atno 6908 bound_to 6896
  150.6837  134.2778  159.4658 H   0  0  0  0  0  0  0  0  0  0  0  0  # atno 6909 bound_to 6896
  144.9448  139.4888  143.5554 H   0  0  0  0  0  0  0  0  0  0  0  0  # atno 7974 bound_to 7965
  156.2618  140.2842  156.1065 H   0  0  0  0  0  0  0  0  0  0  0  0  # atno 8008 bound_to 7997
  155.1303  140.0393  157.2790 H   0  0  0  0  0  0  0  0  0  0  0  0  # atno 8009 bound_to 7997
  154.6604  140.2565  155.7121 H   0  0  0  0  0  0  0  0  0  0  0  0  # atno 8010 bound_to 7997
  140.3101  143.3110  152.0158 H   0  0  0  0  0  0  0  0  0  0  0  0  # atno 10167 bound_to 10162
  156.6899  130.5062  149.5946 H   0  0  0  0  0  0  0  0  0  0  0  0  # atno 10718 bound_to 10713
  154.1771  135.2801  155.3063 H   0  0  0  0  0  0  0  0  0  0  0  0  # atno 10763 bound_to 10752
  154.6031  135.5523  153.7398 H   0  0  0  0  0  0  0  0  0  0  0  0  # atno 10764 bound_to 10752
  153.0148  135.6396  154.1911 H   0  0  0  0  0  0  0  0  0  0  0  0  # atno 10765 bound_to 10752
  140.1436  134.8722  157.2363 H   0  0  0  0  0  0  0  0  0  0  0  0  # atno 11005 bound_to 11000
  146.3299  139.8492  142.8876 LP  0  0  0  0  0  0  0  0  0  0  0  0  # atno 17320 bound_to 7965
  145.2935  141.0174  143.3649 LP  0  0  0  0  0  0  0  0  0  0  0  0  # atno 17321 bound_to 7965
  139.4896  144.6391  151.6914 LP  0  0  0  0  0  0  0  0  0  0  0  0  # atno 17342 bound_to 10162
  140.5576  144.0322  150.6155 LP  0  0  0  0  0  0  0  0  0  0  0  0  # atno 17343 bound_to 10162
  156.1805  130.6496  151.0946 LP  0  0  0  0  0  0  0  0  0  0  0  0  # atno 17370 bound_to 10713
  157.7012  131.0775  150.6812 LP  0  0  0  0  0  0  0  0  0  0  0  0  # atno 17371 bound_to 10713
  140.2691  134.3481  155.7379 LP  0  0  0  0  0  0  0  0  0  0  0  0  # atno 17394 bound_to 11000
  141.2189  133.7413  156.9196 LP  0  0  0  0  0  0  0  0  0  0  0  0  # atno 17395 bound_to 11000

$$$$
