AV-unprocessed.smi:3030|AV-procd|sdf|11537|dock10
  -GOLD-   2272016483D 1   1.00000     0.00000
 Structure written by MMmdl.
 52 53  0  0  0  0  0  0  0  0  1 V2000
  145.7500  143.2354  154.9881 C   0  0  0  0  0  0  0  0  0  0  0  0
  146.2267  142.5703  153.6922 C   0  0  0  0  0  0  0  0  0  0  0  0
  147.2383  141.5548  153.9471 N   0  0  0  0  0  0  0  0  0  0  0  0
  148.5021  141.8943  154.4191 C   0  0  0  0  0  0  0  0  0  0  0  0
  149.4974  141.0081  154.6163 C   0  0  0  0  0  0  0  0  0  0  0  0
  149.2646  139.5801  154.3188 C   0  0  0  0  0  0  0  0  0  0  0  0
  150.1525  138.7436  154.4832 O   0  0  0  0  0  0  0  0  0  0  0  0
  147.9133  139.2173  153.8158 C   0  0  0  0  0  0  0  0  0  0  0  0
  147.6998  137.8607  153.5224 N   0  0  0  0  0  0  0  0  0  0  0  0
  146.7802  137.0187  154.0278 C   0  0  0  0  0  0  0  0  0  0  0  0
  145.9593  137.2900  154.9038 O   0  0  0  0  0  0  0  0  0  0  0  0
  146.8770  135.8098  153.4571 N   0  0  0  0  0  0  0  0  0  0  0  0
  146.0446  134.6468  153.7702 C   0  0  2  0  0  0  0  0  0  0  0  0
  146.8278  133.6370  154.6350 C   0  0  0  0  0  0  0  0  0  0  0  0
  147.9501  132.9324  153.8519 C   0  0  1  0  0  0  0  0  0  0  0  0
  148.7033  131.9254  154.7327 C   0  0  0  0  0  0  0  0  0  0  0  0
  147.3683  132.2616  152.5981 C   0  0  0  0  0  0  0  0  0  0  0  0
  146.6135  133.2662  151.7133 C   0  0  0  0  0  0  0  0  0  0  0  0
  145.4779  133.9942  152.4766 C   0  0  2  0  0  0  0  0  0  0  0  0
  144.6860  134.9878  151.5706 C   0  0  0  0  0  0  0  0  0  0  0  0
  145.6113  135.8970  150.7382 C   0  0  0  0  0  0  0  0  0  0  0  0
  143.7108  135.8733  152.3700 C   0  0  0  0  0  0  0  0  0  0  0  0
  147.0041  140.2125  153.6561 C   0  0  0  0  0  0  0  0  0  0  0  0
  144.9945  143.9928  154.7796 H   0  0  0  0  0  0  0  0  0  0  0  0
  146.5757  143.7222  155.5078 H   0  0  0  0  0  0  0  0  0  0  0  0
  145.3097  142.5044  155.6669 H   0  0  0  0  0  0  0  0  0  0  0  0
  145.3800  142.1177  153.1745 H   0  0  0  0  0  0  0  0  0  0  0  0
  146.6297  143.3248  153.0154 H   0  0  0  0  0  0  0  0  0  0  0  0
  148.6319  142.9465  154.6273 H   0  0  0  0  0  0  0  0  0  0  0  0
  150.4635  141.3179  154.9873 H   0  0  0  0  0  0  0  0  0  0  0  0
  148.3471  137.4702  152.8528 H   0  0  0  0  0  0  0  0  0  0  0  0
  147.5837  135.6783  152.7483 H   0  0  0  0  0  0  0  0  0  0  0  0
  145.2003  134.9755  154.3769 H   0  0  0  0  0  0  0  0  0  0  0  0
  147.2409  134.1393  155.5108 H   0  0  0  0  0  0  0  0  0  0  0  0
  146.1333  132.8883  155.0189 H   0  0  0  0  0  0  0  0  0  0  0  0
  148.6708  133.6852  153.5296 H   0  0  0  0  0  0  0  0  0  0  0  0
  148.0391  131.1400  155.0948 H   0  0  0  0  0  0  0  0  0  0  0  0
  149.1427  132.4170  155.6011 H   0  0  0  0  0  0  0  0  0  0  0  0
  149.5131  131.4483  154.1801 H   0  0  0  0  0  0  0  0  0  0  0  0
  148.1679  131.7973  152.0197 H   0  0  0  0  0  0  0  0  0  0  0  0
  146.6925  131.4561  152.8893 H   0  0  0  0  0  0  0  0  0  0  0  0
  147.3158  133.9952  151.3070 H   0  0  0  0  0  0  0  0  0  0  0  0
  146.2149  132.7171  150.8615 H   0  0  0  0  0  0  0  0  0  0  0  0
  144.7717  133.2264  152.7978 H   0  0  0  0  0  0  0  0  0  0  0  0
  144.0837  134.4111  150.8676 H   0  0  0  0  0  0  0  0  0  0  0  0
  146.3014  136.4503  151.3758 H   0  0  0  0  0  0  0  0  0  0  0  0
  145.0367  136.6244  150.1642 H   0  0  0  0  0  0  0  0  0  0  0  0
  146.1991  135.3309  150.0161 H   0  0  0  0  0  0  0  0  0  0  0  0
  144.2248  136.4124  153.1662 H   0  0  0  0  0  0  0  0  0  0  0  0
  142.9054  135.2933  152.8187 H   0  0  0  0  0  0  0  0  0  0  0  0
  143.2338  136.6128  151.7262 H   0  0  0  0  0  0  0  0  0  0  0  0
  146.0095  140.0422  153.2758 H   0  0  0  0  0  0  0  0  0  0  0  0
  1  2  1  0  0  0  0
  1 24  1  0  0  0  0
  1 25  1  0  0  0  0
  1 26  1  0  0  0  0
  2  3  1  0  0  0  0
  2 27  1  0  0  0  0
  2 28  1  0  0  0  0
  3 23  1  0  0  0  0
  3  4  1  0  0  0  0
  4  5  2  0  0  0  0
  4 29  1  0  0  0  0
  5  6  1  0  0  0  0
  5 30  1  0  0  0  0
  6  7  2  0  0  0  0
  6  8  1  0  0  0  0
  8  9  1  0  0  0  0
  8 23  2  0  0  0  0
  9 10  1  0  0  0  0
  9 31  1  0  0  0  0
 10 11  2  0  0  0  0
 10 12  1  0  0  0  0
 12 13  1  0  0  0  0
 12 32  1  0  0  0  0
 13 19  1  0  0  0  0
 13 14  1  0  0  0  0
 13 33  1  0  0  0  0
 14 15  1  0  0  0  0
 14 34  1  0  0  0  0
 14 35  1  0  0  0  0
 15 16  1  0  0  0  0
 15 17  1  0  0  0  0
 15 36  1  0  0  0  0
 16 37  1  0  0  0  0
 16 38  1  0  0  0  0
 16 39  1  0  0  0  0
 17 18  1  0  0  0  0
 17 40  1  0  0  0  0
 17 41  1  0  0  0  0
 18 19  1  0  0  0  0
 18 42  1  0  0  0  0
 18 43  1  0  0  0  0
 19 20  1  0  0  0  0
 19 44  1  0  0  0  0
 20 21  1  0  0  0  0
 20 22  1  0  0  0  0
 20 45  1  0  0  0  0
 21 46  1  0  0  0  0
 21 47  1  0  0  0  0
 21 48  1  0  0  0  0
 22 49  1  0  0  0  0
 22 50  1  0  0  0  0
 22 51  1  0  0  0  0
 23 52  1  0  0  0  0
M  END
> <s_m_source_file>
AV-unprocessed.smi

> <i_m_source_file_index>
3030

> <i_lp_mmshare_version>
43012

> <i_f3d_flags>
0

> <s_epik_input>
W0NIM11bQ0gyXW4xW2NIXVtjSF1jKD1PKWMoW2NIXTEpW05IXUMoPU8pW05IXVtDQEBIXTJbQ0gyXVtDQEBIXShbQ0gzXSlbQ0gyXVtDSDJdW0NASF0yW0NIXShbQ0gzXSlbQ0gzXQ==

> <s_epik_cmdline>
J2VwaWtfcHl0aG9uJywgJy1waCcsICc3LjAnLCAnLXRuJywgJzgnLCAnLW1hJywgJzIwMCcsICctbWV0YWxfYmluZGluZycsICctaW1hZScsICc8aW5maWxlLm1hZT4nLCAnLW9tYWUnLCAnPG91dGZpbGUubWFlPic=

> <r_lp_tautomer_probability>
1

> <r_epik_Ionization_Penalty>
0.00147933

> <r_epik_Ionization_Penalty_Charging>
0.00145753

> <r_epik_Ionization_Penalty_Neutral>
2.17987e-05

> <r_epik_State_Penalty>
0.00097457

> <r_epik_Charging_Adjusted_Penalty>
0.0024321

> <i_epik_Tot_Q>
0

> <i_epik_Tot_abs_Q>
0

> <r_epik_Metal_State_Penalty>
-0

> <b_epik_Metal_Only>
0

> <s_lp_Force_Field>
OPLS_2005

> <r_lp_Energy>
9.06052

> <b_lp_Chiralities_Consistent>
1

> <s_lp_Variant>
AV-unprocessed.smi:3030-5

> <Gold.Version>
5.8.1

> <Gold.Id.Protein>
6NUR|6NUR_protein|mol2

> <Gold.PLP.Fitness>
49.4429

> <Gold.PLP.PLP>
-39.3214

> <Gold.PLP.part.hbond>
-2.0000

> <Gold.PLP.part.metal>
0.0000

> <Gold.PLP.part.buried>
-2.1072

> <Gold.PLP.part.nonpolar>
-35.2225

> <Gold.PLP.part.repulsive>
0.2376

> <Gold.PLP.ligand.clash>
0.0000

> <Gold.PLP.ligand.torsion>
0.9351

> <Gold.PLP.Chemscore.Hbond>
2.0000

> <Gold.PLP.Chemscore.CHOScore>
1.9738

> <Gold.PLP.Chemscore.Metal>
0.0000

> <Gold.Chemscore.Hbonds>
donor molecule, donor type, donor heavy atom, donor atom, acceptor molecule, acceptor atom, score
      L1  H     9    31       P1  7948  1.00
      L1  H    12    32       P1  7948  1.00
      L1  C     4    29       P1  8028  1.00
      L1  C    23    52       P1 10175  1.00

> <Gold.PLP.Chemscore.Internal.Correction>
0.0704

> <Gold.Rescore>
     Score         DG    S(hbond)    S(metal)    S(lipo)     H(rot)  DE(clash)    DE(int)     intcor
     17.68     -18.85       1.96        0.00      86.21       1.27       0.09       1.08       ----

> <Gold.Chemscore.Fitness>
17.6844

> <Gold.Chemscore.DG>
-18.8531

> <Gold.Chemscore.ZeroCoef>
-5.4800

> <Gold.Chemscore.Hbond>
1.9562

> <Gold.Chemscore.Metal>
0.0000

> <Gold.Chemscore.Lipo>
86.2135

> <Gold.Chemscore.Internal_Hbond>
0.0000

> <Gold.Chemscore.DEClash>
0.0902

> <Gold.Chemscore.DEInternal>
1.0786

> <Gold.Chemscore.Rot>
1.2685

> <Gold.Chemscore.Internal.Correction>
   9.000000E+99

> <Gold.Chemscore.Hbonds>
donor molecule, donor type, donor heavy atom, donor atom, acceptor molecule, acceptor atom, score
      L1  H     9    31       P1  7948  0.98
      L1  H    12    32       P1  7948  0.96

> <Gold.Chemscore.Hbond.Weighted>
-6.5336

> <Gold.Chemscore.Metal.Weighted>
-0.0000

> <Gold.Chemscore.Lipo.Weighted>
-10.0870

> <Gold.Chemscore.Internal_Hbond.Weighted>
0.0000

> <Gold.Chemscore.DEClash.Weighted>
0.0902

> <Gold.Chemscore.DEInternal.Weighted>
1.0786

> <Gold.Chemscore.Rot.Weighted>
3.2474

> <Gold.Chemscore.Internal.Correction.Weighted>
   9.000000E+99

> <Gold.Protein.RotatedTorsions>
[ 6907 6896 6895 6894 ] final   75.53 input  -60.11 | X-H torsion
[ 7974 7965 7964 7962 ] final   96.83 input  175.53 | X-H torsion
[ 8008 7997 7996 7995 ] final   26.97 input   59.86 | X-H torsion
[ 10167 10162 10161 10158 ] final  -95.57 input  -65.29 | X-H torsion
[ 10718 10713 10712 10709 ] final -116.27 input   66.30 | X-H torsion
[ 10763 10752 10751 10750 ] final   55.67 input  -60.55 | X-H torsion
[ 11005 11000 10999 10996 ] final -160.09 input  -57.11 | X-H torsion

> <Gold.Protein.ActiveResidues>
 VAL166  LYS551  ARG553  GLY616  TRP617  ASP618  TYR619  PRO620  LYS621  CYS622 
 ASP623  PHE694  ASN695  SER759  ASP760  ASP761  ALA762  ILE779  LEU786  VAL792 
 PHE793  MET794  SER795  GLU796  ALA797  LYS798  CYS799  TRP800  GLU811  SER814 

> <Gold.Protein.RotatedAtoms>
  152.5030  134.4106  159.9447 H   0  0  0  0  0  0  0  0  0  0  0  0  # atno 6907 bound_to 6896
  151.4074  133.3732  159.2747 H   0  0  0  0  0  0  0  0  0  0  0  0  # atno 6908 bound_to 6896
  150.9316  134.8753  159.7614 H   0  0  0  0  0  0  0  0  0  0  0  0  # atno 6909 bound_to 6896
  145.4335  139.2308  143.3131 H   0  0  0  0  0  0  0  0  0  0  0  0  # atno 7974 bound_to 7965
  155.0357  140.3163  155.4742 H   0  0  0  0  0  0  0  0  0  0  0  0  # atno 8008 bound_to 7997
  156.2865  140.2172  156.5422 H   0  0  0  0  0  0  0  0  0  0  0  0  # atno 8009 bound_to 7997
  154.7333  140.0479  157.0733 H   0  0  0  0  0  0  0  0  0  0  0  0  # atno 8010 bound_to 7997
  140.3028  143.3152  152.0230 H   0  0  0  0  0  0  0  0  0  0  0  0  # atno 10167 bound_to 10162
  156.0952  130.6126  150.9014 H   0  0  0  0  0  0  0  0  0  0  0  0  # atno 10718 bound_to 10713
  152.9820  135.5702  154.5105 H   0  0  0  0  0  0  0  0  0  0  0  0  # atno 10763 bound_to 10752
  154.4610  135.2781  155.1715 H   0  0  0  0  0  0  0  0  0  0  0  0  # atno 10764 bound_to 10752
  154.3303  135.6250  153.5601 H   0  0  0  0  0  0  0  0  0  0  0  0  # atno 10765 bound_to 10752
  140.6354  134.4607  157.5231 H   0  0  0  0  0  0  0  0  0  0  0  0  # atno 11005 bound_to 11000
  146.2594  140.5075  142.8860 LP  0  0  0  0  0  0  0  0  0  0  0  0  # atno 17320 bound_to 7965
  144.8167  140.6480  143.6380 LP  0  0  0  0  0  0  0  0  0  0  0  0  # atno 17321 bound_to 7965
  139.4911  144.6443  151.6811 LP  0  0  0  0  0  0  0  0  0  0  0  0  # atno 17342 bound_to 10162
  140.5636  144.0227  150.6182 LP  0  0  0  0  0  0  0  0  0  0  0  0  # atno 17343 bound_to 10162
  157.6111  131.0936  150.8793 LP  0  0  0  0  0  0  0  0  0  0  0  0  # atno 17370 bound_to 10713
  156.8932  130.5220  149.5285 LP  0  0  0  0  0  0  0  0  0  0  0  0  # atno 17371 bound_to 10713
  139.9100  134.8365  156.1563 LP  0  0  0  0  0  0  0  0  0  0  0  0  # atno 17394 bound_to 11000
  141.0645  133.6826  156.2018 LP  0  0  0  0  0  0  0  0  0  0  0  0  # atno 17395 bound_to 11000

$$$$
