AV-unprocessed.smi:1258|AV-procd|sdf|5287|dock9
  -GOLD-   22720 4403D 1   1.00000     0.00000
 Structure written by MMmdl.
 33 34  0  0  0  0  0  0  0  0  1 V2000
  151.8353  145.8915  159.9149 C   0  0  0  0  0  0  0  0  0  0  0  0
  152.0150  144.3880  160.1674 C   0  0  2  0  0  0  0  0  0  0  0  0
  152.3215  144.0985  161.6495 C   0  0  0  0  0  0  0  0  0  0  0  0
  152.5103  142.5949  161.9076 C   0  0  0  0  0  0  0  0  0  0  0  0
  153.5975  141.9994  160.9950 C   0  0  0  0  0  0  0  0  0  0  0  0
  153.3198  142.2784  159.5055 C   0  0  1  0  0  0  0  0  0  0  0  0
  152.1554  141.5137  159.0672 N   0  0  0  0  0  0  0  0  0  0  0  0
  152.1829  140.3808  158.3477 C   0  0  0  0  0  0  0  0  0  0  0  0
  153.2209  139.7905  158.0516 O   0  0  0  0  0  0  0  0  0  0  0  0
  150.8313  139.8358  157.8794 C   0  0  0  0  0  0  0  0  0  0  0  0
  150.7741  139.7338  156.4312 N   0  0  0  0  0  0  0  0  0  0  0  0
  150.2999  140.5770  155.5117 C   0  0  0  0  0  0  0  0  0  0  0  0
  150.4709  140.1100  154.2847 N   0  0  0  0  0  0  0  0  0  0  0  0
  151.0935  138.8912  154.4963 N   0  0  0  0  0  0  0  0  0  0  0  0
  151.2753  138.6618  155.7679 N   0  0  0  0  0  0  0  0  0  0  0  0
  153.1162  143.7914  159.2651 C   0  0  0  0  0  0  0  0  0  0  0  0
  152.7464  146.4451  160.1446 H   0  0  0  0  0  0  0  0  0  0  0  0
  151.0335  146.2996  160.5309 H   0  0  0  0  0  0  0  0  0  0  0  0
  151.5809  146.0866  158.8726 H   0  0  0  0  0  0  0  0  0  0  0  0
  151.0690  143.9048  159.9178 H   0  0  0  0  0  0  0  0  0  0  0  0
  153.2238  144.6331  161.9500 H   0  0  0  0  0  0  0  0  0  0  0  0
  151.5153  144.4776  162.2785 H   0  0  0  0  0  0  0  0  0  0  0  0
  152.7748  142.4302  162.9524 H   0  0  0  0  0  0  0  0  0  0  0  0
  151.5649  142.0753  161.7464 H   0  0  0  0  0  0  0  0  0  0  0  0
  154.5631  142.4289  161.2651 H   0  0  0  0  0  0  0  0  0  0  0  0
  153.6844  140.9261  161.1687 H   0  0  0  0  0  0  0  0  0  0  0  0
  154.1838  141.9418  158.9299 H   0  0  0  0  0  0  0  0  0  0  0  0
  151.2534  141.9179  159.2721 H   0  0  0  0  0  0  0  0  0  0  0  0
  150.6495  138.8511  158.3128 H   0  0  0  0  0  0  0  0  0  0  0  0
  150.0322  140.4946  158.2209 H   0  0  0  0  0  0  0  0  0  0  0  0
  149.8435  141.5290  155.7395 H   0  0  0  0  0  0  0  0  0  0  0  0
  152.8824  143.9789  158.2164 H   0  0  0  0  0  0  0  0  0  0  0  0
  154.0570  144.3091  159.4569 H   0  0  0  0  0  0  0  0  0  0  0  0
  1  2  1  0  0  0  0
  1 17  1  0  0  0  0
  1 18  1  0  0  0  0
  1 19  1  0  0  0  0
  2 16  1  0  0  0  0
  2  3  1  0  0  0  0
  2 20  1  0  0  0  0
  3  4  1  0  0  0  0
  3 21  1  0  0  0  0
  3 22  1  0  0  0  0
  4  5  1  0  0  0  0
  4 23  1  0  0  0  0
  4 24  1  0  0  0  0
  5  6  1  0  0  0  0
  5 25  1  0  0  0  0
  5 26  1  0  0  0  0
  6  7  1  0  0  0  0
  6 16  1  0  0  0  0
  6 27  1  0  0  0  0
  7  8  1  0  0  0  0
  7 28  1  0  0  0  0
  8  9  2  0  0  0  0
  8 10  1  0  0  0  0
 10 11  1  0  0  0  0
 10 29  1  0  0  0  0
 10 30  1  0  0  0  0
 11 15  1  0  0  0  0
 11 12  1  0  0  0  0
 12 13  2  0  0  0  0
 12 31  1  0  0  0  0
 13 14  1  0  0  0  0
 14 15  2  0  0  0  0
 16 32  1  0  0  0  0
 16 33  1  0  0  0  0
M  END
> <s_m_source_file>
AV-unprocessed.smi

> <i_m_source_file_index>
1258

> <i_lp_mmshare_version>
43012

> <i_f3d_flags>
0

> <s_epik_input>
W0NIM11bQ0BASF0xW0NIMl1bQ0gyXVtDSDJdW0NASF0oW0NIMl0xKVtOSF1DKD1PKVtDSDJdbjJbY0hdbm5uMg==

> <s_epik_cmdline>
J2VwaWtfcHl0aG9uJywgJy1waCcsICc3LjAnLCAnLXRuJywgJzgnLCAnLW1hJywgJzIwMCcsICctbWV0YWxfYmluZGluZycsICctaW1hZScsICc8aW5maWxlLm1hZT4nLCAnLW9tYWUnLCAnPG91dGZpbGUubWFlPic=

> <r_lp_tautomer_probability>
1

> <r_epik_Ionization_Penalty>
5.03816e-07

> <r_epik_Ionization_Penalty_Charging>
0

> <r_epik_Ionization_Penalty_Neutral>
5.03816e-07

> <r_epik_State_Penalty>
-0

> <r_epik_Charging_Adjusted_Penalty>
0

> <i_epik_Tot_Q>
0

> <i_epik_Tot_abs_Q>
0

> <r_epik_Metal_State_Penalty>
-0

> <b_epik_Metal_Only>
0

> <s_lp_Force_Field>
OPLS_2005

> <r_lp_Energy>
9.71314

> <b_lp_Chiralities_Consistent>
1

> <s_lp_Variant>
AV-unprocessed.smi:1258-1

> <Gold.Version>
5.8.1

> <Gold.Id.Protein>
6NUR|6NUR_protein|mol2

> <Gold.PLP.Fitness>
42.7543

> <Gold.PLP.PLP>
-37.8598

> <Gold.PLP.part.hbond>
-2.3130

> <Gold.PLP.part.metal>
0.0000

> <Gold.PLP.part.buried>
-4.1410

> <Gold.PLP.part.nonpolar>
-30.8244

> <Gold.PLP.part.repulsive>
0.3782

> <Gold.PLP.ligand.clash>
0.0000

> <Gold.PLP.ligand.torsion>
0.5562

> <Gold.PLP.Chemscore.Hbond>
2.0000

> <Gold.PLP.Chemscore.CHOScore>
0.0000

> <Gold.PLP.Chemscore.Metal>
0.0000

> <Gold.Chemscore.Hbonds>
donor molecule, donor type, donor heavy atom, donor atom, acceptor molecule, acceptor atom, score
      P1  H  7989  7998       L1    13  1.00
      P1  H  7997  8008       L1     9  1.00

> <Gold.PLP.Chemscore.Internal.Correction>
0.0070

> <Gold.Rescore>
     Score         DG    S(hbond)    S(metal)    S(lipo)     H(rot)  DE(clash)    DE(int)     intcor
     16.17     -16.85       1.78        0.00      88.27       1.92       0.01       0.66       ----

> <Gold.Chemscore.Fitness>
16.1719

> <Gold.Chemscore.DG>
-16.8479

> <Gold.Chemscore.ZeroCoef>
-5.4800

> <Gold.Chemscore.Hbond>
1.7808

> <Gold.Chemscore.Metal>
0.0000

> <Gold.Chemscore.Lipo>
88.2688

> <Gold.Chemscore.Internal_Hbond>
0.0000

> <Gold.Chemscore.DEClash>
0.0136

> <Gold.Chemscore.DEInternal>
0.6625

> <Gold.Chemscore.Rot>
1.9169

> <Gold.Chemscore.Internal.Correction>
   9.000000E+99

> <Gold.Chemscore.Hbonds>
donor molecule, donor type, donor heavy atom, donor atom, acceptor molecule, acceptor atom, score
      P1  H  7989  7998       L1    13  0.21
      P1  H  7997  8008       L1     9  0.98

> <Gold.Chemscore.Hbond.Weighted>
-5.9477

> <Gold.Chemscore.Metal.Weighted>
-0.0000

> <Gold.Chemscore.Lipo.Weighted>
-10.3274

> <Gold.Chemscore.Internal_Hbond.Weighted>
0.0000

> <Gold.Chemscore.DEClash.Weighted>
0.0136

> <Gold.Chemscore.DEInternal.Weighted>
0.6625

> <Gold.Chemscore.Rot.Weighted>
4.9073

> <Gold.Chemscore.Internal.Correction.Weighted>
   9.000000E+99

> <Gold.Protein.RotatedTorsions>
[ 6907 6896 6895 6894 ] final   74.70 input  -60.11 | X-H torsion
[ 7974 7965 7964 7962 ] final  -69.17 input  175.53 | X-H torsion
[ 8008 7997 7996 7995 ] final  -94.46 input   59.86 | X-H torsion
[ 10167 10162 10161 10158 ] final -112.78 input  -65.29 | X-H torsion
[ 10718 10713 10712 10709 ] final   90.55 input   66.30 | X-H torsion
[ 10763 10752 10751 10750 ] final  -33.58 input  -60.55 | X-H torsion
[ 11005 11000 10999 10996 ] final  -13.23 input  -57.11 | X-H torsion

> <Gold.Protein.ActiveResidues>
 VAL166  LYS551  ARG553  GLY616  TRP617  ASP618  TYR619  PRO620  LYS621  CYS622 
 ASP623  PHE694  ASN695  SER759  ASP760  ASP761  ALA762  ILE779  LEU786  VAL792 
 PHE793  MET794  SER795  GLU796  ALA797  LYS798  CYS799  TRP800  GLU811  SER814 

> <Gold.Protein.RotatedAtoms>
  152.4989  134.4232  159.9487 H   0  0  0  0  0  0  0  0  0  0  0  0  # atno 6907 bound_to 6896
  151.4206  133.3693  159.2763 H   0  0  0  0  0  0  0  0  0  0  0  0  # atno 6908 bound_to 6896
  150.9225  134.8665  159.7558 H   0  0  0  0  0  0  0  0  0  0  0  0  # atno 6909 bound_to 6896
  145.7071  140.9093  143.0700 H   0  0  0  0  0  0  0  0  0  0  0  0  # atno 7974 bound_to 7965
  154.7487  140.0489  157.0875 H   0  0  0  0  0  0  0  0  0  0  0  0  # atno 8008 bound_to 7997
  155.0084  140.3133  155.4820 H   0  0  0  0  0  0  0  0  0  0  0  0  # atno 8009 bound_to 7997
  156.2880  140.2188  156.5197 H   0  0  0  0  0  0  0  0  0  0  0  0  # atno 8010 bound_to 7997
  140.1190  143.4460  152.1703 H   0  0  0  0  0  0  0  0  0  0  0  0  # atno 10167 bound_to 10162
  157.6959  131.0375  150.3595 H   0  0  0  0  0  0  0  0  0  0  0  0  # atno 10718 bound_to 10713
  153.8326  135.6865  153.4812 H   0  0  0  0  0  0  0  0  0  0  0  0  # atno 10763 bound_to 10752
  153.1502  135.4621  154.9623 H   0  0  0  0  0  0  0  0  0  0  0  0  # atno 10764 bound_to 10752
  154.7880  135.3291  154.7787 H   0  0  0  0  0  0  0  0  0  0  0  0  # atno 10765 bound_to 10752
  140.7739  133.8416  155.9231 H   0  0  0  0  0  0  0  0  0  0  0  0  # atno 11005 bound_to 11000
  144.6952  139.9025  143.7459 LP  0  0  0  0  0  0  0  0  0  0  0  0  # atno 17320 bound_to 7965
  146.0745  139.3734  143.0502 LP  0  0  0  0  0  0  0  0  0  0  0  0  # atno 17321 bound_to 7965
  139.5578  144.7385  151.4242 LP  0  0  0  0  0  0  0  0  0  0  0  0  # atno 17342 bound_to 10162
  140.6882  143.7923  150.7217 LP  0  0  0  0  0  0  0  0  0  0  0  0  # atno 17343 bound_to 10162
  156.4033  130.3920  149.6944 LP  0  0  0  0  0  0  0  0  0  0  0  0  # atno 17370 bound_to 10713
  156.4254  130.7789  151.2807 LP  0  0  0  0  0  0  0  0  0  0  0  0  # atno 17371 bound_to 10713
  140.9547  134.1733  157.4701 LP  0  0  0  0  0  0  0  0  0  0  0  0  # atno 17394 bound_to 11000
  139.8752  134.9922  156.5587 LP  0  0  0  0  0  0  0  0  0  0  0  0  # atno 17395 bound_to 11000

$$$$
