AV-unprocessed.smi:102|AV-procd|sdf|970|dock6
  -GOLD-   2262017523D 1   1.00000     0.00000
 Structure written by MMmdl.
 43 44  0  0  0  0  0  0  0  0  2 V2000
  152.7238  137.8509  158.4456 C   0  0  0  0  0  0  0  0  0  0  0  0
  152.6197  136.6348  157.5349 C   0  0  0  0  0  0  0  0  0  0  0  0
  153.5848  135.8961  157.3375 O   0  0  0  0  0  0  0  0  0  0  0  0
  151.3890  136.4925  157.0103 O   0  0  0  0  0  0  0  0  0  0  0  0
  151.0912  135.3924  156.1613 C   0  0  0  0  0  0  0  0  0  0  0  0
  149.7323  134.7711  156.5205 C   0  0  1  0  0  0  0  0  0  0  0  0
  149.5790  134.6943  157.9281 O   0  0  0  0  0  0  0  0  0  0  0  0
  148.2246  134.5741  158.2217 C   0  0  1  0  0  0  0  0  0  0  0  0
  147.9648  135.1728  159.5864 N   0  0  0  0  0  0  0  0  0  0  0  0
  147.4394  134.4016  160.6098 C   0  0  0  0  0  0  0  0  0  0  0  0
  147.2245  134.9222  161.8351 C   0  0  0  0  0  0  0  0  0  0  0  0
  146.7149  134.1503  162.8105 F   0  0  0  0  0  0  0  0  0  0  0  0
  147.5541  136.3230  162.0937 C   0  0  0  0  0  0  0  0  0  0  0  0
  147.3463  136.7952  163.2103 O   0  0  0  0  0  0  0  0  0  0  0  0
  148.0879  137.0526  161.0709 N   0  5  0  0  0  0  0  0  0  0  0  0
  148.3148  136.5277  159.8312 C   0  0  0  0  0  0  0  0  0  0  0  0
  148.8203  137.1685  158.9092 O   0  0  0  0  0  0  0  0  0  0  0  0
  147.4450  135.2746  157.0895 C   0  0  1  0  0  0  0  0  0  0  0  0
  146.7711  136.4465  157.5385 O   0  0  0  0  0  0  0  0  0  0  0  0
  145.6856  136.3478  158.3218 C   0  0  0  0  0  0  0  0  0  0  0  0
  145.0960  137.7090  158.6646 C   0  0  0  0  0  0  0  0  0  0  0  0
  145.1824  135.3041  158.7381 O   0  0  0  0  0  0  0  0  0  0  0  0
  148.5422  135.6339  156.0931 C   0  0  2  0  0  0  0  0  0  0  0  0
  148.1052  135.3040  154.7807 O   0  0  0  0  0  0  0  0  0  0  0  0
  147.7724  134.0402  154.4693 C   0  0  0  0  0  0  0  0  0  0  0  0
  147.1251  133.9335  153.0953 C   0  0  0  0  0  0  0  0  0  0  0  0
  147.9471  133.0470  155.1753 O   0  0  0  0  0  0  0  0  0  0  0  0
  152.1152  137.7082  159.3387 H   0  0  0  0  0  0  0  0  0  0  0  0
  152.3756  138.7444  157.9272 H   0  0  0  0  0  0  0  0  0  0  0  0
  153.7572  138.0116  158.7536 H   0  0  0  0  0  0  0  0  0  0  0  0
  151.1333  135.6683  155.1064 H   0  0  0  0  0  0  0  0  0  0  0  0
  151.8756  134.6524  156.3179 H   0  0  0  0  0  0  0  0  0  0  0  0
  149.6369  133.7684  156.0994 H   0  0  0  0  0  0  0  0  0  0  0  0
  147.9938  133.5102  158.2987 H   0  0  0  0  0  0  0  0  0  0  0  0
  147.2013  133.3625  160.4370 H   0  0  0  0  0  0  0  0  0  0  0  0
  146.7452  134.5443  156.6790 H   0  0  0  0  0  0  0  0  0  0  0  0
  145.8063  138.2896  159.2535 H   0  0  0  0  0  0  0  0  0  0  0  0
  144.1780  137.5960  159.2414 H   0  0  0  0  0  0  0  0  0  0  0  0
  144.8665  138.2624  157.7540 H   0  0  0  0  0  0  0  0  0  0  0  0
  148.7926  136.6906  156.2040 H   0  0  0  0  0  0  0  0  0  0  0  0
  147.8874  133.9654  152.3168 H   0  0  0  0  0  0  0  0  0  0  0  0
  146.4297  134.7577  152.9348 H   0  0  0  0  0  0  0  0  0  0  0  0
  146.5755  132.9966  153.0040 H   0  0  0  0  0  0  0  0  0  0  0  0
  1  2  1  0  0  0  0
  1 28  1  0  0  0  0
  1 29  1  0  0  0  0
  1 30  1  0  0  0  0
  2  3  2  0  0  0  0
  2  4  1  0  0  0  0
  4  5  1  0  0  0  0
  5  6  1  0  0  0  0
  5 31  1  0  0  0  0
  5 32  1  0  0  0  0
  6 23  1  0  0  0  0
  6  7  1  0  0  0  0
  6 33  1  0  0  0  0
  7  8  1  0  0  0  0
  8  9  1  0  0  0  0
  8 18  1  0  0  0  0
  8 34  1  0  0  0  0
  9 16  1  0  0  0  0
  9 10  1  0  0  0  0
 10 11  2  0  0  0  0
 10 35  1  0  0  0  0
 11 12  1  0  0  0  0
 11 13  1  0  0  0  0
 13 14  2  0  0  0  0
 13 15  1  0  0  0  0
 15 16  1  0  0  0  0
 16 17  2  0  0  0  0
 18 19  1  0  0  0  0
 18 23  1  0  0  0  0
 18 36  1  0  0  0  0
 19 20  1  0  0  0  0
 20 21  1  0  0  0  0
 20 22  2  0  0  0  0
 21 37  1  0  0  0  0
 21 38  1  0  0  0  0
 21 39  1  0  0  0  0
 23 24  1  0  0  0  0
 23 40  1  0  0  0  0
 24 25  1  0  0  0  0
 25 26  1  0  0  0  0
 25 27  2  0  0  0  0
 26 41  1  0  0  0  0
 26 42  1  0  0  0  0
 26 43  1  0  0  0  0
M  CHG  1  15  -1
M  END
> <s_m_source_file>
AV-unprocessed.smi

> <i_m_source_file_index>
102

> <i_lp_mmshare_version>
43012

> <i_f3d_flags>
0

> <s_epik_input>
W0NIM11DKD1PKU9bQ0gyXVtDQEBIXTFPW0NASF0oW0NAQEhdKE9DKD1PKVtDSDNdKVtDQEhdMU9DKD1PKVtDSDNdKW4yW2NIXWMoRiljKD1PKVtuSF1jMj1P

> <s_epik_cmdline>
J2VwaWtfcHl0aG9uJywgJy1waCcsICc3LjAnLCAnLXRuJywgJzgnLCAnLW1hJywgJzIwMCcsICctbWV0YWxfYmluZGluZycsICctaW1hZScsICc8aW5maWxlLm1hZT4nLCAnLW9tYWUnLCAnPG91dGZpbGUubWFlPic=

> <r_epik_Ionization_Penalty>
1.40304

> <r_epik_Ionization_Penalty_Charging>
1.43915e-08

> <r_epik_Ionization_Penalty_Neutral>
1.40304

> <r_epik_State_Penalty>
1.48536

> <r_epik_Charging_Adjusted_Penalty>
1.48536

> <i_epik_Tot_Q>
-1

> <i_epik_Tot_abs_Q>
1

> <r_epik_Metal_State_Penalty>
0.00663881

> <b_epik_Metal_Only>
0

> <s_epik_Chemistry_Notes>
This compound has an ester and may undergo hydrolysis at high or low pH. This compound contains an acetal/aminal-like group ( X-CH(R)-Y where X, Y are N, S, or O) that may be acid/base labile, releasing an aldehyde.

> <s_lp_Force_Field>
OPLS_2005

> <r_lp_Energy>
20.3433

> <b_lp_Chiralities_Consistent>
1

> <s_lp_Variant>
AV-unprocessed.smi:102-26

> <Gold.Version>
5.8.1

> <Gold.Id.Protein>
6NUR|6NUR_protein|mol2

> <Gold.PLP.Fitness>
40.0950

> <Gold.PLP.PLP>
-25.7213

> <Gold.PLP.part.hbond>
-4.0809

> <Gold.PLP.part.metal>
0.0000

> <Gold.PLP.part.buried>
-3.4487

> <Gold.PLP.part.nonpolar>
-19.5382

> <Gold.PLP.part.repulsive>
0.1542

> <Gold.PLP.ligand.clash>
0.0000

> <Gold.PLP.ligand.torsion>
0.5795

> <Gold.PLP.Chemscore.Hbond>
5.1232

> <Gold.PLP.Chemscore.CHOScore>
0.0000

> <Gold.PLP.Chemscore.Metal>
0.0000

> <Gold.Chemscore.Hbonds>
donor molecule, donor type, donor heavy atom, donor atom, acceptor molecule, acceptor atom, score
      P1  H  6896  6908       L1     7  1.00
      P1  H  6931  6943       L1    15  2.00
      P1  H  6934  6947       L1    15  0.96
      P1  H 10752 10764       L1     3  0.99

> <Gold.PLP.Chemscore.Internal.Correction>
0.1630

> <Gold.Rescore>
     Score         DG    S(hbond)    S(metal)    S(lipo)     H(rot)  DE(clash)    DE(int)     intcor
     -1.57      -7.49       2.55        0.00      31.77       4.00       0.18       8.89       ----

> <Gold.Chemscore.Fitness>
-1.5701

> <Gold.Chemscore.DG>
-7.4918

> <Gold.Chemscore.ZeroCoef>
-5.4800

> <Gold.Chemscore.Hbond>
2.5516

> <Gold.Chemscore.Metal>
0.0000

> <Gold.Chemscore.Lipo>
31.7694

> <Gold.Chemscore.Internal_Hbond>
0.0000

> <Gold.Chemscore.DEClash>
0.1768

> <Gold.Chemscore.DEInternal>
8.8851

> <Gold.Chemscore.Rot>
3.9951

> <Gold.Chemscore.Internal.Correction>
   9.000000E+99

> <Gold.Chemscore.Hbonds>
donor molecule, donor type, donor heavy atom, donor atom, acceptor molecule, acceptor atom, score
      P1  H  6896  6908       L1     7  0.80
      P1  H  6931  6943       L1    15  0.38
      P1  H  6934  6947       L1    15  0.31
      P1  H 10752 10764       L1     3  0.86

> <Gold.Chemscore.Hbond.Weighted>
-8.5222

> <Gold.Chemscore.Metal.Weighted>
-0.0000

> <Gold.Chemscore.Lipo.Weighted>
-3.7170

> <Gold.Chemscore.Internal_Hbond.Weighted>
0.0000

> <Gold.Chemscore.DEClash.Weighted>
0.1768

> <Gold.Chemscore.DEInternal.Weighted>
8.8851

> <Gold.Chemscore.Rot.Weighted>
10.2274

> <Gold.Chemscore.Internal.Correction.Weighted>
   9.000000E+99

> <Gold.Protein.RotatedTorsions>
[ 6907 6896 6895 6894 ] final  139.04 input  -60.11 | X-H torsion
[ 7974 7965 7964 7962 ] final  -72.79 input  175.53 | X-H torsion
[ 8008 7997 7996 7995 ] final   76.61 input   59.86 | X-H torsion
[ 10167 10162 10161 10158 ] final  -50.21 input  -65.29 | X-H torsion
[ 10718 10713 10712 10709 ] final   64.61 input   66.30 | X-H torsion
[ 10763 10752 10751 10750 ] final   19.40 input  -60.55 | X-H torsion
[ 11005 11000 10999 10996 ] final  -52.72 input  -57.11 | X-H torsion

> <Gold.Protein.ActiveResidues>
 VAL166  LYS551  ARG553  GLY616  TRP617  ASP618  TYR619  PRO620  LYS621  CYS622 
 ASP623  PHE694  ASN695  SER759  ASP760  ASP761  ALA762  ILE779  LEU786  VAL792 
 PHE793  MET794  SER795  GLU796  ALA797  LYS798  CYS799  TRP800  GLU811  SER814 

> <Gold.Protein.RotatedAtoms>
  152.2596  133.5285  159.5373 H   0  0  0  0  0  0  0  0  0  0  0  0  # atno 6907 bound_to 6896
  150.7120  134.0848  159.3920 H   0  0  0  0  0  0  0  0  0  0  0  0  # atno 6908 bound_to 6896
  151.8766  135.0469  160.0535 H   0  0  0  0  0  0  0  0  0  0  0  0  # atno 6909 bound_to 6896
  145.6605  140.9254  143.0936 H   0  0  0  0  0  0  0  0  0  0  0  0  # atno 7974 bound_to 7965
  155.8297  140.3466  155.5565 H   0  0  0  0  0  0  0  0  0  0  0  0  # atno 8008 bound_to 7997
  155.8255  140.0919  157.1844 H   0  0  0  0  0  0  0  0  0  0  0  0  # atno 8009 bound_to 7997
  154.4004  140.1422  156.3538 H   0  0  0  0  0  0  0  0  0  0  0  0  # atno 8010 bound_to 7997
  140.6648  143.2667  151.4326 H   0  0  0  0  0  0  0  0  0  0  0  0  # atno 10167 bound_to 10162
  157.6051  130.9169  149.9868 H   0  0  0  0  0  0  0  0  0  0  0  0  # atno 10718 bound_to 10713
  153.1165  135.6709  153.9408 H   0  0  0  0  0  0  0  0  0  0  0  0  # atno 10763 bound_to 10752
  153.8936  135.3044  155.3449 H   0  0  0  0  0  0  0  0  0  0  0  0  # atno 10764 bound_to 10752
  154.7581  135.5001  153.9491 H   0  0  0  0  0  0  0  0  0  0  0  0  # atno 10765 bound_to 10752
  141.0939  133.6628  156.4067 H   0  0  0  0  0  0  0  0  0  0  0  0  # atno 11005 bound_to 11000
  144.7090  139.8443  143.7420 LP  0  0  0  0  0  0  0  0  0  0  0  0  # atno 17320 bound_to 7965
  146.1129  139.4136  143.0276 LP  0  0  0  0  0  0  0  0  0  0  0  0  # atno 17321 bound_to 7965
  139.5894  144.1533  152.2069 LP  0  0  0  0  0  0  0  0  0  0  0  0  # atno 17342 bound_to 10162
  140.0883  144.5643  150.7073 LP  0  0  0  0  0  0  0  0  0  0  0  0  # atno 17343 bound_to 10162
  156.1135  130.3649  150.0008 LP  0  0  0  0  0  0  0  0  0  0  0  0  # atno 17370 bound_to 10713
  156.8102  130.9322  151.3644 LP  0  0  0  0  0  0  0  0  0  0  0  0  # atno 17371 bound_to 10713
  140.5186  134.6326  157.5310 LP  0  0  0  0  0  0  0  0  0  0  0  0  # atno 17394 bound_to 11000
  139.9771  134.7197  155.9929 LP  0  0  0  0  0  0  0  0  0  0  0  0  # atno 17395 bound_to 11000

$$$$
