AV-unprocessed.smi:1395|AV-procd|sdf|5673|dock6
  -GOLD-   22720 5293D 1   1.00000     0.00000
 Structure written by MMmdl.
 42 43  0  0  0  0  0  0  0  0  3 V2000
  151.5802  142.4168  159.6125 C   0  0  0  0  0  0  0  0  0  0  0  0
  152.7721  141.4744  159.6543 C   0  0  0  0  0  0  0  0  0  0  0  0
  153.7563  141.6503  160.6504 C   0  0  0  0  0  0  0  0  0  0  0  0
  154.8583  140.7787  160.6870 C   0  0  0  0  0  0  0  0  0  0  0  0
  154.9299  139.7620  159.7196 C   0  0  0  0  0  0  0  0  0  0  0  0
  153.9939  139.5866  158.7645 N   0  0  0  0  0  0  0  0  0  0  0  0
  152.9247  140.4201  158.7142 C   0  0  0  0  0  0  0  0  0  0  0  0
  151.8957  140.2896  157.7392 N   0  0  0  0  0  0  0  0  0  0  0  0
  151.9892  139.8190  156.4829 C   0  0  0  0  0  0  0  0  0  0  0  0
  153.0302  139.4693  155.9264 O   0  0  0  0  0  0  0  0  0  0  0  0
  150.7862  139.7770  155.8917 N   0  0  0  0  0  0  0  0  0  0  0  0
  150.5253  139.3105  154.5297 C   0  0  2  0  0  0  0  0  0  0  0  0
  149.0451  138.9224  154.3718 C   0  0  0  0  0  0  0  0  0  0  0  0
  148.7006  137.6352  155.1445 C   0  0  0  0  0  0  0  0  0  0  0  0
  149.5843  136.5087  154.7485 N   0  3  2  0  0  0  0  0  0  0  0  0
  149.1905  135.2347  155.4010 C   0  0  0  0  0  0  0  0  0  0  0  0
  149.7825  134.0421  154.6429 C   0  0  0  0  0  0  0  0  0  0  0  0
  149.1245  133.7820  153.4967 N   0  5  0  0  0  0  0  0  0  0  0  0
  150.7436  133.4397  155.1166 O   0  0  0  0  0  0  0  0  0  0  0  0
  151.0223  136.8419  154.9380 C   0  0  0  0  0  0  0  0  0  0  0  0
  151.4092  138.1055  154.1509 C   0  0  0  0  0  0  0  0  0  0  0  0
  151.6231  143.1472  160.4211 H   0  0  0  0  0  0  0  0  0  0  0  0
  150.6485  141.8597  159.7137 H   0  0  0  0  0  0  0  0  0  0  0  0
  151.5589  142.9621  158.6685 H   0  0  0  0  0  0  0  0  0  0  0  0
  153.6708  142.4425  161.3798 H   0  0  0  0  0  0  0  0  0  0  0  0
  155.6283  140.8869  161.4366 H   0  0  0  0  0  0  0  0  0  0  0  0
  155.7591  139.0703  159.7116 H   0  0  0  0  0  0  0  0  0  0  0  0
  150.9759  140.5701  158.0450 H   0  0  0  0  0  0  0  0  0  0  0  0
  149.9885  140.0926  156.4235 H   0  0  0  0  0  0  0  0  0  0  0  0
  150.7378  140.1353  153.8471 H   0  0  0  0  0  0  0  0  0  0  0  0
  148.4019  139.7400  154.6997 H   0  0  0  0  0  0  0  0  0  0  0  0
  148.8258  138.7711  153.3140 H   0  0  0  0  0  0  0  0  0  0  0  0
  148.7849  137.8022  156.2195 H   0  0  0  0  0  0  0  0  0  0  0  0
  147.6608  137.3713  154.9479 H   0  0  0  0  0  0  0  0  0  0  0  0
  149.4686  135.2446  156.4572 H   0  0  0  0  0  0  0  0  0  0  0  0
  148.1061  135.1207  155.3687 H   0  0  0  0  0  0  0  0  0  0  0  0
  148.8297  134.5660  152.9026 H   0  0  0  0  0  0  0  0  0  0  0  0
  151.2301  136.9789  156.0002 H   0  0  0  0  0  0  0  0  0  0  0  0
  151.6490  136.0156  154.6022 H   0  0  0  0  0  0  0  0  0  0  0  0
  151.3019  137.9052  153.0841 H   0  0  0  0  0  0  0  0  0  0  0  0
  152.4644  138.3328  154.3061 H   0  0  0  0  0  0  0  0  0  0  0  0
  149.4433  136.3672  153.7583 H   0  0  0  0  0  0  0  0  0  0  0  0
  1  2  1  0  0  0  0
  1 22  1  0  0  0  0
  1 23  1  0  0  0  0
  1 24  1  0  0  0  0
  2  7  1  0  0  0  0
  2  3  2  0  0  0  0
  3  4  1  0  0  0  0
  3 25  1  0  0  0  0
  4  5  2  0  0  0  0
  4 26  1  0  0  0  0
  5  6  1  0  0  0  0
  5 27  1  0  0  0  0
  6  7  2  0  0  0  0
  7  8  1  0  0  0  0
  8  9  1  0  0  0  0
  8 28  1  0  0  0  0
  9 10  2  0  0  0  0
  9 11  1  0  0  0  0
 11 12  1  0  0  0  0
 11 29  1  0  0  0  0
 12 21  1  0  0  0  0
 12 13  1  0  0  0  0
 12 30  1  0  0  0  0
 13 14  1  0  0  0  0
 13 31  1  0  0  0  0
 13 32  1  0  0  0  0
 14 15  1  0  0  0  0
 14 33  1  0  0  0  0
 14 34  1  0  0  0  0
 15 16  1  0  0  0  0
 15 20  1  0  0  0  0
 15 42  1  0  0  0  0
 16 17  1  0  0  0  0
 16 35  1  0  0  0  0
 16 36  1  0  0  0  0
 17 18  1  0  0  0  0
 17 19  2  0  0  0  0
 18 37  1  0  0  0  0
 20 21  1  0  0  0  0
 20 38  1  0  0  0  0
 20 39  1  0  0  0  0
 21 40  1  0  0  0  0
 21 41  1  0  0  0  0
M  CHG  1  15   1
M  CHG  1  18  -1
M  END
> <s_m_source_file>
AV-unprocessed.smi

> <i_m_source_file_index>
1395

> <i_lp_mmshare_version>
43012

> <i_f3d_flags>
0

> <s_epik_input>
W0NIM11jMVtjSF1bY0hdW2NIXW5jMVtOSF1DKD1PKVtOSF1bQ0hdMltDSDJdW0NIMl1OKFtDSDJdW0NIMl0yKVtDSDJdQyg9TylbTkgyXQ==

> <s_epik_cmdline>
J2VwaWtfcHl0aG9uJywgJy1waCcsICc3LjAnLCAnLXRuJywgJzgnLCAnLW1hJywgJzIwMCcsICctbWV0YWxfYmluZGluZycsICctaW1hZScsICc8aW5maWxlLm1hZT4nLCAnLW9tYWUnLCAnPG91dGZpbGUubWFlPic=

> <r_epik_Ionization_Penalty>
5.72885

> <r_epik_Ionization_Penalty_Charging>
5.7288

> <r_epik_Ionization_Penalty_Neutral>
4.54304e-05

> <r_epik_State_Penalty>
6.54882

> <r_epik_Charging_Adjusted_Penalty>
12.2776

> <i_epik_Tot_Q>
0

> <i_epik_Tot_abs_Q>
2

> <r_epik_Metal_State_Penalty>
2.51297

> <b_epik_Metal_Only>
1

> <s_lp_Force_Field>
OPLS_2005

> <r_lp_Energy>
8.5501

> <b_lp_Chiralities_Consistent>
1

> <s_lp_Variant>
AV-unprocessed.smi:1395-5

> <Gold.Version>
5.8.1

> <Gold.Id.Protein>
6NUR|6NUR_protein|mol2

> <Gold.PLP.Fitness>
47.6628

> <Gold.PLP.PLP>
-35.9741

> <Gold.PLP.part.hbond>
-4.0000

> <Gold.PLP.part.metal>
0.0000

> <Gold.PLP.part.buried>
-3.1280

> <Gold.PLP.part.nonpolar>
-28.1103

> <Gold.PLP.part.repulsive>
0.2319

> <Gold.PLP.ligand.clash>
0.0000

> <Gold.PLP.ligand.torsion>
0.8084

> <Gold.PLP.Chemscore.Hbond>
4.4260

> <Gold.PLP.Chemscore.CHOScore>
0.0000

> <Gold.PLP.Chemscore.Metal>
0.0000

> <Gold.Chemscore.Hbonds>
donor molecule, donor type, donor heavy atom, donor atom, acceptor molecule, acceptor atom, score
      L1  H    15    42       P1  7948  2.00
      L1  H    18    37       P1  7948  0.65
      P1  H  7997  8008       L1    10  0.58
      P1  H  7997  8010       L1     6  0.80

> <Gold.PLP.Chemscore.Internal.Correction>
0.0274

> <Gold.Rescore>
     Score         DG    S(hbond)    S(metal)    S(lipo)     H(rot)  DE(clash)    DE(int)     intcor
     14.64     -18.10       2.60        0.00      76.00       1.93       0.13       3.33       ----

> <Gold.Chemscore.Fitness>
14.6365

> <Gold.Chemscore.DG>
-18.1003

> <Gold.Chemscore.ZeroCoef>
-5.4800

> <Gold.Chemscore.Hbond>
2.5986

> <Gold.Chemscore.Metal>
0.0000

> <Gold.Chemscore.Lipo>
76.0016

> <Gold.Chemscore.Internal_Hbond>
0.0000

> <Gold.Chemscore.DEClash>
0.1343

> <Gold.Chemscore.DEInternal>
3.3295

> <Gold.Chemscore.Rot>
1.9341

> <Gold.Chemscore.Internal.Correction>
   9.000000E+99

> <Gold.Chemscore.Hbonds>
donor molecule, donor type, donor heavy atom, donor atom, acceptor molecule, acceptor atom, score
      L1  H    15    42       P1  7948  0.78
      L1  H    18    37       P1  7948  0.06
      P1  H  7997  8008       L1    10  0.58
      P1  H  7997  8010       L1     6  0.07

> <Gold.Chemscore.Hbond.Weighted>
-8.6793

> <Gold.Chemscore.Metal.Weighted>
-0.0000

> <Gold.Chemscore.Lipo.Weighted>
-8.8922

> <Gold.Chemscore.Internal_Hbond.Weighted>
0.0000

> <Gold.Chemscore.DEClash.Weighted>
0.1343

> <Gold.Chemscore.DEInternal.Weighted>
3.3295

> <Gold.Chemscore.Rot.Weighted>
4.9512

> <Gold.Chemscore.Internal.Correction.Weighted>
   9.000000E+99

> <Gold.Protein.RotatedTorsions>
[ 6907 6896 6895 6894 ] final -146.79 input  -60.11 | X-H torsion
[ 7974 7965 7964 7962 ] final   98.47 input  175.53 | X-H torsion
[ 8008 7997 7996 7995 ] final   -0.12 input   59.86 | X-H torsion
[ 10167 10162 10161 10158 ] final  -93.21 input  -65.29 | X-H torsion
[ 10718 10713 10712 10709 ] final   68.12 input   66.30 | X-H torsion
[ 10763 10752 10751 10750 ] final  139.90 input  -60.55 | X-H torsion
[ 11005 11000 10999 10996 ] final  -18.05 input  -57.11 | X-H torsion

> <Gold.Protein.ActiveResidues>
 VAL166  LYS551  ARG553  GLY616  TRP617  ASP618  TYR619  PRO620  LYS621  CYS622 
 ASP623  PHE694  ASN695  SER759  ASP760  ASP761  ALA762  ILE779  LEU786  VAL792 
 PHE793  MET794  SER795  GLU796  ALA797  LYS798  CYS799  TRP800  GLU811  SER814 

> <Gold.Protein.RotatedAtoms>
  151.1466  133.4935  159.2595 H   0  0  0  0  0  0  0  0  0  0  0  0  # atno 6907 bound_to 6896
  151.1598  135.0267  159.8715 H   0  0  0  0  0  0  0  0  0  0  0  0  # atno 6908 bound_to 6896
  152.5463  134.1341  159.8504 H   0  0  0  0  0  0  0  0  0  0  0  0  # atno 6909 bound_to 6896
  145.4117  139.2333  143.3244 H   0  0  0  0  0  0  0  0  0  0  0  0  # atno 7974 bound_to 7965
  154.6616  140.2592  155.7102 H   0  0  0  0  0  0  0  0  0  0  0  0  # atno 8008 bound_to 7997
  156.2621  140.2847  156.1012 H   0  0  0  0  0  0  0  0  0  0  0  0  # atno 8009 bound_to 7997
  155.1300  140.0378  157.2762 H   0  0  0  0  0  0  0  0  0  0  0  0  # atno 8010 bound_to 7997
  140.3270  143.3016  151.9984 H   0  0  0  0  0  0  0  0  0  0  0  0  # atno 10167 bound_to 10162
  157.6271  130.9357  150.0335 H   0  0  0  0  0  0  0  0  0  0  0  0  # atno 10718 bound_to 10713
  153.9137  135.3008  155.3448 H   0  0  0  0  0  0  0  0  0  0  0  0  # atno 10763 bound_to 10752
  154.7610  135.4934  153.9468 H   0  0  0  0  0  0  0  0  0  0  0  0  # atno 10764 bound_to 10752
  153.1179  135.6775  153.9488 H   0  0  0  0  0  0  0  0  0  0  0  0  # atno 10765 bound_to 10752
  140.8230  133.8054  155.9679 H   0  0  0  0  0  0  0  0  0  0  0  0  # atno 11005 bound_to 11000
  146.2701  140.4829  142.8818 LP  0  0  0  0  0  0  0  0  0  0  0  0  # atno 17320 bound_to 7965
  144.8304  140.6698  143.6294 LP  0  0  0  0  0  0  0  0  0  0  0  0  # atno 17321 bound_to 7965
  139.4863  144.6266  151.7153 LP  0  0  0  0  0  0  0  0  0  0  0  0  # atno 17342 bound_to 10162
  140.5432  144.0545  150.6096 LP  0  0  0  0  0  0  0  0  0  0  0  0  # atno 17343 bound_to 10162
  156.1450  130.3642  149.9525 LP  0  0  0  0  0  0  0  0  0  0  0  0  # atno 17370 bound_to 10713
  156.7557  130.9132  151.3639 LP  0  0  0  0  0  0  0  0  0  0  0  0  # atno 17371 bound_to 10713
  140.9079  134.2297  157.5003 LP  0  0  0  0  0  0  0  0  0  0  0  0  # atno 17394 bound_to 11000
  139.8707  134.9737  156.4817 LP  0  0  0  0  0  0  0  0  0  0  0  0  # atno 17395 bound_to 11000

$$$$
