AV-unprocessed.smi:414|AV-procd|sdf|2517|dock4
  -GOLD-   2262022463D 1   1.00000     0.00000
 Structure written by MMmdl.
 37 38  0  0  0  0  0  0  0  0  2 V2000
  144.8014  133.2447  150.6709 C   0  0  0  0  0  0  0  0  0  0  0  0
  145.6753  133.0077  151.9108 C   0  0  2  0  0  0  0  0  0  0  0  0
  145.1646  133.8115  153.1219 C   0  0  0  0  0  0  0  0  0  0  0  0
  146.0397  133.5809  154.3668 C   0  0  0  0  0  0  0  0  0  0  0  0
  147.5282  133.8871  154.0993 C   0  0  2  0  0  0  0  0  0  0  0  0
  147.7524  135.3202  153.9202 N   0  0  0  0  0  0  0  0  0  0  0  0
  147.4652  136.2737  154.8192 C   0  0  0  0  0  0  0  0  0  0  0  0
  146.9498  136.0394  155.9131 O   0  0  0  0  0  0  0  0  0  0  0  0
  147.7796  137.7153  154.3988 C   0  0  0  0  0  0  0  0  0  0  0  0
  149.0466  138.2053  154.9645 N   0  0  0  0  0  0  0  0  0  0  0  0
  150.0936  138.4989  154.0731 C   0  0  0  0  0  0  0  0  0  0  0  0
  151.2849  138.9568  154.5028 C   0  0  0  0  0  0  0  0  0  0  0  0
  151.4760  139.1452  155.9357 C   0  0  0  0  0  0  0  0  0  0  0  0
  152.5594  139.5559  156.3468 O   0  0  0  0  0  0  0  0  0  0  0  0
  150.4279  138.8515  156.7599 N   0  5  0  0  0  0  0  0  0  0  0  0
  149.2204  138.3902  156.3082 C   0  0  0  0  0  0  0  0  0  0  0  0
  148.2863  138.1347  157.0691 O   0  0  0  0  0  0  0  0  0  0  0  0
  148.0352  133.1104  152.8690 C   0  0  0  0  0  0  0  0  0  0  0  0
  147.1529  133.3401  151.6289 C   0  0  0  0  0  0  0  0  0  0  0  0
  144.8129  134.2934  150.3723 H   0  0  0  0  0  0  0  0  0  0  0  0
  143.7651  132.9641  150.8611 H   0  0  0  0  0  0  0  0  0  0  0  0
  145.1525  132.6538  149.8242 H   0  0  0  0  0  0  0  0  0  0  0  0
  145.6113  131.9474  152.1597 H   0  0  0  0  0  0  0  0  0  0  0  0
  145.1474  134.8749  152.8793 H   0  0  0  0  0  0  0  0  0  0  0  0
  144.1345  133.5327  153.3462 H   0  0  0  0  0  0  0  0  0  0  0  0
  145.6702  134.1810  155.1992 H   0  0  0  0  0  0  0  0  0  0  0  0
  145.9421  132.5408  154.6800 H   0  0  0  0  0  0  0  0  0  0  0  0
  148.1111  133.5571  154.9612 H   0  0  0  0  0  0  0  0  0  0  0  0
  148.1707  135.6084  153.0475 H   0  0  0  0  0  0  0  0  0  0  0  0
  147.7981  137.7945  153.3099 H   0  0  0  0  0  0  0  0  0  0  0  0
  146.9504  138.3486  154.7166 H   0  0  0  0  0  0  0  0  0  0  0  0
  149.8681  138.3379  153.0291 H   0  0  0  0  0  0  0  0  0  0  0  0
  152.0775  139.1822  153.8044 H   0  0  0  0  0  0  0  0  0  0  0  0
  149.0677  133.3849  152.6490 H   0  0  0  0  0  0  0  0  0  0  0  0
  148.0489  132.0448  153.1016 H   0  0  0  0  0  0  0  0  0  0  0  0
  147.5210  132.7288  150.8043 H   0  0  0  0  0  0  0  0  0  0  0  0
  147.2421  134.3772  151.3030 H   0  0  0  0  0  0  0  0  0  0  0  0
  1  2  1  0  0  0  0
  1 20  1  0  0  0  0
  1 21  1  0  0  0  0
  1 22  1  0  0  0  0
  2 19  1  0  0  0  0
  2  3  1  0  0  0  0
  2 23  1  0  0  0  0
  3  4  1  0  0  0  0
  3 24  1  0  0  0  0
  3 25  1  0  0  0  0
  4  5  1  0  0  0  0
  4 26  1  0  0  0  0
  4 27  1  0  0  0  0
  5  6  1  0  0  0  0
  5 18  1  0  0  0  0
  5 28  1  0  0  0  0
  6  7  1  0  0  0  0
  6 29  1  0  0  0  0
  7  8  2  0  0  0  0
  7  9  1  0  0  0  0
  9 10  1  0  0  0  0
  9 30  1  0  0  0  0
  9 31  1  0  0  0  0
 10 16  1  0  0  0  0
 10 11  1  0  0  0  0
 11 12  2  0  0  0  0
 11 32  1  0  0  0  0
 12 13  1  0  0  0  0
 12 33  1  0  0  0  0
 13 14  2  0  0  0  0
 13 15  1  0  0  0  0
 15 16  1  0  0  0  0
 16 17  2  0  0  0  0
 18 19  1  0  0  0  0
 18 34  1  0  0  0  0
 18 35  1  0  0  0  0
 19 36  1  0  0  0  0
 19 37  1  0  0  0  0
M  CHG  1  15  -1
M  END
> <s_m_source_file>
AV-unprocessed.smi

> <i_m_source_file_index>
414

> <i_lp_mmshare_version>
43012

> <i_f3d_flags>
0

> <s_epik_input>
W0NIM11bQ0BASF0xW0NIMl1bQ0gyXVtDQEhdKFtDSDJdW0NIMl0xKVtOSF1DKD1PKVtDSDJdbjJbY0hdW2NIXWMoPU8pW25IXWMyPU8=

> <s_epik_cmdline>
J2VwaWtfcHl0aG9uJywgJy1waCcsICc3LjAnLCAnLXRuJywgJzgnLCAnLW1hJywgJzIwMCcsICctbWV0YWxfYmluZGluZycsICctaW1hZScsICc8aW5maWxlLm1hZT4nLCAnLW9tYWUnLCAnPG91dGZpbGUubWFlPic=

> <r_lp_tautomer_probability>
0.999537

> <r_epik_Ionization_Penalty>
3.11551

> <r_epik_Ionization_Penalty_Charging>
2.90498e-08

> <r_epik_Ionization_Penalty_Neutral>
3.11551

> <r_epik_State_Penalty>
3.11459

> <r_epik_Charging_Adjusted_Penalty>
3.11459

> <i_epik_Tot_Q>
-1

> <i_epik_Tot_abs_Q>
1

> <r_epik_Metal_State_Penalty>
0.463083

> <b_epik_Metal_Only>
1

> <s_lp_Force_Field>
OPLS_2005

> <r_lp_Energy>
16.6581

> <b_lp_Chiralities_Consistent>
1

> <s_lp_Variant>
AV-unprocessed.smi:414-4

> <Gold.Version>
5.8.1

> <Gold.Id.Protein>
6NUR|6NUR_protein|mol2

> <Gold.PLP.Fitness>
34.3407

> <Gold.PLP.PLP>
-23.0944

> <Gold.PLP.part.hbond>
-2.0000

> <Gold.PLP.part.metal>
0.0000

> <Gold.PLP.part.buried>
-2.9816

> <Gold.PLP.part.nonpolar>
-18.5577

> <Gold.PLP.part.repulsive>
0.0201

> <Gold.PLP.ligand.clash>
0.0000

> <Gold.PLP.ligand.torsion>
0.3310

> <Gold.PLP.Chemscore.Hbond>
2.0000

> <Gold.PLP.Chemscore.CHOScore>
1.9664

> <Gold.PLP.Chemscore.Metal>
0.0000

> <Gold.Chemscore.Hbonds>
donor molecule, donor type, donor heavy atom, donor atom, acceptor molecule, acceptor atom, score
      L1  H     6    29       P1  7948  1.00
      P1  H  7997  8009       L1    14  1.00
      L1  C    11    32       P1  7948  1.00
      L1  C    11    32       P1  7957  1.00

> <Gold.PLP.Chemscore.Internal.Correction>
0.0089

> <Gold.Rescore>
     Score         DG    S(hbond)    S(metal)    S(lipo)     H(rot)  DE(clash)    DE(int)     intcor
     13.37     -14.32       2.00        0.00      54.82       1.65       0.11       0.84       ----

> <Gold.Chemscore.Fitness>
13.3742

> <Gold.Chemscore.DG>
-14.3214

> <Gold.Chemscore.ZeroCoef>
-5.4800

> <Gold.Chemscore.Hbond>
1.9950

> <Gold.Chemscore.Metal>
0.0000

> <Gold.Chemscore.Lipo>
54.8243

> <Gold.Chemscore.Internal_Hbond>
0.0000

> <Gold.Chemscore.DEClash>
0.1079

> <Gold.Chemscore.DEInternal>
0.8392

> <Gold.Chemscore.Rot>
1.6549

> <Gold.Chemscore.Internal.Correction>
   9.000000E+99

> <Gold.Chemscore.Hbonds>
donor molecule, donor type, donor heavy atom, donor atom, acceptor molecule, acceptor atom, score
      L1  H     6    29       P1  7948  0.93
      P1  H  7997  8009       L1    14  1.00

> <Gold.Chemscore.Hbond.Weighted>
-6.6634

> <Gold.Chemscore.Metal.Weighted>
-0.0000

> <Gold.Chemscore.Lipo.Weighted>
-6.4144

> <Gold.Chemscore.Internal_Hbond.Weighted>
0.0000

> <Gold.Chemscore.DEClash.Weighted>
0.1079

> <Gold.Chemscore.DEInternal.Weighted>
0.8392

> <Gold.Chemscore.Rot.Weighted>
4.2364

> <Gold.Chemscore.Internal.Correction.Weighted>
   9.000000E+99

> <Gold.Protein.RotatedTorsions>
[ 6907 6896 6895 6894 ] final  162.98 input  -60.11 | X-H torsion
[ 7974 7965 7964 7962 ] final -139.70 input  175.53 | X-H torsion
[ 8008 7997 7996 7995 ] final -161.29 input   59.86 | X-H torsion
[ 10167 10162 10161 10158 ] final  162.23 input  -65.29 | X-H torsion
[ 10718 10713 10712 10709 ] final  -14.03 input   66.30 | X-H torsion
[ 10763 10752 10751 10750 ] final -101.67 input  -60.55 | X-H torsion
[ 11005 11000 10999 10996 ] final   11.85 input  -57.11 | X-H torsion

> <Gold.Protein.ActiveResidues>
 VAL166  LYS551  ARG553  GLY616  TRP617  ASP618  TYR619  PRO620  LYS621  CYS622 
 ASP623  PHE694  ASN695  SER759  ASP760  ASP761  ALA762  ILE779  LEU786  VAL792 
 PHE793  MET794  SER795  GLU796  ALA797  LYS798  CYS799  TRP800  GLU811  SER814 

> <Gold.Protein.RotatedAtoms>
  151.9321  133.3614  159.3934 H   0  0  0  0  0  0  0  0  0  0  0  0  # atno 6907 bound_to 6896
  150.7015  134.4526  159.5353 H   0  0  0  0  0  0  0  0  0  0  0  0  # atno 6908 bound_to 6896
  152.2169  134.8450  160.0541 H   0  0  0  0  0  0  0  0  0  0  0  0  # atno 6909 bound_to 6896
  144.8656  140.6287  143.5300 H   0  0  0  0  0  0  0  0  0  0  0  0  # atno 7974 bound_to 7965
  155.7900  140.0877  157.2014 H   0  0  0  0  0  0  0  0  0  0  0  0  # atno 8008 bound_to 7997
  154.3986  140.1492  156.3210 H   0  0  0  0  0  0  0  0  0  0  0  0  # atno 8009 bound_to 7997
  155.8568  140.3432  155.5732 H   0  0  0  0  0  0  0  0  0  0  0  0  # atno 8010 bound_to 7997
  139.4858  144.4458  151.8894 H   0  0  0  0  0  0  0  0  0  0  0  0  # atno 10167 bound_to 10162
  156.6218  130.4877  149.6162 H   0  0  0  0  0  0  0  0  0  0  0  0  # atno 10718 bound_to 10713
  154.7675  135.4889  153.9584 H   0  0  0  0  0  0  0  0  0  0  0  0  # atno 10763 bound_to 10752
  153.1326  135.6756  153.9161 H   0  0  0  0  0  0  0  0  0  0  0  0  # atno 10764 bound_to 10752
  153.8859  135.3126  155.3425 H   0  0  0  0  0  0  0  0  0  0  0  0  # atno 10765 bound_to 10752
  140.4986  134.0768  155.7788 H   0  0  0  0  0  0  0  0  0  0  0  0  # atno 11005 bound_to 11000
  145.4228  139.1561  143.4064 LP  0  0  0  0  0  0  0  0  0  0  0  0  # atno 17320 bound_to 7965
  146.2893  140.4340  142.8746 LP  0  0  0  0  0  0  0  0  0  0  0  0  # atno 17321 bound_to 7965
  140.3912  144.2613  150.5899 LP  0  0  0  0  0  0  0  0  0  0  0  0  # atno 17342 bound_to 10162
  140.5144  143.2282  151.8485 LP  0  0  0  0  0  0  0  0  0  0  0  0  # atno 17343 bound_to 10162
  156.2305  130.6792  151.1459 LP  0  0  0  0  0  0  0  0  0  0  0  0  # atno 17370 bound_to 10713
  157.7225  131.0672  150.6074 LP  0  0  0  0  0  0  0  0  0  0  0  0  # atno 17371 bound_to 10713
  141.1447  133.9076  157.2243 LP  0  0  0  0  0  0  0  0  0  0  0  0  # atno 17394 bound_to 11000
  139.9726  135.0123  156.9551 LP  0  0  0  0  0  0  0  0  0  0  0  0  # atno 17395 bound_to 11000

$$$$
