AV-unprocessed.smi:143|AV-procd|sdf|1194|dock3
  -GOLD-   2262018353D 1   1.00000     0.00000
 Structure written by MMmdl.
 38 40  0  0  0  0  0  0  0  0  1 V2000
  151.3610  142.7018  157.5284 O   0  0  0  0  0  0  0  0  0  0  0  0
  151.6154  141.9359  158.4602 C   0  0  0  0  0  0  0  0  0  0  0  0
  151.3832  140.4183  158.2970 C   0  0  0  0  0  0  0  0  0  0  0  0
  150.8334  140.0597  156.9941 N   0  0  0  0  0  0  0  0  0  0  0  0
  151.6080  139.2184  156.1576 C   0  0  0  0  0  0  0  0  0  0  0  0
  152.7189  138.8035  156.4923 O   0  0  0  0  0  0  0  0  0  0  0  0
  150.9713  138.8733  154.8925 C   0  0  0  0  0  0  0  0  0  0  0  0
  151.5993  138.0505  154.0357 F   0  0  0  0  0  0  0  0  0  0  0  0
  149.7493  139.3505  154.5724 C   0  0  0  0  0  0  0  0  0  0  0  0
  149.0240  140.2019  155.3935 N   0  0  0  0  0  0  0  0  0  0  0  0
  147.6099  140.6541  155.0603 C   0  0  1  0  0  0  0  0  0  0  0  0
  147.4858  141.4142  153.7325 C   0  0  0  0  0  0  0  0  0  0  0  0
  147.0177  140.3397  152.7545 C   0  0  0  0  0  0  0  0  0  0  0  0
  146.9256  139.0606  153.5930 C   0  0  0  0  0  0  0  0  0  0  0  0
  146.8052  139.5257  154.9304 O   0  0  0  0  0  0  0  0  0  0  0  0
  149.5426  140.5400  156.6644 C   0  0  0  0  0  0  0  0  0  0  0  0
  148.8861  141.2226  157.4547 O   0  0  0  0  0  0  0  0  0  0  0  0
  152.1503  142.4127  159.7694 C   0  0  0  0  0  0  0  0  0  0  0  0
  151.8061  143.7066  160.2272 C   0  0  0  0  0  0  0  0  0  0  0  0
  152.2904  144.1854  161.4598 C   0  0  0  0  0  0  0  0  0  0  0  0
  153.1249  143.3759  162.2519 C   0  0  0  0  0  0  0  0  0  0  0  0
  153.7758  144.0211  163.9199 Br  0  0  0  0  0  0  0  0  0  0  0  0
  153.4760  142.0878  161.8077 C   0  0  0  0  0  0  0  0  0  0  0  0
  152.9932  141.6079  160.5744 C   0  0  0  0  0  0  0  0  0  0  0  0
  152.3120  139.8618  158.4318 H   0  0  0  0  0  0  0  0  0  0  0  0
  150.7029  140.0402  159.0615 H   0  0  0  0  0  0  0  0  0  0  0  0
  149.3326  139.0258  153.6321 H   0  0  0  0  0  0  0  0  0  0  0  0
  147.2969  141.2743  155.9017 H   0  0  0  0  0  0  0  0  0  0  0  0
  146.7083  142.1708  153.8442 H   0  0  0  0  0  0  0  0  0  0  0  0
  148.4052  141.9276  153.4520 H   0  0  0  0  0  0  0  0  0  0  0  0
  146.0382  140.6035  152.3542 H   0  0  0  0  0  0  0  0  0  0  0  0
  147.6994  140.2190  151.9123 H   0  0  0  0  0  0  0  0  0  0  0  0
  146.0772  138.4366  153.3118 H   0  0  0  0  0  0  0  0  0  0  0  0
  147.8303  138.4600  153.4907 H   0  0  0  0  0  0  0  0  0  0  0  0
  151.1659  144.3474  159.6382 H   0  0  0  0  0  0  0  0  0  0  0  0
  152.0193  145.1751  161.7971 H   0  0  0  0  0  0  0  0  0  0  0  0
  154.1171  141.4644  162.4136 H   0  0  0  0  0  0  0  0  0  0  0  0
  153.2848  140.6147  160.2684 H   0  0  0  0  0  0  0  0  0  0  0  0
  1  2  2  0  0  0  0
  2  3  1  0  0  0  0
  2 18  1  0  0  0  0
  3  4  1  0  0  0  0
  3 25  1  0  0  0  0
  3 26  1  0  0  0  0
  4 16  1  0  0  0  0
  4  5  1  0  0  0  0
  5  6  2  0  0  0  0
  5  7  1  0  0  0  0
  7  8  1  0  0  0  0
  7  9  2  0  0  0  0
  9 10  1  0  0  0  0
  9 27  1  0  0  0  0
 10 11  1  0  0  0  0
 10 16  1  0  0  0  0
 11 15  1  0  0  0  0
 11 12  1  0  0  0  0
 11 28  1  0  0  0  0
 12 13  1  0  0  0  0
 12 29  1  0  0  0  0
 12 30  1  0  0  0  0
 13 14  1  0  0  0  0
 13 31  1  0  0  0  0
 13 32  1  0  0  0  0
 14 15  1  0  0  0  0
 14 33  1  0  0  0  0
 14 34  1  0  0  0  0
 16 17  2  0  0  0  0
 18 24  1  0  0  0  0
 18 19  2  0  0  0  0
 19 20  1  0  0  0  0
 19 35  1  0  0  0  0
 20 21  2  0  0  0  0
 20 36  1  0  0  0  0
 21 22  1  0  0  0  0
 21 23  1  0  0  0  0
 23 24  2  0  0  0  0
 23 37  1  0  0  0  0
 24 38  1  0  0  0  0
M  END
> <s_m_source_file>
AV-unprocessed.smi

> <i_m_source_file_index>
143

> <i_lp_mmshare_version>
43012

> <i_f3d_flags>
0

> <s_epik_input>
W2NIXTFbY0hdYyhCcilbY0hdW2NIXWMxQyg9TylbQ0gyXW4yYyg9TyljKEYpW2NIXW4oYzI9TylbQ0BASF0zW0NIMl1bQ0gyXVtDSDJdTzM=

> <s_epik_cmdline>
J2VwaWtfcHl0aG9uJywgJy1waCcsICc3LjAnLCAnLXRuJywgJzgnLCAnLW1hJywgJzIwMCcsICctbWV0YWxfYmluZGluZycsICctaW1hZScsICc8aW5maWxlLm1hZT4nLCAnLW9tYWUnLCAnPG91dGZpbGUubWFlPic=

> <r_lp_tautomer_probability>
1

> <r_epik_Ionization_Penalty>
4.7008e-09

> <r_epik_Ionization_Penalty_Charging>
4.69459e-09

> <r_epik_Ionization_Penalty_Neutral>
6.21034e-12

> <r_epik_State_Penalty>
-0

> <r_epik_Charging_Adjusted_Penalty>
4.69459e-09

> <i_epik_Tot_Q>
0

> <i_epik_Tot_abs_Q>
0

> <r_epik_Metal_State_Penalty>
-0

> <b_epik_Metal_Only>
0

> <s_epik_Chemistry_Notes>
This compound contains an acetal/aminal-like group ( X-CH(R)-Y where X, Y are N, S, or O) that may be acid/base labile, releasing an aldehyde.

> <s_lp_Force_Field>
OPLS_2005

> <r_lp_Energy>
39.4707

> <b_lp_Chiralities_Consistent>
1

> <s_lp_Variant>
AV-unprocessed.smi:143-2

> <Gold.Version>
5.8.1

> <Gold.Id.Protein>
6NUR|6NUR_protein|mol2

> <Gold.PLP.Fitness>
54.6249

> <Gold.PLP.PLP>
-49.3990

> <Gold.PLP.part.hbond>
-1.0000

> <Gold.PLP.part.metal>
0.0000

> <Gold.PLP.part.buried>
-5.9935

> <Gold.PLP.part.nonpolar>
-40.5929

> <Gold.PLP.part.repulsive>
0.2157

> <Gold.PLP.ligand.clash>
0.0000

> <Gold.PLP.ligand.torsion>
0.4320

> <Gold.PLP.Chemscore.Hbond>
1.0000

> <Gold.PLP.Chemscore.CHOScore>
1.0000

> <Gold.PLP.Chemscore.Metal>
0.0000

> <Gold.Chemscore.Hbonds>
donor molecule, donor type, donor heavy atom, donor atom, acceptor molecule, acceptor atom, score
      P1  H  7997  8010       L1     6  0.81
      L1  C     9    27       P1  7957  0.62

> <Gold.PLP.Chemscore.Internal.Correction>
0.0898

> <Gold.Rescore>
     Score         DG    S(hbond)    S(metal)    S(lipo)     H(rot)  DE(clash)    DE(int)     intcor
     15.47     -17.69       1.00        0.00     110.42       1.58       0.40       1.82       ----

> <Gold.Chemscore.Fitness>
15.4695

> <Gold.Chemscore.DG>
-17.6896

> <Gold.Chemscore.ZeroCoef>
-5.4800

> <Gold.Chemscore.Hbond>
0.9959

> <Gold.Chemscore.Metal>
0.0000

> <Gold.Chemscore.Lipo>
110.4206

> <Gold.Chemscore.Internal_Hbond>
0.0000

> <Gold.Chemscore.DEClash>
0.4016

> <Gold.Chemscore.DEInternal>
1.8185

> <Gold.Chemscore.Rot>
1.5765

> <Gold.Chemscore.Internal.Correction>
   9.000000E+99

> <Gold.Chemscore.Hbonds>
donor molecule, donor type, donor heavy atom, donor atom, acceptor molecule, acceptor atom, score
      P1  H  7997  8010       L1     6  0.75

> <Gold.Chemscore.Hbond.Weighted>
-3.3263

> <Gold.Chemscore.Metal.Weighted>
-0.0000

> <Gold.Chemscore.Lipo.Weighted>
-12.9192

> <Gold.Chemscore.Internal_Hbond.Weighted>
0.0000

> <Gold.Chemscore.DEClash.Weighted>
0.4016

> <Gold.Chemscore.DEInternal.Weighted>
1.8185

> <Gold.Chemscore.Rot.Weighted>
4.0359

> <Gold.Chemscore.Internal.Correction.Weighted>
   9.000000E+99

> <Gold.Protein.RotatedTorsions>
[ 6907 6896 6895 6894 ] final  165.27 input  -60.11 | X-H torsion
[ 7974 7965 7964 7962 ] final  -93.72 input  175.53 | X-H torsion
[ 8008 7997 7996 7995 ] final   82.66 input   59.86 | X-H torsion
[ 10167 10162 10161 10158 ] final   75.80 input  -65.29 | X-H torsion
[ 10718 10713 10712 10709 ] final -152.89 input   66.30 | X-H torsion
[ 10763 10752 10751 10750 ] final   -3.64 input  -60.55 | X-H torsion
[ 11005 11000 10999 10996 ] final -132.27 input  -57.11 | X-H torsion

> <Gold.Protein.ActiveResidues>
 VAL166  LYS551  ARG553  GLY616  TRP617  ASP618  TYR619  PRO620  LYS621  CYS622 
 ASP623  PHE694  ASN695  SER759  ASP760  ASP761  ALA762  ILE779  LEU786  VAL792 
 PHE793  MET794  SER795  GLU796  ALA797  LYS798  CYS799  TRP800  GLU811  SER814 

> <Gold.Protein.RotatedAtoms>
  151.8971  133.3529  159.3817 H   0  0  0  0  0  0  0  0  0  0  0  0  # atno 6907 bound_to 6896
  150.7089  134.4866  159.5505 H   0  0  0  0  0  0  0  0  0  0  0  0  # atno 6908 bound_to 6896
  152.2447  134.8194  160.0506 H   0  0  0  0  0  0  0  0  0  0  0  0  # atno 6909 bound_to 6896
  145.3828  140.9519  143.2384 H   0  0  0  0  0  0  0  0  0  0  0  0  # atno 7974 bound_to 7965
  155.9135  140.3426  155.6117 H   0  0  0  0  0  0  0  0  0  0  0  0  # atno 8008 bound_to 7997
  155.7359  140.0801  157.2287 H   0  0  0  0  0  0  0  0  0  0  0  0  # atno 8009 bound_to 7997
  154.4059  140.1579  156.2548 H   0  0  0  0  0  0  0  0  0  0  0  0  # atno 8010 bound_to 7997
  139.9991  144.5700  150.7753 H   0  0  0  0  0  0  0  0  0  0  0  0  # atno 10167 bound_to 10162
  156.4785  130.8292  151.2519 H   0  0  0  0  0  0  0  0  0  0  0  0  # atno 10718 bound_to 10713
  153.3741  135.6996  153.6615 H   0  0  0  0  0  0  0  0  0  0  0  0  # atno 10763 bound_to 10752
  153.5253  135.3603  155.2651 H   0  0  0  0  0  0  0  0  0  0  0  0  # atno 10764 bound_to 10752
  154.8685  135.4167  154.3026 H   0  0  0  0  0  0  0  0  0  0  0  0  # atno 10765 bound_to 10752
  140.9185  134.1475  157.4333 H   0  0  0  0  0  0  0  0  0  0  0  0  # atno 11005 bound_to 11000
  144.8495  139.5344  143.6863 LP  0  0  0  0  0  0  0  0  0  0  0  0  # atno 17320 bound_to 7965
  146.2834  139.6938  142.9213 LP  0  0  0  0  0  0  0  0  0  0  0  0  # atno 17321 bound_to 7965
  140.7426  143.2834  151.3533 LP  0  0  0  0  0  0  0  0  0  0  0  0  # atno 17342 bound_to 10162
  139.6285  144.0767  152.2455 LP  0  0  0  0  0  0  0  0  0  0  0  0  # atno 17343 bound_to 10162
  157.7485  131.0053  150.3108 LP  0  0  0  0  0  0  0  0  0  0  0  0  # atno 17370 bound_to 10713
  156.3546  130.3836  149.7301 LP  0  0  0  0  0  0  0  0  0  0  0  0  # atno 17371 bound_to 10713
  139.8771  134.9963  156.5786 LP  0  0  0  0  0  0  0  0  0  0  0  0  # atno 17394 bound_to 11000
  140.8018  133.8499  155.8733 LP  0  0  0  0  0  0  0  0  0  0  0  0  # atno 17395 bound_to 11000

$$$$
