AV-unprocessed.smi:29|AV-procd|sdf|192|dock2
  -GOLD-   2262015463D 1   1.00000     0.00000
 Structure written by MMmdl.
 56 59  0  0  0  0  0  0  0  0  1 V2000
  153.4615  138.9556  157.3962 O   0  0  0  0  0  0  0  0  0  0  0  0
  152.5570  139.7871  157.4389 C   0  0  0  0  0  0  0  0  0  0  0  0
  151.6511  139.9440  156.2037 C   0  0  0  0  0  0  0  0  0  0  0  0
  150.7235  138.8146  155.9545 N   0  0  0  0  0  0  0  0  0  0  0  0
  151.2554  137.6032  155.4490 C   0  0  0  0  0  0  0  0  0  0  0  0
  152.4529  137.4926  155.1831 O   0  0  0  0  0  0  0  0  0  0  0  0
  150.2955  136.5208  155.2727 C   0  0  0  0  0  0  0  0  0  0  0  0
  150.7200  135.3169  154.8530 F   0  0  0  0  0  0  0  0  0  0  0  0
  148.9856  136.7042  155.5345 C   0  0  0  0  0  0  0  0  0  0  0  0
  148.4640  137.9148  155.9605 N   0  0  0  0  0  0  0  0  0  0  0  0
  146.9934  138.1010  156.3051 C   0  0  1  0  0  0  0  0  0  0  0  0
  146.2968  139.2266  155.5279 C   0  0  0  0  0  0  0  0  0  0  0  0
  145.6211  138.4907  154.3744 C   0  0  0  0  0  0  0  0  0  0  0  0
  145.9679  137.0144  154.5949 C   0  0  0  0  0  0  0  0  0  0  0  0
  146.3117  136.9344  155.9713 O   0  0  0  0  0  0  0  0  0  0  0  0
  149.3441  138.9891  156.2213 C   0  0  0  0  0  0  0  0  0  0  0  0
  148.9184  140.0602  156.6587 O   0  0  0  0  0  0  0  0  0  0  0  0
  152.3081  140.5927  158.4897 N   0  0  0  0  0  0  0  0  0  0  0  0
  152.9703  140.7134  159.7459 C   0  0  0  0  0  0  0  0  0  0  0  0
  153.6663  139.6461  160.3660 C   0  0  0  0  0  0  0  0  0  0  0  0
  154.3008  139.8225  161.6132 C   0  0  0  0  0  0  0  0  0  0  0  0
  155.0378  138.6575  162.2578 C   0  0  0  0  0  0  0  0  0  0  0  0
  155.5912  139.0097  163.4188 F   0  0  0  0  0  0  0  0  0  0  0  0
  154.1784  137.6633  162.4782 F   0  0  0  0  0  0  0  0  0  0  0  0
  156.0045  138.2190  161.4510 F   0  0  0  0  0  0  0  0  0  0  0  0
  154.2249  141.0741  162.2572 C   0  0  0  0  0  0  0  0  0  0  0  0
  153.5245  142.1361  161.6587 C   0  0  0  0  0  0  0  0  0  0  0  0
  152.8918  141.9654  160.4066 C   0  0  0  0  0  0  0  0  0  0  0  0
  152.1802  143.0263  159.8196 N   0  0  0  0  0  0  0  0  0  0  0  0
  151.7497  144.0398  160.7735 C   0  0  0  0  0  0  0  0  0  0  0  0
  150.8527  145.0714  160.0704 C   0  0  0  0  0  0  0  0  0  0  0  0
  151.5434  145.6281  158.9554 O   0  0  0  0  0  0  0  0  0  0  0  0
  151.8954  144.6377  157.9931 C   0  0  0  0  0  0  0  0  0  0  0  0
  152.8204  143.5919  158.6392 C   0  0  0  0  0  0  0  0  0  0  0  0
  151.0997  140.8801  156.3052 H   0  0  0  0  0  0  0  0  0  0  0  0
  152.2923  140.1169  155.3381 H   0  0  0  0  0  0  0  0  0  0  0  0
  148.3383  135.8516  155.4042 H   0  0  0  0  0  0  0  0  0  0  0  0
  146.9700  138.2886  157.3799 H   0  0  0  0  0  0  0  0  0  0  0  0
  145.5373  139.6661  156.1756 H   0  0  0  0  0  0  0  0  0  0  0  0
  146.9767  140.0253  155.2329 H   0  0  0  0  0  0  0  0  0  0  0  0
  144.5419  138.6411  154.4185 H   0  0  0  0  0  0  0  0  0  0  0  0
  145.9659  138.8406  153.4011 H   0  0  0  0  0  0  0  0  0  0  0  0
  145.1381  136.3496  154.3539 H   0  0  0  0  0  0  0  0  0  0  0  0
  146.8218  136.7183  153.9842 H   0  0  0  0  0  0  0  0  0  0  0  0
  151.5608  141.2572  158.3494 H   0  0  0  0  0  0  0  0  0  0  0  0
  153.7204  138.6699  159.9126 H   0  0  0  0  0  0  0  0  0  0  0  0
  154.6945  141.2268  163.2174 H   0  0  0  0  0  0  0  0  0  0  0  0
  153.4716  143.0850  162.1719 H   0  0  0  0  0  0  0  0  0  0  0  0
  151.2059  143.5688  161.5937 H   0  0  0  0  0  0  0  0  0  0  0  0
  152.6192  144.5380  161.2040 H   0  0  0  0  0  0  0  0  0  0  0  0
  149.9237  144.6092  159.7390 H   0  0  0  0  0  0  0  0  0  0  0  0
  150.5827  145.8711  160.7601 H   0  0  0  0  0  0  0  0  0  0  0  0
  150.9954  144.1674  157.5959 H   0  0  0  0  0  0  0  0  0  0  0  0
  152.3992  145.1185  157.1546 H   0  0  0  0  0  0  0  0  0  0  0  0
  153.7667  144.0579  158.9158 H   0  0  0  0  0  0  0  0  0  0  0  0
  153.0458  142.7991  157.9248 H   0  0  0  0  0  0  0  0  0  0  0  0
  1  2  2  0  0  0  0
  2  3  1  0  0  0  0
  2 18  1  0  0  0  0
  3  4  1  0  0  0  0
  3 35  1  0  0  0  0
  3 36  1  0  0  0  0
  4 16  1  0  0  0  0
  4  5  1  0  0  0  0
  5  6  2  0  0  0  0
  5  7  1  0  0  0  0
  7  8  1  0  0  0  0
  7  9  2  0  0  0  0
  9 10  1  0  0  0  0
  9 37  1  0  0  0  0
 10 11  1  0  0  0  0
 10 16  1  0  0  0  0
 11 15  1  0  0  0  0
 11 12  1  0  0  0  0
 11 38  1  0  0  0  0
 12 13  1  0  0  0  0
 12 39  1  0  0  0  0
 12 40  1  0  0  0  0
 13 14  1  0  0  0  0
 13 41  1  0  0  0  0
 13 42  1  0  0  0  0
 14 15  1  0  0  0  0
 14 43  1  0  0  0  0
 14 44  1  0  0  0  0
 16 17  2  0  0  0  0
 18 19  1  0  0  0  0
 18 45  1  0  0  0  0
 19 28  1  0  0  0  0
 19 20  2  0  0  0  0
 20 21  1  0  0  0  0
 20 46  1  0  0  0  0
 21 22  1  0  0  0  0
 21 26  2  0  0  0  0
 22 23  1  0  0  0  0
 22 24  1  0  0  0  0
 22 25  1  0  0  0  0
 26 27  1  0  0  0  0
 26 47  1  0  0  0  0
 27 28  2  0  0  0  0
 27 48  1  0  0  0  0
 28 29  1  0  0  0  0
 29 34  1  0  0  0  0
 29 30  1  0  0  0  0
 30 31  1  0  0  0  0
 30 49  1  0  0  0  0
 30 50  1  0  0  0  0
 31 32  1  0  0  0  0
 31 51  1  0  0  0  0
 31 52  1  0  0  0  0
 32 33  1  0  0  0  0
 33 34  1  0  0  0  0
 33 53  1  0  0  0  0
 33 54  1  0  0  0  0
 34 55  1  0  0  0  0
 34 56  1  0  0  0  0
M  END
> <s_m_source_file>
AV-unprocessed.smi

> <i_m_source_file_index>
29

> <i_lp_mmshare_version>
43012

> <i_f3d_flags>
0

> <s_epik_input>
TzFbQ0gyXVtDSDJdW0NIMl1bQ0BIXTFuKGMyPU8pW2NIXWMoRiljKD1PKW4yW0NIMl1DKD1PKVtOSF1jM1tjSF1jKEMoRikoRilGKVtjSF1bY0hdYzNONFtDSDJdW0NIMl1PW0NIMl1bQ0gyXTQ=

> <s_epik_cmdline>
J2VwaWtfcHl0aG9uJywgJy1waCcsICc3LjAnLCAnLXRuJywgJzgnLCAnLW1hJywgJzIwMCcsICctbWV0YWxfYmluZGluZycsICctaW1hZScsICc8aW5maWxlLm1hZT4nLCAnLW9tYWUnLCAnPG91dGZpbGUubWFlPic=

> <r_lp_tautomer_probability>
1

> <r_epik_Ionization_Penalty>
3.5967e-06

> <r_epik_Ionization_Penalty_Charging>
3.88729e-08

> <r_epik_Ionization_Penalty_Neutral>
3.55783e-06

> <r_epik_State_Penalty>
-0

> <r_epik_Charging_Adjusted_Penalty>
3.88729e-08

> <i_epik_Tot_Q>
0

> <i_epik_Tot_abs_Q>
0

> <r_epik_Metal_State_Penalty>
-0

> <b_epik_Metal_Only>
0

> <s_epik_Chemistry_Notes>
This compound contains an acetal/aminal-like group ( X-CH(R)-Y where X, Y are N, S, or O) that may be acid/base labile, releasing an aldehyde.

> <s_lp_Force_Field>
OPLS_2005

> <r_lp_Energy>
46.7793

> <b_lp_Chiralities_Consistent>
1

> <s_lp_Variant>
AV-unprocessed.smi:29-2

> <Gold.Version>
5.8.1

> <Gold.Id.Protein>
6NUR|6NUR_protein|mol2

> <Gold.PLP.Fitness>
54.1913

> <Gold.PLP.PLP>
-50.9576

> <Gold.PLP.part.hbond>
-3.0000

> <Gold.PLP.part.metal>
0.0000

> <Gold.PLP.part.buried>
-5.6529

> <Gold.PLP.part.nonpolar>
-41.6518

> <Gold.PLP.part.repulsive>
0.2993

> <Gold.PLP.ligand.clash>
0.5948

> <Gold.PLP.ligand.torsion>
0.8694

> <Gold.PLP.Chemscore.Hbond>
1.5552

> <Gold.PLP.Chemscore.CHOScore>
0.0000

> <Gold.PLP.Chemscore.Metal>
0.0000

> <Gold.Chemscore.Hbonds>
donor molecule, donor type, donor heavy atom, donor atom, acceptor molecule, acceptor atom, score
      P1  H  7997  8009       L1     1  0.80
      P1  H 10752 10765       L1     6  0.60

> <Gold.PLP.Chemscore.Internal.Correction>
0.9017

> <Gold.Rescore>
     Score         DG    S(hbond)    S(metal)    S(lipo)     H(rot)  DE(clash)    DE(int)     intcor
     14.50     -18.14       1.23        0.00     115.97       1.96       0.15       3.49       ----

> <Gold.Chemscore.Fitness>
14.4964

> <Gold.Chemscore.DG>
-18.1420

> <Gold.Chemscore.ZeroCoef>
-5.4800

> <Gold.Chemscore.Hbond>
1.2341

> <Gold.Chemscore.Metal>
0.0000

> <Gold.Chemscore.Lipo>
115.9668

> <Gold.Chemscore.Internal_Hbond>
0.0000

> <Gold.Chemscore.DEClash>
0.1508

> <Gold.Chemscore.DEInternal>
3.4948

> <Gold.Chemscore.Rot>
1.9641

> <Gold.Chemscore.Internal.Correction>
   9.000000E+99

> <Gold.Chemscore.Hbonds>
donor molecule, donor type, donor heavy atom, donor atom, acceptor molecule, acceptor atom, score
      P1  H  7997  8009       L1     1  0.11
      P1  H 10752 10765       L1     6  0.51

> <Gold.Chemscore.Hbond.Weighted>
-4.1218

> <Gold.Chemscore.Metal.Weighted>
-0.0000

> <Gold.Chemscore.Lipo.Weighted>
-13.5681

> <Gold.Chemscore.Internal_Hbond.Weighted>
0.0000

> <Gold.Chemscore.DEClash.Weighted>
0.1508

> <Gold.Chemscore.DEInternal.Weighted>
3.4948

> <Gold.Chemscore.Rot.Weighted>
5.0280

> <Gold.Chemscore.Internal.Correction.Weighted>
   9.000000E+99

> <Gold.Protein.RotatedTorsions>
[ 6907 6896 6895 6894 ] final -153.15 input  -60.11 | X-H torsion
[ 7974 7965 7964 7962 ] final   -9.16 input  175.53 | X-H torsion
[ 8008 7997 7996 7995 ] final  148.52 input   59.86 | X-H torsion
[ 10167 10162 10161 10158 ] final -145.41 input  -65.29 | X-H torsion
[ 10718 10713 10712 10709 ] final -176.03 input   66.30 | X-H torsion
[ 10763 10752 10751 10750 ] final  173.58 input  -60.55 | X-H torsion
[ 11005 11000 10999 10996 ] final   77.30 input  -57.11 | X-H torsion

> <Gold.Protein.ActiveResidues>
 VAL166  LYS551  ARG553  GLY616  TRP617  ASP618  TYR619  PRO620  LYS621  CYS622 
 ASP623  PHE694  ASN695  SER759  ASP760  ASP761  ALA762  ILE779  LEU786  VAL792 
 PHE793  MET794  SER795  GLU796  ALA797  LYS798  CYS799  TRP800  GLU811  SER814 

> <Gold.Protein.RotatedAtoms>
  151.2384  133.4413  159.2606 H   0  0  0  0  0  0  0  0  0  0  0  0  # atno 6907 bound_to 6896
  151.0728  134.9810  159.8327 H   0  0  0  0  0  0  0  0  0  0  0  0  # atno 6908 bound_to 6896
  152.5414  134.2328  159.8884 H   0  0  0  0  0  0  0  0  0  0  0  0  # atno 6909 bound_to 6896
  146.2260  140.2575  142.8350 H   0  0  0  0  0  0  0  0  0  0  0  0  # atno 7974 bound_to 7965
  156.2788  140.2126  156.5712 H   0  0  0  0  0  0  0  0  0  0  0  0  # atno 8008 bound_to 7997
  154.7134  140.0510  157.0595 H   0  0  0  0  0  0  0  0  0  0  0  0  # atno 8009 bound_to 7997
  155.0574  140.3163  155.4674 H   0  0  0  0  0  0  0  0  0  0  0  0  # atno 8010 bound_to 7997
  139.7808  143.8103  152.2638 H   0  0  0  0  0  0  0  0  0  0  0  0  # atno 10167 bound_to 10162
  156.8087  130.9578  151.3116 H   0  0  0  0  0  0  0  0  0  0  0  0  # atno 10718 bound_to 10713
  154.4420  135.2762  155.1841 H   0  0  0  0  0  0  0  0  0  0  0  0  # atno 10763 bound_to 10752
  154.3703  135.6110  153.5740 H   0  0  0  0  0  0  0  0  0  0  0  0  # atno 10764 bound_to 10752
  152.9841  135.5856  154.4749 H   0  0  0  0  0  0  0  0  0  0  0  0  # atno 10765 bound_to 10752
  139.9260  134.7672  156.1505 H   0  0  0  0  0  0  0  0  0  0  0  0  # atno 11005 bound_to 11000
  144.9365  140.8032  143.5657 LP  0  0  0  0  0  0  0  0  0  0  0  0  # atno 17320 bound_to 7965
  145.2523  139.2026  143.4936 LP  0  0  0  0  0  0  0  0  0  0  0  0  # atno 17321 bound_to 7965
  139.8165  144.7314  150.9628 LP  0  0  0  0  0  0  0  0  0  0  0  0  # atno 17342 bound_to 10162
  140.7818  143.4199  151.0857 LP  0  0  0  0  0  0  0  0  0  0  0  0  # atno 17343 bound_to 10162
  157.6517  130.8890  149.9646 LP  0  0  0  0  0  0  0  0  0  0  0  0  # atno 17370 bound_to 10713
  156.1058  130.3653  150.0137 LP  0  0  0  0  0  0  0  0  0  0  0  0  # atno 17371 bound_to 10713
  141.0818  133.6751  156.2352 LP  0  0  0  0  0  0  0  0  0  0  0  0  # atno 17394 bound_to 11000
  140.6335  134.5240  157.5562 LP  0  0  0  0  0  0  0  0  0  0  0  0  # atno 17395 bound_to 11000

$$$$
