AV-unprocessed.smi:2826|AV-procd|sdf|10893|dock7
  -GOLD-   2272015343D 1   1.00000     0.00000
 Structure written by MMmdl.
 50 51  0  0  0  0  0  0  0  0  1 V2000
  150.4132  142.8939  157.5715 C   0  0  0  0  0  0  0  0  0  0  0  0
  151.0461  142.2204  156.4891 O   0  0  0  0  0  0  0  0  0  0  0  0
  150.3585  141.2041  155.8578 C   0  0  0  0  0  0  0  0  0  0  0  0
  148.9530  141.2689  155.8103 C   0  0  0  0  0  0  0  0  0  0  0  0
  148.2461  140.2350  155.1689 C   0  0  0  0  0  0  0  0  0  0  0  0
  148.9664  139.1572  154.5999 C   0  0  0  0  0  0  0  0  0  0  0  0
  148.3393  138.0798  153.9134 N   0  0  0  0  0  0  0  0  0  0  0  0
  147.1049  137.5820  154.0994 C   0  0  0  0  0  0  0  0  0  0  0  0
  146.2961  137.9820  154.9366 O   0  0  0  0  0  0  0  0  0  0  0  0
  146.8619  136.5613  153.2647 N   0  0  0  0  0  0  0  0  0  0  0  0
  145.6235  135.7890  153.2229 C   0  0  1  0  0  0  0  0  0  0  0  0
  144.4220  136.7306  153.0598 C   0  0  0  0  0  0  0  0  0  0  0  0
  143.1275  135.9247  152.8703 C   0  0  0  0  0  0  0  0  0  0  0  0
  143.2610  135.0474  151.7572 O   0  0  0  0  0  0  0  0  0  0  0  0
  144.2836  134.0687  151.9285 C   0  0  1  0  0  0  0  0  0  0  0  0
  144.2568  133.1129  150.7210 C   0  0  0  0  0  0  0  0  0  0  0  0
  145.4575  132.1459  150.6323 C   0  0  0  0  0  0  0  0  0  0  0  0
  145.8811  131.8604  149.1814 C   0  0  0  0  0  0  0  0  0  0  0  0
  145.1468  130.8314  151.3642 C   0  0  0  0  0  0  0  0  0  0  0  0
  145.6426  134.7831  152.0591 C   0  0  0  0  0  0  0  0  0  0  0  0
  150.3793  139.1921  154.6869 C   0  0  0  0  0  0  0  0  0  0  0  0
  151.2374  138.0910  154.0889 C   0  0  0  0  0  0  0  0  0  0  0  0
  151.0585  140.1850  155.3024 N   0  0  0  0  0  0  0  0  0  0  0  0
  151.0799  143.6659  157.9551 H   0  0  0  0  0  0  0  0  0  0  0  0
  150.1924  142.2102  158.3922 H   0  0  0  0  0  0  0  0  0  0  0  0
  149.4910  143.3819  157.2537 H   0  0  0  0  0  0  0  0  0  0  0  0
  148.4252  142.1005  156.2535 H   0  0  0  0  0  0  0  0  0  0  0  0
  147.1703  140.2964  155.1123 H   0  0  0  0  0  0  0  0  0  0  0  0
  148.9242  137.5859  153.2555 H   0  0  0  0  0  0  0  0  0  0  0  0
  147.5856  136.2956  152.6130 H   0  0  0  0  0  0  0  0  0  0  0  0
  145.5060  135.2452  154.1625 H   0  0  0  0  0  0  0  0  0  0  0  0
  144.3312  137.3850  153.9277 H   0  0  0  0  0  0  0  0  0  0  0  0
  144.5705  137.3770  152.1933 H   0  0  0  0  0  0  0  0  0  0  0  0
  142.8873  135.3554  153.7696 H   0  0  0  0  0  0  0  0  0  0  0  0
  142.2902  136.5985  152.6883 H   0  0  0  0  0  0  0  0  0  0  0  0
  144.0959  133.5056  152.8432 H   0  0  0  0  0  0  0  0  0  0  0  0
  143.3339  132.5328  150.7642 H   0  0  0  0  0  0  0  0  0  0  0  0
  144.1996  133.6949  149.8001 H   0  0  0  0  0  0  0  0  0  0  0  0
  146.3050  132.6035  151.1440 H   0  0  0  0  0  0  0  0  0  0  0  0
  145.0557  131.4464  148.6017 H   0  0  0  0  0  0  0  0  0  0  0  0
  146.7016  131.1431  149.1475 H   0  0  0  0  0  0  0  0  0  0  0  0
  146.2265  132.7615  148.6757 H   0  0  0  0  0  0  0  0  0  0  0  0
  144.3046  130.3121  150.9056 H   0  0  0  0  0  0  0  0  0  0  0  0
  144.8971  131.0119  152.4102 H   0  0  0  0  0  0  0  0  0  0  0  0
  146.0040  130.1577  151.3453 H   0  0  0  0  0  0  0  0  0  0  0  0
  145.8714  135.3024  151.1270 H   0  0  0  0  0  0  0  0  0  0  0  0
  146.4355  134.0492  152.2091 H   0  0  0  0  0  0  0  0  0  0  0  0
  150.9606  137.1233  154.5082 H   0  0  0  0  0  0  0  0  0  0  0  0
  152.2972  138.2538  154.2906 H   0  0  0  0  0  0  0  0  0  0  0  0
  151.1022  138.0509  153.0078 H   0  0  0  0  0  0  0  0  0  0  0  0
  1  2  1  0  0  0  0
  1 24  1  0  0  0  0
  1 25  1  0  0  0  0
  1 26  1  0  0  0  0
  2  3  1  0  0  0  0
  3 23  1  0  0  0  0
  3  4  2  0  0  0  0
  4  5  1  0  0  0  0
  4 27  1  0  0  0  0
  5  6  2  0  0  0  0
  5 28  1  0  0  0  0
  6  7  1  0  0  0  0
  6 21  1  0  0  0  0
  7  8  1  0  0  0  0
  7 29  1  0  0  0  0
  8  9  2  0  0  0  0
  8 10  1  0  0  0  0
 10 11  1  0  0  0  0
 10 30  1  0  0  0  0
 11 20  1  0  0  0  0
 11 12  1  0  0  0  0
 11 31  1  0  0  0  0
 12 13  1  0  0  0  0
 12 32  1  0  0  0  0
 12 33  1  0  0  0  0
 13 14  1  0  0  0  0
 13 34  1  0  0  0  0
 13 35  1  0  0  0  0
 14 15  1  0  0  0  0
 15 16  1  0  0  0  0
 15 20  1  0  0  0  0
 15 36  1  0  0  0  0
 16 17  1  0  0  0  0
 16 37  1  0  0  0  0
 16 38  1  0  0  0  0
 17 18  1  0  0  0  0
 17 19  1  0  0  0  0
 17 39  1  0  0  0  0
 18 40  1  0  0  0  0
 18 41  1  0  0  0  0
 18 42  1  0  0  0  0
 19 43  1  0  0  0  0
 19 44  1  0  0  0  0
 19 45  1  0  0  0  0
 20 46  1  0  0  0  0
 20 47  1  0  0  0  0
 21 22  1  0  0  0  0
 21 23  2  0  0  0  0
 22 48  1  0  0  0  0
 22 49  1  0  0  0  0
 22 50  1  0  0  0  0
M  END
> <s_m_source_file>
AV-unprocessed.smi

> <i_m_source_file_index>
2826

> <i_lp_mmshare_version>
43012

> <i_f3d_flags>
0

> <s_epik_input>
W0NIM11PYzFbY0hdW2NIXWMoYyhuMSlbQ0gzXSlbTkhdQyg9TylbTkhdW0NAQEhdMltDSDJdW0NIMl1PW0NASF0oW0NIMl0yKVtDSDJdW0NIXShbQ0gzXSlbQ0gzXQ==

> <s_epik_cmdline>
J2VwaWtfcHl0aG9uJywgJy1waCcsICc3LjAnLCAnLXRuJywgJzgnLCAnLW1hJywgJzIwMCcsICctbWV0YWxfYmluZGluZycsICctaW1hZScsICc8aW5maWxlLm1hZT4nLCAnLW9tYWUnLCAnPG91dGZpbGUubWFlPic=

> <r_lp_tautomer_probability>
1

> <r_epik_Ionization_Penalty>
0.000249977

> <r_epik_Ionization_Penalty_Charging>
0

> <r_epik_Ionization_Penalty_Neutral>
0.000249977

> <r_epik_State_Penalty>
-0

> <r_epik_Charging_Adjusted_Penalty>
0

> <i_epik_Tot_Q>
0

> <i_epik_Tot_abs_Q>
0

> <r_epik_Metal_State_Penalty>
-0

> <b_epik_Metal_Only>
0

> <s_lp_Force_Field>
OPLS_2005

> <r_lp_Energy>
13.3691

> <b_lp_Chiralities_Consistent>
1

> <s_lp_Variant>
AV-unprocessed.smi:2826-2

> <Gold.Version>
5.8.1

> <Gold.Id.Protein>
6NUR|6NUR_protein|mol2

> <Gold.PLP.Fitness>
41.1938

> <Gold.PLP.PLP>
-35.9591

> <Gold.PLP.part.hbond>
-3.0000

> <Gold.PLP.part.metal>
0.0000

> <Gold.PLP.part.buried>
-5.6167

> <Gold.PLP.part.nonpolar>
-28.9675

> <Gold.PLP.part.repulsive>
0.4027

> <Gold.PLP.ligand.clash>
0.0000

> <Gold.PLP.ligand.torsion>
1.0478

> <Gold.PLP.Chemscore.Hbond>
2.4280

> <Gold.PLP.Chemscore.CHOScore>
0.0000

> <Gold.PLP.Chemscore.Metal>
0.0000

> <Gold.Chemscore.Hbonds>
donor molecule, donor type, donor heavy atom, donor atom, acceptor molecule, acceptor atom, score
      L1  H     7    29       P1  7948  0.93
      L1  H    10    30       P1  7948  1.00
      P1  H  7989  7998       L1    23  0.50

> <Gold.PLP.Chemscore.Internal.Correction>
0.0463

> <Gold.Rescore>
     Score         DG    S(hbond)    S(metal)    S(lipo)     H(rot)  DE(clash)    DE(int)     intcor
     16.01     -19.29       2.00        0.00      93.99       1.51       0.02       3.26       ----

> <Gold.Chemscore.Fitness>
16.0098

> <Gold.Chemscore.DG>
-19.2938

> <Gold.Chemscore.ZeroCoef>
-5.4800

> <Gold.Chemscore.Hbond>
1.9973

> <Gold.Chemscore.Metal>
0.0000

> <Gold.Chemscore.Lipo>
93.9946

> <Gold.Chemscore.Internal_Hbond>
0.0000

> <Gold.Chemscore.DEClash>
0.0195

> <Gold.Chemscore.DEInternal>
3.2645

> <Gold.Chemscore.Rot>
1.5057

> <Gold.Chemscore.Internal.Correction>
   9.000000E+99

> <Gold.Chemscore.Hbonds>
donor molecule, donor type, donor heavy atom, donor atom, acceptor molecule, acceptor atom, score
      L1  H     7    29       P1  7948  0.89
      L1  H    10    30       P1  7948  0.96
      P1  H  7989  7998       L1    23  0.01

> <Gold.Chemscore.Hbond.Weighted>
-6.6711

> <Gold.Chemscore.Metal.Weighted>
-0.0000

> <Gold.Chemscore.Lipo.Weighted>
-10.9974

> <Gold.Chemscore.Internal_Hbond.Weighted>
0.0000

> <Gold.Chemscore.DEClash.Weighted>
0.0195

> <Gold.Chemscore.DEInternal.Weighted>
3.2645

> <Gold.Chemscore.Rot.Weighted>
3.8547

> <Gold.Chemscore.Internal.Correction.Weighted>
   9.000000E+99

> <Gold.Protein.RotatedTorsions>
[ 6907 6896 6895 6894 ] final -101.91 input  -60.11 | X-H torsion
[ 7974 7965 7964 7962 ] final -106.93 input  175.53 | X-H torsion
[ 8008 7997 7996 7995 ] final  -27.02 input   59.86 | X-H torsion
[ 10167 10162 10161 10158 ] final   86.69 input  -65.29 | X-H torsion
[ 10718 10713 10712 10709 ] final   12.61 input   66.30 | X-H torsion
[ 10763 10752 10751 10750 ] final   63.62 input  -60.55 | X-H torsion
[ 11005 11000 10999 10996 ] final  -98.54 input  -57.11 | X-H torsion

> <Gold.Protein.ActiveResidues>
 VAL166  LYS551  ARG553  GLY616  TRP617  ASP618  TYR619  PRO620  LYS621  CYS622 
 ASP623  PHE694  ASN695  SER759  ASP760  ASP761  ALA762  ILE779  LEU786  VAL792 
 PHE793  MET794  SER795  GLU796  ALA797  LYS798  CYS799  TRP800  GLU811  SER814 

> <Gold.Protein.RotatedAtoms>
  150.7174  134.0663  159.3848 H   0  0  0  0  0  0  0  0  0  0  0  0  # atno 6907 bound_to 6896
  151.8644  135.0510  160.0482 H   0  0  0  0  0  0  0  0  0  0  0  0  # atno 6908 bound_to 6896
  152.2692  133.5331  159.5465 H   0  0  0  0  0  0  0  0  0  0  0  0  # atno 6909 bound_to 6896
  145.2117  140.9099  143.3311 H   0  0  0  0  0  0  0  0  0  0  0  0  # atno 7974 bound_to 7965
  154.4397  140.1884  156.0866 H   0  0  0  0  0  0  0  0  0  0  0  0  # atno 8008 bound_to 7997
  156.0398  140.3321  155.7205 H   0  0  0  0  0  0  0  0  0  0  0  0  # atno 8009 bound_to 7997
  155.5717  140.0613  157.2796 H   0  0  0  0  0  0  0  0  0  0  0  0  # atno 8010 bound_to 7997
  139.8849  144.6419  150.8802 H   0  0  0  0  0  0  0  0  0  0  0  0  # atno 10167 bound_to 10162
  157.0126  130.6123  149.5710 H   0  0  0  0  0  0  0  0  0  0  0  0  # atno 10718 bound_to 10713
  153.0025  135.5422  154.6381 H   0  0  0  0  0  0  0  0  0  0  0  0  # atno 10763 bound_to 10752
  154.5642  135.2836  155.0892 H   0  0  0  0  0  0  0  0  0  0  0  0  # atno 10764 bound_to 10752
  154.2082  135.6472  153.5160 H   0  0  0  0  0  0  0  0  0  0  0  0  # atno 10765 bound_to 10752
  141.1341  133.8253  157.0853 H   0  0  0  0  0  0  0  0  0  0  0  0  # atno 11005 bound_to 11000
  144.9850  139.3746  143.6243 LP  0  0  0  0  0  0  0  0  0  0  0  0  # atno 17320 bound_to 7965
  146.3396  139.9007  142.8795 LP  0  0  0  0  0  0  0  0  0  0  0  0  # atno 17321 bound_to 7965
  140.7737  143.3556  151.1928 LP  0  0  0  0  0  0  0  0  0  0  0  0  # atno 17342 bound_to 10162
  139.7162  143.9297  152.2967 LP  0  0  0  0  0  0  0  0  0  0  0  0  # atno 17343 bound_to 10162
  156.0130  130.5223  150.8049 LP  0  0  0  0  0  0  0  0  0  0  0  0  # atno 17370 bound_to 10713
  157.5309  131.0936  150.9956 LP  0  0  0  0  0  0  0  0  0  0  0  0  # atno 17371 bound_to 10713
  140.0426  134.9846  157.0990 LP  0  0  0  0  0  0  0  0  0  0  0  0  # atno 17394 bound_to 11000
  140.4112  134.1979  155.7163 LP  0  0  0  0  0  0  0  0  0  0  0  0  # atno 17395 bound_to 11000

$$$$
