AV-unprocessed.smi:2928|AV-procd|sdf|11238|dock3
  -GOLD-   2272016133D 1   1.00000     0.00000
 Structure written by MMmdl.
 56 59  0  0  0  0  0  0  0  0  3 V2000
  150.9529  142.3051  156.4547 C   0  0  0  0  0  0  0  0  0  0  0  0
  149.5747  142.0110  155.9949 N   0  3  2  0  0  0  0  0  0  0  0  0
  148.7160  141.3329  156.9947 C   0  0  1  0  0  0  0  0  0  0  0  0
  147.2366  141.4750  156.5691 C   0  0  0  0  0  0  0  0  0  0  0  0
  146.9534  141.0084  155.1285 C   0  0  0  0  0  0  0  0  0  0  0  0
  148.0499  141.4483  154.1388 C   0  0  0  0  0  0  0  0  0  0  0  0
  149.4878  141.3110  154.6913 C   0  0  2  0  0  0  0  0  0  0  0  0
  150.0208  139.8591  154.7898 C   0  0  0  0  0  0  0  0  0  0  0  0
  149.5148  139.0324  155.9979 C   0  0  2  0  0  0  0  0  0  0  0  0
  148.4291  138.1325  155.6141 N   0  0  0  0  0  0  0  0  0  0  0  0
  147.8112  137.2586  156.4222 C   0  0  0  0  0  0  0  0  0  0  0  0
  148.1018  137.1053  157.6082 O   0  0  0  0  0  0  0  0  0  0  0  0
  146.8328  136.6061  155.7734 N   0  0  0  0  0  0  0  0  0  0  0  0
  145.9047  135.6639  156.3009 C   0  0  0  0  0  0  0  0  0  0  0  0
  145.5092  135.6582  157.6629 C   0  0  0  0  0  0  0  0  0  0  0  0
  144.5993  134.6850  158.1216 C   0  0  0  0  0  0  0  0  0  0  0  0
  144.1073  133.7263  157.2169 C   0  0  0  0  0  0  0  0  0  0  0  0
  144.5157  133.7487  155.9309 N   0  3  0  0  0  0  0  0  0  0  0  0
  145.3876  134.6629  155.4394 C   0  0  0  0  0  0  0  0  0  0  0  0
  145.7483  134.5994  154.0824 N   0  0  0  0  0  0  0  0  0  0  0  0
  146.4683  133.4017  153.6841 C   0  0  0  0  0  0  0  0  0  0  0  0
  146.4026  133.3764  152.1548 C   0  0  0  0  0  0  0  0  0  0  0  0
  145.2045  134.2644  151.7958 C   0  0  0  0  0  0  0  0  0  0  0  0
  144.6504  134.7408  153.1409 C   0  0  0  0  0  0  0  0  0  0  0  0
  149.1875  139.8806  157.2571 C   0  0  0  0  0  0  0  0  0  0  0  0
  151.5225  141.3991  156.6602 H   0  0  0  0  0  0  0  0  0  0  0  0
  150.9292  142.9027  157.3661 H   0  0  0  0  0  0  0  0  0  0  0  0
  151.4914  142.8780  155.6993 H   0  0  0  0  0  0  0  0  0  0  0  0
  148.8137  141.8759  157.9360 H   0  0  0  0  0  0  0  0  0  0  0  0
  146.5862  140.9480  157.2679 H   0  0  0  0  0  0  0  0  0  0  0  0
  146.9615  142.5279  156.6444 H   0  0  0  0  0  0  0  0  0  0  0  0
  146.8258  139.9318  155.0995 H   0  0  0  0  0  0  0  0  0  0  0  0
  145.9907  141.4033  154.8020 H   0  0  0  0  0  0  0  0  0  0  0  0
  147.9478  140.9033  153.1998 H   0  0  0  0  0  0  0  0  0  0  0  0
  147.8810  142.4976  153.8928 H   0  0  0  0  0  0  0  0  0  0  0  0
  150.1332  141.8414  153.9892 H   0  0  0  0  0  0  0  0  0  0  0  0
  149.8410  139.3271  153.8544 H   0  0  0  0  0  0  0  0  0  0  0  0
  151.1072  139.9157  154.8661 H   0  0  0  0  0  0  0  0  0  0  0  0
  150.3377  138.3684  156.2705 H   0  0  0  0  0  0  0  0  0  0  0  0
  148.1194  138.1858  154.6547 H   0  0  0  0  0  0  0  0  0  0  0  0
  146.6623  136.8950  154.8213 H   0  0  0  0  0  0  0  0  0  0  0  0
  145.8984  136.3759  158.3688 H   0  0  0  0  0  0  0  0  0  0  0  0
  144.2879  134.6720  159.1560 H   0  0  0  0  0  0  0  0  0  0  0  0
  143.4099  132.9444  157.4813 H   0  0  0  0  0  0  0  0  0  0  0  0
  147.4982  133.4254  154.0417 H   0  0  0  0  0  0  0  0  0  0  0  0
  145.9892  132.5116  154.0942 H   0  0  0  0  0  0  0  0  0  0  0  0
  147.3152  133.7944  151.7282 H   0  0  0  0  0  0  0  0  0  0  0  0
  146.2943  132.3598  151.7756 H   0  0  0  0  0  0  0  0  0  0  0  0
  145.5382  135.1152  151.2003 H   0  0  0  0  0  0  0  0  0  0  0  0
  144.4500  133.7302  151.2176 H   0  0  0  0  0  0  0  0  0  0  0  0
  143.8062  134.1180  153.4401 H   0  0  0  0  0  0  0  0  0  0  0  0
  144.3055  135.7740  153.0903 H   0  0  0  0  0  0  0  0  0  0  0  0
  150.0985  139.9363  157.8541 H   0  0  0  0  0  0  0  0  0  0  0  0
  148.4726  139.3699  157.9031 H   0  0  0  0  0  0  0  0  0  0  0  0
  149.1553  142.9178  155.8457 H   0  0  0  0  0  0  0  0  0  0  0  0
  144.1485  133.0395  155.2961 H   0  0  0  0  0  0  0  0  0  0  0  0
  1  2  1  0  0  0  0
  1 26  1  0  0  0  0
  1 27  1  0  0  0  0
  1 28  1  0  0  0  0
  2  7  1  0  0  0  0
  2  3  1  0  0  0  0
  2 55  1  0  0  0  0
  3 25  1  0  0  0  0
  3  4  1  0  0  0  0
  3 29  1  0  0  0  0
  4  5  1  0  0  0  0
  4 30  1  0  0  0  0
  4 31  1  0  0  0  0
  5  6  1  0  0  0  0
  5 32  1  0  0  0  0
  5 33  1  0  0  0  0
  6  7  1  0  0  0  0
  6 34  1  0  0  0  0
  6 35  1  0  0  0  0
  7  8  1  0  0  0  0
  7 36  1  0  0  0  0
  8  9  1  0  0  0  0
  8 37  1  0  0  0  0
  8 38  1  0  0  0  0
  9 10  1  0  0  0  0
  9 25  1  0  0  0  0
  9 39  1  0  0  0  0
 10 11  1  0  0  0  0
 10 40  1  0  0  0  0
 11 12  2  0  0  0  0
 11 13  1  0  0  0  0
 13 14  1  0  0  0  0
 13 41  1  0  0  0  0
 14 19  1  0  0  0  0
 14 15  2  0  0  0  0
 15 16  1  0  0  0  0
 15 42  1  0  0  0  0
 16 17  2  0  0  0  0
 16 43  1  0  0  0  0
 17 18  1  0  0  0  0
 17 44  1  0  0  0  0
 18 19  2  0  0  0  0
 18 56  1  0  0  0  0
 19 20  1  0  0  0  0
 20 24  1  0  0  0  0
 20 21  1  0  0  0  0
 21 22  1  0  0  0  0
 21 45  1  0  0  0  0
 21 46  1  0  0  0  0
 22 23  1  0  0  0  0
 22 47  1  0  0  0  0
 22 48  1  0  0  0  0
 23 24  1  0  0  0  0
 23 49  1  0  0  0  0
 23 50  1  0  0  0  0
 24 51  1  0  0  0  0
 24 52  1  0  0  0  0
 25 53  1  0  0  0  0
 25 54  1  0  0  0  0
M  CHG  1   2   1
M  CHG  1  18   1
M  END
> <s_m_source_file>
AV-unprocessed.smi

> <i_m_source_file_index>
2928

> <i_lp_mmshare_version>
43012

> <i_f3d_flags>
0

> <s_epik_input>
W0NIMl0xW0NIMl1bQ0gyXVtDQEhdKE4oW0NIM10pW0NIXTEyKVtDSDJdW0NASF0oW0NIMl0yKVtOSF1DKD1PKVtOSF1jM1tjSF1bY0hdW2NIXW5jM040W0NIMl1bQ0gyXVtDSDJdW0NIMl00

> <s_epik_cmdline>
J2VwaWtfcHl0aG9uJywgJy1waCcsICc3LjAnLCAnLXRuJywgJzgnLCAnLW1hJywgJzIwMCcsICctbWV0YWxfYmluZGluZycsICctaW1hZScsICc8aW5maWxlLm1hZT4nLCAnLW9tYWUnLCAnPG91dGZpbGUubWFlPic=

> <r_lp_tautomer_probability>
0.999994

> <r_epik_Ionization_Penalty>
1.2404

> <r_epik_Ionization_Penalty_Charging>
1.24038

> <r_epik_Ionization_Penalty_Neutral>
1.86539e-05

> <r_epik_State_Penalty>
1.30821

> <r_epik_Charging_Adjusted_Penalty>
2.54859

> <i_epik_Tot_Q>
2

> <i_epik_Tot_abs_Q>
2

> <r_epik_Metal_State_Penalty>
1.3782

> <b_epik_Metal_Only>
0

> <s_lp_Force_Field>
OPLS_2005

> <r_lp_Energy>
76.0972

> <b_lp_Chiralities_Consistent>
1

> <s_lp_Variant>
AV-unprocessed.smi:2928-8

> <Gold.Version>
5.8.1

> <Gold.Id.Protein>
6NUR|6NUR_protein|mol2

> <Gold.PLP.Fitness>
37.0091

> <Gold.PLP.PLP>
-25.3520

> <Gold.PLP.part.hbond>
-2.0000

> <Gold.PLP.part.metal>
0.0000

> <Gold.PLP.part.buried>
-4.6348

> <Gold.PLP.part.nonpolar>
-18.6269

> <Gold.PLP.part.repulsive>
0.1719

> <Gold.PLP.ligand.clash>
0.0000

> <Gold.PLP.ligand.torsion>
0.2096

> <Gold.PLP.Chemscore.Hbond>
4.0000

> <Gold.PLP.Chemscore.CHOScore>
0.0000

> <Gold.PLP.Chemscore.Metal>
0.0000

> <Gold.Chemscore.Hbonds>
donor molecule, donor type, donor heavy atom, donor atom, acceptor molecule, acceptor atom, score
      L1  H     2    55       P1  8028  2.00
      L1  H    18    56       P1 10957  1.95

> <Gold.PLP.Chemscore.Internal.Correction>
0.0763

> <Gold.Rescore>
     Score         DG    S(hbond)    S(metal)    S(lipo)     H(rot)  DE(clash)    DE(int)     intcor
     14.80     -16.63       1.95        0.00      65.47       1.19       0.08       1.74       ----

> <Gold.Chemscore.Fitness>
14.8016

> <Gold.Chemscore.DG>
-16.6255

> <Gold.Chemscore.ZeroCoef>
-5.4800

> <Gold.Chemscore.Hbond>
1.9541

> <Gold.Chemscore.Metal>
0.0000

> <Gold.Chemscore.Lipo>
65.4682

> <Gold.Chemscore.Internal_Hbond>
0.0000

> <Gold.Chemscore.DEClash>
0.0843

> <Gold.Chemscore.DEInternal>
1.7396

> <Gold.Chemscore.Rot>
1.1879

> <Gold.Chemscore.Internal.Correction>
   9.000000E+99

> <Gold.Chemscore.Hbonds>
donor molecule, donor type, donor heavy atom, donor atom, acceptor molecule, acceptor atom, score
      L1  H     2    55       P1  8028  1.00
      L1  H    18    56       P1 10957  0.89

> <Gold.Chemscore.Hbond.Weighted>
-6.5268

> <Gold.Chemscore.Metal.Weighted>
-0.0000

> <Gold.Chemscore.Lipo.Weighted>
-7.6598

> <Gold.Chemscore.Internal_Hbond.Weighted>
0.0000

> <Gold.Chemscore.DEClash.Weighted>
0.0843

> <Gold.Chemscore.DEInternal.Weighted>
1.7396

> <Gold.Chemscore.Rot.Weighted>
3.0410

> <Gold.Chemscore.Internal.Correction.Weighted>
   9.000000E+99

> <Gold.Protein.RotatedTorsions>
[ 6907 6896 6895 6894 ] final  -50.01 input  -60.11 | X-H torsion
[ 7974 7965 7964 7962 ] final  -18.39 input  175.53 | X-H torsion
[ 8008 7997 7996 7995 ] final -100.19 input   59.86 | X-H torsion
[ 10167 10162 10161 10158 ] final   -2.34 input  -65.29 | X-H torsion
[ 10718 10713 10712 10709 ] final -138.45 input   66.30 | X-H torsion
[ 10763 10752 10751 10750 ] final -168.74 input  -60.55 | X-H torsion
[ 11005 11000 10999 10996 ] final   68.79 input  -57.11 | X-H torsion

> <Gold.Protein.ActiveResidues>
 VAL166  LYS551  ARG553  GLY616  TRP617  ASP618  TYR619  PRO620  LYS621  CYS622 
 ASP623  PHE694  ASN695  SER759  ASP760  ASP761  ALA762  ILE779  LEU786  VAL792 
 PHE793  MET794  SER795  GLU796  ALA797  LYS798  CYS799  TRP800  GLU811  SER814 

> <Gold.Protein.RotatedAtoms>
  150.8749  134.8130  159.7181 H   0  0  0  0  0  0  0  0  0  0  0  0  # atno 6907 bound_to 6896
  152.4739  134.4888  159.9698 H   0  0  0  0  0  0  0  0  0  0  0  0  # atno 6908 bound_to 6896
  151.4971  133.3474  159.2898 H   0  0  0  0  0  0  0  0  0  0  0  0  # atno 6909 bound_to 6896
  146.1895  140.3914  142.8463 H   0  0  0  0  0  0  0  0  0  0  0  0  # atno 7974 bound_to 7965
  154.8252  140.0442  157.1439 H   0  0  0  0  0  0  0  0  0  0  0  0  # atno 8008 bound_to 7997
  154.9214  140.3027  155.5194 H   0  0  0  0  0  0  0  0  0  0  0  0  # atno 8009 bound_to 7997
  156.2983  140.2340  156.4264 H   0  0  0  0  0  0  0  0  0  0  0  0  # atno 8010 bound_to 7997
  140.6847  143.6669  150.8218 H   0  0  0  0  0  0  0  0  0  0  0  0  # atno 10167 bound_to 10162
  156.2995  130.7420  151.1468 H   0  0  0  0  0  0  0  0  0  0  0  0  # atno 10718 bound_to 10713
  154.6597  135.2923  154.9882 H   0  0  0  0  0  0  0  0  0  0  0  0  # atno 10763 bound_to 10752
  154.0946  135.6585  153.4862 H   0  0  0  0  0  0  0  0  0  0  0  0  # atno 10764 bound_to 10752
  153.0423  135.5228  154.7542 H   0  0  0  0  0  0  0  0  0  0  0  0  # atno 10765 bound_to 10752
  139.9691  134.6930  156.0484 H   0  0  0  0  0  0  0  0  0  0  0  0  # atno 11005 bound_to 11000
  144.8459  140.6928  143.6199 LP  0  0  0  0  0  0  0  0  0  0  0  0  # atno 17320 bound_to 7965
  145.3838  139.1631  143.4266 LP  0  0  0  0  0  0  0  0  0  0  0  0  # atno 17321 bound_to 7965
  140.0374  143.5381  152.2733 LP  0  0  0  0  0  0  0  0  0  0  0  0  # atno 17342 bound_to 10162
  139.6196  144.7626  151.2770 LP  0  0  0  0  0  0  0  0  0  0  0  0  # atno 17343 bound_to 10162
  157.7364  131.0562  150.5415 LP  0  0  0  0  0  0  0  0  0  0  0  0  # atno 17370 bound_to 10713
  156.5541  130.4239  149.6093 LP  0  0  0  0  0  0  0  0  0  0  0  0  # atno 17371 bound_to 10713
  141.1371  133.6572  156.3624 LP  0  0  0  0  0  0  0  0  0  0  0  0  # atno 17394 bound_to 11000
  140.5332  134.6192  157.5356 LP  0  0  0  0  0  0  0  0  0  0  0  0  # atno 17395 bound_to 11000

$$$$
