AV-unprocessed.smi:1006|AV-procd|sdf|4391|dock8
  -GOLD-   22720 2323D 1   1.00000     0.00000
 Structure written by MMmdl.
 45 47  0  0  0  0  0  0  0  0  1 V2000
  148.1411  138.1505  158.2469 C   0  0  0  0  0  0  0  0  0  0  0  0
  147.0128  138.8963  157.5661 C   0  0  0  0  0  0  0  0  0  0  0  0
  145.6620  138.5571  157.7943 C   0  0  0  0  0  0  0  0  0  0  0  0
  144.7014  139.3264  157.1043 C   0  0  0  0  0  0  0  0  0  0  0  0
  143.3408  139.0733  157.2592 N   0  0  0  0  0  0  0  0  0  0  0  0
  145.0554  140.3303  156.2730 N   0  0  0  0  0  0  0  0  0  0  0  0
  146.3637  140.5599  156.1372 C   0  0  0  0  0  0  0  0  0  0  0  0
  146.7931  141.8905  155.0241 S   0  0  0  0  0  0  0  0  0  0  0  0
  148.0156  141.1036  153.9303 C   0  0  0  0  0  0  0  0  0  0  0  0
  149.2522  140.5875  154.6889 C   0  0  1  0  0  0  0  0  0  0  0  0
  150.0712  139.8508  153.8036 O   0  0  0  0  0  0  0  0  0  0  0  0
  150.1118  141.7126  155.3008 C   0  0  0  0  0  0  0  0  0  0  0  0
  151.0235  141.2318  156.3236 N   0  0  0  0  0  0  0  0  0  0  0  0
  151.6966  140.0655  156.3247 C   0  0  0  0  0  0  0  0  0  0  0  0
  152.4758  139.8132  157.3726 N   0  0  0  0  0  0  0  0  0  0  0  0
  152.2857  140.9483  158.1420 C   0  0  0  0  0  0  0  0  0  0  0  0
  152.8251  141.3070  159.3968 C   0  0  0  0  0  0  0  0  0  0  0  0
  152.4810  142.5325  160.0106 C   0  0  0  0  0  0  0  0  0  0  0  0
  153.0832  142.8767  161.3615 C   0  0  0  0  0  0  0  0  0  0  0  0
  151.5833  143.4219  159.3674 C   0  0  0  0  0  0  0  0  0  0  0  0
  151.1943  144.7417  160.0092 C   0  0  0  0  0  0  0  0  0  0  0  0
  151.0388  143.0812  158.1119 C   0  0  0  0  0  0  0  0  0  0  0  0
  151.3869  141.8577  157.5121 C   0  0  0  0  0  0  0  0  0  0  0  0
  147.3620  139.9030  156.7363 N   0  0  0  0  0  0  0  0  0  0  0  0
  148.3344  138.5774  159.2309 H   0  0  0  0  0  0  0  0  0  0  0  0
  149.0590  138.2083  157.6605 H   0  0  0  0  0  0  0  0  0  0  0  0
  147.8865  137.0980  158.3726 H   0  0  0  0  0  0  0  0  0  0  0  0
  145.3814  137.7539  158.4599 H   0  0  0  0  0  0  0  0  0  0  0  0
  143.0042  138.3385  157.8642 H   0  0  0  0  0  0  0  0  0  0  0  0
  142.6470  139.6184  156.7681 H   0  0  0  0  0  0  0  0  0  0  0  0
  147.5393  140.2857  153.3883 H   0  0  0  0  0  0  0  0  0  0  0  0
  148.3184  141.8491  153.1954 H   0  0  0  0  0  0  0  0  0  0  0  0
  148.9272  139.9150  155.4837 H   0  0  0  0  0  0  0  0  0  0  0  0
  149.6319  139.7945  152.9685 H   0  0  0  0  0  0  0  0  0  0  0  0
  150.6968  142.2068  154.5237 H   0  0  0  0  0  0  0  0  0  0  0  0
  149.4745  142.4793  155.7433 H   0  0  0  0  0  0  0  0  0  0  0  0
  151.6053  139.3598  155.5118 H   0  0  0  0  0  0  0  0  0  0  0  0
  153.5066  140.6279  159.8877 H   0  0  0  0  0  0  0  0  0  0  0  0
  153.6244  143.8219  161.3100 H   0  0  0  0  0  0  0  0  0  0  0  0
  153.7838  142.1093  161.6927 H   0  0  0  0  0  0  0  0  0  0  0  0
  152.3011  142.9651  162.1157 H   0  0  0  0  0  0  0  0  0  0  0  0
  150.4464  145.2673  159.4148 H   0  0  0  0  0  0  0  0  0  0  0  0
  152.0656  145.3901  160.1037 H   0  0  0  0  0  0  0  0  0  0  0  0
  150.7748  144.5774  161.0018 H   0  0  0  0  0  0  0  0  0  0  0  0
  150.3517  143.7480  157.6124 H   0  0  0  0  0  0  0  0  0  0  0  0
  1  2  1  0  0  0  0
  1 25  1  0  0  0  0
  1 26  1  0  0  0  0
  1 27  1  0  0  0  0
  2 24  1  0  0  0  0
  2  3  2  0  0  0  0
  3  4  1  0  0  0  0
  3 28  1  0  0  0  0
  4  5  1  0  0  0  0
  4  6  2  0  0  0  0
  5 29  1  0  0  0  0
  5 30  1  0  0  0  0
  6  7  1  0  0  0  0
  7  8  1  0  0  0  0
  7 24  2  0  0  0  0
  8  9  1  0  0  0  0
  9 10  1  0  0  0  0
  9 31  1  0  0  0  0
  9 32  1  0  0  0  0
 10 11  1  0  0  0  0
 10 12  1  0  0  0  0
 10 33  1  0  0  0  0
 11 34  1  0  0  0  0
 12 13  1  0  0  0  0
 12 35  1  0  0  0  0
 12 36  1  0  0  0  0
 13 23  1  0  0  0  0
 13 14  1  0  0  0  0
 14 15  2  0  0  0  0
 14 37  1  0  0  0  0
 15 16  1  0  0  0  0
 16 23  2  0  0  0  0
 16 17  1  0  0  0  0
 17 18  2  0  0  0  0
 17 38  1  0  0  0  0
 18 19  1  0  0  0  0
 18 20  1  0  0  0  0
 19 39  1  0  0  0  0
 19 40  1  0  0  0  0
 19 41  1  0  0  0  0
 20 21  1  0  0  0  0
 20 22  2  0  0  0  0
 21 42  1  0  0  0  0
 21 43  1  0  0  0  0
 21 44  1  0  0  0  0
 22 23  1  0  0  0  0
 22 45  1  0  0  0  0
M  END
> <s_m_source_file>
AV-unprocessed.smi

> <i_m_source_file_index>
1006

> <i_lp_mmshare_version>
43012

> <i_f3d_flags>
0

> <s_epik_input>
W0NIM11jMVtjSF1jKFtOSDJdKW5jKG4xKVNbQ0gyXVtDQEhdKFtPSF0pW0NIMl1uKFtjSF1uMiljKGMyMylbY0hdYyhbQ0gzXSljKFtjSF0zKVtDSDNd

> <s_epik_cmdline>
J2VwaWtfcHl0aG9uJywgJy1waCcsICc3LjAnLCAnLXRuJywgJzgnLCAnLW1hJywgJzIwMCcsICctbWV0YWxfYmluZGluZycsICctaW1hZScsICc8aW5maWxlLm1hZT4nLCAnLW9tYWUnLCAnPG91dGZpbGUubWFlPic=

> <r_lp_tautomer_probability>
1

> <r_epik_Ionization_Penalty>
0.490208

> <r_epik_Ionization_Penalty_Charging>
0

> <r_epik_Ionization_Penalty_Neutral>
0.490208

> <r_epik_State_Penalty>
0.473203

> <r_epik_Charging_Adjusted_Penalty>
0.473203

> <i_epik_Tot_Q>
0

> <i_epik_Tot_abs_Q>
0

> <r_epik_Metal_State_Penalty>
0.354099

> <b_epik_Metal_Only>
0

> <s_lp_Force_Field>
OPLS_2005

> <r_lp_Energy>
2.6746

> <b_lp_Chiralities_Consistent>
1

> <s_lp_Variant>
AV-unprocessed.smi:1006-2

> <Gold.Version>
5.8.1

> <Gold.Id.Protein>
6NUR|6NUR_protein|mol2

> <Gold.PLP.Fitness>
49.3755

> <Gold.PLP.PLP>
-41.7956

> <Gold.PLP.part.hbond>
-3.0000

> <Gold.PLP.part.metal>
0.0000

> <Gold.PLP.part.buried>
-5.1254

> <Gold.PLP.part.nonpolar>
-33.1805

> <Gold.PLP.part.repulsive>
0.0489

> <Gold.PLP.ligand.clash>
0.0000

> <Gold.PLP.ligand.torsion>
0.5527

> <Gold.PLP.Chemscore.Hbond>
2.8800

> <Gold.PLP.Chemscore.CHOScore>
0.0000

> <Gold.PLP.Chemscore.Metal>
0.0000

> <Gold.Chemscore.Hbonds>
donor molecule, donor type, donor heavy atom, donor atom, acceptor molecule, acceptor atom, score
      L1  H    11    34       P1  7957  1.00
      P1  H  7989  7998       L1    11  0.88
      P1  H  7997  8010       L1    15  0.94

> <Gold.PLP.Chemscore.Internal.Correction>
0.0453

> <Gold.Rescore>
     Score         DG    S(hbond)    S(metal)    S(lipo)     H(rot)  DE(clash)    DE(int)     intcor
     16.38     -18.15       2.32        0.00     103.69       2.82       0.18       1.58       ----

> <Gold.Chemscore.Fitness>
16.3818

> <Gold.Chemscore.DG>
-18.1454

> <Gold.Chemscore.ZeroCoef>
-5.4800

> <Gold.Chemscore.Hbond>
2.3220

> <Gold.Chemscore.Metal>
0.0000

> <Gold.Chemscore.Lipo>
103.6862

> <Gold.Chemscore.Internal_Hbond>
0.0000

> <Gold.Chemscore.DEClash>
0.1802

> <Gold.Chemscore.DEInternal>
1.5834

> <Gold.Chemscore.Rot>
2.8209

> <Gold.Chemscore.Internal.Correction>
   9.000000E+99

> <Gold.Chemscore.Hbonds>
donor molecule, donor type, donor heavy atom, donor atom, acceptor molecule, acceptor atom, score
      L1  H    11    34       P1  7957  0.95
      P1  H  7989  7998       L1    11  0.28
      P1  H  7997  8010       L1    15  0.15

> <Gold.Chemscore.Hbond.Weighted>
-7.7556

> <Gold.Chemscore.Metal.Weighted>
-0.0000

> <Gold.Chemscore.Lipo.Weighted>
-12.1313

> <Gold.Chemscore.Internal_Hbond.Weighted>
0.0000

> <Gold.Chemscore.DEClash.Weighted>
0.1802

> <Gold.Chemscore.DEInternal.Weighted>
1.5834

> <Gold.Chemscore.Rot.Weighted>
7.2215

> <Gold.Chemscore.Internal.Correction.Weighted>
   9.000000E+99

> <Gold.Protein.RotatedTorsions>
[ 6907 6896 6895 6894 ] final    6.74 input  -60.11 | X-H torsion
[ 7974 7965 7964 7962 ] final -167.03 input  175.53 | X-H torsion
[ 8008 7997 7996 7995 ] final   54.20 input   59.86 | X-H torsion
[ 10167 10162 10161 10158 ] final   81.19 input  -65.29 | X-H torsion
[ 10718 10713 10712 10709 ] final  -30.63 input   66.30 | X-H torsion
[ 10763 10752 10751 10750 ] final  -16.92 input  -60.55 | X-H torsion
[ 11005 11000 10999 10996 ] final -139.50 input  -57.11 | X-H torsion

> <Gold.Protein.ActiveResidues>
 VAL166  LYS551  ARG553  GLY616  TRP617  ASP618  TYR619  PRO620  LYS621  CYS622 
 ASP623  PHE694  ASN695  SER759  ASP760  ASP761  ALA762  ILE779  LEU786  VAL792 
 PHE793  MET794  SER795  GLU796  ALA797  LYS798  CYS799  TRP800  GLU811  SER814 

> <Gold.Protein.RotatedAtoms>
  151.6786  135.0965  160.0211 H   0  0  0  0  0  0  0  0  0  0  0  0  # atno 6907 bound_to 6896
  152.3849  133.6593  159.6199 H   0  0  0  0  0  0  0  0  0  0  0  0  # atno 6908 bound_to 6896
  150.7777  133.8969  159.3371 H   0  0  0  0  0  0  0  0  0  0  0  0  # atno 6909 bound_to 6896
  144.7232  140.2578  143.6269 H   0  0  0  0  0  0  0  0  0  0  0  0  # atno 7974 bound_to 7965
  155.4809  140.3468  155.4339 H   0  0  0  0  0  0  0  0  0  0  0  0  # atno 8008 bound_to 7997
  156.1040  140.1443  156.9458 H   0  0  0  0  0  0  0  0  0  0  0  0  # atno 8009 bound_to 7997
  154.4712  140.0900  156.7127 H   0  0  0  0  0  0  0  0  0  0  0  0  # atno 8010 bound_to 7997
  139.9418  144.6084  150.8244 H   0  0  0  0  0  0  0  0  0  0  0  0  # atno 10167 bound_to 10162
  156.3973  130.4384  149.7349 H   0  0  0  0  0  0  0  0  0  0  0  0  # atno 10718 bound_to 10713
  153.5660  135.7008  153.5526 H   0  0  0  0  0  0  0  0  0  0  0  0  # atno 10763 bound_to 10752
  153.3387  135.4027  155.1554 H   0  0  0  0  0  0  0  0  0  0  0  0  # atno 10764 bound_to 10752
  154.8640  135.3737  154.5180 H   0  0  0  0  0  0  0  0  0  0  0  0  # atno 10765 bound_to 10752
  140.8514  134.2282  157.4758 H   0  0  0  0  0  0  0  0  0  0  0  0  # atno 11005 bound_to 11000
  145.8165  139.2025  143.1963 LP  0  0  0  0  0  0  0  0  0  0  0  0  # atno 17320 bound_to 7965
  146.0551  140.8029  142.9762 LP  0  0  0  0  0  0  0  0  0  0  0  0  # atno 17321 bound_to 7965
  140.7608  143.3161  151.2731 LP  0  0  0  0  0  0  0  0  0  0  0  0  # atno 17342 bound_to 10162
  139.6698  144.0040  152.2746 LP  0  0  0  0  0  0  0  0  0  0  0  0  # atno 17343 bound_to 10162
  156.4378  130.7846  151.2867 LP  0  0  0  0  0  0  0  0  0  0  0  0  # atno 17370 bound_to 10713
  157.7502  131.0134  150.3423 LP  0  0  0  0  0  0  0  0  0  0  0  0  # atno 17371 bound_to 10713
  139.8704  134.9685  156.4633 LP  0  0  0  0  0  0  0  0  0  0  0  0  # atno 17394 bound_to 11000
  140.8786  133.7934  155.9442 LP  0  0  0  0  0  0  0  0  0  0  0  0  # atno 17395 bound_to 11000

$$$$
