AV-unprocessed.smi:99|AV-procd|sdf|876|dock5
  -GOLD-   2262017343D 1   1.00000     0.00000
 Structure written by MMmdl.
 53 56  0  0  0  0  0  0  0  0  1 V2000
  152.4954  140.2973  159.5227 O   0  0  0  0  0  0  0  0  0  0  0  0
  152.0159  141.1734  158.7999 C   0  0  0  0  0  0  0  0  0  0  0  0
  151.5503  140.9408  157.5568 O   0  0  0  0  0  0  0  0  0  0  0  0
  151.2353  139.6179  157.1555 C   0  0  0  0  0  0  0  0  0  0  0  0
  149.9559  139.1571  157.8713 C   0  0  1  0  0  0  0  0  0  0  0  0
  148.8285  139.7661  157.2537 O   0  0  0  0  0  0  0  0  0  0  0  0
  148.3580  138.9624  156.2177 C   0  0  2  0  0  0  0  0  0  0  0  0
  146.8444  139.0470  156.2406 N   0  0  0  0  0  0  0  0  0  0  0  0
  146.1349  138.9201  157.4296 C   0  0  0  0  0  0  0  0  0  0  0  0
  144.7928  139.0739  157.5173 C   0  0  0  0  0  0  0  0  0  0  0  0
  144.0096  139.4172  156.3363 C   0  0  0  0  0  0  0  0  0  0  0  0
  142.7894  139.5630  156.3113 O   0  0  0  0  0  0  0  0  0  0  0  0
  144.7646  139.5909  155.1735 N   0  0  0  0  0  0  0  0  0  0  0  0
  146.1500  139.4488  155.0751 C   0  0  0  0  0  0  0  0  0  0  0  0
  146.7066  139.6673  153.9996 O   0  0  0  0  0  0  0  0  0  0  0  0
  148.8984  137.5330  156.4249 C   0  0  1  0  0  0  0  0  0  0  0  0
  149.7507  137.1233  155.3737 O   0  0  0  0  0  0  0  0  0  0  0  0
  149.7099  137.6528  157.7141 C   0  0  2  0  0  0  0  0  0  0  0  0
  148.9705  137.1877  158.8365 O   0  0  0  0  0  0  0  0  0  0  0  0
  148.8047  135.8671  159.0626 C   0  0  0  0  0  0  0  0  0  0  0  0
  149.1529  134.9890  158.2711 O   0  0  0  0  0  0  0  0  0  0  0  0
  148.1447  135.5850  160.3693 C   0  0  0  0  0  0  0  0  0  0  0  0
  147.8877  134.2449  160.7416 C   0  0  0  0  0  0  0  0  0  0  0  0
  147.2625  133.9490  161.9685 C   0  0  0  0  0  0  0  0  0  0  0  0
  146.8858  134.9895  162.8377 C   0  0  0  0  0  0  0  0  0  0  0  0
  147.1345  136.3269  162.4780 C   0  0  0  0  0  0  0  0  0  0  0  0
  147.7599  136.6249  161.2517 C   0  0  0  0  0  0  0  0  0  0  0  0
  151.8901  142.6015  159.2108 C   0  0  0  0  0  0  0  0  0  0  0  0
  152.0916  142.9525  160.5662 C   0  0  0  0  0  0  0  0  0  0  0  0
  151.9794  144.2927  160.9847 C   0  0  0  0  0  0  0  0  0  0  0  0
  151.6639  145.2984  160.0528 C   0  0  0  0  0  0  0  0  0  0  0  0
  151.4618  144.9626  158.7015 C   0  0  0  0  0  0  0  0  0  0  0  0
  151.5738  143.6227  158.2811 C   0  0  0  0  0  0  0  0  0  0  0  0
  144.2670  139.8547  154.3354 H   0  0  0  0  0  0  0  0  0  0  0  0
  151.1175  139.5646  156.0724 H   0  0  0  0  0  0  0  0  0  0  0  0
  152.0651  138.9638  157.4268 H   0  0  0  0  0  0  0  0  0  0  0  0
  150.0120  139.4369  158.9244 H   0  0  0  0  0  0  0  0  0  0  0  0
  148.6968  139.3716  155.2647 H   0  0  0  0  0  0  0  0  0  0  0  0
  146.6599  138.6968  158.3441 H   0  0  0  0  0  0  0  0  0  0  0  0
  144.2968  138.9512  158.4696 H   0  0  0  0  0  0  0  0  0  0  0  0
  148.0963  136.7983  156.4936 H   0  0  0  0  0  0  0  0  0  0  0  0
  150.1452  137.8902  154.9876 H   0  0  0  0  0  0  0  0  0  0  0  0
  150.6572  137.1130  157.6601 H   0  0  0  0  0  0  0  0  0  0  0  0
  148.1680  133.4291  160.0906 H   0  0  0  0  0  0  0  0  0  0  0  0
  147.0722  132.9218  162.2429 H   0  0  0  0  0  0  0  0  0  0  0  0
  146.4067  134.7623  163.7787 H   0  0  0  0  0  0  0  0  0  0  0  0
  146.8448  137.1266  163.1438 H   0  0  0  0  0  0  0  0  0  0  0  0
  147.9340  137.6627  161.0064 H   0  0  0  0  0  0  0  0  0  0  0  0
  152.3340  142.1974  161.3001 H   0  0  0  0  0  0  0  0  0  0  0  0
  152.1352  144.5486  162.0224 H   0  0  0  0  0  0  0  0  0  0  0  0
  151.5767  146.3259  160.3745 H   0  0  0  0  0  0  0  0  0  0  0  0
  151.2197  145.7338  157.9851 H   0  0  0  0  0  0  0  0  0  0  0  0
  151.4121  143.3994  157.2366 H   0  0  0  0  0  0  0  0  0  0  0  0
  1  2  2  0  0  0  0
  2  3  1  0  0  0  0
  2 28  1  0  0  0  0
  3  4  1  0  0  0  0
  4  5  1  0  0  0  0
  4 35  1  0  0  0  0
  4 36  1  0  0  0  0
  5 18  1  0  0  0  0
  5  6  1  0  0  0  0
  5 37  1  0  0  0  0
  6  7  1  0  0  0  0
  7  8  1  0  0  0  0
  7 16  1  0  0  0  0
  7 38  1  0  0  0  0
  8 14  1  0  0  0  0
  8  9  1  0  0  0  0
  9 10  2  0  0  0  0
  9 39  1  0  0  0  0
 10 11  1  0  0  0  0
 10 40  1  0  0  0  0
 11 12  2  0  0  0  0
 11 13  1  0  0  0  0
 13 34  1  0  0  0  0
 13 14  1  0  0  0  0
 14 15  2  0  0  0  0
 16 17  1  0  0  0  0
 16 18  1  0  0  0  0
 16 41  1  0  0  0  0
 17 42  1  0  0  0  0
 18 19  1  0  0  0  0
 18 43  1  0  0  0  0
 19 20  1  0  0  0  0
 20 21  2  0  0  0  0
 20 22  1  0  0  0  0
 22 27  1  0  0  0  0
 22 23  2  0  0  0  0
 23 24  1  0  0  0  0
 23 44  1  0  0  0  0
 24 25  2  0  0  0  0
 24 45  1  0  0  0  0
 25 26  1  0  0  0  0
 25 46  1  0  0  0  0
 26 27  2  0  0  0  0
 26 47  1  0  0  0  0
 27 48  1  0  0  0  0
 28 33  1  0  0  0  0
 28 29  2  0  0  0  0
 29 30  1  0  0  0  0
 29 49  1  0  0  0  0
 30 31  2  0  0  0  0
 30 50  1  0  0  0  0
 31 32  1  0  0  0  0
 31 51  1  0  0  0  0
 32 33  2  0  0  0  0
 32 52  1  0  0  0  0
 33 53  1  0  0  0  0
M  END
> <s_m_source_file>
AV-unprocessed.smi

> <i_m_source_file_index>
99

> <i_lp_mmshare_version>
43012

> <i_f3d_flags>
0

> <s_epik_input>
W2NIXTFbY0hdW2NIXVtjSF1bY0hdYzFDKD1PKU9bQ0gyXVtDQEBIXTJPW0NAQEhdKG4zW2NIXVtjSF1jKD1PKVtuSF1jMz1PKVtDQEBIXShbT0hdKVtDQEhdMk9DKD1PKWM0W2NIXVtjSF1bY0hdW2NIXVtjSF00

> <s_epik_cmdline>
J2VwaWtfcHl0aG9uJywgJy1waCcsICc3LjAnLCAnLXRuJywgJzgnLCAnLW1hJywgJzIwMCcsICctbWV0YWxfYmluZGluZycsICctaW1hZScsICc8aW5maWxlLm1hZT4nLCAnLW9tYWUnLCAnPG91dGZpbGUubWFlPic=

> <r_lp_tautomer_probability>
1

> <r_epik_Ionization_Penalty>
0.00454555

> <r_epik_Ionization_Penalty_Charging>
0.0045191

> <r_epik_Ionization_Penalty_Neutral>
2.64449e-05

> <r_epik_State_Penalty>
-0

> <r_epik_Charging_Adjusted_Penalty>
0.0045191

> <i_epik_Tot_Q>
0

> <i_epik_Tot_abs_Q>
0

> <r_epik_Metal_State_Penalty>
1.27877

> <b_epik_Metal_Only>
0

> <s_epik_Chemistry_Notes>
This compound has an ester and may undergo hydrolysis at high or low pH. This compound contains an acetal/aminal-like group ( X-CH(R)-Y where X, Y are N, S, or O) that may be acid/base labile, releasing an aldehyde.

> <s_lp_Force_Field>
OPLS_2005

> <r_lp_Energy>
32.4523

> <b_lp_Chiralities_Consistent>
1

> <s_lp_Variant>
AV-unprocessed.smi:99-12

> <Gold.Version>
5.8.1

> <Gold.Id.Protein>
6NUR|6NUR_protein|mol2

> <Gold.PLP.Fitness>
54.9815

> <Gold.PLP.PLP>
-50.0375

> <Gold.PLP.part.hbond>
-2.0000

> <Gold.PLP.part.metal>
0.0000

> <Gold.PLP.part.buried>
-6.4564

> <Gold.PLP.part.nonpolar>
-42.2397

> <Gold.PLP.part.repulsive>
0.2220

> <Gold.PLP.ligand.clash>
0.0000

> <Gold.PLP.ligand.torsion>
0.7635

> <Gold.PLP.Chemscore.Hbond>
2.0000

> <Gold.PLP.Chemscore.CHOScore>
0.0000

> <Gold.PLP.Chemscore.Metal>
0.0000

> <Gold.Chemscore.Hbonds>
donor molecule, donor type, donor heavy atom, donor atom, acceptor molecule, acceptor atom, score
      L1  H    13    34       P1 10175  0.99
      P1  H  6896  6909       L1    21  0.89

> <Gold.PLP.Chemscore.Internal.Correction>
0.4710

> <Gold.Rescore>
     Score         DG    S(hbond)    S(metal)    S(lipo)     H(rot)  DE(clash)    DE(int)     intcor
     18.09     -18.85       1.90        0.00     129.93       3.19       0.03       0.73       ----

> <Gold.Chemscore.Fitness>
18.0918

> <Gold.Chemscore.DG>
-18.8542

> <Gold.Chemscore.ZeroCoef>
-5.4800

> <Gold.Chemscore.Hbond>
1.8981

> <Gold.Chemscore.Metal>
0.0000

> <Gold.Chemscore.Lipo>
129.9294

> <Gold.Chemscore.Internal_Hbond>
0.0000

> <Gold.Chemscore.DEClash>
0.0319

> <Gold.Chemscore.DEInternal>
0.7304

> <Gold.Chemscore.Rot>
3.1903

> <Gold.Chemscore.Internal.Correction>
   9.000000E+99

> <Gold.Chemscore.Hbonds>
donor molecule, donor type, donor heavy atom, donor atom, acceptor molecule, acceptor atom, score
      L1  H    13    34       P1 10175  0.92
      P1  H  6896  6909       L1    21  0.25

> <Gold.Chemscore.Hbond.Weighted>
-6.3395

> <Gold.Chemscore.Metal.Weighted>
-0.0000

> <Gold.Chemscore.Lipo.Weighted>
-15.2017

> <Gold.Chemscore.Internal_Hbond.Weighted>
0.0000

> <Gold.Chemscore.DEClash.Weighted>
0.0319

> <Gold.Chemscore.DEInternal.Weighted>
0.7304

> <Gold.Chemscore.Rot.Weighted>
8.1671

> <Gold.Chemscore.Internal.Correction.Weighted>
   9.000000E+99

> <Gold.Protein.RotatedTorsions>
[ 6907 6896 6895 6894 ] final   16.50 input  -60.11 | X-H torsion
[ 7974 7965 7964 7962 ] final  -60.67 input  175.53 | X-H torsion
[ 8008 7997 7996 7995 ] final  105.31 input   59.86 | X-H torsion
[ 10167 10162 10161 10158 ] final  -29.72 input  -65.29 | X-H torsion
[ 10718 10713 10712 10709 ] final   78.24 input   66.30 | X-H torsion
[ 10763 10752 10751 10750 ] final  130.38 input  -60.55 | X-H torsion
[ 11005 11000 10999 10996 ] final   63.85 input  -57.11 | X-H torsion

> <Gold.Protein.ActiveResidues>
 VAL166  LYS551  ARG553  GLY616  TRP617  ASP618  TYR619  PRO620  LYS621  CYS622 
 ASP623  PHE694  ASN695  SER759  ASP760  ASP761  ALA762  ILE779  LEU786  VAL792 
 PHE793  MET794  SER795  GLU796  ALA797  LYS798  CYS799  TRP800  GLU811  SER814 

> <Gold.Protein.RotatedAtoms>
  151.8348  135.0609  160.0440 H   0  0  0  0  0  0  0  0  0  0  0  0  # atno 6907 bound_to 6896
  152.2853  133.5505  159.5532 H   0  0  0  0  0  0  0  0  0  0  0  0  # atno 6908 bound_to 6896
  150.7207  134.0422  159.3812 H   0  0  0  0  0  0  0  0  0  0  0  0  # atno 6909 bound_to 6896
  145.8128  140.8588  143.0173 H   0  0  0  0  0  0  0  0  0  0  0  0  # atno 7974 bound_to 7965
  156.1648  140.3133  155.8869 H   0  0  0  0  0  0  0  0  0  0  0  0  # atno 8008 bound_to 7997
  155.3709  140.0482  157.3062 H   0  0  0  0  0  0  0  0  0  0  0  0  # atno 8009 bound_to 7997
  154.5181  140.2188  155.9038 H   0  0  0  0  0  0  0  0  0  0  0  0  # atno 8010 bound_to 7997
  140.7257  143.3906  151.1437 H   0  0  0  0  0  0  0  0  0  0  0  0  # atno 10167 bound_to 10162
  157.6738  130.9859  150.1758 H   0  0  0  0  0  0  0  0  0  0  0  0  # atno 10718 bound_to 10713
  153.7571  135.3201  155.3331 H   0  0  0  0  0  0  0  0  0  0  0  0  # atno 10763 bound_to 10752
  154.8243  135.4581  154.0874 H   0  0  0  0  0  0  0  0  0  0  0  0  # atno 10764 bound_to 10752
  153.2094  135.6933  153.8215 H   0  0  0  0  0  0  0  0  0  0  0  0  # atno 10765 bound_to 10752
  139.9997  134.6461  155.9951 H   0  0  0  0  0  0  0  0  0  0  0  0  # atno 11005 bound_to 11000
  144.6755  140.0420  143.7480 LP  0  0  0  0  0  0  0  0  0  0  0  0  # atno 17320 bound_to 7965
  145.9759  139.2904  143.1071 LP  0  0  0  0  0  0  0  0  0  0  0  0  # atno 17321 bound_to 7965
  139.7510  143.8778  152.3076 LP  0  0  0  0  0  0  0  0  0  0  0  0  # atno 17342 bound_to 10162
  139.8632  144.7106  150.9075 LP  0  0  0  0  0  0  0  0  0  0  0  0  # atno 17343 bound_to 10162
  156.2502  130.3700  149.8241 LP  0  0  0  0  0  0  0  0  0  0  0  0  # atno 17370 bound_to 10713
  156.6016  130.8549  151.3433 LP  0  0  0  0  0  0  0  0  0  0  0  0  # atno 17371 bound_to 10713
  141.1632  133.6538  156.4390 LP  0  0  0  0  0  0  0  0  0  0  0  0  # atno 17394 bound_to 11000
  140.4751  134.6717  157.5146 LP  0  0  0  0  0  0  0  0  0  0  0  0  # atno 17395 bound_to 11000

$$$$
