AV-unprocessed.smi:1678|AV-procd|sdf|6728|dock6
  -GOLD-   22720 7473D 1   1.00000     0.00000
 Structure written by MMmdl.
 43 44  0  0  0  0  0  0  0  0  1 V2000
  147.5647  132.9449  152.6796 C   0  0  0  0  0  0  0  0  0  0  0  0
  146.3346  132.9706  151.7867 C   0  0  0  0  0  0  0  0  0  0  0  0
  145.7417  131.7519  151.3937 C   0  0  0  0  0  0  0  0  0  0  0  0
  144.6052  131.7769  150.5676 C   0  0  0  0  0  0  0  0  0  0  0  0
  144.1064  133.0280  150.1664 C   0  0  0  0  0  0  0  0  0  0  0  0
  144.6668  134.1971  150.5369 N   0  0  0  0  0  0  0  0  0  0  0  0
  145.7645  134.1912  151.3345 C   0  0  0  0  0  0  0  0  0  0  0  0
  146.4076  135.3864  151.7648 N   0  0  0  0  0  0  0  0  0  0  0  0
  145.8474  136.5194  152.2243 C   0  0  0  0  0  0  0  0  0  0  0  0
  144.6384  136.7187  152.3484 O   0  0  0  0  0  0  0  0  0  0  0  0
  146.7809  137.4284  152.5405 N   0  0  0  0  0  0  0  0  0  0  0  0
  146.5034  138.7587  153.0686 C   0  0  0  0  0  0  0  0  0  0  0  0
  147.7133  139.6974  152.9019 C   0  0  0  0  0  0  0  0  0  0  0  0
  148.5600  139.6903  154.1017 N   0  0  0  0  0  0  0  0  0  0  0  0
  148.7102  138.3967  154.7887 C   0  0  0  0  0  0  0  0  0  0  0  0
  150.1243  137.7828  154.6596 C   0  0  0  0  0  0  0  0  0  0  0  0
  151.2919  138.7784  154.5130 C   0  0  0  0  0  0  0  0  0  0  0  0
  151.3497  139.8801  155.5915 C   0  0  0  0  0  0  0  0  0  0  0  0
  150.0647  140.7188  155.7900 C   0  0  0  0  0  0  0  0  0  0  0  0
  149.1736  140.8169  154.5413 C   0  0  0  0  0  0  0  0  0  0  0  0
  149.0537  141.9084  153.9845 O   0  0  0  0  0  0  0  0  0  0  0  0
  147.8444  131.9239  152.9413 H   0  0  0  0  0  0  0  0  0  0  0  0
  147.3764  133.4885  153.6058 H   0  0  0  0  0  0  0  0  0  0  0  0
  148.4130  133.4056  152.1726 H   0  0  0  0  0  0  0  0  0  0  0  0
  146.1508  130.8069  151.7197 H   0  0  0  0  0  0  0  0  0  0  0  0
  144.1283  130.8615  150.2498 H   0  0  0  0  0  0  0  0  0  0  0  0
  143.2354  133.0933  149.5313 H   0  0  0  0  0  0  0  0  0  0  0  0
  147.4155  135.3736  151.7194 H   0  0  0  0  0  0  0  0  0  0  0  0
  147.7511  137.1842  152.4067 H   0  0  0  0  0  0  0  0  0  0  0  0
  145.6452  139.1629  152.5312 H   0  0  0  0  0  0  0  0  0  0  0  0
  146.2056  138.6868  154.1161 H   0  0  0  0  0  0  0  0  0  0  0  0
  148.3035  139.4017  152.0326 H   0  0  0  0  0  0  0  0  0  0  0  0
  147.3671  140.7067  152.6773 H   0  0  0  0  0  0  0  0  0  0  0  0
  148.4570  138.5202  155.8418 H   0  0  0  0  0  0  0  0  0  0  0  0
  147.9830  137.6693  154.4273 H   0  0  0  0  0  0  0  0  0  0  0  0
  150.3042  137.1313  155.5154 H   0  0  0  0  0  0  0  0  0  0  0  0
  150.1380  137.1293  153.7866 H   0  0  0  0  0  0  0  0  0  0  0  0
  152.2302  138.2231  154.5269 H   0  0  0  0  0  0  0  0  0  0  0  0
  151.2524  139.2384  153.5244 H   0  0  0  0  0  0  0  0  0  0  0  0
  151.6179  139.4267  156.5464 H   0  0  0  0  0  0  0  0  0  0  0  0
  152.1724  140.5530  155.3473 H   0  0  0  0  0  0  0  0  0  0  0  0
  149.4765  140.3149  156.6138 H   0  0  0  0  0  0  0  0  0  0  0  0
  150.3400  141.7239  156.1122 H   0  0  0  0  0  0  0  0  0  0  0  0
  1  2  1  0  0  0  0
  1 22  1  0  0  0  0
  1 23  1  0  0  0  0
  1 24  1  0  0  0  0
  2  7  1  0  0  0  0
  2  3  2  0  0  0  0
  3  4  1  0  0  0  0
  3 25  1  0  0  0  0
  4  5  2  0  0  0  0
  4 26  1  0  0  0  0
  5  6  1  0  0  0  0
  5 27  1  0  0  0  0
  6  7  2  0  0  0  0
  7  8  1  0  0  0  0
  8  9  1  0  0  0  0
  8 28  1  0  0  0  0
  9 10  2  0  0  0  0
  9 11  1  0  0  0  0
 11 12  1  0  0  0  0
 11 29  1  0  0  0  0
 12 13  1  0  0  0  0
 12 30  1  0  0  0  0
 12 31  1  0  0  0  0
 13 14  1  0  0  0  0
 13 32  1  0  0  0  0
 13 33  1  0  0  0  0
 14 20  1  0  0  0  0
 14 15  1  0  0  0  0
 15 16  1  0  0  0  0
 15 34  1  0  0  0  0
 15 35  1  0  0  0  0
 16 17  1  0  0  0  0
 16 36  1  0  0  0  0
 16 37  1  0  0  0  0
 17 18  1  0  0  0  0
 17 38  1  0  0  0  0
 17 39  1  0  0  0  0
 18 19  1  0  0  0  0
 18 40  1  0  0  0  0
 18 41  1  0  0  0  0
 19 20  1  0  0  0  0
 19 42  1  0  0  0  0
 19 43  1  0  0  0  0
 20 21  2  0  0  0  0
M  END
> <s_m_source_file>
AV-unprocessed.smi

> <i_m_source_file_index>
1678

> <i_lp_mmshare_version>
43012

> <i_f3d_flags>
0

> <s_epik_input>
W0NIM11jMVtjSF1bY0hdW2NIXW5jMVtOSF1DKD1PKVtOSF1bQ0gyXVtDSDJdTjJbQ0gyXVtDSDJdW0NIMl1bQ0gyXVtDSDJdQzI9Tw==

> <s_epik_cmdline>
J2VwaWtfcHl0aG9uJywgJy1waCcsICc3LjAnLCAnLXRuJywgJzgnLCAnLW1hJywgJzIwMCcsICctbWV0YWxfYmluZGluZycsICctaW1hZScsICc8aW5maWxlLm1hZT4nLCAnLW9tYWUnLCAnPG91dGZpbGUubWFlPic=

> <r_lp_tautomer_probability>
1

> <r_epik_Ionization_Penalty>
5.3034e-05

> <r_epik_Ionization_Penalty_Charging>
0

> <r_epik_Ionization_Penalty_Neutral>
5.3034e-05

> <r_epik_State_Penalty>
-0

> <r_epik_Charging_Adjusted_Penalty>
0

> <i_epik_Tot_Q>
0

> <i_epik_Tot_abs_Q>
0

> <r_epik_Metal_State_Penalty>
-0

> <b_epik_Metal_Only>
0

> <s_lp_Force_Field>
OPLS_2005

> <r_lp_Energy>
24.0679

> <b_lp_Chiralities_Consistent>
1

> <s_lp_Variant>
AV-unprocessed.smi:1678-1

> <Gold.Version>
5.8.1

> <Gold.Id.Protein>
6NUR|6NUR_protein|mol2

> <Gold.PLP.Fitness>
46.8592

> <Gold.PLP.PLP>
-38.3819

> <Gold.PLP.part.hbond>
-3.6339

> <Gold.PLP.part.metal>
0.0000

> <Gold.PLP.part.buried>
-0.7064

> <Gold.PLP.part.nonpolar>
-35.1002

> <Gold.PLP.part.repulsive>
0.6909

> <Gold.PLP.ligand.clash>
0.0000

> <Gold.PLP.ligand.torsion>
1.0346

> <Gold.PLP.Chemscore.Hbond>
2.5040

> <Gold.PLP.Chemscore.CHOScore>
0.9959

> <Gold.PLP.Chemscore.Metal>
0.0000

> <Gold.Chemscore.Hbonds>
donor molecule, donor type, donor heavy atom, donor atom, acceptor molecule, acceptor atom, score
      L1  H     8    28       P1  7948  1.00
      L1  H    11    29       P1  7948  1.00
      P1  H  8011  8017       L1    21  0.48
      L1  C     5    27       P1 10186  0.85

> <Gold.PLP.Chemscore.Internal.Correction>
0.0467

> <Gold.Rescore>
     Score         DG    S(hbond)    S(metal)    S(lipo)     H(rot)  DE(clash)    DE(int)     intcor
     17.06     -19.82       2.40        0.00      86.99       1.51       1.68       1.07       ----

> <Gold.Chemscore.Fitness>
17.0620

> <Gold.Chemscore.DG>
-19.8154

> <Gold.Chemscore.ZeroCoef>
-5.4800

> <Gold.Chemscore.Hbond>
2.4046

> <Gold.Chemscore.Metal>
0.0000

> <Gold.Chemscore.Lipo>
86.9869

> <Gold.Chemscore.Internal_Hbond>
0.0000

> <Gold.Chemscore.DEClash>
1.6797

> <Gold.Chemscore.DEInternal>
1.0737

> <Gold.Chemscore.Rot>
1.5131

> <Gold.Chemscore.Internal.Correction>
   9.000000E+99

> <Gold.Chemscore.Hbonds>
donor molecule, donor type, donor heavy atom, donor atom, acceptor molecule, acceptor atom, score
      L1  H     8    28       P1  7948  0.92
      L1  H    11    29       P1  7948  0.97
      P1  H  8011  8017       L1    21  0.48

> <Gold.Chemscore.Hbond.Weighted>
-8.0314

> <Gold.Chemscore.Metal.Weighted>
-0.0000

> <Gold.Chemscore.Lipo.Weighted>
-10.1775

> <Gold.Chemscore.Internal_Hbond.Weighted>
0.0000

> <Gold.Chemscore.DEClash.Weighted>
1.6797

> <Gold.Chemscore.DEInternal.Weighted>
1.0737

> <Gold.Chemscore.Rot.Weighted>
3.8735

> <Gold.Chemscore.Internal.Correction.Weighted>
   9.000000E+99

> <Gold.Protein.RotatedTorsions>
[ 6907 6896 6895 6894 ] final   47.62 input  -60.11 | X-H torsion
[ 7974 7965 7964 7962 ] final  116.11 input  175.53 | X-H torsion
[ 8008 7997 7996 7995 ] final  -94.81 input   59.86 | X-H torsion
[ 10167 10162 10161 10158 ] final  -13.63 input  -65.29 | X-H torsion
[ 10718 10713 10712 10709 ] final  173.08 input   66.30 | X-H torsion
[ 10763 10752 10751 10750 ] final  -78.39 input  -60.55 | X-H torsion
[ 11005 11000 10999 10996 ] final   20.55 input  -57.11 | X-H torsion

> <Gold.Protein.ActiveResidues>
 VAL166  LYS551  ARG553  GLY616  TRP617  ASP618  TYR619  PRO620  LYS621  CYS622 
 ASP623  PHE694  ASN695  SER759  ASP760  ASP761  ALA762  ILE779  LEU786  VAL792 
 PHE793  MET794  SER795  GLU796  ALA797  LYS798  CYS799  TRP800  GLU811  SER814 

> <Gold.Protein.RotatedAtoms>
  152.2702  134.7941  160.0415 H   0  0  0  0  0  0  0  0  0  0  0  0  # atno 6907 bound_to 6896
  151.8556  133.3442  159.3695 H   0  0  0  0  0  0  0  0  0  0  0  0  # atno 6908 bound_to 6896
  150.7149  134.5184  159.5686 H   0  0  0  0  0  0  0  0  0  0  0  0  # atno 6909 bound_to 6896
  145.1837  139.3036  143.4405 H   0  0  0  0  0  0  0  0  0  0  0  0  # atno 7974 bound_to 7965
  154.7532  140.0486  157.0911 H   0  0  0  0  0  0  0  0  0  0  0  0  # atno 8008 bound_to 7997
  155.0031  140.3127  155.4840 H   0  0  0  0  0  0  0  0  0  0  0  0  # atno 8009 bound_to 7997
  156.2889  140.2198  156.5142 H   0  0  0  0  0  0  0  0  0  0  0  0  # atno 8010 bound_to 7997
  140.7186  143.5406  150.9413 H   0  0  0  0  0  0  0  0  0  0  0  0  # atno 10167 bound_to 10162
  156.9695  131.0085  151.2908 H   0  0  0  0  0  0  0  0  0  0  0  0  # atno 10718 bound_to 10713
  154.5253  135.5731  153.6714 H   0  0  0  0  0  0  0  0  0  0  0  0  # atno 10763 bound_to 10752
  152.9926  135.6191  154.2701 H   0  0  0  0  0  0  0  0  0  0  0  0  # atno 10764 bound_to 10752
  154.2624  135.2856  155.2752 H   0  0  0  0  0  0  0  0  0  0  0  0  # atno 10765 bound_to 10752
  140.4014  134.1714  155.7664 H   0  0  0  0  0  0  0  0  0  0  0  0  # atno 11005 bound_to 11000
  146.3449  140.2025  142.8589 LP  0  0  0  0  0  0  0  0  0  0  0  0  # atno 17320 bound_to 7965
  145.0111  140.8714  143.5224 LP  0  0  0  0  0  0  0  0  0  0  0  0  # atno 17321 bound_to 7965
  139.9129  143.6699  152.3112 LP  0  0  0  0  0  0  0  0  0  0  0  0  # atno 17342 bound_to 10162
  139.7088  144.7623  151.1147 LP  0  0  0  0  0  0  0  0  0  0  0  0  # atno 17343 bound_to 10162
  157.5602  130.8241  149.8256 LP  0  0  0  0  0  0  0  0  0  0  0  0  # atno 17370 bound_to 10713
  156.0289  130.3771  150.1745 LP  0  0  0  0  0  0  0  0  0  0  0  0  # atno 17371 bound_to 10713
  141.1855  133.8322  157.1102 LP  0  0  0  0  0  0  0  0  0  0  0  0  # atno 17394 bound_to 11000
  140.0333  134.9890  157.0823 LP  0  0  0  0  0  0  0  0  0  0  0  0  # atno 17395 bound_to 11000

$$$$
