AV-unprocessed.smi:2200|AV-procd|sdf|8925|dock7
  -GOLD-   2272012143D 1   1.00000     0.00000
 Structure written by MMmdl.
 31 31  0  0  0  0  0  0  0  0  1 V2000
  152.6578  144.8346  157.9696 C   0  0  0  0  0  0  0  0  0  0  0  0
  151.4887  144.4434  158.8847 C   0  0  0  0  0  0  0  0  0  0  0  0
  151.7161  144.9679  160.3136 C   0  0  0  0  0  0  0  0  0  0  0  0
  151.2514  142.9179  158.8463 C   0  0  0  0  0  0  0  0  0  0  0  0
  151.4338  142.3559  157.5123 N   0  0  0  0  0  0  0  0  0  0  0  0
  150.5302  141.6106  156.8586 C   0  0  0  0  0  0  0  0  0  0  0  0
  149.4129  141.3556  157.3100 O   0  0  0  0  0  0  0  0  0  0  0  0
  150.9518  141.0880  155.4783 C   0  0  0  0  0  0  0  0  0  0  0  0
  149.8249  140.5291  154.7178 N   0  0  0  0  0  0  0  0  0  0  0  0
  148.6563  141.2594  154.5541 C   0  0  0  0  0  0  0  0  0  0  0  0
  147.5777  140.7985  153.8772 C   0  0  0  0  0  0  0  0  0  0  0  0
  147.5972  139.4714  153.2716 C   0  0  0  0  0  0  0  0  0  0  0  0
  146.6723  138.9670  152.6387 O   0  0  0  0  0  0  0  0  0  0  0  0
  148.7892  138.7668  153.4601 N   0  0  0  0  0  0  0  0  0  0  0  0
  149.9041  139.2352  154.1572 C   0  0  0  0  0  0  0  0  0  0  0  0
  150.9062  138.5296  154.2676 O   0  0  0  0  0  0  0  0  0  0  0  0
  148.8483  137.8413  153.0609 H   0  0  0  0  0  0  0  0  0  0  0  0
  153.5926  144.3851  158.3063 H   0  0  0  0  0  0  0  0  0  0  0  0
  152.7959  145.9161  157.9490 H   0  0  0  0  0  0  0  0  0  0  0  0
  152.4807  144.5076  156.9445 H   0  0  0  0  0  0  0  0  0  0  0  0
  150.5979  144.9360  158.4930 H   0  0  0  0  0  0  0  0  0  0  0  0
  152.5834  144.4951  160.7758 H   0  0  0  0  0  0  0  0  0  0  0  0
  150.8531  144.7807  160.9534 H   0  0  0  0  0  0  0  0  0  0  0  0
  151.8868  146.0447  160.3119 H   0  0  0  0  0  0  0  0  0  0  0  0
  151.9152  142.4111  159.5491 H   0  0  0  0  0  0  0  0  0  0  0  0
  150.2347  142.6920  159.1698 H   0  0  0  0  0  0  0  0  0  0  0  0
  152.3232  142.5243  157.0645 H   0  0  0  0  0  0  0  0  0  0  0  0
  151.4108  141.9123  154.9309 H   0  0  0  0  0  0  0  0  0  0  0  0
  151.7387  140.3379  155.5831 H   0  0  0  0  0  0  0  0  0  0  0  0
  148.5942  142.2465  154.9900 H   0  0  0  0  0  0  0  0  0  0  0  0
  146.6948  141.4145  153.7845 H   0  0  0  0  0  0  0  0  0  0  0  0
  1  2  1  0  0  0  0
  1 18  1  0  0  0  0
  1 19  1  0  0  0  0
  1 20  1  0  0  0  0
  2  3  1  0  0  0  0
  2  4  1  0  0  0  0
  2 21  1  0  0  0  0
  3 22  1  0  0  0  0
  3 23  1  0  0  0  0
  3 24  1  0  0  0  0
  4  5  1  0  0  0  0
  4 25  1  0  0  0  0
  4 26  1  0  0  0  0
  5  6  1  0  0  0  0
  5 27  1  0  0  0  0
  6  7  2  0  0  0  0
  6  8  1  0  0  0  0
  8  9  1  0  0  0  0
  8 28  1  0  0  0  0
  8 29  1  0  0  0  0
  9 15  1  0  0  0  0
  9 10  1  0  0  0  0
 10 11  2  0  0  0  0
 10 30  1  0  0  0  0
 11 12  1  0  0  0  0
 11 31  1  0  0  0  0
 12 13  2  0  0  0  0
 12 14  1  0  0  0  0
 14 17  1  0  0  0  0
 14 15  1  0  0  0  0
 15 16  2  0  0  0  0
M  END
> <s_m_source_file>
AV-unprocessed.smi

> <i_m_source_file_index>
2200

> <i_lp_mmshare_version>
43012

> <i_f3d_flags>
0

> <s_epik_input>
W0NIM11bQ0hdKFtDSDNdKVtDSDJdW05IXUMoPU8pW0NIMl1uMVtjSF1bY0hdYyg9TylbbkhdYzE9Tw==

> <s_epik_cmdline>
J2VwaWtfcHl0aG9uJywgJy1waCcsICc3LjAnLCAnLXRuJywgJzgnLCAnLW1hJywgJzIwMCcsICctbWV0YWxfYmluZGluZycsICctaW1hZScsICc8aW5maWxlLm1hZT4nLCAnLW9tYWUnLCAnPG91dGZpbGUubWFlPic=

> <r_lp_tautomer_probability>
0.999537

> <r_epik_Ionization_Penalty>
0.00328917

> <r_epik_Ionization_Penalty_Charging>
0.00328916

> <r_epik_Ionization_Penalty_Neutral>
1.93017e-08

> <r_epik_State_Penalty>
0.00232387

> <r_epik_Charging_Adjusted_Penalty>
0.00561303

> <i_epik_Tot_Q>
0

> <i_epik_Tot_abs_Q>
0

> <r_epik_Metal_State_Penalty>
0.365274

> <b_epik_Metal_Only>
0

> <s_lp_Force_Field>
OPLS_2005

> <r_lp_Energy>
3.18145

> <b_lp_Chiralities_Consistent>
1

> <s_lp_Variant>
AV-unprocessed.smi:2200-1

> <Gold.Version>
5.8.1

> <Gold.Id.Protein>
6NUR|6NUR_protein|mol2

> <Gold.PLP.Fitness>
39.9536

> <Gold.PLP.PLP>
-34.7510

> <Gold.PLP.part.hbond>
-2.0000

> <Gold.PLP.part.metal>
0.0000

> <Gold.PLP.part.buried>
-1.2176

> <Gold.PLP.part.nonpolar>
-31.4626

> <Gold.PLP.part.repulsive>
0.6622

> <Gold.PLP.ligand.clash>
0.0000

> <Gold.PLP.ligand.torsion>
0.3895

> <Gold.PLP.Chemscore.Hbond>
0.9913

> <Gold.PLP.Chemscore.CHOScore>
1.0000

> <Gold.PLP.Chemscore.Metal>
0.0000

> <Gold.Chemscore.Hbonds>
donor molecule, donor type, donor heavy atom, donor atom, acceptor molecule, acceptor atom, score
      L1  H    14    17       P1  7948  1.00
      L1  C    10    30       P1  8028  0.92

> <Gold.PLP.Chemscore.Internal.Correction>
0.0079

> <Gold.Rescore>
     Score         DG    S(hbond)    S(metal)    S(lipo)     H(rot)  DE(clash)    DE(int)     intcor
      9.71     -11.53       0.95        0.00      68.72       2.01       0.14       1.68       ----

> <Gold.Chemscore.Fitness>
9.7150

> <Gold.Chemscore.DG>
-11.5314

> <Gold.Chemscore.ZeroCoef>
-5.4800

> <Gold.Chemscore.Hbond>
0.9488

> <Gold.Chemscore.Metal>
0.0000

> <Gold.Chemscore.Lipo>
68.7232

> <Gold.Chemscore.Internal_Hbond>
0.0000

> <Gold.Chemscore.DEClash>
0.1373

> <Gold.Chemscore.DEInternal>
1.6791

> <Gold.Chemscore.Rot>
2.0150

> <Gold.Chemscore.Internal.Correction>
   9.000000E+99

> <Gold.Chemscore.Hbonds>
donor molecule, donor type, donor heavy atom, donor atom, acceptor molecule, acceptor atom, score
      L1  H    14    17       P1  7948  0.97

> <Gold.Chemscore.Hbond.Weighted>
-3.1691

> <Gold.Chemscore.Metal.Weighted>
-0.0000

> <Gold.Chemscore.Lipo.Weighted>
-8.0406

> <Gold.Chemscore.Internal_Hbond.Weighted>
0.0000

> <Gold.Chemscore.DEClash.Weighted>
0.1373

> <Gold.Chemscore.DEInternal.Weighted>
1.6791

> <Gold.Chemscore.Rot.Weighted>
5.1583

> <Gold.Chemscore.Internal.Correction.Weighted>
   9.000000E+99

> <Gold.Protein.RotatedTorsions>
[ 6907 6896 6895 6894 ] final  173.54 input  -60.11 | X-H torsion
[ 7974 7965 7964 7962 ] final  -67.17 input  175.53 | X-H torsion
[ 8008 7997 7996 7995 ] final  -84.75 input   59.86 | X-H torsion
[ 10167 10162 10161 10158 ] final   24.81 input  -65.29 | X-H torsion
[ 10718 10713 10712 10709 ] final  -16.65 input   66.30 | X-H torsion
[ 10763 10752 10751 10750 ] final  147.38 input  -60.55 | X-H torsion
[ 11005 11000 10999 10996 ] final -173.60 input  -57.11 | X-H torsion

> <Gold.Protein.ActiveResidues>
 VAL166  LYS551  ARG553  GLY616  TRP617  ASP618  TYR619  PRO620  LYS621  CYS622 
 ASP623  PHE694  ASN695  SER759  ASP760  ASP761  ALA762  ILE779  LEU786  VAL792 
 PHE793  MET794  SER795  GLU796  ALA797  LYS798  CYS799  TRP800  GLU811  SER814 

> <Gold.Protein.RotatedAtoms>
  151.7666  133.3338  159.3432 H   0  0  0  0  0  0  0  0  0  0  0  0  # atno 6907 bound_to 6896
  150.7477  134.6057  159.6069 H   0  0  0  0  0  0  0  0  0  0  0  0  # atno 6908 bound_to 6896
  152.3369  134.7188  160.0326 H   0  0  0  0  0  0  0  0  0  0  0  0  # atno 6909 bound_to 6896
  145.7326  140.8990  143.0572 H   0  0  0  0  0  0  0  0  0  0  0  0  # atno 7974 bound_to 7965
  154.6332  140.0601  156.9757 H   0  0  0  0  0  0  0  0  0  0  0  0  # atno 8008 bound_to 7997
  155.1633  140.3284  155.4388 H   0  0  0  0  0  0  0  0  0  0  0  0  # atno 8009 bound_to 7997
  156.2493  140.1927  156.6739 H   0  0  0  0  0  0  0  0  0  0  0  0  # atno 8010 bound_to 7997
  140.5157  144.0086  150.6393 H   0  0  0  0  0  0  0  0  0  0  0  0  # atno 10167 bound_to 10162
  156.5846  130.4783  149.6305 H   0  0  0  0  0  0  0  0  0  0  0  0  # atno 10718 bound_to 10713
  154.0373  135.2892  155.3360 H   0  0  0  0  0  0  0  0  0  0  0  0  # atno 10763 bound_to 10752
  154.6951  135.5211  153.8450 H   0  0  0  0  0  0  0  0  0  0  0  0  # atno 10764 bound_to 10752
  153.0614  135.6615  154.0581 H   0  0  0  0  0  0  0  0  0  0  0  0  # atno 10765 bound_to 10752
  140.4839  134.6049  157.4929 H   0  0  0  0  0  0  0  0  0  0  0  0  # atno 11005 bound_to 11000
  144.6889  139.9351  143.7473 LP  0  0  0  0  0  0  0  0  0  0  0  0  # atno 17320 bound_to 7965
  146.0523  139.3523  143.0632 LP  0  0  0  0  0  0  0  0  0  0  0  0  # atno 17321 bound_to 7965
  140.3421  143.3013  152.0577 LP  0  0  0  0  0  0  0  0  0  0  0  0  # atno 17342 bound_to 10162
  139.4909  144.6435  151.6827 LP  0  0  0  0  0  0  0  0  0  0  0  0  # atno 17343 bound_to 10162
  156.2602  130.6958  151.1724 LP  0  0  0  0  0  0  0  0  0  0  0  0  # atno 17370 bound_to 10713
  157.7318  131.0605  150.5658 LP  0  0  0  0  0  0  0  0  0  0  0  0  # atno 17371 bound_to 10713
  139.9810  134.7138  155.9860 LP  0  0  0  0  0  0  0  0  0  0  0  0  # atno 17394 bound_to 11000
  141.1518  133.6547  156.4036 LP  0  0  0  0  0  0  0  0  0  0  0  0  # atno 17395 bound_to 11000

$$$$
