AV-unprocessed.smi:3240|AV-procd|sdf|12382|dock8
  -GOLD-   2272018243D 1   1.00000     0.00000
 Structure written by MMmdl.
 44 45  0  0  0  0  0  0  0  0  2 V2000
  150.3244  136.0840  154.9898 C   0  0  0  0  0  0  0  0  0  0  0  0
  150.6417  137.5513  155.0281 C   0  0  0  0  0  0  0  0  0  0  0  0
  150.5424  138.4968  153.9682 C   0  0  0  0  0  0  0  0  0  0  0  0
  150.9015  139.7170  154.3333 N   0  0  0  0  0  0  0  0  0  0  0  0
  151.2425  139.5943  155.6332 N   0  0  0  0  0  0  0  0  0  0  0  0
  151.6947  140.7544  156.3791 C   0  0  0  0  0  0  0  0  0  0  0  0
  150.7623  141.9764  156.1893 C   0  0  1  0  0  0  0  0  0  0  0  0
  149.3959  141.7403  156.8490 C   0  0  0  0  0  0  0  0  0  0  0  0
  151.3614  143.2121  156.7418 N   0  3  0  0  0  0  0  0  0  0  0  0
  151.1645  143.4213  158.1931 C   0  0  0  0  0  0  0  0  0  0  0  0
  152.4040  144.0565  158.8685 C   0  0  0  0  0  0  0  0  0  0  0  0
  153.1262  144.7349  157.8578 O   0  0  0  0  0  0  0  0  0  0  0  0
  152.0465  145.0751  159.9792 C   0  0  0  0  0  0  0  0  0  0  0  0
  151.4616  144.3967  161.2307 C   0  0  0  0  0  0  0  0  0  0  0  0
  152.4140  143.3212  161.7767 C   0  0  0  0  0  0  0  0  0  0  0  0
  152.7783  142.2914  160.6961 C   0  0  0  0  0  0  0  0  0  0  0  0
  153.3509  142.9752  159.4408 C   0  0  0  0  0  0  0  0  0  0  0  0
  151.0941  138.2981  156.0786 C   0  0  0  0  0  0  0  0  0  0  0  0
  149.9211  135.7804  154.0235 H   0  0  0  0  0  0  0  0  0  0  0  0
  149.5866  135.8123  155.7450 H   0  0  0  0  0  0  0  0  0  0  0  0
  151.2112  135.4768  155.1719 H   0  0  0  0  0  0  0  0  0  0  0  0
  150.2221  138.3329  152.9497 H   0  0  0  0  0  0  0  0  0  0  0  0
  151.7463  140.4670  157.4302 H   0  0  0  0  0  0  0  0  0  0  0  0
  152.7221  140.9822  156.0887 H   0  0  0  0  0  0  0  0  0  0  0  0
  150.5764  142.1433  155.1264 H   0  0  0  0  0  0  0  0  0  0  0  0
  148.9038  140.8630  156.4274 H   0  0  0  0  0  0  0  0  0  0  0  0
  148.7321  142.5920  156.6967 H   0  0  0  0  0  0  0  0  0  0  0  0
  149.4940  141.5827  157.9238 H   0  0  0  0  0  0  0  0  0  0  0  0
  152.3584  143.1711  156.5845 H   0  0  0  0  0  0  0  0  0  0  0  0
  150.2944  144.0566  158.3416 H   0  0  0  0  0  0  0  0  0  0  0  0
  150.9342  142.4623  158.6598 H   0  0  0  0  0  0  0  0  0  0  0  0
  152.5185  145.2494  157.3477 H   0  0  0  0  0  0  0  0  0  0  0  0
  152.9457  145.6189  160.2731 H   0  0  0  0  0  0  0  0  0  0  0  0
  151.3532  145.8312  159.6098 H   0  0  0  0  0  0  0  0  0  0  0  0
  151.2731  145.1450  162.0012 H   0  0  0  0  0  0  0  0  0  0  0  0
  150.4944  143.9502  160.9983 H   0  0  0  0  0  0  0  0  0  0  0  0
  153.3237  143.7959  162.1470 H   0  0  0  0  0  0  0  0  0  0  0  0
  151.9587  142.8192  162.6311 H   0  0  0  0  0  0  0  0  0  0  0  0
  153.5065  141.5837  161.0936 H   0  0  0  0  0  0  0  0  0  0  0  0
  151.8984  141.7028  160.4358 H   0  0  0  0  0  0  0  0  0  0  0  0
  153.5760  142.2245  158.6821 H   0  0  0  0  0  0  0  0  0  0  0  0
  154.3070  143.4304  159.7052 H   0  0  0  0  0  0  0  0  0  0  0  0
  151.3208  138.0160  157.0965 H   0  0  0  0  0  0  0  0  0  0  0  0
  150.9922  144.0074  156.2410 H   0  0  0  0  0  0  0  0  0  0  0  0
  1  2  1  0  0  0  0
  1 19  1  0  0  0  0
  1 20  1  0  0  0  0
  1 21  1  0  0  0  0
  2 18  2  0  0  0  0
  2  3  1  0  0  0  0
  3  4  2  0  0  0  0
  3 22  1  0  0  0  0
  4  5  1  0  0  0  0
  5  6  1  0  0  0  0
  5 18  1  0  0  0  0
  6  7  1  0  0  0  0
  6 23  1  0  0  0  0
  6 24  1  0  0  0  0
  7  8  1  0  0  0  0
  7  9  1  0  0  0  0
  7 25  1  0  0  0  0
  8 26  1  0  0  0  0
  8 27  1  0  0  0  0
  8 28  1  0  0  0  0
  9 10  1  0  0  0  0
  9 29  1  0  0  0  0
  9 44  1  0  0  0  0
 10 11  1  0  0  0  0
 10 30  1  0  0  0  0
 10 31  1  0  0  0  0
 11 17  1  0  0  0  0
 11 12  1  0  0  0  0
 11 13  1  0  0  0  0
 12 32  1  0  0  0  0
 13 14  1  0  0  0  0
 13 33  1  0  0  0  0
 13 34  1  0  0  0  0
 14 15  1  0  0  0  0
 14 35  1  0  0  0  0
 14 36  1  0  0  0  0
 15 16  1  0  0  0  0
 15 37  1  0  0  0  0
 15 38  1  0  0  0  0
 16 17  1  0  0  0  0
 16 39  1  0  0  0  0
 16 40  1  0  0  0  0
 17 41  1  0  0  0  0
 17 42  1  0  0  0  0
 18 43  1  0  0  0  0
M  CHG  1   9   1
M  END
> <s_m_source_file>
AV-unprocessed.smi

> <i_m_source_file_index>
3240

> <i_lp_mmshare_version>
43012

> <i_f3d_flags>
0

> <s_epik_input>
W0NIM11jMVtjSF1ubihbY0hdMSlbQ0gyXVtDQEhdKFtDSDNdKVtOSF1bQ0gyXUMyKFtPSF0pW0NIMl1bQ0gyXVtDSDJdW0NIMl1bQ0gyXTI=

> <s_epik_cmdline>
J2VwaWtfcHl0aG9uJywgJy1waCcsICc3LjAnLCAnLXRuJywgJzgnLCAnLW1hJywgJzIwMCcsICctbWV0YWxfYmluZGluZycsICctaW1hZScsICc8aW5maWxlLm1hZT4nLCAnLW9tYWUnLCAnPG91dGZpbGUubWFlPic=

> <r_lp_tautomer_probability>
1

> <r_epik_Ionization_Penalty>
0.0111573

> <r_epik_Ionization_Penalty_Charging>
0.0111472

> <r_epik_Ionization_Penalty_Neutral>
1.01652e-05

> <r_epik_State_Penalty>
0.00856328

> <r_epik_Charging_Adjusted_Penalty>
0.0197104

> <i_epik_Tot_Q>
1

> <i_epik_Tot_abs_Q>
1

> <r_epik_Metal_State_Penalty>
0.00856448

> <b_epik_Metal_Only>
0

> <s_lp_Force_Field>
OPLS_2005

> <r_lp_Energy>
18.8853

> <b_lp_Chiralities_Consistent>
1

> <s_lp_Variant>
AV-unprocessed.smi:3240-2

> <Gold.Version>
5.8.1

> <Gold.Id.Protein>
6NUR|6NUR_protein|mol2

> <Gold.PLP.Fitness>
56.4472

> <Gold.PLP.PLP>
-44.3117

> <Gold.PLP.part.hbond>
-2.0000

> <Gold.PLP.part.metal>
0.0000

> <Gold.PLP.part.buried>
-4.8962

> <Gold.PLP.part.nonpolar>
-37.5842

> <Gold.PLP.part.repulsive>
0.1664

> <Gold.PLP.ligand.clash>
0.0000

> <Gold.PLP.ligand.torsion>
1.3773

> <Gold.PLP.Chemscore.Hbond>
3.0000

> <Gold.PLP.Chemscore.CHOScore>
1.9523

> <Gold.PLP.Chemscore.Metal>
0.0000

> <Gold.Chemscore.Hbonds>
donor molecule, donor type, donor heavy atom, donor atom, acceptor molecule, acceptor atom, score
      L1  H     9    44       P1  8028  0.56
      P1  H  7989  7998       L1     4  1.00
      L1  C     3    22       P1  7948  0.71
      L1  C     3    22       P1  7949  0.01
      L1  C     3    22       P1  7957  1.00

> <Gold.PLP.Chemscore.Internal.Correction>
0.0331

> <Gold.Rescore>
     Score         DG    S(hbond)    S(metal)    S(lipo)     H(rot)  DE(clash)    DE(int)     intcor
     19.98     -21.27       1.91        0.00     126.76       2.12       0.11       1.17       ----

> <Gold.Chemscore.Fitness>
19.9845

> <Gold.Chemscore.DG>
-21.2691

> <Gold.Chemscore.ZeroCoef>
-5.4800

> <Gold.Chemscore.Hbond>
1.9112

> <Gold.Chemscore.Metal>
0.0000

> <Gold.Chemscore.Lipo>
126.7609

> <Gold.Chemscore.Internal_Hbond>
0.0000

> <Gold.Chemscore.DEClash>
0.1143

> <Gold.Chemscore.DEInternal>
1.1704

> <Gold.Chemscore.Rot>
2.1193

> <Gold.Chemscore.Internal.Correction>
   9.000000E+99

> <Gold.Chemscore.Hbonds>
donor molecule, donor type, donor heavy atom, donor atom, acceptor molecule, acceptor atom, score
      L1  H     9    44       P1  8028  0.28
      P1  H  7989  7998       L1     4  0.93

> <Gold.Chemscore.Hbond.Weighted>
-6.3835

> <Gold.Chemscore.Metal.Weighted>
-0.0000

> <Gold.Chemscore.Lipo.Weighted>
-14.8310

> <Gold.Chemscore.Internal_Hbond.Weighted>
0.0000

> <Gold.Chemscore.DEClash.Weighted>
0.1143

> <Gold.Chemscore.DEInternal.Weighted>
1.1704

> <Gold.Chemscore.Rot.Weighted>
5.4254

> <Gold.Chemscore.Internal.Correction.Weighted>
   9.000000E+99

> <Gold.Protein.RotatedTorsions>
[ 6907 6896 6895 6894 ] final  179.54 input  -60.11 | X-H torsion
[ 7974 7965 7964 7962 ] final  -15.96 input  175.53 | X-H torsion
[ 8008 7997 7996 7995 ] final  164.24 input   59.86 | X-H torsion
[ 10167 10162 10161 10158 ] final  -96.14 input  -65.29 | X-H torsion
[ 10718 10713 10712 10709 ] final -178.58 input   66.30 | X-H torsion
[ 10763 10752 10751 10750 ] final -122.10 input  -60.55 | X-H torsion
[ 11005 11000 10999 10996 ] final -174.34 input  -57.11 | X-H torsion

> <Gold.Protein.ActiveResidues>
 VAL166  LYS551  ARG553  GLY616  TRP617  ASP618  TYR619  PRO620  LYS621  CYS622 
 ASP623  PHE694  ASN695  SER759  ASP760  ASP761  ALA762  ILE779  LEU786  VAL792 
 PHE793  MET794  SER795  GLU796  ALA797  LYS798  CYS799  TRP800  GLU811  SER814 

> <Gold.Protein.RotatedAtoms>
  151.6699  133.3314  159.3193 H   0  0  0  0  0  0  0  0  0  0  0  0  # atno 6907 bound_to 6896
  150.7873  134.6871  159.6485 H   0  0  0  0  0  0  0  0  0  0  0  0  # atno 6908 bound_to 6896
  152.3945  134.6391  160.0147 H   0  0  0  0  0  0  0  0  0  0  0  0  # atno 6909 bound_to 6896
  146.2009  140.3568  142.8424 H   0  0  0  0  0  0  0  0  0  0  0  0  # atno 7974 bound_to 7965
  156.1895  140.1702  156.8119 H   0  0  0  0  0  0  0  0  0  0  0  0  # atno 8008 bound_to 7997
  154.5454  140.0728  156.8612 H   0  0  0  0  0  0  0  0  0  0  0  0  # atno 8009 bound_to 7997
  155.3132  140.3369  155.4245 H   0  0  0  0  0  0  0  0  0  0  0  0  # atno 8010 bound_to 7997
  140.2969  143.3187  152.0289 H   0  0  0  0  0  0  0  0  0  0  0  0  # atno 10167 bound_to 10162
  156.8464  130.9704  151.3096 H   0  0  0  0  0  0  0  0  0  0  0  0  # atno 10718 bound_to 10713
  154.8682  135.4145  154.2726 H   0  0  0  0  0  0  0  0  0  0  0  0  # atno 10763 bound_to 10752
  153.3634  135.7004  153.6700 H   0  0  0  0  0  0  0  0  0  0  0  0  # atno 10764 bound_to 10752
  153.5592  135.3613  155.2764 H   0  0  0  0  0  0  0  0  0  0  0  0  # atno 10765 bound_to 10752
  140.4756  134.6124  157.4899 H   0  0  0  0  0  0  0  0  0  0  0  0  # atno 11005 bound_to 11000
  144.8681  140.7234  143.6064 LP  0  0  0  0  0  0  0  0  0  0  0  0  # atno 17320 bound_to 7965
  145.3487  139.1712  143.4446 LP  0  0  0  0  0  0  0  0  0  0  0  0  # atno 17321 bound_to 7965
  139.4924  144.6484  151.6728 LP  0  0  0  0  0  0  0  0  0  0  0  0  # atno 17342 bound_to 10162
  140.5685  144.0149  150.6204 LP  0  0  0  0  0  0  0  0  0  0  0  0  # atno 17343 bound_to 10162
  157.6328  130.8742  149.9304 LP  0  0  0  0  0  0  0  0  0  0  0  0  # atno 17370 bound_to 10713
  156.0852  130.3669  150.0501 LP  0  0  0  0  0  0  0  0  0  0  0  0  # atno 17371 bound_to 10713
  139.9858  134.7064  155.9777 LP  0  0  0  0  0  0  0  0  0  0  0  0  # atno 17394 bound_to 11000
  141.1556  133.6543  156.4150 LP  0  0  0  0  0  0  0  0  0  0  0  0  # atno 17395 bound_to 11000

$$$$
