AV-unprocessed.smi:2926|AV-procd|sdf|11226|dock5
  -GOLD-   2272016113D 1   1.00000     0.00000
 Structure written by MMmdl.
 32 32  0  0  0  0  0  0  0  0  1 V2000
  149.4067  141.2184  155.1239 C   0  0  0  0  0  0  0  0  0  0  0  0
  148.4491  140.9301  153.9502 C   0  0  0  0  0  0  0  0  0  0  0  0
  147.1781  141.7817  154.1314 C   0  0  0  0  0  0  0  0  0  0  0  0
  148.1453  139.4121  153.8097 C   0  0  1  0  0  0  0  0  0  0  0  0
  147.0978  139.0759  152.7258 C   0  0  0  0  0  0  0  0  0  0  0  0
  147.6769  138.2760  151.7163 O   0  0  0  0  0  0  0  0  0  0  0  0
  149.3875  138.7086  153.4639 N   0  0  0  0  0  0  0  0  0  0  0  0
  150.5144  138.3406  154.7186 S   0  0  0  0  0  0  0  0  0  0  0  0
  150.9690  136.9548  154.5246 O   0  0  0  0  0  0  0  0  0  0  0  0
  151.4954  139.4353  154.7708 O   0  0  0  0  0  0  0  0  0  0  0  0
  149.4598  138.4023  156.2279 C   0  0  0  0  0  0  0  0  0  0  0  0
  150.2720  138.0100  157.4297 C   0  0  0  0  0  0  0  0  0  0  0  0
  151.4293  138.6437  157.9618 C   0  0  0  0  0  0  0  0  0  0  0  0
  151.7450  137.8743  159.0442 C   0  0  0  0  0  0  0  0  0  0  0  0
  150.8593  136.8550  159.1773 O   0  0  0  0  0  0  0  0  0  0  0  0
  149.9215  136.9512  158.1430 N   0  0  0  0  0  0  0  0  0  0  0  0
  147.7802  139.0527  154.7733 H   0  0  0  0  0  0  0  0  0  0  0  0
  148.9884  140.8714  156.0693 H   0  0  0  0  0  0  0  0  0  0  0  0
  149.6011  142.2869  155.2207 H   0  0  0  0  0  0  0  0  0  0  0  0
  150.3740  140.7335  154.9908 H   0  0  0  0  0  0  0  0  0  0  0  0
  148.9407  141.2670  153.0364 H   0  0  0  0  0  0  0  0  0  0  0  0
  146.5785  141.4245  154.9693 H   0  0  0  0  0  0  0  0  0  0  0  0
  146.5506  141.7811  153.2413 H   0  0  0  0  0  0  0  0  0  0  0  0
  147.4300  142.8243  154.3281 H   0  0  0  0  0  0  0  0  0  0  0  0
  146.2719  138.4949  153.1309 H   0  0  0  0  0  0  0  0  0  0  0  0
  146.6687  139.9788  152.2896 H   0  0  0  0  0  0  0  0  0  0  0  0
  148.0730  137.5196  152.1210 H   0  0  0  0  0  0  0  0  0  0  0  0
  149.1908  137.8842  152.8968 H   0  0  0  0  0  0  0  0  0  0  0  0
  149.0659  139.4125  156.3340 H   0  0  0  0  0  0  0  0  0  0  0  0
  148.6152  137.7283  156.0800 H   0  0  0  0  0  0  0  0  0  0  0  0
  151.9479  139.5203  157.6024 H   0  0  0  0  0  0  0  0  0  0  0  0
  152.5309  137.9200  159.7834 H   0  0  0  0  0  0  0  0  0  0  0  0
  1  2  1  0  0  0  0
  1 18  1  0  0  0  0
  1 19  1  0  0  0  0
  1 20  1  0  0  0  0
  2  3  1  0  0  0  0
  2  4  1  0  0  0  0
  2 21  1  0  0  0  0
  3 22  1  0  0  0  0
  3 23  1  0  0  0  0
  3 24  1  0  0  0  0
  4 17  1  0  0  0  0
  4  5  1  0  0  0  0
  4  7  1  0  0  0  0
  5  6  1  0  0  0  0
  5 25  1  0  0  0  0
  5 26  1  0  0  0  0
  6 27  1  0  0  0  0
  7  8  1  0  0  0  0
  7 28  1  0  0  0  0
  8  9  2  0  0  0  0
  8 10  2  0  0  0  0
  8 11  1  0  0  0  0
 11 12  1  0  0  0  0
 11 29  1  0  0  0  0
 11 30  1  0  0  0  0
 12 16  2  0  0  0  0
 12 13  1  0  0  0  0
 13 14  2  0  0  0  0
 13 31  1  0  0  0  0
 14 15  1  0  0  0  0
 14 32  1  0  0  0  0
 15 16  1  0  0  0  0
M  END
> <s_m_source_file>
AV-unprocessed.smi

> <i_m_source_file_index>
2926

> <i_lp_mmshare_version>
43012

> <i_f3d_flags>
0

> <s_epik_input>
W0NIM11bQ0hdKFtDSDNdKVtDQEBIXShbQ0gyXVtPSF0pW05IXVMoPU8pKD1PKVtDSDJdYzFbY0hdW2NIXW9uMQ==

> <s_epik_cmdline>
J2VwaWtfcHl0aG9uJywgJy1waCcsICc3LjAnLCAnLXRuJywgJzgnLCAnLW1hJywgJzIwMCcsICctbWV0YWxfYmluZGluZycsICctaW1hZScsICc8aW5maWxlLm1hZT4nLCAnLW9tYWUnLCAnPG91dGZpbGUubWFlPic=

> <r_lp_tautomer_probability>
1

> <r_epik_Ionization_Penalty>
0.000193122

> <r_epik_Ionization_Penalty_Charging>
0

> <r_epik_Ionization_Penalty_Neutral>
0.000193122

> <r_epik_State_Penalty>
-0

> <r_epik_Charging_Adjusted_Penalty>
0

> <i_epik_Tot_Q>
0

> <i_epik_Tot_abs_Q>
0

> <r_epik_Metal_State_Penalty>
0.130256

> <b_epik_Metal_Only>
0

> <s_lp_Force_Field>
OPLS_2005

> <r_lp_Energy>
6.6882

> <b_lp_Chiralities_Consistent>
1

> <s_lp_Variant>
AV-unprocessed.smi:2926-1

> <Gold.Version>
5.8.1

> <Gold.Id.Protein>
6NUR|6NUR_protein|mol2

> <Gold.PLP.Fitness>
38.3570

> <Gold.PLP.PLP>
-27.1413

> <Gold.PLP.part.hbond>
-6.5355

> <Gold.PLP.part.metal>
0.0000

> <Gold.PLP.part.buried>
-2.4460

> <Gold.PLP.part.nonpolar>
-18.0135

> <Gold.PLP.part.repulsive>
0.2552

> <Gold.PLP.ligand.clash>
0.6612

> <Gold.PLP.ligand.torsion>
1.5007

> <Gold.PLP.Chemscore.Hbond>
4.8925

> <Gold.PLP.Chemscore.CHOScore>
0.0000

> <Gold.PLP.Chemscore.Metal>
0.0000

> <Gold.Chemscore.Hbonds>
donor molecule, donor type, donor heavy atom, donor atom, acceptor molecule, acceptor atom, score
      L1  H     6    27       P1  7948  0.86
      L1  H     7    28       P1  7948  1.00
      P1  H  6896  6909       L1    15  1.00
      P1  H  7954  7966       L1     6  0.85
      P1  H  7989  7998       L1    10  1.00
      P1  H 10752 10763       L1     9  0.18

> <Gold.PLP.Chemscore.Internal.Correction>
0.2007

> <Gold.Rescore>
     Score         DG    S(hbond)    S(metal)    S(lipo)     H(rot)  DE(clash)    DE(int)     intcor
     16.26     -18.44       4.46        0.00      48.02       2.96       0.06       2.12       ----

> <Gold.Chemscore.Fitness>
16.2589

> <Gold.Chemscore.DG>
-18.4351

> <Gold.Chemscore.ZeroCoef>
-5.4800

> <Gold.Chemscore.Hbond>
4.4627

> <Gold.Chemscore.Metal>
0.0000

> <Gold.Chemscore.Lipo>
48.0194

> <Gold.Chemscore.Internal_Hbond>
0.0000

> <Gold.Chemscore.DEClash>
0.0592

> <Gold.Chemscore.DEInternal>
2.1171

> <Gold.Chemscore.Rot>
2.9564

> <Gold.Chemscore.Internal.Correction>
   9.000000E+99

> <Gold.Chemscore.Hbonds>
donor molecule, donor type, donor heavy atom, donor atom, acceptor molecule, acceptor atom, score
      L1  H     6    27       P1  7948  0.82
      L1  H     7    28       P1  7948  0.98
      P1  H  6896  6909       L1    15  0.71
      P1  H  7954  7966       L1     6  0.14
      P1  H  7989  7998       L1    10  0.99
      P1  H 10752 10763       L1     9  0.19

> <Gold.Chemscore.Hbond.Weighted>
-14.9054

> <Gold.Chemscore.Metal.Weighted>
-0.0000

> <Gold.Chemscore.Lipo.Weighted>
-5.6183

> <Gold.Chemscore.Internal_Hbond.Weighted>
0.0000

> <Gold.Chemscore.DEClash.Weighted>
0.0592

> <Gold.Chemscore.DEInternal.Weighted>
2.1171

> <Gold.Chemscore.Rot.Weighted>
7.5685

> <Gold.Chemscore.Internal.Correction.Weighted>
   9.000000E+99

> <Gold.Protein.RotatedTorsions>
[ 6907 6896 6895 6894 ] final   82.88 input  -60.11 | X-H torsion
[ 7974 7965 7964 7962 ] final -169.86 input  175.53 | X-H torsion
[ 8008 7997 7996 7995 ] final   53.00 input   59.86 | X-H torsion
[ 10167 10162 10161 10158 ] final  -41.74 input  -65.29 | X-H torsion
[ 10718 10713 10712 10709 ] final  163.78 input   66.30 | X-H torsion
[ 10763 10752 10751 10750 ] final   46.75 input  -60.55 | X-H torsion
[ 11005 11000 10999 10996 ] final   79.69 input  -57.11 | X-H torsion

> <Gold.Protein.ActiveResidues>
 VAL166  LYS551  ARG553  GLY616  TRP617  ASP618  TYR619  PRO620  LYS621  CYS622 
 ASP623  PHE694  ASN695  SER759  ASP760  ASP761  ALA762  ILE779  LEU786  VAL792 
 PHE793  MET794  SER795  GLU796  ALA797  LYS798  CYS799  TRP800  GLU811  SER814 

> <Gold.Protein.RotatedAtoms>
  152.5312  134.2981  159.9067 H   0  0  0  0  0  0  0  0  0  0  0  0  # atno 6907 bound_to 6896
  151.2932  133.4149  159.2642 H   0  0  0  0  0  0  0  0  0  0  0  0  # atno 6908 bound_to 6896
  151.0183  134.9465  159.8102 H   0  0  0  0  0  0  0  0  0  0  0  0  # atno 6909 bound_to 6896
  144.7179  140.2158  143.6322 H   0  0  0  0  0  0  0  0  0  0  0  0  # atno 7974 bound_to 7965
  155.4610  140.3462  155.4313 H   0  0  0  0  0  0  0  0  0  0  0  0  # atno 8008 bound_to 7997
  156.1160  140.1474  156.9301 H   0  0  0  0  0  0  0  0  0  0  0  0  # atno 8009 bound_to 7997
  154.4790  140.0876  156.7310 H   0  0  0  0  0  0  0  0  0  0  0  0  # atno 8010 bound_to 7997
  140.6992  143.3077  151.3110 H   0  0  0  0  0  0  0  0  0  0  0  0  # atno 10167 bound_to 10162
  157.1036  131.0449  151.2487 H   0  0  0  0  0  0  0  0  0  0  0  0  # atno 10718 bound_to 10713
  152.9807  135.5998  154.3650 H   0  0  0  0  0  0  0  0  0  0  0  0  # atno 10763 bound_to 10752
  154.3328  135.2768  155.2465 H   0  0  0  0  0  0  0  0  0  0  0  0  # atno 10764 bound_to 10752
  154.4581  135.5973  153.6292 H   0  0  0  0  0  0  0  0  0  0  0  0  # atno 10765 bound_to 10752
  139.9163  134.7862  156.1811 H   0  0  0  0  0  0  0  0  0  0  0  0  # atno 11005 bound_to 11000
  145.8548  139.2193  143.1751 LP  0  0  0  0  0  0  0  0  0  0  0  0  # atno 17320 bound_to 7965
  146.0228  140.8332  142.9915 LP  0  0  0  0  0  0  0  0  0  0  0  0  # atno 17321 bound_to 7965
  139.6488  144.0400  152.2611 LP  0  0  0  0  0  0  0  0  0  0  0  0  # atno 17342 bound_to 10162
  139.9930  144.6348  150.7797 LP  0  0  0  0  0  0  0  0  0  0  0  0  # atno 17343 bound_to 10162
  157.4620  130.7658  149.7244 LP  0  0  0  0  0  0  0  0  0  0  0  0  # atno 17370 bound_to 10713
  155.9867  130.3972  150.3198 LP  0  0  0  0  0  0  0  0  0  0  0  0  # atno 17371 bound_to 10713
  141.0641  133.6827  156.2011 LP  0  0  0  0  0  0  0  0  0  0  0  0  # atno 17394 bound_to 11000
  140.6613  134.4965  157.5583 LP  0  0  0  0  0  0  0  0  0  0  0  0  # atno 17395 bound_to 11000

$$$$
