AV-unprocessed.smi:203|AV-procd|sdf|1584|dock3
  -GOLD-   2262019473D 1   1.00000     0.00000
 Structure written by MMmdl.
 57 61  0  0  0  0  0  0  0  0  1 V2000
  153.0767  136.7280  159.2435 O   0  0  0  0  0  0  0  0  0  0  0  0
  152.6638  137.7409  158.6840 C   0  0  0  0  0  0  0  0  0  0  0  0
  151.3787  138.4489  159.0756 C   0  0  0  0  0  0  0  0  0  0  0  0
  151.4150  139.7520  158.2536 C   0  0  1  0  0  0  0  0  0  0  0  0
  151.5739  141.0434  159.1178 C   0  0  1  0  0  0  0  0  0  0  0  0
  153.0401  141.2987  159.5557 C   0  0  0  0  0  0  0  0  0  0  0  0
  153.1627  142.5659  160.4126 C   0  0  0  0  0  0  0  0  0  0  0  0
  152.5836  143.7667  159.6566 C   0  0  0  0  0  0  0  0  0  0  0  0
  151.1341  143.4869  159.2379 C   0  0  0  0  0  0  0  0  0  0  0  0
  151.0337  142.2499  158.4646 N   0  0  0  0  0  0  0  0  0  0  0  0
  149.8051  142.1371  157.9128 C   0  0  0  0  0  0  0  0  0  0  0  0
  149.7235  141.5294  156.7041 N   0  0  0  0  0  0  0  0  0  0  0  0
  148.5315  141.3546  156.1257 C   0  0  0  0  0  0  0  0  0  0  0  0
  147.3242  141.6994  156.5796 N   0  0  0  0  0  0  0  0  0  0  0  0
  147.4075  142.3188  157.7920 C   0  0  0  0  0  0  0  0  0  0  0  0
  148.5999  142.5904  158.5183 C   0  0  0  0  0  0  0  0  0  0  0  0
  148.2958  143.2481  159.7039 N   0  0  0  0  0  0  0  0  0  0  0  0
  146.9946  143.3399  159.6900 C   0  0  0  0  0  0  0  0  0  0  0  0
  146.3785  142.7809  158.5931 N   0  0  0  0  0  0  0  0  0  0  0  0
  144.9505  142.7091  158.3417 C   0  0  0  0  0  0  0  0  0  0  0  0
  144.2293  141.6361  159.1916 C   0  0  2  0  0  0  0  0  0  0  0  0
  142.9988  141.3249  158.5714 O   0  0  0  0  0  0  0  0  0  0  0  0
  143.9659  141.9703  160.6803 C   0  0  2  0  0  0  0  0  0  0  0  0
  143.0803  143.1847  160.9683 C   0  0  0  0  0  0  0  0  0  0  0  0
  143.4755  143.5071  162.3920 C   0  0  0  0  0  0  0  0  0  0  0  0
  144.9744  143.2178  162.3808 C   0  0  0  0  0  0  0  0  0  0  0  0
  145.1729  142.1984  161.4042 O   0  0  0  0  0  0  0  0  0  0  0  0
  152.5422  139.5435  157.2177 C   0  0  0  0  0  0  0  0  0  0  0  0
  153.2550  138.3640  157.6671 N   0  0  0  0  0  0  0  0  0  0  0  0
  150.5304  137.8270  158.7882 H   0  0  0  0  0  0  0  0  0  0  0  0
  151.3217  138.6152  160.1513 H   0  0  0  0  0  0  0  0  0  0  0  0
  150.4679  139.7980  157.7163 H   0  0  0  0  0  0  0  0  0  0  0  0
  150.9966  140.8928  160.0304 H   0  0  0  0  0  0  0  0  0  0  0  0
  153.4299  140.4538  160.1222 H   0  0  0  0  0  0  0  0  0  0  0  0
  153.6847  141.4025  158.6828 H   0  0  0  0  0  0  0  0  0  0  0  0
  152.6295  142.4287  161.3542 H   0  0  0  0  0  0  0  0  0  0  0  0
  154.2070  142.7491  160.6665 H   0  0  0  0  0  0  0  0  0  0  0  0
  152.6270  144.6603  160.2795 H   0  0  0  0  0  0  0  0  0  0  0  0
  153.1882  143.9721  158.7724 H   0  0  0  0  0  0  0  0  0  0  0  0
  150.5029  143.4106  160.1246 H   0  0  0  0  0  0  0  0  0  0  0  0
  150.7573  144.3262  158.6511 H   0  0  0  0  0  0  0  0  0  0  0  0
  148.5463  140.8601  155.1658 H   0  0  0  0  0  0  0  0  0  0  0  0
  146.4447  143.8023  160.4967 H   0  0  0  0  0  0  0  0  0  0  0  0
  144.5196  143.6937  158.5287 H   0  0  0  0  0  0  0  0  0  0  0  0
  144.8030  142.5076  157.2802 H   0  0  0  0  0  0  0  0  0  0  0  0
  144.8215  140.7213  159.1619 H   0  0  0  0  0  0  0  0  0  0  0  0
  142.3325  141.8941  158.9247 H   0  0  0  0  0  0  0  0  0  0  0  0
  143.5083  141.0999  161.1543 H   0  0  0  0  0  0  0  0  0  0  0  0
  143.3266  144.0262  160.3225 H   0  0  0  0  0  0  0  0  0  0  0  0
  142.0170  142.9704  160.8583 H   0  0  0  0  0  0  0  0  0  0  0  0
  143.2421  144.5314  162.6828 H   0  0  0  0  0  0  0  0  0  0  0  0
  142.9684  142.8314  163.0822 H   0  0  0  0  0  0  0  0  0  0  0  0
  145.5303  144.1044  162.0749 H   0  0  0  0  0  0  0  0  0  0  0  0
  145.3458  142.9097  163.3582 H   0  0  0  0  0  0  0  0  0  0  0  0
  152.1274  139.3531  156.2271 H   0  0  0  0  0  0  0  0  0  0  0  0
  153.2149  140.3971  157.1331 H   0  0  0  0  0  0  0  0  0  0  0  0
  154.1211  138.0603  157.2461 H   0  0  0  0  0  0  0  0  0  0  0  0
  1  2  2  0  0  0  0
  2 29  1  0  0  0  0
  2  3  1  0  0  0  0
  3  4  1  0  0  0  0
  3 30  1  0  0  0  0
  3 31  1  0  0  0  0
  4  5  1  0  0  0  0
  4 28  1  0  0  0  0
  4 32  1  0  0  0  0
  5 10  1  0  0  0  0
  5  6  1  0  0  0  0
  5 33  1  0  0  0  0
  6  7  1  0  0  0  0
  6 34  1  0  0  0  0
  6 35  1  0  0  0  0
  7  8  1  0  0  0  0
  7 36  1  0  0  0  0
  7 37  1  0  0  0  0
  8  9  1  0  0  0  0
  8 38  1  0  0  0  0
  8 39  1  0  0  0  0
  9 10  1  0  0  0  0
  9 40  1  0  0  0  0
  9 41  1  0  0  0  0
 10 11  1  0  0  0  0
 11 16  1  0  0  0  0
 11 12  2  0  0  0  0
 12 13  1  0  0  0  0
 13 14  2  0  0  0  0
 13 42  1  0  0  0  0
 14 15  1  0  0  0  0
 15 19  1  0  0  0  0
 15 16  2  0  0  0  0
 16 17  1  0  0  0  0
 17 18  2  0  0  0  0
 18 19  1  0  0  0  0
 18 43  1  0  0  0  0
 19 20  1  0  0  0  0
 20 21  1  0  0  0  0
 20 44  1  0  0  0  0
 20 45  1  0  0  0  0
 21 22  1  0  0  0  0
 21 23  1  0  0  0  0
 21 46  1  0  0  0  0
 22 47  1  0  0  0  0
 23 27  1  0  0  0  0
 23 24  1  0  0  0  0
 23 48  1  0  0  0  0
 24 25  1  0  0  0  0
 24 49  1  0  0  0  0
 24 50  1  0  0  0  0
 25 26  1  0  0  0  0
 25 51  1  0  0  0  0
 25 52  1  0  0  0  0
 26 27  1  0  0  0  0
 26 53  1  0  0  0  0
 26 54  1  0  0  0  0
 28 29  1  0  0  0  0
 28 55  1  0  0  0  0
 28 56  1  0  0  0  0
 29 57  1  0  0  0  0
M  END
> <s_m_source_file>
AV-unprocessed.smi

> <i_m_source_file_index>
203

> <i_lp_mmshare_version>
43012

> <i_f3d_flags>
0

> <s_epik_input>
Tz1DMVtDSDJdW0NASF0oW0NIMl1bTkhdMSlbQ0BASF0yW0NIMl1bQ0gyXVtDSDJdW0NIMl1OMmMobltjSF1uMyljKGMzNCluW2NIXW40W0NIMl1bQ0BIXShbT0hdKVtDQEBIXTVbQ0gyXVtDSDJdW0NIMl1PNQ==

> <s_epik_cmdline>
J2VwaWtfcHl0aG9uJywgJy1waCcsICc3LjAnLCAnLXRuJywgJzgnLCAnLW1hJywgJzIwMCcsICctbWV0YWxfYmluZGluZycsICctaW1hZScsICc8aW5maWxlLm1hZT4nLCAnLW9tYWUnLCAnPG91dGZpbGUubWFlPic=

> <r_lp_tautomer_probability>
1

> <r_epik_Ionization_Penalty>
0.00175146

> <r_epik_Ionization_Penalty_Charging>
0

> <r_epik_Ionization_Penalty_Neutral>
0.00175146

> <r_epik_State_Penalty>
0.00109045

> <r_epik_Charging_Adjusted_Penalty>
0.00109045

> <i_epik_Tot_Q>
0

> <i_epik_Tot_abs_Q>
0

> <r_epik_Metal_State_Penalty>
-0

> <b_epik_Metal_Only>
0

> <s_lp_Force_Field>
OPLS_2005

> <r_lp_Energy>
54.964

> <b_lp_Chiralities_Consistent>
1

> <s_lp_Variant>
AV-unprocessed.smi:203-3

> <Gold.Version>
5.8.1

> <Gold.Id.Protein>
6NUR|6NUR_protein|mol2

> <Gold.PLP.Fitness>
43.2179

> <Gold.PLP.PLP>
-40.6324

> <Gold.PLP.part.hbond>
-2.1365

> <Gold.PLP.part.metal>
0.0000

> <Gold.PLP.part.buried>
-7.7580

> <Gold.PLP.part.nonpolar>
-32.4713

> <Gold.PLP.part.repulsive>
0.4661

> <Gold.PLP.ligand.clash>
0.0161

> <Gold.PLP.ligand.torsion>
1.4430

> <Gold.PLP.Chemscore.Hbond>
1.7186

> <Gold.PLP.Chemscore.CHOScore>
0.0000

> <Gold.PLP.Chemscore.Metal>
0.0000

> <Gold.Chemscore.Hbonds>
donor molecule, donor type, donor heavy atom, donor atom, acceptor molecule, acceptor atom, score
      P1  H  6896  6907       L1     1  0.75
      P1  H  6933  6944       L1    17  0.65
      P1  H  6934  6946       L1    27  0.32

> <Gold.PLP.Chemscore.Internal.Correction>
0.3317

> <Gold.Rescore>
     Score         DG    S(hbond)    S(metal)    S(lipo)     H(rot)  DE(clash)    DE(int)     intcor
     10.58     -15.80       1.99        0.00      90.95       2.72       0.09       5.13       ----

> <Gold.Chemscore.Fitness>
10.5825

> <Gold.Chemscore.DG>
-15.8003

> <Gold.Chemscore.ZeroCoef>
-5.4800

> <Gold.Chemscore.Hbond>
1.9866

> <Gold.Chemscore.Metal>
0.0000

> <Gold.Chemscore.Lipo>
90.9475

> <Gold.Chemscore.Internal_Hbond>
0.0000

> <Gold.Chemscore.DEClash>
0.0857

> <Gold.Chemscore.DEInternal>
5.1321

> <Gold.Chemscore.Rot>
2.7171

> <Gold.Chemscore.Internal.Correction>
   9.000000E+99

> <Gold.Chemscore.Hbonds>
donor molecule, donor type, donor heavy atom, donor atom, acceptor molecule, acceptor atom, score
      P1  H  6896  6907       L1     1  0.70
      P1  H  6933  6944       L1    17  0.14
      P1  H  6934  6946       L1    27  0.28

> <Gold.Chemscore.Hbond.Weighted>
-6.6352

> <Gold.Chemscore.Metal.Weighted>
-0.0000

> <Gold.Chemscore.Lipo.Weighted>
-10.6409

> <Gold.Chemscore.Internal_Hbond.Weighted>
0.0000

> <Gold.Chemscore.DEClash.Weighted>
0.0857

> <Gold.Chemscore.DEInternal.Weighted>
5.1321

> <Gold.Chemscore.Rot.Weighted>
6.9557

> <Gold.Chemscore.Internal.Correction.Weighted>
   9.000000E+99

> <Gold.Protein.RotatedTorsions>
[ 6907 6896 6895 6894 ] final   23.80 input  -60.11 | X-H torsion
[ 7974 7965 7964 7962 ] final  -60.08 input  175.53 | X-H torsion
[ 8008 7997 7996 7995 ] final -169.46 input   59.86 | X-H torsion
[ 10167 10162 10161 10158 ] final  -66.68 input  -65.29 | X-H torsion
[ 10718 10713 10712 10709 ] final  -55.62 input   66.30 | X-H torsion
[ 10763 10752 10751 10750 ] final  137.72 input  -60.55 | X-H torsion
[ 11005 11000 10999 10996 ] final  -61.35 input  -57.11 | X-H torsion

> <Gold.Protein.ActiveResidues>
 VAL166  LYS551  ARG553  GLY616  TRP617  ASP618  TYR619  PRO620  LYS621  CYS622 
 ASP623  PHE694  ASN695  SER759  ASP760  ASP761  ALA762  ILE779  LEU786  VAL792 
 PHE793  MET794  SER795  GLU796  ALA797  LYS798  CYS799  TRP800  GLU811  SER814 

> <Gold.Protein.RotatedAtoms>
  151.9479  135.0183  160.0539 H   0  0  0  0  0  0  0  0  0  0  0  0  # atno 6907 bound_to 6896
  152.1979  133.4815  159.5051 H   0  0  0  0  0  0  0  0  0  0  0  0  # atno 6908 bound_to 6896
  150.6948  134.1545  159.4196 H   0  0  0  0  0  0  0  0  0  0  0  0  # atno 6909 bound_to 6896
  145.8198  140.8547  143.0138 H   0  0  0  0  0  0  0  0  0  0  0  0  # atno 7974 bound_to 7965
  155.9052  140.1048  157.1320 H   0  0  0  0  0  0  0  0  0  0  0  0  # atno 8008 bound_to 7997
  154.4031  140.1285  156.4552 H   0  0  0  0  0  0  0  0  0  0  0  0  # atno 8009 bound_to 7997
  155.7375  140.3467  155.5091 H   0  0  0  0  0  0  0  0  0  0  0  0  # atno 8010 bound_to 7997
  140.5639  143.2314  151.6673 H   0  0  0  0  0  0  0  0  0  0  0  0  # atno 10167 bound_to 10162
  156.1354  130.4157  150.0195 H   0  0  0  0  0  0  0  0  0  0  0  0  # atno 10718 bound_to 10713
  153.8777  135.3048  155.3444 H   0  0  0  0  0  0  0  0  0  0  0  0  # atno 10763 bound_to 10752
  154.7776  135.4853  153.9780 H   0  0  0  0  0  0  0  0  0  0  0  0  # atno 10764 bound_to 10752
  153.1369  135.6816  153.9184 H   0  0  0  0  0  0  0  0  0  0  0  0  # atno 10765 bound_to 10752
  141.1321  133.6629  156.5362 H   0  0  0  0  0  0  0  0  0  0  0  0  # atno 11005 bound_to 11000
  144.6749  140.0517  143.7478 LP  0  0  0  0  0  0  0  0  0  0  0  0  # atno 17320 bound_to 7965
  145.9687  139.2853  143.1112 LP  0  0  0  0  0  0  0  0  0  0  0  0  # atno 17321 bound_to 7965
  139.5083  144.3615  152.0558 LP  0  0  0  0  0  0  0  0  0  0  0  0  # atno 17342 bound_to 10162
  140.2744  144.3928  150.6140 LP  0  0  0  0  0  0  0  0  0  0  0  0  # atno 17343 bound_to 10162
  156.8096  130.9320  151.3644 LP  0  0  0  0  0  0  0  0  0  0  0  0  # atno 17370 bound_to 10713
  157.6527  130.8898  149.9666 LP  0  0  0  0  0  0  0  0  0  0  0  0  # atno 17371 bound_to 10713
  140.4176  134.7216  157.4872 LP  0  0  0  0  0  0  0  0  0  0  0  0  # atno 17394 bound_to 11000
  140.0383  134.6305  155.9015 LP  0  0  0  0  0  0  0  0  0  0  0  0  # atno 17395 bound_to 11000

$$$$
