AV-unprocessed.smi:438|AV-procd|sdf|2566|dock4
  -GOLD-   2262022543D 1   1.00000     0.00000
 Structure written by MMmdl.
 48 49  0  0  0  0  0  0  0  0  1 V2000
  148.0768  133.0671  160.4160 C   0  0  0  0  0  0  0  0  0  0  0  0
  148.6660  134.4512  160.6243 C   0  0  0  0  0  0  0  0  0  0  0  0
  149.5625  134.8769  159.6376 N   0  0  0  0  0  0  0  0  0  0  0  0
  150.0979  136.0537  159.7043 C   0  0  0  0  0  0  0  0  0  0  0  0
  151.2532  136.8670  158.5563 S   0  0  0  0  0  0  0  0  0  0  0  0
  151.9963  138.1599  159.5992 C   0  0  0  0  0  0  0  0  0  0  0  0
  152.2476  139.4663  158.8457 C   0  0  0  0  0  0  0  0  0  0  0  0
  152.9187  139.4606  157.8144 O   0  0  0  0  0  0  0  0  0  0  0  0
  151.7281  140.5759  159.3985 N   0  0  0  0  0  0  0  0  0  0  0  0
  151.9322  141.9638  158.9792 C   0  0  1  0  0  0  0  0  0  0  0  0
  150.6275  142.5837  158.4334 C   0  0  0  0  0  0  0  0  0  0  0  0
  150.8709  144.0000  157.8938 C   0  0  0  0  0  0  0  0  0  0  0  0
  151.5071  144.8959  158.9673 C   0  0  0  0  0  0  0  0  0  0  0  0
  152.8080  144.2815  159.5097 C   0  0  0  0  0  0  0  0  0  0  0  0
  152.5854  142.8599  160.0656 C   0  0  2  0  0  0  0  0  0  0  0  0
  153.9037  142.2767  160.6043 C   0  0  0  0  0  0  0  0  0  0  0  0
  149.8025  136.9020  160.7717 N   0  0  0  0  0  0  0  0  0  0  0  0
  148.9597  136.5833  161.7793 C   0  0  0  0  0  0  0  0  0  0  0  0
  148.7433  137.3847  162.6870 O   0  0  0  0  0  0  0  0  0  0  0  0
  148.3517  135.2450  161.6866 C   0  0  0  0  0  0  0  0  0  0  0  0
  147.3676  134.8352  162.7821 C   0  0  0  0  0  0  0  0  0  0  0  0
  148.0119  134.7461  164.1767 C   0  0  0  0  0  0  0  0  0  0  0  0
  147.1124  134.1897  165.1121 O   0  0  0  0  0  0  0  0  0  0  0  0
  148.2405  132.4404  161.2926 H   0  0  0  0  0  0  0  0  0  0  0  0
  148.5311  132.5677  159.5592 H   0  0  0  0  0  0  0  0  0  0  0  0
  147.0046  133.1352  160.2310 H   0  0  0  0  0  0  0  0  0  0  0  0
  152.9198  137.7802  160.0389 H   0  0  0  0  0  0  0  0  0  0  0  0
  151.3171  138.3654  160.4267 H   0  0  0  0  0  0  0  0  0  0  0  0
  151.1898  140.4519  160.2440 H   0  0  0  0  0  0  0  0  0  0  0  0
  152.6317  141.9013  158.1444 H   0  0  0  0  0  0  0  0  0  0  0  0
  150.2178  141.9570  157.6401 H   0  0  0  0  0  0  0  0  0  0  0  0
  149.8688  142.6259  159.2155 H   0  0  0  0  0  0  0  0  0  0  0  0
  151.5233  143.9525  157.0210 H   0  0  0  0  0  0  0  0  0  0  0  0
  149.9301  144.4350  157.5548 H   0  0  0  0  0  0  0  0  0  0  0  0
  151.7087  145.8840  158.5528 H   0  0  0  0  0  0  0  0  0  0  0  0
  150.8026  145.0423  159.7870 H   0  0  0  0  0  0  0  0  0  0  0  0
  153.5539  144.2536  158.7143 H   0  0  0  0  0  0  0  0  0  0  0  0
  153.2146  144.9268  160.2892 H   0  0  0  0  0  0  0  0  0  0  0  0
  151.8985  142.9479  160.9079 H   0  0  0  0  0  0  0  0  0  0  0  0
  154.6320  142.1393  159.8045 H   0  0  0  0  0  0  0  0  0  0  0  0
  153.7496  141.3109  161.0858 H   0  0  0  0  0  0  0  0  0  0  0  0
  154.3480  142.9384  161.3482 H   0  0  0  0  0  0  0  0  0  0  0  0
  150.2377  137.8125  160.7966 H   0  0  0  0  0  0  0  0  0  0  0  0
  146.8904  133.8856  162.5424 H   0  0  0  0  0  0  0  0  0  0  0  0
  146.5535  135.5608  162.8062 H   0  0  0  0  0  0  0  0  0  0  0  0
  148.9218  134.1459  164.1531 H   0  0  0  0  0  0  0  0  0  0  0  0
  148.2964  135.7410  164.5201 H   0  0  0  0  0  0  0  0  0  0  0  0
  146.6618  134.8949  165.5518 H   0  0  0  0  0  0  0  0  0  0  0  0
  1 24  1  0  0  0  0
  1 25  1  0  0  0  0
  1 26  1  0  0  0  0
  1  2  1  0  0  0  0
  2 20  2  0  0  0  0
  2  3  1  0  0  0  0
  3  4  2  0  0  0  0
  4  5  1  0  0  0  0
  4 17  1  0  0  0  0
  5  6  1  0  0  0  0
  6  7  1  0  0  0  0
  6 27  1  0  0  0  0
  6 28  1  0  0  0  0
  7  8  2  0  0  0  0
  7  9  1  0  0  0  0
  9 10  1  0  0  0  0
  9 29  1  0  0  0  0
 10 15  1  0  0  0  0
 10 11  1  0  0  0  0
 10 30  1  0  0  0  0
 11 12  1  0  0  0  0
 11 31  1  0  0  0  0
 11 32  1  0  0  0  0
 12 13  1  0  0  0  0
 12 33  1  0  0  0  0
 12 34  1  0  0  0  0
 13 14  1  0  0  0  0
 13 35  1  0  0  0  0
 13 36  1  0  0  0  0
 14 15  1  0  0  0  0
 14 37  1  0  0  0  0
 14 38  1  0  0  0  0
 15 16  1  0  0  0  0
 15 39  1  0  0  0  0
 16 40  1  0  0  0  0
 16 41  1  0  0  0  0
 16 42  1  0  0  0  0
 17 43  1  0  0  0  0
 17 18  1  0  0  0  0
 18 19  2  0  0  0  0
 18 20  1  0  0  0  0
 20 21  1  0  0  0  0
 21 22  1  0  0  0  0
 21 44  1  0  0  0  0
 21 45  1  0  0  0  0
 22 23  1  0  0  0  0
 22 46  1  0  0  0  0
 22 47  1  0  0  0  0
 23 48  1  0  0  0  0
M  END
> <s_m_source_file>
AV-unprocessed.smi

> <i_m_source_file_index>
438

> <i_lp_mmshare_version>
43012

> <i_f3d_flags>
0

> <s_epik_input>
W09IXVtDSDJdW0NIMl1jMWMoW09IXSluYyhuYzFbQ0gzXSlTW0NIMl1DKD1PKVtOSF1bQ0BASF0yW0NIMl1bQ0gyXVtDSDJdW0NIMl1bQ0BIXTJbQ0gzXQ==

> <s_epik_cmdline>
J2VwaWtfcHl0aG9uJywgJy1waCcsICc3LjAnLCAnLXRuJywgJzgnLCAnLW1hJywgJzIwMCcsICctbWV0YWxfYmluZGluZycsICctaW1hZScsICc8aW5maWxlLm1hZT4nLCAnLW9tYWUnLCAnPG91dGZpbGUubWFlPic=

> <r_lp_tautomer_probability>
0.660323

> <r_epik_Ionization_Penalty>
0.00860626

> <r_epik_Ionization_Penalty_Charging>
0.00860522

> <r_epik_Ionization_Penalty_Neutral>
1.04215e-06

> <r_epik_State_Penalty>
0.156825

> <r_epik_Charging_Adjusted_Penalty>
0.16543

> <i_epik_Tot_Q>
0

> <i_epik_Tot_abs_Q>
0

> <r_epik_Metal_State_Penalty>
0.752038

> <b_epik_Metal_Only>
0

> <s_lp_Force_Field>
OPLS_2005

> <r_lp_Energy>
14.076

> <b_lp_Chiralities_Consistent>
1

> <s_lp_Variant>
AV-unprocessed.smi:438-4

> <Gold.Version>
5.8.1

> <Gold.Id.Protein>
6NUR|6NUR_protein|mol2

> <Gold.PLP.Fitness>
47.7380

> <Gold.PLP.PLP>
-40.5334

> <Gold.PLP.part.hbond>
-4.1072

> <Gold.PLP.part.metal>
0.0000

> <Gold.PLP.part.buried>
-4.4710

> <Gold.PLP.part.nonpolar>
-32.3724

> <Gold.PLP.part.repulsive>
0.4063

> <Gold.PLP.ligand.clash>
0.0000

> <Gold.PLP.ligand.torsion>
0.6306

> <Gold.PLP.Chemscore.Hbond>
2.7680

> <Gold.PLP.Chemscore.CHOScore>
0.0000

> <Gold.PLP.Chemscore.Metal>
0.0000

> <Gold.Chemscore.Hbonds>
donor molecule, donor type, donor heavy atom, donor atom, acceptor molecule, acceptor atom, score
      P1  H  6931  6943       L1    19  0.03
      P1  H  7997  8009       L1     8  1.00

> <Gold.PLP.Chemscore.Internal.Correction>
0.1617

> <Gold.Rescore>
     Score         DG    S(hbond)    S(metal)    S(lipo)     H(rot)  DE(clash)    DE(int)     intcor
     18.34     -19.05       2.71        0.00     101.17       2.86       0.04       0.67       ----

> <Gold.Chemscore.Fitness>
18.3406

> <Gold.Chemscore.DG>
-19.0450

> <Gold.Chemscore.ZeroCoef>
-5.4800

> <Gold.Chemscore.Hbond>
2.7128

> <Gold.Chemscore.Metal>
0.0000

> <Gold.Chemscore.Lipo>
101.1742

> <Gold.Chemscore.Internal_Hbond>
0.0000

> <Gold.Chemscore.DEClash>
0.0383

> <Gold.Chemscore.DEInternal>
0.6661

> <Gold.Chemscore.Rot>
2.8645

> <Gold.Chemscore.Internal.Correction>
   9.000000E+99

> <Gold.Chemscore.Hbonds>
donor molecule, donor type, donor heavy atom, donor atom, acceptor molecule, acceptor atom, score
      P1  H  7997  8009       L1     8  1.00

> <Gold.Chemscore.Hbond.Weighted>
-9.0607

> <Gold.Chemscore.Metal.Weighted>
-0.0000

> <Gold.Chemscore.Lipo.Weighted>
-11.8374

> <Gold.Chemscore.Internal_Hbond.Weighted>
0.0000

> <Gold.Chemscore.DEClash.Weighted>
0.0383

> <Gold.Chemscore.DEInternal.Weighted>
0.6661

> <Gold.Chemscore.Rot.Weighted>
7.3331

> <Gold.Chemscore.Internal.Correction.Weighted>
   9.000000E+99

> <Gold.Protein.RotatedTorsions>
[ 6907 6896 6895 6894 ] final  171.22 input  -60.11 | X-H torsion
[ 7974 7965 7964 7962 ] final   72.59 input  175.53 | X-H torsion
[ 8008 7997 7996 7995 ] final  159.28 input   59.86 | X-H torsion
[ 10167 10162 10161 10158 ] final  136.81 input  -65.29 | X-H torsion
[ 10718 10713 10712 10709 ] final   38.39 input   66.30 | X-H torsion
[ 10763 10752 10751 10750 ] final   64.52 input  -60.55 | X-H torsion
[ 11005 11000 10999 10996 ] final -129.09 input  -57.11 | X-H torsion

> <Gold.Protein.ActiveResidues>
 VAL166  LYS551  ARG553  GLY616  TRP617  ASP618  TYR619  PRO620  LYS621  CYS622 
 ASP623  PHE694  ASN695  SER759  ASP760  ASP761  ALA762  ILE779  LEU786  VAL792 
 PHE793  MET794  SER795  GLU796  ALA797  LYS798  CYS799  TRP800  GLU811  SER814 

> <Gold.Protein.RotatedAtoms>
  151.8037  133.3373  159.3534 H   0  0  0  0  0  0  0  0  0  0  0  0  # atno 6907 bound_to 6896
  150.7350  134.5730  159.5909 H   0  0  0  0  0  0  0  0  0  0  0  0  # atno 6908 bound_to 6896
  152.3125  134.7481  160.0384 H   0  0  0  0  0  0  0  0  0  0  0  0  # atno 6909 bound_to 6896
  145.7514  139.2761  143.1429 H   0  0  0  0  0  0  0  0  0  0  0  0  # atno 7974 bound_to 7965
  156.2249  140.1835  156.7387 H   0  0  0  0  0  0  0  0  0  0  0  0  # atno 8008 bound_to 7997
  154.5925  140.0648  156.9286 H   0  0  0  0  0  0  0  0  0  0  0  0  # atno 8009 bound_to 7997
  155.2312  140.3315  155.4305 H   0  0  0  0  0  0  0  0  0  0  0  0  # atno 8010 bound_to 7997
  139.5166  144.6444  151.5479 H   0  0  0  0  0  0  0  0  0  0  0  0  # atno 10167 bound_to 10162
  157.3583  130.7636  149.7029 H   0  0  0  0  0  0  0  0  0  0  0  0  # atno 10718 bound_to 10713
  153.0059  135.5390  154.6523 H   0  0  0  0  0  0  0  0  0  0  0  0  # atno 10763 bound_to 10752
  154.5752  135.2845  155.0790 H   0  0  0  0  0  0  0  0  0  0  0  0  # atno 10764 bound_to 10752
  154.1940  135.6495  153.5120 H   0  0  0  0  0  0  0  0  0  0  0  0  # atno 10765 bound_to 10752
  140.9461  134.1128  157.4106 H   0  0  0  0  0  0  0  0  0  0  0  0  # atno 11005 bound_to 11000
  146.0353  140.8218  142.9856 LP  0  0  0  0  0  0  0  0  0  0  0  0  # atno 17320 bound_to 7965
  144.6849  140.2829  143.7289 LP  0  0  0  0  0  0  0  0  0  0  0  0  # atno 17321 bound_to 7965
  140.6224  143.9234  150.6537 LP  0  0  0  0  0  0  0  0  0  0  0  0  # atno 17342 bound_to 10162
  140.2511  143.3592  152.1404 LP  0  0  0  0  0  0  0  0  0  0  0  0  # atno 17343 bound_to 10162
  155.9733  130.4121  150.4014 LP  0  0  0  0  0  0  0  0  0  0  0  0  # atno 17370 bound_to 10713
  157.2088  131.0455  151.2611 LP  0  0  0  0  0  0  0  0  0  0  0  0  # atno 17371 bound_to 10713
  139.8834  135.0051  156.6295 LP  0  0  0  0  0  0  0  0  0  0  0  0  # atno 17394 bound_to 11000
  140.7668  133.8772  155.8460 LP  0  0  0  0  0  0  0  0  0  0  0  0  # atno 17395 bound_to 11000

$$$$
