AV-unprocessed.smi:2715|AV-procd|sdf|10482|dock9
  -GOLD-   2272014523D 1   1.00000     0.00000
 Structure written by MMmdl.
 38 39  0  0  0  0  0  0  0  0  1 V2000
  148.2203  136.6690  163.7367 C   0  0  0  0  0  0  0  0  0  0  0  0
  148.2519  136.0268  162.3924 C   0  0  0  0  0  0  0  0  0  0  0  0
  148.3884  136.7079  161.2518 N   0  0  0  0  0  0  0  0  0  0  0  0
  148.3846  135.8788  160.1245 C   0  0  0  0  0  0  0  0  0  0  0  0
  148.5233  136.4752  158.7534 C   0  0  0  0  0  0  0  0  0  0  0  0
  149.9008  137.1187  158.5861 C   0  0  0  0  0  0  0  0  0  0  0  0
  150.9055  136.4104  158.5275 O   0  0  0  0  0  0  0  0  0  0  0  0
  149.9313  138.4597  158.5235 N   0  0  0  0  0  0  0  0  0  0  0  0
  151.1295  139.2834  158.3895 C   0  0  0  0  0  0  0  0  0  0  0  0
  150.8800  140.5114  157.4949 C   0  0  0  0  0  0  0  0  0  0  0  0
  151.3336  141.8217  158.1198 C   0  0  0  0  0  0  0  0  0  0  0  0
  152.0044  141.8605  159.2877 C   0  0  0  0  0  0  0  0  0  0  0  0
  152.5162  143.1356  159.9342 C   0  0  0  0  0  0  0  0  0  0  0  0
  152.5044  144.3267  158.9616 C   0  0  0  0  0  0  0  0  0  0  0  0
  151.1970  144.3724  158.1613 C   0  0  0  0  0  0  0  0  0  0  0  0
  150.9995  143.0873  157.3375 C   0  0  0  0  0  0  0  0  0  0  0  0
  148.2515  134.5475  160.4344 C   0  0  0  0  0  0  0  0  0  0  0  0
  148.1168  134.2893  162.1519 S   0  0  0  0  0  0  0  0  0  0  0  0
  148.0784  137.7464  163.6446 H   0  0  0  0  0  0  0  0  0  0  0  0
  149.1581  136.4823  164.2600 H   0  0  0  0  0  0  0  0  0  0  0  0
  147.4011  136.2590  164.3275 H   0  0  0  0  0  0  0  0  0  0  0  0
  148.3868  135.7176  157.9805 H   0  0  0  0  0  0  0  0  0  0  0  0
  147.7516  137.2275  158.5853 H   0  0  0  0  0  0  0  0  0  0  0  0
  149.0501  138.9498  158.5779 H   0  0  0  0  0  0  0  0  0  0  0  0
  151.5174  139.5853  159.3637 H   0  0  0  0  0  0  0  0  0  0  0  0
  151.9043  138.6632  157.9388 H   0  0  0  0  0  0  0  0  0  0  0  0
  151.3988  140.3854  156.5442 H   0  0  0  0  0  0  0  0  0  0  0  0
  149.8181  140.5708  157.2524 H   0  0  0  0  0  0  0  0  0  0  0  0
  152.2097  140.9433  159.8204 H   0  0  0  0  0  0  0  0  0  0  0  0
  151.8928  143.3490  160.8030 H   0  0  0  0  0  0  0  0  0  0  0  0
  153.5289  142.9691  160.3022 H   0  0  0  0  0  0  0  0  0  0  0  0
  152.6489  145.2580  159.5097 H   0  0  0  0  0  0  0  0  0  0  0  0
  153.3436  144.2402  158.2697 H   0  0  0  0  0  0  0  0  0  0  0  0
  150.3601  144.4954  158.8501 H   0  0  0  0  0  0  0  0  0  0  0  0
  151.1841  145.2412  157.5027 H   0  0  0  0  0  0  0  0  0  0  0  0
  151.6321  143.1203  156.4507 H   0  0  0  0  0  0  0  0  0  0  0  0
  149.9689  143.0375  156.9851 H   0  0  0  0  0  0  0  0  0  0  0  0
  148.2210  133.7067  159.7572 H   0  0  0  0  0  0  0  0  0  0  0  0
  1  2  1  0  0  0  0
  1 19  1  0  0  0  0
  1 20  1  0  0  0  0
  1 21  1  0  0  0  0
  2 18  1  0  0  0  0
  2  3  2  0  0  0  0
  3  4  1  0  0  0  0
  4  5  1  0  0  0  0
  4 17  2  0  0  0  0
  5  6  1  0  0  0  0
  5 22  1  0  0  0  0
  5 23  1  0  0  0  0
  6  7  2  0  0  0  0
  6  8  1  0  0  0  0
  8  9  1  0  0  0  0
  8 24  1  0  0  0  0
  9 10  1  0  0  0  0
  9 25  1  0  0  0  0
  9 26  1  0  0  0  0
 10 11  1  0  0  0  0
 10 27  1  0  0  0  0
 10 28  1  0  0  0  0
 11 16  1  0  0  0  0
 11 12  2  0  0  0  0
 12 13  1  0  0  0  0
 12 29  1  0  0  0  0
 13 14  1  0  0  0  0
 13 30  1  0  0  0  0
 13 31  1  0  0  0  0
 14 15  1  0  0  0  0
 14 32  1  0  0  0  0
 14 33  1  0  0  0  0
 15 16  1  0  0  0  0
 15 34  1  0  0  0  0
 15 35  1  0  0  0  0
 16 36  1  0  0  0  0
 16 37  1  0  0  0  0
 17 18  1  0  0  0  0
 17 38  1  0  0  0  0
M  END
> <s_m_source_file>
AV-unprocessed.smi

> <i_m_source_file_index>
2715

> <i_lp_mmshare_version>
43012

> <i_f3d_flags>
0

> <s_epik_input>
W0NIM11jMW5jKFtjSF1zMSlbQ0gyXUMoPU8pW05IXVtDSDJdW0NIMl1DMj1bQ0hdW0NIMl1bQ0gyXVtDSDJdW0NIMl0y

> <s_epik_cmdline>
J2VwaWtfcHl0aG9uJywgJy1waCcsICc3LjAnLCAnLXRuJywgJzgnLCAnLW1hJywgJzIwMCcsICctbWV0YWxfYmluZGluZycsICctaW1hZScsICc8aW5maWxlLm1hZT4nLCAnLW9tYWUnLCAnPG91dGZpbGUubWFlPic=

> <r_lp_tautomer_probability>
1

> <r_epik_Ionization_Penalty>
5.73492e-05

> <r_epik_Ionization_Penalty_Charging>
0

> <r_epik_Ionization_Penalty_Neutral>
5.73492e-05

> <r_epik_State_Penalty>
-0

> <r_epik_Charging_Adjusted_Penalty>
0

> <i_epik_Tot_Q>
0

> <i_epik_Tot_abs_Q>
0

> <r_epik_Metal_State_Penalty>
-0

> <b_epik_Metal_Only>
0

> <s_lp_Force_Field>
OPLS_2005

> <r_lp_Energy>
6.36926

> <b_lp_Chiralities_Consistent>
1

> <s_lp_Variant>
AV-unprocessed.smi:2715-1

> <Gold.Version>
5.8.1

> <Gold.Id.Protein>
6NUR|6NUR_protein|mol2

> <Gold.PLP.Fitness>
48.0359

> <Gold.PLP.PLP>
-41.6570

> <Gold.PLP.part.hbond>
-3.0000

> <Gold.PLP.part.metal>
0.0000

> <Gold.PLP.part.buried>
-2.9329

> <Gold.PLP.part.nonpolar>
-35.8553

> <Gold.PLP.part.repulsive>
0.1962

> <Gold.PLP.ligand.clash>
0.0000

> <Gold.PLP.ligand.torsion>
0.6709

> <Gold.PLP.Chemscore.Hbond>
2.5669

> <Gold.PLP.Chemscore.CHOScore>
0.0000

> <Gold.PLP.Chemscore.Metal>
0.0000

> <Gold.Chemscore.Hbonds>
donor molecule, donor type, donor heavy atom, donor atom, acceptor molecule, acceptor atom, score
      P1  H  6896  6908       L1     7  0.80
      P1  H  6931  6943       L1     3  0.95

> <Gold.PLP.Chemscore.Internal.Correction>
0.0200

> <Gold.Rescore>
     Score         DG    S(hbond)    S(metal)    S(lipo)     H(rot)  DE(clash)    DE(int)     intcor
     20.67     -22.84       2.23        0.00     117.49       1.50       1.49       0.68       ----

> <Gold.Chemscore.Fitness>
20.6652

> <Gold.Chemscore.DG>
-22.8395

> <Gold.Chemscore.ZeroCoef>
-5.4800

> <Gold.Chemscore.Hbond>
2.2287

> <Gold.Chemscore.Metal>
0.0000

> <Gold.Chemscore.Lipo>
117.4943

> <Gold.Chemscore.Internal_Hbond>
0.0000

> <Gold.Chemscore.DEClash>
1.4894

> <Gold.Chemscore.DEInternal>
0.6849

> <Gold.Chemscore.Rot>
1.4965

> <Gold.Chemscore.Internal.Correction>
   9.000000E+99

> <Gold.Chemscore.Hbonds>
donor molecule, donor type, donor heavy atom, donor atom, acceptor molecule, acceptor atom, score
      P1  H  6896  6908       L1     7  0.75
      P1  H  6931  6943       L1     3  0.22

> <Gold.Chemscore.Hbond.Weighted>
-7.4437

> <Gold.Chemscore.Metal.Weighted>
-0.0000

> <Gold.Chemscore.Lipo.Weighted>
-13.7468

> <Gold.Chemscore.Internal_Hbond.Weighted>
0.0000

> <Gold.Chemscore.DEClash.Weighted>
1.4894

> <Gold.Chemscore.DEInternal.Weighted>
0.6849

> <Gold.Chemscore.Rot.Weighted>
3.8311

> <Gold.Chemscore.Internal.Correction.Weighted>
   9.000000E+99

> <Gold.Protein.RotatedTorsions>
[ 6907 6896 6895 6894 ] final -156.72 input  -60.11 | X-H torsion
[ 7974 7965 7964 7962 ] final  -18.21 input  175.53 | X-H torsion
[ 8008 7997 7996 7995 ] final -145.71 input   59.86 | X-H torsion
[ 10167 10162 10161 10158 ] final   19.48 input  -65.29 | X-H torsion
[ 10718 10713 10712 10709 ] final -118.25 input   66.30 | X-H torsion
[ 10763 10752 10751 10750 ] final  169.29 input  -60.55 | X-H torsion
[ 11005 11000 10999 10996 ] final   39.90 input  -57.11 | X-H torsion

> <Gold.Protein.ActiveResidues>
 VAL166  LYS551  ARG553  GLY616  TRP617  ASP618  TYR619  PRO620  LYS621  CYS622 
 ASP623  PHE694  ASN695  SER759  ASP760  ASP761  ALA762  ILE779  LEU786  VAL792 
 PHE793  MET794  SER795  GLU796  ALA797  LYS798  CYS799  TRP800  GLU811  SER814 

> <Gold.Protein.RotatedAtoms>
  151.2919  133.4161  159.2633 H   0  0  0  0  0  0  0  0  0  0  0  0  # atno 6907 bound_to 6896
  151.0270  134.9512  159.8101 H   0  0  0  0  0  0  0  0  0  0  0  0  # atno 6908 bound_to 6896
  152.5337  134.2881  159.9085 H   0  0  0  0  0  0  0  0  0  0  0  0  # atno 6909 bound_to 6896
  146.1903  140.3889  142.8460 H   0  0  0  0  0  0  0  0  0  0  0  0  # atno 7974 bound_to 7965
  155.5475  140.0613  157.2857 H   0  0  0  0  0  0  0  0  0  0  0  0  # atno 8008 bound_to 7997
  154.4431  140.1908  156.0698 H   0  0  0  0  0  0  0  0  0  0  0  0  # atno 8009 bound_to 7997
  156.0540  140.3281  155.7387 H   0  0  0  0  0  0  0  0  0  0  0  0  # atno 8010 bound_to 7997
  140.5576  143.9396  150.6620 H   0  0  0  0  0  0  0  0  0  0  0  0  # atno 10167 bound_to 10162
  156.1092  130.6235  150.9267 H   0  0  0  0  0  0  0  0  0  0  0  0  # atno 10718 bound_to 10713
  154.3810  135.2753  155.2211 H   0  0  0  0  0  0  0  0  0  0  0  0  # atno 10763 bound_to 10752
  154.4318  135.5975  153.6077 H   0  0  0  0  0  0  0  0  0  0  0  0  # atno 10764 bound_to 10752
  152.9834  135.5997  154.4053 H   0  0  0  0  0  0  0  0  0  0  0  0  # atno 10765 bound_to 10752
  140.1983  134.3901  155.8109 H   0  0  0  0  0  0  0  0  0  0  0  0  # atno 11005 bound_to 11000
  144.8474  140.6950  143.6190 LP  0  0  0  0  0  0  0  0  0  0  0  0  # atno 17320 bound_to 7965
  145.3813  139.1636  143.4279 LP  0  0  0  0  0  0  0  0  0  0  0  0  # atno 17321 bound_to 7965
  140.2839  143.3371  152.1126 LP  0  0  0  0  0  0  0  0  0  0  0  0  # atno 17342 bound_to 10162
  139.5055  144.6796  151.6042 LP  0  0  0  0  0  0  0  0  0  0  0  0  # atno 17343 bound_to 10162
  157.6272  131.0924  150.8511 LP  0  0  0  0  0  0  0  0  0  0  0  0  # atno 17370 bound_to 10713
  156.8624  130.5118  149.5302 LP  0  0  0  0  0  0  0  0  0  0  0  0  # atno 17371 bound_to 10713
  141.2227  133.7081  156.8214 LP  0  0  0  0  0  0  0  0  0  0  0  0  # atno 17394 bound_to 11000
  140.2082  134.8847  157.3245 LP  0  0  0  0  0  0  0  0  0  0  0  0  # atno 17395 bound_to 11000

$$$$
