AV-unprocessed.smi:2610|AV-procd|sdf|10208|dock2
  -GOLD-   2272014213D 1   1.00000     0.00000
 Structure written by MMmdl.
 45 47  0  0  0  0  0  0  0  0  1 V2000
  150.4089  135.5821  155.0245 C   0  0  0  0  0  0  0  0  0  0  0  0
  150.9277  136.9744  154.6496 C   0  0  0  0  0  0  0  0  0  0  0  0
  151.3102  137.8100  155.8792 C   0  0  0  0  0  0  0  0  0  0  0  0
  151.7868  139.2215  155.5070 C   0  0  0  0  0  0  0  0  0  0  0  0
  151.8887  140.1244  156.7006 C   0  0  0  0  0  0  0  0  0  0  0  0
  152.7648  139.8838  157.6763 N   0  0  0  0  0  0  0  0  0  0  0  0
  152.5956  140.9680  158.5128 C   0  0  0  0  0  0  0  0  0  0  0  0
  153.2431  141.2998  159.7243 C   0  0  0  0  0  0  0  0  0  0  0  0
  152.9164  142.4902  160.4056 C   0  0  0  0  0  0  0  0  0  0  0  0
  151.9422  143.3653  159.8844 C   0  0  0  0  0  0  0  0  0  0  0  0
  151.2834  143.0519  158.6802 C   0  0  0  0  0  0  0  0  0  0  0  0
  151.6053  141.8572  158.0073 C   0  0  0  0  0  0  0  0  0  0  0  0
  151.1504  141.2578  156.8342 N   0  0  0  0  0  0  0  0  0  0  0  0
  150.1238  141.7828  155.9364 C   0  0  0  0  0  0  0  0  0  0  0  0
  148.6670  141.6279  156.4519 C   0  0  0  0  0  0  0  0  0  0  0  0
  147.7841  142.1223  155.4610 O   0  0  0  0  0  0  0  0  0  0  0  0
  148.2824  140.1611  156.7430 C   0  0  0  0  0  0  0  0  0  0  0  0
  146.9176  140.0468  157.4450 C   0  0  0  0  0  0  0  0  0  0  0  0
  146.9143  140.8261  158.6347 O   0  0  0  0  0  0  0  0  0  0  0  0
  147.0927  142.2144  158.3829 C   0  0  0  0  0  0  0  0  0  0  0  0
  148.4666  142.4617  157.7340 C   0  0  0  0  0  0  0  0  0  0  0  0
  150.1503  135.0111  154.1326 H   0  0  0  0  0  0  0  0  0  0  0  0
  149.5167  135.6487  155.6478 H   0  0  0  0  0  0  0  0  0  0  0  0
  151.1613  135.0163  155.5748 H   0  0  0  0  0  0  0  0  0  0  0  0
  151.7933  136.8697  153.9945 H   0  0  0  0  0  0  0  0  0  0  0  0
  150.1654  137.4993  154.0727 H   0  0  0  0  0  0  0  0  0  0  0  0
  150.4544  137.8801  156.5520 H   0  0  0  0  0  0  0  0  0  0  0  0
  152.0971  137.2969  156.4333 H   0  0  0  0  0  0  0  0  0  0  0  0
  152.7423  139.1678  154.9892 H   0  0  0  0  0  0  0  0  0  0  0  0
  151.0894  139.6674  154.7966 H   0  0  0  0  0  0  0  0  0  0  0  0
  153.9960  140.6388  160.1275 H   0  0  0  0  0  0  0  0  0  0  0  0
  153.4193  142.7354  161.3296 H   0  0  0  0  0  0  0  0  0  0  0  0
  151.7012  144.2783  160.4093 H   0  0  0  0  0  0  0  0  0  0  0  0
  150.5406  143.7248  158.2798 H   0  0  0  0  0  0  0  0  0  0  0  0
  150.3397  142.8378  155.7634 H   0  0  0  0  0  0  0  0  0  0  0  0
  150.2319  141.3056  154.9621 H   0  0  0  0  0  0  0  0  0  0  0  0
  147.8988  143.0581  155.3968 H   0  0  0  0  0  0  0  0  0  0  0  0
  148.2726  139.5711  155.8262 H   0  0  0  0  0  0  0  0  0  0  0  0
  149.0356  139.7145  157.3922 H   0  0  0  0  0  0  0  0  0  0  0  0
  146.1073  140.3629  156.7863 H   0  0  0  0  0  0  0  0  0  0  0  0
  146.7214  139.0070  157.7074 H   0  0  0  0  0  0  0  0  0  0  0  0
  146.2853  142.5883  157.7516 H   0  0  0  0  0  0  0  0  0  0  0  0
  147.0266  142.7522  159.3288 H   0  0  0  0  0  0  0  0  0  0  0  0
  149.2406  142.2026  158.4577 H   0  0  0  0  0  0  0  0  0  0  0  0
  148.5921  143.5245  157.5221 H   0  0  0  0  0  0  0  0  0  0  0  0
  1  2  1  0  0  0  0
  1 22  1  0  0  0  0
  1 23  1  0  0  0  0
  1 24  1  0  0  0  0
  2  3  1  0  0  0  0
  2 25  1  0  0  0  0
  2 26  1  0  0  0  0
  3  4  1  0  0  0  0
  3 27  1  0  0  0  0
  3 28  1  0  0  0  0
  4  5  1  0  0  0  0
  4 29  1  0  0  0  0
  4 30  1  0  0  0  0
  5 13  1  0  0  0  0
  5  6  2  0  0  0  0
  6  7  1  0  0  0  0
  7 12  2  0  0  0  0
  7  8  1  0  0  0  0
  8  9  2  0  0  0  0
  8 31  1  0  0  0  0
  9 10  1  0  0  0  0
  9 32  1  0  0  0  0
 10 11  2  0  0  0  0
 10 33  1  0  0  0  0
 11 12  1  0  0  0  0
 11 34  1  0  0  0  0
 12 13  1  0  0  0  0
 13 14  1  0  0  0  0
 14 15  1  0  0  0  0
 14 35  1  0  0  0  0
 14 36  1  0  0  0  0
 15 21  1  0  0  0  0
 15 16  1  0  0  0  0
 15 17  1  0  0  0  0
 16 37  1  0  0  0  0
 17 18  1  0  0  0  0
 17 38  1  0  0  0  0
 17 39  1  0  0  0  0
 18 19  1  0  0  0  0
 18 40  1  0  0  0  0
 18 41  1  0  0  0  0
 19 20  1  0  0  0  0
 20 21  1  0  0  0  0
 20 42  1  0  0  0  0
 20 43  1  0  0  0  0
 21 44  1  0  0  0  0
 21 45  1  0  0  0  0
M  END
> <s_m_source_file>
AV-unprocessed.smi

> <i_m_source_file_index>
2610

> <i_lp_mmshare_version>
43012

> <i_f3d_flags>
0

> <s_epik_input>
W0NIM11bQ0gyXVtDSDJdW0NIMl1jKG4xKW4oYyhjMTIpW2NIXVtjSF1bY0hdW2NIXTIpW0NIMl1DMyhbT0hdKVtDSDJdW0NIMl1PW0NIMl1bQ0gyXTM=

> <s_epik_cmdline>
J2VwaWtfcHl0aG9uJywgJy1waCcsICc3LjAnLCAnLXRuJywgJzgnLCAnLW1hJywgJzIwMCcsICctbWV0YWxfYmluZGluZycsICctaW1hZScsICc8aW5maWxlLm1hZT4nLCAnLW9tYWUnLCAnPG91dGZpbGUubWFlPic=

> <r_epik_Ionization_Penalty>
0.224246

> <r_epik_Ionization_Penalty_Charging>
0

> <r_epik_Ionization_Penalty_Neutral>
0.224246

> <r_epik_State_Penalty>
0.214696

> <r_epik_Charging_Adjusted_Penalty>
0.214696

> <i_epik_Tot_Q>
0

> <i_epik_Tot_abs_Q>
0

> <r_epik_Metal_State_Penalty>
0.000258695

> <b_epik_Metal_Only>
0

> <s_lp_Force_Field>
OPLS_2005

> <r_lp_Energy>
13.1565

> <b_lp_Chiralities_Consistent>
1

> <s_lp_Variant>
AV-unprocessed.smi:2610-1

> <Gold.Version>
5.8.1

> <Gold.Id.Protein>
6NUR|6NUR_protein|mol2

> <Gold.PLP.Fitness>
43.2927

> <Gold.PLP.PLP>
-36.9871

> <Gold.PLP.part.hbond>
-3.0000

> <Gold.PLP.part.metal>
0.0000

> <Gold.PLP.part.buried>
-3.2973

> <Gold.PLP.part.nonpolar>
-31.2523

> <Gold.PLP.part.repulsive>
0.0000

> <Gold.PLP.ligand.clash>
0.0000

> <Gold.PLP.ligand.torsion>
0.2418

> <Gold.PLP.Chemscore.Hbond>
2.1591

> <Gold.PLP.Chemscore.CHOScore>
0.0000

> <Gold.PLP.Chemscore.Metal>
0.0000

> <Gold.Chemscore.Hbonds>
donor molecule, donor type, donor heavy atom, donor atom, acceptor molecule, acceptor atom, score
      L1  H    16    37       P1  8028  1.00
      P1  H  6934  6946       L1    19  0.19
      P1  H  7997  8009       L1     6  1.00

> <Gold.PLP.Chemscore.Internal.Correction>
0.3119

> <Gold.Rescore>
     Score         DG    S(hbond)    S(metal)    S(lipo)     H(rot)  DE(clash)    DE(int)     intcor
     16.31     -16.65       1.27        0.00     100.85       1.91       0.01       0.33       ----

> <Gold.Chemscore.Fitness>
16.3102

> <Gold.Chemscore.DG>
-16.6467

> <Gold.Chemscore.ZeroCoef>
-5.4800

> <Gold.Chemscore.Hbond>
1.2713

> <Gold.Chemscore.Metal>
0.0000

> <Gold.Chemscore.Lipo>
100.8507

> <Gold.Chemscore.Internal_Hbond>
0.0000

> <Gold.Chemscore.DEClash>
0.0110

> <Gold.Chemscore.DEInternal>
0.3256

> <Gold.Chemscore.Rot>
1.9059

> <Gold.Chemscore.Internal.Correction>
   9.000000E+99

> <Gold.Chemscore.Hbonds>
donor molecule, donor type, donor heavy atom, donor atom, acceptor molecule, acceptor atom, score
      L1  H    16    37       P1  8028  0.73
      P1  H  6934  6946       L1    19  0.06
      P1  H  7997  8009       L1     6  0.30

> <Gold.Chemscore.Hbond.Weighted>
-4.2462

> <Gold.Chemscore.Metal.Weighted>
-0.0000

> <Gold.Chemscore.Lipo.Weighted>
-11.7995

> <Gold.Chemscore.Internal_Hbond.Weighted>
0.0000

> <Gold.Chemscore.DEClash.Weighted>
0.0110

> <Gold.Chemscore.DEInternal.Weighted>
0.3256

> <Gold.Chemscore.Rot.Weighted>
4.8790

> <Gold.Chemscore.Internal.Correction.Weighted>
   9.000000E+99

> <Gold.Protein.RotatedTorsions>
[ 6907 6896 6895 6894 ] final   18.72 input  -60.11 | X-H torsion
[ 7974 7965 7964 7962 ] final  100.29 input  175.53 | X-H torsion
[ 8008 7997 7996 7995 ] final  163.07 input   59.86 | X-H torsion
[ 10167 10162 10161 10158 ] final   96.03 input  -65.29 | X-H torsion
[ 10718 10713 10712 10709 ] final  161.73 input   66.30 | X-H torsion
[ 10763 10752 10751 10750 ] final  -55.43 input  -60.55 | X-H torsion
[ 11005 11000 10999 10996 ] final -104.18 input  -57.11 | X-H torsion

> <Gold.Protein.ActiveResidues>
 VAL166  LYS551  ARG553  GLY616  TRP617  ASP618  TYR619  PRO620  LYS621  CYS622 
 ASP623  PHE694  ASN695  SER759  ASP760  ASP761  ALA762  ILE779  LEU786  VAL792 
 PHE793  MET794  SER795  GLU796  ALA797  LYS798  CYS799  TRP800  GLU811  SER814 

> <Gold.Protein.RotatedAtoms>
  151.8697  135.0494  160.0477 H   0  0  0  0  0  0  0  0  0  0  0  0  # atno 6907 bound_to 6896
  152.2598  133.5283  159.5383 H   0  0  0  0  0  0  0  0  0  0  0  0  # atno 6908 bound_to 6896
  150.7112  134.0761  159.3924 H   0  0  0  0  0  0  0  0  0  0  0  0  # atno 6909 bound_to 6896
  145.3875  139.2368  143.3370 H   0  0  0  0  0  0  0  0  0  0  0  0  # atno 7974 bound_to 7965
  156.1984  140.1733  156.7950 H   0  0  0  0  0  0  0  0  0  0  0  0  # atno 8008 bound_to 7997
  154.5560  140.0708  156.8774 H   0  0  0  0  0  0  0  0  0  0  0  0  # atno 8009 bound_to 7997
  155.2938  140.3357  155.4253 H   0  0  0  0  0  0  0  0  0  0  0  0  # atno 8010 bound_to 7997
  139.7932  144.6843  150.9863 H   0  0  0  0  0  0  0  0  0  0  0  0  # atno 10167 bound_to 10162
  157.1324  131.0520  151.2365 H   0  0  0  0  0  0  0  0  0  0  0  0  # atno 10718 bound_to 10713
  154.1906  135.6428  153.5059 H   0  0  0  0  0  0  0  0  0  0  0  0  # atno 10763 bound_to 10752
  153.0036  135.5428  154.6419 H   0  0  0  0  0  0  0  0  0  0  0  0  # atno 10764 bound_to 10752
  154.5807  135.2925  155.0709 H   0  0  0  0  0  0  0  0  0  0  0  0  # atno 10765 bound_to 10752
  141.1112  133.8701  157.1578 H   0  0  0  0  0  0  0  0  0  0  0  0  # atno 11005 bound_to 11000
  146.2813  140.4553  142.8775 LP  0  0  0  0  0  0  0  0  0  0  0  0  # atno 17320 bound_to 7965
  144.8463  140.6935  143.6197 LP  0  0  0  0  0  0  0  0  0  0  0  0  # atno 17321 bound_to 7965
  140.7820  143.4358  151.0625 LP  0  0  0  0  0  0  0  0  0  0  0  0  # atno 17342 bound_to 10162
  139.8034  143.8052  152.3165 LP  0  0  0  0  0  0  0  0  0  0  0  0  # atno 17343 bound_to 10162
  157.4381  130.7528  149.7046 LP  0  0  0  0  0  0  0  0  0  0  0  0  # atno 17370 bound_to 10713
  155.9805  130.4029  150.3524 LP  0  0  0  0  0  0  0  0  0  0  0  0  # atno 17371 bound_to 10713
  140.0007  135.0029  157.0184 LP  0  0  0  0  0  0  0  0  0  0  0  0  # atno 17394 bound_to 11000
  140.4769  134.1329  155.7211 LP  0  0  0  0  0  0  0  0  0  0  0  0  # atno 17395 bound_to 11000

$$$$
