AV-unprocessed.smi:109|AV-procd|sdf|1047|dock5
  -GOLD-   2262018 93D 1   1.00000     0.00000
 Structure written by MMmdl.
 58 61  0  0  0  0  0  0  0  0  1 V2000
  150.3014  140.4775  153.6240 O   0  0  0  0  0  0  0  0  0  0  0  0
  149.5905  140.5506  154.8411 C   0  0  0  0  0  0  0  0  0  0  0  0
  150.3629  141.4225  155.8459 C   0  0  0  0  0  0  0  0  0  0  0  0
  149.7751  141.4080  157.2782 C   0  0  2  0  0  0  0  0  0  0  0  0
  148.4306  141.9879  157.2584 N   0  0  0  0  0  0  0  0  0  0  0  0
  147.3753  141.3714  157.8363 C   0  0  0  0  0  0  0  0  0  0  0  0
  147.1841  141.3968  159.1811 N   0  0  0  0  0  0  0  0  0  0  0  0
  146.1299  140.7766  159.7199 C   0  0  0  0  0  0  0  0  0  0  0  0
  145.1638  140.0876  159.1076 N   0  0  0  0  0  0  0  0  0  0  0  0
  145.3548  140.0573  157.7568 C   0  0  0  0  0  0  0  0  0  0  0  0
  146.4268  140.6688  157.0502 C   0  0  0  0  0  0  0  0  0  0  0  0
  146.2881  140.4322  155.6889 N   0  0  0  0  0  0  0  0  0  0  0  0
  145.1924  139.7268  155.6014 C   0  0  0  0  0  0  0  0  0  0  0  0
  144.5664  139.4560  156.7998 N   0  0  0  0  0  0  0  0  0  0  0  0
  143.3026  138.6919  157.0569 C   0  0  2  0  0  0  0  0  0  0  0  0
  143.5223  137.3770  156.6426 O   0  0  0  0  0  0  0  0  0  0  0  0
  142.6693  137.0374  155.5525 C   0  0  2  0  0  0  0  0  0  0  0  0
  143.4303  136.1494  154.5541 C   0  0  0  0  0  0  0  0  0  0  0  0
  143.0299  136.4330  153.2308 O   0  0  0  0  0  0  0  0  0  0  0  0
  142.1768  138.3750  154.9873 C   0  0  1  0  0  0  0  0  0  0  0  0
  140.8845  138.2420  154.4301 O   0  0  0  0  0  0  0  0  0  0  0  0
  142.1269  139.2476  156.2303 C   0  0  2  0  0  0  0  0  0  0  0  0
  142.2471  140.6179  155.8915 O   0  0  0  0  0  0  0  0  0  0  0  0
  150.6475  142.1696  158.3176 C   0  0  0  0  0  0  0  0  0  0  0  0
  150.8066  143.6763  157.9933 C   0  0  0  0  0  0  0  0  0  0  0  0
  151.7028  144.4043  159.0088 C   0  0  0  0  0  0  0  0  0  0  0  0
  153.0829  143.7446  159.1148 C   0  0  0  0  0  0  0  0  0  0  0  0
  152.9436  142.2585  159.4647 C   0  0  0  0  0  0  0  0  0  0  0  0
  152.0548  141.5298  158.4451 C   0  0  0  0  0  0  0  0  0  0  0  0
  143.1528  138.7507  158.1354 H   0  0  0  0  0  0  0  0  0  0  0  0
  141.8329  136.4846  155.9845 H   0  0  0  0  0  0  0  0  0  0  0  0
  142.8807  138.7717  154.2539 H   0  0  0  0  0  0  0  0  0  0  0  0
  141.2093  139.0724  156.7943 H   0  0  0  0  0  0  0  0  0  0  0  0
  149.6790  140.4665  152.9131 H   0  0  0  0  0  0  0  0  0  0  0  0
  148.6008  140.9603  154.6392 H   0  0  0  0  0  0  0  0  0  0  0  0
  149.4546  139.5422  155.2327 H   0  0  0  0  0  0  0  0  0  0  0  0
  151.3858  141.0503  155.8612 H   0  0  0  0  0  0  0  0  0  0  0  0
  150.4141  142.4492  155.4803 H   0  0  0  0  0  0  0  0  0  0  0  0
  149.7399  140.3700  157.6085 H   0  0  0  0  0  0  0  0  0  0  0  0
  148.3796  142.9400  156.9253 H   0  0  0  0  0  0  0  0  0  0  0  0
  146.0486  140.8438  160.7947 H   0  0  0  0  0  0  0  0  0  0  0  0
  144.8105  139.3868  154.6511 H   0  0  0  0  0  0  0  0  0  0  0  0
  144.5082  136.2812  154.6459 H   0  0  0  0  0  0  0  0  0  0  0  0
  143.2169  135.0988  154.7522 H   0  0  0  0  0  0  0  0  0  0  0  0
  143.2872  137.3177  153.0212 H   0  0  0  0  0  0  0  0  0  0  0  0
  140.9549  138.3291  153.4915 H   0  0  0  0  0  0  0  0  0  0  0  0
  142.1542  140.7038  154.9548 H   0  0  0  0  0  0  0  0  0  0  0  0
  150.1563  142.0924  159.2891 H   0  0  0  0  0  0  0  0  0  0  0  0
  151.2195  143.7954  156.9908 H   0  0  0  0  0  0  0  0  0  0  0  0
  149.8408  144.1788  157.9941 H   0  0  0  0  0  0  0  0  0  0  0  0
  151.8136  145.4506  158.7223 H   0  0  0  0  0  0  0  0  0  0  0  0
  151.2207  144.4020  159.9874 H   0  0  0  0  0  0  0  0  0  0  0  0
  153.6161  143.8519  158.1694 H   0  0  0  0  0  0  0  0  0  0  0  0
  153.6836  144.2520  159.8702 H   0  0  0  0  0  0  0  0  0  0  0  0
  153.9284  141.7919  159.4989 H   0  0  0  0  0  0  0  0  0  0  0  0
  152.5172  142.1543  160.4632 H   0  0  0  0  0  0  0  0  0  0  0  0
  151.9804  140.4850  158.7468 H   0  0  0  0  0  0  0  0  0  0  0  0
  152.5461  141.5304  157.4713 H   0  0  0  0  0  0  0  0  0  0  0  0
  1  2  1  0  0  0  0
  1 34  1  0  0  0  0
  2  3  1  0  0  0  0
  2 35  1  0  0  0  0
  2 36  1  0  0  0  0
  3  4  1  0  0  0  0
  3 37  1  0  0  0  0
  3 38  1  0  0  0  0
  4  5  1  0  0  0  0
  4 24  1  0  0  0  0
  4 39  1  0  0  0  0
  5  6  1  0  0  0  0
  5 40  1  0  0  0  0
  6 11  1  0  0  0  0
  6  7  2  0  0  0  0
  7  8  1  0  0  0  0
  8  9  2  0  0  0  0
  8 41  1  0  0  0  0
  9 10  1  0  0  0  0
 10 14  1  0  0  0  0
 10 11  2  0  0  0  0
 11 12  1  0  0  0  0
 12 13  2  0  0  0  0
 13 14  1  0  0  0  0
 13 42  1  0  0  0  0
 14 15  1  0  0  0  0
 15 30  1  0  0  0  0
 15 22  1  0  0  0  0
 15 16  1  0  0  0  0
 16 17  1  0  0  0  0
 17 31  1  0  0  0  0
 17 18  1  0  0  0  0
 17 20  1  0  0  0  0
 18 19  1  0  0  0  0
 18 43  1  0  0  0  0
 18 44  1  0  0  0  0
 19 45  1  0  0  0  0
 20 32  1  0  0  0  0
 20 21  1  0  0  0  0
 20 22  1  0  0  0  0
 21 46  1  0  0  0  0
 22 33  1  0  0  0  0
 22 23  1  0  0  0  0
 23 47  1  0  0  0  0
 24 29  1  0  0  0  0
 24 25  1  0  0  0  0
 24 48  1  0  0  0  0
 25 26  1  0  0  0  0
 25 49  1  0  0  0  0
 25 50  1  0  0  0  0
 26 27  1  0  0  0  0
 26 51  1  0  0  0  0
 26 52  1  0  0  0  0
 27 28  1  0  0  0  0
 27 53  1  0  0  0  0
 27 54  1  0  0  0  0
 28 29  1  0  0  0  0
 28 55  1  0  0  0  0
 28 56  1  0  0  0  0
 29 57  1  0  0  0  0
 29 58  1  0  0  0  0
M  END
> <s_m_source_file>
AV-unprocessed.smi

> <i_m_source_file_index>
109

> <i_lp_mmshare_version>
43012

> <i_f3d_flags>
0

> <s_epik_input>
W0NIMl0xW0NIMl1bQ0gyXVtDSDJdW0NIMl1bQ0hdMVtDQEhdKFtDSDJdW0NIMl1bT0hdKVtOSF1jKG5bY0hdbjIpYyhjMjMpbltjSF1uM1tDQEBIXTRPW0NASF0oW0NIMl1bT0hdKVtDQEBIXShbT0hdKVtDQEhdNFtPSF0=

> <s_epik_cmdline>
J2VwaWtfcHl0aG9uJywgJy1waCcsICc3LjAnLCAnLXRuJywgJzgnLCAnLW1hJywgJzIwMCcsICctbWV0YWxfYmluZGluZycsICctaW1hZScsICc8aW5maWxlLm1hZT4nLCAnLW9tYWUnLCAnPG91dGZpbGUubWFlPic=

> <r_lp_tautomer_probability>
1

> <r_epik_Ionization_Penalty>
0.000793976

> <r_epik_Ionization_Penalty_Charging>
0

> <r_epik_Ionization_Penalty_Neutral>
0.000793976

> <r_epik_State_Penalty>
-0

> <r_epik_Charging_Adjusted_Penalty>
0

> <i_epik_Tot_Q>
0

> <i_epik_Tot_abs_Q>
0

> <r_epik_Metal_State_Penalty>
-0

> <b_epik_Metal_Only>
0

> <s_epik_Chemistry_Notes>
This compound contains an acetal/aminal-like group ( X-CH(R)-Y where X, Y are N, S, or O) that may be acid/base labile, releasing an aldehyde.

> <s_lp_Force_Field>
OPLS_2005

> <r_lp_Energy>
53.0649

> <b_lp_Chiralities_Consistent>
1

> <s_lp_Variant>
AV-unprocessed.smi:109-17

> <Gold.Version>
5.8.1

> <Gold.Id.Protein>
6NUR|6NUR_protein|mol2

> <Gold.PLP.Fitness>
53.9452

> <Gold.PLP.PLP>
-35.6742

> <Gold.PLP.part.hbond>
-6.8614

> <Gold.PLP.part.metal>
0.0000

> <Gold.PLP.part.buried>
-0.8106

> <Gold.PLP.part.nonpolar>
-28.0794

> <Gold.PLP.part.repulsive>
0.2629

> <Gold.PLP.ligand.clash>
0.0000

> <Gold.PLP.ligand.torsion>
1.4065

> <Gold.PLP.Chemscore.Hbond>
5.9750

> <Gold.PLP.Chemscore.CHOScore>
1.0000

> <Gold.PLP.Chemscore.Metal>
0.0000

> <Gold.Chemscore.Hbonds>
donor molecule, donor type, donor heavy atom, donor atom, acceptor molecule, acceptor atom, score
      L1  H     1    34       P1  7957  0.78
      L1  H     5    40       P1  8028  0.50
      P1  H  7989  7998       L1     1  0.38
      L1  C    13    42       P1 10175  0.64

> <Gold.PLP.Chemscore.Internal.Correction>
0.1591

> <Gold.Rescore>
     Score         DG    S(hbond)    S(metal)    S(lipo)     H(rot)  DE(clash)    DE(int)     intcor
     14.25     -18.67       5.23        0.00      83.13       5.47       1.24       3.19       ----

> <Gold.Chemscore.Fitness>
14.2455

> <Gold.Chemscore.DG>
-18.6700

> <Gold.Chemscore.ZeroCoef>
-5.4800

> <Gold.Chemscore.Hbond>
5.2269

> <Gold.Chemscore.Metal>
0.0000

> <Gold.Chemscore.Lipo>
83.1258

> <Gold.Chemscore.Internal_Hbond>
0.0000

> <Gold.Chemscore.DEClash>
1.2360

> <Gold.Chemscore.DEInternal>
3.1885

> <Gold.Chemscore.Rot>
5.4662

> <Gold.Chemscore.Internal.Correction>
   9.000000E+99

> <Gold.Chemscore.Hbonds>
donor molecule, donor type, donor heavy atom, donor atom, acceptor molecule, acceptor atom, score
      L1  H     1    34       P1  7957  0.78
      L1  H     5    40       P1  8028  0.25
      P1  H  7989  7998       L1     1  0.37

> <Gold.Chemscore.Hbond.Weighted>
-17.4578

> <Gold.Chemscore.Metal.Weighted>
-0.0000

> <Gold.Chemscore.Lipo.Weighted>
-9.7257

> <Gold.Chemscore.Internal_Hbond.Weighted>
0.0000

> <Gold.Chemscore.DEClash.Weighted>
1.2360

> <Gold.Chemscore.DEInternal.Weighted>
3.1885

> <Gold.Chemscore.Rot.Weighted>
13.9935

> <Gold.Chemscore.Internal.Correction.Weighted>
   9.000000E+99

> <Gold.Protein.RotatedTorsions>
[ 6907 6896 6895 6894 ] final  -57.43 input  -60.11 | X-H torsion
[ 7974 7965 7964 7962 ] final  -35.21 input  175.53 | X-H torsion
[ 8008 7997 7996 7995 ] final -131.07 input   59.86 | X-H torsion
[ 10167 10162 10161 10158 ] final   -4.28 input  -65.29 | X-H torsion
[ 10718 10713 10712 10709 ] final -107.75 input   66.30 | X-H torsion
[ 10763 10752 10751 10750 ] final  -55.22 input  -60.55 | X-H torsion
[ 11005 11000 10999 10996 ] final   41.06 input  -57.11 | X-H torsion

> <Gold.Protein.ActiveResidues>
 VAL166  LYS551  ARG553  GLY616  TRP617  ASP618  TYR619  PRO620  LYS621  CYS622 
 ASP623  PHE694  ASN695  SER759  ASP760  ASP761  ALA762  ILE779  LEU786  VAL792 
 PHE793  MET794  SER795  GLU796  ALA797  LYS798  CYS799  TRP800  GLU811  SER814 

> <Gold.Protein.RotatedAtoms>
  150.8086  134.7227  159.6667 H   0  0  0  0  0  0  0  0  0  0  0  0  # atno 6907 bound_to 6896
  152.4206  134.5958  159.9996 H   0  0  0  0  0  0  0  0  0  0  0  0  # atno 6908 bound_to 6896
  151.6175  133.3305  159.3116 H   0  0  0  0  0  0  0  0  0  0  0  0  # atno 6909 bound_to 6896
  146.0765  140.6132  142.8928 H   0  0  0  0  0  0  0  0  0  0  0  0  # atno 7974 bound_to 7965
  155.3062  140.0455  157.3032 H   0  0  0  0  0  0  0  0  0  0  0  0  # atno 8008 bound_to 7997
  154.5458  140.2302  155.8532 H   0  0  0  0  0  0  0  0  0  0  0  0  # atno 8009 bound_to 7997
  156.1923  140.3047  155.9363 H   0  0  0  0  0  0  0  0  0  0  0  0  # atno 8010 bound_to 7997
  140.6921  143.6442  150.8408 H   0  0  0  0  0  0  0  0  0  0  0  0  # atno 10167 bound_to 10162
  156.0452  130.5678  150.7866 H   0  0  0  0  0  0  0  0  0  0  0  0  # atno 10718 bound_to 10713
  154.1873  135.6433  153.5050 H   0  0  0  0  0  0  0  0  0  0  0  0  # atno 10763 bound_to 10752
  153.0044  135.5420  154.6451 H   0  0  0  0  0  0  0  0  0  0  0  0  # atno 10764 bound_to 10752
  154.5831  135.2927  155.0685 H   0  0  0  0  0  0  0  0  0  0  0  0  # atno 10765 bound_to 10752
  140.1871  134.4033  155.8167 H   0  0  0  0  0  0  0  0  0  0  0  0  # atno 11005 bound_to 11000
  144.7265  140.4540  143.6969 LP  0  0  0  0  0  0  0  0  0  0  0  0  # atno 17320 bound_to 7965
  145.6296  139.1534  143.2976 LP  0  0  0  0  0  0  0  0  0  0  0  0  # atno 17321 bound_to 7965
  140.0156  143.5596  152.2821 LP  0  0  0  0  0  0  0  0  0  0  0  0  # atno 17342 bound_to 10162
  139.6336  144.7647  151.2485 LP  0  0  0  0  0  0  0  0  0  0  0  0  # atno 17343 bound_to 10162
  157.5318  131.0937  150.9944 LP  0  0  0  0  0  0  0  0  0  0  0  0  # atno 17370 bound_to 10713
  157.0249  130.5688  149.5336 LP  0  0  0  0  0  0  0  0  0  0  0  0  # atno 17371 bound_to 10713
  141.2225  133.7028  156.8030 LP  0  0  0  0  0  0  0  0  0  0  0  0  # atno 17394 bound_to 11000
  140.2202  134.8763  157.3369 LP  0  0  0  0  0  0  0  0  0  0  0  0  # atno 17395 bound_to 11000

$$$$
