AV-unprocessed.smi:239|AV-procd|sdf|1822|dock8
  -GOLD-   2262020423D 1   1.00000     0.00000
 Structure written by MMmdl.
 54 58  0  0  0  0  0  0  0  0  1 V2000
  154.1520  140.6709  160.0733 C   0  0  0  0  0  0  0  0  0  0  0  0
  152.7370  140.9659  159.5655 C   0  0  2  0  0  0  0  0  0  0  0  0
  152.4125  140.1908  158.2745 C   0  0  0  0  0  0  0  0  0  0  0  0
  151.1043  140.5885  157.7594 N   0  0  0  0  0  0  0  0  0  0  0  0
  150.5533  139.8422  156.7678 C   0  0  0  0  0  0  0  0  0  0  0  0
  150.6070  140.2783  155.4802 N   0  0  0  0  0  0  0  0  0  0  0  0
  150.0584  139.5578  154.4977 C   0  0  0  0  0  0  0  0  0  0  0  0
  149.4212  138.3886  154.5767 N   0  0  0  0  0  0  0  0  0  0  0  0
  149.3733  137.9380  155.8628 C   0  0  0  0  0  0  0  0  0  0  0  0
  149.9067  138.5958  157.0076 C   0  0  0  0  0  0  0  0  0  0  0  0
  149.6710  137.8288  158.1429 N   0  0  0  0  0  0  0  0  0  0  0  0
  149.0241  136.7868  157.6971 C   0  0  0  0  0  0  0  0  0  0  0  0
  148.8146  136.7637  156.3368 N   0  0  0  0  0  0  0  0  0  0  0  0
  148.1292  135.7297  155.5770 C   0  0  0  0  0  0  0  0  0  0  0  0
  149.0488  134.5923  155.0635 C   0  0  0  0  0  0  0  0  0  0  0  0
  150.0919  135.2445  154.3614 O   0  0  0  0  0  0  0  0  0  0  0  0
  149.6743  133.7578  156.2023 C   0  0  0  0  0  0  0  0  0  0  0  0
  150.5083  132.5828  155.6603 C   0  0  0  0  0  0  0  0  0  0  0  0
  149.7087  131.7703  154.8084 O   0  0  0  0  0  0  0  0  0  0  0  0
  149.2381  132.4667  153.6602 C   0  0  0  0  0  0  0  0  0  0  0  0
  148.3314  133.6355  154.0868 C   0  0  0  0  0  0  0  0  0  0  0  0
  150.9735  142.0319  157.5903 C   0  0  0  0  0  0  0  0  0  0  0  0
  151.3266  142.7514  158.9040 C   0  0  2  0  0  0  0  0  0  0  0  0
  151.3029  144.2578  158.7457 C   0  0  0  0  0  0  0  0  0  0  0  0
  152.5139  144.9991  158.2291 C   0  0  0  0  0  0  0  0  0  0  0  0
  152.1014  145.1429  159.6742 C   0  0  0  0  0  0  0  0  0  0  0  0
  152.6367  142.3639  159.3083 O   0  0  0  0  0  0  0  0  0  0  0  0
  154.2735  139.6123  160.3037 H   0  0  0  0  0  0  0  0  0  0  0  0
  154.3655  141.2358  160.9811 H   0  0  0  0  0  0  0  0  0  0  0  0
  154.9022  140.9403  159.3291 H   0  0  0  0  0  0  0  0  0  0  0  0
  152.0239  140.6950  160.3460 H   0  0  0  0  0  0  0  0  0  0  0  0
  153.1735  140.3885  157.5180 H   0  0  0  0  0  0  0  0  0  0  0  0
  152.4243  139.1191  158.4781 H   0  0  0  0  0  0  0  0  0  0  0  0
  150.1414  139.9798  153.5071 H   0  0  0  0  0  0  0  0  0  0  0  0
  148.6873  135.9963  158.3520 H   0  0  0  0  0  0  0  0  0  0  0  0
  147.3399  135.3175  156.2075 H   0  0  0  0  0  0  0  0  0  0  0  0
  147.6238  136.2097  154.7374 H   0  0  0  0  0  0  0  0  0  0  0  0
  149.7073  135.8404  153.7368 H   0  0  0  0  0  0  0  0  0  0  0  0
  150.2853  134.3880  156.8496 H   0  0  0  0  0  0  0  0  0  0  0  0
  148.8879  133.3426  156.8324 H   0  0  0  0  0  0  0  0  0  0  0  0
  151.3886  132.9376  155.1224 H   0  0  0  0  0  0  0  0  0  0  0  0
  150.8710  131.9715  156.4867 H   0  0  0  0  0  0  0  0  0  0  0  0
  150.0807  132.8174  153.0625 H   0  0  0  0  0  0  0  0  0  0  0  0
  148.6782  131.7710  153.0351 H   0  0  0  0  0  0  0  0  0  0  0  0
  147.4477  133.2124  154.5637 H   0  0  0  0  0  0  0  0  0  0  0  0
  147.9776  134.1777  153.2090 H   0  0  0  0  0  0  0  0  0  0  0  0
  151.6445  142.3550  156.7931 H   0  0  0  0  0  0  0  0  0  0  0  0
  149.9661  142.3106  157.2854 H   0  0  0  0  0  0  0  0  0  0  0  0
  150.6112  142.4724  159.6802 H   0  0  0  0  0  0  0  0  0  0  0  0
  150.3363  144.6502  158.4347 H   0  0  0  0  0  0  0  0  0  0  0  0
  153.4115  144.4209  158.0182 H   0  0  0  0  0  0  0  0  0  0  0  0
  152.3388  145.8451  157.5679 H   0  0  0  0  0  0  0  0  0  0  0  0
  151.6527  146.0866  159.9776 H   0  0  0  0  0  0  0  0  0  0  0  0
  152.7242  144.6594  160.4246 H   0  0  0  0  0  0  0  0  0  0  0  0
  1  2  1  0  0  0  0
  1 28  1  0  0  0  0
  1 29  1  0  0  0  0
  1 30  1  0  0  0  0
  2 27  1  0  0  0  0
  2  3  1  0  0  0  0
  2 31  1  0  0  0  0
  3  4  1  0  0  0  0
  3 32  1  0  0  0  0
  3 33  1  0  0  0  0
  4  5  1  0  0  0  0
  4 22  1  0  0  0  0
  5 10  1  0  0  0  0
  5  6  2  0  0  0  0
  6  7  1  0  0  0  0
  7  8  2  0  0  0  0
  7 34  1  0  0  0  0
  8  9  1  0  0  0  0
  9 13  1  0  0  0  0
  9 10  2  0  0  0  0
 10 11  1  0  0  0  0
 11 12  2  0  0  0  0
 12 13  1  0  0  0  0
 12 35  1  0  0  0  0
 13 14  1  0  0  0  0
 14 15  1  0  0  0  0
 14 36  1  0  0  0  0
 14 37  1  0  0  0  0
 15 21  1  0  0  0  0
 15 16  1  0  0  0  0
 15 17  1  0  0  0  0
 16 38  1  0  0  0  0
 17 18  1  0  0  0  0
 17 39  1  0  0  0  0
 17 40  1  0  0  0  0
 18 19  1  0  0  0  0
 18 41  1  0  0  0  0
 18 42  1  0  0  0  0
 19 20  1  0  0  0  0
 20 21  1  0  0  0  0
 20 43  1  0  0  0  0
 20 44  1  0  0  0  0
 21 45  1  0  0  0  0
 21 46  1  0  0  0  0
 22 23  1  0  0  0  0
 22 47  1  0  0  0  0
 22 48  1  0  0  0  0
 23 24  1  0  0  0  0
 23 27  1  0  0  0  0
 23 49  1  0  0  0  0
 24 26  1  0  0  0  0
 24 25  1  0  0  0  0
 24 50  1  0  0  0  0
 25 26  1  0  0  0  0
 25 51  1  0  0  0  0
 25 52  1  0  0  0  0
 26 53  1  0  0  0  0
 26 54  1  0  0  0  0
M  END
> <s_m_source_file>
AV-unprocessed.smi

> <i_m_source_file_index>
239

> <i_lp_mmshare_version>
43012

> <i_f3d_flags>
0

> <s_epik_input>
W0NIMl0xW0NIMl1bQ0hdMVtDQEBIXShPMilbQ0gyXU4oW0NIMl1bQ0BIXTJbQ0gzXSljKG5bY0hdbjMpYyhjMzQpbltjSF1uNFtDSDJdQzUoW09IXSlbQ0gyXVtDSDJdT1tDSDJdW0NIMl01

> <s_epik_cmdline>
J2VwaWtfcHl0aG9uJywgJy1waCcsICc3LjAnLCAnLXRuJywgJzgnLCAnLW1hJywgJzIwMCcsICctbWV0YWxfYmluZGluZycsICctaW1hZScsICc8aW5maWxlLm1hZT4nLCAnLW9tYWUnLCAnPG91dGZpbGUubWFlPic=

> <r_lp_tautomer_probability>
1

> <r_epik_Ionization_Penalty>
9.13091e-05

> <r_epik_Ionization_Penalty_Charging>
0

> <r_epik_Ionization_Penalty_Neutral>
9.13091e-05

> <r_epik_State_Penalty>
-0

> <r_epik_Charging_Adjusted_Penalty>
0

> <i_epik_Tot_Q>
0

> <i_epik_Tot_abs_Q>
0

> <r_epik_Metal_State_Penalty>
-0

> <b_epik_Metal_Only>
0

> <s_lp_Force_Field>
OPLS_2005

> <r_lp_Energy>
38.8789

> <b_lp_Chiralities_Consistent>
1

> <s_lp_Variant>
AV-unprocessed.smi:239-3

> <Gold.Version>
5.8.1

> <Gold.Id.Protein>
6NUR|6NUR_protein|mol2

> <Gold.PLP.Fitness>
45.8834

> <Gold.PLP.PLP>
-41.7613

> <Gold.PLP.part.hbond>
-1.9628

> <Gold.PLP.part.metal>
0.0000

> <Gold.PLP.part.buried>
-7.4046

> <Gold.PLP.part.nonpolar>
-32.8865

> <Gold.PLP.part.repulsive>
0.2336

> <Gold.PLP.ligand.clash>
0.0000

> <Gold.PLP.ligand.torsion>
1.5426

> <Gold.PLP.Chemscore.Hbond>
0.9424

> <Gold.PLP.Chemscore.CHOScore>
1.0000

> <Gold.PLP.Chemscore.Metal>
0.0000

> <Gold.Chemscore.Hbonds>
donor molecule, donor type, donor heavy atom, donor atom, acceptor molecule, acceptor atom, score
      L1  H    16    38       P1  7948  0.94
      L1  C     7    34       P1  7957  1.00

> <Gold.PLP.Chemscore.Internal.Correction>
1.3801

> <Gold.Rescore>
     Score         DG    S(hbond)    S(metal)    S(lipo)     H(rot)  DE(clash)    DE(int)     intcor
     11.78     -13.40       0.37        0.00     106.07       2.24       0.08       1.54       ----

> <Gold.Chemscore.Fitness>
11.7806

> <Gold.Chemscore.DG>
-13.4041

> <Gold.Chemscore.ZeroCoef>
-5.4800

> <Gold.Chemscore.Hbond>
0.3726

> <Gold.Chemscore.Metal>
0.0000

> <Gold.Chemscore.Lipo>
106.0739

> <Gold.Chemscore.Internal_Hbond>
0.0000

> <Gold.Chemscore.DEClash>
0.0811

> <Gold.Chemscore.DEInternal>
1.5424

> <Gold.Chemscore.Rot>
2.2387

> <Gold.Chemscore.Internal.Correction>
   9.000000E+99

> <Gold.Chemscore.Hbonds>
donor molecule, donor type, donor heavy atom, donor atom, acceptor molecule, acceptor atom, score
      L1  H    16    38       P1  7948  0.19

> <Gold.Chemscore.Hbond.Weighted>
-1.2446

> <Gold.Chemscore.Metal.Weighted>
-0.0000

> <Gold.Chemscore.Lipo.Weighted>
-12.4106

> <Gold.Chemscore.Internal_Hbond.Weighted>
0.0000

> <Gold.Chemscore.DEClash.Weighted>
0.0811

> <Gold.Chemscore.DEInternal.Weighted>
1.5424

> <Gold.Chemscore.Rot.Weighted>
5.7311

> <Gold.Chemscore.Internal.Correction.Weighted>
   9.000000E+99

> <Gold.Protein.RotatedTorsions>
[ 6907 6896 6895 6894 ] final -132.00 input  -60.11 | X-H torsion
[ 7974 7965 7964 7962 ] final -149.59 input  175.53 | X-H torsion
[ 8008 7997 7996 7995 ] final   39.96 input   59.86 | X-H torsion
[ 10167 10162 10161 10158 ] final   52.05 input  -65.29 | X-H torsion
[ 10718 10713 10712 10709 ] final -126.54 input   66.30 | X-H torsion
[ 10763 10752 10751 10750 ] final  -70.42 input  -60.55 | X-H torsion
[ 11005 11000 10999 10996 ] final   16.30 input  -57.11 | X-H torsion

> <Gold.Protein.ActiveResidues>
 VAL166  LYS551  ARG553  GLY616  TRP617  ASP618  TYR619  PRO620  LYS621  CYS622 
 ASP623  PHE694  ASN695  SER759  ASP760  ASP761  ALA762  ILE779  LEU786  VAL792 
 PHE793  MET794  SER795  GLU796  ALA797  LYS798  CYS799  TRP800  GLU811  SER814 

> <Gold.Protein.RotatedAtoms>
  150.9574  133.6483  159.2760 H   0  0  0  0  0  0  0  0  0  0  0  0  # atno 6907 bound_to 6896
  151.3817  135.0940  159.9508 H   0  0  0  0  0  0  0  0  0  0  0  0  # atno 6908 bound_to 6896
  152.5134  133.9107  159.7541 H   0  0  0  0  0  0  0  0  0  0  0  0  # atno 6909 bound_to 6896
  144.7958  140.5045  143.5741 H   0  0  0  0  0  0  0  0  0  0  0  0  # atno 7974 bound_to 7965
  155.2452  140.3348  155.4288 H   0  0  0  0  0  0  0  0  0  0  0  0  # atno 8008 bound_to 7997
  156.2239  140.1821  156.7455 H   0  0  0  0  0  0  0  0  0  0  0  0  # atno 8009 bound_to 7997
  154.5868  140.0644  156.9167 H   0  0  0  0  0  0  0  0  0  0  0  0  # atno 8010 bound_to 7997
  140.2555  144.3432  150.6334 H   0  0  0  0  0  0  0  0  0  0  0  0  # atno 10167 bound_to 10162
  156.1774  130.6709  151.0260 H   0  0  0  0  0  0  0  0  0  0  0  0  # atno 10718 bound_to 10713
  154.4173  135.5995  153.5989 H   0  0  0  0  0  0  0  0  0  0  0  0  # atno 10763 bound_to 10752
  152.9792  135.5944  154.3997 H   0  0  0  0  0  0  0  0  0  0  0  0  # atno 10764 bound_to 10752
  154.3818  135.2841  155.2185 H   0  0  0  0  0  0  0  0  0  0  0  0  # atno 10765 bound_to 10752
  140.4487  134.1247  155.7699 H   0  0  0  0  0  0  0  0  0  0  0  0  # atno 11005 bound_to 11000
  145.5676  139.1482  143.3306 LP  0  0  0  0  0  0  0  0  0  0  0  0  # atno 17320 bound_to 7965
  146.2226  140.5810  142.9010 LP  0  0  0  0  0  0  0  0  0  0  0  0  # atno 17321 bound_to 7965
  140.6007  143.2167  151.7077 LP  0  0  0  0  0  0  0  0  0  0  0  0  # atno 17342 bound_to 10162
  139.5033  144.3797  152.0388 LP  0  0  0  0  0  0  0  0  0  0  0  0  # atno 17343 bound_to 10162
  157.6845  131.0829  150.7280 LP  0  0  0  0  0  0  0  0  0  0  0  0  # atno 17370 bound_to 10713
  156.7337  130.4718  149.5493 LP  0  0  0  0  0  0  0  0  0  0  0  0  # atno 17371 bound_to 10713
  141.1674  133.8677  157.1675 LP  0  0  0  0  0  0  0  0  0  0  0  0  # atno 17394 bound_to 11000
  140.0021  135.0023  157.0213 LP  0  0  0  0  0  0  0  0  0  0  0  0  # atno 17395 bound_to 11000

$$$$
