AV-unprocessed.smi:1221|AV-procd|sdf|5119|dock1
  -GOLD-   22720 4173D 1   1.00000     0.00000
 Structure written by MMmdl.
 39 40  0  0  0  0  0  0  0  0  2 V2000
  144.3809  144.2929  154.9618 C   0  0  0  0  0  0  0  0  0  0  0  0
  145.5871  143.4215  154.8766 C   0  0  0  0  0  0  0  0  0  0  0  0
  146.5262  143.2291  153.9034 C   0  0  0  0  0  0  0  0  0  0  0  0
  147.3963  142.2622  154.4777 C   0  0  0  0  0  0  0  0  0  0  0  0
  148.4788  141.7258  153.8938 N   0  5  0  0  0  0  0  0  0  0  0  0
  149.5608  141.3908  154.6344 C   0  0  0  0  0  0  0  0  0  0  0  0
  150.1708  140.3198  154.5970 O   0  0  0  0  0  0  0  0  0  0  0  0
  149.9580  142.3582  155.4731 N   0  0  0  0  0  0  0  0  0  0  0  0
  151.0846  142.2825  156.3959 C   0  0  0  0  0  0  0  0  0  0  0  0
  150.6219  142.3867  157.8607 C   0  0  0  0  0  0  0  0  0  0  0  0
  151.7605  142.5635  158.7692 N   0  0  0  0  0  0  0  0  0  0  0  0
  152.3538  143.9098  158.8054 C   0  0  0  0  0  0  0  0  0  0  0  0
  152.1075  144.6681  160.1304 C   0  0  0  0  0  0  0  0  0  0  0  0
  151.9581  143.8004  161.3959 C   0  0  0  0  0  0  0  0  0  0  0  0
  153.0966  142.7861  161.6323 C   0  0  0  0  0  0  0  0  0  0  0  0
  153.4200  141.8258  160.4628 C   0  0  0  0  0  0  0  0  0  0  0  0
  152.2333  141.5436  159.5269 C   0  0  0  0  0  0  0  0  0  0  0  0
  151.7576  140.4083  159.4994 O   0  0  0  0  0  0  0  0  0  0  0  0
  147.0098  141.8894  155.6862 N   0  0  0  0  0  0  0  0  0  0  0  0
  145.8534  142.6323  155.9519 O   0  0  0  0  0  0  0  0  0  0  0  0
  143.5753  143.8953  154.3449 H   0  0  0  0  0  0  0  0  0  0  0  0
  144.6073  145.3011  154.6150 H   0  0  0  0  0  0  0  0  0  0  0  0
  144.0184  144.3629  155.9877 H   0  0  0  0  0  0  0  0  0  0  0  0
  146.5844  143.7043  152.9359 H   0  0  0  0  0  0  0  0  0  0  0  0
  149.4300  143.2185  155.4682 H   0  0  0  0  0  0  0  0  0  0  0  0
  151.6517  141.3653  156.2286 H   0  0  0  0  0  0  0  0  0  0  0  0
  151.7560  143.1085  156.1602 H   0  0  0  0  0  0  0  0  0  0  0  0
  149.9242  143.2180  157.9720 H   0  0  0  0  0  0  0  0  0  0  0  0
  150.0517  141.4985  158.1394 H   0  0  0  0  0  0  0  0  0  0  0  0
  153.4252  143.8314  158.6204 H   0  0  0  0  0  0  0  0  0  0  0  0
  151.9917  144.5170  157.9748 H   0  0  0  0  0  0  0  0  0  0  0  0
  152.9107  145.3914  160.2754 H   0  0  0  0  0  0  0  0  0  0  0  0
  151.1970  145.2590  160.0255 H   0  0  0  0  0  0  0  0  0  0  0  0
  151.8849  144.4557  162.2642 H   0  0  0  0  0  0  0  0  0  0  0  0
  151.0035  143.2733  161.3605 H   0  0  0  0  0  0  0  0  0  0  0  0
  154.0049  143.3292  161.8955 H   0  0  0  0  0  0  0  0  0  0  0  0
  152.8470  142.1928  162.5128 H   0  0  0  0  0  0  0  0  0  0  0  0
  154.2483  142.2185  159.8737 H   0  0  0  0  0  0  0  0  0  0  0  0
  153.7901  140.8825  160.8663 H   0  0  0  0  0  0  0  0  0  0  0  0
  1  2  1  0  0  0  0
  1 21  1  0  0  0  0
  1 22  1  0  0  0  0
  1 23  1  0  0  0  0
  2 20  1  0  0  0  0
  2  3  2  0  0  0  0
  3  4  1  0  0  0  0
  3 24  1  0  0  0  0
  4  5  1  0  0  0  0
  4 19  2  0  0  0  0
  5  6  1  0  0  0  0
  6  7  2  0  0  0  0
  6  8  1  0  0  0  0
  8  9  1  0  0  0  0
  8 25  1  0  0  0  0
  9 10  1  0  0  0  0
  9 26  1  0  0  0  0
  9 27  1  0  0  0  0
 10 11  1  0  0  0  0
 10 28  1  0  0  0  0
 10 29  1  0  0  0  0
 11 17  1  0  0  0  0
 11 12  1  0  0  0  0
 12 13  1  0  0  0  0
 12 30  1  0  0  0  0
 12 31  1  0  0  0  0
 13 14  1  0  0  0  0
 13 32  1  0  0  0  0
 13 33  1  0  0  0  0
 14 15  1  0  0  0  0
 14 34  1  0  0  0  0
 14 35  1  0  0  0  0
 15 16  1  0  0  0  0
 15 36  1  0  0  0  0
 15 37  1  0  0  0  0
 16 17  1  0  0  0  0
 16 38  1  0  0  0  0
 16 39  1  0  0  0  0
 17 18  2  0  0  0  0
 19 20  1  0  0  0  0
M  CHG  1   5  -1
M  END
> <s_m_source_file>
AV-unprocessed.smi

> <i_m_source_file_index>
1221

> <i_lp_mmshare_version>
43012

> <i_f3d_flags>
0

> <s_epik_input>
W0NIM11jMVtjSF1jKG5vMSlbTkhdQyg9TylbTkhdW0NIMl1bQ0gyXU4yW0NIMl1bQ0gyXVtDSDJdW0NIMl1bQ0gyXUMyPU8=

> <s_epik_cmdline>
J2VwaWtfcHl0aG9uJywgJy1waCcsICc3LjAnLCAnLXRuJywgJzgnLCAnLW1hJywgJzIwMCcsICctbWV0YWxfYmluZGluZycsICctaW1hZScsICc8aW5maWxlLm1hZT4nLCAnLW9tYWUnLCAnPG91dGZpbGUubWFlPic=

> <r_lp_tautomer_probability>
1

> <r_epik_Ionization_Penalty>
6.46803

> <r_epik_Ionization_Penalty_Charging>
6.46791

> <r_epik_Ionization_Penalty_Neutral>
0.00012322

> <r_epik_State_Penalty>
6.4679

> <r_epik_Charging_Adjusted_Penalty>
12.9358

> <i_epik_Tot_Q>
-1

> <i_epik_Tot_abs_Q>
1

> <r_epik_Metal_State_Penalty>
2.39627

> <b_epik_Metal_Only>
1

> <s_lp_Force_Field>
OPLS_2005

> <r_lp_Energy>
15.4009

> <b_lp_Chiralities_Consistent>
1

> <s_lp_Variant>
AV-unprocessed.smi:1221-2

> <Gold.Version>
5.8.1

> <Gold.Id.Protein>
6NUR|6NUR_protein|mol2

> <Gold.PLP.Fitness>
50.8596

> <Gold.PLP.PLP>
-46.3770

> <Gold.PLP.part.hbond>
-2.8360

> <Gold.PLP.part.metal>
0.0000

> <Gold.PLP.part.buried>
-6.8242

> <Gold.PLP.part.nonpolar>
-37.1535

> <Gold.PLP.part.repulsive>
0.6313

> <Gold.PLP.ligand.clash>
0.0001

> <Gold.PLP.ligand.torsion>
0.9100

> <Gold.PLP.Chemscore.Hbond>
2.0519

> <Gold.PLP.Chemscore.CHOScore>
0.0000

> <Gold.PLP.Chemscore.Metal>
0.0000

> <Gold.Chemscore.Hbonds>
donor molecule, donor type, donor heavy atom, donor atom, acceptor molecule, acceptor atom, score
      L1  H     8    25       P1  8028  1.00
      P1  H  7989  7998       L1     7  0.90
      P1  H  8011  8017       L1     5  0.20

> <Gold.PLP.Chemscore.Internal.Correction>
0.1472

> <Gold.Rescore>
     Score         DG    S(hbond)    S(metal)    S(lipo)     H(rot)  DE(clash)    DE(int)     intcor
     16.38     -17.54       1.72        0.00      88.77       1.60       0.20       0.95       ----

> <Gold.Chemscore.Fitness>
16.3787

> <Gold.Chemscore.DG>
-17.5357

> <Gold.Chemscore.ZeroCoef>
-5.4800

> <Gold.Chemscore.Hbond>
1.7244

> <Gold.Chemscore.Metal>
0.0000

> <Gold.Chemscore.Lipo>
88.7722

> <Gold.Chemscore.Internal_Hbond>
0.0000

> <Gold.Chemscore.DEClash>
0.2030

> <Gold.Chemscore.DEInternal>
0.9540

> <Gold.Chemscore.Rot>
1.5978

> <Gold.Chemscore.Internal.Correction>
   9.000000E+99

> <Gold.Chemscore.Hbonds>
donor molecule, donor type, donor heavy atom, donor atom, acceptor molecule, acceptor atom, score
      L1  H     8    25       P1  8028  0.99
      P1  H  7989  7998       L1     7  0.17
      P1  H  8011  8017       L1     5  0.01

> <Gold.Chemscore.Hbond.Weighted>
-5.7596

> <Gold.Chemscore.Metal.Weighted>
-0.0000

> <Gold.Chemscore.Lipo.Weighted>
-10.3864

> <Gold.Chemscore.Internal_Hbond.Weighted>
0.0000

> <Gold.Chemscore.DEClash.Weighted>
0.2030

> <Gold.Chemscore.DEInternal.Weighted>
0.9540

> <Gold.Chemscore.Rot.Weighted>
4.0902

> <Gold.Chemscore.Internal.Correction.Weighted>
   9.000000E+99

> <Gold.Protein.RotatedTorsions>
[ 6907 6896 6895 6894 ] final  131.55 input  -60.11 | X-H torsion
[ 7974 7965 7964 7962 ] final    4.09 input  175.53 | X-H torsion
[ 8008 7997 7996 7995 ] final  101.84 input   59.86 | X-H torsion
[ 10167 10162 10161 10158 ] final  -68.20 input  -65.29 | X-H torsion
[ 10718 10713 10712 10709 ] final  132.15 input   66.30 | X-H torsion
[ 10763 10752 10751 10750 ] final  177.70 input  -60.55 | X-H torsion
[ 11005 11000 10999 10996 ] final   50.65 input  -57.11 | X-H torsion

> <Gold.Protein.ActiveResidues>
 VAL166  LYS551  ARG553  GLY616  TRP617  ASP618  TYR619  PRO620  LYS621  CYS622 
 ASP623  PHE694  ASN695  SER759  ASP760  ASP761  ALA762  ILE779  LEU786  VAL792 
 PHE793  MET794  SER795  GLU796  ALA797  LYS798  CYS799  TRP800  GLU811  SER814 

> <Gold.Protein.RotatedAtoms>
  152.3414  133.6072  159.5879 H   0  0  0  0  0  0  0  0  0  0  0  0  # atno 6907 bound_to 6896
  150.7481  133.9716  159.3556 H   0  0  0  0  0  0  0  0  0  0  0  0  # atno 6908 bound_to 6896
  151.7579  135.0818  160.0392 H   0  0  0  0  0  0  0  0  0  0  0  0  # atno 6909 bound_to 6896
  146.2444  140.0587  142.8370 H   0  0  0  0  0  0  0  0  0  0  0  0  # atno 7974 bound_to 7965
  156.1337  140.3191  155.8388 H   0  0  0  0  0  0  0  0  0  0  0  0  # atno 8008 bound_to 7997
  155.4284  140.0517  157.3037 H   0  0  0  0  0  0  0  0  0  0  0  0  # atno 8009 bound_to 7997
  154.4920  140.2096  155.9542 H   0  0  0  0  0  0  0  0  0  0  0  0  # atno 8010 bound_to 7997
  140.5526  143.2312  151.6883 H   0  0  0  0  0  0  0  0  0  0  0  0  # atno 10167 bound_to 10162
  157.4899  131.1090  150.9571 H   0  0  0  0  0  0  0  0  0  0  0  0  # atno 10718 bound_to 10713
  154.4980  135.2782  155.1444 H   0  0  0  0  0  0  0  0  0  0  0  0  # atno 10763 bound_to 10752
  154.3089  135.6233  153.5460 H   0  0  0  0  0  0  0  0  0  0  0  0  # atno 10764 bound_to 10752
  152.9898  135.5715  154.5416 H   0  0  0  0  0  0  0  0  0  0  0  0  # atno 10765 bound_to 10752
  140.0999  134.5095  155.8772 H   0  0  0  0  0  0  0  0  0  0  0  0  # atno 11005 bound_to 11000
  145.0919  140.9290  143.4764 LP  0  0  0  0  0  0  0  0  0  0  0  0  # atno 17320 bound_to 7965
  145.0762  139.2994  143.5807 LP  0  0  0  0  0  0  0  0  0  0  0  0  # atno 17321 bound_to 7965
  139.5034  144.3794  152.0391 LP  0  0  0  0  0  0  0  0  0  0  0  0  # atno 17342 bound_to 10162
  140.2912  144.3751  150.6088 LP  0  0  0  0  0  0  0  0  0  0  0  0  # atno 17343 bound_to 10162
  157.0276  130.5698  149.5339 LP  0  0  0  0  0  0  0  0  0  0  0  0  # atno 17370 bound_to 10713
  156.0167  130.5262  150.8156 LP  0  0  0  0  0  0  0  0  0  0  0  0  # atno 17371 bound_to 10713
  141.2103  133.6693  156.6497 LP  0  0  0  0  0  0  0  0  0  0  0  0  # atno 17394 bound_to 11000
  140.3234  134.7988  157.4270 LP  0  0  0  0  0  0  0  0  0  0  0  0  # atno 17395 bound_to 11000

$$$$
