AV-unprocessed.smi:1213|AV-procd|sdf|5087|dock7
  -GOLD-   22720 4133D 1   1.00000     0.00000
 Structure written by MMmdl.
 35 36  0  0  0  0  0  0  0  0  2 V2000
  144.7435  138.1720  152.5454 N   0  0  0  0  0  0  0  0  0  0  0  0
  146.0088  137.9499  152.9101 C   0  0  0  0  0  0  0  0  0  0  0  0
  146.3622  136.9098  153.4609 O   0  0  0  0  0  0  0  0  0  0  0  0
  147.0238  139.0623  152.6224 C   0  0  0  0  0  0  0  0  0  0  0  0
  147.7614  139.5517  153.8102 N   0  0  0  0  0  0  0  0  0  0  0  0
  148.0133  140.9998  153.7575 C   0  0  0  0  0  0  0  0  0  0  0  0
  148.7221  141.4740  155.0388 C   0  0  0  0  0  0  0  0  0  0  0  0
  150.0452  140.7262  155.2529 C   0  0  0  0  0  0  0  0  0  0  0  0
  150.6372  141.1169  156.5295 N   0  0  0  0  0  0  0  0  0  0  0  0
  151.7901  140.6580  157.0382 C   0  0  0  0  0  0  0  0  0  0  0  0
  152.4521  139.8262  156.4127 O   0  0  0  0  0  0  0  0  0  0  0  0
  152.1043  141.1921  158.2406 N   0  5  0  0  0  0  0  0  0  0  0  0
  152.0589  142.5226  158.4175 C   0  0  0  0  0  0  0  0  0  0  0  0
  151.2389  143.3226  157.7264 N   0  0  0  0  0  0  0  0  0  0  0  0
  151.3617  144.6711  158.0662 C   0  0  0  0  0  0  0  0  0  0  0  0
  152.3044  144.9045  159.0323 C   0  0  0  0  0  0  0  0  0  0  0  0
  153.0704  143.4287  159.5468 S   0  0  0  0  0  0  0  0  0  0  0  0
  149.7722  139.2139  155.2118 C   0  0  0  0  0  0  0  0  0  0  0  0
  149.0291  138.8217  153.9231 C   0  0  0  0  0  0  0  0  0  0  0  0
  144.0419  137.4642  152.7067 H   0  0  0  0  0  0  0  0  0  0  0  0
  144.4965  139.0448  152.1013 H   0  0  0  0  0  0  0  0  0  0  0  0
  147.7319  138.6710  151.8903 H   0  0  0  0  0  0  0  0  0  0  0  0
  146.5098  139.8957  152.1398 H   0  0  0  0  0  0  0  0  0  0  0  0
  148.6146  141.2451  152.8803 H   0  0  0  0  0  0  0  0  0  0  0  0
  147.0799  141.5548  153.6643 H   0  0  0  0  0  0  0  0  0  0  0  0
  148.9068  142.5475  154.9812 H   0  0  0  0  0  0  0  0  0  0  0  0
  148.0628  141.3197  155.8947 H   0  0  0  0  0  0  0  0  0  0  0  0
  150.7253  140.9924  154.4415 H   0  0  0  0  0  0  0  0  0  0  0  0
  150.1293  141.7953  157.0782 H   0  0  0  0  0  0  0  0  0  0  0  0
  150.7378  145.3978  157.5679 H   0  0  0  0  0  0  0  0  0  0  0  0
  152.5946  145.8479  159.4694 H   0  0  0  0  0  0  0  0  0  0  0  0
  150.7098  138.6603  155.2763 H   0  0  0  0  0  0  0  0  0  0  0  0
  149.1788  138.9177  156.0785 H   0  0  0  0  0  0  0  0  0  0  0  0
  148.8368  137.7481  153.9427 H   0  0  0  0  0  0  0  0  0  0  0  0
  149.6584  139.0148  153.0524 H   0  0  0  0  0  0  0  0  0  0  0  0
  1  2  1  0  0  0  0
  1 20  1  0  0  0  0
  1 21  1  0  0  0  0
  2  3  2  0  0  0  0
  2  4  1  0  0  0  0
  4  5  1  0  0  0  0
  4 22  1  0  0  0  0
  4 23  1  0  0  0  0
  5 19  1  0  0  0  0
  5  6  1  0  0  0  0
  6  7  1  0  0  0  0
  6 24  1  0  0  0  0
  6 25  1  0  0  0  0
  7  8  1  0  0  0  0
  7 26  1  0  0  0  0
  7 27  1  0  0  0  0
  8  9  1  0  0  0  0
  8 18  1  0  0  0  0
  8 28  1  0  0  0  0
  9 10  1  0  0  0  0
  9 29  1  0  0  0  0
 10 11  2  0  0  0  0
 10 12  1  0  0  0  0
 12 13  1  0  0  0  0
 13 17  1  0  0  0  0
 13 14  2  0  0  0  0
 14 15  1  0  0  0  0
 15 16  2  0  0  0  0
 15 30  1  0  0  0  0
 16 17  1  0  0  0  0
 16 31  1  0  0  0  0
 18 19  1  0  0  0  0
 18 32  1  0  0  0  0
 18 33  1  0  0  0  0
 19 34  1  0  0  0  0
 19 35  1  0  0  0  0
M  CHG  1  12  -1
M  END
> <s_m_source_file>
AV-unprocessed.smi

> <i_m_source_file_index>
1213

> <i_lp_mmshare_version>
43012

> <i_f3d_flags>
0

> <s_epik_input>
W05IMl1DKD1PKVtDSDJdTjFbQ0gyXVtDSDJdW0NIXShbQ0gyXVtDSDJdMSlbTkhdQyg9TylbTkhdYzJuW2NIXVtjSF1zMg==

> <s_epik_cmdline>
J2VwaWtfcHl0aG9uJywgJy1waCcsICc3LjAnLCAnLXRuJywgJzgnLCAnLW1hJywgJzIwMCcsICctbWV0YWxfYmluZGluZycsICctaW1hZScsICc8aW5maWxlLm1hZT4nLCAnLW9tYWUnLCAnPG91dGZpbGUubWFlPic=

> <r_lp_tautomer_probability>
0.999

> <r_epik_Ionization_Penalty>
7.12626

> <r_epik_Ionization_Penalty_Charging>
5.84953

> <r_epik_Ionization_Penalty_Neutral>
1.27674

> <r_epik_State_Penalty>
5.99619

> <r_epik_Charging_Adjusted_Penalty>
11.8457

> <i_epik_Tot_Q>
-1

> <i_epik_Tot_abs_Q>
1

> <r_epik_Metal_State_Penalty>
1.98285

> <b_epik_Metal_Only>
1

> <s_lp_Force_Field>
OPLS_2005

> <r_lp_Energy>
7.2689

> <b_lp_Chiralities_Consistent>
1

> <s_lp_Variant>
AV-unprocessed.smi:1213-4

> <Gold.Version>
5.8.1

> <Gold.Id.Protein>
6NUR|6NUR_protein|mol2

> <Gold.PLP.Fitness>
40.0913

> <Gold.PLP.PLP>
-34.9875

> <Gold.PLP.part.hbond>
-3.0000

> <Gold.PLP.part.metal>
0.0000

> <Gold.PLP.part.buried>
-2.7317

> <Gold.PLP.part.nonpolar>
-29.5503

> <Gold.PLP.part.repulsive>
0.9958

> <Gold.PLP.ligand.clash>
0.0057

> <Gold.PLP.ligand.torsion>
1.0977

> <Gold.PLP.Chemscore.Hbond>
1.9120

> <Gold.PLP.Chemscore.CHOScore>
0.5132

> <Gold.PLP.Chemscore.Metal>
0.0000

> <Gold.Chemscore.Hbonds>
donor molecule, donor type, donor heavy atom, donor atom, acceptor molecule, acceptor atom, score
      L1  H     1    21       P1 10175  0.80
      P1  H  7997  8009       L1    11  1.00
      L1  C    15    30       P1  8028  0.37
      L1  C    15    30       P1  8029  0.04

> <Gold.PLP.Chemscore.Internal.Correction>
0.0292

> <Gold.Rescore>
     Score         DG    S(hbond)    S(metal)    S(lipo)     H(rot)  DE(clash)    DE(int)     intcor
     12.19     -16.11       1.98        0.00      78.46       2.01       0.15       3.77       ----

> <Gold.Chemscore.Fitness>
12.1876

> <Gold.Chemscore.DG>
-16.1129

> <Gold.Chemscore.ZeroCoef>
-5.4800

> <Gold.Chemscore.Hbond>
1.9763

> <Gold.Chemscore.Metal>
0.0000

> <Gold.Chemscore.Lipo>
78.4560

> <Gold.Chemscore.Internal_Hbond>
0.0000

> <Gold.Chemscore.DEClash>
0.1548

> <Gold.Chemscore.DEInternal>
3.7704

> <Gold.Chemscore.Rot>
2.0107

> <Gold.Chemscore.Internal.Correction>
   9.000000E+99

> <Gold.Chemscore.Hbonds>
donor molecule, donor type, donor heavy atom, donor atom, acceptor molecule, acceptor atom, score
      L1  H     1    21       P1 10175  0.79
      P1  H  7997  8009       L1    11  0.92

> <Gold.Chemscore.Hbond.Weighted>
-6.6010

> <Gold.Chemscore.Metal.Weighted>
-0.0000

> <Gold.Chemscore.Lipo.Weighted>
-9.1793

> <Gold.Chemscore.Internal_Hbond.Weighted>
0.0000

> <Gold.Chemscore.DEClash.Weighted>
0.1548

> <Gold.Chemscore.DEInternal.Weighted>
3.7704

> <Gold.Chemscore.Rot.Weighted>
5.1474

> <Gold.Chemscore.Internal.Correction.Weighted>
   9.000000E+99

> <Gold.Protein.RotatedTorsions>
[ 6907 6896 6895 6894 ] final   55.59 input  -60.11 | X-H torsion
[ 7974 7965 7964 7962 ] final  132.86 input  175.53 | X-H torsion
[ 8008 7997 7996 7995 ] final -164.43 input   59.86 | X-H torsion
[ 10167 10162 10161 10158 ] final  -89.41 input  -65.29 | X-H torsion
[ 10718 10713 10712 10709 ] final   45.56 input   66.30 | X-H torsion
[ 10763 10752 10751 10750 ] final    5.30 input  -60.55 | X-H torsion
[ 11005 11000 10999 10996 ] final -114.32 input  -57.11 | X-H torsion

> <Gold.Protein.ActiveResidues>
 VAL166  LYS551  ARG553  GLY616  TRP617  ASP618  TYR619  PRO620  LYS621  CYS622 
 ASP623  PHE694  ASN695  SER759  ASP760  ASP761  ALA762  ILE779  LEU786  VAL792 
 PHE793  MET794  SER795  GLU796  ALA797  LYS798  CYS799  TRP800  GLU811  SER814 

> <Gold.Protein.RotatedAtoms>
  152.3553  134.6948  160.0223 H   0  0  0  0  0  0  0  0  0  0  0  0  # atno 6907 bound_to 6896
  151.7288  133.3311  159.3343 H   0  0  0  0  0  0  0  0  0  0  0  0  # atno 6908 bound_to 6896
  150.7568  134.6315  159.6233 H   0  0  0  0  0  0  0  0  0  0  0  0  # atno 6909 bound_to 6896
  144.9925  139.4392  143.5332 H   0  0  0  0  0  0  0  0  0  0  0  0  # atno 7974 bound_to 7965
  155.8355  140.0940  157.1766 H   0  0  0  0  0  0  0  0  0  0  0  0  # atno 8008 bound_to 7997
  154.3980  140.1411  156.3726 H   0  0  0  0  0  0  0  0  0  0  0  0  # atno 8009 bound_to 7997
  155.8120  140.3449  155.5466 H   0  0  0  0  0  0  0  0  0  0  0  0  # atno 8010 bound_to 7997
  140.3651  143.2822  151.9568 H   0  0  0  0  0  0  0  0  0  0  0  0  # atno 10167 bound_to 10162
  157.4389  130.8069  149.7674 H   0  0  0  0  0  0  0  0  0  0  0  0  # atno 10718 bound_to 10713
  153.2611  135.6923  153.7578 H   0  0  0  0  0  0  0  0  0  0  0  0  # atno 10763 bound_to 10752
  153.6637  135.3356  155.3135 H   0  0  0  0  0  0  0  0  0  0  0  0  # atno 10764 bound_to 10752
  154.8430  135.4483  154.1601 H   0  0  0  0  0  0  0  0  0  0  0  0  # atno 10765 bound_to 10752
  141.0559  133.9613  157.2754 H   0  0  0  0  0  0  0  0  0  0  0  0  # atno 11005 bound_to 11000
  146.3434  139.9265  142.8759 LP  0  0  0  0  0  0  0  0  0  0  0  0  # atno 17320 bound_to 7965
  145.2266  140.9956  143.4015 LP  0  0  0  0  0  0  0  0  0  0  0  0  # atno 17321 bound_to 7965
  139.4809  144.5958  151.7693 LP  0  0  0  0  0  0  0  0  0  0  0  0  # atno 17342 bound_to 10162
  140.5089  144.1056  150.5990 LP  0  0  0  0  0  0  0  0  0  0  0  0  # atno 17343 bound_to 10162
  155.9941  130.3920  150.2873 LP  0  0  0  0  0  0  0  0  0  0  0  0  # atno 17370 bound_to 10713
  157.1036  131.0202  151.3075 LP  0  0  0  0  0  0  0  0  0  0  0  0  # atno 17371 bound_to 10713
  139.9390  135.0193  156.8648 LP  0  0  0  0  0  0  0  0  0  0  0  0  # atno 17394 bound_to 11000
  140.5964  134.0213  155.7520 LP  0  0  0  0  0  0  0  0  0  0  0  0  # atno 17395 bound_to 11000

$$$$
