AV-unprocessed.smi:3244|AV-procd|sdf|12400|dock1
  -GOLD-   2272018273D 1   1.00000     0.00000
 Structure written by MMmdl.
 40 41  0  0  0  0  0  0  0  0  1 V2000
  152.7815  142.2382  162.0780 C   0  0  0  0  0  0  0  0  0  0  0  0
  153.1009  143.1695  160.8969 C   0  0  0  0  0  0  0  0  0  0  0  0
  152.2630  142.8776  159.7216 N   0  0  0  0  0  0  0  0  0  0  0  0
  152.4359  141.7192  159.0327 C   0  0  0  0  0  0  0  0  0  0  0  0
  153.1565  140.8088  159.4436 O   0  0  0  0  0  0  0  0  0  0  0  0
  151.7277  141.5126  157.6863 C   0  0  0  0  0  0  0  0  0  0  0  0
  150.6961  140.4707  157.7684 N   0  0  0  0  0  0  0  0  0  0  0  0
  150.1335  140.1118  156.4702 C   0  0  2  0  0  0  0  0  0  0  0  0
  151.2319  139.5394  155.5579 C   0  0  0  0  0  0  0  0  0  0  0  0
  149.4911  141.3674  155.8458 C   0  0  0  0  0  0  0  0  0  0  0  0
  148.5096  141.0414  154.8239 N   0  0  0  0  0  0  0  0  0  0  0  0
  147.6605  141.8935  154.1494 C   0  0  0  0  0  0  0  0  0  0  0  0
  146.9244  141.1347  153.2853 C   0  0  0  0  0  0  0  0  0  0  0  0
  147.3965  139.8116  153.5113 C   0  0  0  0  0  0  0  0  0  0  0  0
  148.3427  139.7585  154.4349 N   0  0  0  0  0  0  0  0  0  0  0  0
  151.4623  143.9803  159.2534 C   0  0  0  0  0  0  0  0  0  0  0  0
  152.1191  145.2700  158.7943 C   0  0  0  0  0  0  0  0  0  0  0  0
  151.3491  145.2441  160.0854 C   0  0  0  0  0  0  0  0  0  0  0  0
  153.4350  142.4514  162.9239 H   0  0  0  0  0  0  0  0  0  0  0  0
  152.9261  141.1928  161.8031 H   0  0  0  0  0  0  0  0  0  0  0  0
  151.7533  142.3549  162.4209 H   0  0  0  0  0  0  0  0  0  0  0  0
  152.9704  144.2101  161.1987 H   0  0  0  0  0  0  0  0  0  0  0  0
  154.1600  143.0731  160.6628 H   0  0  0  0  0  0  0  0  0  0  0  0
  151.2680  142.4543  157.3853 H   0  0  0  0  0  0  0  0  0  0  0  0
  152.4586  141.2724  156.9158 H   0  0  0  0  0  0  0  0  0  0  0  0
  149.9573  140.7174  158.4115 H   0  0  0  0  0  0  0  0  0  0  0  0
  149.3521  139.3611  156.6011 H   0  0  0  0  0  0  0  0  0  0  0  0
  150.8350  139.3145  154.5676 H   0  0  0  0  0  0  0  0  0  0  0  0
  151.6464  138.6120  155.9528 H   0  0  0  0  0  0  0  0  0  0  0  0
  152.0529  140.2462  155.4310 H   0  0  0  0  0  0  0  0  0  0  0  0
  149.0231  141.9861  156.6139 H   0  0  0  0  0  0  0  0  0  0  0  0
  150.2589  141.9850  155.3783 H   0  0  0  0  0  0  0  0  0  0  0  0
  147.6555  142.9575  154.3347 H   0  0  0  0  0  0  0  0  0  0  0  0
  146.1647  141.4730  152.5965 H   0  0  0  0  0  0  0  0  0  0  0  0
  147.0820  138.8950  153.0348 H   0  0  0  0  0  0  0  0  0  0  0  0
  150.5716  143.6946  158.6981 H   0  0  0  0  0  0  0  0  0  0  0  0
  153.1992  145.3730  158.8775 H   0  0  0  0  0  0  0  0  0  0  0  0
  151.6668  145.7882  157.9511 H   0  0  0  0  0  0  0  0  0  0  0  0
  150.3831  145.7437  160.1078 H   0  0  0  0  0  0  0  0  0  0  0  0
  151.9295  145.3130  161.0034 H   0  0  0  0  0  0  0  0  0  0  0  0
  1  2  1  0  0  0  0
  1 19  1  0  0  0  0
  1 20  1  0  0  0  0
  1 21  1  0  0  0  0
  2  3  1  0  0  0  0
  2 22  1  0  0  0  0
  2 23  1  0  0  0  0
  3  4  1  0  0  0  0
  3 16  1  0  0  0  0
  4  5  2  0  0  0  0
  4  6  1  0  0  0  0
  6  7  1  0  0  0  0
  6 24  1  0  0  0  0
  6 25  1  0  0  0  0
  7  8  1  0  0  0  0
  7 26  1  0  0  0  0
  8  9  1  0  0  0  0
  8 10  1  0  0  0  0
  8 27  1  0  0  0  0
  9 28  1  0  0  0  0
  9 29  1  0  0  0  0
  9 30  1  0  0  0  0
 10 11  1  0  0  0  0
 10 31  1  0  0  0  0
 10 32  1  0  0  0  0
 11 15  1  0  0  0  0
 11 12  1  0  0  0  0
 12 13  2  0  0  0  0
 12 33  1  0  0  0  0
 13 14  1  0  0  0  0
 13 34  1  0  0  0  0
 14 15  2  0  0  0  0
 14 35  1  0  0  0  0
 16 18  1  0  0  0  0
 16 17  1  0  0  0  0
 16 36  1  0  0  0  0
 17 18  1  0  0  0  0
 17 37  1  0  0  0  0
 17 38  1  0  0  0  0
 18 39  1  0  0  0  0
 18 40  1  0  0  0  0
M  END
> <s_m_source_file>
AV-unprocessed.smi

> <i_m_source_file_index>
3244

> <i_lp_mmshare_version>
43012

> <i_f3d_flags>
0

> <s_epik_input>
W0NIMl0xW0NIMl1bQ0hdMU4oW0NIMl1bQ0gzXSlDKD1PKVtDSDJdW05IXVtDQEhdKFtDSDNdKVtDSDJdbjJbY0hdW2NIXVtjSF1uMg==

> <s_epik_cmdline>
J2VwaWtfcHl0aG9uJywgJy1waCcsICc3LjAnLCAnLXRuJywgJzgnLCAnLW1hJywgJzIwMCcsICctbWV0YWxfYmluZGluZycsICctaW1hZScsICc8aW5maWxlLm1hZT4nLCAnLW9tYWUnLCAnPG91dGZpbGUubWFlPic=

> <r_lp_tautomer_probability>
1

> <r_epik_Ionization_Penalty>
1.02506

> <r_epik_Ionization_Penalty_Charging>
0

> <r_epik_Ionization_Penalty_Neutral>
1.02506

> <r_epik_State_Penalty>
1.07563

> <r_epik_Charging_Adjusted_Penalty>
1.07563

> <i_epik_Tot_Q>
0

> <i_epik_Tot_abs_Q>
0

> <r_epik_Metal_State_Penalty>
1.07558

> <b_epik_Metal_Only>
0

> <s_lp_Force_Field>
OPLS_2005

> <r_lp_Energy>
34.7243

> <b_lp_Chiralities_Consistent>
1

> <s_lp_Variant>
AV-unprocessed.smi:3244-3

> <Gold.Version>
5.8.1

> <Gold.Id.Protein>
6NUR|6NUR_protein|mol2

> <Gold.PLP.Fitness>
45.3917

> <Gold.PLP.PLP>
-42.8850

> <Gold.PLP.part.hbond>
0.0000

> <Gold.PLP.part.metal>
0.0000

> <Gold.PLP.part.buried>
-6.6148

> <Gold.PLP.part.nonpolar>
-36.3772

> <Gold.PLP.part.repulsive>
0.1066

> <Gold.PLP.ligand.clash>
0.0000

> <Gold.PLP.ligand.torsion>
0.4735

> <Gold.PLP.Chemscore.Hbond>
0.0000

> <Gold.PLP.Chemscore.CHOScore>
1.0000

> <Gold.PLP.Chemscore.Metal>
0.0000

> <Gold.Chemscore.Hbonds>
donor molecule, donor type, donor heavy atom, donor atom, acceptor molecule, acceptor atom, score
      L1  C    12    33       P1  8028  1.00

> <Gold.PLP.Chemscore.Internal.Correction>
0.4536

> <Gold.Rescore>
     Score         DG    S(hbond)    S(metal)    S(lipo)     H(rot)  DE(clash)    DE(int)     intcor
     12.57     -13.35       0.00        0.00     110.04       1.95       0.30       0.47       ----

> <Gold.Chemscore.Fitness>
12.5748

> <Gold.Chemscore.DG>
-13.3504

> <Gold.Chemscore.ZeroCoef>
-5.4800

> <Gold.Chemscore.Hbond>
0.0000

> <Gold.Chemscore.Metal>
0.0000

> <Gold.Chemscore.Lipo>
110.0441

> <Gold.Chemscore.Internal_Hbond>
0.0000

> <Gold.Chemscore.DEClash>
0.3032

> <Gold.Chemscore.DEInternal>
0.4724

> <Gold.Chemscore.Rot>
1.9550

> <Gold.Chemscore.Internal.Correction>
   9.000000E+99

> <Gold.Chemscore.Hbond.Weighted>
-0.0000

> <Gold.Chemscore.Metal.Weighted>
-0.0000

> <Gold.Chemscore.Lipo.Weighted>
-12.8752

> <Gold.Chemscore.Internal_Hbond.Weighted>
0.0000

> <Gold.Chemscore.DEClash.Weighted>
0.3032

> <Gold.Chemscore.DEInternal.Weighted>
0.4724

> <Gold.Chemscore.Rot.Weighted>
5.0047

> <Gold.Chemscore.Internal.Correction.Weighted>
   9.000000E+99

> <Gold.Protein.RotatedTorsions>
[ 6907 6896 6895 6894 ] final -162.27 input  -60.11 | X-H torsion
[ 7974 7965 7964 7962 ] final   69.21 input  175.53 | X-H torsion
[ 8008 7997 7996 7995 ] final  144.07 input   59.86 | X-H torsion
[ 10167 10162 10161 10158 ] final -134.29 input  -65.29 | X-H torsion
[ 10718 10713 10712 10709 ] final -122.28 input   66.30 | X-H torsion
[ 10763 10752 10751 10750 ] final -145.92 input  -60.55 | X-H torsion
[ 11005 11000 10999 10996 ] final    2.23 input  -57.11 | X-H torsion

> <Gold.Protein.ActiveResidues>
 VAL166  LYS551  ARG553  GLY616  TRP617  ASP618  TYR619  PRO620  LYS621  CYS622 
 ASP623  PHE694  ASN695  SER759  ASP760  ASP761  ALA762  ILE779  LEU786  VAL792 
 PHE793  MET794  SER795  GLU796  ALA797  LYS798  CYS799  TRP800  GLU811  SER814 

> <Gold.Protein.RotatedAtoms>
  151.3777  133.3832  159.2706 H   0  0  0  0  0  0  0  0  0  0  0  0  # atno 6907 bound_to 6896
  150.9601  134.8991  159.7736 H   0  0  0  0  0  0  0  0  0  0  0  0  # atno 6908 bound_to 6896
  152.5146  134.3736  159.9379 H   0  0  0  0  0  0  0  0  0  0  0  0  # atno 6909 bound_to 6896
  145.7932  139.2944  143.1198 H   0  0  0  0  0  0  0  0  0  0  0  0  # atno 7974 bound_to 7965
  156.2916  140.2245  156.4993 H   0  0  0  0  0  0  0  0  0  0  0  0  # atno 8008 bound_to 7997
  154.7704  140.0467  157.1068 H   0  0  0  0  0  0  0  0  0  0  0  0  # atno 8009 bound_to 7997
  154.9881  140.3087  155.4921 H   0  0  0  0  0  0  0  0  0  0  0  0  # atno 8010 bound_to 7997
  139.8895  143.6740  152.2614 H   0  0  0  0  0  0  0  0  0  0  0  0  # atno 10167 bound_to 10162
  156.1406  130.6463  150.9764 H   0  0  0  0  0  0  0  0  0  0  0  0  # atno 10718 bound_to 10713
  154.8361  135.3400  154.6579 H   0  0  0  0  0  0  0  0  0  0  0  0  # atno 10763 bound_to 10752
  153.7194  135.6959  153.5021 H   0  0  0  0  0  0  0  0  0  0  0  0  # atno 10764 bound_to 10752
  153.2392  135.4390  155.0633 H   0  0  0  0  0  0  0  0  0  0  0  0  # atno 10765 bound_to 10752
  140.6066  133.9787  155.8157 H   0  0  0  0  0  0  0  0  0  0  0  0  # atno 11005 bound_to 11000
  145.9955  140.8566  143.0045 LP  0  0  0  0  0  0  0  0  0  0  0  0  # atno 17320 bound_to 7965
  144.6779  140.2277  143.7359 LP  0  0  0  0  0  0  0  0  0  0  0  0  # atno 17321 bound_to 7965
  139.7122  144.7618  151.1093 LP  0  0  0  0  0  0  0  0  0  0  0  0  # atno 17342 bound_to 10162
  140.7729  143.5315  150.9417 LP  0  0  0  0  0  0  0  0  0  0  0  0  # atno 17343 bound_to 10162
  157.6572  131.0887  150.7921 LP  0  0  0  0  0  0  0  0  0  0  0  0  # atno 17370 bound_to 10713
  156.7997  130.4917  149.5372 LP  0  0  0  0  0  0  0  0  0  0  0  0  # atno 17371 bound_to 10713
  141.0837  134.0024  157.3347 LP  0  0  0  0  0  0  0  0  0  0  0  0  # atno 17394 bound_to 11000
  139.9210  135.0200  156.8063 LP  0  0  0  0  0  0  0  0  0  0  0  0  # atno 17395 bound_to 11000

$$$$
