AV-unprocessed.smi:2324|AV-procd|sdf|9293|dock2
  -GOLD-   2272012513D 1   1.00000     0.00000
 Structure written by MMmdl.
 37 39  0  0  0  0  0  0  0  0  1 V2000
  149.7807  140.6676  157.4303 O   0  0  0  0  0  0  0  0  0  0  0  0
  149.4676  141.7467  156.9302 C   0  0  0  0  0  0  0  0  0  0  0  0
  148.8183  141.8007  155.7475 N   0  0  0  0  0  0  0  0  0  0  0  0
  148.3770  140.7735  154.8627 C   0  0  0  0  0  0  0  0  0  0  0  0
  147.7222  141.2366  153.7013 C   0  0  0  0  0  0  0  0  0  0  0  0
  147.2518  140.2907  152.7747 C   0  0  0  0  0  0  0  0  0  0  0  0
  147.4685  138.9351  153.0734 C   0  0  0  0  0  0  0  0  0  0  0  0
  148.0999  138.5337  154.1974 N   0  0  0  0  0  0  0  0  0  0  0  0
  148.5437  139.4406  155.0737 N   0  0  0  0  0  0  0  0  0  0  0  0
  149.7396  142.9242  157.5169 N   0  0  0  0  0  0  0  0  0  0  0  0
  150.4195  143.0989  158.7963 C   0  0  2  0  0  0  0  0  0  0  0  0
  150.8108  144.5704  159.0124 C   0  0  0  0  0  0  0  0  0  0  0  0
  151.6718  144.7231  160.2761 C   0  0  0  0  0  0  0  0  0  0  0  0
  152.8174  143.8826  160.1899 O   0  0  0  0  0  0  0  0  0  0  0  0
  152.4926  142.4976  160.1183 C   0  0  2  0  0  0  0  0  0  0  0  0
  153.7870  141.7093  160.1470 C   0  0  0  0  0  0  0  0  0  0  0  0
  153.7771  140.2158  160.3757 C   0  0  0  0  0  0  0  0  0  0  0  0
  154.3156  141.1390  161.4425 C   0  0  0  0  0  0  0  0  0  0  0  0
  151.6824  142.2261  158.8369 C   0  0  0  0  0  0  0  0  0  0  0  0
  148.6104  142.7368  155.4321 H   0  0  0  0  0  0  0  0  0  0  0  0
  147.5820  142.2926  153.5211 H   0  0  0  0  0  0  0  0  0  0  0  0
  146.7449  140.5929  151.8702 H   0  0  0  0  0  0  0  0  0  0  0  0
  147.1313  138.1598  152.4015 H   0  0  0  0  0  0  0  0  0  0  0  0
  149.4490  143.7654  157.0385 H   0  0  0  0  0  0  0  0  0  0  0  0
  149.7572  142.7817  159.6039 H   0  0  0  0  0  0  0  0  0  0  0  0
  151.3724  144.9350  158.1511 H   0  0  0  0  0  0  0  0  0  0  0  0
  149.9205  145.1953  159.0916 H   0  0  0  0  0  0  0  0  0  0  0  0
  152.0017  145.7567  160.3812 H   0  0  0  0  0  0  0  0  0  0  0  0
  151.0961  144.4814  161.1710 H   0  0  0  0  0  0  0  0  0  0  0  0
  151.9000  142.2228  160.9931 H   0  0  0  0  0  0  0  0  0  0  0  0
  154.5385  142.0768  159.4506 H   0  0  0  0  0  0  0  0  0  0  0  0
  152.8180  139.7372  160.5641 H   0  0  0  0  0  0  0  0  0  0  0  0
  154.4946  139.6184  159.8170 H   0  0  0  0  0  0  0  0  0  0  0  0
  155.3925  141.1568  161.5961 H   0  0  0  0  0  0  0  0  0  0  0  0
  153.7144  141.2753  162.3392 H   0  0  0  0  0  0  0  0  0  0  0  0
  151.4110  141.1712  158.7815 H   0  0  0  0  0  0  0  0  0  0  0  0
  152.3035  142.4347  157.9642 H   0  0  0  0  0  0  0  0  0  0  0  0
  1  2  2  0  0  0  0
  2  3  1  0  0  0  0
  2 10  1  0  0  0  0
  3  4  1  0  0  0  0
  3 20  1  0  0  0  0
  4  9  1  0  0  0  0
  4  5  2  0  0  0  0
  5  6  1  0  0  0  0
  5 21  1  0  0  0  0
  6  7  2  0  0  0  0
  6 22  1  0  0  0  0
  7  8  1  0  0  0  0
  7 23  1  0  0  0  0
  8  9  2  0  0  0  0
 10 11  1  0  0  0  0
 10 24  1  0  0  0  0
 11 19  1  0  0  0  0
 11 12  1  0  0  0  0
 11 25  1  0  0  0  0
 12 13  1  0  0  0  0
 12 26  1  0  0  0  0
 12 27  1  0  0  0  0
 13 14  1  0  0  0  0
 13 28  1  0  0  0  0
 13 29  1  0  0  0  0
 14 15  1  0  0  0  0
 15 16  1  0  0  0  0
 15 19  1  0  0  0  0
 15 30  1  0  0  0  0
 16 18  1  0  0  0  0
 16 17  1  0  0  0  0
 16 31  1  0  0  0  0
 17 18  1  0  0  0  0
 17 32  1  0  0  0  0
 17 33  1  0  0  0  0
 18 34  1  0  0  0  0
 18 35  1  0  0  0  0
 19 36  1  0  0  0  0
 19 37  1  0  0  0  0
M  END
> <s_m_source_file>
AV-unprocessed.smi

> <i_m_source_file_index>
2324

> <i_lp_mmshare_version>
43012

> <i_f3d_flags>
0

> <s_epik_input>
bjFuW2NIXVtjSF1bY0hdYzFbTkhdQyg9TylbTkhdW0NAQEhdMltDSDJdW0NIMl1PW0NASF0oW0NIMl0yKVtDSF0zW0NIMl1bQ0gyXTM=

> <s_epik_cmdline>
J2VwaWtfcHl0aG9uJywgJy1waCcsICc3LjAnLCAnLXRuJywgJzgnLCAnLW1hJywgJzIwMCcsICctbWV0YWxfYmluZGluZycsICctaW1hZScsICc8aW5maWxlLm1hZT4nLCAnLW9tYWUnLCAnPG91dGZpbGUubWFlPic=

> <r_lp_tautomer_probability>
1

> <r_epik_Ionization_Penalty>
0.00521499

> <r_epik_Ionization_Penalty_Charging>
0

> <r_epik_Ionization_Penalty_Neutral>
0.00521499

> <r_epik_State_Penalty>
-0

> <r_epik_Charging_Adjusted_Penalty>
0

> <i_epik_Tot_Q>
0

> <i_epik_Tot_abs_Q>
0

> <r_epik_Metal_State_Penalty>
-0

> <b_epik_Metal_Only>
0

> <s_lp_Force_Field>
OPLS_2005

> <r_lp_Energy>
26.0154

> <b_lp_Chiralities_Consistent>
1

> <s_lp_Variant>
AV-unprocessed.smi:2324-3

> <Gold.Version>
5.8.1

> <Gold.Id.Protein>
6NUR|6NUR_protein|mol2

> <Gold.PLP.Fitness>
41.6534

> <Gold.PLP.PLP>
-35.0871

> <Gold.PLP.part.hbond>
-2.0000

> <Gold.PLP.part.metal>
0.0000

> <Gold.PLP.part.buried>
-1.2946

> <Gold.PLP.part.nonpolar>
-31.9805

> <Gold.PLP.part.repulsive>
0.3695

> <Gold.PLP.ligand.clash>
0.0000

> <Gold.PLP.ligand.torsion>
0.7039

> <Gold.PLP.Chemscore.Hbond>
1.9920

> <Gold.PLP.Chemscore.CHOScore>
0.3081

> <Gold.PLP.Chemscore.Metal>
0.0000

> <Gold.Chemscore.Hbonds>
donor molecule, donor type, donor heavy atom, donor atom, acceptor molecule, acceptor atom, score
      L1  H     3    20       P1  8028  0.98
      L1  H    10    24       P1  8028  1.00
      L1  C     7    23       P1  7948  0.43

> <Gold.PLP.Chemscore.Internal.Correction>
1.0738

> <Gold.Rescore>
     Score         DG    S(hbond)    S(metal)    S(lipo)     H(rot)  DE(clash)    DE(int)     intcor
     16.99     -20.17       1.86        0.00      99.70       1.25       0.01       3.17       ----

> <Gold.Chemscore.Fitness>
16.9868

> <Gold.Chemscore.DG>
-20.1670

> <Gold.Chemscore.ZeroCoef>
-5.4800

> <Gold.Chemscore.Hbond>
1.8612

> <Gold.Chemscore.Metal>
0.0000

> <Gold.Chemscore.Lipo>
99.6958

> <Gold.Chemscore.Internal_Hbond>
0.0000

> <Gold.Chemscore.DEClash>
0.0124

> <Gold.Chemscore.DEInternal>
3.1678

> <Gold.Chemscore.Rot>
1.2476

> <Gold.Chemscore.Internal.Correction>
   9.000000E+99

> <Gold.Chemscore.Hbonds>
donor molecule, donor type, donor heavy atom, donor atom, acceptor molecule, acceptor atom, score
      L1  H     3    20       P1  8028  0.90
      L1  H    10    24       P1  8028  0.78

> <Gold.Chemscore.Hbond.Weighted>
-6.2164

> <Gold.Chemscore.Metal.Weighted>
-0.0000

> <Gold.Chemscore.Lipo.Weighted>
-11.6644

> <Gold.Chemscore.Internal_Hbond.Weighted>
0.0000

> <Gold.Chemscore.DEClash.Weighted>
0.0124

> <Gold.Chemscore.DEInternal.Weighted>
3.1678

> <Gold.Chemscore.Rot.Weighted>
3.1938

> <Gold.Chemscore.Internal.Correction.Weighted>
   9.000000E+99

> <Gold.Protein.RotatedTorsions>
[ 6907 6896 6895 6894 ] final -105.82 input  -60.11 | X-H torsion
[ 7974 7965 7964 7962 ] final   26.16 input  175.53 | X-H torsion
[ 8008 7997 7996 7995 ] final   48.60 input   59.86 | X-H torsion
[ 10167 10162 10161 10158 ] final  -41.93 input  -65.29 | X-H torsion
[ 10718 10713 10712 10709 ] final  -11.56 input   66.30 | X-H torsion
[ 10763 10752 10751 10750 ] final  -97.25 input  -60.55 | X-H torsion
[ 11005 11000 10999 10996 ] final  -69.67 input  -57.11 | X-H torsion

> <Gold.Protein.ActiveResidues>
 VAL166  LYS551  ARG553  GLY616  TRP617  ASP618  TYR619  PRO620  LYS621  CYS622 
 ASP623  PHE694  ASN695  SER759  ASP760  ASP761  ALA762  ILE779  LEU786  VAL792 
 PHE793  MET794  SER795  GLU796  ALA797  LYS798  CYS799  TRP800  GLU811  SER814 

> <Gold.Protein.RotatedAtoms>
  150.7357  134.0068  159.3656 H   0  0  0  0  0  0  0  0  0  0  0  0  # atno 6907 bound_to 6896
  151.8026  135.0702  160.0411 H   0  0  0  0  0  0  0  0  0  0  0  0  # atno 6908 bound_to 6896
  152.3130  133.5736  159.5730 H   0  0  0  0  0  0  0  0  0  0  0  0  # atno 6909 bound_to 6896
  146.1852  139.7366  142.8872 H   0  0  0  0  0  0  0  0  0  0  0  0  # atno 7974 bound_to 7965
  155.3884  140.3432  155.4250 H   0  0  0  0  0  0  0  0  0  0  0  0  # atno 8008 bound_to 7997
  156.1571  140.1589  156.8707 H   0  0  0  0  0  0  0  0  0  0  0  0  # atno 8009 bound_to 7997
  154.5105  140.0791  156.7962 H   0  0  0  0  0  0  0  0  0  0  0  0  # atno 8010 bound_to 7997
  140.6986  143.3066  151.3137 H   0  0  0  0  0  0  0  0  0  0  0  0  # atno 10167 bound_to 10162
  156.6572  130.4971  149.6042 H   0  0  0  0  0  0  0  0  0  0  0  0  # atno 10718 bound_to 10713
  154.7312  135.5053  153.8966 H   0  0  0  0  0  0  0  0  0  0  0  0  # atno 10763 bound_to 10752
  153.0951  135.6670  153.9787 H   0  0  0  0  0  0  0  0  0  0  0  0  # atno 10764 bound_to 10752
  153.9587  135.3050  155.3414 H   0  0  0  0  0  0  0  0  0  0  0  0  # atno 10765 bound_to 10752
  141.1559  133.6770  156.6635 H   0  0  0  0  0  0  0  0  0  0  0  0  # atno 11005 bound_to 11000
  145.3960  141.0379  143.3097 LP  0  0  0  0  0  0  0  0  0  0  0  0  # atno 17320 bound_to 7965
  144.8384  139.5512  143.6911 LP  0  0  0  0  0  0  0  0  0  0  0  0  # atno 17321 bound_to 7965
  139.6474  144.0425  152.2601 LP  0  0  0  0  0  0  0  0  0  0  0  0  # atno 17342 bound_to 10162
  139.9950  144.6334  150.7780 LP  0  0  0  0  0  0  0  0  0  0  0  0  # atno 17343 bound_to 10162
  156.2039  130.6637  151.1197 LP  0  0  0  0  0  0  0  0  0  0  0  0  # atno 17370 bound_to 10713
  157.7121  131.0728  150.6461 LP  0  0  0  0  0  0  0  0  0  0  0  0  # atno 17371 bound_to 10713
  140.3229  134.7992  157.4267 LP  0  0  0  0  0  0  0  0  0  0  0  0  # atno 17394 bound_to 11000
  140.1081  134.5382  155.8291 LP  0  0  0  0  0  0  0  0  0  0  0  0  # atno 17395 bound_to 11000

$$$$
