AV-unprocessed.smi:45|AV-procd|sdf|415|dock3
  -GOLD-   2262016283D 1   1.00000     0.00000
 Structure written by MMmdl.
 60 63  0  0  0  0  0  0  0  0  3 V2000
  151.8878  139.7175  155.0359 C   0  0  0  0  0  0  0  0  0  0  0  0
  150.7385  139.4631  154.2415 O   0  0  0  0  0  0  0  0  0  0  0  0
  149.8115  138.5534  154.7066 C   0  0  0  0  0  0  0  0  0  0  0  0
  149.9683  137.8094  155.9038 C   0  0  0  0  0  0  0  0  0  0  0  0
  148.9762  136.8991  156.3161 C   0  0  0  0  0  0  0  0  0  0  0  0
  147.8131  136.7165  155.5423 C   0  0  0  0  0  0  0  0  0  0  0  0
  146.7453  135.7383  155.9889 C   0  0  0  0  0  0  0  0  0  0  0  0
  147.1941  134.3540  155.9640 N   0  0  0  0  0  0  0  0  0  0  0  0
  147.5197  133.7077  154.7589 C   0  0  0  0  0  0  0  0  0  0  0  0
  146.5367  133.5483  153.8436 N   0  0  0  0  0  0  0  0  0  0  0  0
  146.7887  132.9511  152.6714 C   0  0  0  0  0  0  0  0  0  0  0  0
  145.7590  132.8087  151.7422 N   0  0  0  0  0  0  0  0  0  0  0  0
  144.8978  131.6311  151.7386 C   0  0  0  0  0  0  0  0  0  0  0  0
  144.5257  131.3863  150.2771 C   0  0  0  0  0  0  0  0  0  0  0  0
  144.5726  132.7845  149.6752 C   0  0  0  0  0  0  0  0  0  0  0  0
  145.7257  133.4607  150.4315 C   0  0  1  0  0  0  0  0  0  0  0  0
  145.5608  134.9931  150.5157 C   0  0  0  0  0  0  0  0  0  0  0  0
  145.2875  135.5210  149.2349 O   0  0  0  0  0  0  0  0  0  0  0  0
  148.0104  132.4940  152.3560 N   0  3  0  0  0  0  0  0  0  0  0  0
  149.0313  132.6290  153.2369 C   0  0  0  0  0  0  0  0  0  0  0  0
  148.8336  133.2507  154.4894 C   0  0  0  0  0  0  0  0  0  0  0  0
  149.9682  133.3687  155.4757 C   0  0  0  0  0  0  0  0  0  0  0  0
  150.2423  134.4857  155.9279 O   0  0  0  0  0  0  0  0  0  0  0  0
  150.5595  132.1643  155.7107 N   0  5  0  0  0  0  0  0  0  0  0  0
  151.6375  131.9541  156.6788 C   0  0  0  0  0  0  0  0  0  0  0  0
  152.7291  131.0331  156.1452 C   0  0  0  0  0  0  0  0  0  0  0  0
  153.9961  131.4191  156.3430 N   0  0  0  0  0  0  0  0  0  0  0  0
  154.9660  130.6102  155.8640 C   0  0  0  0  0  0  0  0  0  0  0  0
  154.6653  129.4115  155.1863 C   0  0  0  0  0  0  0  0  0  0  0  0
  153.2973  129.1072  155.0371 C   0  0  0  0  0  0  0  0  0  0  0  0
  152.3312  129.9192  155.5185 N   0  0  0  0  0  0  0  0  0  0  0  0
  147.6507  137.4507  154.3513 C   0  0  0  0  0  0  0  0  0  0  0  0
  148.6427  138.3607  153.9362 C   0  0  0  0  0  0  0  0  0  0  0  0
  148.4126  139.2438  152.4695 Cl  0  0  0  0  0  0  0  0  0  0  0  0
  146.6641  133.2229  149.9277 H   0  0  0  0  0  0  0  0  0  0  0  0
  152.5100  140.4619  154.5394 H   0  0  0  0  0  0  0  0  0  0  0  0
  152.4905  138.8177  155.1652 H   0  0  0  0  0  0  0  0  0  0  0  0
  151.6162  140.1156  156.0146 H   0  0  0  0  0  0  0  0  0  0  0  0
  150.8435  137.9177  156.5263 H   0  0  0  0  0  0  0  0  0  0  0  0
  149.1109  136.3396  157.2305 H   0  0  0  0  0  0  0  0  0  0  0  0
  146.4402  136.0006  157.0027 H   0  0  0  0  0  0  0  0  0  0  0  0
  145.8657  135.8427  155.3522 H   0  0  0  0  0  0  0  0  0  0  0  0
  147.3132  133.8619  156.8387 H   0  0  0  0  0  0  0  0  0  0  0  0
  145.3878  130.7560  152.1673 H   0  0  0  0  0  0  0  0  0  0  0  0
  144.0089  131.8480  152.3318 H   0  0  0  0  0  0  0  0  0  0  0  0
  145.2801  130.7566  149.8028 H   0  0  0  0  0  0  0  0  0  0  0  0
  143.5566  130.9005  150.1599 H   0  0  0  0  0  0  0  0  0  0  0  0
  144.7231  132.7765  148.5952 H   0  0  0  0  0  0  0  0  0  0  0  0
  143.6296  133.2951  149.8775 H   0  0  0  0  0  0  0  0  0  0  0  0
  144.7513  135.2604  151.1959 H   0  0  0  0  0  0  0  0  0  0  0  0
  146.4626  135.4767  150.8888 H   0  0  0  0  0  0  0  0  0  0  0  0
  145.5859  134.9042  148.5836 H   0  0  0  0  0  0  0  0  0  0  0  0
  149.9794  132.2268  152.9094 H   0  0  0  0  0  0  0  0  0  0  0  0
  152.1048  132.9022  156.9479 H   0  0  0  0  0  0  0  0  0  0  0  0
  151.2644  131.5542  157.6236 H   0  0  0  0  0  0  0  0  0  0  0  0
  155.9880  130.9206  156.0233 H   0  0  0  0  0  0  0  0  0  0  0  0
  155.4391  128.7631  154.8033 H   0  0  0  0  0  0  0  0  0  0  0  0
  152.9771  128.2086  154.5311 H   0  0  0  0  0  0  0  0  0  0  0  0
  146.7636  137.3169  153.7496 H   0  0  0  0  0  0  0  0  0  0  0  0
  148.1833  132.0424  151.4581 H   0  0  0  0  0  0  0  0  0  0  0  0
  1  2  1  0  0  0  0
  1 36  1  0  0  0  0
  1 37  1  0  0  0  0
  1 38  1  0  0  0  0
  2  3  1  0  0  0  0
  3 33  1  0  0  0  0
  3  4  2  0  0  0  0
  4  5  1  0  0  0  0
  4 39  1  0  0  0  0
  5  6  2  0  0  0  0
  5 40  1  0  0  0  0
  6  7  1  0  0  0  0
  6 32  1  0  0  0  0
  7  8  1  0  0  0  0
  7 41  1  0  0  0  0
  7 42  1  0  0  0  0
  8  9  1  0  0  0  0
  8 43  1  0  0  0  0
  9 21  1  0  0  0  0
  9 10  2  0  0  0  0
 10 11  1  0  0  0  0
 11 12  1  0  0  0  0
 11 19  2  0  0  0  0
 12 16  1  0  0  0  0
 12 13  1  0  0  0  0
 13 14  1  0  0  0  0
 13 44  1  0  0  0  0
 13 45  1  0  0  0  0
 14 15  1  0  0  0  0
 14 46  1  0  0  0  0
 14 47  1  0  0  0  0
 15 16  1  0  0  0  0
 15 48  1  0  0  0  0
 15 49  1  0  0  0  0
 16 35  1  0  0  0  0
 16 17  1  0  0  0  0
 17 18  1  0  0  0  0
 17 50  1  0  0  0  0
 17 51  1  0  0  0  0
 18 52  1  0  0  0  0
 19 20  1  0  0  0  0
 19 60  1  0  0  0  0
 20 21  2  0  0  0  0
 20 53  1  0  0  0  0
 21 22  1  0  0  0  0
 22 23  2  0  0  0  0
 22 24  1  0  0  0  0
 24 25  1  0  0  0  0
 25 26  1  0  0  0  0
 25 54  1  0  0  0  0
 25 55  1  0  0  0  0
 26 31  1  0  0  0  0
 26 27  2  0  0  0  0
 27 28  1  0  0  0  0
 28 29  2  0  0  0  0
 28 56  1  0  0  0  0
 29 30  1  0  0  0  0
 29 57  1  0  0  0  0
 30 31  2  0  0  0  0
 30 58  1  0  0  0  0
 32 33  2  0  0  0  0
 32 59  1  0  0  0  0
 33 34  1  0  0  0  0
M  CHG  1  19   1
M  CHG  1  24  -1
M  END
> <s_m_source_file>
AV-unprocessed.smi

> <i_m_source_file_index>
45

> <i_lp_mmshare_version>
43012

> <i_f3d_flags>
0

> <s_epik_input>
W0NIM11PYzFbY0hdW2NIXWMoW2NIXWMxQ2wpW0NIMl1bTkhdYzJuYyhOM1tDSDJdW0NIMl1bQ0gyXVtDQEhdM1tDSDJdW09IXSluW2NIXWMyQyg9TylbTkhdW0NIMl1jNG5bY0hdW2NIXVtjSF1uNA==

> <s_epik_cmdline>
J2VwaWtfcHl0aG9uJywgJy1waCcsICc3LjAnLCAnLXRuJywgJzgnLCAnLW1hJywgJzIwMCcsICctbWV0YWxfYmluZGluZycsICctaW1hZScsICc8aW5maWxlLm1hZT4nLCAnLW9tYWUnLCAnPG91dGZpbGUubWFlPic=

> <r_lp_tautomer_probability>
0.575011

> <r_epik_Ionization_Penalty>
6.73124

> <r_epik_Ionization_Penalty_Charging>
6.73106

> <r_epik_Ionization_Penalty_Neutral>
0.000179426

> <r_epik_State_Penalty>
8.26145

> <r_epik_Charging_Adjusted_Penalty>
14.9925

> <i_epik_Tot_Q>
0

> <i_epik_Tot_abs_Q>
2

> <r_epik_Metal_State_Penalty>
4.22532

> <b_epik_Metal_Only>
1

> <s_epik_Chemistry_Notes>
This compound contains an electron-poor aromatic ring that is susceptible to covalent hydrolysis at low pH, typically resulting in measured values for nitrogen ring protonation that are around two units higher than predicted values.

> <s_lp_Force_Field>
OPLS_2005

> <r_lp_Energy>
44.6193

> <b_lp_Chiralities_Consistent>
1

> <s_lp_Variant>
AV-unprocessed.smi:45-9

> <Gold.Version>
5.8.1

> <Gold.Id.Protein>
6NUR|6NUR_protein|mol2

> <Gold.PLP.Fitness>
49.4139

> <Gold.PLP.PLP>
-44.6272

> <Gold.PLP.part.hbond>
-3.9253

> <Gold.PLP.part.metal>
0.0000

> <Gold.PLP.part.buried>
-3.2021

> <Gold.PLP.part.nonpolar>
-38.0265

> <Gold.PLP.part.repulsive>
0.1954

> <Gold.PLP.ligand.clash>
0.0000

> <Gold.PLP.ligand.torsion>
3.3777

> <Gold.PLP.Chemscore.Hbond>
2.4472

> <Gold.PLP.Chemscore.CHOScore>
1.0000

> <Gold.PLP.Chemscore.Metal>
0.0000

> <Gold.Chemscore.Hbonds>
donor molecule, donor type, donor heavy atom, donor atom, acceptor molecule, acceptor atom, score
      L1  H    19    60       P1 10747  1.00

> <Gold.PLP.Chemscore.Internal.Correction>
1.2005

> <Gold.Rescore>
     Score         DG    S(hbond)    S(metal)    S(lipo)     H(rot)  DE(clash)    DE(int)     intcor
      9.75     -16.72       1.93        0.00     104.34       2.90       1.60       5.37       ----

> <Gold.Chemscore.Fitness>
9.7519

> <Gold.Chemscore.DG>
-16.7201

> <Gold.Chemscore.ZeroCoef>
-5.4800

> <Gold.Chemscore.Hbond>
1.9321

> <Gold.Chemscore.Metal>
0.0000

> <Gold.Chemscore.Lipo>
104.3409

> <Gold.Chemscore.Internal_Hbond>
0.0000

> <Gold.Chemscore.DEClash>
1.5954

> <Gold.Chemscore.DEInternal>
5.3728

> <Gold.Chemscore.Rot>
2.8988

> <Gold.Chemscore.Internal.Correction>
   9.000000E+99

> <Gold.Chemscore.Hbonds>
donor molecule, donor type, donor heavy atom, donor atom, acceptor molecule, acceptor atom, score
      L1  H    18    52       P1  7921  0.03
      L1  H    19    60       P1 10747  0.98

> <Gold.Chemscore.Hbond.Weighted>
-6.4531

> <Gold.Chemscore.Metal.Weighted>
-0.0000

> <Gold.Chemscore.Lipo.Weighted>
-12.2079

> <Gold.Chemscore.Internal_Hbond.Weighted>
0.0000

> <Gold.Chemscore.DEClash.Weighted>
1.5954

> <Gold.Chemscore.DEInternal.Weighted>
5.3728

> <Gold.Chemscore.Rot.Weighted>
7.4209

> <Gold.Chemscore.Internal.Correction.Weighted>
   9.000000E+99

> <Gold.Protein.RotatedTorsions>
[ 6907 6896 6895 6894 ] final  -72.03 input  -60.11 | X-H torsion
[ 7974 7965 7964 7962 ] final  -86.23 input  175.53 | X-H torsion
[ 8008 7997 7996 7995 ] final   77.66 input   59.86 | X-H torsion
[ 10167 10162 10161 10158 ] final   22.45 input  -65.29 | X-H torsion
[ 10718 10713 10712 10709 ] final   49.30 input   66.30 | X-H torsion
[ 10763 10752 10751 10750 ] final -124.48 input  -60.55 | X-H torsion
[ 11005 11000 10999 10996 ] final -164.00 input  -57.11 | X-H torsion

> <Gold.Protein.ActiveResidues>
 VAL166  LYS551  ARG553  GLY616  TRP617  ASP618  TYR619  PRO620  LYS621  CYS622 
 ASP623  PHE694  ASN695  SER759  ASP760  ASP761  ALA762  ILE779  LEU786  VAL792 
 PHE793  MET794  SER795  GLU796  ALA797  LYS798  CYS799  TRP800  GLU811  SER814 

> <Gold.Protein.RotatedAtoms>
  150.7187  134.5222  159.5658 H   0  0  0  0  0  0  0  0  0  0  0  0  # atno 6907 bound_to 6896
  152.2775  134.7863  160.0412 H   0  0  0  0  0  0  0  0  0  0  0  0  # atno 6908 bound_to 6896
  151.8521  133.3406  159.3713 H   0  0  0  0  0  0  0  0  0  0  0  0  # atno 6909 bound_to 6896
  145.4827  140.9556  143.1855 H   0  0  0  0  0  0  0  0  0  0  0  0  # atno 7974 bound_to 7965
  155.8447  140.3461  155.5654 H   0  0  0  0  0  0  0  0  0  0  0  0  # atno 8008 bound_to 7997
  155.8103  140.0898  157.1927 H   0  0  0  0  0  0  0  0  0  0  0  0  # atno 8009 bound_to 7997
  154.4006  140.1449  156.3366 H   0  0  0  0  0  0  0  0  0  0  0  0  # atno 8010 bound_to 7997
  140.5348  143.9780  150.6485 H   0  0  0  0  0  0  0  0  0  0  0  0  # atno 10167 bound_to 10162
  157.4773  130.8293  149.8054 H   0  0  0  0  0  0  0  0  0  0  0  0  # atno 10718 bound_to 10713
  154.8724  135.4062  154.3113 H   0  0  0  0  0  0  0  0  0  0  0  0  # atno 10763 bound_to 10752
  153.3956  135.7016  153.6468 H   0  0  0  0  0  0  0  0  0  0  0  0  # atno 10764 bound_to 10752
  153.5233  135.3683  155.2613 H   0  0  0  0  0  0  0  0  0  0  0  0  # atno 10765 bound_to 10752
  140.5918  134.5037  157.5194 H   0  0  0  0  0  0  0  0  0  0  0  0  # atno 11005 bound_to 11000
  144.7879  139.6388  143.7126 LP  0  0  0  0  0  0  0  0  0  0  0  0  # atno 17320 bound_to 7965
  146.2331  139.5853  142.9541 LP  0  0  0  0  0  0  0  0  0  0  0  0  # atno 17321 bound_to 7965
  140.3165  143.3165  152.0827 LP  0  0  0  0  0  0  0  0  0  0  0  0  # atno 17342 bound_to 10162
  139.4967  144.6602  151.6481 LP  0  0  0  0  0  0  0  0  0  0  0  0  # atno 17343 bound_to 10162
  156.0103  130.3836  150.2287 LP  0  0  0  0  0  0  0  0  0  0  0  0  # atno 17370 bound_to 10713
  157.0472  131.0052  151.3265 LP  0  0  0  0  0  0  0  0  0  0  0  0  # atno 17371 bound_to 10713
  139.9271  134.8035  156.1038 LP  0  0  0  0  0  0  0  0  0  0  0  0  # atno 17394 bound_to 11000
  141.0930  133.6707  156.2582 LP  0  0  0  0  0  0  0  0  0  0  0  0  # atno 17395 bound_to 11000

$$$$
