AV-unprocessed.smi:1991|AV-procd|sdf|8068|dock9
  -GOLD-   2272010273D 1   1.00000     0.00000
 Structure written by MMmdl.
 44 45  0  0  0  0  0  0  0  0  1 V2000
  146.0238  145.8553  159.8496 C   0  0  0  0  0  0  0  0  0  0  0  0
  145.5378  144.5739  159.1566 C   0  0  1  0  0  0  0  0  0  0  0  0
  145.0847  144.9375  157.8547 O   0  0  0  0  0  0  0  0  0  0  0  0
  143.9695  145.8223  157.8154 C   0  0  0  0  0  0  0  0  0  0  0  0
  143.7070  146.2437  156.3646 C   0  0  0  0  0  0  0  0  0  0  0  0
  144.3394  147.3906  156.1193 F   0  0  0  0  0  0  0  0  0  0  0  0
  144.1638  145.3150  155.5249 F   0  0  0  0  0  0  0  0  0  0  0  0
  142.4016  146.4245  156.1664 F   0  0  0  0  0  0  0  0  0  0  0  0
  146.6624  143.5304  159.0626 C   0  0  0  0  0  0  0  0  0  0  0  0
  147.1803  143.0848  160.0867 O   0  0  0  0  0  0  0  0  0  0  0  0
  147.0366  143.1707  157.8250 N   0  0  0  0  0  0  0  0  0  0  0  0
  148.0681  142.1922  157.4981 C   0  0  0  0  0  0  0  0  0  0  0  0
  148.0297  141.7728  156.0320 C   0  0  0  0  0  0  0  0  0  0  0  0
  146.9535  142.2054  155.2271 C   0  0  0  0  0  0  0  0  0  0  0  0
  146.9221  141.8518  153.8665 C   0  0  0  0  0  0  0  0  0  0  0  0
  147.9770  141.0739  153.3571 C   0  0  0  0  0  0  0  0  0  0  0  0
  149.0114  140.6498  154.1114 N   0  0  0  0  0  0  0  0  0  0  0  0
  149.0461  140.9867  155.4241 C   0  0  0  0  0  0  0  0  0  0  0  0
  150.1217  140.4952  156.1830 N   0  0  0  0  0  0  0  0  0  0  0  0
  150.9391  139.5351  155.4544 C   0  0  0  0  0  0  0  0  0  0  0  0
  151.9330  138.8616  156.4156 C   0  0  0  0  0  0  0  0  0  0  0  0
  152.7173  139.8588  157.0660 O   0  0  0  0  0  0  0  0  0  0  0  0
  151.9183  140.7604  157.8283 C   0  0  0  0  0  0  0  0  0  0  0  0
  150.9230  141.4796  156.9015 C   0  0  0  0  0  0  0  0  0  0  0  0
  146.4007  145.6461  160.8514 H   0  0  0  0  0  0  0  0  0  0  0  0
  145.2095  146.5735  159.9480 H   0  0  0  0  0  0  0  0  0  0  0  0
  146.8217  146.3395  159.2853 H   0  0  0  0  0  0  0  0  0  0  0  0
  144.7023  144.1696  159.7314 H   0  0  0  0  0  0  0  0  0  0  0  0
  143.0772  145.3435  158.2203 H   0  0  0  0  0  0  0  0  0  0  0  0
  144.1719  146.7045  158.4244 H   0  0  0  0  0  0  0  0  0  0  0  0
  146.5573  143.5990  157.0466 H   0  0  0  0  0  0  0  0  0  0  0  0
  149.0340  142.6634  157.6821 H   0  0  0  0  0  0  0  0  0  0  0  0
  148.0351  141.3369  158.1732 H   0  0  0  0  0  0  0  0  0  0  0  0
  146.1618  142.8087  155.6463 H   0  0  0  0  0  0  0  0  0  0  0  0
  146.1116  142.1719  153.2286 H   0  0  0  0  0  0  0  0  0  0  0  0
  147.9904  140.7831  152.3171 H   0  0  0  0  0  0  0  0  0  0  0  0
  150.3109  138.7864  154.9731 H   0  0  0  0  0  0  0  0  0  0  0  0
  151.4803  140.0527  154.6613 H   0  0  0  0  0  0  0  0  0  0  0  0
  151.4076  138.2555  157.1557 H   0  0  0  0  0  0  0  0  0  0  0  0
  152.5932  138.1919  155.8648 H   0  0  0  0  0  0  0  0  0  0  0  0
  151.3932  140.2186  158.6169 H   0  0  0  0  0  0  0  0  0  0  0  0
  152.5682  141.4860  158.3177 H   0  0  0  0  0  0  0  0  0  0  0  0
  151.4672  142.1050  156.1922 H   0  0  0  0  0  0  0  0  0  0  0  0
  150.2725  142.1347  157.4821 H   0  0  0  0  0  0  0  0  0  0  0  0
  1  2  1  0  0  0  0
  1 25  1  0  0  0  0
  1 26  1  0  0  0  0
  1 27  1  0  0  0  0
  2  3  1  0  0  0  0
  2  9  1  0  0  0  0
  2 28  1  0  0  0  0
  3  4  1  0  0  0  0
  4  5  1  0  0  0  0
  4 29  1  0  0  0  0
  4 30  1  0  0  0  0
  5  6  1  0  0  0  0
  5  7  1  0  0  0  0
  5  8  1  0  0  0  0
  9 10  2  0  0  0  0
  9 11  1  0  0  0  0
 11 12  1  0  0  0  0
 11 31  1  0  0  0  0
 12 13  1  0  0  0  0
 12 32  1  0  0  0  0
 12 33  1  0  0  0  0
 13 18  1  0  0  0  0
 13 14  2  0  0  0  0
 14 15  1  0  0  0  0
 14 34  1  0  0  0  0
 15 16  2  0  0  0  0
 15 35  1  0  0  0  0
 16 17  1  0  0  0  0
 16 36  1  0  0  0  0
 17 18  2  0  0  0  0
 18 19  1  0  0  0  0
 19 24  1  0  0  0  0
 19 20  1  0  0  0  0
 20 21  1  0  0  0  0
 20 37  1  0  0  0  0
 20 38  1  0  0  0  0
 21 22  1  0  0  0  0
 21 39  1  0  0  0  0
 21 40  1  0  0  0  0
 22 23  1  0  0  0  0
 23 24  1  0  0  0  0
 23 41  1  0  0  0  0
 23 42  1  0  0  0  0
 24 43  1  0  0  0  0
 24 44  1  0  0  0  0
M  END
> <s_m_source_file>
AV-unprocessed.smi

> <i_m_source_file_index>
1991

> <i_lp_mmshare_version>
43012

> <i_f3d_flags>
0

> <s_epik_input>
RkMoRikoRilbQ0gyXU9bQ0BASF0oW0NIM10pQyg9TylbTkhdW0NIMl1jMVtjSF1bY0hdW2NIXW5jMU4yW0NIMl1bQ0gyXU9bQ0gyXVtDSDJdMg==

> <s_epik_cmdline>
J2VwaWtfcHl0aG9uJywgJy1waCcsICc3LjAnLCAnLXRuJywgJzgnLCAnLW1hJywgJzIwMCcsICctbWV0YWxfYmluZGluZycsICctaW1hZScsICc8aW5maWxlLm1hZT4nLCAnLW9tYWUnLCAnPG91dGZpbGUubWFlPic=

> <r_lp_tautomer_probability>
1

> <r_epik_Ionization_Penalty>
0.00436412

> <r_epik_Ionization_Penalty_Charging>
0

> <r_epik_Ionization_Penalty_Neutral>
0.00436412

> <r_epik_State_Penalty>
0.00314317

> <r_epik_Charging_Adjusted_Penalty>
0.00314317

> <i_epik_Tot_Q>
0

> <i_epik_Tot_abs_Q>
0

> <r_epik_Metal_State_Penalty>
-0

> <b_epik_Metal_Only>
0

> <s_lp_Force_Field>
OPLS_2005

> <r_lp_Energy>
21.3683

> <b_lp_Chiralities_Consistent>
1

> <s_lp_Variant>
AV-unprocessed.smi:1991-2

> <Gold.Version>
5.8.1

> <Gold.Id.Protein>
6NUR|6NUR_protein|mol2

> <Gold.PLP.Fitness>
43.9285

> <Gold.PLP.PLP>
-34.7213

> <Gold.PLP.part.hbond>
-3.7347

> <Gold.PLP.part.metal>
0.0000

> <Gold.PLP.part.buried>
-2.9009

> <Gold.PLP.part.nonpolar>
-28.6614

> <Gold.PLP.part.repulsive>
0.7421

> <Gold.PLP.ligand.clash>
0.0000

> <Gold.PLP.ligand.torsion>
0.9423

> <Gold.PLP.Chemscore.Hbond>
2.6021

> <Gold.PLP.Chemscore.CHOScore>
1.0000

> <Gold.PLP.Chemscore.Metal>
0.0000

> <Gold.Chemscore.Hbonds>
donor molecule, donor type, donor heavy atom, donor atom, acceptor molecule, acceptor atom, score
      P1  H  6933  6944       L1    10  0.98
      P1  H  6934  6946       L1    10  0.23
      P1  H  7997  8009       L1    22  1.00
      L1  C    16    36       P1  7957  1.00

> <Gold.PLP.Chemscore.Internal.Correction>
0.2854

> <Gold.Rescore>
     Score         DG    S(hbond)    S(metal)    S(lipo)     H(rot)  DE(clash)    DE(int)     intcor
     14.40     -15.40       2.65        0.00      63.72       2.49       0.28       0.72       ----

> <Gold.Chemscore.Fitness>
14.4023

> <Gold.Chemscore.DG>
-15.4019

> <Gold.Chemscore.ZeroCoef>
-5.4800

> <Gold.Chemscore.Hbond>
2.6471

> <Gold.Chemscore.Metal>
0.0000

> <Gold.Chemscore.Lipo>
63.7162

> <Gold.Chemscore.Internal_Hbond>
0.0000

> <Gold.Chemscore.DEClash>
0.2793

> <Gold.Chemscore.DEInternal>
0.7203

> <Gold.Chemscore.Rot>
2.4899

> <Gold.Chemscore.Internal.Correction>
   9.000000E+99

> <Gold.Chemscore.Hbonds>
donor molecule, donor type, donor heavy atom, donor atom, acceptor molecule, acceptor atom, score
      P1  H  6933  6944       L1    10  0.88
      P1  H  6934  6946       L1    10  0.22
      P1  H  7997  8009       L1    22  0.98

> <Gold.Chemscore.Hbond.Weighted>
-8.8413

> <Gold.Chemscore.Metal.Weighted>
-0.0000

> <Gold.Chemscore.Lipo.Weighted>
-7.4548

> <Gold.Chemscore.Internal_Hbond.Weighted>
0.0000

> <Gold.Chemscore.DEClash.Weighted>
0.2793

> <Gold.Chemscore.DEInternal.Weighted>
0.7203

> <Gold.Chemscore.Rot.Weighted>
6.3741

> <Gold.Chemscore.Internal.Correction.Weighted>
   9.000000E+99

> <Gold.Protein.RotatedTorsions>
[ 6907 6896 6895 6894 ] final -116.36 input  -60.11 | X-H torsion
[ 7974 7965 7964 7962 ] final -125.88 input  175.53 | X-H torsion
[ 8008 7997 7996 7995 ] final  177.95 input   59.86 | X-H torsion
[ 10167 10162 10161 10158 ] final  179.14 input  -65.29 | X-H torsion
[ 10718 10713 10712 10709 ] final   60.35 input   66.30 | X-H torsion
[ 10763 10752 10751 10750 ] final  115.64 input  -60.55 | X-H torsion
[ 11005 11000 10999 10996 ] final -133.33 input  -57.11 | X-H torsion

> <Gold.Protein.ActiveResidues>
 VAL166  LYS551  ARG553  GLY616  TRP617  ASP618  TYR619  PRO620  LYS621  CYS622 
 ASP623  PHE694  ASN695  SER759  ASP760  ASP761  ALA762  ILE779  LEU786  VAL792 
 PHE793  MET794  SER795  GLU796  ALA797  LYS798  CYS799  TRP800  GLU811  SER814 

> <Gold.Protein.RotatedAtoms>
  150.8050  133.8527  159.3209 H   0  0  0  0  0  0  0  0  0  0  0  0  # atno 6907 bound_to 6896
  151.6329  135.1019  160.0135 H   0  0  0  0  0  0  0  0  0  0  0  0  # atno 6908 bound_to 6896
  152.4140  133.6969  159.6457 H   0  0  0  0  0  0  0  0  0  0  0  0  # atno 6909 bound_to 6896
  144.9930  140.7749  143.4543 H   0  0  0  0  0  0  0  0  0  0  0  0  # atno 7974 bound_to 7965
  156.0600  140.1345  156.9952 H   0  0  0  0  0  0  0  0  0  0  0  0  # atno 8008 bound_to 7997
  154.4477  140.0993  156.6574 H   0  0  0  0  0  0  0  0  0  0  0  0  # atno 8009 bound_to 7997
  155.5391  140.3460  155.4445 H   0  0  0  0  0  0  0  0  0  0  0  0  # atno 8010 bound_to 7997
  139.5324  144.2596  152.0718 H   0  0  0  0  0  0  0  0  0  0  0  0  # atno 10167 bound_to 10162
  157.5746  130.8934  149.9325 H   0  0  0  0  0  0  0  0  0  0  0  0  # atno 10718 bound_to 10713
  153.5252  135.3589  155.2650 H   0  0  0  0  0  0  0  0  0  0  0  0  # atno 10763 bound_to 10752
  154.8731  135.4055  154.3214 H   0  0  0  0  0  0  0  0  0  0  0  0  # atno 10764 bound_to 10752
  153.3892  135.7071  153.6575 H   0  0  0  0  0  0  0  0  0  0  0  0  # atno 10765 bound_to 10752
  140.9090  134.1592  157.4404 H   0  0  0  0  0  0  0  0  0  0  0  0  # atno 11005 bound_to 11000
  145.2259  139.2137  143.5068 LP  0  0  0  0  0  0  0  0  0  0  0  0  # atno 17320 bound_to 7965
  146.3435  140.2127  142.8590 LP  0  0  0  0  0  0  0  0  0  0  0  0  # atno 17321 bound_to 7965
  140.2062  144.4609  150.6407 LP  0  0  0  0  0  0  0  0  0  0  0  0  # atno 17342 bound_to 10162
  140.6510  143.2225  151.6078 LP  0  0  0  0  0  0  0  0  0  0  0  0  # atno 17343 bound_to 10162
  156.0791  130.3675  150.0617 LP  0  0  0  0  0  0  0  0  0  0  0  0  # atno 17370 bound_to 10713
  156.8765  130.9542  151.3604 LP  0  0  0  0  0  0  0  0  0  0  0  0  # atno 17371 bound_to 10713
  139.8754  134.9928  156.5615 LP  0  0  0  0  0  0  0  0  0  0  0  0  # atno 17394 bound_to 11000
  140.8134  133.8411  155.8830 LP  0  0  0  0  0  0  0  0  0  0  0  0  # atno 17395 bound_to 11000

$$$$
