AV-unprocessed.smi:2072|AV-procd|sdf|8447|dock6
  -GOLD-   2272011143D 1   1.00000     0.00000
 Structure written by MMmdl.
 40 42  0  0  0  0  0  0  0  0  2 V2000
  142.8986  136.1386  153.6580 O   0  0  0  0  0  0  0  0  0  0  0  0
  142.9898  137.2683  153.1796 C   0  0  0  0  0  0  0  0  0  0  0  0
  141.9861  138.1552  153.0624 N   0  0  0  0  0  0  0  0  0  0  0  0
  140.6184  138.0303  153.4358 C   0  0  0  0  0  0  0  0  0  0  0  0
  140.0361  136.8782  154.0207 C   0  0  0  0  0  0  0  0  0  0  0  0
  138.6633  136.8939  154.3342 C   0  0  0  0  0  0  0  0  0  0  0  0
  137.9204  138.0557  154.0508 C   0  0  0  0  0  0  0  0  0  0  0  0
  138.4589  139.1586  153.4906 N   0  0  0  0  0  0  0  0  0  0  0  0
  139.7756  139.1364  153.1931 C   0  0  0  0  0  0  0  0  0  0  0  0
  144.1387  137.7747  152.7094 N   0  0  0  0  0  0  0  0  0  0  0  0
  145.4187  137.0716  152.6856 C   0  0  1  0  0  0  0  0  0  0  0  0
  146.0368  136.9035  154.0850 C   0  0  0  0  0  0  0  0  0  0  0  0
  146.7105  135.5170  154.0702 C   0  0  0  0  0  0  0  0  0  0  0  0
  146.5259  135.0064  152.6982 N   0  3  1  0  0  0  0  0  0  0  0  0
  146.5511  133.5388  152.5163 C   0  0  0  0  0  0  0  0  0  0  0  0
  146.4336  133.2112  151.0144 C   0  0  0  0  0  0  0  0  0  0  0  0
  145.2041  133.8895  150.3771 C   0  0  0  0  0  0  0  0  0  0  0  0
  145.1817  135.4004  150.6795 C   0  0  0  0  0  0  0  0  0  0  0  0
  145.2891  135.6258  152.1975 C   0  0  2  0  0  0  0  0  0  0  0  0
  142.2365  139.0494  152.6662 H   0  0  0  0  0  0  0  0  0  0  0  0
  140.5981  135.9835  154.2329 H   0  0  0  0  0  0  0  0  0  0  0  0
  138.1897  136.0324  154.7810 H   0  0  0  0  0  0  0  0  0  0  0  0
  136.8656  138.0990  154.2785 H   0  0  0  0  0  0  0  0  0  0  0  0
  140.1699  140.0369  152.7449 H   0  0  0  0  0  0  0  0  0  0  0  0
  144.1252  138.7119  152.3341 H   0  0  0  0  0  0  0  0  0  0  0  0
  146.1356  137.6043  152.0570 H   0  0  0  0  0  0  0  0  0  0  0  0
  146.7494  137.7007  154.2997 H   0  0  0  0  0  0  0  0  0  0  0  0
  145.2725  136.9303  154.8634 H   0  0  0  0  0  0  0  0  0  0  0  0
  147.7699  135.5664  154.3232 H   0  0  0  0  0  0  0  0  0  0  0  0
  146.2212  134.8557  154.7869 H   0  0  0  0  0  0  0  0  0  0  0  0
  147.4813  133.1356  152.9178 H   0  0  0  0  0  0  0  0  0  0  0  0
  145.7325  133.0803  153.0731 H   0  0  0  0  0  0  0  0  0  0  0  0
  147.3353  133.5470  150.5003 H   0  0  0  0  0  0  0  0  0  0  0  0
  146.3820  132.1317  150.8700 H   0  0  0  0  0  0  0  0  0  0  0  0
  145.1983  133.7216  149.2997 H   0  0  0  0  0  0  0  0  0  0  0  0
  144.2949  133.4289  150.7661 H   0  0  0  0  0  0  0  0  0  0  0  0
  146.0064  135.8961  150.1658 H   0  0  0  0  0  0  0  0  0  0  0  0
  144.2618  135.8395  150.2931 H   0  0  0  0  0  0  0  0  0  0  0  0
  144.4378  135.1548  152.6950 H   0  0  0  0  0  0  0  0  0  0  0  0
  147.2794  135.3906  152.1459 H   0  0  0  0  0  0  0  0  0  0  0  0
  1  2  2  0  0  0  0
  2  3  1  0  0  0  0
  2 10  1  0  0  0  0
  3  4  1  0  0  0  0
  3 20  1  0  0  0  0
  4  9  1  0  0  0  0
  4  5  2  0  0  0  0
  5  6  1  0  0  0  0
  5 21  1  0  0  0  0
  6  7  2  0  0  0  0
  6 22  1  0  0  0  0
  7  8  1  0  0  0  0
  7 23  1  0  0  0  0
  8  9  2  0  0  0  0
  9 24  1  0  0  0  0
 10 11  1  0  0  0  0
 10 25  1  0  0  0  0
 11 19  1  0  0  0  0
 11 12  1  0  0  0  0
 11 26  1  0  0  0  0
 12 13  1  0  0  0  0
 12 27  1  0  0  0  0
 12 28  1  0  0  0  0
 13 14  1  0  0  0  0
 13 29  1  0  0  0  0
 13 30  1  0  0  0  0
 14 19  1  0  0  0  0
 14 15  1  0  0  0  0
 14 40  1  0  0  0  0
 15 16  1  0  0  0  0
 15 31  1  0  0  0  0
 15 32  1  0  0  0  0
 16 17  1  0  0  0  0
 16 33  1  0  0  0  0
 16 34  1  0  0  0  0
 17 18  1  0  0  0  0
 17 35  1  0  0  0  0
 17 36  1  0  0  0  0
 18 19  1  0  0  0  0
 18 37  1  0  0  0  0
 18 38  1  0  0  0  0
 19 39  1  0  0  0  0
M  CHG  1  14   1
M  END
> <s_m_source_file>
AV-unprocessed.smi

> <i_m_source_file_index>
2072

> <i_lp_mmshare_version>
43012

> <i_f3d_flags>
0

> <s_epik_input>
W0NIMl0xW0NIMl1bQ0gyXVtDSDJdW0NASF0oTjEyKVtDQEBIXShbQ0gyXVtDSDJdMilbTkhdQyg9TylbTkhdYzNbY0hdW2NIXVtjSF1uW2NIXTM=

> <s_epik_cmdline>
J2VwaWtfcHl0aG9uJywgJy1waCcsICc3LjAnLCAnLXRuJywgJzgnLCAnLW1hJywgJzIwMCcsICctbWV0YWxfYmluZGluZycsICctaW1hZScsICc8aW5maWxlLm1hZT4nLCAnLW9tYWUnLCAnPG91dGZpbGUubWFlPic=

> <r_lp_tautomer_probability>
1

> <r_epik_Ionization_Penalty>
0.00482425

> <r_epik_Ionization_Penalty_Charging>
0.000974069

> <r_epik_Ionization_Penalty_Neutral>
0.00385018

> <r_epik_State_Penalty>
-0

> <r_epik_Charging_Adjusted_Penalty>
0.000974069

> <i_epik_Tot_Q>
1

> <i_epik_Tot_abs_Q>
1

> <r_epik_Metal_State_Penalty>
-0

> <b_epik_Metal_Only>
0

> <s_lp_Force_Field>
OPLS_2005

> <r_lp_Energy>
37.8914

> <b_lp_Chiralities_Consistent>
1

> <s_lp_Variant>
AV-unprocessed.smi:2072-6

> <Gold.Version>
5.8.1

> <Gold.Id.Protein>
6NUR|6NUR_protein|mol2

> <Gold.PLP.Fitness>
45.9173

> <Gold.PLP.PLP>
-31.2966

> <Gold.PLP.part.hbond>
-3.9379

> <Gold.PLP.part.metal>
0.0000

> <Gold.PLP.part.buried>
-1.9813

> <Gold.PLP.part.nonpolar>
-25.6360

> <Gold.PLP.part.repulsive>
0.1974

> <Gold.PLP.ligand.clash>
0.0000

> <Gold.PLP.ligand.torsion>
0.1572

> <Gold.PLP.Chemscore.Hbond>
3.9920

> <Gold.PLP.Chemscore.CHOScore>
0.9834

> <Gold.PLP.Chemscore.Metal>
0.0000

> <Gold.Chemscore.Hbonds>
donor molecule, donor type, donor heavy atom, donor atom, acceptor molecule, acceptor atom, score
      L1  H     3    20       P1 10175  0.96
      L1  H    10    25       P1 10175  1.00
      L1  H    14    40       P1  7948  2.00
      L1  C     9    24       P1 10160  0.83

> <Gold.PLP.Chemscore.Internal.Correction>
0.0088

> <Gold.Rescore>
     Score         DG    S(hbond)    S(metal)    S(lipo)     H(rot)  DE(clash)    DE(int)     intcor
     18.00     -20.79       2.96        0.00      68.20       1.00       0.13       2.67       ----

> <Gold.Chemscore.Fitness>
17.9958

> <Gold.Chemscore.DG>
-20.7923

> <Gold.Chemscore.ZeroCoef>
-5.4800

> <Gold.Chemscore.Hbond>
2.9621

> <Gold.Chemscore.Metal>
0.0000

> <Gold.Chemscore.Lipo>
68.1951

> <Gold.Chemscore.Internal_Hbond>
0.0000

> <Gold.Chemscore.DEClash>
0.1308

> <Gold.Chemscore.DEInternal>
2.6657

> <Gold.Chemscore.Rot>
1.0000

> <Gold.Chemscore.Internal.Correction>
   9.000000E+99

> <Gold.Chemscore.Hbonds>
donor molecule, donor type, donor heavy atom, donor atom, acceptor molecule, acceptor atom, score
      L1  H     3    20       P1 10175  0.86
      L1  H    10    25       P1 10175  0.95
      L1  H    14    40       P1  7948  0.99

> <Gold.Chemscore.Hbond.Weighted>
-9.8935

> <Gold.Chemscore.Metal.Weighted>
-0.0000

> <Gold.Chemscore.Lipo.Weighted>
-7.9788

> <Gold.Chemscore.Internal_Hbond.Weighted>
0.0000

> <Gold.Chemscore.DEClash.Weighted>
0.1308

> <Gold.Chemscore.DEInternal.Weighted>
2.6657

> <Gold.Chemscore.Rot.Weighted>
2.5600

> <Gold.Chemscore.Internal.Correction.Weighted>
   9.000000E+99

> <Gold.Protein.RotatedTorsions>
[ 6907 6896 6895 6894 ] final   23.00 input  -60.11 | X-H torsion
[ 7974 7965 7964 7962 ] final  120.53 input  175.53 | X-H torsion
[ 8008 7997 7996 7995 ] final  -57.18 input   59.86 | X-H torsion
[ 10167 10162 10161 10158 ] final  -22.78 input  -65.29 | X-H torsion
[ 10718 10713 10712 10709 ] final  -14.89 input   66.30 | X-H torsion
[ 10763 10752 10751 10750 ] final  -15.86 input  -60.55 | X-H torsion
[ 11005 11000 10999 10996 ] final  -60.32 input  -57.11 | X-H torsion

> <Gold.Protein.ActiveResidues>
 VAL166  LYS551  ARG553  GLY616  TRP617  ASP618  TYR619  PRO620  LYS621  CYS622 
 ASP623  PHE694  ASN695  SER759  ASP760  ASP761  ALA762  ILE779  LEU786  VAL792 
 PHE793  MET794  SER795  GLU796  ALA797  LYS798  CYS799  TRP800  GLU811  SER814 

> <Gold.Protein.RotatedAtoms>
  151.9356  135.0236  160.0532 H   0  0  0  0  0  0  0  0  0  0  0  0  # atno 6907 bound_to 6896
  152.2080  133.4885  159.5103 H   0  0  0  0  0  0  0  0  0  0  0  0  # atno 6908 bound_to 6896
  150.6969  134.1421  159.4151 H   0  0  0  0  0  0  0  0  0  0  0  0  # atno 6909 bound_to 6896
  145.1300  139.3333  143.4670 H   0  0  0  0  0  0  0  0  0  0  0  0  # atno 7974 bound_to 7965
  154.4258  140.1112  156.5757 H   0  0  0  0  0  0  0  0  0  0  0  0  # atno 8008 bound_to 7997
  155.6166  140.3494  155.4620 H   0  0  0  0  0  0  0  0  0  0  0  0  # atno 8009 bound_to 7997
  156.0058  140.1208  157.0493 H   0  0  0  0  0  0  0  0  0  0  0  0  # atno 8010 bound_to 7997
  140.7287  143.4503  151.0526 H   0  0  0  0  0  0  0  0  0  0  0  0  # atno 10167 bound_to 10162
  156.6095  130.4845  149.6207 H   0  0  0  0  0  0  0  0  0  0  0  0  # atno 10718 bound_to 10713
  153.5497  135.7012  153.5597 H   0  0  0  0  0  0  0  0  0  0  0  0  # atno 10763 bound_to 10752
  153.3526  135.3991  155.1658 H   0  0  0  0  0  0  0  0  0  0  0  0  # atno 10764 bound_to 10752
  154.8663  135.3769  154.5007 H   0  0  0  0  0  0  0  0  0  0  0  0  # atno 10765 bound_to 10752
  141.1283  133.6621  156.5206 H   0  0  0  0  0  0  0  0  0  0  0  0  # atno 11005 bound_to 11000
  146.3514  140.1295  142.8597 LP  0  0  0  0  0  0  0  0  0  0  0  0  # atno 17320 bound_to 7965
  145.0645  140.9112  143.4918 LP  0  0  0  0  0  0  0  0  0  0  0  0  # atno 17321 bound_to 7965
  139.8178  143.7861  152.3175 LP  0  0  0  0  0  0  0  0  0  0  0  0  # atno 17342 bound_to 10162
  139.7933  144.7402  150.9924 LP  0  0  0  0  0  0  0  0  0  0  0  0  # atno 17343 bound_to 10162
  156.2402  130.6846  151.1548 LP  0  0  0  0  0  0  0  0  0  0  0  0  # atno 17370 bound_to 10713
  157.7258  131.0650  150.5937 LP  0  0  0  0  0  0  0  0  0  0  0  0  # atno 17371 bound_to 10713
  140.4295  134.7114  157.4934 LP  0  0  0  0  0  0  0  0  0  0  0  0  # atno 17394 bound_to 11000
  140.0303  134.6415  155.9115 LP  0  0  0  0  0  0  0  0  0  0  0  0  # atno 17395 bound_to 11000

$$$$
