AV-unprocessed.smi:775|AV-procd|sdf|3696|dock4
  -GOLD-   22720 1113D 1   1.00000     0.00000
 Structure written by MMmdl.
 39 40  0  0  0  0  0  0  0  0  2 V2000
  148.3540  132.8209  153.9017 C   0  0  0  0  0  0  0  0  0  0  0  0
  147.4045  133.2940  152.7844 C   0  0  1  0  0  0  0  0  0  0  0  0
  146.0928  132.4800  152.7290 C   0  0  0  0  0  0  0  0  0  0  0  0
  145.3739  132.6150  151.4718 N   0  0  0  0  0  0  0  0  0  0  0  0
  145.7595  132.1946  150.2155 C   0  0  0  0  0  0  0  0  0  0  0  0
  144.7646  132.5402  149.3471 C   0  0  0  0  0  0  0  0  0  0  0  0
  143.7947  133.1684  150.1772 C   0  0  0  0  0  0  0  0  0  0  0  0
  144.1617  133.2098  151.4480 N   0  0  0  0  0  0  0  0  0  0  0  0
  147.0988  134.7374  152.9081 N   0  3  0  0  0  0  0  0  0  0  0  0
  146.7984  135.2189  154.2745 C   0  0  0  0  0  0  0  0  0  0  0  0
  147.9890  135.9587  154.9050 C   0  0  0  0  0  0  0  0  0  0  0  0
  148.7783  135.3168  155.6009 O   0  0  0  0  0  0  0  0  0  0  0  0
  148.1362  137.2883  154.6797 N   0  0  0  0  0  0  0  0  0  0  0  0
  147.2462  138.0947  153.8380 C   0  0  0  0  0  0  0  0  0  0  0  0
  148.0192  138.5111  152.5745 C   0  0  0  0  0  0  0  0  0  0  0  0
  149.3583  139.0138  152.8866 N   0  0  0  0  0  0  0  0  0  0  0  0
  150.0023  138.8377  154.0553 C   0  0  0  0  0  0  0  0  0  0  0  0
  151.1252  139.2971  154.2486 O   0  0  0  0  0  0  0  0  0  0  0  0
  149.3054  138.0355  155.1715 C   0  0  0  0  0  0  0  0  0  0  0  0
  148.4980  131.7410  153.8567 H   0  0  0  0  0  0  0  0  0  0  0  0
  147.9657  133.0628  154.8914 H   0  0  0  0  0  0  0  0  0  0  0  0
  149.3397  133.2769  153.8132 H   0  0  0  0  0  0  0  0  0  0  0  0
  147.9068  133.1460  151.8273 H   0  0  0  0  0  0  0  0  0  0  0  0
  146.2996  131.4214  152.8924 H   0  0  0  0  0  0  0  0  0  0  0  0
  145.4305  132.7870  153.5402 H   0  0  0  0  0  0  0  0  0  0  0  0
  146.7002  131.6916  150.0447 H   0  0  0  0  0  0  0  0  0  0  0  0
  144.7323  132.3670  148.2816 H   0  0  0  0  0  0  0  0  0  0  0  0
  142.8416  133.5919  149.8963 H   0  0  0  0  0  0  0  0  0  0  0  0
  147.9047  135.2524  152.5831 H   0  0  0  0  0  0  0  0  0  0  0  0
  145.9436  135.8943  154.2374 H   0  0  0  0  0  0  0  0  0  0  0  0
  146.5339  134.3664  154.9011 H   0  0  0  0  0  0  0  0  0  0  0  0
  146.3096  137.6108  153.5661 H   0  0  0  0  0  0  0  0  0  0  0  0
  146.9589  138.9847  154.4004 H   0  0  0  0  0  0  0  0  0  0  0  0
  148.1256  137.6569  151.9048 H   0  0  0  0  0  0  0  0  0  0  0  0
  147.4672  139.2756  152.0273 H   0  0  0  0  0  0  0  0  0  0  0  0
  149.8291  139.5404  152.1647 H   0  0  0  0  0  0  0  0  0  0  0  0
  148.9739  138.7322  155.9421 H   0  0  0  0  0  0  0  0  0  0  0  0
  150.0557  137.3970  155.6401 H   0  0  0  0  0  0  0  0  0  0  0  0
  146.3194  134.9589  152.3048 H   0  0  0  0  0  0  0  0  0  0  0  0
  1  2  1  0  0  0  0
  1 20  1  0  0  0  0
  1 21  1  0  0  0  0
  1 22  1  0  0  0  0
  2  3  1  0  0  0  0
  2  9  1  0  0  0  0
  2 23  1  0  0  0  0
  3  4  1  0  0  0  0
  3 24  1  0  0  0  0
  3 25  1  0  0  0  0
  4  8  1  0  0  0  0
  4  5  1  0  0  0  0
  5  6  2  0  0  0  0
  5 26  1  0  0  0  0
  6  7  1  0  0  0  0
  6 27  1  0  0  0  0
  7  8  2  0  0  0  0
  7 28  1  0  0  0  0
  9 10  1  0  0  0  0
  9 29  1  0  0  0  0
  9 39  1  0  0  0  0
 10 11  1  0  0  0  0
 10 30  1  0  0  0  0
 10 31  1  0  0  0  0
 11 12  2  0  0  0  0
 11 13  1  0  0  0  0
 13 19  1  0  0  0  0
 13 14  1  0  0  0  0
 14 15  1  0  0  0  0
 14 32  1  0  0  0  0
 14 33  1  0  0  0  0
 15 16  1  0  0  0  0
 15 34  1  0  0  0  0
 15 35  1  0  0  0  0
 16 17  1  0  0  0  0
 16 36  1  0  0  0  0
 17 18  2  0  0  0  0
 17 19  1  0  0  0  0
 19 37  1  0  0  0  0
 19 38  1  0  0  0  0
M  CHG  1   9   1
M  END
> <s_m_source_file>
AV-unprocessed.smi

> <i_m_source_file_index>
775

> <i_lp_mmshare_version>
43012

> <i_f3d_flags>
0

> <s_epik_input>
bjFbY0hdW2NIXVtjSF1uMVtDSDJdW0NAQEhdKFtDSDNdKVtOSF1bQ0gyXUMoPU8pTjJbQ0gyXVtDSDJdW05IXUMoPU8pW0NIMl0y

> <s_epik_cmdline>
J2VwaWtfcHl0aG9uJywgJy1waCcsICc3LjAnLCAnLXRuJywgJzgnLCAnLW1hJywgJzIwMCcsICctbWV0YWxfYmluZGluZycsICctaW1hZScsICc8aW5maWxlLm1hZT4nLCAnLW9tYWUnLCAnPG91dGZpbGUubWFlPic=

> <r_lp_tautomer_probability>
1

> <r_epik_Ionization_Penalty>
0.165651

> <r_epik_Ionization_Penalty_Charging>
0.165647

> <r_epik_Ionization_Penalty_Neutral>
3.4358e-06

> <r_epik_State_Penalty>
0.15499

> <r_epik_Charging_Adjusted_Penalty>
0.320637

> <i_epik_Tot_Q>
1

> <i_epik_Tot_abs_Q>
1

> <r_epik_Metal_State_Penalty>
0.155003

> <b_epik_Metal_Only>
0

> <s_lp_Force_Field>
OPLS_2005

> <r_lp_Energy>
22.1436

> <b_lp_Chiralities_Consistent>
1

> <s_lp_Variant>
AV-unprocessed.smi:775-2

> <Gold.Version>
5.8.1

> <Gold.Id.Protein>
6NUR|6NUR_protein|mol2

> <Gold.PLP.Fitness>
45.3513

> <Gold.PLP.PLP>
-29.4637

> <Gold.PLP.part.hbond>
-3.3613

> <Gold.PLP.part.metal>
0.0000

> <Gold.PLP.part.buried>
-2.5946

> <Gold.PLP.part.nonpolar>
-23.7527

> <Gold.PLP.part.repulsive>
0.4629

> <Gold.PLP.ligand.clash>
0.0000

> <Gold.PLP.ligand.torsion>
0.9934

> <Gold.PLP.Chemscore.Hbond>
3.9280

> <Gold.PLP.Chemscore.CHOScore>
2.0000

> <Gold.PLP.Chemscore.Metal>
0.0000

> <Gold.Chemscore.Hbonds>
donor molecule, donor type, donor heavy atom, donor atom, acceptor molecule, acceptor atom, score
      L1  H     9    29       P1  7948  2.00
      P1  H  7989  7998       L1    18  1.00
      L1  C     5    26       P1 10747  1.00
      L1  C     7    28       P1 10186  1.00

> <Gold.PLP.Chemscore.Internal.Correction>
0.0904

> <Gold.Rescore>
     Score         DG    S(hbond)    S(metal)    S(lipo)     H(rot)  DE(clash)    DE(int)     intcor
     15.02     -16.59       2.73        0.00      64.83       2.18       0.12       1.45       ----

> <Gold.Chemscore.Fitness>
15.0212

> <Gold.Chemscore.DG>
-16.5919

> <Gold.Chemscore.ZeroCoef>
-5.4800

> <Gold.Chemscore.Hbond>
2.7291

> <Gold.Chemscore.Metal>
0.0000

> <Gold.Chemscore.Lipo>
64.8257

> <Gold.Chemscore.Internal_Hbond>
0.0000

> <Gold.Chemscore.DEClash>
0.1239

> <Gold.Chemscore.DEInternal>
1.4468

> <Gold.Chemscore.Rot>
2.1828

> <Gold.Chemscore.Internal.Correction>
   9.000000E+99

> <Gold.Chemscore.Hbonds>
donor molecule, donor type, donor heavy atom, donor atom, acceptor molecule, acceptor atom, score
      L1  H     9    29       P1  7948  0.97
      L1  H    16    36       P1  7957  0.06
      P1  H  7989  7998       L1    18  0.98

> <Gold.Chemscore.Hbond.Weighted>
-9.1153

> <Gold.Chemscore.Metal.Weighted>
-0.0000

> <Gold.Chemscore.Lipo.Weighted>
-7.5846

> <Gold.Chemscore.Internal_Hbond.Weighted>
0.0000

> <Gold.Chemscore.DEClash.Weighted>
0.1239

> <Gold.Chemscore.DEInternal.Weighted>
1.4468

> <Gold.Chemscore.Rot.Weighted>
5.5880

> <Gold.Chemscore.Internal.Correction.Weighted>
   9.000000E+99

> <Gold.Protein.RotatedTorsions>
[ 6907 6896 6895 6894 ] final  -13.98 input  -60.11 | X-H torsion
[ 7974 7965 7964 7962 ] final  -61.75 input  175.53 | X-H torsion
[ 8008 7997 7996 7995 ] final -165.09 input   59.86 | X-H torsion
[ 10167 10162 10161 10158 ] final  109.93 input  -65.29 | X-H torsion
[ 10718 10713 10712 10709 ] final  164.61 input   66.30 | X-H torsion
[ 10763 10752 10751 10750 ] final -110.61 input  -60.55 | X-H torsion
[ 11005 11000 10999 10996 ] final  -94.52 input  -57.11 | X-H torsion

> <Gold.Protein.ActiveResidues>
 VAL166  LYS551  ARG553  GLY616  TRP617  ASP618  TYR619  PRO620  LYS621  CYS622 
 ASP623  PHE694  ASN695  SER759  ASP760  ASP761  ALA762  ILE779  LEU786  VAL792 
 PHE793  MET794  SER795  GLU796  ALA797  LYS798  CYS799  TRP800  GLU811  SER814 

> <Gold.Protein.RotatedAtoms>
  151.3465  135.0875  159.9388 H   0  0  0  0  0  0  0  0  0  0  0  0  # atno 6907 bound_to 6896
  152.5198  133.9395  159.7630 H   0  0  0  0  0  0  0  0  0  0  0  0  # atno 6908 bound_to 6896
  150.9762  133.6239  159.2759 H   0  0  0  0  0  0  0  0  0  0  0  0  # atno 6909 bound_to 6896
  145.7996  140.8663  143.0238 H   0  0  0  0  0  0  0  0  0  0  0  0  # atno 7974 bound_to 7965
  155.8449  140.0954  157.1711 H   0  0  0  0  0  0  0  0  0  0  0  0  # atno 8008 bound_to 7997
  154.3983  140.1394  156.3834 H   0  0  0  0  0  0  0  0  0  0  0  0  # atno 8009 bound_to 7997
  155.8025  140.3452  155.5413 H   0  0  0  0  0  0  0  0  0  0  0  0  # atno 8010 bound_to 7997
  139.6728  144.7124  151.1657 H   0  0  0  0  0  0  0  0  0  0  0  0  # atno 10167 bound_to 10162
  157.0919  131.0420  151.2533 H   0  0  0  0  0  0  0  0  0  0  0  0  # atno 10718 bound_to 10713
  154.8257  135.4558  154.0912 H   0  0  0  0  0  0  0  0  0  0  0  0  # atno 10763 bound_to 10752
  153.2228  135.6896  153.7987 H   0  0  0  0  0  0  0  0  0  0  0  0  # atno 10764 bound_to 10752
  153.7398  135.3314  155.3278 H   0  0  0  0  0  0  0  0  0  0  0  0  # atno 10765 bound_to 10752
  141.1468  133.7962  157.0310 H   0  0  0  0  0  0  0  0  0  0  0  0  # atno 11005 bound_to 11000
  144.6770  140.0240  143.7483 LP  0  0  0  0  0  0  0  0  0  0  0  0  # atno 17320 bound_to 7965
  145.9891  139.3001  143.0995 LP  0  0  0  0  0  0  0  0  0  0  0  0  # atno 17321 bound_to 7965
  140.7624  143.5818  150.8887 LP  0  0  0  0  0  0  0  0  0  0  0  0  # atno 17342 bound_to 10162
  139.9485  143.6300  152.3035 LP  0  0  0  0  0  0  0  0  0  0  0  0  # atno 17343 bound_to 10162
  157.4713  130.7711  149.7326 LP  0  0  0  0  0  0  0  0  0  0  0  0  # atno 17370 bound_to 10713
  155.9896  130.3951  150.3067 LP  0  0  0  0  0  0  0  0  0  0  0  0  # atno 17371 bound_to 10713
  140.0754  134.9678  157.1537 LP  0  0  0  0  0  0  0  0  0  0  0  0  # atno 17394 bound_to 11000
  140.3651  134.2451  155.7183 LP  0  0  0  0  0  0  0  0  0  0  0  0  # atno 17395 bound_to 11000

$$$$
