AV-unprocessed.smi:355|AV-procd|sdf|2407|dock9
  -GOLD-   2262022343D 1   1.00000     0.00000
 Structure written by MMmdl.
 39 40  0  0  0  0  0  0  0  0  1 V2000
  151.4254  145.6164  160.6317 C   0  0  0  0  0  0  0  0  0  0  0  0
  151.8903  144.1760  160.5677 C   0  0  0  0  0  0  0  0  0  0  0  0
  152.4716  143.5690  161.6987 C   0  0  0  0  0  0  0  0  0  0  0  0
  152.9022  142.2311  161.6348 C   0  0  0  0  0  0  0  0  0  0  0  0
  152.7537  141.4996  160.4413 C   0  0  0  0  0  0  0  0  0  0  0  0
  152.1782  142.0925  159.2991 C   0  0  0  0  0  0  0  0  0  0  0  0
  152.0725  141.3040  158.1740 O   0  0  0  0  0  0  0  0  0  0  0  0
  151.0125  141.5624  157.2641 C   0  0  0  0  0  0  0  0  0  0  0  0
  151.3766  141.0366  155.8611 C   0  0  0  0  0  0  0  0  0  0  0  0
  150.2825  140.2414  155.2529 N   0  0  0  0  0  0  0  0  0  0  0  0
  150.4613  138.8411  155.0163 C   0  0  0  0  0  0  0  0  0  0  0  0
  151.8156  138.1857  155.3268 C   0  0  0  0  0  0  0  0  0  0  0  0
  151.7937  136.8804  155.0536 F   0  0  0  0  0  0  0  0  0  0  0  0
  152.7823  138.7187  154.5787 F   0  0  0  0  0  0  0  0  0  0  0  0
  152.1449  138.2979  156.6128 F   0  0  0  0  0  0  0  0  0  0  0  0
  149.4463  138.1126  154.5160 C   0  0  0  0  0  0  0  0  0  0  0  0
  148.1890  138.7366  154.2118 C   0  0  0  0  0  0  0  0  0  0  0  0
  148.0131  140.0639  154.4014 C   0  0  0  0  0  0  0  0  0  0  0  0
  146.7362  140.7518  154.1009 C   0  0  0  0  0  0  0  0  0  0  0  0
  145.7408  139.9315  153.7415 N   0  0  0  0  0  0  0  0  0  0  0  0
  146.5164  141.9620  154.1486 O   0  0  0  0  0  0  0  0  0  0  0  0
  149.1162  140.9025  154.9379 C   0  0  0  0  0  0  0  0  0  0  0  0
  149.0280  142.1222  155.1075 O   0  0  0  0  0  0  0  0  0  0  0  0
  151.7463  143.4413  159.3723 C   0  0  0  0  0  0  0  0  0  0  0  0
  151.2093  145.9135  161.6585 H   0  0  0  0  0  0  0  0  0  0  0  0
  150.5184  145.7561  160.0428 H   0  0  0  0  0  0  0  0  0  0  0  0
  152.1968  146.2783  160.2377 H   0  0  0  0  0  0  0  0  0  0  0  0
  152.5888  144.1259  162.6168 H   0  0  0  0  0  0  0  0  0  0  0  0
  153.3472  141.7646  162.5012 H   0  0  0  0  0  0  0  0  0  0  0  0
  153.0873  140.4730  160.4006 H   0  0  0  0  0  0  0  0  0  0  0  0
  150.1130  141.0502  157.6087 H   0  0  0  0  0  0  0  0  0  0  0  0
  150.7974  142.6309  157.2296 H   0  0  0  0  0  0  0  0  0  0  0  0
  151.6689  141.8735  155.2244 H   0  0  0  0  0  0  0  0  0  0  0  0
  152.2991  140.4688  155.9285 H   0  0  0  0  0  0  0  0  0  0  0  0
  149.5598  137.0558  154.3245 H   0  0  0  0  0  0  0  0  0  0  0  0
  147.4041  138.1015  153.8284 H   0  0  0  0  0  0  0  0  0  0  0  0
  144.8308  140.3075  153.5191 H   0  0  0  0  0  0  0  0  0  0  0  0
  145.9057  138.9363  153.6966 H   0  0  0  0  0  0  0  0  0  0  0  0
  151.2991  143.9331  158.5219 H   0  0  0  0  0  0  0  0  0  0  0  0
  1  2  1  0  0  0  0
  1 25  1  0  0  0  0
  1 26  1  0  0  0  0
  1 27  1  0  0  0  0
  2 24  1  0  0  0  0
  2  3  2  0  0  0  0
  3  4  1  0  0  0  0
  3 28  1  0  0  0  0
  4  5  2  0  0  0  0
  4 29  1  0  0  0  0
  5  6  1  0  0  0  0
  5 30  1  0  0  0  0
  6  7  1  0  0  0  0
  6 24  2  0  0  0  0
  7  8  1  0  0  0  0
  8  9  1  0  0  0  0
  8 31  1  0  0  0  0
  8 32  1  0  0  0  0
  9 10  1  0  0  0  0
  9 33  1  0  0  0  0
  9 34  1  0  0  0  0
 10 22  1  0  0  0  0
 10 11  1  0  0  0  0
 11 12  1  0  0  0  0
 11 16  2  0  0  0  0
 12 13  1  0  0  0  0
 12 14  1  0  0  0  0
 12 15  1  0  0  0  0
 16 17  1  0  0  0  0
 16 35  1  0  0  0  0
 17 18  2  0  0  0  0
 17 36  1  0  0  0  0
 18 19  1  0  0  0  0
 18 22  1  0  0  0  0
 19 20  1  0  0  0  0
 19 21  2  0  0  0  0
 20 37  1  0  0  0  0
 20 38  1  0  0  0  0
 22 23  2  0  0  0  0
 24 39  1  0  0  0  0
M  END
> <s_m_source_file>
AV-unprocessed.smi

> <i_m_source_file_index>
355

> <i_lp_mmshare_version>
43012

> <i_f3d_flags>
0

> <s_epik_input>
W0NIM11jMVtjSF1bY0hdW2NIXWMoW2NIXTEpT1tDSDJdW0NIMl1uMmMoQyhGKShGKUYpW2NIXVtjSF1jKGMyPU8pQyg9TylbTkgyXQ==

> <s_epik_cmdline>
J2VwaWtfcHl0aG9uJywgJy1waCcsICc3LjAnLCAnLXRuJywgJzgnLCAnLW1hJywgJzIwMCcsICctbWV0YWxfYmluZGluZycsICctaW1hZScsICc8aW5maWxlLm1hZT4nLCAnLW9tYWUnLCAnPG91dGZpbGUubWFlPic=

> <r_lp_tautomer_probability>
1

> <r_epik_Ionization_Penalty>
1.75992e-06

> <r_epik_Ionization_Penalty_Charging>
1.13667e-09

> <r_epik_Ionization_Penalty_Neutral>
1.75878e-06

> <r_epik_State_Penalty>
-0

> <r_epik_Charging_Adjusted_Penalty>
1.13667e-09

> <i_epik_Tot_Q>
0

> <i_epik_Tot_abs_Q>
0

> <r_epik_Metal_State_Penalty>
-0

> <b_epik_Metal_Only>
0

> <s_lp_Force_Field>
OPLS_2005

> <r_lp_Energy>
35.0119

> <b_lp_Chiralities_Consistent>
1

> <s_lp_Variant>
AV-unprocessed.smi:355-1

> <Gold.Version>
5.8.1

> <Gold.Id.Protein>
6NUR|6NUR_protein|mol2

> <Gold.PLP.Fitness>
47.2864

> <Gold.PLP.PLP>
-46.0230

> <Gold.PLP.part.hbond>
-1.5434

> <Gold.PLP.part.metal>
0.0000

> <Gold.PLP.part.buried>
-2.0705

> <Gold.PLP.part.nonpolar>
-45.4005

> <Gold.PLP.part.repulsive>
2.7529

> <Gold.PLP.ligand.clash>
3.5704

> <Gold.PLP.ligand.torsion>
0.8964

> <Gold.PLP.Chemscore.Hbond>
1.0000

> <Gold.PLP.Chemscore.CHOScore>
0.0000

> <Gold.PLP.Chemscore.Metal>
0.0000

> <Gold.Chemscore.Hbonds>
donor molecule, donor type, donor heavy atom, donor atom, acceptor molecule, acceptor atom, score
      L1  H    20    37       P1 10175  0.98

> <Gold.PLP.Chemscore.Internal.Correction>
3.6265

> <Gold.Rescore>
     Score         DG    S(hbond)    S(metal)    S(lipo)     H(rot)  DE(clash)    DE(int)     intcor
     10.95     -18.44       1.00        0.00     122.59       1.84       1.73       5.76       ----

> <Gold.Chemscore.Fitness>
10.9543

> <Gold.Chemscore.DG>
-18.4427

> <Gold.Chemscore.ZeroCoef>
-5.4800

> <Gold.Chemscore.Hbond>
0.9979

> <Gold.Chemscore.Metal>
0.0000

> <Gold.Chemscore.Lipo>
122.5901

> <Gold.Chemscore.Internal_Hbond>
0.0000

> <Gold.Chemscore.DEClash>
1.7290

> <Gold.Chemscore.DEInternal>
5.7595

> <Gold.Chemscore.Rot>
1.8412

> <Gold.Chemscore.Internal.Correction>
   9.000000E+99

> <Gold.Chemscore.Hbonds>
donor molecule, donor type, donor heavy atom, donor atom, acceptor molecule, acceptor atom, score
      L1  H    20    37       P1 10175  0.90

> <Gold.Chemscore.Hbond.Weighted>
-3.3330

> <Gold.Chemscore.Metal.Weighted>
-0.0000

> <Gold.Chemscore.Lipo.Weighted>
-14.3430

> <Gold.Chemscore.Internal_Hbond.Weighted>
0.0000

> <Gold.Chemscore.DEClash.Weighted>
1.7290

> <Gold.Chemscore.DEInternal.Weighted>
5.7595

> <Gold.Chemscore.Rot.Weighted>
4.7134

> <Gold.Chemscore.Internal.Correction.Weighted>
   9.000000E+99

> <Gold.Protein.RotatedTorsions>
[ 6907 6896 6895 6894 ] final   24.97 input  -60.11 | X-H torsion
[ 7974 7965 7964 7962 ] final -127.21 input  175.53 | X-H torsion
[ 8008 7997 7996 7995 ] final   99.52 input   59.86 | X-H torsion
[ 10167 10162 10161 10158 ] final  137.02 input  -65.29 | X-H torsion
[ 10718 10713 10712 10709 ] final  -93.44 input   66.30 | X-H torsion
[ 10763 10752 10751 10750 ] final -168.10 input  -60.55 | X-H torsion
[ 11005 11000 10999 10996 ] final  173.39 input  -57.11 | X-H torsion

> <Gold.Protein.ActiveResidues>
 VAL166  LYS551  ARG553  GLY616  TRP617  ASP618  TYR619  PRO620  LYS621  CYS622 
 ASP623  PHE694  ASN695  SER759  ASP760  ASP761  ALA762  ILE779  LEU786  VAL792 
 PHE793  MET794  SER795  GLU796  ALA797  LYS798  CYS799  TRP800  GLU811  SER814 

> <Gold.Protein.RotatedAtoms>
  151.9655  135.0103  160.0549 H   0  0  0  0  0  0  0  0  0  0  0  0  # atno 6907 bound_to 6896
  152.1830  133.4716  159.4976 H   0  0  0  0  0  0  0  0  0  0  0  0  # atno 6908 bound_to 6896
  150.6921  134.1726  159.4261 H   0  0  0  0  0  0  0  0  0  0  0  0  # atno 6909 bound_to 6896
  144.9793  140.7625  143.4622 H   0  0  0  0  0  0  0  0  0  0  0  0  # atno 7974 bound_to 7965
  156.1113  140.3227  155.8077 H   0  0  0  0  0  0  0  0  0  0  0  0  # atno 8008 bound_to 7997
  155.4667  140.0543  157.3001 H   0  0  0  0  0  0  0  0  0  0  0  0  # atno 8009 bound_to 7997
  154.4762  140.2033  155.9886 H   0  0  0  0  0  0  0  0  0  0  0  0  # atno 8010 bound_to 7997
  139.5159  144.6433  151.5510 H   0  0  0  0  0  0  0  0  0  0  0  0  # atno 10167 bound_to 10162
  156.0013  130.5027  150.5776 H   0  0  0  0  0  0  0  0  0  0  0  0  # atno 10718 bound_to 10713
  154.6664  135.2932  154.9800 H   0  0  0  0  0  0  0  0  0  0  0  0  # atno 10763 bound_to 10752
  154.0842  135.6600  153.4846 H   0  0  0  0  0  0  0  0  0  0  0  0  # atno 10764 bound_to 10752
  153.0460  135.5204  154.7638 H   0  0  0  0  0  0  0  0  0  0  0  0  # atno 10765 bound_to 10752
  140.3399  134.7285  157.4195 H   0  0  0  0  0  0  0  0  0  0  0  0  # atno 11005 bound_to 11000
  145.2444  139.2058  143.4976 LP  0  0  0  0  0  0  0  0  0  0  0  0  # atno 17320 bound_to 7965
  146.3404  140.2345  142.8594 LP  0  0  0  0  0  0  0  0  0  0  0  0  # atno 17321 bound_to 7965
  140.6208  143.9262  150.6524 LP  0  0  0  0  0  0  0  0  0  0  0  0  # atno 17342 bound_to 10162
  140.2535  143.3576  152.1385 LP  0  0  0  0  0  0  0  0  0  0  0  0  # atno 17343 bound_to 10162
  157.3661  131.0758  151.1596 LP  0  0  0  0  0  0  0  0  0  0  0  0  # atno 17370 bound_to 10713
  157.2365  130.6549  149.5871 LP  0  0  0  0  0  0  0  0  0  0  0  0  # atno 17371 bound_to 10713
  140.0789  134.5758  155.8561 LP  0  0  0  0  0  0  0  0  0  0  0  0  # atno 17394 bound_to 11000
  141.2041  133.6637  156.6102 LP  0  0  0  0  0  0  0  0  0  0  0  0  # atno 17395 bound_to 11000

$$$$
