AV-unprocessed.smi:232|AV-procd|sdf|1768|dock9
  -GOLD-   2262020303D 1   1.00000     0.00000
 Structure written by MMmdl.
 52 55  0  0  0  0  0  0  0  0  1 V2000
  145.2135  136.8995  162.1840 C   0  0  0  0  0  0  0  0  0  0  0  0
  146.7096  137.1230  162.4362 C   0  0  0  0  0  0  0  0  0  0  0  0
  147.6000  136.0273  161.8120 C   0  0  1  0  0  0  0  0  0  0  0  0
  147.4764  134.6594  162.5000 C   0  0  0  0  0  0  0  0  0  0  0  0
  147.6871  133.6332  161.3800 C   0  0  0  0  0  0  0  0  0  0  0  0
  147.9291  134.4773  160.1239 C   0  0  1  0  0  0  0  0  0  0  0  0
  147.4083  133.8223  158.8343 C   0  0  0  0  0  0  0  0  0  0  0  0
  147.2936  135.7585  160.4114 N   0  0  0  0  0  0  0  0  0  0  0  0
  147.5775  136.7759  159.5639 C   0  0  0  0  0  0  0  0  0  0  0  0
  146.5956  137.3520  158.8200 N   0  0  0  0  0  0  0  0  0  0  0  0
  146.8940  138.3410  157.9717 C   0  0  0  0  0  0  0  0  0  0  0  0
  148.0833  138.8907  157.7138 N   0  0  0  0  0  0  0  0  0  0  0  0
  149.0678  138.3098  158.4583 C   0  0  0  0  0  0  0  0  0  0  0  0
  148.9022  137.2575  159.4003 C   0  0  0  0  0  0  0  0  0  0  0  0
  150.1267  136.9221  159.9640 N   0  0  0  0  0  0  0  0  0  0  0  0
  150.9723  137.7298  159.3833 C   0  0  0  0  0  0  0  0  0  0  0  0
  150.4211  138.5936  158.4637 N   0  0  0  0  0  0  0  0  0  0  0  0
  151.1229  139.5851  157.6690 C   0  0  0  0  0  0  0  0  0  0  0  0
  150.4833  140.9825  157.7832 C   0  0  2  0  0  0  0  0  0  0  0  0
  149.5413  141.1844  156.7461 O   0  0  0  0  0  0  0  0  0  0  0  0
  151.5260  142.1184  157.8030 C   0  0  2  0  0  0  0  0  0  0  0  0
  152.4687  142.1580  159.0091 C   0  0  0  0  0  0  0  0  0  0  0  0
  152.8854  143.6115  159.0096 C   0  0  0  0  0  0  0  0  0  0  0  0
  151.5870  144.3067  158.6083 C   0  0  0  0  0  0  0  0  0  0  0  0
  150.9175  143.4058  157.7304 O   0  0  0  0  0  0  0  0  0  0  0  0
  144.6197  137.6704  162.6755 H   0  0  0  0  0  0  0  0  0  0  0  0
  144.8902  135.9332  162.5722 H   0  0  0  0  0  0  0  0  0  0  0  0
  144.9784  136.9303  161.1200 H   0  0  0  0  0  0  0  0  0  0  0  0
  147.0034  138.1019  162.0551 H   0  0  0  0  0  0  0  0  0  0  0  0
  146.8659  137.1583  163.5147 H   0  0  0  0  0  0  0  0  0  0  0  0
  148.6418  136.3475  161.8706 H   0  0  0  0  0  0  0  0  0  0  0  0
  148.2038  134.5493  163.3048 H   0  0  0  0  0  0  0  0  0  0  0  0
  146.4832  134.5266  162.9313 H   0  0  0  0  0  0  0  0  0  0  0  0
  148.5242  132.9640  161.5809 H   0  0  0  0  0  0  0  0  0  0  0  0
  146.7912  133.0202  161.2731 H   0  0  0  0  0  0  0  0  0  0  0  0
  149.0054  134.6299  160.0286 H   0  0  0  0  0  0  0  0  0  0  0  0
  147.8740  132.8492  158.6777 H   0  0  0  0  0  0  0  0  0  0  0  0
  147.6284  134.4355  157.9601 H   0  0  0  0  0  0  0  0  0  0  0  0
  146.3288  133.6737  158.8735 H   0  0  0  0  0  0  0  0  0  0  0  0
  146.0608  138.7485  157.4184 H   0  0  0  0  0  0  0  0  0  0  0  0
  152.0294  137.7135  159.6059 H   0  0  0  0  0  0  0  0  0  0  0  0
  152.1610  139.6156  158.0018 H   0  0  0  0  0  0  0  0  0  0  0  0
  151.1370  139.2524  156.6302 H   0  0  0  0  0  0  0  0  0  0  0  0
  149.9252  141.0310  158.7192 H   0  0  0  0  0  0  0  0  0  0  0  0
  149.4374  140.3730  156.2732 H   0  0  0  0  0  0  0  0  0  0  0  0
  152.1416  142.0318  156.9058 H   0  0  0  0  0  0  0  0  0  0  0  0
  151.9466  141.9295  159.9385 H   0  0  0  0  0  0  0  0  0  0  0  0
  153.3101  141.4713  158.9128 H   0  0  0  0  0  0  0  0  0  0  0  0
  153.2701  143.9490  159.9723 H   0  0  0  0  0  0  0  0  0  0  0  0
  153.6534  143.7822  158.2539 H   0  0  0  0  0  0  0  0  0  0  0  0
  150.9576  144.4670  159.4845 H   0  0  0  0  0  0  0  0  0  0  0  0
  151.7598  145.2727  158.1338 H   0  0  0  0  0  0  0  0  0  0  0  0
  1  2  1  0  0  0  0
  1 26  1  0  0  0  0
  1 27  1  0  0  0  0
  1 28  1  0  0  0  0
  2  3  1  0  0  0  0
  2 29  1  0  0  0  0
  2 30  1  0  0  0  0
  3  8  1  0  0  0  0
  3  4  1  0  0  0  0
  3 31  1  0  0  0  0
  4  5  1  0  0  0  0
  4 32  1  0  0  0  0
  4 33  1  0  0  0  0
  5  6  1  0  0  0  0
  5 34  1  0  0  0  0
  5 35  1  0  0  0  0
  6  7  1  0  0  0  0
  6  8  1  0  0  0  0
  6 36  1  0  0  0  0
  7 37  1  0  0  0  0
  7 38  1  0  0  0  0
  7 39  1  0  0  0  0
  8  9  1  0  0  0  0
  9 14  1  0  0  0  0
  9 10  2  0  0  0  0
 10 11  1  0  0  0  0
 11 12  2  0  0  0  0
 11 40  1  0  0  0  0
 12 13  1  0  0  0  0
 13 17  1  0  0  0  0
 13 14  2  0  0  0  0
 14 15  1  0  0  0  0
 15 16  2  0  0  0  0
 16 17  1  0  0  0  0
 16 41  1  0  0  0  0
 17 18  1  0  0  0  0
 18 19  1  0  0  0  0
 18 42  1  0  0  0  0
 18 43  1  0  0  0  0
 19 20  1  0  0  0  0
 19 21  1  0  0  0  0
 19 44  1  0  0  0  0
 20 45  1  0  0  0  0
 21 25  1  0  0  0  0
 21 22  1  0  0  0  0
 21 46  1  0  0  0  0
 22 23  1  0  0  0  0
 22 47  1  0  0  0  0
 22 48  1  0  0  0  0
 23 24  1  0  0  0  0
 23 49  1  0  0  0  0
 23 50  1  0  0  0  0
 24 25  1  0  0  0  0
 24 51  1  0  0  0  0
 24 52  1  0  0  0  0
M  END
> <s_m_source_file>
AV-unprocessed.smi

> <i_m_source_file_index>
232

> <i_lp_mmshare_version>
43012

> <i_f3d_flags>
0

> <s_epik_input>
W0NIM11bQ0gyXVtDQEBIXTFbQ0gyXVtDSDJdW0NAQEhdKFtDSDNdKU4xYyhuW2NIXW4yKWMoYzIzKW5bY0hdbjNbQ0gyXVtDQEhdKFtPSF0pW0NAQEhdNFtDSDJdW0NIMl1bQ0gyXU80

> <s_epik_cmdline>
J2VwaWtfcHl0aG9uJywgJy1waCcsICc3LjAnLCAnLXRuJywgJzgnLCAnLW1hJywgJzIwMCcsICctbWV0YWxfYmluZGluZycsICctaW1hZScsICc8aW5maWxlLm1hZT4nLCAnLW9tYWUnLCAnPG91dGZpbGUubWFlPic=

> <r_lp_tautomer_probability>
1

> <r_epik_Ionization_Penalty>
0.00258048

> <r_epik_Ionization_Penalty_Charging>
0

> <r_epik_Ionization_Penalty_Neutral>
0.00258048

> <r_epik_State_Penalty>
0.00168551

> <r_epik_Charging_Adjusted_Penalty>
0.00168551

> <i_epik_Tot_Q>
0

> <i_epik_Tot_abs_Q>
0

> <r_epik_Metal_State_Penalty>
-0

> <b_epik_Metal_Only>
0

> <s_lp_Force_Field>
OPLS_2005

> <r_lp_Energy>
54.3711

> <b_lp_Chiralities_Consistent>
1

> <s_lp_Variant>
AV-unprocessed.smi:232-2

> <Gold.Version>
5.8.1

> <Gold.Id.Protein>
6NUR|6NUR_protein|mol2

> <Gold.PLP.Fitness>
43.9732

> <Gold.PLP.PLP>
-42.2505

> <Gold.PLP.part.hbond>
-1.6610

> <Gold.PLP.part.metal>
0.0000

> <Gold.PLP.part.buried>
-5.5643

> <Gold.PLP.part.nonpolar>
-35.2432

> <Gold.PLP.part.repulsive>
0.1342

> <Gold.PLP.ligand.clash>
0.0000

> <Gold.PLP.ligand.torsion>
0.6808

> <Gold.PLP.Chemscore.Hbond>
1.0000

> <Gold.PLP.Chemscore.CHOScore>
0.0000

> <Gold.PLP.Chemscore.Metal>
0.0000

> <Gold.Chemscore.Hbonds>
donor molecule, donor type, donor heavy atom, donor atom, acceptor molecule, acceptor atom, score
      P1  H  6896  6909       L1    15  0.86

> <Gold.PLP.Chemscore.Internal.Correction>
0.0844

> <Gold.Rescore>
     Score         DG    S(hbond)    S(metal)    S(lipo)     H(rot)  DE(clash)    DE(int)     intcor
     13.93     -14.61       0.93        0.00     104.72       2.43       0.03       0.65       ----

> <Gold.Chemscore.Fitness>
13.9315

> <Gold.Chemscore.DG>
-14.6141

> <Gold.Chemscore.ZeroCoef>
-5.4800

> <Gold.Chemscore.Hbond>
0.9261

> <Gold.Chemscore.Metal>
0.0000

> <Gold.Chemscore.Lipo>
104.7154

> <Gold.Chemscore.Internal_Hbond>
0.0000

> <Gold.Chemscore.DEClash>
0.0338

> <Gold.Chemscore.DEInternal>
0.6489

> <Gold.Chemscore.Rot>
2.4260

> <Gold.Chemscore.Internal.Correction>
   9.000000E+99

> <Gold.Chemscore.Hbonds>
donor molecule, donor type, donor heavy atom, donor atom, acceptor molecule, acceptor atom, score
      P1  H  6896  6909       L1    15  0.33

> <Gold.Chemscore.Hbond.Weighted>
-3.0931

> <Gold.Chemscore.Metal.Weighted>
-0.0000

> <Gold.Chemscore.Lipo.Weighted>
-12.2517

> <Gold.Chemscore.Internal_Hbond.Weighted>
0.0000

> <Gold.Chemscore.DEClash.Weighted>
0.0338

> <Gold.Chemscore.DEInternal.Weighted>
0.6489

> <Gold.Chemscore.Rot.Weighted>
6.2107

> <Gold.Chemscore.Internal.Correction.Weighted>
   9.000000E+99

> <Gold.Protein.RotatedTorsions>
[ 6907 6896 6895 6894 ] final   91.52 input  -60.11 | X-H torsion
[ 7974 7965 7964 7962 ] final  -82.89 input  175.53 | X-H torsion
[ 8008 7997 7996 7995 ] final -129.20 input   59.86 | X-H torsion
[ 10167 10162 10161 10158 ] final  102.99 input  -65.29 | X-H torsion
[ 10718 10713 10712 10709 ] final -138.57 input   66.30 | X-H torsion
[ 10763 10752 10751 10750 ] final -101.47 input  -60.55 | X-H torsion
[ 11005 11000 10999 10996 ] final   91.79 input  -57.11 | X-H torsion

> <Gold.Protein.ActiveResidues>
 VAL166  LYS551  ARG553  GLY616  TRP617  ASP618  TYR619  PRO620  LYS621  CYS622 
 ASP623  PHE694  ASN695  SER759  ASP760  ASP761  ALA762  ILE779  LEU786  VAL792 
 PHE793  MET794  SER795  GLU796  ALA797  LYS798  CYS799  TRP800  GLU811  SER814 

> <Gold.Protein.RotatedAtoms>
  152.5450  134.1644  159.8570 H   0  0  0  0  0  0  0  0  0  0  0  0  # atno 6907 bound_to 6896
  151.1659  133.4808  159.2601 H   0  0  0  0  0  0  0  0  0  0  0  0  # atno 6908 bound_to 6896
  151.1324  135.0148  159.8643 H   0  0  0  0  0  0  0  0  0  0  0  0  # atno 6909 bound_to 6896
  145.5272  140.9525  143.1623 H   0  0  0  0  0  0  0  0  0  0  0  0  # atno 7974 bound_to 7965
  155.2753  140.0441  157.3010 H   0  0  0  0  0  0  0  0  0  0  0  0  # atno 8008 bound_to 7997
  154.5629  140.2351  155.8276 H   0  0  0  0  0  0  0  0  0  0  0  0  # atno 8009 bound_to 7997
  156.2062  140.3012  155.9639 H   0  0  0  0  0  0  0  0  0  0  0  0  # atno 8010 bound_to 7997
  139.7301  144.7038  151.0735 H   0  0  0  0  0  0  0  0  0  0  0  0  # atno 10167 bound_to 10162
  156.3009  130.7428  151.1479 H   0  0  0  0  0  0  0  0  0  0  0  0  # atno 10718 bound_to 10713
  154.7660  135.4896  153.9555 H   0  0  0  0  0  0  0  0  0  0  0  0  # atno 10763 bound_to 10752
  153.1308  135.6752  153.9188 H   0  0  0  0  0  0  0  0  0  0  0  0  # atno 10764 bound_to 10752
  153.8892  135.3123  155.3425 H   0  0  0  0  0  0  0  0  0  0  0  0  # atno 10765 bound_to 10752
  139.8833  134.8695  156.3480 H   0  0  0  0  0  0  0  0  0  0  0  0  # atno 11005 bound_to 11000
  144.7645  139.6878  143.7221 LP  0  0  0  0  0  0  0  0  0  0  0  0  # atno 17320 bound_to 7965
  146.2068  139.5397  142.9707 LP  0  0  0  0  0  0  0  0  0  0  0  0  # atno 17321 bound_to 7965
  140.7770  143.5054  150.9719 LP  0  0  0  0  0  0  0  0  0  0  0  0  # atno 17342 bound_to 10162
  139.8742  143.7154  152.3163 LP  0  0  0  0  0  0  0  0  0  0  0  0  # atno 17343 bound_to 10162
  157.7367  131.0559  150.5396 LP  0  0  0  0  0  0  0  0  0  0  0  0  # atno 17370 bound_to 10713
  156.5523  130.4235  149.6102 LP  0  0  0  0  0  0  0  0  0  0  0  0  # atno 17371 bound_to 10713
  140.9614  133.7386  156.0406 LP  0  0  0  0  0  0  0  0  0  0  0  0  # atno 17394 bound_to 11000
  140.7985  134.3536  157.5446 LP  0  0  0  0  0  0  0  0  0  0  0  0  # atno 17395 bound_to 11000

$$$$
