AV-unprocessed.smi:1451|AV-procd|sdf|5899|dock3
  -GOLD-   22720 5583D 1   1.00000     0.00000
 Structure written by MMmdl.
 47 48  0  0  0  0  0  0  0  0  2 V2000
  144.6890  135.4788  151.5007 C   0  0  0  0  0  0  0  0  0  0  0  0
  146.0625  135.2607  152.1515 C   0  0  2  0  0  0  0  0  0  0  0  0
  146.2573  133.7954  152.5754 C   0  0  0  0  0  0  0  0  0  0  0  0
  147.6258  133.6134  153.2434 C   0  0  0  0  0  0  0  0  0  0  0  0
  147.7981  134.5887  154.4187 C   0  0  0  0  0  0  0  0  0  0  0  0
  147.6074  135.9960  153.9810 N   0  3  2  0  0  0  0  0  0  0  0  0
  147.8992  136.9634  155.0689 C   0  0  0  0  0  0  0  0  0  0  0  0
  147.6837  138.4260  154.6321 C   0  0  0  0  0  0  0  0  0  0  0  0
  148.9074  139.2070  154.7674 N   0  0  0  0  0  0  0  0  0  0  0  0
  148.9545  140.5195  155.0410 C   0  0  0  0  0  0  0  0  0  0  0  0
  147.9473  141.2029  155.2306 O   0  0  0  0  0  0  0  0  0  0  0  0
  150.3551  141.1434  155.1224 C   0  0  0  0  0  0  0  0  0  0  0  0
  150.8939  141.1814  156.4925 N   0  0  0  0  0  0  0  0  0  0  0  0
  151.2626  142.4411  157.0047 C   0  0  0  0  0  0  0  0  0  0  0  0
  151.7815  142.6081  158.2363 C   0  0  0  0  0  0  0  0  0  0  0  0
  152.1213  143.9875  158.7790 C   0  0  0  0  0  0  0  0  0  0  0  0
  152.6139  143.9102  160.0156 F   0  0  0  0  0  0  0  0  0  0  0  0
  153.0360  144.5672  158.0028 F   0  0  0  0  0  0  0  0  0  0  0  0
  151.0430  144.7718  158.8060 F   0  0  0  0  0  0  0  0  0  0  0  0
  151.9180  141.4137  159.0466 C   0  0  0  0  0  0  0  0  0  0  0  0
  151.5644  140.2022  158.5747 C   0  0  0  0  0  0  0  0  0  0  0  0
  151.0242  140.0337  157.2238 C   0  0  0  0  0  0  0  0  0  0  0  0
  150.7090  138.9306  156.7759 O   0  0  0  0  0  0  0  0  0  0  0  0
  146.2711  136.1978  153.3584 C   0  0  0  0  0  0  0  0  0  0  0  0
  143.8793  135.2603  152.1979 H   0  0  0  0  0  0  0  0  0  0  0  0
  144.5605  134.8351  150.6297 H   0  0  0  0  0  0  0  0  0  0  0  0
  144.5718  136.5101  151.1667 H   0  0  0  0  0  0  0  0  0  0  0  0
  146.8205  135.5002  151.4037 H   0  0  0  0  0  0  0  0  0  0  0  0
  145.4685  133.4999  153.2690 H   0  0  0  0  0  0  0  0  0  0  0  0
  146.1760  133.1359  151.7107 H   0  0  0  0  0  0  0  0  0  0  0  0
  147.7358  132.5862  153.5926 H   0  0  0  0  0  0  0  0  0  0  0  0
  148.4172  133.7779  152.5108 H   0  0  0  0  0  0  0  0  0  0  0  0
  147.0869  134.3536  155.2123 H   0  0  0  0  0  0  0  0  0  0  0  0
  148.7966  134.4639  154.8397 H   0  0  0  0  0  0  0  0  0  0  0  0
  147.2960  136.7272  155.9472 H   0  0  0  0  0  0  0  0  0  0  0  0
  148.9403  136.8478  155.3736 H   0  0  0  0  0  0  0  0  0  0  0  0
  147.3250  138.4697  153.6023 H   0  0  0  0  0  0  0  0  0  0  0  0
  146.9244  138.9086  155.2458 H   0  0  0  0  0  0  0  0  0  0  0  0
  149.7811  138.7178  154.6356 H   0  0  0  0  0  0  0  0  0  0  0  0
  151.0158  140.5802  154.4620 H   0  0  0  0  0  0  0  0  0  0  0  0
  150.3300  142.1529  154.7069 H   0  0  0  0  0  0  0  0  0  0  0  0
  151.1000  143.2680  156.3287 H   0  0  0  0  0  0  0  0  0  0  0  0
  152.3152  141.4895  160.0480 H   0  0  0  0  0  0  0  0  0  0  0  0
  151.6826  139.3333  159.2056 H   0  0  0  0  0  0  0  0  0  0  0  0
  146.1665  137.2295  153.0247 H   0  0  0  0  0  0  0  0  0  0  0  0
  145.4940  136.0294  154.1059 H   0  0  0  0  0  0  0  0  0  0  0  0
  148.2970  136.1600  153.2614 H   0  0  0  0  0  0  0  0  0  0  0  0
  1  2  1  0  0  0  0
  1 25  1  0  0  0  0
  1 26  1  0  0  0  0
  1 27  1  0  0  0  0
  2 24  1  0  0  0  0
  2  3  1  0  0  0  0
  2 28  1  0  0  0  0
  3  4  1  0  0  0  0
  3 29  1  0  0  0  0
  3 30  1  0  0  0  0
  4  5  1  0  0  0  0
  4 31  1  0  0  0  0
  4 32  1  0  0  0  0
  5  6  1  0  0  0  0
  5 33  1  0  0  0  0
  5 34  1  0  0  0  0
  6  7  1  0  0  0  0
  6 24  1  0  0  0  0
  6 47  1  0  0  0  0
  7  8  1  0  0  0  0
  7 35  1  0  0  0  0
  7 36  1  0  0  0  0
  8  9  1  0  0  0  0
  8 37  1  0  0  0  0
  8 38  1  0  0  0  0
  9 10  1  0  0  0  0
  9 39  1  0  0  0  0
 10 11  2  0  0  0  0
 10 12  1  0  0  0  0
 12 13  1  0  0  0  0
 12 40  1  0  0  0  0
 12 41  1  0  0  0  0
 13 22  1  0  0  0  0
 13 14  1  0  0  0  0
 14 15  2  0  0  0  0
 14 42  1  0  0  0  0
 15 16  1  0  0  0  0
 15 20  1  0  0  0  0
 16 17  1  0  0  0  0
 16 18  1  0  0  0  0
 16 19  1  0  0  0  0
 20 21  2  0  0  0  0
 20 43  1  0  0  0  0
 21 22  1  0  0  0  0
 21 44  1  0  0  0  0
 22 23  2  0  0  0  0
 24 45  1  0  0  0  0
 24 46  1  0  0  0  0
M  CHG  1   6   1
M  END
> <s_m_source_file>
AV-unprocessed.smi

> <i_m_source_file_index>
1451

> <i_lp_mmshare_version>
43012

> <i_f3d_flags>
0

> <s_epik_input>
W0NIM11bQ0BASF0xW0NIMl1bQ0gyXVtDSDJdTihbQ0gyXTEpW0NIMl1bQ0gyXVtOSF1DKD1PKVtDSDJdbjJbY0hdYyhDKEYpKEYpRilbY0hdW2NIXWMyPU8=

> <s_epik_cmdline>
J2VwaWtfcHl0aG9uJywgJy1waCcsICc3LjAnLCAnLXRuJywgJzgnLCAnLW1hJywgJzIwMCcsICctbWV0YWxfYmluZGluZycsICctaW1hZScsICc8aW5maWxlLm1hZT4nLCAnLW9tYWUnLCAnPG91dGZpbGUubWFlPic=

> <r_lp_tautomer_probability>
1

> <r_epik_Ionization_Penalty>
0.00192452

> <r_epik_Ionization_Penalty_Charging>
0.00192444

> <r_epik_Ionization_Penalty_Neutral>
8.16761e-08

> <r_epik_State_Penalty>
0.00131115

> <r_epik_Charging_Adjusted_Penalty>
0.00323559

> <i_epik_Tot_Q>
1

> <i_epik_Tot_abs_Q>
1

> <r_epik_Metal_State_Penalty>
-0

> <b_epik_Metal_Only>
0

> <s_lp_Force_Field>
OPLS_2005

> <r_lp_Energy>
28.0939

> <b_lp_Chiralities_Consistent>
1

> <s_lp_Variant>
AV-unprocessed.smi:1451-1

> <Gold.Version>
5.8.1

> <Gold.Id.Protein>
6NUR|6NUR_protein|mol2

> <Gold.PLP.Fitness>
48.9622

> <Gold.PLP.PLP>
-41.6958

> <Gold.PLP.part.hbond>
-1.0000

> <Gold.PLP.part.metal>
0.0000

> <Gold.PLP.part.buried>
-2.7028

> <Gold.PLP.part.nonpolar>
-36.8394

> <Gold.PLP.part.repulsive>
0.0904

> <Gold.PLP.ligand.clash>
0.0000

> <Gold.PLP.ligand.torsion>
0.9623

> <Gold.PLP.Chemscore.Hbond>
2.0000

> <Gold.PLP.Chemscore.CHOScore>
1.0000

> <Gold.PLP.Chemscore.Metal>
0.0000

> <Gold.Chemscore.Hbonds>
donor molecule, donor type, donor heavy atom, donor atom, acceptor molecule, acceptor atom, score
      L1  H     6    47       P1  7948  2.00
      L1  C    14    42       P1  8028  0.53

> <Gold.PLP.Chemscore.Internal.Correction>
0.1911

> <Gold.Rescore>
     Score         DG    S(hbond)    S(metal)    S(lipo)     H(rot)  DE(clash)    DE(int)     intcor
     11.58     -12.43       1.00        0.00      76.40       2.08       0.05       0.81       ----

> <Gold.Chemscore.Fitness>
11.5768

> <Gold.Chemscore.DG>
-12.4337

> <Gold.Chemscore.ZeroCoef>
-5.4800

> <Gold.Chemscore.Hbond>
0.9968

> <Gold.Chemscore.Metal>
0.0000

> <Gold.Chemscore.Lipo>
76.4047

> <Gold.Chemscore.Internal_Hbond>
0.0000

> <Gold.Chemscore.DEClash>
0.0469

> <Gold.Chemscore.DEInternal>
0.8100

> <Gold.Chemscore.Rot>
2.0762

> <Gold.Chemscore.Internal.Correction>
   9.000000E+99

> <Gold.Chemscore.Hbonds>
donor molecule, donor type, donor heavy atom, donor atom, acceptor molecule, acceptor atom, score
      L1  H     6    47       P1  7948  0.94

> <Gold.Chemscore.Hbond.Weighted>
-3.3294

> <Gold.Chemscore.Metal.Weighted>
-0.0000

> <Gold.Chemscore.Lipo.Weighted>
-8.9394

> <Gold.Chemscore.Internal_Hbond.Weighted>
0.0000

> <Gold.Chemscore.DEClash.Weighted>
0.0469

> <Gold.Chemscore.DEInternal.Weighted>
0.8100

> <Gold.Chemscore.Rot.Weighted>
5.3150

> <Gold.Chemscore.Internal.Correction.Weighted>
   9.000000E+99

> <Gold.Protein.RotatedTorsions>
[ 6907 6896 6895 6894 ] final -131.13 input  -60.11 | X-H torsion
[ 7974 7965 7964 7962 ] final  -12.14 input  175.53 | X-H torsion
[ 8008 7997 7996 7995 ] final -165.26 input   59.86 | X-H torsion
[ 10167 10162 10161 10158 ] final   42.99 input  -65.29 | X-H torsion
[ 10718 10713 10712 10709 ] final -172.77 input   66.30 | X-H torsion
[ 10763 10752 10751 10750 ] final -135.43 input  -60.55 | X-H torsion
[ 11005 11000 10999 10996 ] final   66.78 input  -57.11 | X-H torsion

> <Gold.Protein.ActiveResidues>
 VAL166  LYS551  ARG553  GLY616  TRP617  ASP618  TYR619  PRO620  LYS621  CYS622 
 ASP623  PHE694  ASN695  SER759  ASP760  ASP761  ALA762  ILE779  LEU786  VAL792 
 PHE793  MET794  SER795  GLU796  ALA797  LYS798  CYS799  TRP800  GLU811  SER814 

> <Gold.Protein.RotatedAtoms>
  150.9475  133.6587  159.2778 H   0  0  0  0  0  0  0  0  0  0  0  0  # atno 6907 bound_to 6896
  151.3955  135.0961  159.9549 H   0  0  0  0  0  0  0  0  0  0  0  0  # atno 6908 bound_to 6896
  152.5096  133.8980  159.7481 H   0  0  0  0  0  0  0  0  0  0  0  0  # atno 6909 bound_to 6896
  146.2162  140.3014  142.8375 H   0  0  0  0  0  0  0  0  0  0  0  0  # atno 7974 bound_to 7965
  155.8473  140.0957  157.1697 H   0  0  0  0  0  0  0  0  0  0  0  0  # atno 8008 bound_to 7997
  154.3984  140.1389  156.3863 H   0  0  0  0  0  0  0  0  0  0  0  0  # atno 8009 bound_to 7997
  155.7999  140.3453  155.5399 H   0  0  0  0  0  0  0  0  0  0  0  0  # atno 8010 bound_to 7997
  140.3488  144.2376  150.6148 H   0  0  0  0  0  0  0  0  0  0  0  0  # atno 10167 bound_to 10162
  156.7605  130.9412  151.3118 H   0  0  0  0  0  0  0  0  0  0  0  0  # atno 10718 bound_to 10713
  154.8703  135.3703  154.4898 H   0  0  0  0  0  0  0  0  0  0  0  0  # atno 10763 bound_to 10752
  153.5545  135.7024  153.5580 H   0  0  0  0  0  0  0  0  0  0  0  0  # atno 10764 bound_to 10752
  153.3684  135.4028  155.1734 H   0  0  0  0  0  0  0  0  0  0  0  0  # atno 10765 bound_to 10752
  139.9811  134.6743  156.0262 H   0  0  0  0  0  0  0  0  0  0  0  0  # atno 11005 bound_to 11000
  144.9054  140.7693  143.5840 LP  0  0  0  0  0  0  0  0  0  0  0  0  # atno 17320 bound_to 7965
  145.2942  139.1873  143.4724 LP  0  0  0  0  0  0  0  0  0  0  0  0  # atno 17321 bound_to 7965
  140.5239  143.2259  151.8346 LP  0  0  0  0  0  0  0  0  0  0  0  0  # atno 17342 bound_to 10162
  139.4829  144.4804  151.9314 LP  0  0  0  0  0  0  0  0  0  0  0  0  # atno 17343 bound_to 10162
  157.6736  130.9074  150.0098 LP  0  0  0  0  0  0  0  0  0  0  0  0  # atno 17370 bound_to 10713
  156.1342  130.3643  149.9684 LP  0  0  0  0  0  0  0  0  0  0  0  0  # atno 17371 bound_to 10713
  141.1482  133.6552  156.3933 LP  0  0  0  0  0  0  0  0  0  0  0  0  # atno 17394 bound_to 11000
  140.5096  134.6408  157.5279 LP  0  0  0  0  0  0  0  0  0  0  0  0  # atno 17395 bound_to 11000

$$$$
