AV-unprocessed.smi:2889|AV-procd|sdf|11115|dock10
  -GOLD-   2272015583D 1   1.00000     0.00000
 Structure written by MMmdl.
 35 36  0  0  0  0  0  0  0  0  2 V2000
  151.0720  144.3757  160.5682 C   0  0  0  0  0  0  0  0  0  0  0  0
  151.8770  144.4370  158.9433 S   0  0  0  0  0  0  0  0  0  0  0  0
  152.7595  142.8409  158.9251 C   0  0  1  0  0  0  0  0  0  0  0  0
  153.3521  142.5734  160.3355 C   0  0  0  0  0  0  0  0  0  0  0  0
  154.1085  141.2336  160.4369 C   0  0  0  0  0  0  0  0  0  0  0  0
  153.1841  140.0901  159.9769 C   0  0  0  0  0  0  0  0  0  0  0  0
  152.6060  140.3354  158.5627 C   0  0  0  0  0  0  0  0  0  0  0  0
  151.8476  141.6810  158.4251 C   0  0  2  0  0  0  0  0  0  0  0  0
  151.4771  141.8871  157.0319 N   0  5  0  0  0  0  0  0  0  0  0  0
  150.6925  140.7217  156.2217 S   0  0  0  0  0  0  0  0  0  0  0  0
  151.5429  140.0455  155.2279 O   0  0  0  0  0  0  0  0  0  0  0  0
  149.8959  139.8673  157.1171 O   0  0  0  0  0  0  0  0  0  0  0  0
  149.4700  141.7279  155.2708 C   0  0  0  0  0  0  0  0  0  0  0  0
  148.5434  140.8376  154.4875 C   0  0  0  0  0  0  0  0  0  0  0  0
  147.3523  141.1916  153.7936 C   0  0  0  0  0  0  0  0  0  0  0  0
  146.9215  140.0066  153.2719 C   0  0  0  0  0  0  0  0  0  0  0  0
  147.7633  139.0008  153.6189 O   0  0  0  0  0  0  0  0  0  0  0  0
  148.7936  139.5400  154.3979 N   0  0  0  0  0  0  0  0  0  0  0  0
  150.4712  145.2719  160.7208 H   0  0  0  0  0  0  0  0  0  0  0  0
  151.8115  144.3192  161.3666 H   0  0  0  0  0  0  0  0  0  0  0  0
  150.4179  143.5066  160.6366 H   0  0  0  0  0  0  0  0  0  0  0  0
  153.6037  142.9395  158.2408 H   0  0  0  0  0  0  0  0  0  0  0  0
  154.0317  143.3837  160.6015 H   0  0  0  0  0  0  0  0  0  0  0  0
  152.5596  142.5946  161.0867 H   0  0  0  0  0  0  0  0  0  0  0  0
  154.9996  141.2641  159.8086 H   0  0  0  0  0  0  0  0  0  0  0  0
  154.4474  141.0628  161.4590 H   0  0  0  0  0  0  0  0  0  0  0  0
  153.7384  139.1513  159.9838 H   0  0  0  0  0  0  0  0  0  0  0  0
  152.3739  139.9628  160.6978 H   0  0  0  0  0  0  0  0  0  0  0  0
  153.4262  140.3054  157.8434 H   0  0  0  0  0  0  0  0  0  0  0  0
  151.9454  139.5085  158.3000 H   0  0  0  0  0  0  0  0  0  0  0  0
  150.9711  141.6439  159.0737 H   0  0  0  0  0  0  0  0  0  0  0  0
  148.9122  142.3294  155.9888 H   0  0  0  0  0  0  0  0  0  0  0  0
  150.0122  142.4151  154.6219 H   0  0  0  0  0  0  0  0  0  0  0  0
  146.8945  142.1643  153.6893 H   0  0  0  0  0  0  0  0  0  0  0  0
  146.0741  139.7287  152.6633 H   0  0  0  0  0  0  0  0  0  0  0  0
  1  2  1  0  0  0  0
  1 19  1  0  0  0  0
  1 20  1  0  0  0  0
  1 21  1  0  0  0  0
  2  3  1  0  0  0  0
  3  8  1  0  0  0  0
  3  4  1  0  0  0  0
  3 22  1  0  0  0  0
  4  5  1  0  0  0  0
  4 23  1  0  0  0  0
  4 24  1  0  0  0  0
  5  6  1  0  0  0  0
  5 25  1  0  0  0  0
  5 26  1  0  0  0  0
  6  7  1  0  0  0  0
  6 27  1  0  0  0  0
  6 28  1  0  0  0  0
  7  8  1  0  0  0  0
  7 29  1  0  0  0  0
  7 30  1  0  0  0  0
  8  9  1  0  0  0  0
  8 31  1  0  0  0  0
  9 10  1  0  0  0  0
 10 11  2  0  0  0  0
 10 12  2  0  0  0  0
 10 13  1  0  0  0  0
 13 14  1  0  0  0  0
 13 32  1  0  0  0  0
 13 33  1  0  0  0  0
 14 18  2  0  0  0  0
 14 15  1  0  0  0  0
 15 16  2  0  0  0  0
 15 34  1  0  0  0  0
 16 17  1  0  0  0  0
 16 35  1  0  0  0  0
 17 18  1  0  0  0  0
M  CHG  1   9  -1
M  END
> <s_m_source_file>
AV-unprocessed.smi

> <i_m_source_file_index>
2889

> <i_lp_mmshare_version>
43012

> <i_f3d_flags>
0

> <s_epik_input>
W0NIM11TW0NAQEhdMVtDSDJdW0NIMl1bQ0gyXVtDSDJdW0NASF0xW05IXVMoPU8pKD1PKVtDSDJdYzJbY0hdW2NIXW9uMg==

> <s_epik_cmdline>
J2VwaWtfcHl0aG9uJywgJy1waCcsICc3LjAnLCAnLXRuJywgJzgnLCAnLW1hJywgJzIwMCcsICctbWV0YWxfYmluZGluZycsICctaW1hZScsICc8aW5maWxlLm1hZT4nLCAnLW9tYWUnLCAnPG91dGZpbGUubWFlPic=

> <r_lp_tautomer_probability>
1

> <r_epik_Ionization_Penalty>
4.65467

> <r_epik_Ionization_Penalty_Charging>
4.65467

> <r_epik_Ionization_Penalty_Neutral>
2.71476e-10

> <r_epik_State_Penalty>
4.65444

> <r_epik_Charging_Adjusted_Penalty>
9.30911

> <i_epik_Tot_Q>
-1

> <i_epik_Tot_abs_Q>
1

> <r_epik_Metal_State_Penalty>
0.901484

> <b_epik_Metal_Only>
1

> <s_lp_Force_Field>
OPLS_2005

> <r_lp_Energy>
9.1096

> <b_lp_Chiralities_Consistent>
1

> <s_lp_Variant>
AV-unprocessed.smi:2889-8

> <Gold.Version>
5.8.1

> <Gold.Id.Protein>
6NUR|6NUR_protein|mol2

> <Gold.PLP.Fitness>
42.4218

> <Gold.PLP.PLP>
-37.4203

> <Gold.PLP.part.hbond>
-1.0000

> <Gold.PLP.part.metal>
0.0000

> <Gold.PLP.part.buried>
-2.8879

> <Gold.PLP.part.nonpolar>
-34.5579

> <Gold.PLP.part.repulsive>
0.6844

> <Gold.PLP.ligand.clash>
0.0000

> <Gold.PLP.ligand.torsion>
1.0023

> <Gold.PLP.Chemscore.Hbond>
1.0000

> <Gold.PLP.Chemscore.CHOScore>
1.0000

> <Gold.PLP.Chemscore.Metal>
0.0000

> <Gold.Chemscore.Hbonds>
donor molecule, donor type, donor heavy atom, donor atom, acceptor molecule, acceptor atom, score
      P1  H  7989  7998       L1    11  1.00
      L1  C    16    35       P1 10175  1.00

> <Gold.PLP.Chemscore.Internal.Correction>
1.0061

> <Gold.Rescore>
     Score         DG    S(hbond)    S(metal)    S(lipo)     H(rot)  DE(clash)    DE(int)     intcor
     14.04     -17.49       0.90        0.00     110.39       1.53       0.37       3.08       ----

> <Gold.Chemscore.Fitness>
14.0418

> <Gold.Chemscore.DG>
-17.4937

> <Gold.Chemscore.ZeroCoef>
-5.4800

> <Gold.Chemscore.Hbond>
0.9039

> <Gold.Chemscore.Metal>
0.0000

> <Gold.Chemscore.Lipo>
110.3865

> <Gold.Chemscore.Internal_Hbond>
0.0000

> <Gold.Chemscore.DEClash>
0.3677

> <Gold.Chemscore.DEInternal>
3.0842

> <Gold.Chemscore.Rot>
1.5314

> <Gold.Chemscore.Internal.Correction>
   9.000000E+99

> <Gold.Chemscore.Hbonds>
donor molecule, donor type, donor heavy atom, donor atom, acceptor molecule, acceptor atom, score
      P1  H  7989  7998       L1    11  0.89

> <Gold.Chemscore.Hbond.Weighted>
-3.0189

> <Gold.Chemscore.Metal.Weighted>
-0.0000

> <Gold.Chemscore.Lipo.Weighted>
-12.9152

> <Gold.Chemscore.Internal_Hbond.Weighted>
0.0000

> <Gold.Chemscore.DEClash.Weighted>
0.3677

> <Gold.Chemscore.DEInternal.Weighted>
3.0842

> <Gold.Chemscore.Rot.Weighted>
3.9205

> <Gold.Chemscore.Internal.Correction.Weighted>
   9.000000E+99

> <Gold.Protein.RotatedTorsions>
[ 6907 6896 6895 6894 ] final  168.86 input  -60.11 | X-H torsion
[ 7974 7965 7964 7962 ] final  -45.11 input  175.53 | X-H torsion
[ 8008 7997 7996 7995 ] final   31.01 input   59.86 | X-H torsion
[ 10167 10162 10161 10158 ] final  108.83 input  -65.29 | X-H torsion
[ 10718 10713 10712 10709 ] final  -71.28 input   66.30 | X-H torsion
[ 10763 10752 10751 10750 ] final  147.79 input  -60.55 | X-H torsion
[ 11005 11000 10999 10996 ] final  156.39 input  -57.11 | X-H torsion

> <Gold.Protein.ActiveResidues>
 VAL166  LYS551  ARG553  GLY616  TRP617  ASP618  TYR619  PRO620  LYS621  CYS622 
 ASP623  PHE694  ASN695  SER759  ASP760  ASP761  ALA762  ILE779  LEU786  VAL792 
 PHE793  MET794  SER795  GLU796  ALA797  LYS798  CYS799  TRP800  GLU811  SER814 

> <Gold.Protein.RotatedAtoms>
  151.8410  133.3423  159.3642 H   0  0  0  0  0  0  0  0  0  0  0  0  # atno 6907 bound_to 6896
  150.7235  134.5391  159.5748 H   0  0  0  0  0  0  0  0  0  0  0  0  # atno 6908 bound_to 6896
  152.2865  134.7771  160.0437 H   0  0  0  0  0  0  0  0  0  0  0  0  # atno 6909 bound_to 6896
  145.9854  140.7239  142.9343 H   0  0  0  0  0  0  0  0  0  0  0  0  # atno 7974 bound_to 7965
  155.0995  140.3228  155.4551 H   0  0  0  0  0  0  0  0  0  0  0  0  # atno 8008 bound_to 7997
  156.2721  140.2063  156.6069 H   0  0  0  0  0  0  0  0  0  0  0  0  # atno 8009 bound_to 7997
  154.6840  140.0523  157.0282 H   0  0  0  0  0  0  0  0  0  0  0  0  # atno 8010 bound_to 7997
  139.6815  144.7118  151.1507 H   0  0  0  0  0  0  0  0  0  0  0  0  # atno 10167 bound_to 10162
  156.0370  130.4348  150.2421 H   0  0  0  0  0  0  0  0  0  0  0  0  # atno 10718 bound_to 10713
  154.0441  135.2887  155.3350 H   0  0  0  0  0  0  0  0  0  0  0  0  # atno 10763 bound_to 10752
  154.6910  135.5226  153.8396 H   0  0  0  0  0  0  0  0  0  0  0  0  # atno 10764 bound_to 10752
  153.0588  135.6605  154.0643 H   0  0  0  0  0  0  0  0  0  0  0  0  # atno 10765 bound_to 10752
  140.1670  134.8569  157.2644 H   0  0  0  0  0  0  0  0  0  0  0  0  # atno 11005 bound_to 11000
  144.6873  140.2979  143.7268 LP  0  0  0  0  0  0  0  0  0  0  0  0  # atno 17320 bound_to 7965
  145.7709  139.1857  143.2213 LP  0  0  0  0  0  0  0  0  0  0  0  0  # atno 17321 bound_to 7965
  140.7653  143.5692  150.9014 LP  0  0  0  0  0  0  0  0  0  0  0  0  # atno 17342 bound_to 10162
  139.9365  143.6432  152.3064 LP  0  0  0  0  0  0  0  0  0  0  0  0  # atno 17343 bound_to 10162
  157.0520  131.0065  151.3251 LP  0  0  0  0  0  0  0  0  0  0  0  0  # atno 17370 bound_to 10713
  157.5134  130.7952  149.7729 LP  0  0  0  0  0  0  0  0  0  0  0  0  # atno 17371 bound_to 10713
  140.2422  134.3782  155.7476 LP  0  0  0  0  0  0  0  0  0  0  0  0  # atno 17394 bound_to 11000
  141.2214  133.7271  156.8806 LP  0  0  0  0  0  0  0  0  0  0  0  0  # atno 17395 bound_to 11000

$$$$
