AV-unprocessed.smi:1367|AV-procd|sdf|5574|dock6
  -GOLD-   22720 5163D 1   1.00000     0.00000
 Structure written by MMmdl.
 29 29  0  0  0  0  0  0  0  0  2 V2000
  150.3019  134.8779  154.8231 C   0  0  0  0  0  0  0  0  0  0  0  0
  150.5124  136.3509  155.1016 C   0  0  0  0  0  0  0  0  0  0  0  0
  149.4970  137.1235  155.1848 N   0  0  0  0  0  0  0  0  0  0  0  0
  149.6881  138.4917  155.4424 C   0  0  0  0  0  0  0  0  0  0  0  0
  148.4279  139.3358  155.5182 C   0  0  0  0  0  0  0  0  0  0  0  0
  150.9383  139.0108  155.6077 C   0  0  0  0  0  0  0  0  0  0  0  0
  151.1997  140.4929  155.8800 C   0  0  0  0  0  0  0  0  0  0  0  0
  151.9473  140.8099  157.1771 C   0  0  0  0  0  0  0  0  0  0  0  0
  152.7110  139.9771  157.6650 O   0  0  0  0  0  0  0  0  0  0  0  0
  151.7237  142.0152  157.7225 N   0  0  0  0  0  0  0  0  0  0  0  0
  152.2945  142.4937  158.9761 C   0  0  0  0  0  0  0  0  0  0  0  0
  151.9464  143.9687  159.2413 C   0  0  0  0  0  0  0  0  0  0  0  0
  152.3178  144.2878  160.4807 F   0  0  0  0  0  0  0  0  0  0  0  0
  152.5957  144.7580  158.3852 F   0  0  0  0  0  0  0  0  0  0  0  0
  150.6354  144.1795  159.1241 F   0  0  0  0  0  0  0  0  0  0  0  0
  152.0819  138.0869  155.5010 C   0  0  0  0  0  0  0  0  0  0  0  0
  153.2321  138.5065  155.6239 O   0  0  0  0  0  0  0  0  0  0  0  0
  151.8140  136.7738  155.2520 N   0  5  0  0  0  0  0  0  0  0  0  0
  149.2600  134.6692  154.5757 H   0  0  0  0  0  0  0  0  0  0  0  0
  150.5723  134.2867  155.6983 H   0  0  0  0  0  0  0  0  0  0  0  0
  150.9208  134.5573  153.9844 H   0  0  0  0  0  0  0  0  0  0  0  0
  148.3147  139.7640  156.5140 H   0  0  0  0  0  0  0  0  0  0  0  0
  147.5397  138.7393  155.3072 H   0  0  0  0  0  0  0  0  0  0  0  0
  148.4645  140.1474  154.7914 H   0  0  0  0  0  0  0  0  0  0  0  0
  151.7739  140.8996  155.0471 H   0  0  0  0  0  0  0  0  0  0  0  0
  150.2685  141.0600  155.8727 H   0  0  0  0  0  0  0  0  0  0  0  0
  151.0816  142.6347  157.2482 H   0  0  0  0  0  0  0  0  0  0  0  0
  151.9681  141.8689  159.8089 H   0  0  0  0  0  0  0  0  0  0  0  0
  153.3769  142.3789  158.9126 H   0  0  0  0  0  0  0  0  0  0  0  0
  1  2  1  0  0  0  0
  1 19  1  0  0  0  0
  1 20  1  0  0  0  0
  1 21  1  0  0  0  0
  2 18  1  0  0  0  0
  2  3  2  0  0  0  0
  3  4  1  0  0  0  0
  4  5  1  0  0  0  0
  4  6  2  0  0  0  0
  5 22  1  0  0  0  0
  5 23  1  0  0  0  0
  5 24  1  0  0  0  0
  6  7  1  0  0  0  0
  6 16  1  0  0  0  0
  7  8  1  0  0  0  0
  7 25  1  0  0  0  0
  7 26  1  0  0  0  0
  8  9  2  0  0  0  0
  8 10  1  0  0  0  0
 10 11  1  0  0  0  0
 10 27  1  0  0  0  0
 11 12  1  0  0  0  0
 11 28  1  0  0  0  0
 11 29  1  0  0  0  0
 12 13  1  0  0  0  0
 12 14  1  0  0  0  0
 12 15  1  0  0  0  0
 16 17  2  0  0  0  0
 16 18  1  0  0  0  0
M  CHG  1  18  -1
M  END
> <s_m_source_file>
AV-unprocessed.smi

> <i_m_source_file_index>
1367

> <i_lp_mmshare_version>
43012

> <i_f3d_flags>
0

> <s_epik_input>
W0NIM11jMW5jKFtDSDNdKWMoYyg9TylbbkhdMSlbQ0gyXUMoPU8pW05IXVtDSDJdQyhGKShGKUY=

> <s_epik_cmdline>
J2VwaWtfcHl0aG9uJywgJy1waCcsICc3LjAnLCAnLXRuJywgJzgnLCAnLW1hJywgJzIwMCcsICctbWV0YWxfYmluZGluZycsICctaW1hZScsICc8aW5maWxlLm1hZT4nLCAnLW9tYWUnLCAnPG91dGZpbGUubWFlPic=

> <r_lp_tautomer_probability>
0.839158

> <r_epik_Ionization_Penalty>
6.39142

> <r_epik_Ionization_Penalty_Charging>
4.71143e-08

> <r_epik_Ionization_Penalty_Neutral>
6.39142

> <r_epik_State_Penalty>
4.29634

> <r_epik_Charging_Adjusted_Penalty>
4.29634

> <i_epik_Tot_Q>
-1

> <i_epik_Tot_abs_Q>
1

> <r_epik_Metal_State_Penalty>
0.740852

> <b_epik_Metal_Only>
1

> <s_lp_Force_Field>
OPLS_2005

> <r_lp_Energy>
6.28206

> <b_lp_Chiralities_Consistent>
1

> <s_lp_Variant>
AV-unprocessed.smi:1367-3

> <Gold.Version>
5.8.1

> <Gold.Id.Protein>
6NUR|6NUR_protein|mol2

> <Gold.PLP.Fitness>
42.0405

> <Gold.PLP.PLP>
-33.9285

> <Gold.PLP.part.hbond>
-3.0000

> <Gold.PLP.part.metal>
0.0000

> <Gold.PLP.part.buried>
-4.9732

> <Gold.PLP.part.nonpolar>
-26.7216

> <Gold.PLP.part.repulsive>
0.2897

> <Gold.PLP.ligand.clash>
0.0000

> <Gold.PLP.ligand.torsion>
0.4487

> <Gold.PLP.Chemscore.Hbond>
3.0000

> <Gold.PLP.Chemscore.CHOScore>
0.0000

> <Gold.PLP.Chemscore.Metal>
0.0000

> <Gold.Chemscore.Hbonds>
donor molecule, donor type, donor heavy atom, donor atom, acceptor molecule, acceptor atom, score
      P1  H  7997  8010       L1     9  1.00
      P1  H 10752 10765       L1    18  2.00

> <Gold.PLP.Chemscore.Internal.Correction>
0.0093

> <Gold.Rescore>
     Score         DG    S(hbond)    S(metal)    S(lipo)     H(rot)  DE(clash)    DE(int)     intcor
     10.54     -12.40       1.94        0.00      44.49       1.86       0.02       1.84       ----

> <Gold.Chemscore.Fitness>
10.5375

> <Gold.Chemscore.DG>
-12.4037

> <Gold.Chemscore.ZeroCoef>
-5.4800

> <Gold.Chemscore.Hbond>
1.9416

> <Gold.Chemscore.Metal>
0.0000

> <Gold.Chemscore.Lipo>
44.4859

> <Gold.Chemscore.Internal_Hbond>
0.0000

> <Gold.Chemscore.DEClash>
0.0238

> <Gold.Chemscore.DEInternal>
1.8424

> <Gold.Chemscore.Rot>
1.8617

> <Gold.Chemscore.Internal.Correction>
   9.000000E+99

> <Gold.Chemscore.Hbonds>
donor molecule, donor type, donor heavy atom, donor atom, acceptor molecule, acceptor atom, score
      P1  H  7997  8010       L1     9  0.64
      P1  H 10752 10765       L1    18  0.81

> <Gold.Chemscore.Hbond.Weighted>
-6.4848

> <Gold.Chemscore.Metal.Weighted>
-0.0000

> <Gold.Chemscore.Lipo.Weighted>
-5.2048

> <Gold.Chemscore.Internal_Hbond.Weighted>
0.0000

> <Gold.Chemscore.DEClash.Weighted>
0.0238

> <Gold.Chemscore.DEInternal.Weighted>
1.8424

> <Gold.Chemscore.Rot.Weighted>
4.7660

> <Gold.Chemscore.Internal.Correction.Weighted>
   9.000000E+99

> <Gold.Protein.RotatedTorsions>
[ 6907 6896 6895 6894 ] final   70.05 input  -60.11 | X-H torsion
[ 7974 7965 7964 7962 ] final  154.52 input  175.53 | X-H torsion
[ 8008 7997 7996 7995 ] final   55.98 input   59.86 | X-H torsion
[ 10167 10162 10161 10158 ] final   86.11 input  -65.29 | X-H torsion
[ 10718 10713 10712 10709 ] final -102.71 input   66.30 | X-H torsion
[ 10763 10752 10751 10750 ] final -178.19 input  -60.55 | X-H torsion
[ 11005 11000 10999 10996 ] final  150.04 input  -57.11 | X-H torsion

> <Gold.Protein.ActiveResidues>
 VAL166  LYS551  ARG553  GLY616  TRP617  ASP618  TYR619  PRO620  LYS621  CYS622 
 ASP623  PHE694  ASN695  SER759  ASP760  ASP761  ALA762  ILE779  LEU786  VAL792 
 PHE793  MET794  SER795  GLU796  ALA797  LYS798  CYS799  TRP800  GLU811  SER814 

> <Gold.Protein.RotatedAtoms>
  152.4725  134.4926  159.9699 H   0  0  0  0  0  0  0  0  0  0  0  0  # atno 6907 bound_to 6896
  151.4950  133.3511  159.2867 H   0  0  0  0  0  0  0  0  0  0  0  0  # atno 6908 bound_to 6896
  150.8743  134.8150  159.7239 H   0  0  0  0  0  0  0  0  0  0  0  0  # atno 6909 bound_to 6896
  144.8083  139.6945  143.6152 H   0  0  0  0  0  0  0  0  0  0  0  0  # atno 7974 bound_to 7965
  155.5100  140.3477  155.4387 H   0  0  0  0  0  0  0  0  0  0  0  0  # atno 8008 bound_to 7997
  156.0856  140.1397  156.9685 H   0  0  0  0  0  0  0  0  0  0  0  0  # atno 8009 bound_to 7997
  154.4604  140.0937  156.6854 H   0  0  0  0  0  0  0  0  0  0  0  0  # atno 8010 bound_to 7997
  139.8908  144.6386  150.8740 H   0  0  0  0  0  0  0  0  0  0  0  0  # atno 10167 bound_to 10162
  156.0239  130.5433  150.7148 H   0  0  0  0  0  0  0  0  0  0  0  0  # atno 10718 bound_to 10713
  154.5508  135.2813  155.1010 H   0  0  0  0  0  0  0  0  0  0  0  0  # atno 10763 bound_to 10752
  154.2456  135.6349  153.5226 H   0  0  0  0  0  0  0  0  0  0  0  0  # atno 10764 bound_to 10752
  153.0002  135.5570  154.6074 H   0  0  0  0  0  0  0  0  0  0  0  0  # atno 10765 bound_to 10752
  140.1096  134.8932  157.1917 H   0  0  0  0  0  0  0  0  0  0  0  0  # atno 11005 bound_to 11000
  146.2378  139.5940  142.9512 LP  0  0  0  0  0  0  0  0  0  0  0  0  # atno 17320 bound_to 7965
  145.5384  141.0422  143.2344 LP  0  0  0  0  0  0  0  0  0  0  0  0  # atno 17321 bound_to 7965
  140.7727  143.3511  151.2012 LP  0  0  0  0  0  0  0  0  0  0  0  0  # atno 17342 bound_to 10162
  139.7111  143.9375  152.2948 LP  0  0  0  0  0  0  0  0  0  0  0  0  # atno 17343 bound_to 10162
  157.4778  131.0899  151.0570 LP  0  0  0  0  0  0  0  0  0  0  0  0  # atno 17370 bound_to 10713
  157.1012  130.5983  149.5461 LP  0  0  0  0  0  0  0  0  0  0  0  0  # atno 17371 bound_to 10713
  140.3108  134.3025  155.7267 LP  0  0  0  0  0  0  0  0  0  0  0  0  # atno 17394 bound_to 11000
  141.2127  133.7649  156.9774 LP  0  0  0  0  0  0  0  0  0  0  0  0  # atno 17395 bound_to 11000

$$$$
