AV-unprocessed.smi:2318|AV-procd|sdf|9276|dock4
  -GOLD-   2272012503D 1   1.00000     0.00000
 Structure written by MMmdl.
 37 38  0  0  0  0  0  0  0  0  1 V2000
  143.9257  132.6738  148.8451 C   0  0  0  0  0  0  0  0  0  0  0  0
  144.3142  133.2573  150.1111 N   0  0  0  0  0  0  0  0  0  0  0  0
  143.5074  133.6833  151.1473 C   0  0  0  0  0  0  0  0  0  0  0  0
  144.3245  134.1633  152.1314 C   0  0  0  0  0  0  0  0  0  0  0  0
  145.6279  133.9823  151.5918 C   0  0  0  0  0  0  0  0  0  0  0  0
  146.7756  134.3660  152.3311 N   0  0  0  0  0  0  0  0  0  0  0  0
  147.1985  133.8687  153.5058 C   0  0  0  0  0  0  0  0  0  0  0  0
  146.6323  132.9819  154.1455 O   0  0  0  0  0  0  0  0  0  0  0  0
  148.3333  134.4635  153.9019 N   0  0  0  0  0  0  0  0  0  0  0  0
  149.0649  134.1856  155.1397 C   0  0  1  0  0  0  0  0  0  0  0  0
  150.0266  132.9884  154.9205 C   0  0  0  0  0  0  0  0  0  0  0  0
  149.3799  131.7705  154.2479 C   0  0  0  0  0  0  0  0  0  0  0  0
  150.3437  130.6168  154.5241 C   0  0  0  0  0  0  0  0  0  0  0  0
  151.0150  130.9465  155.8630 C   0  0  0  0  0  0  0  0  0  0  0  0
  150.6193  132.3898  156.2042 C   0  0  0  0  0  0  0  0  0  0  0  0
  149.7732  135.4822  155.5946 C   0  0  0  0  0  0  0  0  0  0  0  0
  148.8858  136.4738  155.6835 F   0  0  0  0  0  0  0  0  0  0  0  0
  150.3308  135.3287  156.7948 F   0  0  0  0  0  0  0  0  0  0  0  0
  150.7175  135.8322  154.7204 F   0  0  0  0  0  0  0  0  0  0  0  0
  145.6237  133.4417  150.3809 N   0  0  0  0  0  0  0  0  0  0  0  0
  142.8559  132.4625  148.8429 H   0  0  0  0  0  0  0  0  0  0  0  0
  144.4706  131.7433  148.6825 H   0  0  0  0  0  0  0  0  0  0  0  0
  144.1525  133.3683  148.0358 H   0  0  0  0  0  0  0  0  0  0  0  0
  142.4309  133.6102  151.0984 H   0  0  0  0  0  0  0  0  0  0  0  0
  144.0342  134.5771  153.0859 H   0  0  0  0  0  0  0  0  0  0  0  0
  147.3362  135.0972  151.9194 H   0  0  0  0  0  0  0  0  0  0  0  0
  148.7206  135.1809  153.3066 H   0  0  0  0  0  0  0  0  0  0  0  0
  148.3585  133.9120  155.9257 H   0  0  0  0  0  0  0  0  0  0  0  0
  150.8547  133.3120  154.2878 H   0  0  0  0  0  0  0  0  0  0  0  0
  148.4144  131.5587  154.7100 H   0  0  0  0  0  0  0  0  0  0  0  0
  149.2111  131.9163  153.1805 H   0  0  0  0  0  0  0  0  0  0  0  0
  149.8349  129.6524  154.5398 H   0  0  0  0  0  0  0  0  0  0  0  0
  151.0988  130.5764  153.7381 H   0  0  0  0  0  0  0  0  0  0  0  0
  150.6875  130.2646  156.6486 H   0  0  0  0  0  0  0  0  0  0  0  0
  152.0977  130.8476  155.7770 H   0  0  0  0  0  0  0  0  0  0  0  0
  151.4694  132.9643  156.5731 H   0  0  0  0  0  0  0  0  0  0  0  0
  149.8647  132.3777  156.9919 H   0  0  0  0  0  0  0  0  0  0  0  0
  1  2  1  0  0  0  0
  1 21  1  0  0  0  0
  1 22  1  0  0  0  0
  1 23  1  0  0  0  0
  2 20  1  0  0  0  0
  2  3  1  0  0  0  0
  3  4  2  0  0  0  0
  3 24  1  0  0  0  0
  4  5  1  0  0  0  0
  4 25  1  0  0  0  0
  5  6  1  0  0  0  0
  5 20  2  0  0  0  0
  6  7  1  0  0  0  0
  6 26  1  0  0  0  0
  7  8  2  0  0  0  0
  7  9  1  0  0  0  0
  9 10  1  0  0  0  0
  9 27  1  0  0  0  0
 10 11  1  0  0  0  0
 10 16  1  0  0  0  0
 10 28  1  0  0  0  0
 11 15  1  0  0  0  0
 11 12  1  0  0  0  0
 11 29  1  0  0  0  0
 12 13  1  0  0  0  0
 12 30  1  0  0  0  0
 12 31  1  0  0  0  0
 13 14  1  0  0  0  0
 13 32  1  0  0  0  0
 13 33  1  0  0  0  0
 14 15  1  0  0  0  0
 14 34  1  0  0  0  0
 14 35  1  0  0  0  0
 15 36  1  0  0  0  0
 15 37  1  0  0  0  0
 16 17  1  0  0  0  0
 16 18  1  0  0  0  0
 16 19  1  0  0  0  0
M  END
> <s_m_source_file>
AV-unprocessed.smi

> <i_m_source_file_index>
2318

> <i_lp_mmshare_version>
43012

> <i_f3d_flags>
0

> <s_epik_input>
W0NIM11uMVtjSF1bY0hdYyhuMSlbTkhdQyg9TylbTkhdW0NAQEhdKEMoRikoRilGKVtDSF0yW0NIMl1bQ0gyXVtDSDJdW0NIMl0y

> <s_epik_cmdline>
J2VwaWtfcHl0aG9uJywgJy1waCcsICc3LjAnLCAnLXRuJywgJzgnLCAnLW1hJywgJzIwMCcsICctbWV0YWxfYmluZGluZycsICctaW1hZScsICc8aW5maWxlLm1hZT4nLCAnLW9tYWUnLCAnPG91dGZpbGUubWFlPic=

> <r_lp_tautomer_probability>
1

> <r_epik_Ionization_Penalty>
2.39546e-05

> <r_epik_Ionization_Penalty_Charging>
0

> <r_epik_Ionization_Penalty_Neutral>
2.39546e-05

> <r_epik_State_Penalty>
-0

> <r_epik_Charging_Adjusted_Penalty>
0

> <i_epik_Tot_Q>
0

> <i_epik_Tot_abs_Q>
0

> <r_epik_Metal_State_Penalty>
-0

> <b_epik_Metal_Only>
0

> <s_lp_Force_Field>
OPLS_2005

> <r_lp_Energy>
23.5829

> <b_lp_Chiralities_Consistent>
1

> <s_lp_Variant>
AV-unprocessed.smi:2318-2

> <Gold.Version>
5.8.1

> <Gold.Id.Protein>
6NUR|6NUR_protein|mol2

> <Gold.PLP.Fitness>
39.3212

> <Gold.PLP.PLP>
-32.2800

> <Gold.PLP.part.hbond>
-2.0000

> <Gold.PLP.part.metal>
0.0000

> <Gold.PLP.part.buried>
-2.5587

> <Gold.PLP.part.nonpolar>
-26.5041

> <Gold.PLP.part.repulsive>
0.5126

> <Gold.PLP.ligand.clash>
0.0000

> <Gold.PLP.ligand.torsion>
1.1356

> <Gold.PLP.Chemscore.Hbond>
2.0000

> <Gold.PLP.Chemscore.CHOScore>
0.9892

> <Gold.PLP.Chemscore.Metal>
0.0000

> <Gold.Chemscore.Hbonds>
donor molecule, donor type, donor heavy atom, donor atom, acceptor molecule, acceptor atom, score
      L1  H     6    26       P1  7948  1.00
      L1  H     9    27       P1  7948  1.00
      L1  C     3    24       P1 10186  1.00

> <Gold.PLP.Chemscore.Internal.Correction>
0.3448

> <Gold.Rescore>
     Score         DG    S(hbond)    S(metal)    S(lipo)     H(rot)  DE(clash)    DE(int)     intcor
     13.46     -14.99       1.84        0.00      57.26       1.30       0.09       1.43       ----

> <Gold.Chemscore.Fitness>
13.4641

> <Gold.Chemscore.DG>
-14.9868

> <Gold.Chemscore.ZeroCoef>
-5.4800

> <Gold.Chemscore.Hbond>
1.8370

> <Gold.Chemscore.Metal>
0.0000

> <Gold.Chemscore.Lipo>
57.2644

> <Gold.Chemscore.Internal_Hbond>
0.0000

> <Gold.Chemscore.DEClash>
0.0930

> <Gold.Chemscore.DEInternal>
1.4298

> <Gold.Chemscore.Rot>
1.3003

> <Gold.Chemscore.Internal.Correction>
   9.000000E+99

> <Gold.Chemscore.Hbonds>
donor molecule, donor type, donor heavy atom, donor atom, acceptor molecule, acceptor atom, score
      L1  H     6    26       P1  7948  0.92
      L1  H     9    27       P1  7948  0.70

> <Gold.Chemscore.Hbond.Weighted>
-6.1356

> <Gold.Chemscore.Metal.Weighted>
-0.0000

> <Gold.Chemscore.Lipo.Weighted>
-6.6999

> <Gold.Chemscore.Internal_Hbond.Weighted>
0.0000

> <Gold.Chemscore.DEClash.Weighted>
0.0930

> <Gold.Chemscore.DEInternal.Weighted>
1.4298

> <Gold.Chemscore.Rot.Weighted>
3.3287

> <Gold.Chemscore.Internal.Correction.Weighted>
   9.000000E+99

> <Gold.Protein.RotatedTorsions>
[ 6907 6896 6895 6894 ] final -142.12 input  -60.11 | X-H torsion
[ 7974 7965 7964 7962 ] final -110.56 input  175.53 | X-H torsion
[ 8008 7997 7996 7995 ] final -179.30 input   59.86 | X-H torsion
[ 10167 10162 10161 10158 ] final   61.19 input  -65.29 | X-H torsion
[ 10718 10713 10712 10709 ] final  174.74 input   66.30 | X-H torsion
[ 10763 10752 10751 10750 ] final   -8.97 input  -60.55 | X-H torsion
[ 11005 11000 10999 10996 ] final   -3.05 input  -57.11 | X-H torsion

> <Gold.Protein.ActiveResidues>
 VAL166  LYS551  ARG553  GLY616  TRP617  ASP618  TYR619  PRO620  LYS621  CYS622 
 ASP623  PHE694  ASN695  SER759  ASP760  ASP761  ALA762  ILE779  LEU786  VAL792 
 PHE793  MET794  SER795  GLU796  ALA797  LYS798  CYS799  TRP800  GLU811  SER814 

> <Gold.Protein.RotatedAtoms>
  151.0829  133.5376  159.2619 H   0  0  0  0  0  0  0  0  0  0  0  0  # atno 6907 bound_to 6896
  151.2273  135.0540  159.8983 H   0  0  0  0  0  0  0  0  0  0  0  0  # atno 6908 bound_to 6896
  152.5425  134.0623  159.8211 H   0  0  0  0  0  0  0  0  0  0  0  0  # atno 6909 bound_to 6896
  145.1667  140.8906  143.3559 H   0  0  0  0  0  0  0  0  0  0  0  0  # atno 7974 bound_to 7965
  156.0288  140.1277  157.0280 H   0  0  0  0  0  0  0  0  0  0  0  0  # atno 8008 bound_to 7997
  154.4341  140.1053  156.6140 H   0  0  0  0  0  0  0  0  0  0  0  0  # atno 8009 bound_to 7997
  155.5837  140.3468  155.4549 H   0  0  0  0  0  0  0  0  0  0  0  0  # atno 8010 bound_to 7997
  140.1574  144.4404  150.6727 H   0  0  0  0  0  0  0  0  0  0  0  0  # atno 10167 bound_to 10162
  156.9452  131.0013  151.2960 H   0  0  0  0  0  0  0  0  0  0  0  0  # atno 10718 bound_to 10713
  153.4480  135.7014  153.6126 H   0  0  0  0  0  0  0  0  0  0  0  0  # atno 10763 bound_to 10752
  153.4473  135.3766  155.2263 H   0  0  0  0  0  0  0  0  0  0  0  0  # atno 10764 bound_to 10752
  154.8728  135.3988  154.3889 H   0  0  0  0  0  0  0  0  0  0  0  0  # atno 10765 bound_to 10752
  140.6651  133.9286  155.8460 H   0  0  0  0  0  0  0  0  0  0  0  0  # atno 11005 bound_to 11000
  145.0274  139.3370  143.6041 LP  0  0  0  0  0  0  0  0  0  0  0  0  # atno 17320 bound_to 7965
  146.3474  139.9599  142.8718 LP  0  0  0  0  0  0  0  0  0  0  0  0  # atno 17321 bound_to 7965
  140.6664  143.2269  151.5731 LP  0  0  0  0  0  0  0  0  0  0  0  0  # atno 17342 bound_to 10162
  139.5397  144.2682  152.1325 LP  0  0  0  0  0  0  0  0  0  0  0  0  # atno 17343 bound_to 10162
  157.5759  130.8342  149.8455 LP  0  0  0  0  0  0  0  0  0  0  0  0  # atno 17370 bound_to 10713
  156.0387  130.3744  150.1492 LP  0  0  0  0  0  0  0  0  0  0  0  0  # atno 17371 bound_to 10713
  141.0435  134.0587  157.3872 LP  0  0  0  0  0  0  0  0  0  0  0  0  # atno 17394 bound_to 11000
  139.9000  135.0160  156.7221 LP  0  0  0  0  0  0  0  0  0  0  0  0  # atno 17395 bound_to 11000

$$$$
