AV-unprocessed.smi:2226|AV-procd|sdf|9001|dock9
  -GOLD-   2272012213D 1   1.00000     0.00000
 Structure written by MMmdl.
 40 42  0  0  0  0  0  0  0  0  2 V2000
  142.7840  136.8752  153.3698 C   0  0  0  0  0  0  0  0  0  0  0  0
  144.0411  137.6199  153.1194 N   0  3  2  0  0  0  0  0  0  0  0  0
  144.9222  137.0239  152.0869 C   0  0  2  0  0  0  0  0  0  0  0  0
  145.5662  135.7053  152.5840 C   0  0  0  0  0  0  0  0  0  0  0  0
  146.2600  135.8190  153.9536 C   0  0  0  0  0  0  0  0  0  0  0  0
  145.4602  136.6722  154.9540 C   0  0  0  0  0  0  0  0  0  0  0  0
  144.8267  137.9425  154.3344 C   0  0  1  0  0  0  0  0  0  0  0  0
  145.8230  139.0787  154.0061 C   0  0  0  0  0  0  0  0  0  0  0  0
  146.6477  138.9009  152.7002 C   0  0  1  0  0  0  0  0  0  0  0  0
  147.9961  138.3881  152.9329 N   0  0  0  0  0  0  0  0  0  0  0  0
  148.9196  138.9446  153.7309 C   0  0  0  0  0  0  0  0  0  0  0  0
  148.7243  139.9707  154.3829 O   0  0  0  0  0  0  0  0  0  0  0  0
  150.0627  138.2392  153.7189 N   0  0  0  0  0  0  0  0  0  0  0  0
  151.2471  138.5044  154.4510 C   0  0  0  0  0  0  0  0  0  0  0  0
  151.6050  139.6722  154.9869 N   0  0  0  0  0  0  0  0  0  0  0  0
  152.8262  139.4178  155.5939 C   0  0  0  0  0  0  0  0  0  0  0  0
  153.1393  138.0987  155.3890 C   0  0  0  0  0  0  0  0  0  0  0  0
  152.1422  137.5041  154.6635 O   0  0  0  0  0  0  0  0  0  0  0  0
  145.9179  138.0990  151.5925 C   0  0  0  0  0  0  0  0  0  0  0  0
  142.9651  135.8812  153.7776 H   0  0  0  0  0  0  0  0  0  0  0  0
  142.2196  136.7623  152.4439 H   0  0  0  0  0  0  0  0  0  0  0  0
  142.1540  137.4193  154.0739 H   0  0  0  0  0  0  0  0  0  0  0  0
  144.3002  136.7684  151.2277 H   0  0  0  0  0  0  0  0  0  0  0  0
  144.7897  134.9434  152.6566 H   0  0  0  0  0  0  0  0  0  0  0  0
  146.2714  135.3282  151.8426 H   0  0  0  0  0  0  0  0  0  0  0  0
  146.4119  134.8216  154.3675 H   0  0  0  0  0  0  0  0  0  0  0  0
  147.2620  136.2173  153.8386 H   0  0  0  0  0  0  0  0  0  0  0  0
  144.6666  136.0545  155.3753 H   0  0  0  0  0  0  0  0  0  0  0  0
  146.0946  136.9426  155.7987 H   0  0  0  0  0  0  0  0  0  0  0  0
  144.1375  138.3475  155.0769 H   0  0  0  0  0  0  0  0  0  0  0  0
  145.2344  139.9894  153.8869 H   0  0  0  0  0  0  0  0  0  0  0  0
  146.4681  139.2756  154.8630 H   0  0  0  0  0  0  0  0  0  0  0  0
  146.8038  139.9006  152.2894 H   0  0  0  0  0  0  0  0  0  0  0  0
  148.2503  137.5460  152.4374 H   0  0  0  0  0  0  0  0  0  0  0  0
  150.0903  137.4229  153.1260 H   0  0  0  0  0  0  0  0  0  0  0  0
  153.3719  140.1877  156.1194 H   0  0  0  0  0  0  0  0  0  0  0  0
  153.9724  137.4733  155.6731 H   0  0  0  0  0  0  0  0  0  0  0  0
  146.6309  137.6668  150.8888 H   0  0  0  0  0  0  0  0  0  0  0  0
  145.3424  138.8161  151.0047 H   0  0  0  0  0  0  0  0  0  0  0  0
  143.7410  138.5084  152.7442 H   0  0  0  0  0  0  0  0  0  0  0  0
  1  2  1  0  0  0  0
  1 20  1  0  0  0  0
  1 21  1  0  0  0  0
  1 22  1  0  0  0  0
  2  7  1  0  0  0  0
  2  3  1  0  0  0  0
  2 40  1  0  0  0  0
  3 19  1  0  0  0  0
  3  4  1  0  0  0  0
  3 23  1  0  0  0  0
  4  5  1  0  0  0  0
  4 24  1  0  0  0  0
  4 25  1  0  0  0  0
  5  6  1  0  0  0  0
  5 26  1  0  0  0  0
  5 27  1  0  0  0  0
  6  7  1  0  0  0  0
  6 28  1  0  0  0  0
  6 29  1  0  0  0  0
  7  8  1  0  0  0  0
  7 30  1  0  0  0  0
  8  9  1  0  0  0  0
  8 31  1  0  0  0  0
  8 32  1  0  0  0  0
  9 10  1  0  0  0  0
  9 19  1  0  0  0  0
  9 33  1  0  0  0  0
 10 11  1  0  0  0  0
 10 34  1  0  0  0  0
 11 12  2  0  0  0  0
 11 13  1  0  0  0  0
 13 14  1  0  0  0  0
 13 35  1  0  0  0  0
 14 18  1  0  0  0  0
 14 15  2  0  0  0  0
 15 16  1  0  0  0  0
 16 17  2  0  0  0  0
 16 36  1  0  0  0  0
 17 18  1  0  0  0  0
 17 37  1  0  0  0  0
 19 38  1  0  0  0  0
 19 39  1  0  0  0  0
M  CHG  1   2   1
M  END
> <s_m_source_file>
AV-unprocessed.smi

> <i_m_source_file_index>
2226

> <i_lp_mmshare_version>
43012

> <i_f3d_flags>
0

> <s_epik_input>
W0NIMl0xW0NIMl1bQ0gyXVtDQEhdKE4oW0NIM10pW0NIXTEyKVtDSDJdW0NASF0oW0NIMl0yKVtOSF1DKD1PKVtOSF1jM25bY0hdW2NIXW8z

> <s_epik_cmdline>
J2VwaWtfcHl0aG9uJywgJy1waCcsICc3LjAnLCAnLXRuJywgJzgnLCAnLW1hJywgJzIwMCcsICctbWV0YWxfYmluZGluZycsICctaW1hZScsICc8aW5maWxlLm1hZT4nLCAnLW9tYWUnLCAnPG91dGZpbGUubWFlPic=

> <r_lp_tautomer_probability>
0.785861

> <r_epik_Ionization_Penalty>
0.000929358

> <r_epik_Ionization_Penalty_Charging>
0.000890041

> <r_epik_Ionization_Penalty_Neutral>
3.93161e-05

> <r_epik_State_Penalty>
0.0312137

> <r_epik_Charging_Adjusted_Penalty>
0.0321037

> <i_epik_Tot_Q>
1

> <i_epik_Tot_abs_Q>
1

> <r_epik_Metal_State_Penalty>
0.0605703

> <b_epik_Metal_Only>
0

> <s_lp_Force_Field>
OPLS_2005

> <r_lp_Energy>
36.0435

> <b_lp_Chiralities_Consistent>
1

> <s_lp_Variant>
AV-unprocessed.smi:2226-1

> <Gold.Version>
5.8.1

> <Gold.Id.Protein>
6NUR|6NUR_protein|mol2

> <Gold.PLP.Fitness>
37.5438

> <Gold.PLP.PLP>
-20.8727

> <Gold.PLP.part.hbond>
-6.5871

> <Gold.PLP.part.metal>
0.0000

> <Gold.PLP.part.buried>
7.1753

> <Gold.PLP.part.nonpolar>
-23.3928

> <Gold.PLP.part.repulsive>
0.3712

> <Gold.PLP.ligand.clash>
0.0000

> <Gold.PLP.ligand.torsion>
0.1233

> <Gold.PLP.Chemscore.Hbond>
5.6208

> <Gold.PLP.Chemscore.CHOScore>
0.0000

> <Gold.PLP.Chemscore.Metal>
0.0000

> <Gold.Chemscore.Hbonds>
donor molecule, donor type, donor heavy atom, donor atom, acceptor molecule, acceptor atom, score
      L1  H     2    40       P1 10175  2.00
      L1  H    10    34       P1  7948  1.00
      L1  H    13    35       P1  7948  0.81
      P1  H  7989  7998       L1    15  1.00
      P1  H 10752 10765       L1    18  0.78

> <Gold.PLP.Chemscore.Internal.Correction>
0.0553

> <Gold.Rescore>
     Score         DG    S(hbond)    S(metal)    S(lipo)     H(rot)  DE(clash)    DE(int)     intcor
     15.62     -18.67       3.08        0.00      46.67       1.00       1.76       1.30       ----

> <Gold.Chemscore.Fitness>
15.6170

> <Gold.Chemscore.DG>
-18.6722

> <Gold.Chemscore.ZeroCoef>
-5.4800

> <Gold.Chemscore.Hbond>
3.0815

> <Gold.Chemscore.Metal>
0.0000

> <Gold.Chemscore.Lipo>
46.6651

> <Gold.Chemscore.Internal_Hbond>
0.0000

> <Gold.Chemscore.DEClash>
1.7555

> <Gold.Chemscore.DEInternal>
1.2997

> <Gold.Chemscore.Rot>
1.0000

> <Gold.Chemscore.Internal.Correction>
   9.000000E+99

> <Gold.Chemscore.Hbonds>
donor molecule, donor type, donor heavy atom, donor atom, acceptor molecule, acceptor atom, score
      L1  H     2    40       P1 10175  0.98
      L1  H    10    34       P1  7948  0.97
      L1  H    13    35       P1  7948  0.15
      P1  H  7989  7998       L1    15  0.40
      P1  H 10752 10765       L1    18  0.19

> <Gold.Chemscore.Hbond.Weighted>
-10.2924

> <Gold.Chemscore.Metal.Weighted>
-0.0000

> <Gold.Chemscore.Lipo.Weighted>
-5.4598

> <Gold.Chemscore.Internal_Hbond.Weighted>
0.0000

> <Gold.Chemscore.DEClash.Weighted>
1.7555

> <Gold.Chemscore.DEInternal.Weighted>
1.2997

> <Gold.Chemscore.Rot.Weighted>
2.5600

> <Gold.Chemscore.Internal.Correction.Weighted>
   9.000000E+99

> <Gold.Protein.RotatedTorsions>
[ 6907 6896 6895 6894 ] final   99.85 input  -60.11 | X-H torsion
[ 7974 7965 7964 7962 ] final   24.94 input  175.53 | X-H torsion
[ 8008 7997 7996 7995 ] final -143.28 input   59.86 | X-H torsion
[ 10167 10162 10161 10158 ] final -156.61 input  -65.29 | X-H torsion
[ 10718 10713 10712 10709 ] final  -79.38 input   66.30 | X-H torsion
[ 10763 10752 10751 10750 ] final  168.53 input  -60.55 | X-H torsion
[ 11005 11000 10999 10996 ] final   22.48 input  -57.11 | X-H torsion

> <Gold.Protein.ActiveResidues>
 VAL166  LYS551  ARG553  GLY616  TRP617  ASP618  TYR619  PRO620  LYS621  CYS622 
 ASP623  PHE694  ASN695  SER759  ASP760  ASP761  ALA762  ILE779  LEU786  VAL792 
 PHE793  MET794  SER795  GLU796  ALA797  LYS798  CYS799  TRP800  GLU811  SER814 

> <Gold.Protein.RotatedAtoms>
  152.5384  134.0366  159.8048 H   0  0  0  0  0  0  0  0  0  0  0  0  # atno 6907 bound_to 6896
  151.0528  133.5602  159.2648 H   0  0  0  0  0  0  0  0  0  0  0  0  # atno 6908 bound_to 6896
  151.2529  135.0636  159.9122 H   0  0  0  0  0  0  0  0  0  0  0  0  # atno 6909 bound_to 6896
  146.1913  139.7535  142.8830 H   0  0  0  0  0  0  0  0  0  0  0  0  # atno 7974 bound_to 7965
  155.5080  140.0581  157.2928 H   0  0  0  0  0  0  0  0  0  0  0  0  # atno 8008 bound_to 7997
  154.4562  140.1974  156.0322 H   0  0  0  0  0  0  0  0  0  0  0  0  # atno 8009 bound_to 7997
  156.0803  140.3248  155.7690 H   0  0  0  0  0  0  0  0  0  0  0  0  # atno 8010 bound_to 7997
  139.6836  143.9539  152.2350 H   0  0  0  0  0  0  0  0  0  0  0  0  # atno 10167 bound_to 10162
  156.0094  130.4544  150.3639 H   0  0  0  0  0  0  0  0  0  0  0  0  # atno 10718 bound_to 10713
  154.3699  135.2753  155.2272 H   0  0  0  0  0  0  0  0  0  0  0  0  # atno 10763 bound_to 10752
  154.4424  135.5951  153.6141 H   0  0  0  0  0  0  0  0  0  0  0  0  # atno 10764 bound_to 10752
  152.9839  135.6022  154.3929 H   0  0  0  0  0  0  0  0  0  0  0  0  # atno 10765 bound_to 10752
  140.3801  134.1929  155.7664 H   0  0  0  0  0  0  0  0  0  0  0  0  # atno 11005 bound_to 11000
  145.3783  141.0354  143.3192 LP  0  0  0  0  0  0  0  0  0  0  0  0  # atno 17320 bound_to 7965
  144.8492  139.5348  143.6864 LP  0  0  0  0  0  0  0  0  0  0  0  0  # atno 17321 bound_to 7965
  139.9336  144.6726  150.8338 LP  0  0  0  0  0  0  0  0  0  0  0  0  # atno 17342 bound_to 10162
  140.7660  143.3292  151.2448 LP  0  0  0  0  0  0  0  0  0  0  0  0  # atno 17343 bound_to 10162
  157.1727  131.0372  151.2787 LP  0  0  0  0  0  0  0  0  0  0  0  0  # atno 17370 bound_to 10713
  157.4215  130.7440  149.6917 LP  0  0  0  0  0  0  0  0  0  0  0  0  # atno 17371 bound_to 10713
  141.1926  133.8169  157.0832 LP  0  0  0  0  0  0  0  0  0  0  0  0  # atno 17394 bound_to 11000
  140.0485  134.9818  157.1093 LP  0  0  0  0  0  0  0  0  0  0  0  0  # atno 17395 bound_to 11000

$$$$
