AV-unprocessed.smi:2878|AV-procd|sdf|11046|dock3
  -GOLD-   2272015513D 1   1.00000     0.00000
 Structure written by MMmdl.
 42 43  0  0  0  0  0  0  0  0  1 V2000
  144.1054  134.6780  155.9522 C   0  0  0  0  0  0  0  0  0  0  0  0
  145.9118  134.6551  155.8011 S   0  0  0  0  0  0  0  0  0  0  0  0
  146.1321  133.5895  154.3397 C   0  0  1  0  0  0  0  0  0  0  0  0
  145.4950  134.2405  153.0965 C   0  0  0  0  0  0  0  0  0  0  0  0
  145.6420  133.3476  151.8545 C   0  0  0  0  0  0  0  0  0  0  0  0
  147.1146  133.0006  151.5900 C   0  0  0  0  0  0  0  0  0  0  0  0
  147.7618  132.3470  152.8230 C   0  0  0  0  0  0  0  0  0  0  0  0
  147.6145  133.2157  154.0905 C   0  0  1  0  0  0  0  0  0  0  0  0
  148.4510  134.4125  153.9949 N   0  0  0  0  0  0  0  0  0  0  0  0
  149.3889  134.7751  154.8802 C   0  0  0  0  0  0  0  0  0  0  0  0
  149.6748  134.1296  155.8889 O   0  0  0  0  0  0  0  0  0  0  0  0
  149.9791  135.9273  154.5343 N   0  0  0  0  0  0  0  0  0  0  0  0
  151.0282  136.5889  155.3012 C   0  0  0  0  0  0  0  0  0  0  0  0
  151.1874  138.0637  154.8974 C   0  0  0  0  0  0  0  0  0  0  0  0
  151.7290  138.9000  156.0076 C   0  0  0  0  0  0  0  0  0  0  0  0
  151.1305  139.9268  156.6063 N   0  0  0  0  0  0  0  0  0  0  0  0
  152.0524  140.2479  157.5553 C   0  0  0  0  0  0  0  0  0  0  0  0
  151.8642  141.3701  158.5182 C   0  0  0  0  0  0  0  0  0  0  0  0
  153.1414  139.4898  157.5876 N   0  0  0  0  0  0  0  0  0  0  0  0
  152.9253  138.5700  156.5514 O   0  0  0  0  0  0  0  0  0  0  0  0
  143.8087  135.3556  156.7527 H   0  0  0  0  0  0  0  0  0  0  0  0
  143.7220  133.6861  156.1889 H   0  0  0  0  0  0  0  0  0  0  0  0
  143.6478  135.0197  155.0239 H   0  0  0  0  0  0  0  0  0  0  0  0
  145.5818  132.6698  154.5429 H   0  0  0  0  0  0  0  0  0  0  0  0
  144.4381  134.4356  153.2808 H   0  0  0  0  0  0  0  0  0  0  0  0
  145.9559  135.2106  152.9055 H   0  0  0  0  0  0  0  0  0  0  0  0
  145.0701  132.4298  151.9954 H   0  0  0  0  0  0  0  0  0  0  0  0
  145.2154  133.8471  150.9842 H   0  0  0  0  0  0  0  0  0  0  0  0
  147.1897  132.3303  150.7332 H   0  0  0  0  0  0  0  0  0  0  0  0
  147.6620  133.9049  151.3212 H   0  0  0  0  0  0  0  0  0  0  0  0
  147.2909  131.3791  152.9991 H   0  0  0  0  0  0  0  0  0  0  0  0
  148.8140  132.1381  152.6256 H   0  0  0  0  0  0  0  0  0  0  0  0
  147.9577  132.6193  154.9365 H   0  0  0  0  0  0  0  0  0  0  0  0
  148.2900  135.0136  153.1999 H   0  0  0  0  0  0  0  0  0  0  0  0
  149.6745  136.3841  153.6869 H   0  0  0  0  0  0  0  0  0  0  0  0
  150.7687  136.5200  156.3580 H   0  0  0  0  0  0  0  0  0  0  0  0
  151.9718  136.0546  155.1773 H   0  0  0  0  0  0  0  0  0  0  0  0
  151.8565  138.1560  154.0410 H   0  0  0  0  0  0  0  0  0  0  0  0
  150.2256  138.4748  154.5884 H   0  0  0  0  0  0  0  0  0  0  0  0
  152.8230  141.8234  158.7722 H   0  0  0  0  0  0  0  0  0  0  0  0
  151.3988  141.0051  159.4339 H   0  0  0  0  0  0  0  0  0  0  0  0
  151.2246  142.1410  158.0871 H   0  0  0  0  0  0  0  0  0  0  0  0
  1  2  1  0  0  0  0
  1 21  1  0  0  0  0
  1 22  1  0  0  0  0
  1 23  1  0  0  0  0
  2  3  1  0  0  0  0
  3  8  1  0  0  0  0
  3  4  1  0  0  0  0
  3 24  1  0  0  0  0
  4  5  1  0  0  0  0
  4 25  1  0  0  0  0
  4 26  1  0  0  0  0
  5  6  1  0  0  0  0
  5 27  1  0  0  0  0
  5 28  1  0  0  0  0
  6  7  1  0  0  0  0
  6 29  1  0  0  0  0
  6 30  1  0  0  0  0
  7  8  1  0  0  0  0
  7 31  1  0  0  0  0
  7 32  1  0  0  0  0
  8  9  1  0  0  0  0
  8 33  1  0  0  0  0
  9 10  1  0  0  0  0
  9 34  1  0  0  0  0
 10 11  2  0  0  0  0
 10 12  1  0  0  0  0
 12 13  1  0  0  0  0
 12 35  1  0  0  0  0
 13 14  1  0  0  0  0
 13 36  1  0  0  0  0
 13 37  1  0  0  0  0
 14 15  1  0  0  0  0
 14 38  1  0  0  0  0
 14 39  1  0  0  0  0
 15 20  1  0  0  0  0
 15 16  2  0  0  0  0
 16 17  1  0  0  0  0
 17 18  1  0  0  0  0
 17 19  2  0  0  0  0
 18 40  1  0  0  0  0
 18 41  1  0  0  0  0
 18 42  1  0  0  0  0
 19 20  1  0  0  0  0
M  END
> <s_m_source_file>
AV-unprocessed.smi

> <i_m_source_file_index>
2878

> <i_lp_mmshare_version>
43012

> <i_f3d_flags>
0

> <s_epik_input>
W0NIM11TW0NAQEhdMVtDSDJdW0NIMl1bQ0gyXVtDSDJdW0NASF0xW05IXUMoPU8pW05IXVtDSDJdW0NIMl1jMm5jKFtDSDNdKW5vMg==

> <s_epik_cmdline>
J2VwaWtfcHl0aG9uJywgJy1waCcsICc3LjAnLCAnLXRuJywgJzgnLCAnLW1hJywgJzIwMCcsICctbWV0YWxfYmluZGluZycsICctaW1hZScsICc8aW5maWxlLm1hZT4nLCAnLW9tYWUnLCAnPG91dGZpbGUubWFlPic=

> <r_lp_tautomer_probability>
1

> <r_epik_Ionization_Penalty>
4.9299e-05

> <r_epik_Ionization_Penalty_Charging>
0

> <r_epik_Ionization_Penalty_Neutral>
4.9299e-05

> <r_epik_State_Penalty>
-0

> <r_epik_Charging_Adjusted_Penalty>
0

> <i_epik_Tot_Q>
0

> <i_epik_Tot_abs_Q>
0

> <r_epik_Metal_State_Penalty>
-0

> <b_epik_Metal_Only>
0

> <s_lp_Force_Field>
OPLS_2005

> <r_lp_Energy>
0.0435146

> <b_lp_Chiralities_Consistent>
1

> <s_lp_Variant>
AV-unprocessed.smi:2878-2

> <Gold.Version>
5.8.1

> <Gold.Id.Protein>
6NUR|6NUR_protein|mol2

> <Gold.PLP.Fitness>
33.8808

> <Gold.PLP.PLP>
-25.6221

> <Gold.PLP.part.hbond>
-4.2339

> <Gold.PLP.part.metal>
0.0000

> <Gold.PLP.part.buried>
-2.8448

> <Gold.PLP.part.nonpolar>
-19.2195

> <Gold.PLP.part.repulsive>
0.0772

> <Gold.PLP.ligand.clash>
0.0000

> <Gold.PLP.ligand.torsion>
0.3378

> <Gold.PLP.Chemscore.Hbond>
2.9600

> <Gold.PLP.Chemscore.CHOScore>
0.0000

> <Gold.PLP.Chemscore.Metal>
0.0000

> <Gold.Chemscore.Hbonds>
donor molecule, donor type, donor heavy atom, donor atom, acceptor molecule, acceptor atom, score
      L1  H     9    34       P1  7948  0.99
      L1  H    12    35       P1  7948  0.96
      P1  H  7997  8008       L1    19  0.85

> <Gold.PLP.Chemscore.Internal.Correction>
0.0544

> <Gold.Rescore>
     Score         DG    S(hbond)    S(metal)    S(lipo)     H(rot)  DE(clash)    DE(int)     intcor
     12.49     -12.83       2.16        0.00      46.88       2.09       0.01       0.33       ----

> <Gold.Chemscore.Fitness>
12.4872

> <Gold.Chemscore.DG>
-12.8301

> <Gold.Chemscore.ZeroCoef>
-5.4800

> <Gold.Chemscore.Hbond>
2.1620

> <Gold.Chemscore.Metal>
0.0000

> <Gold.Chemscore.Lipo>
46.8828

> <Gold.Chemscore.Internal_Hbond>
0.0000

> <Gold.Chemscore.DEClash>
0.0126

> <Gold.Chemscore.DEInternal>
0.3303

> <Gold.Chemscore.Rot>
2.0923

> <Gold.Chemscore.Internal.Correction>
   9.000000E+99

> <Gold.Chemscore.Hbonds>
donor molecule, donor type, donor heavy atom, donor atom, acceptor molecule, acceptor atom, score
      L1  H     9    34       P1  7948  0.85
      L1  H    12    35       P1  7948  0.46
      P1  H  7997  8008       L1    19  0.14

> <Gold.Chemscore.Hbond.Weighted>
-7.2211

> <Gold.Chemscore.Metal.Weighted>
-0.0000

> <Gold.Chemscore.Lipo.Weighted>
-5.4853

> <Gold.Chemscore.Internal_Hbond.Weighted>
0.0000

> <Gold.Chemscore.DEClash.Weighted>
0.0126

> <Gold.Chemscore.DEInternal.Weighted>
0.3303

> <Gold.Chemscore.Rot.Weighted>
5.3562

> <Gold.Chemscore.Internal.Correction.Weighted>
   9.000000E+99

> <Gold.Protein.RotatedTorsions>
[ 6907 6896 6895 6894 ] final -109.22 input  -60.11 | X-H torsion
[ 7974 7965 7964 7962 ] final  -63.10 input  175.53 | X-H torsion
[ 8008 7997 7996 7995 ] final  -90.53 input   59.86 | X-H torsion
[ 10167 10162 10161 10158 ] final  163.07 input  -65.29 | X-H torsion
[ 10718 10713 10712 10709 ] final -114.40 input   66.30 | X-H torsion
[ 10763 10752 10751 10750 ] final  -47.24 input  -60.55 | X-H torsion
[ 11005 11000 10999 10996 ] final  -89.51 input  -57.11 | X-H torsion

> <Gold.Protein.ActiveResidues>
 VAL166  LYS551  ARG553  GLY616  TRP617  ASP618  TYR619  PRO620  LYS621  CYS622 
 ASP623  PHE694  ASN695  SER759  ASP760  ASP761  ALA762  ILE779  LEU786  VAL792 
 PHE793  MET794  SER795  GLU796  ALA797  LYS798  CYS799  TRP800  GLU811  SER814 

> <Gold.Protein.RotatedAtoms>
  150.7549  133.9561  159.3500 H   0  0  0  0  0  0  0  0  0  0  0  0  # atno 6907 bound_to 6896
  151.7482  135.0837  160.0336 H   0  0  0  0  0  0  0  0  0  0  0  0  # atno 6908 bound_to 6896
  152.3483  133.6112  159.5962 H   0  0  0  0  0  0  0  0  0  0  0  0  # atno 6909 bound_to 6896
  145.7832  140.8750  143.0319 H   0  0  0  0  0  0  0  0  0  0  0  0  # atno 7974 bound_to 7965
  154.6997  140.0529  157.0445 H   0  0  0  0  0  0  0  0  0  0  0  0  # atno 8008 bound_to 7997
  155.0702  140.3199  155.4614 H   0  0  0  0  0  0  0  0  0  0  0  0  # atno 8009 bound_to 7997
  156.2756  140.2083  156.5830 H   0  0  0  0  0  0  0  0  0  0  0  0  # atno 8010 bound_to 7997
  139.4869  144.4374  151.8995 H   0  0  0  0  0  0  0  0  0  0  0  0  # atno 10167 bound_to 10162
  156.0827  130.6024  150.8769 H   0  0  0  0  0  0  0  0  0  0  0  0  # atno 10718 bound_to 10713
  154.0581  135.6622  153.4808 H   0  0  0  0  0  0  0  0  0  0  0  0  # atno 10763 bound_to 10752
  153.0437  135.5128  154.7686 H   0  0  0  0  0  0  0  0  0  0  0  0  # atno 10764 bound_to 10752
  154.6713  135.3030  154.9704 H   0  0  0  0  0  0  0  0  0  0  0  0  # atno 10765 bound_to 10752
  141.1583  133.7634  156.9605 H   0  0  0  0  0  0  0  0  0  0  0  0  # atno 11005 bound_to 11000
  144.6793  140.0019  143.7484 LP  0  0  0  0  0  0  0  0  0  0  0  0  # atno 17320 bound_to 7965
  146.0052  139.3124  143.0903 LP  0  0  0  0  0  0  0  0  0  0  0  0  # atno 17321 bound_to 7965
  140.3824  144.2719  150.5907 LP  0  0  0  0  0  0  0  0  0  0  0  0  # atno 17342 bound_to 10162
  140.5221  143.2263  151.8372 LP  0  0  0  0  0  0  0  0  0  0  0  0  # atno 17343 bound_to 10162
  157.5951  131.0943  150.9055 LP  0  0  0  0  0  0  0  0  0  0  0  0  # atno 17370 bound_to 10713
  156.9223  130.5319  149.5279 LP  0  0  0  0  0  0  0  0  0  0  0  0  # atno 17371 bound_to 10713
  140.1196  134.9425  157.2185 LP  0  0  0  0  0  0  0  0  0  0  0  0  # atno 17394 bound_to 11000
  140.3088  134.3047  155.7271 LP  0  0  0  0  0  0  0  0  0  0  0  0  # atno 17395 bound_to 11000

$$$$
