AV-unprocessed.smi:1388|AV-procd|sdf|5644|dock10
  -GOLD-   22720 5263D 1   1.00000     0.00000
 Structure written by MMmdl.
 45 46  0  0  0  0  0  0  0  0  3 V2000
  152.0271  140.1893  158.8120 C   0  0  0  0  0  0  0  0  0  0  0  0
  152.4850  140.1226  157.4290 N   0  5  0  0  0  0  0  0  0  0  0  0
  151.6629  140.2963  156.3568 C   0  0  0  0  0  0  0  0  0  0  0  0
  151.8332  140.0369  155.1615 O   0  0  0  0  0  0  0  0  0  0  0  0
  150.3278  140.9244  156.7783 C   0  0  0  0  0  0  0  0  0  0  0  0
  149.2003  140.3637  155.9894 N   0  3  2  0  0  0  0  0  0  0  0  0
  149.2007  140.8380  154.5829 C   0  0  0  0  0  0  0  0  0  0  0  0
  148.1217  140.1208  153.7544 C   0  0  0  0  0  0  0  0  0  0  0  0
  146.7286  140.2865  154.3885 C   0  0  1  0  0  0  0  0  0  0  0  0
  145.7286  139.5172  153.6540 N   0  0  0  0  0  0  0  0  0  0  0  0
  145.8021  138.2032  153.3962 C   0  0  0  0  0  0  0  0  0  0  0  0
  146.7368  137.4919  153.7660 O   0  0  0  0  0  0  0  0  0  0  0  0
  144.7308  137.7840  152.6999 N   0  0  0  0  0  0  0  0  0  0  0  0
  144.4509  136.4776  152.2079 C   0  0  0  0  0  0  0  0  0  0  0  0
  145.1915  135.8885  151.2355 N   0  0  0  0  0  0  0  0  0  0  0  0
  144.8661  134.6514  150.8086 C   0  0  0  0  0  0  0  0  0  0  0  0
  143.7808  133.9225  151.3238 C   0  0  0  0  0  0  0  0  0  0  0  0
  143.0036  134.5173  152.3324 C   0  0  0  0  0  0  0  0  0  0  0  0
  143.3366  135.8118  152.7854 C   0  0  0  0  0  0  0  0  0  0  0  0
  142.4973  136.4564  153.8769 C   0  0  0  0  0  0  0  0  0  0  0  0
  146.7710  139.8230  155.8532 C   0  0  0  0  0  0  0  0  0  0  0  0
  147.8737  140.5558  156.6340 C   0  0  0  0  0  0  0  0  0  0  0  0
  152.8494  140.0660  159.5165 H   0  0  0  0  0  0  0  0  0  0  0  0
  151.3019  139.4091  159.0452 H   0  0  0  0  0  0  0  0  0  0  0  0
  151.5552  141.1426  159.0509 H   0  0  0  0  0  0  0  0  0  0  0  0
  150.1517  140.7790  157.8454 H   0  0  0  0  0  0  0  0  0  0  0  0
  150.4030  142.0015  156.6184 H   0  0  0  0  0  0  0  0  0  0  0  0
  149.0386  141.9169  154.5618 H   0  0  0  0  0  0  0  0  0  0  0  0
  150.1772  140.6541  154.1330 H   0  0  0  0  0  0  0  0  0  0  0  0
  148.1219  140.5127  152.7366 H   0  0  0  0  0  0  0  0  0  0  0  0
  148.3711  139.0612  153.6778 H   0  0  0  0  0  0  0  0  0  0  0  0
  146.4527  141.3430  154.3731 H   0  0  0  0  0  0  0  0  0  0  0  0
  144.9244  140.0242  153.3142 H   0  0  0  0  0  0  0  0  0  0  0  0
  144.0328  138.4819  152.4902 H   0  0  0  0  0  0  0  0  0  0  0  0
  145.4890  134.2315  150.0326 H   0  0  0  0  0  0  0  0  0  0  0  0
  143.5510  132.9337  150.9548 H   0  0  0  0  0  0  0  0  0  0  0  0
  142.1623  133.9840  152.7502 H   0  0  0  0  0  0  0  0  0  0  0  0
  141.7106  135.7846  154.2213 H   0  0  0  0  0  0  0  0  0  0  0  0
  142.0238  137.3663  153.5066 H   0  0  0  0  0  0  0  0  0  0  0  0
  143.1180  136.7127  154.7360 H   0  0  0  0  0  0  0  0  0  0  0  0
  145.8054  139.9968  156.3300 H   0  0  0  0  0  0  0  0  0  0  0  0
  146.9508  138.7477  155.8996 H   0  0  0  0  0  0  0  0  0  0  0  0
  147.8913  140.1801  157.6574 H   0  0  0  0  0  0  0  0  0  0  0  0
  147.6476  141.6216  156.6939 H   0  0  0  0  0  0  0  0  0  0  0  0
  149.3719  139.3679  155.9574 H   0  0  0  0  0  0  0  0  0  0  0  0
  1  2  1  0  0  0  0
  1 23  1  0  0  0  0
  1 24  1  0  0  0  0
  1 25  1  0  0  0  0
  2  3  1  0  0  0  0
  3  4  2  0  0  0  0
  3  5  1  0  0  0  0
  5  6  1  0  0  0  0
  5 26  1  0  0  0  0
  5 27  1  0  0  0  0
  6 22  1  0  0  0  0
  6  7  1  0  0  0  0
  6 45  1  0  0  0  0
  7  8  1  0  0  0  0
  7 28  1  0  0  0  0
  7 29  1  0  0  0  0
  8  9  1  0  0  0  0
  8 30  1  0  0  0  0
  8 31  1  0  0  0  0
  9 10  1  0  0  0  0
  9 21  1  0  0  0  0
  9 32  1  0  0  0  0
 10 11  1  0  0  0  0
 10 33  1  0  0  0  0
 11 12  2  0  0  0  0
 11 13  1  0  0  0  0
 13 14  1  0  0  0  0
 13 34  1  0  0  0  0
 14 19  1  0  0  0  0
 14 15  2  0  0  0  0
 15 16  1  0  0  0  0
 16 17  2  0  0  0  0
 16 35  1  0  0  0  0
 17 18  1  0  0  0  0
 17 36  1  0  0  0  0
 18 19  2  0  0  0  0
 18 37  1  0  0  0  0
 19 20  1  0  0  0  0
 20 38  1  0  0  0  0
 20 39  1  0  0  0  0
 20 40  1  0  0  0  0
 21 22  1  0  0  0  0
 21 41  1  0  0  0  0
 21 42  1  0  0  0  0
 22 43  1  0  0  0  0
 22 44  1  0  0  0  0
M  CHG  1   2  -1
M  CHG  1   6   1
M  END
> <s_m_source_file>
AV-unprocessed.smi

> <i_m_source_file_index>
1388

> <i_lp_mmshare_version>
43012

> <i_f3d_flags>
0

> <s_epik_input>
W0NIM11bTkhdQyg9TylbQ0gyXU4xW0NIMl1bQ0gyXVtDSF0oW0NIMl1bQ0gyXTEpW05IXUMoPU8pW05IXWMybltjSF1bY0hdW2NIXWMyW0NIM10=

> <s_epik_cmdline>
J2VwaWtfcHl0aG9uJywgJy1waCcsICc3LjAnLCAnLXRuJywgJzgnLCAnLW1hJywgJzIwMCcsICctbWV0YWxfYmluZGluZycsICctaW1hZScsICc8aW5maWxlLm1hZT4nLCAnLW9tYWUnLCAnPG91dGZpbGUubWFlPic=

> <r_epik_Ionization_Penalty>
6.13951

> <r_epik_Ionization_Penalty_Charging>
6.13946

> <r_epik_Ionization_Penalty_Neutral>
4.54304e-05

> <r_epik_State_Penalty>
6.9595

> <r_epik_Charging_Adjusted_Penalty>
13.099

> <i_epik_Tot_Q>
0

> <i_epik_Tot_abs_Q>
2

> <r_epik_Metal_State_Penalty>
2.89141

> <b_epik_Metal_Only>
1

> <s_lp_Force_Field>
OPLS_2005

> <r_lp_Energy>
12.447

> <b_lp_Chiralities_Consistent>
1

> <s_lp_Variant>
AV-unprocessed.smi:1388-4

> <Gold.Version>
5.8.1

> <Gold.Id.Protein>
6NUR|6NUR_protein|mol2

> <Gold.PLP.Fitness>
45.6575

> <Gold.PLP.PLP>
-30.5592

> <Gold.PLP.part.hbond>
-4.6765

> <Gold.PLP.part.metal>
0.0000

> <Gold.PLP.part.buried>
-4.3699

> <Gold.PLP.part.nonpolar>
-22.7579

> <Gold.PLP.part.repulsive>
0.4297

> <Gold.PLP.ligand.clash>
0.0000

> <Gold.PLP.ligand.torsion>
1.1684

> <Gold.PLP.Chemscore.Hbond>
4.7920

> <Gold.PLP.Chemscore.CHOScore>
1.0000

> <Gold.PLP.Chemscore.Metal>
0.0000

> <Gold.Chemscore.Hbonds>
donor molecule, donor type, donor heavy atom, donor atom, acceptor molecule, acceptor atom, score
      L1  H    10    33       P1 10175  1.00
      L1  H    13    34       P1 10175  0.90
      P1  H  7989  7998       L1     4  0.91
      P1  H  7997  8008       L1     2  1.95
      L1  C    16    35       P1  7921  0.96

> <Gold.PLP.Chemscore.Internal.Correction>
0.0592

> <Gold.Rescore>
     Score         DG    S(hbond)    S(metal)    S(lipo)     H(rot)  DE(clash)    DE(int)     intcor
     16.50     -20.30       3.66        0.00      57.85       1.63       0.27       3.54       ----

> <Gold.Chemscore.Fitness>
16.4958

> <Gold.Chemscore.DG>
-20.3012

> <Gold.Chemscore.ZeroCoef>
-5.4800

> <Gold.Chemscore.Hbond>
3.6604

> <Gold.Chemscore.Metal>
0.0000

> <Gold.Chemscore.Lipo>
57.8530

> <Gold.Chemscore.Internal_Hbond>
0.0000

> <Gold.Chemscore.DEClash>
0.2683

> <Gold.Chemscore.DEInternal>
3.5371

> <Gold.Chemscore.Rot>
1.6303

> <Gold.Chemscore.Internal.Correction>
   9.000000E+99

> <Gold.Chemscore.Hbonds>
donor molecule, donor type, donor heavy atom, donor atom, acceptor molecule, acceptor atom, score
      L1  H    10    33       P1 10175  0.97
      L1  H    13    34       P1 10175  0.85
      P1  H  7989  7998       L1     4  0.88
      P1  H  7997  8008       L1     2  0.54

> <Gold.Chemscore.Hbond.Weighted>
-12.2259

> <Gold.Chemscore.Metal.Weighted>
-0.0000

> <Gold.Chemscore.Lipo.Weighted>
-6.7688

> <Gold.Chemscore.Internal_Hbond.Weighted>
0.0000

> <Gold.Chemscore.DEClash.Weighted>
0.2683

> <Gold.Chemscore.DEInternal.Weighted>
3.5371

> <Gold.Chemscore.Rot.Weighted>
4.1735

> <Gold.Chemscore.Internal.Correction.Weighted>
   9.000000E+99

> <Gold.Protein.RotatedTorsions>
[ 6907 6896 6895 6894 ] final  126.24 input  -60.11 | X-H torsion
[ 7974 7965 7964 7962 ] final  -38.99 input  175.53 | X-H torsion
[ 8008 7997 7996 7995 ] final  -64.37 input   59.86 | X-H torsion
[ 10167 10162 10161 10158 ] final   13.70 input  -65.29 | X-H torsion
[ 10718 10713 10712 10709 ] final  -14.52 input   66.30 | X-H torsion
[ 10763 10752 10751 10750 ] final  -56.31 input  -60.55 | X-H torsion
[ 11005 11000 10999 10996 ] final   19.08 input  -57.11 | X-H torsion

> <Gold.Protein.ActiveResidues>
 VAL166  LYS551  ARG553  GLY616  TRP617  ASP618  TYR619  PRO620  LYS621  CYS622 
 ASP623  PHE694  ASN695  SER759  ASP760  ASP761  ALA762  ILE779  LEU786  VAL792 
 PHE793  MET794  SER795  GLU796  ALA797  LYS798  CYS799  TRP800  GLU811  SER814 

> <Gold.Protein.RotatedAtoms>
  152.3921  133.6693  159.6245 H   0  0  0  0  0  0  0  0  0  0  0  0  # atno 6907 bound_to 6896
  150.7827  133.8937  159.3329 H   0  0  0  0  0  0  0  0  0  0  0  0  # atno 6908 bound_to 6896
  151.6721  135.0976  160.0251 H   0  0  0  0  0  0  0  0  0  0  0  0  # atno 6909 bound_to 6896
  146.0437  140.6574  142.9075 H   0  0  0  0  0  0  0  0  0  0  0  0  # atno 7974 bound_to 7965
  154.4608  140.0955  156.6886 H   0  0  0  0  0  0  0  0  0  0  0  0  # atno 8008 bound_to 7997
  155.5001  140.3473  155.4351 H   0  0  0  0  0  0  0  0  0  0  0  0  # atno 8009 bound_to 7997
  156.0866  140.1386  156.9634 H   0  0  0  0  0  0  0  0  0  0  0  0  # atno 8010 bound_to 7997
  140.5985  143.8653  150.6941 H   0  0  0  0  0  0  0  0  0  0  0  0  # atno 10167 bound_to 10162
  156.6148  130.4859  149.6187 H   0  0  0  0  0  0  0  0  0  0  0  0  # atno 10718 bound_to 10713
  154.2046  135.6405  153.5097 H   0  0  0  0  0  0  0  0  0  0  0  0  # atno 10763 bound_to 10752
  153.0004  135.5459  154.6279 H   0  0  0  0  0  0  0  0  0  0  0  0  # atno 10764 bound_to 10752
  154.5700  135.2916  155.0809 H   0  0  0  0  0  0  0  0  0  0  0  0  # atno 10765 bound_to 10752
  140.4176  134.1552  155.7671 H   0  0  0  0  0  0  0  0  0  0  0  0  # atno 11005 bound_to 11000
  144.7087  140.3955  143.7097 LP  0  0  0  0  0  0  0  0  0  0  0  0  # atno 17320 bound_to 7965
  145.6841  139.1625  143.2684 LP  0  0  0  0  0  0  0  0  0  0  0  0  # atno 17321 bound_to 7965
  140.2193  143.3822  152.1656 LP  0  0  0  0  0  0  0  0  0  0  0  0  # atno 17342 bound_to 10162
  139.5275  144.7119  151.5177 LP  0  0  0  0  0  0  0  0  0  0  0  0  # atno 17343 bound_to 10162
  156.2360  130.6823  151.1510 LP  0  0  0  0  0  0  0  0  0  0  0  0  # atno 17370 bound_to 10713
  157.7244  131.0660  150.5996 LP  0  0  0  0  0  0  0  0  0  0  0  0  # atno 17371 bound_to 10713
  141.1796  133.8441  157.1302 LP  0  0  0  0  0  0  0  0  0  0  0  0  # atno 17394 bound_to 11000
  140.0223  134.9940  157.0616 LP  0  0  0  0  0  0  0  0  0  0  0  0  # atno 17395 bound_to 11000

$$$$
