AV-unprocessed.smi:1875|AV-procd|sdf|7617|dock2
  -GOLD-   22720 9343D 1   1.00000     0.00000
 Structure written by MMmdl.
 49 51  0  0  0  0  0  0  0  0  3 V2000
  145.7531  134.8725  153.1038 C   0  0  0  0  0  0  0  0  0  0  0  0
  146.1535  136.2301  153.6434 C   0  0  0  0  0  0  0  0  0  0  0  0
  145.2802  137.2288  153.4808 N   0  0  0  0  0  0  0  0  0  0  0  0
  145.6354  138.4388  153.9651 C   0  0  0  0  0  0  0  0  0  0  0  0
  146.8708  138.6440  154.6130 C   0  0  0  0  0  0  0  0  0  0  0  0
  147.7078  137.5145  154.7289 C   0  0  0  0  0  0  0  0  0  0  0  0
  149.0686  137.6027  155.3873 C   0  0  0  0  0  0  0  0  0  0  0  0
  150.1323  137.4031  154.3860 N   0  3  0  0  0  0  0  0  0  0  0  0
  150.9991  138.5805  154.1784 C   0  0  0  0  0  0  0  0  0  0  0  0
  152.1247  138.6332  155.2248 C   0  0  1  0  0  0  0  0  0  0  0  0
  153.1292  139.5211  154.7723 O   0  0  0  0  0  0  0  0  0  0  0  0
  151.6188  139.0980  156.6059 C   0  0  0  0  0  0  0  0  0  0  0  0
  151.1210  140.4809  156.5964 N   0  0  0  0  0  0  0  0  0  0  0  0
  150.3119  141.1164  155.7047 C   0  0  0  0  0  0  0  0  0  0  0  0
  150.1544  142.3987  156.1348 N   0  3  0  0  0  0  0  0  0  0  0  0
  150.8680  142.5839  157.3208 C   0  0  0  0  0  0  0  0  0  0  0  0
  151.0165  143.7046  158.1293 C   0  0  0  0  0  0  0  0  0  0  0  0
  151.8177  143.5645  159.2850 C   0  0  0  0  0  0  0  0  0  0  0  0
  152.0013  144.7707  160.1903 C   0  0  0  0  0  0  0  0  0  0  0  0
  152.4372  142.3269  159.5984 C   0  0  0  0  0  0  0  0  0  0  0  0
  153.2913  142.1860  160.8467 C   0  0  0  0  0  0  0  0  0  0  0  0
  152.2754  141.1989  158.7621 C   0  0  0  0  0  0  0  0  0  0  0  0
  151.4855  141.3556  157.6258 C   0  0  0  0  0  0  0  0  0  0  0  0
  147.3482  136.3074  154.2382 N   0  0  0  0  0  0  0  0  0  0  0  0
  144.8529  134.9361  152.4913 H   0  0  0  0  0  0  0  0  0  0  0  0
  145.5573  134.1835  153.9259 H   0  0  0  0  0  0  0  0  0  0  0  0
  146.5510  134.4555  152.4886 H   0  0  0  0  0  0  0  0  0  0  0  0
  144.9323  139.2478  153.8334 H   0  0  0  0  0  0  0  0  0  0  0  0
  147.1532  139.6132  154.9970 H   0  0  0  0  0  0  0  0  0  0  0  0
  149.1871  138.5766  155.8640 H   0  0  0  0  0  0  0  0  0  0  0  0
  149.1468  136.8460  156.1695 H   0  0  0  0  0  0  0  0  0  0  0  0
  150.7051  136.6269  154.6855 H   0  0  0  0  0  0  0  0  0  0  0  0
  151.4134  138.5658  153.1691 H   0  0  0  0  0  0  0  0  0  0  0  0
  150.3812  139.4762  154.2566 H   0  0  0  0  0  0  0  0  0  0  0  0
  152.5692  137.6420  155.3225 H   0  0  0  0  0  0  0  0  0  0  0  0
  152.7154  140.2916  154.4137 H   0  0  0  0  0  0  0  0  0  0  0  0
  150.8030  138.4589  156.9473 H   0  0  0  0  0  0  0  0  0  0  0  0
  152.4062  139.0228  157.3570 H   0  0  0  0  0  0  0  0  0  0  0  0
  149.8782  140.6854  154.8137 H   0  0  0  0  0  0  0  0  0  0  0  0
  150.5400  144.6431  157.8855 H   0  0  0  0  0  0  0  0  0  0  0  0
  151.5921  144.5713  161.1808 H   0  0  0  0  0  0  0  0  0  0  0  0
  151.4958  145.6505  159.7912 H   0  0  0  0  0  0  0  0  0  0  0  0
  153.0585  145.0155  160.2948 H   0  0  0  0  0  0  0  0  0  0  0  0
  153.6820  141.1734  160.9510 H   0  0  0  0  0  0  0  0  0  0  0  0
  152.7056  142.4101  161.7386 H   0  0  0  0  0  0  0  0  0  0  0  0
  154.1410  142.8681  160.8090 H   0  0  0  0  0  0  0  0  0  0  0  0
  152.7465  140.2572  159.0009 H   0  0  0  0  0  0  0  0  0  0  0  0
  149.7002  137.1614  153.5055 H   0  0  0  0  0  0  0  0  0  0  0  0
  149.6003  143.0950  155.6522 H   0  0  0  0  0  0  0  0  0  0  0  0
  1  2  1  0  0  0  0
  1 25  1  0  0  0  0
  1 26  1  0  0  0  0
  1 27  1  0  0  0  0
  2 24  1  0  0  0  0
  2  3  2  0  0  0  0
  3  4  1  0  0  0  0
  4  5  2  0  0  0  0
  4 28  1  0  0  0  0
  5  6  1  0  0  0  0
  5 29  1  0  0  0  0
  6  7  1  0  0  0  0
  6 24  2  0  0  0  0
  7  8  1  0  0  0  0
  7 30  1  0  0  0  0
  7 31  1  0  0  0  0
  8  9  1  0  0  0  0
  8 32  1  0  0  0  0
  8 48  1  0  0  0  0
  9 10  1  0  0  0  0
  9 33  1  0  0  0  0
  9 34  1  0  0  0  0
 10 11  1  0  0  0  0
 10 12  1  0  0  0  0
 10 35  1  0  0  0  0
 11 36  1  0  0  0  0
 12 13  1  0  0  0  0
 12 37  1  0  0  0  0
 12 38  1  0  0  0  0
 13 23  1  0  0  0  0
 13 14  1  0  0  0  0
 14 15  2  0  0  0  0
 14 39  1  0  0  0  0
 15 16  1  0  0  0  0
 15 49  1  0  0  0  0
 16 23  2  0  0  0  0
 16 17  1  0  0  0  0
 17 18  2  0  0  0  0
 17 40  1  0  0  0  0
 18 19  1  0  0  0  0
 18 20  1  0  0  0  0
 19 41  1  0  0  0  0
 19 42  1  0  0  0  0
 19 43  1  0  0  0  0
 20 21  1  0  0  0  0
 20 22  2  0  0  0  0
 21 44  1  0  0  0  0
 21 45  1  0  0  0  0
 21 46  1  0  0  0  0
 22 23  1  0  0  0  0
 22 47  1  0  0  0  0
M  CHG  1   8   1
M  CHG  1  15   1
M  END
> <s_m_source_file>
AV-unprocessed.smi

> <i_m_source_file_index>
1875

> <i_lp_mmshare_version>
43012

> <i_f3d_flags>
0

> <s_epik_input>
W0NIM11jMW5bY0hdW2NIXWMobjEpW0NIMl1bTkhdW0NIMl1bQ0BIXShbT0hdKVtDSDJdbihbY0hdbjIpYyhjMjMpW2NIXWMoW0NIM10pYyhbY0hdMylbQ0gzXQ==

> <s_epik_cmdline>
J2VwaWtfcHl0aG9uJywgJy1waCcsICc3LjAnLCAnLXRuJywgJzgnLCAnLW1hJywgJzIwMCcsICctbWV0YWxfYmluZGluZycsICctaW1hZScsICc8aW5maWxlLm1hZT4nLCAnLW9tYWUnLCAnPG91dGZpbGUubWFlPic=

> <r_lp_tautomer_probability>
1

> <r_epik_Ionization_Penalty>
1.27527

> <r_epik_Ionization_Penalty_Charging>
1.27526

> <r_epik_Ionization_Penalty_Neutral>
8.72389e-06

> <r_epik_State_Penalty>
1.28654

> <r_epik_Charging_Adjusted_Penalty>
2.5618

> <i_epik_Tot_Q>
2

> <i_epik_Tot_abs_Q>
2

> <r_epik_Metal_State_Penalty>
1.36882

> <b_epik_Metal_Only>
0

> <s_epik_Chemistry_Notes>
This compound contains an electron-poor aromatic ring that is susceptible to covalent hydrolysis at low pH, typically resulting in measured values for nitrogen ring protonation that are around two units higher than predicted values.

> <s_lp_Force_Field>
OPLS_2005

> <r_lp_Energy>
13.7453

> <b_lp_Chiralities_Consistent>
1

> <s_lp_Variant>
AV-unprocessed.smi:1875-6

> <Gold.Version>
5.8.1

> <Gold.Id.Protein>
6NUR|6NUR_protein|mol2

> <Gold.PLP.Fitness>
60.0641

> <Gold.PLP.PLP>
-43.8212

> <Gold.PLP.part.hbond>
-4.0000

> <Gold.PLP.part.metal>
0.0000

> <Gold.PLP.part.buried>
-7.1942

> <Gold.PLP.part.nonpolar>
-33.9527

> <Gold.PLP.part.repulsive>
1.4687

> <Gold.PLP.ligand.clash>
0.0000

> <Gold.PLP.ligand.torsion>
0.8844

> <Gold.PLP.Chemscore.Hbond>
4.9840

> <Gold.PLP.Chemscore.CHOScore>
1.0000

> <Gold.PLP.Chemscore.Metal>
0.0000

> <Gold.Chemscore.Hbonds>
donor molecule, donor type, donor heavy atom, donor atom, acceptor molecule, acceptor atom, score
      L1  H     8    48       P1  7948  2.00
      L1  H    15    49       P1  8028  1.95
      P1  H  7997  8008       L1    11  1.00
      L1  C     4    28       P1 10175  1.00

> <Gold.PLP.Chemscore.Internal.Correction>
0.0597

> <Gold.Rescore>
     Score         DG    S(hbond)    S(metal)    S(lipo)     H(rot)  DE(clash)    DE(int)     intcor
     18.73     -19.86       2.73        0.00     108.07       2.88       0.33       0.79       ----

> <Gold.Chemscore.Fitness>
18.7310

> <Gold.Chemscore.DG>
-19.8560

> <Gold.Chemscore.ZeroCoef>
-5.4800

> <Gold.Chemscore.Hbond>
2.7289

> <Gold.Chemscore.Metal>
0.0000

> <Gold.Chemscore.Lipo>
108.0676

> <Gold.Chemscore.Internal_Hbond>
0.0000

> <Gold.Chemscore.DEClash>
0.3320

> <Gold.Chemscore.DEInternal>
0.7929

> <Gold.Chemscore.Rot>
2.8838

> <Gold.Chemscore.Internal.Correction>
   9.000000E+99

> <Gold.Chemscore.Hbonds>
donor molecule, donor type, donor heavy atom, donor atom, acceptor molecule, acceptor atom, score
      L1  H     8    48       P1  7948  0.68
      L1  H    15    49       P1  8028  0.92
      P1  H  7997  8008       L1    11  0.48

> <Gold.Chemscore.Hbond.Weighted>
-9.1145

> <Gold.Chemscore.Metal.Weighted>
-0.0000

> <Gold.Chemscore.Lipo.Weighted>
-12.6439

> <Gold.Chemscore.Internal_Hbond.Weighted>
0.0000

> <Gold.Chemscore.DEClash.Weighted>
0.3320

> <Gold.Chemscore.DEInternal.Weighted>
0.7929

> <Gold.Chemscore.Rot.Weighted>
7.3824

> <Gold.Chemscore.Internal.Correction.Weighted>
   9.000000E+99

> <Gold.Protein.RotatedTorsions>
[ 6907 6896 6895 6894 ] final    5.57 input  -60.11 | X-H torsion
[ 7974 7965 7964 7962 ] final -112.94 input  175.53 | X-H torsion
[ 8008 7997 7996 7995 ] final  -23.88 input   59.86 | X-H torsion
[ 10167 10162 10161 10158 ] final  175.31 input  -65.29 | X-H torsion
[ 10718 10713 10712 10709 ] final  172.24 input   66.30 | X-H torsion
[ 10763 10752 10751 10750 ] final  168.60 input  -60.55 | X-H torsion
[ 11005 11000 10999 10996 ] final  -96.03 input  -57.11 | X-H torsion

> <Gold.Protein.ActiveResidues>
 VAL166  LYS551  ARG553  GLY616  TRP617  ASP618  TYR619  PRO620  LYS621  CYS622 
 ASP623  PHE694  ASN695  SER759  ASP760  ASP761  ALA762  ILE779  LEU786  VAL792 
 PHE793  MET794  SER795  GLU796  ALA797  LYS798  CYS799  TRP800  GLU811  SER814 

> <Gold.Protein.RotatedAtoms>
  151.6597  135.0991  160.0176 H   0  0  0  0  0  0  0  0  0  0  0  0  # atno 6907 bound_to 6896
  152.3954  133.6735  159.6280 H   0  0  0  0  0  0  0  0  0  0  0  0  # atno 6908 bound_to 6896
  150.7862  133.8800  159.3324 H   0  0  0  0  0  0  0  0  0  0  0  0  # atno 6909 bound_to 6896
  145.1380  140.8762  143.3719 H   0  0  0  0  0  0  0  0  0  0  0  0  # atno 7974 bound_to 7965
  154.4560  140.1968  156.0379 H   0  0  0  0  0  0  0  0  0  0  0  0  # atno 8008 bound_to 7997
  156.0746  140.3280  155.7590 H   0  0  0  0  0  0  0  0  0  0  0  0  # atno 8009 bound_to 7997
  155.5208  140.0569  157.2898 H   0  0  0  0  0  0  0  0  0  0  0  0  # atno 8010 bound_to 7997
  139.5172  144.3047  152.0347 H   0  0  0  0  0  0  0  0  0  0  0  0  # atno 10167 bound_to 10162
  156.9818  131.0121  151.2880 H   0  0  0  0  0  0  0  0  0  0  0  0  # atno 10718 bound_to 10713
  154.3709  135.2753  155.2267 H   0  0  0  0  0  0  0  0  0  0  0  0  # atno 10763 bound_to 10752
  154.4415  135.5953  153.6136 H   0  0  0  0  0  0  0  0  0  0  0  0  # atno 10764 bound_to 10752
  152.9838  135.6020  154.3940 H   0  0  0  0  0  0  0  0  0  0  0  0  # atno 10765 bound_to 10752
  141.1424  133.8068  157.0515 H   0  0  0  0  0  0  0  0  0  0  0  0  # atno 11005 bound_to 11000
  145.0563  139.3141  143.5903 LP  0  0  0  0  0  0  0  0  0  0  0  0  # atno 17320 bound_to 7965
  146.3508  139.9989  142.8678 LP  0  0  0  0  0  0  0  0  0  0  0  0  # atno 17321 bound_to 7965
  140.2493  144.4186  150.6228 LP  0  0  0  0  0  0  0  0  0  0  0  0  # atno 17342 bound_to 10162
  140.6236  143.2179  151.6643 LP  0  0  0  0  0  0  0  0  0  0  0  0  # atno 17343 bound_to 10162
  157.5521  130.8189  149.8158 LP  0  0  0  0  0  0  0  0  0  0  0  0  # atno 17370 bound_to 10713
  156.0241  130.3785  150.1873 LP  0  0  0  0  0  0  0  0  0  0  0  0  # atno 17371 bound_to 10713
  140.0628  134.9745  157.1335 LP  0  0  0  0  0  0  0  0  0  0  0  0  # atno 17394 bound_to 11000
  140.3823  134.2274  155.7170 LP  0  0  0  0  0  0  0  0  0  0  0  0  # atno 17395 bound_to 11000

$$$$
