AV-unprocessed.smi:121|AV-procd|sdf|1140|dock5
  -GOLD-   2262018273D 1   1.00000     0.00000
 Structure written by MMmdl.
 37 39  0  0  0  0  0  0  0  0  1 V2000
  154.3476  141.7517  161.8232 N   0  0  0  0  0  0  0  0  0  0  0  0
  153.5476  142.1220  161.0739 C   0  0  0  0  0  0  0  0  0  0  0  0
  152.5424  142.5872  160.1329 C   0  0  0  0  0  0  0  0  0  0  0  0
  152.0798  143.9173  160.1936 C   0  0  0  0  0  0  0  0  0  0  0  0
  151.1029  144.3637  159.2834 C   0  0  0  0  0  0  0  0  0  0  0  0
  150.5895  143.4838  158.3116 C   0  0  0  0  0  0  0  0  0  0  0  0
  151.0521  142.1533  158.2378 C   0  0  0  0  0  0  0  0  0  0  0  0
  150.4792  141.2236  157.1734 C   0  0  0  0  0  0  0  0  0  0  0  0
  150.8848  139.8298  157.2739 N   0  0  0  0  0  0  0  0  0  0  0  0
  152.2590  139.5450  157.0822 C   0  0  0  0  0  0  0  0  0  0  0  0
  153.0809  140.4298  156.8356 O   0  0  0  0  0  0  0  0  0  0  0  0
  152.6100  138.1349  157.2073 C   0  0  0  0  0  0  0  0  0  0  0  0
  153.8832  137.7476  157.0215 F   0  0  0  0  0  0  0  0  0  0  0  0
  151.6742  137.2079  157.5044 C   0  0  0  0  0  0  0  0  0  0  0  0
  150.3413  137.5192  157.7129 N   0  0  0  0  0  0  0  0  0  0  0  0
  149.3341  136.4419  158.0464 C   0  0  1  0  0  0  0  0  0  0  0  0
  149.9750  135.0556  157.9113 C   0  0  0  0  0  0  0  0  0  0  0  0
  150.3486  134.7384  159.3435 C   0  0  0  0  0  0  0  0  0  0  0  0
  149.2185  135.4129  160.1115 C   0  0  0  0  0  0  0  0  0  0  0  0
  148.9284  136.5975  159.3760 O   0  0  0  0  0  0  0  0  0  0  0  0
  149.9052  138.8570  157.5902 C   0  0  0  0  0  0  0  0  0  0  0  0
  148.7203  139.1532  157.7601 O   0  0  0  0  0  0  0  0  0  0  0  0
  152.0278  141.7077  159.1583 C   0  0  0  0  0  0  0  0  0  0  0  0
  152.4686  144.5994  160.9362 H   0  0  0  0  0  0  0  0  0  0  0  0
  150.7471  145.3824  159.3303 H   0  0  0  0  0  0  0  0  0  0  0  0
  149.8406  143.8368  157.6176 H   0  0  0  0  0  0  0  0  0  0  0  0
  149.3905  141.2776  157.1840 H   0  0  0  0  0  0  0  0  0  0  0  0
  150.7607  141.5561  156.1721 H   0  0  0  0  0  0  0  0  0  0  0  0
  151.9929  136.1788  157.5786 H   0  0  0  0  0  0  0  0  0  0  0  0
  148.4783  136.5974  157.3882 H   0  0  0  0  0  0  0  0  0  0  0  0
  149.2193  134.3568  157.5510 H   0  0  0  0  0  0  0  0  0  0  0  0
  150.8187  135.0521  157.2197 H   0  0  0  0  0  0  0  0  0  0  0  0
  150.4187  133.6683  159.5412 H   0  0  0  0  0  0  0  0  0  0  0  0
  151.3057  135.1968  159.5955 H   0  0  0  0  0  0  0  0  0  0  0  0
  148.3316  134.7778  160.1190 H   0  0  0  0  0  0  0  0  0  0  0  0
  149.4858  135.6379  161.1441 H   0  0  0  0  0  0  0  0  0  0  0  0
  152.3843  140.6887  159.1214 H   0  0  0  0  0  0  0  0  0  0  0  0
  1  2  3  0  0  0  0
  2  3  1  0  0  0  0
  3 23  1  0  0  0  0
  3  4  2  0  0  0  0
  4  5  1  0  0  0  0
  4 24  1  0  0  0  0
  5  6  2  0  0  0  0
  5 25  1  0  0  0  0
  6  7  1  0  0  0  0
  6 26  1  0  0  0  0
  7  8  1  0  0  0  0
  7 23  2  0  0  0  0
  8  9  1  0  0  0  0
  8 27  1  0  0  0  0
  8 28  1  0  0  0  0
  9 21  1  0  0  0  0
  9 10  1  0  0  0  0
 10 11  2  0  0  0  0
 10 12  1  0  0  0  0
 12 13  1  0  0  0  0
 12 14  2  0  0  0  0
 14 15  1  0  0  0  0
 14 29  1  0  0  0  0
 15 16  1  0  0  0  0
 15 21  1  0  0  0  0
 16 20  1  0  0  0  0
 16 17  1  0  0  0  0
 16 30  1  0  0  0  0
 17 18  1  0  0  0  0
 17 31  1  0  0  0  0
 17 32  1  0  0  0  0
 18 19  1  0  0  0  0
 18 33  1  0  0  0  0
 18 34  1  0  0  0  0
 19 20  1  0  0  0  0
 19 35  1  0  0  0  0
 19 36  1  0  0  0  0
 21 22  2  0  0  0  0
 23 37  1  0  0  0  0
M  END
> <s_m_source_file>
AV-unprocessed.smi

> <i_m_source_file_index>
121

> <i_lp_mmshare_version>
43012

> <i_f3d_flags>
0

> <s_epik_input>
TiNDYzFbY0hdW2NIXVtjSF1jKFtjSF0xKVtDSDJdbjJjKD1PKWMoRilbY0hdbihjMj1PKVtDQEBIXTNbQ0gyXVtDSDJdW0NIMl1PMw==

> <s_epik_cmdline>
J2VwaWtfcHl0aG9uJywgJy1waCcsICc3LjAnLCAnLXRuJywgJzgnLCAnLW1hJywgJzIwMCcsICctbWV0YWxfYmluZGluZycsICctaW1hZScsICc8aW5maWxlLm1hZT4nLCAnLW9tYWUnLCAnPG91dGZpbGUubWFlPic=

> <r_lp_tautomer_probability>
1

> <r_epik_Ionization_Penalty>
1.69864e-08

> <r_epik_Ionization_Penalty_Charging>
1.69802e-08

> <r_epik_Ionization_Penalty_Neutral>
6.20402e-12

> <r_epik_State_Penalty>
-0

> <r_epik_Charging_Adjusted_Penalty>
1.69802e-08

> <i_epik_Tot_Q>
0

> <i_epik_Tot_abs_Q>
0

> <r_epik_Metal_State_Penalty>
-0

> <b_epik_Metal_Only>
0

> <s_epik_Chemistry_Notes>
This compound contains an acetal/aminal-like group ( X-CH(R)-Y where X, Y are N, S, or O) that may be acid/base labile, releasing an aldehyde.

> <s_lp_Force_Field>
OPLS_2005

> <r_lp_Energy>
33.8546

> <b_lp_Chiralities_Consistent>
1

> <s_lp_Variant>
AV-unprocessed.smi:121-2

> <Gold.Version>
5.8.1

> <Gold.Id.Protein>
6NUR|6NUR_protein|mol2

> <Gold.PLP.Fitness>
46.3539

> <Gold.PLP.PLP>
-41.4460

> <Gold.PLP.part.hbond>
-4.3977

> <Gold.PLP.part.metal>
0.0000

> <Gold.PLP.part.buried>
-5.3254

> <Gold.PLP.part.nonpolar>
-32.5534

> <Gold.PLP.part.repulsive>
0.0000

> <Gold.PLP.ligand.clash>
0.0000

> <Gold.PLP.ligand.torsion>
0.2508

> <Gold.PLP.Chemscore.Hbond>
1.8000

> <Gold.PLP.Chemscore.CHOScore>
0.0000

> <Gold.PLP.Chemscore.Metal>
0.0000

> <Gold.Chemscore.Hbonds>
donor molecule, donor type, donor heavy atom, donor atom, acceptor molecule, acceptor atom, score
      P1  H  7997  8010       L1    11  0.44

> <Gold.PLP.Chemscore.Internal.Correction>
0.0095

> <Gold.Rescore>
     Score         DG    S(hbond)    S(metal)    S(lipo)     H(rot)  DE(clash)    DE(int)     intcor
     15.58     -17.36       1.82        0.00      84.37       1.59       0.04       1.74       ----

> <Gold.Chemscore.Fitness>
15.5765

> <Gold.Chemscore.DG>
-17.3588

> <Gold.Chemscore.ZeroCoef>
-5.4800

> <Gold.Chemscore.Hbond>
1.8185

> <Gold.Chemscore.Metal>
0.0000

> <Gold.Chemscore.Lipo>
84.3666

> <Gold.Chemscore.Internal_Hbond>
0.0000

> <Gold.Chemscore.DEClash>
0.0383

> <Gold.Chemscore.DEInternal>
1.7441

> <Gold.Chemscore.Rot>
1.5882

> <Gold.Chemscore.Internal.Correction>
   9.000000E+99

> <Gold.Chemscore.Hbonds>
donor molecule, donor type, donor heavy atom, donor atom, acceptor molecule, acceptor atom, score
      P1  H  7997  8010       L1    11  0.43

> <Gold.Chemscore.Hbond.Weighted>
-6.0737

> <Gold.Chemscore.Metal.Weighted>
-0.0000

> <Gold.Chemscore.Lipo.Weighted>
-9.8709

> <Gold.Chemscore.Internal_Hbond.Weighted>
0.0000

> <Gold.Chemscore.DEClash.Weighted>
0.0383

> <Gold.Chemscore.DEInternal.Weighted>
1.7441

> <Gold.Chemscore.Rot.Weighted>
4.0657

> <Gold.Chemscore.Internal.Correction.Weighted>
   9.000000E+99

> <Gold.Protein.RotatedTorsions>
[ 6907 6896 6895 6894 ] final    4.08 input  -60.11 | X-H torsion
[ 7974 7965 7964 7962 ] final -165.63 input  175.53 | X-H torsion
[ 8008 7997 7996 7995 ] final   64.47 input   59.86 | X-H torsion
[ 10167 10162 10161 10158 ] final  139.47 input  -65.29 | X-H torsion
[ 10718 10713 10712 10709 ] final  -18.43 input   66.30 | X-H torsion
[ 10763 10752 10751 10750 ] final  -44.18 input  -60.55 | X-H torsion
[ 11005 11000 10999 10996 ] final  101.64 input  -57.11 | X-H torsion

> <Gold.Protein.ActiveResidues>
 VAL166  LYS551  ARG553  GLY616  TRP617  ASP618  TYR619  PRO620  LYS621  CYS622 
 ASP623  PHE694  ASN695  SER759  ASP760  ASP761  ALA762  ILE779  LEU786  VAL792 
 PHE793  MET794  SER795  GLU796  ALA797  LYS798  CYS799  TRP800  GLU811  SER814 

> <Gold.Protein.RotatedAtoms>
  151.6356  135.1018  160.0130 H   0  0  0  0  0  0  0  0  0  0  0  0  # atno 6907 bound_to 6896
  152.4082  133.6918  159.6383 H   0  0  0  0  0  0  0  0  0  0  0  0  # atno 6908 bound_to 6896
  150.7975  133.8587  159.3267 H   0  0  0  0  0  0  0  0  0  0  0  0  # atno 6909 bound_to 6896
  144.7265  140.2785  143.6239 H   0  0  0  0  0  0  0  0  0  0  0  0  # atno 7974 bound_to 7965
  155.6465  140.3497  155.4733 H   0  0  0  0  0  0  0  0  0  0  0  0  # atno 8008 bound_to 7997
  155.9883  140.1188  157.0685 H   0  0  0  0  0  0  0  0  0  0  0  0  # atno 8009 bound_to 7997
  154.4211  140.1124  156.5516 H   0  0  0  0  0  0  0  0  0  0  0  0  # atno 8010 bound_to 7997
  139.5078  144.6293  151.5859 H   0  0  0  0  0  0  0  0  0  0  0  0  # atno 10167 bound_to 10162
  156.5596  130.4722  149.6413 H   0  0  0  0  0  0  0  0  0  0  0  0  # atno 10718 bound_to 10713
  154.0078  135.6685  153.4763 H   0  0  0  0  0  0  0  0  0  0  0  0  # atno 10763 bound_to 10752
  153.0634  135.5015  154.8141 H   0  0  0  0  0  0  0  0  0  0  0  0  # atno 10764 bound_to 10752
  154.7014  135.3079  154.9299 H   0  0  0  0  0  0  0  0  0  0  0  0  # atno 10765 bound_to 10752
  139.8774  134.9191  156.4937 H   0  0  0  0  0  0  0  0  0  0  0  0  # atno 11005 bound_to 11000
  145.7972  139.1950  143.2069 LP  0  0  0  0  0  0  0  0  0  0  0  0  # atno 17320 bound_to 7965
  146.0706  140.7872  142.9690 LP  0  0  0  0  0  0  0  0  0  0  0  0  # atno 17321 bound_to 7965
  140.6020  143.9593  150.6392 LP  0  0  0  0  0  0  0  0  0  0  0  0  # atno 17342 bound_to 10162
  140.2808  143.3391  152.1153 LP  0  0  0  0  0  0  0  0  0  0  0  0  # atno 17343 bound_to 10162
  156.2810  130.7071  151.1895 LP  0  0  0  0  0  0  0  0  0  0  0  0  # atno 17370 bound_to 10713
  157.7371  131.0555  150.5375 LP  0  0  0  0  0  0  0  0  0  0  0  0  # atno 17371 bound_to 10713
  140.8640  133.8038  155.9294 LP  0  0  0  0  0  0  0  0  0  0  0  0  # atno 17394 bound_to 11000
  140.9020  134.2366  157.5036 LP  0  0  0  0  0  0  0  0  0  0  0  0  # atno 17395 bound_to 11000

$$$$
