AV-unprocessed.smi:2129|AV-procd|sdf|8684|dock9
  -GOLD-   2272011433D 1   1.00000     0.00000
 Structure written by MMmdl.
 33 33  0  0  0  0  0  0  0  0  2 V2000
  147.3364  140.1841  153.1787 C   0  0  0  0  0  0  0  0  0  0  0  0
  146.3936  140.5183  154.3486 C   0  0  0  0  0  0  0  0  0  0  0  0
  146.6033  141.9090  155.0099 C   0  0  0  0  0  0  0  0  0  0  0  0
  145.9993  143.0122  154.1132 C   0  0  0  0  0  0  0  0  0  0  0  0
  145.8904  141.9601  156.3754 C   0  0  0  0  0  0  0  0  0  0  0  0
  148.0248  142.1820  155.2587 N   0  0  0  0  0  0  0  0  0  0  0  0
  149.0197  141.3033  155.4742 C   0  0  0  0  0  0  0  0  0  0  0  0
  148.8722  140.0809  155.4583 O   0  0  0  0  0  0  0  0  0  0  0  0
  150.4047  141.9117  155.7286 C   0  0  0  0  0  0  0  0  0  0  0  0
  151.1403  141.2142  156.7953 N   0  0  0  0  0  0  0  0  0  0  0  0
  150.9842  141.6799  158.1128 C   0  0  0  0  0  0  0  0  0  0  0  0
  151.6222  141.1045  159.1498 C   0  0  0  0  0  0  0  0  0  0  0  0
  152.4952  139.9689  158.8791 C   0  0  0  0  0  0  0  0  0  0  0  0
  153.0828  139.4286  159.8142 O   0  0  0  0  0  0  0  0  0  0  0  0
  152.6172  139.5567  157.5834 N   0  5  0  0  0  0  0  0  0  0  0  0
  151.9627  140.1523  156.5385 C   0  0  0  0  0  0  0  0  0  0  0  0
  152.0869  139.7641  155.3762 O   0  0  0  0  0  0  0  0  0  0  0  0
  147.1068  139.1982  152.7750 H   0  0  0  0  0  0  0  0  0  0  0  0
  148.3802  140.1713  153.4903 H   0  0  0  0  0  0  0  0  0  0  0  0
  147.2371  140.8980  152.3608 H   0  0  0  0  0  0  0  0  0  0  0  0
  145.3673  140.4330  153.9899 H   0  0  0  0  0  0  0  0  0  0  0  0
  146.4945  139.7423  155.1083 H   0  0  0  0  0  0  0  0  0  0  0  0
  144.9228  142.8797  153.9996 H   0  0  0  0  0  0  0  0  0  0  0  0
  146.4274  143.0082  153.1108 H   0  0  0  0  0  0  0  0  0  0  0  0
  146.1636  144.0041  154.5360 H   0  0  0  0  0  0  0  0  0  0  0  0
  144.8288  141.7306  156.2784 H   0  0  0  0  0  0  0  0  0  0  0  0
  145.9700  142.9500  156.8266 H   0  0  0  0  0  0  0  0  0  0  0  0
  146.3165  141.2506  157.0850 H   0  0  0  0  0  0  0  0  0  0  0  0
  148.2773  143.1587  155.2976 H   0  0  0  0  0  0  0  0  0  0  0  0
  150.9644  141.8818  154.7932 H   0  0  0  0  0  0  0  0  0  0  0  0
  150.3107  142.9716  155.9729 H   0  0  0  0  0  0  0  0  0  0  0  0
  150.3256  142.5284  158.2263 H   0  0  0  0  0  0  0  0  0  0  0  0
  151.4934  141.4757  160.1558 H   0  0  0  0  0  0  0  0  0  0  0  0
  1  2  1  0  0  0  0
  1 18  1  0  0  0  0
  1 19  1  0  0  0  0
  1 20  1  0  0  0  0
  2  3  1  0  0  0  0
  2 21  1  0  0  0  0
  2 22  1  0  0  0  0
  3  4  1  0  0  0  0
  3  5  1  0  0  0  0
  3  6  1  0  0  0  0
  4 23  1  0  0  0  0
  4 24  1  0  0  0  0
  4 25  1  0  0  0  0
  5 26  1  0  0  0  0
  5 27  1  0  0  0  0
  5 28  1  0  0  0  0
  6  7  1  0  0  0  0
  6 29  1  0  0  0  0
  7  8  2  0  0  0  0
  7  9  1  0  0  0  0
  9 10  1  0  0  0  0
  9 30  1  0  0  0  0
  9 31  1  0  0  0  0
 10 16  1  0  0  0  0
 10 11  1  0  0  0  0
 11 12  2  0  0  0  0
 11 32  1  0  0  0  0
 12 13  1  0  0  0  0
 12 33  1  0  0  0  0
 13 14  2  0  0  0  0
 13 15  1  0  0  0  0
 15 16  1  0  0  0  0
 16 17  2  0  0  0  0
M  CHG  1  15  -1
M  END
> <s_m_source_file>
AV-unprocessed.smi

> <i_m_source_file_index>
2129

> <i_lp_mmshare_version>
43012

> <i_f3d_flags>
0

> <s_epik_input>
W0NIM11bQ0gyXUMoW0NIM10pKFtDSDNdKVtOSF1DKD1PKVtDSDJdbjFbY0hdW2NIXWMoPU8pW25IXWMxPU8=

> <s_epik_cmdline>
J2VwaWtfcHl0aG9uJywgJy1waCcsICc3LjAnLCAnLXRuJywgJzgnLCAnLW1hJywgJzIwMCcsICctbWV0YWxfYmluZGluZycsICctaW1hZScsICc8aW5maWxlLm1hZT4nLCAnLW9tYWUnLCAnPG91dGZpbGUubWFlPic=

> <r_lp_tautomer_probability>
0.999537

> <r_epik_Ionization_Penalty>
3.14534

> <r_epik_Ionization_Penalty_Charging>
2.92803e-08

> <r_epik_Ionization_Penalty_Neutral>
3.14534

> <r_epik_State_Penalty>
3.14446

> <r_epik_Charging_Adjusted_Penalty>
3.14446

> <i_epik_Tot_Q>
-1

> <i_epik_Tot_abs_Q>
1

> <r_epik_Metal_State_Penalty>
0.465837

> <b_epik_Metal_Only>
1

> <s_lp_Force_Field>
OPLS_2005

> <r_lp_Energy>
14.5296

> <b_lp_Chiralities_Consistent>
1

> <s_lp_Variant>
AV-unprocessed.smi:2129-2

> <Gold.Version>
5.8.1

> <Gold.Id.Protein>
6NUR|6NUR_protein|mol2

> <Gold.PLP.Fitness>
36.3238

> <Gold.PLP.PLP>
-27.2927

> <Gold.PLP.part.hbond>
-3.0000

> <Gold.PLP.part.metal>
0.0000

> <Gold.PLP.part.buried>
-2.3500

> <Gold.PLP.part.nonpolar>
-21.8754

> <Gold.PLP.part.repulsive>
0.2204

> <Gold.PLP.ligand.clash>
0.0000

> <Gold.PLP.ligand.torsion>
1.3627

> <Gold.PLP.Chemscore.Hbond>
3.9120

> <Gold.PLP.Chemscore.CHOScore>
0.0000

> <Gold.PLP.Chemscore.Metal>
0.0000

> <Gold.Chemscore.Hbonds>
donor molecule, donor type, donor heavy atom, donor atom, acceptor molecule, acceptor atom, score
      L1  H     6    29       P1  8028  1.00
      P1  H  7989  7998       L1    17  0.47
      P1  H  7997  8010       L1    15  0.85

> <Gold.PLP.Chemscore.Internal.Correction>
0.0205

> <Gold.Rescore>
     Score         DG    S(hbond)    S(metal)    S(lipo)     H(rot)  DE(clash)    DE(int)     intcor
      9.79     -12.23       1.88        0.00      45.59       1.90       0.06       2.38       ----

> <Gold.Chemscore.Fitness>
9.7897

> <Gold.Chemscore.DG>
-12.2342

> <Gold.Chemscore.ZeroCoef>
-5.4800

> <Gold.Chemscore.Hbond>
1.8839

> <Gold.Chemscore.Metal>
0.0000

> <Gold.Chemscore.Lipo>
45.5886

> <Gold.Chemscore.Internal_Hbond>
0.0000

> <Gold.Chemscore.DEClash>
0.0605

> <Gold.Chemscore.DEInternal>
2.3840

> <Gold.Chemscore.Rot>
1.9031

> <Gold.Chemscore.Internal.Correction>
   9.000000E+99

> <Gold.Chemscore.Hbonds>
donor molecule, donor type, donor heavy atom, donor atom, acceptor molecule, acceptor atom, score
      L1  H     6    29       P1  8028  0.98
      P1  H  7989  7998       L1    17  0.45
      P1  H  7997  8010       L1    15  0.01

> <Gold.Chemscore.Hbond.Weighted>
-6.2923

> <Gold.Chemscore.Metal.Weighted>
-0.0000

> <Gold.Chemscore.Lipo.Weighted>
-5.3339

> <Gold.Chemscore.Internal_Hbond.Weighted>
0.0000

> <Gold.Chemscore.DEClash.Weighted>
0.0605

> <Gold.Chemscore.DEInternal.Weighted>
2.3840

> <Gold.Chemscore.Rot.Weighted>
4.8720

> <Gold.Chemscore.Internal.Correction.Weighted>
   9.000000E+99

> <Gold.Protein.RotatedTorsions>
[ 6907 6896 6895 6894 ] final   43.12 input  -60.11 | X-H torsion
[ 7974 7965 7964 7962 ] final   70.19 input  175.53 | X-H torsion
[ 8008 7997 7996 7995 ] final   57.13 input   59.86 | X-H torsion
[ 10167 10162 10161 10158 ] final -150.67 input  -65.29 | X-H torsion
[ 10718 10713 10712 10709 ] final  134.02 input   66.30 | X-H torsion
[ 10763 10752 10751 10750 ] final -109.85 input  -60.55 | X-H torsion
[ 11005 11000 10999 10996 ] final   40.20 input  -57.11 | X-H torsion

> <Gold.Protein.ActiveResidues>
 VAL166  LYS551  ARG553  GLY616  TRP617  ASP618  TYR619  PRO620  LYS621  CYS622 
 ASP623  PHE694  ASN695  SER759  ASP760  ASP761  ALA762  ILE779  LEU786  VAL792 
 PHE793  MET794  SER795  GLU796  ALA797  LYS798  CYS799  TRP800  GLU811  SER814 

> <Gold.Protein.RotatedAtoms>
  152.2163  134.8454  160.0491 H   0  0  0  0  0  0  0  0  0  0  0  0  # atno 6907 bound_to 6896
  151.9254  133.3591  159.3920 H   0  0  0  0  0  0  0  0  0  0  0  0  # atno 6908 bound_to 6896
  150.6988  134.4517  159.5383 H   0  0  0  0  0  0  0  0  0  0  0  0  # atno 6909 bound_to 6896
  145.7811  139.2888  143.1265 H   0  0  0  0  0  0  0  0  0  0  0  0  # atno 7974 bound_to 7965
  155.5288  140.3481  155.4422 H   0  0  0  0  0  0  0  0  0  0  0  0  # atno 8008 bound_to 7997
  156.0733  140.1368  156.9829 H   0  0  0  0  0  0  0  0  0  0  0  0  # atno 8009 bound_to 7997
  154.4540  140.0961  156.6677 H   0  0  0  0  0  0  0  0  0  0  0  0  # atno 8010 bound_to 7997
  139.7334  143.8773  152.2541 H   0  0  0  0  0  0  0  0  0  0  0  0  # atno 10167 bound_to 10162
  157.4715  131.1080  150.9797 H   0  0  0  0  0  0  0  0  0  0  0  0  # atno 10718 bound_to 10713
  154.8216  135.4586  154.0795 H   0  0  0  0  0  0  0  0  0  0  0  0  # atno 10763 bound_to 10752
  153.2144  135.6886  153.8081 H   0  0  0  0  0  0  0  0  0  0  0  0  # atno 10764 bound_to 10752
  153.7521  135.3296  155.3299 H   0  0  0  0  0  0  0  0  0  0  0  0  # atno 10765 bound_to 10752
  140.1954  134.3936  155.8124 H   0  0  0  0  0  0  0  0  0  0  0  0  # atno 11005 bound_to 11000
  146.0073  140.8467  142.9989 LP  0  0  0  0  0  0  0  0  0  0  0  0  # atno 17320 bound_to 7965
  144.6796  140.2438  143.7340 LP  0  0  0  0  0  0  0  0  0  0  0  0  # atno 17321 bound_to 7965
  139.8703  144.7072  150.8996 LP  0  0  0  0  0  0  0  0  0  0  0  0  # atno 17342 bound_to 10162
  140.7775  143.3744  151.1590 LP  0  0  0  0  0  0  0  0  0  0  0  0  # atno 17343 bound_to 10162
  157.0560  130.5806  149.5378 LP  0  0  0  0  0  0  0  0  0  0  0  0  # atno 17370 bound_to 10713
  156.0076  130.5164  150.7881 LP  0  0  0  0  0  0  0  0  0  0  0  0  # atno 17371 bound_to 10713
  141.2227  133.7067  156.8166 LP  0  0  0  0  0  0  0  0  0  0  0  0  # atno 17394 bound_to 11000
  140.2113  134.8825  157.3278 LP  0  0  0  0  0  0  0  0  0  0  0  0  # atno 17395 bound_to 11000

$$$$
