AV-unprocessed.smi:2822|AV-procd|sdf|10861|dock2
  -GOLD-   2272015303D 1   1.00000     0.00000
 Structure written by MMmdl.
 41 43  0  0  0  0  0  0  0  0  3 V2000
  147.0353  139.0248  152.7277 Cl  0  0  0  0  0  0  0  0  0  0  0  0
  148.1196  139.9467  153.7095 C   0  0  0  0  0  0  0  0  0  0  0  0
  147.7935  141.2807  154.0301 C   0  0  0  0  0  0  0  0  0  0  0  0
  148.6276  142.0143  154.7970 N   0  3  0  0  0  0  0  0  0  0  0  0
  149.7877  141.5263  155.2845 C   0  0  0  0  0  0  0  0  0  0  0  0
  150.1682  140.1991  154.9990 C   0  0  0  0  0  0  0  0  0  0  0  0
  149.3257  139.3870  154.1990 C   0  0  0  0  0  0  0  0  0  0  0  0
  149.6473  138.0593  153.8770 N   0  0  0  0  0  0  0  0  0  0  0  0
  150.5622  137.2802  154.6973 C   0  0  0  0  0  0  0  0  0  0  0  0
  149.8107  136.5059  155.7991 C   0  0  1  0  0  0  0  0  0  0  0  0
  148.4335  135.9850  155.3443 C   0  0  0  0  0  0  0  0  0  0  0  0
  148.5654  134.8454  154.4059 N   0  3  2  0  0  0  0  0  0  0  0  0
  147.2457  134.3529  153.9348 C   0  0  0  0  0  0  0  0  0  0  0  0
  147.4089  133.2297  152.8987 C   0  0  0  0  0  0  0  0  0  0  0  0
  148.2481  132.0810  153.4709 C   0  0  0  0  0  0  0  0  0  0  0  0
  149.5957  132.6169  153.9712 C   0  0  0  0  0  0  0  0  0  0  0  0
  149.4060  133.7632  154.9854 C   0  0  1  0  0  0  0  0  0  0  0  0
  150.7648  134.3344  155.4312 C   0  0  0  0  0  0  0  0  0  0  0  0
  150.5769  135.4235  156.3281 O   0  0  0  0  0  0  0  0  0  0  0  0
  146.8950  141.7796  153.6972 H   0  0  0  0  0  0  0  0  0  0  0  0
  150.3741  142.2080  155.8833 H   0  0  0  0  0  0  0  0  0  0  0  0
  151.1020  139.8286  155.3948 H   0  0  0  0  0  0  0  0  0  0  0  0
  149.1050  137.5792  153.1718 H   0  0  0  0  0  0  0  0  0  0  0  0
  151.0801  136.5683  154.0535 H   0  0  0  0  0  0  0  0  0  0  0  0
  151.3254  137.9318  155.1223 H   0  0  0  0  0  0  0  0  0  0  0  0
  149.6410  137.1980  156.6250 H   0  0  0  0  0  0  0  0  0  0  0  0
  147.8622  135.6615  156.2159 H   0  0  0  0  0  0  0  0  0  0  0  0
  147.8637  136.7890  154.8765 H   0  0  0  0  0  0  0  0  0  0  0  0
  146.6640  133.9946  154.7856 H   0  0  0  0  0  0  0  0  0  0  0  0
  146.6854  135.1775  153.4926 H   0  0  0  0  0  0  0  0  0  0  0  0
  146.4300  132.8593  152.5926 H   0  0  0  0  0  0  0  0  0  0  0  0
  147.8861  133.6231  152.0001 H   0  0  0  0  0  0  0  0  0  0  0  0
  147.7115  131.6042  154.2920 H   0  0  0  0  0  0  0  0  0  0  0  0
  148.4054  131.3139  152.7119 H   0  0  0  0  0  0  0  0  0  0  0  0
  150.1667  131.8063  154.4260 H   0  0  0  0  0  0  0  0  0  0  0  0
  150.1825  132.9679  153.1209 H   0  0  0  0  0  0  0  0  0  0  0  0
  148.8916  133.3704  155.8646 H   0  0  0  0  0  0  0  0  0  0  0  0
  151.3411  133.5650  155.9456 H   0  0  0  0  0  0  0  0  0  0  0  0
  151.3640  134.6435  154.5744 H   0  0  0  0  0  0  0  0  0  0  0  0
  149.0541  135.1899  153.5921 H   0  0  0  0  0  0  0  0  0  0  0  0
  148.3709  142.9774  155.0162 H   0  0  0  0  0  0  0  0  0  0  0  0
  1  2  1  0  0  0  0
  2  7  1  0  0  0  0
  2  3  2  0  0  0  0
  3  4  1  0  0  0  0
  3 20  1  0  0  0  0
  4  5  2  0  0  0  0
  4 41  1  0  0  0  0
  5  6  1  0  0  0  0
  5 21  1  0  0  0  0
  6  7  2  0  0  0  0
  6 22  1  0  0  0  0
  7  8  1  0  0  0  0
  8  9  1  0  0  0  0
  8 23  1  0  0  0  0
  9 10  1  0  0  0  0
  9 24  1  0  0  0  0
  9 25  1  0  0  0  0
 10 19  1  0  0  0  0
 10 11  1  0  0  0  0
 10 26  1  0  0  0  0
 11 12  1  0  0  0  0
 11 27  1  0  0  0  0
 11 28  1  0  0  0  0
 12 17  1  0  0  0  0
 12 13  1  0  0  0  0
 12 40  1  0  0  0  0
 13 14  1  0  0  0  0
 13 29  1  0  0  0  0
 13 30  1  0  0  0  0
 14 15  1  0  0  0  0
 14 31  1  0  0  0  0
 14 32  1  0  0  0  0
 15 16  1  0  0  0  0
 15 33  1  0  0  0  0
 15 34  1  0  0  0  0
 16 17  1  0  0  0  0
 16 35  1  0  0  0  0
 16 36  1  0  0  0  0
 17 18  1  0  0  0  0
 17 37  1  0  0  0  0
 18 19  1  0  0  0  0
 18 38  1  0  0  0  0
 18 39  1  0  0  0  0
M  CHG  1   4   1
M  CHG  1  12   1
M  END
> <s_m_source_file>
AV-unprocessed.smi

> <i_m_source_file_index>
2822

> <i_lp_mmshare_version>
43012

> <i_f3d_flags>
0

> <s_epik_input>
Q2xjMVtjSF1uW2NIXVtjSF1jMVtOSF1bQ0gyXVtDQEhdKFtDSDJdMilPW0NIMl1bQ0BASF0oTjIzKVtDSDJdW0NIMl1bQ0gyXVtDSDJdMw==

> <s_epik_cmdline>
J2VwaWtfcHl0aG9uJywgJy1waCcsICc3LjAnLCAnLXRuJywgJzgnLCAnLW1hJywgJzIwMCcsICctbWV0YWxfYmluZGluZycsICctaW1hZScsICc8aW5maWxlLm1hZT4nLCAnLW9tYWUnLCAnPG91dGZpbGUubWFlPic=

> <r_lp_tautomer_probability>
1

> <r_epik_Ionization_Penalty>
0.254999

> <r_epik_Ionization_Penalty_Charging>
0.254956

> <r_epik_Ionization_Penalty_Neutral>
4.33524e-05

> <r_epik_State_Penalty>
0.230978

> <r_epik_Charging_Adjusted_Penalty>
0.485934

> <i_epik_Tot_Q>
2

> <i_epik_Tot_abs_Q>
2

> <r_epik_Metal_State_Penalty>
3.47007

> <b_epik_Metal_Only>
0

> <s_lp_Force_Field>
OPLS_2005

> <r_lp_Energy>
41.9056

> <b_lp_Chiralities_Consistent>
1

> <s_lp_Variant>
AV-unprocessed.smi:2822-2

> <Gold.Version>
5.8.1

> <Gold.Id.Protein>
6NUR|6NUR_protein|mol2

> <Gold.PLP.Fitness>
47.6046

> <Gold.PLP.PLP>
-33.9637

> <Gold.PLP.part.hbond>
-3.0000

> <Gold.PLP.part.metal>
0.0000

> <Gold.PLP.part.buried>
-2.0960

> <Gold.PLP.part.nonpolar>
-28.3859

> <Gold.PLP.part.repulsive>
0.2399

> <Gold.PLP.ligand.clash>
0.0000

> <Gold.PLP.ligand.torsion>
0.5157

> <Gold.PLP.Chemscore.Hbond>
4.8882

> <Gold.PLP.Chemscore.CHOScore>
0.0000

> <Gold.PLP.Chemscore.Metal>
0.0000

> <Gold.Chemscore.Hbonds>
donor molecule, donor type, donor heavy atom, donor atom, acceptor molecule, acceptor atom, score
      L1  H     4    41       P1  8028  2.00
      L1  H     8    23       P1  7948  0.98
      L1  H    12    40       P1  7948  1.95

> <Gold.PLP.Chemscore.Internal.Correction>
0.0079

> <Gold.Rescore>
     Score         DG    S(hbond)    S(metal)    S(lipo)     H(rot)  DE(clash)    DE(int)     intcor
     20.65     -21.30       2.72        0.00      83.78       1.20       0.06       0.60       ----

> <Gold.Chemscore.Fitness>
20.6512

> <Gold.Chemscore.DG>
-21.3037

> <Gold.Chemscore.ZeroCoef>
-5.4800

> <Gold.Chemscore.Hbond>
2.7197

> <Gold.Chemscore.Metal>
0.0000

> <Gold.Chemscore.Lipo>
83.7797

> <Gold.Chemscore.Internal_Hbond>
0.0000

> <Gold.Chemscore.DEClash>
0.0564

> <Gold.Chemscore.DEInternal>
0.5960

> <Gold.Chemscore.Rot>
1.1962

> <Gold.Chemscore.Internal.Correction>
   9.000000E+99

> <Gold.Chemscore.Hbonds>
donor molecule, donor type, donor heavy atom, donor atom, acceptor molecule, acceptor atom, score
      L1  H     4    41       P1  8028  0.94
      L1  H     8    23       P1  7948  0.93
      L1  H    12    40       P1  7948  0.41

> <Gold.Chemscore.Hbond.Weighted>
-9.0837

> <Gold.Chemscore.Metal.Weighted>
-0.0000

> <Gold.Chemscore.Lipo.Weighted>
-9.8022

> <Gold.Chemscore.Internal_Hbond.Weighted>
0.0000

> <Gold.Chemscore.DEClash.Weighted>
0.0564

> <Gold.Chemscore.DEInternal.Weighted>
0.5960

> <Gold.Chemscore.Rot.Weighted>
3.0623

> <Gold.Chemscore.Internal.Correction.Weighted>
   9.000000E+99

> <Gold.Protein.RotatedTorsions>
[ 6907 6896 6895 6894 ] final -175.33 input  -60.11 | X-H torsion
[ 7974 7965 7964 7962 ] final  -46.92 input  175.53 | X-H torsion
[ 8008 7997 7996 7995 ] final  -33.02 input   59.86 | X-H torsion
[ 10167 10162 10161 10158 ] final  -94.92 input  -65.29 | X-H torsion
[ 10718 10713 10712 10709 ] final   61.67 input   66.30 | X-H torsion
[ 10763 10752 10751 10750 ] final -130.20 input  -60.55 | X-H torsion
[ 11005 11000 10999 10996 ] final  -85.02 input  -57.11 | X-H torsion

> <Gold.Protein.ActiveResidues>
 VAL166  LYS551  ARG553  GLY616  TRP617  ASP618  TYR619  PRO620  LYS621  CYS622 
 ASP623  PHE694  ASN695  SER759  ASP760  ASP761  ALA762  ILE779  LEU786  VAL792 
 PHE793  MET794  SER795  GLU796  ALA797  LYS798  CYS799  TRP800  GLU811  SER814 

> <Gold.Protein.RotatedAtoms>
  151.5868  133.3371  159.3019 H   0  0  0  0  0  0  0  0  0  0  0  0  # atno 6907 bound_to 6896
  150.8282  134.7526  159.6842 H   0  0  0  0  0  0  0  0  0  0  0  0  # atno 6908 bound_to 6896
  152.4369  134.5675  159.9963 H   0  0  0  0  0  0  0  0  0  0  0  0  # atno 6909 bound_to 6896
  145.9669  140.7423  142.9429 H   0  0  0  0  0  0  0  0  0  0  0  0  # atno 7974 bound_to 7965
  154.4161  140.1722  156.1821 H   0  0  0  0  0  0  0  0  0  0  0  0  # atno 8008 bound_to 7997
  155.9674  140.3388  155.6520 H   0  0  0  0  0  0  0  0  0  0  0  0  # atno 8009 bound_to 7997
  155.6670  140.0707  157.2524 H   0  0  0  0  0  0  0  0  0  0  0  0  # atno 8010 bound_to 7997
  140.3095  143.3113  152.0163 H   0  0  0  0  0  0  0  0  0  0  0  0  # atno 10167 bound_to 10162
  157.5845  130.9008  149.9491 H   0  0  0  0  0  0  0  0  0  0  0  0  # atno 10718 bound_to 10713
  154.8756  135.3870  154.4044 H   0  0  0  0  0  0  0  0  0  0  0  0  # atno 10763 bound_to 10752
  153.4765  135.7030  153.5968 H   0  0  0  0  0  0  0  0  0  0  0  0  # atno 10764 bound_to 10752
  153.4402  135.3858  155.2191 H   0  0  0  0  0  0  0  0  0  0  0  0  # atno 10765 bound_to 10752
  141.1645  133.7377  156.8954 H   0  0  0  0  0  0  0  0  0  0  0  0  # atno 11005 bound_to 11000
  144.6827  140.2684  143.7309 LP  0  0  0  0  0  0  0  0  0  0  0  0  # atno 17320 bound_to 7965
  145.7961  139.1946  143.2075 LP  0  0  0  0  0  0  0  0  0  0  0  0  # atno 17321 bound_to 7965
  139.4897  144.6395  151.6906 LP  0  0  0  0  0  0  0  0  0  0  0  0  # atno 17342 bound_to 10162
  140.5581  144.0315  150.6157 LP  0  0  0  0  0  0  0  0  0  0  0  0  # atno 17343 bound_to 10162
  156.0893  130.3665  150.0426 LP  0  0  0  0  0  0  0  0  0  0  0  0  # atno 17370 bound_to 10713
  156.8559  130.9475  151.3622 LP  0  0  0  0  0  0  0  0  0  0  0  0  # atno 17371 bound_to 10713
  140.1619  134.9159  157.2726 LP  0  0  0  0  0  0  0  0  0  0  0  0  # atno 17394 bound_to 11000
  140.2601  134.3581  155.7410 LP  0  0  0  0  0  0  0  0  0  0  0  0  # atno 17395 bound_to 11000

$$$$
