AV-unprocessed.smi:497|AV-procd|sdf|2726|dock4
  -GOLD-   2262023173D 1   1.00000     0.00000
 Structure written by MMmdl.
 38 40  0  0  0  0  0  0  0  0  2 V2000
  155.6997  139.1748  163.4196 C   0  0  0  0  0  0  0  0  0  0  0  0
  156.1333  140.2183  162.5653 O   0  0  0  0  0  0  0  0  0  0  0  0
  155.4889  140.1858  161.3037 C   0  0  0  0  0  0  0  0  0  0  0  0
  154.0216  140.6010  161.4811 C   0  0  0  0  0  0  0  0  0  0  0  0
  153.3969  140.9347  160.1989 N   0  0  0  0  0  0  0  0  0  0  0  0
  153.2396  140.1887  159.0606 C   0  0  0  0  0  0  0  0  0  0  0  0
  153.7061  138.7582  158.8951 C   0  0  0  0  0  0  0  0  0  0  0  0
  152.6326  137.8835  158.4246 N   0  5  0  0  0  0  0  0  0  0  0  0
  152.6875  137.1522  157.2758 C   0  0  0  0  0  0  0  0  0  0  0  0
  153.2097  136.0530  157.0615 O   0  0  0  0  0  0  0  0  0  0  0  0
  152.0617  137.8622  156.1372 C   0  0  0  0  0  0  0  0  0  0  0  0
  151.5780  139.1392  156.0046 C   0  0  0  0  0  0  0  0  0  0  0  0
  151.0836  139.2559  154.6763 C   0  0  0  0  0  0  0  0  0  0  0  0
  151.2899  138.0396  154.0923 C   0  0  0  0  0  0  0  0  0  0  0  0
  151.8779  137.1805  154.9678 O   0  0  0  0  0  0  0  0  0  0  0  0
  152.6213  140.8136  158.0544 N   0  0  0  0  0  0  0  0  0  0  0  0
  152.3600  142.0656  158.5717 C   0  0  0  0  0  0  0  0  0  0  0  0
  151.7258  143.1859  157.9881 C   0  0  0  0  0  0  0  0  0  0  0  0
  151.5702  144.3805  158.7210 C   0  0  0  0  0  0  0  0  0  0  0  0
  152.0456  144.4713  160.0452 C   0  0  0  0  0  0  0  0  0  0  0  0
  152.6797  143.3660  160.6444 C   0  0  0  0  0  0  0  0  0  0  0  0
  152.8316  142.1747  159.9088 C   0  0  0  0  0  0  0  0  0  0  0  0
  156.2290  139.2361  164.3704 H   0  0  0  0  0  0  0  0  0  0  0  0
  155.9031  138.1969  162.9818 H   0  0  0  0  0  0  0  0  0  0  0  0
  154.6310  139.2520  163.6249 H   0  0  0  0  0  0  0  0  0  0  0  0
  155.9926  140.8580  160.6078 H   0  0  0  0  0  0  0  0  0  0  0  0
  155.5497  139.1822  160.8823 H   0  0  0  0  0  0  0  0  0  0  0  0
  153.4593  139.8150  161.9845 H   0  0  0  0  0  0  0  0  0  0  0  0
  153.9587  141.4703  162.1360 H   0  0  0  0  0  0  0  0  0  0  0  0
  154.5682  138.7730  158.2267 H   0  0  0  0  0  0  0  0  0  0  0  0
  154.0992  138.4090  159.8508 H   0  0  0  0  0  0  0  0  0  0  0  0
  151.5843  139.8998  156.7717 H   0  0  0  0  0  0  0  0  0  0  0  0
  150.6323  140.1187  154.2094 H   0  0  0  0  0  0  0  0  0  0  0  0
  151.0878  137.6326  153.1126 H   0  0  0  0  0  0  0  0  0  0  0  0
  151.3597  143.1252  156.9740 H   0  0  0  0  0  0  0  0  0  0  0  0
  151.0850  145.2307  158.2649 H   0  0  0  0  0  0  0  0  0  0  0  0
  151.9242  145.3900  160.6001 H   0  0  0  0  0  0  0  0  0  0  0  0
  153.0467  143.4330  161.6577 H   0  0  0  0  0  0  0  0  0  0  0  0
  1  2  1  0  0  0  0
  1 23  1  0  0  0  0
  1 24  1  0  0  0  0
  1 25  1  0  0  0  0
  2  3  1  0  0  0  0
  3  4  1  0  0  0  0
  3 26  1  0  0  0  0
  3 27  1  0  0  0  0
  4  5  1  0  0  0  0
  4 28  1  0  0  0  0
  4 29  1  0  0  0  0
  5 22  1  0  0  0  0
  5  6  1  0  0  0  0
  6  7  1  0  0  0  0
  6 16  2  0  0  0  0
  7  8  1  0  0  0  0
  7 30  1  0  0  0  0
  7 31  1  0  0  0  0
  8  9  1  0  0  0  0
  9 10  2  0  0  0  0
  9 11  1  0  0  0  0
 11 15  1  0  0  0  0
 11 12  2  0  0  0  0
 12 13  1  0  0  0  0
 12 32  1  0  0  0  0
 13 14  2  0  0  0  0
 13 33  1  0  0  0  0
 14 15  1  0  0  0  0
 14 34  1  0  0  0  0
 16 17  1  0  0  0  0
 17 22  2  0  0  0  0
 17 18  1  0  0  0  0
 18 19  2  0  0  0  0
 18 35  1  0  0  0  0
 19 20  1  0  0  0  0
 19 36  1  0  0  0  0
 20 21  2  0  0  0  0
 20 37  1  0  0  0  0
 21 22  1  0  0  0  0
 21 38  1  0  0  0  0
M  CHG  1   8  -1
M  END
> <s_m_source_file>
AV-unprocessed.smi

> <i_m_source_file_index>
497

> <i_lp_mmshare_version>
43012

> <i_f3d_flags>
0

> <s_epik_input>
W2NIXTFbY0hdW2NIXVtjSF1jKGMxMiluKFtDSDJdW0NIMl1PW0NIM10pYyhuMilbQ0gyXVtOSF1DKD1PKWMzW2NIXVtjSF1bY0hdbzM=

> <s_epik_cmdline>
J2VwaWtfcHl0aG9uJywgJy1waCcsICc3LjAnLCAnLXRuJywgJzgnLCAnLW1hJywgJzIwMCcsICctbWV0YWxfYmluZGluZycsICctaW1hZScsICc8aW5maWxlLm1hZT4nLCAnLW9tYWUnLCAnPG91dGZpbGUubWFlPic=

> <r_epik_Ionization_Penalty>
7.1745

> <r_epik_Ionization_Penalty_Charging>
6.27046

> <r_epik_Ionization_Penalty_Neutral>
0.90404

> <r_epik_State_Penalty>
6.33612

> <r_epik_Charging_Adjusted_Penalty>
12.6066

> <i_epik_Tot_Q>
-1

> <i_epik_Tot_abs_Q>
1

> <r_epik_Metal_State_Penalty>
2.33688

> <b_epik_Metal_Only>
1

> <s_lp_Force_Field>
OPLS_2005

> <r_lp_Energy>
18.2002

> <b_lp_Chiralities_Consistent>
1

> <s_lp_Variant>
AV-unprocessed.smi:497-3

> <Gold.Version>
5.8.1

> <Gold.Id.Protein>
6NUR|6NUR_protein|mol2

> <Gold.PLP.Fitness>
50.8753

> <Gold.PLP.PLP>
-44.7567

> <Gold.PLP.part.hbond>
-3.7296

> <Gold.PLP.part.metal>
0.0000

> <Gold.PLP.part.buried>
-2.8586

> <Gold.PLP.part.nonpolar>
-37.2633

> <Gold.PLP.part.repulsive>
0.0975

> <Gold.PLP.ligand.clash>
0.0000

> <Gold.PLP.ligand.torsion>
0.9294

> <Gold.PLP.Chemscore.Hbond>
1.5980

> <Gold.PLP.Chemscore.CHOScore>
1.0209

> <Gold.PLP.Chemscore.Metal>
0.0000

> <Gold.Chemscore.Hbonds>
donor molecule, donor type, donor heavy atom, donor atom, acceptor molecule, acceptor atom, score
      P1  H  7997  8008       L1    16  0.05
      P1  H 10752 10763       L1    15  0.62
      P1  H 10752 10764       L1    10  0.90
      L1  C    14    34       P1  7948  0.03
      L1  C    14    34       P1  7949  1.00

> <Gold.PLP.Chemscore.Internal.Correction>
0.1207

> <Gold.Rescore>
     Score         DG    S(hbond)    S(metal)    S(lipo)     H(rot)  DE(clash)    DE(int)     intcor
     17.00     -19.62       1.43        0.00     120.21       1.83       0.24       2.37       ----

> <Gold.Chemscore.Fitness>
17.0024

> <Gold.Chemscore.DG>
-19.6195

> <Gold.Chemscore.ZeroCoef>
-5.4800

> <Gold.Chemscore.Hbond>
1.4282

> <Gold.Chemscore.Metal>
0.0000

> <Gold.Chemscore.Lipo>
120.2061

> <Gold.Chemscore.Internal_Hbond>
0.0000

> <Gold.Chemscore.DEClash>
0.2424

> <Gold.Chemscore.DEInternal>
2.3747

> <Gold.Chemscore.Rot>
1.8339

> <Gold.Chemscore.Internal.Correction>
   9.000000E+99

> <Gold.Chemscore.Hbonds>
donor molecule, donor type, donor heavy atom, donor atom, acceptor molecule, acceptor atom, score
      P1  H 10752 10763       L1    15  0.53
      P1  H 10752 10764       L1    10  0.86

> <Gold.Chemscore.Hbond.Weighted>
-4.7702

> <Gold.Chemscore.Metal.Weighted>
-0.0000

> <Gold.Chemscore.Lipo.Weighted>
-14.0641

> <Gold.Chemscore.Internal_Hbond.Weighted>
0.0000

> <Gold.Chemscore.DEClash.Weighted>
0.2424

> <Gold.Chemscore.DEInternal.Weighted>
2.3747

> <Gold.Chemscore.Rot.Weighted>
4.6948

> <Gold.Chemscore.Internal.Correction.Weighted>
   9.000000E+99

> <Gold.Protein.RotatedTorsions>
[ 6907 6896 6895 6894 ] final   70.42 input  -60.11 | X-H torsion
[ 7974 7965 7964 7962 ] final  100.79 input  175.53 | X-H torsion
[ 8008 7997 7996 7995 ] final  -67.52 input   59.86 | X-H torsion
[ 10167 10162 10161 10158 ] final  -25.47 input  -65.29 | X-H torsion
[ 10718 10713 10712 10709 ] final -158.70 input   66.30 | X-H torsion
[ 10763 10752 10751 10750 ] final   27.68 input  -60.55 | X-H torsion
[ 11005 11000 10999 10996 ] final  -12.67 input  -57.11 | X-H torsion

> <Gold.Protein.ActiveResidues>
 VAL166  LYS551  ARG553  GLY616  TRP617  ASP618  TYR619  PRO620  LYS621  CYS622 
 ASP623  PHE694  ASN695  SER759  ASP760  ASP761  ALA762  ILE779  LEU786  VAL792 
 PHE793  MET794  SER795  GLU796  ALA797  LYS798  CYS799  TRP800  GLU811  SER814 

> <Gold.Protein.RotatedAtoms>
  152.4748  134.4871  159.9683 H   0  0  0  0  0  0  0  0  0  0  0  0  # atno 6907 bound_to 6896
  151.4890  133.3523  159.2858 H   0  0  0  0  0  0  0  0  0  0  0  0  # atno 6908 bound_to 6896
  150.8780  134.8193  159.7265 H   0  0  0  0  0  0  0  0  0  0  0  0  # atno 6909 bound_to 6896
  145.3809  139.2380  143.3404 H   0  0  0  0  0  0  0  0  0  0  0  0  # atno 7974 bound_to 7965
  154.4805  140.0891  156.7366 H   0  0  0  0  0  0  0  0  0  0  0  0  # atno 8008 bound_to 7997
  155.4483  140.3456  155.4279 H   0  0  0  0  0  0  0  0  0  0  0  0  # atno 8009 bound_to 7997
  156.1184  140.1467  156.9228 H   0  0  0  0  0  0  0  0  0  0  0  0  # atno 8010 bound_to 7997
  140.7286  143.4262  151.0872 H   0  0  0  0  0  0  0  0  0  0  0  0  # atno 10167 bound_to 10162
  156.5578  130.8634  151.2800 H   0  0  0  0  0  0  0  0  0  0  0  0  # atno 10718 bound_to 10713
  153.0540  135.6531  154.0623 H   0  0  0  0  0  0  0  0  0  0  0  0  # atno 10763 bound_to 10752
  154.0305  135.2912  155.3370 H   0  0  0  0  0  0  0  0  0  0  0  0  # atno 10764 bound_to 10752
  154.6845  135.5307  153.8375 H   0  0  0  0  0  0  0  0  0  0  0  0  # atno 10765 bound_to 10752
  140.7681  133.8460  155.9183 H   0  0  0  0  0  0  0  0  0  0  0  0  # atno 11005 bound_to 11000
  146.2843  140.4476  142.8764 LP  0  0  0  0  0  0  0  0  0  0  0  0  # atno 17320 bound_to 7965
  144.8509  140.6999  143.6169 LP  0  0  0  0  0  0  0  0  0  0  0  0  # atno 17321 bound_to 7965
  139.7914  143.8213  152.3152 LP  0  0  0  0  0  0  0  0  0  0  0  0  # atno 17342 bound_to 10162
  139.8198  144.7300  150.9587 LP  0  0  0  0  0  0  0  0  0  0  0  0  # atno 17343 bound_to 10162
  157.7374  130.9796  150.2194 LP  0  0  0  0  0  0  0  0  0  0  0  0  # atno 17370 bound_to 10713
  156.2826  130.3735  149.7920 LP  0  0  0  0  0  0  0  0  0  0  0  0  # atno 17371 bound_to 10713
  140.9600  134.1668  157.4662 LP  0  0  0  0  0  0  0  0  0  0  0  0  # atno 17394 bound_to 11000
  139.8760  134.9941  156.5677 LP  0  0  0  0  0  0  0  0  0  0  0  0  # atno 17395 bound_to 11000

$$$$
