AV-unprocessed.smi:2874|AV-procd|sdf|11038|dock4
  -GOLD-   2272015503D 1   1.00000     0.00000
 Structure written by MMmdl.
 39 41  0  0  0  0  0  0  0  0  1 V2000
  156.3124  140.4910  159.7974 C   0  0  0  0  0  0  0  0  0  0  0  0
  156.6728  139.5059  160.7492 O   0  0  0  0  0  0  0  0  0  0  0  0
  155.7355  138.4430  160.8137 C   0  0  0  0  0  0  0  0  0  0  0  0
  154.4062  138.9605  161.3808 C   0  0  0  0  0  0  0  0  0  0  0  0
  153.5867  139.5973  160.3599 N   0  0  0  0  0  0  0  0  0  0  0  0
  153.0439  139.0300  159.2540 C   0  0  0  0  0  0  0  0  0  0  0  0
  153.2736  137.3153  158.8893 S   0  0  0  0  0  0  0  0  0  0  0  0
  154.0530  137.4524  157.2526 C   0  0  0  0  0  0  0  0  0  0  0  0
  153.0128  137.8379  156.2197 C   0  0  0  0  0  0  0  0  0  0  0  0
  152.9896  139.1205  155.8413 N   0  0  0  0  0  0  0  0  0  0  0  0
  152.0649  139.4681  154.9205 C   0  0  0  0  0  0  0  0  0  0  0  0
  151.1622  138.5280  154.3836 C   0  0  0  0  0  0  0  0  0  0  0  0
  151.2801  137.2073  154.8616 C   0  0  0  0  0  0  0  0  0  0  0  0
  150.4327  136.2038  154.3996 N   0  0  0  0  0  0  0  0  0  0  0  0
  152.2083  136.8640  155.7799 N   0  0  0  0  0  0  0  0  0  0  0  0
  152.3264  139.8503  158.4837 N   0  0  0  0  0  0  0  0  0  0  0  0
  152.4124  141.0560  159.1506 C   0  0  0  0  0  0  0  0  0  0  0  0
  151.8604  142.3189  158.8394 C   0  0  0  0  0  0  0  0  0  0  0  0
  152.0859  143.4244  159.6857 C   0  0  0  0  0  0  0  0  0  0  0  0
  151.4047  144.9596  159.2916 Cl  0  0  0  0  0  0  0  0  0  0  0  0
  152.8646  143.2820  160.8528 C   0  0  0  0  0  0  0  0  0  0  0  0
  153.4238  142.0319  161.1807 C   0  0  0  0  0  0  0  0  0  0  0  0
  153.1959  140.9323  160.3317 C   0  0  0  0  0  0  0  0  0  0  0  0
  157.0552  141.2886  159.7975 H   0  0  0  0  0  0  0  0  0  0  0  0
  155.3437  140.9331  160.0338 H   0  0  0  0  0  0  0  0  0  0  0  0
  156.2701  140.0697  158.7923 H   0  0  0  0  0  0  0  0  0  0  0  0
  155.5744  138.0286  159.8176 H   0  0  0  0  0  0  0  0  0  0  0  0
  156.1234  137.6397  161.4421 H   0  0  0  0  0  0  0  0  0  0  0  0
  153.8415  138.1362  161.8175 H   0  0  0  0  0  0  0  0  0  0  0  0
  154.5861  139.6662  162.1919 H   0  0  0  0  0  0  0  0  0  0  0  0
  154.8526  138.1940  157.2832 H   0  0  0  0  0  0  0  0  0  0  0  0
  154.5012  136.4969  156.9770 H   0  0  0  0  0  0  0  0  0  0  0  0
  152.0433  140.5026  154.6119 H   0  0  0  0  0  0  0  0  0  0  0  0
  150.4225  138.8099  153.6489 H   0  0  0  0  0  0  0  0  0  0  0  0
  149.7153  136.3916  153.7146 H   0  0  0  0  0  0  0  0  0  0  0  0
  150.5023  135.2575  154.7453 H   0  0  0  0  0  0  0  0  0  0  0  0
  151.2615  142.4362  157.9485 H   0  0  0  0  0  0  0  0  0  0  0  0
  153.0324  144.1318  161.4980 H   0  0  0  0  0  0  0  0  0  0  0  0
  154.0183  141.9189  162.0751 H   0  0  0  0  0  0  0  0  0  0  0  0
  1  2  1  0  0  0  0
  1 24  1  0  0  0  0
  1 25  1  0  0  0  0
  1 26  1  0  0  0  0
  2  3  1  0  0  0  0
  3  4  1  0  0  0  0
  3 27  1  0  0  0  0
  3 28  1  0  0  0  0
  4  5  1  0  0  0  0
  4 29  1  0  0  0  0
  4 30  1  0  0  0  0
  5 23  1  0  0  0  0
  5  6  1  0  0  0  0
  6  7  1  0  0  0  0
  6 16  2  0  0  0  0
  7  8  1  0  0  0  0
  8  9  1  0  0  0  0
  8 31  1  0  0  0  0
  8 32  1  0  0  0  0
  9 15  1  0  0  0  0
  9 10  2  0  0  0  0
 10 11  1  0  0  0  0
 11 12  2  0  0  0  0
 11 33  1  0  0  0  0
 12 13  1  0  0  0  0
 12 34  1  0  0  0  0
 13 14  1  0  0  0  0
 13 15  2  0  0  0  0
 14 35  1  0  0  0  0
 14 36  1  0  0  0  0
 16 17  1  0  0  0  0
 17 23  2  0  0  0  0
 17 18  1  0  0  0  0
 18 19  2  0  0  0  0
 18 37  1  0  0  0  0
 19 20  1  0  0  0  0
 19 21  1  0  0  0  0
 21 22  2  0  0  0  0
 21 38  1  0  0  0  0
 22 23  1  0  0  0  0
 22 39  1  0  0  0  0
M  END
> <s_m_source_file>
AV-unprocessed.smi

> <i_m_source_file_index>
2874

> <i_lp_mmshare_version>
43012

> <i_f3d_flags>
0

> <s_epik_input>
W2NIXTFjKENsKVtjSF1bY0hdYyhjMTIpbihbQ0gyXVtDSDJdT1tDSDNdKWMobjIpU1tDSDJdYzNuW2NIXVtjSF1jKG4zKVtOSDJd

> <s_epik_cmdline>
J2VwaWtfcHl0aG9uJywgJy1waCcsICc3LjAnLCAnLXRuJywgJzgnLCAnLW1hJywgJzIwMCcsICctbWV0YWxfYmluZGluZycsICctaW1hZScsICc8aW5maWxlLm1hZT4nLCAnLW9tYWUnLCAnPG91dGZpbGUubWFlPic=

> <r_lp_tautomer_probability>
1

> <r_epik_Ionization_Penalty>
0.0126717

> <r_epik_Ionization_Penalty_Charging>
0

> <r_epik_Ionization_Penalty_Neutral>
0.0126717

> <r_epik_State_Penalty>
0.00687269

> <r_epik_Charging_Adjusted_Penalty>
0.00687269

> <i_epik_Tot_Q>
0

> <i_epik_Tot_abs_Q>
0

> <r_epik_Metal_State_Penalty>
0.00678378

> <b_epik_Metal_Only>
0

> <s_lp_Force_Field>
OPLS_2005

> <r_lp_Energy>
1.60018

> <b_lp_Chiralities_Consistent>
1

> <s_lp_Variant>
AV-unprocessed.smi:2874-1

> <Gold.Version>
5.8.1

> <Gold.Id.Protein>
6NUR|6NUR_protein|mol2

> <Gold.PLP.Fitness>
51.9649

> <Gold.PLP.PLP>
-43.7952

> <Gold.PLP.part.hbond>
-4.0000

> <Gold.PLP.part.metal>
0.0000

> <Gold.PLP.part.buried>
-4.0118

> <Gold.PLP.part.nonpolar>
-36.2271

> <Gold.PLP.part.repulsive>
0.1061

> <Gold.PLP.ligand.clash>
0.0000

> <Gold.PLP.ligand.torsion>
0.4464

> <Gold.PLP.Chemscore.Hbond>
2.9920

> <Gold.PLP.Chemscore.CHOScore>
0.0000

> <Gold.PLP.Chemscore.Metal>
0.0000

> <Gold.Chemscore.Hbonds>
donor molecule, donor type, donor heavy atom, donor atom, acceptor molecule, acceptor atom, score
      L1  H    14    35       P1  7948  1.00
      P1  H  7997  8010       L1    10  1.00
      P1  H 10752 10763       L1    15  0.99

> <Gold.PLP.Chemscore.Internal.Correction>
0.0864

> <Gold.Rescore>
     Score         DG    S(hbond)    S(metal)    S(lipo)     H(rot)  DE(clash)    DE(int)     intcor
     16.57     -19.54       1.97        0.00     117.42       2.44       1.22       1.74       ----

> <Gold.Chemscore.Fitness>
16.5704

> <Gold.Chemscore.DG>
-19.5386

> <Gold.Chemscore.ZeroCoef>
-5.4800

> <Gold.Chemscore.Hbond>
1.9680

> <Gold.Chemscore.Metal>
0.0000

> <Gold.Chemscore.Lipo>
117.4248

> <Gold.Chemscore.Internal_Hbond>
0.0000

> <Gold.Chemscore.DEClash>
1.2243

> <Gold.Chemscore.DEInternal>
1.7438

> <Gold.Chemscore.Rot>
2.4426

> <Gold.Chemscore.Internal.Correction>
   9.000000E+99

> <Gold.Chemscore.Hbonds>
donor molecule, donor type, donor heavy atom, donor atom, acceptor molecule, acceptor atom, score
      L1  H    14    35       P1  7948  0.41
      P1  H  7997  8010       L1    10  0.90
      P1  H 10752 10763       L1    15  0.25

> <Gold.Chemscore.Hbond.Weighted>
-6.5730

> <Gold.Chemscore.Metal.Weighted>
-0.0000

> <Gold.Chemscore.Lipo.Weighted>
-13.7387

> <Gold.Chemscore.Internal_Hbond.Weighted>
0.0000

> <Gold.Chemscore.DEClash.Weighted>
1.2243

> <Gold.Chemscore.DEInternal.Weighted>
1.7438

> <Gold.Chemscore.Rot.Weighted>
6.2531

> <Gold.Chemscore.Internal.Correction.Weighted>
   9.000000E+99

> <Gold.Protein.RotatedTorsions>
[ 6907 6896 6895 6894 ] final -161.49 input  -60.11 | X-H torsion
[ 7974 7965 7964 7962 ] final   -6.84 input  175.53 | X-H torsion
[ 8008 7997 7996 7995 ] final  100.94 input   59.86 | X-H torsion
[ 10167 10162 10161 10158 ] final    5.09 input  -65.29 | X-H torsion
[ 10718 10713 10712 10709 ] final  -12.91 input   66.30 | X-H torsion
[ 10763 10752 10751 10750 ] final   79.67 input  -60.55 | X-H torsion
[ 11005 11000 10999 10996 ] final  152.87 input  -57.11 | X-H torsion

> <Gold.Protein.ActiveResidues>
 VAL166  LYS551  ARG553  GLY616  TRP617  ASP618  TYR619  PRO620  LYS621  CYS622 
 ASP623  PHE694  ASN695  SER759  ASP760  ASP761  ALA762  ILE779  LEU786  VAL792 
 PHE793  MET794  SER795  GLU796  ALA797  LYS798  CYS799  TRP800  GLU811  SER814 

> <Gold.Protein.RotatedAtoms>
  151.3655  133.3874  159.2693 H   0  0  0  0  0  0  0  0  0  0  0  0  # atno 6907 bound_to 6896
  150.9692  134.9069  159.7788 H   0  0  0  0  0  0  0  0  0  0  0  0  # atno 6908 bound_to 6896
  152.5178  134.3616  159.9339 H   0  0  0  0  0  0  0  0  0  0  0  0  # atno 6909 bound_to 6896
  146.2321  140.2230  142.8338 H   0  0  0  0  0  0  0  0  0  0  0  0  # atno 7974 bound_to 7965
  156.1251  140.3205  155.8266 H   0  0  0  0  0  0  0  0  0  0  0  0  # atno 8008 bound_to 7997
  155.4434  140.0527  157.3025 H   0  0  0  0  0  0  0  0  0  0  0  0  # atno 8009 bound_to 7997
  154.4856  140.2071  155.9675 H   0  0  0  0  0  0  0  0  0  0  0  0  # atno 8010 bound_to 7997
  140.6500  143.7568  150.7560 H   0  0  0  0  0  0  0  0  0  0  0  0  # atno 10167 bound_to 10162
  156.6379  130.4919  149.6105 H   0  0  0  0  0  0  0  0  0  0  0  0  # atno 10718 bound_to 10713
  153.0971  135.4831  154.8799 H   0  0  0  0  0  0  0  0  0  0  0  0  # atno 10763 bound_to 10752
  154.7337  135.3066  154.8850 H   0  0  0  0  0  0  0  0  0  0  0  0  # atno 10764 bound_to 10752
  153.9478  135.6827  153.4797 H   0  0  0  0  0  0  0  0  0  0  0  0  # atno 10765 bound_to 10752
  140.1346  134.8779  157.2250 H   0  0  0  0  0  0  0  0  0  0  0  0  # atno 11005 bound_to 11000
  144.9617  140.8281  143.5509 LP  0  0  0  0  0  0  0  0  0  0  0  0  # atno 17320 bound_to 7965
  145.2202  139.2163  143.5097 LP  0  0  0  0  0  0  0  0  0  0  0  0  # atno 17321 bound_to 7965
  140.1216  143.4606  152.2309 LP  0  0  0  0  0  0  0  0  0  0  0  0  # atno 17342 bound_to 10162
  139.5714  144.7465  151.3880 LP  0  0  0  0  0  0  0  0  0  0  0  0  # atno 17343 bound_to 10162
  156.2183  130.6721  151.1341 LP  0  0  0  0  0  0  0  0  0  0  0  0  # atno 17370 bound_to 10713
  157.7180  131.0698  150.6250 LP  0  0  0  0  0  0  0  0  0  0  0  0  # atno 17371 bound_to 10713
  140.2798  134.3363  155.7346 LP  0  0  0  0  0  0  0  0  0  0  0  0  # atno 17394 bound_to 11000
  141.2176  133.7472  156.9347 LP  0  0  0  0  0  0  0  0  0  0  0  0  # atno 17395 bound_to 11000

$$$$
