AV-unprocessed.smi:2359|AV-procd|sdf|9407|dock5
  -GOLD-   2272013 43D 1   1.00000     0.00000
 Structure written by MMmdl.
 40 41  0  0  0  0  0  0  0  0  1 V2000
  141.1094  143.8261  161.4353 C   0  0  0  0  0  0  0  0  0  0  0  0
  142.5374  144.1221  161.0280 C   0  0  0  0  0  0  0  0  0  0  0  0
  143.5484  144.3041  161.9907 C   0  0  0  0  0  0  0  0  0  0  0  0
  144.8585  144.5798  161.5545 C   0  0  0  0  0  0  0  0  0  0  0  0
  145.1274  144.6677  160.1700 C   0  0  0  0  0  0  0  0  0  0  0  0
  146.4777  144.9569  159.8384 N   0  0  0  0  0  0  0  0  0  0  0  0
  147.5779  144.7698  160.5886 C   0  0  0  0  0  0  0  0  0  0  0  0
  147.5910  144.3259  161.7373 O   0  0  0  0  0  0  0  0  0  0  0  0
  148.6842  145.1342  159.9243 N   0  0  0  0  0  0  0  0  0  0  0  0
  150.0419  145.0557  160.4505 C   0  0  0  0  0  0  0  0  0  0  0  0
  151.0107  144.4419  159.4256 C   0  0  0  0  0  0  0  0  0  0  0  0
  152.2519  143.8159  160.0807 C   0  0  2  0  0  0  0  0  0  0  0  0
  152.7589  142.5873  159.3003 C   0  0  0  0  0  0  0  0  0  0  0  0
  153.9462  141.9409  160.0232 C   0  0  0  0  0  0  0  0  0  0  0  0
  153.5700  141.6503  161.4799 C   0  0  0  0  0  0  0  0  0  0  0  0
  153.0172  142.9170  162.1515 C   0  0  0  0  0  0  0  0  0  0  0  0
  151.9104  143.4162  161.4071 O   0  0  0  0  0  0  0  0  0  0  0  0
  144.1466  144.4894  159.2502 N   0  0  0  0  0  0  0  0  0  0  0  0
  142.8911  144.2253  159.6688 C   0  0  0  0  0  0  0  0  0  0  0  0
  141.0219  143.7085  162.5157 H   0  0  0  0  0  0  0  0  0  0  0  0
  140.7640  142.9060  160.9633 H   0  0  0  0  0  0  0  0  0  0  0  0
  140.4529  144.6393  161.1254 H   0  0  0  0  0  0  0  0  0  0  0  0
  143.3284  144.2362  163.0459 H   0  0  0  0  0  0  0  0  0  0  0  0
  145.6461  144.7235  162.2800 H   0  0  0  0  0  0  0  0  0  0  0  0
  146.6248  145.3399  158.9165 H   0  0  0  0  0  0  0  0  0  0  0  0
  148.5815  145.4889  158.9848 H   0  0  0  0  0  0  0  0  0  0  0  0
  150.3852  146.0450  160.7575 H   0  0  0  0  0  0  0  0  0  0  0  0
  150.0154  144.4443  161.3529 H   0  0  0  0  0  0  0  0  0  0  0  0
  150.4913  143.6893  158.8309 H   0  0  0  0  0  0  0  0  0  0  0  0
  151.3307  145.2172  158.7280 H   0  0  0  0  0  0  0  0  0  0  0  0
  153.0428  144.5672  160.1240 H   0  0  0  0  0  0  0  0  0  0  0  0
  151.9541  141.8582  159.1978 H   0  0  0  0  0  0  0  0  0  0  0  0
  153.0510  142.8743  158.2896 H   0  0  0  0  0  0  0  0  0  0  0  0
  154.2468  141.0231  159.5175 H   0  0  0  0  0  0  0  0  0  0  0  0
  154.8048  142.6131  159.9928 H   0  0  0  0  0  0  0  0  0  0  0  0
  152.8162  140.8628  161.5142 H   0  0  0  0  0  0  0  0  0  0  0  0
  154.4365  141.2788  162.0271 H   0  0  0  0  0  0  0  0  0  0  0  0
  152.6855  142.6892  163.1648 H   0  0  0  0  0  0  0  0  0  0  0  0
  153.7891  143.6836  162.2340 H   0  0  0  0  0  0  0  0  0  0  0  0
  142.1481  144.0942  158.8957 H   0  0  0  0  0  0  0  0  0  0  0  0
  1  2  1  0  0  0  0
  1 20  1  0  0  0  0
  1 21  1  0  0  0  0
  1 22  1  0  0  0  0
  2 19  1  0  0  0  0
  2  3  2  0  0  0  0
  3  4  1  0  0  0  0
  3 23  1  0  0  0  0
  4  5  2  0  0  0  0
  4 24  1  0  0  0  0
  5  6  1  0  0  0  0
  5 18  1  0  0  0  0
  6  7  1  0  0  0  0
  6 25  1  0  0  0  0
  7  8  2  0  0  0  0
  7  9  1  0  0  0  0
  9 10  1  0  0  0  0
  9 26  1  0  0  0  0
 10 11  1  0  0  0  0
 10 27  1  0  0  0  0
 10 28  1  0  0  0  0
 11 12  1  0  0  0  0
 11 29  1  0  0  0  0
 11 30  1  0  0  0  0
 12 17  1  0  0  0  0
 12 13  1  0  0  0  0
 12 31  1  0  0  0  0
 13 14  1  0  0  0  0
 13 32  1  0  0  0  0
 13 33  1  0  0  0  0
 14 15  1  0  0  0  0
 14 34  1  0  0  0  0
 14 35  1  0  0  0  0
 15 16  1  0  0  0  0
 15 36  1  0  0  0  0
 15 37  1  0  0  0  0
 16 17  1  0  0  0  0
 16 38  1  0  0  0  0
 16 39  1  0  0  0  0
 18 19  2  0  0  0  0
 19 40  1  0  0  0  0
M  END
> <s_m_source_file>
AV-unprocessed.smi

> <i_m_source_file_index>
2359

> <i_lp_mmshare_version>
43012

> <i_f3d_flags>
0

> <s_epik_input>
W0NIM11jMVtjSF1bY0hdYyhuW2NIXTEpW05IXUMoPU8pW05IXVtDSDJdW0NIMl1bQ0BASF0yW0NIMl1bQ0gyXVtDSDJdW0NIMl1PMg==

> <s_epik_cmdline>
J2VwaWtfcHl0aG9uJywgJy1waCcsICc3LjAnLCAnLXRuJywgJzgnLCAnLW1hJywgJzIwMCcsICctbWV0YWxfYmluZGluZycsICctaW1hZScsICc8aW5maWxlLm1hZT4nLCAnLW9tYWUnLCAnPG91dGZpbGUubWFlPic=

> <r_lp_tautomer_probability>
1

> <r_epik_Ionization_Penalty>
5.73679e-05

> <r_epik_Ionization_Penalty_Charging>
0

> <r_epik_Ionization_Penalty_Neutral>
5.73679e-05

> <r_epik_State_Penalty>
-0

> <r_epik_Charging_Adjusted_Penalty>
0

> <i_epik_Tot_Q>
0

> <i_epik_Tot_abs_Q>
0

> <r_epik_Metal_State_Penalty>
-0

> <b_epik_Metal_Only>
0

> <s_lp_Force_Field>
OPLS_2005

> <r_lp_Energy>
10.9797

> <b_lp_Chiralities_Consistent>
1

> <s_lp_Variant>
AV-unprocessed.smi:2359-1

> <Gold.Version>
5.8.1

> <Gold.Id.Protein>
6NUR|6NUR_protein|mol2

> <Gold.PLP.Fitness>
44.8191

> <Gold.PLP.PLP>
-37.3177

> <Gold.PLP.part.hbond>
-3.5015

> <Gold.PLP.part.metal>
0.0000

> <Gold.PLP.part.buried>
-6.9368

> <Gold.PLP.part.nonpolar>
-27.2372

> <Gold.PLP.part.repulsive>
0.5715

> <Gold.PLP.ligand.clash>
0.0000

> <Gold.PLP.ligand.torsion>
0.7517

> <Gold.PLP.Chemscore.Hbond>
3.0000

> <Gold.PLP.Chemscore.CHOScore>
0.0000

> <Gold.PLP.Chemscore.Metal>
0.0000

> <Gold.Chemscore.Hbonds>
donor molecule, donor type, donor heavy atom, donor atom, acceptor molecule, acceptor atom, score
      L1  H     6    25       P1  8029  0.75
      L1  H     9    26       P1  8029  1.00
      P1  H  6933  6944       L1     8  0.65

> <Gold.PLP.Chemscore.Internal.Correction>
0.0050

> <Gold.Rescore>
     Score         DG    S(hbond)    S(metal)    S(lipo)     H(rot)  DE(clash)    DE(int)     intcor
     21.17     -23.33       2.89        0.00     101.25       1.42       0.05       2.10       ----

> <Gold.Chemscore.Fitness>
21.1701

> <Gold.Chemscore.DG>
-23.3252

> <Gold.Chemscore.ZeroCoef>
-5.4800

> <Gold.Chemscore.Hbond>
2.8883

> <Gold.Chemscore.Metal>
0.0000

> <Gold.Chemscore.Lipo>
101.2468

> <Gold.Chemscore.Internal_Hbond>
0.0000

> <Gold.Chemscore.DEClash>
0.0515

> <Gold.Chemscore.DEInternal>
2.1036

> <Gold.Chemscore.Rot>
1.4248

> <Gold.Chemscore.Internal.Correction>
   9.000000E+99

> <Gold.Chemscore.Hbonds>
donor molecule, donor type, donor heavy atom, donor atom, acceptor molecule, acceptor atom, score
      L1  H     6    25       P1  8029  0.73
      L1  H     9    26       P1  8029  1.00
      P1  H  6933  6944       L1     8  0.25

> <Gold.Chemscore.Hbond.Weighted>
-9.6469

> <Gold.Chemscore.Metal.Weighted>
-0.0000

> <Gold.Chemscore.Lipo.Weighted>
-11.8459

> <Gold.Chemscore.Internal_Hbond.Weighted>
0.0000

> <Gold.Chemscore.DEClash.Weighted>
0.0515

> <Gold.Chemscore.DEInternal.Weighted>
2.1036

> <Gold.Chemscore.Rot.Weighted>
3.6476

> <Gold.Chemscore.Internal.Correction.Weighted>
   9.000000E+99

> <Gold.Protein.RotatedTorsions>
[ 6907 6896 6895 6894 ] final  -10.73 input  -60.11 | X-H torsion
[ 7974 7965 7964 7962 ] final   11.69 input  175.53 | X-H torsion
[ 8008 7997 7996 7995 ] final   61.16 input   59.86 | X-H torsion
[ 10167 10162 10161 10158 ] final  -82.72 input  -65.29 | X-H torsion
[ 10718 10713 10712 10709 ] final  131.76 input   66.30 | X-H torsion
[ 10763 10752 10751 10750 ] final  144.89 input  -60.55 | X-H torsion
[ 11005 11000 10999 10996 ] final   43.99 input  -57.11 | X-H torsion

> <Gold.Protein.ActiveResidues>
 VAL166  LYS551  ARG553  GLY616  TRP617  ASP618  TYR619  PRO620  LYS621  CYS622 
 ASP623  PHE694  ASN695  SER759  ASP760  ASP761  ALA762  ILE779  LEU786  VAL792 
 PHE793  MET794  SER795  GLU796  ALA797  LYS798  CYS799  TRP800  GLU811  SER814 

> <Gold.Protein.RotatedAtoms>
  151.3973  135.0965  159.9544 H   0  0  0  0  0  0  0  0  0  0  0  0  # atno 6907 bound_to 6896
  152.5061  133.8922  159.7410 H   0  0  0  0  0  0  0  0  0  0  0  0  # atno 6908 bound_to 6896
  150.9388  133.6624  159.2823 H   0  0  0  0  0  0  0  0  0  0  0  0  # atno 6909 bound_to 6896
  146.2366  139.9447  142.8478 H   0  0  0  0  0  0  0  0  0  0  0  0  # atno 7974 bound_to 7965
  155.5940  140.3493  155.4574 H   0  0  0  0  0  0  0  0  0  0  0  0  # atno 8008 bound_to 7997
  156.0280  140.1268  157.0313 H   0  0  0  0  0  0  0  0  0  0  0  0  # atno 8009 bound_to 7997
  154.4341  140.1049  156.6044 H   0  0  0  0  0  0  0  0  0  0  0  0  # atno 8010 bound_to 7997
  140.4293  143.2554  151.8781 H   0  0  0  0  0  0  0  0  0  0  0  0  # atno 10167 bound_to 10162
  157.4936  131.1091  150.9523 H   0  0  0  0  0  0  0  0  0  0  0  0  # atno 10718 bound_to 10713
  153.9963  135.2927  155.3407 H   0  0  0  0  0  0  0  0  0  0  0  0  # atno 10763 bound_to 10752
  154.7185  135.5119  153.8779 H   0  0  0  0  0  0  0  0  0  0  0  0  # atno 10764 bound_to 10752
  153.0786  135.6672  154.0209 H   0  0  0  0  0  0  0  0  0  0  0  0  # atno 10765 bound_to 10752
  140.1593  134.4362  155.8328 H   0  0  0  0  0  0  0  0  0  0  0  0  # atno 11005 bound_to 11000
  145.1918  140.9815  143.4206 LP  0  0  0  0  0  0  0  0  0  0  0  0  # atno 17320 bound_to 7965
  144.9850  139.3745  143.6243 LP  0  0  0  0  0  0  0  0  0  0  0  0  # atno 17321 bound_to 7965
  139.4784  144.5352  151.8609 LP  0  0  0  0  0  0  0  0  0  0  0  0  # atno 17342 bound_to 10162
  140.4445  144.1940  150.5893 LP  0  0  0  0  0  0  0  0  0  0  0  0  # atno 17343 bound_to 10162
  157.0216  130.5676  149.5332 LP  0  0  0  0  0  0  0  0  0  0  0  0  # atno 17370 bound_to 10713
  156.0188  130.5282  150.8213 LP  0  0  0  0  0  0  0  0  0  0  0  0  # atno 17371 bound_to 10713
  141.2208  133.6906  156.7565 LP  0  0  0  0  0  0  0  0  0  0  0  0  # atno 17394 bound_to 11000
  140.2509  134.8541  157.3666 LP  0  0  0  0  0  0  0  0  0  0  0  0  # atno 17395 bound_to 11000

$$$$
