AV-unprocessed.smi:2154|AV-procd|sdf|8772|dock5
  -GOLD-   2272011553D 1   1.00000     0.00000
 Structure written by MMmdl.
 32 33  0  0  0  0  0  0  0  0  1 V2000
  153.4890  140.8691  160.2743 C   0  0  0  0  0  0  0  0  0  0  0  0
  153.4607  142.3843  160.3083 C   0  0  2  0  0  0  0  0  0  0  0  0
  152.5204  143.1176  161.2366 C   0  0  0  0  0  0  0  0  0  0  0  0
  152.3081  143.1902  159.7422 C   0  0  2  0  0  0  0  0  0  0  0  0
  151.1038  142.5312  159.0909 C   0  0  0  0  0  0  0  0  0  0  0  0
  151.3588  141.9542  157.7776 N   0  0  0  0  0  0  0  0  0  0  0  0
  150.4171  141.4857  156.9451 C   0  0  0  0  0  0  0  0  0  0  0  0
  149.2127  141.5217  157.2011 O   0  0  0  0  0  0  0  0  0  0  0  0
  150.9178  140.9093  155.6133 C   0  0  0  0  0  0  0  0  0  0  0  0
  149.8314  140.3908  154.7692 N   0  0  0  0  0  0  0  0  0  0  0  0
  148.7493  141.1965  154.4446 C   0  0  0  0  0  0  0  0  0  0  0  0
  147.7132  140.7803  153.6785 C   0  0  0  0  0  0  0  0  0  0  0  0
  147.6882  139.4228  153.1442 C   0  0  0  0  0  0  0  0  0  0  0  0
  146.7965  138.9541  152.4399 O   0  0  0  0  0  0  0  0  0  0  0  0
  148.7926  138.6421  153.4955 N   0  0  0  0  0  0  0  0  0  0  0  0
  149.8627  139.0645  154.2855 C   0  0  0  0  0  0  0  0  0  0  0  0
  150.7871  138.2927  154.5381 O   0  0  0  0  0  0  0  0  0  0  0  0
  148.8183  137.6936  153.1505 H   0  0  0  0  0  0  0  0  0  0  0  0
  152.5157  140.4479  160.5246 H   0  0  0  0  0  0  0  0  0  0  0  0
  154.2168  140.4955  160.9945 H   0  0  0  0  0  0  0  0  0  0  0  0
  153.7753  140.5225  159.2812 H   0  0  0  0  0  0  0  0  0  0  0  0
  154.4443  142.8311  160.1767 H   0  0  0  0  0  0  0  0  0  0  0  0
  151.8185  142.5244  161.8198 H   0  0  0  0  0  0  0  0  0  0  0  0
  152.8975  144.0096  161.7329 H   0  0  0  0  0  0  0  0  0  0  0  0
  152.6038  144.1200  159.2593 H   0  0  0  0  0  0  0  0  0  0  0  0
  150.7224  141.7596  159.7617 H   0  0  0  0  0  0  0  0  0  0  0  0
  150.3036  143.2621  158.9783 H   0  0  0  0  0  0  0  0  0  0  0  0
  152.3237  141.8911  157.4867 H   0  0  0  0  0  0  0  0  0  0  0  0
  151.4636  141.6952  155.0894 H   0  0  0  0  0  0  0  0  0  0  0  0
  151.6530  140.1235  155.7994 H   0  0  0  0  0  0  0  0  0  0  0  0
  148.7233  142.2091  154.8219 H   0  0  0  0  0  0  0  0  0  0  0  0
  146.8980  141.4550  153.4604 H   0  0  0  0  0  0  0  0  0  0  0  0
  1  2  1  0  0  0  0
  1 19  1  0  0  0  0
  1 20  1  0  0  0  0
  1 21  1  0  0  0  0
  2  4  1  0  0  0  0
  2  3  1  0  0  0  0
  2 22  1  0  0  0  0
  3  4  1  0  0  0  0
  3 23  1  0  0  0  0
  3 24  1  0  0  0  0
  4  5  1  0  0  0  0
  4 25  1  0  0  0  0
  5  6  1  0  0  0  0
  5 26  1  0  0  0  0
  5 27  1  0  0  0  0
  6  7  1  0  0  0  0
  6 28  1  0  0  0  0
  7  8  2  0  0  0  0
  7  9  1  0  0  0  0
  9 10  1  0  0  0  0
  9 29  1  0  0  0  0
  9 30  1  0  0  0  0
 10 16  1  0  0  0  0
 10 11  1  0  0  0  0
 11 12  2  0  0  0  0
 11 31  1  0  0  0  0
 12 13  1  0  0  0  0
 12 32  1  0  0  0  0
 13 14  2  0  0  0  0
 13 15  1  0  0  0  0
 15 18  1  0  0  0  0
 15 16  1  0  0  0  0
 16 17  2  0  0  0  0
M  END
> <s_m_source_file>
AV-unprocessed.smi

> <i_m_source_file_index>
2154

> <i_lp_mmshare_version>
43012

> <i_f3d_flags>
0

> <s_epik_input>
W0NIM11bQ0BASF0xW0NIMl1bQ0BIXTFbQ0gyXVtOSF1DKD1PKVtDSDJdbjJbY0hdW2NIXWMoPU8pW25IXWMyPU8=

> <s_epik_cmdline>
J2VwaWtfcHl0aG9uJywgJy1waCcsICc3LjAnLCAnLXRuJywgJzgnLCAnLW1hJywgJzIwMCcsICctbWV0YWxfYmluZGluZycsICctaW1hZScsICc8aW5maWxlLm1hZT4nLCAnLW9tYWUnLCAnPG91dGZpbGUubWFlPic=

> <r_lp_tautomer_probability>
0.999537

> <r_epik_Ionization_Penalty>
0.00305319

> <r_epik_Ionization_Penalty_Charging>
0.00305317

> <r_epik_Ionization_Penalty_Neutral>
2.06703e-08

> <r_epik_State_Penalty>
0.00214626

> <r_epik_Charging_Adjusted_Penalty>
0.00519944

> <i_epik_Tot_Q>
0

> <i_epik_Tot_abs_Q>
0

> <r_epik_Metal_State_Penalty>
0.361976

> <b_epik_Metal_Only>
0

> <s_lp_Force_Field>
OPLS_2005

> <r_lp_Energy>
15.9584

> <b_lp_Chiralities_Consistent>
1

> <s_lp_Variant>
AV-unprocessed.smi:2154-3

> <Gold.Version>
5.8.1

> <Gold.Id.Protein>
6NUR|6NUR_protein|mol2

> <Gold.PLP.Fitness>
41.8155

> <Gold.PLP.PLP>
-36.0361

> <Gold.PLP.part.hbond>
-2.0000

> <Gold.PLP.part.metal>
0.0000

> <Gold.PLP.part.buried>
-0.0497

> <Gold.PLP.part.nonpolar>
-33.4164

> <Gold.PLP.part.repulsive>
0.7033

> <Gold.PLP.ligand.clash>
0.0000

> <Gold.PLP.ligand.torsion>
0.3598

> <Gold.PLP.Chemscore.Hbond>
0.9913

> <Gold.PLP.Chemscore.CHOScore>
0.9973

> <Gold.PLP.Chemscore.Metal>
0.0000

> <Gold.Chemscore.Hbonds>
donor molecule, donor type, donor heavy atom, donor atom, acceptor molecule, acceptor atom, score
      L1  H    15    18       P1  7948  1.00
      L1  C    11    31       P1  8028  0.73

> <Gold.PLP.Chemscore.Internal.Correction>
0.5332

> <Gold.Rescore>
     Score         DG    S(hbond)    S(metal)    S(lipo)     H(rot)  DE(clash)    DE(int)     intcor
     10.20     -12.05       0.91        0.00      74.12       2.01       0.12       1.73       ----

> <Gold.Chemscore.Fitness>
10.1962

> <Gold.Chemscore.DG>
-12.0497

> <Gold.Chemscore.ZeroCoef>
-5.4800

> <Gold.Chemscore.Hbond>
0.9085

> <Gold.Chemscore.Metal>
0.0000

> <Gold.Chemscore.Lipo>
74.1183

> <Gold.Chemscore.Internal_Hbond>
0.0000

> <Gold.Chemscore.DEClash>
0.1219

> <Gold.Chemscore.DEInternal>
1.7317

> <Gold.Chemscore.Rot>
2.0065

> <Gold.Chemscore.Internal.Correction>
   9.000000E+99

> <Gold.Chemscore.Hbonds>
donor molecule, donor type, donor heavy atom, donor atom, acceptor molecule, acceptor atom, score
      L1  H    15    18       P1  7948  0.98

> <Gold.Chemscore.Hbond.Weighted>
-3.0345

> <Gold.Chemscore.Metal.Weighted>
-0.0000

> <Gold.Chemscore.Lipo.Weighted>
-8.6718

> <Gold.Chemscore.Internal_Hbond.Weighted>
0.0000

> <Gold.Chemscore.DEClash.Weighted>
0.1219

> <Gold.Chemscore.DEInternal.Weighted>
1.7317

> <Gold.Chemscore.Rot.Weighted>
5.1366

> <Gold.Chemscore.Internal.Correction.Weighted>
   9.000000E+99

> <Gold.Protein.RotatedTorsions>
[ 6907 6896 6895 6894 ] final  -48.27 input  -60.11 | X-H torsion
[ 7974 7965 7964 7962 ] final  -87.50 input  175.53 | X-H torsion
[ 8008 7997 7996 7995 ] final   22.59 input   59.86 | X-H torsion
[ 10167 10162 10161 10158 ] final -158.17 input  -65.29 | X-H torsion
[ 10718 10713 10712 10709 ] final  171.74 input   66.30 | X-H torsion
[ 10763 10752 10751 10750 ] final   80.19 input  -60.55 | X-H torsion
[ 11005 11000 10999 10996 ] final  171.29 input  -57.11 | X-H torsion

> <Gold.Protein.ActiveResidues>
 VAL166  LYS551  ARG553  GLY616  TRP617  ASP618  TYR619  PRO620  LYS621  CYS622 
 ASP623  PHE694  ASN695  SER759  ASP760  ASP761  ALA762  ILE779  LEU786  VAL792 
 PHE793  MET794  SER795  GLU796  ALA797  LYS798  CYS799  TRP800  GLU811  SER814 

> <Gold.Protein.RotatedAtoms>
  150.8922  134.8327  159.7301 H   0  0  0  0  0  0  0  0  0  0  0  0  # atno 6907 bound_to 6896
  152.4844  134.4630  159.9621 H   0  0  0  0  0  0  0  0  0  0  0  0  # atno 6908 bound_to 6896
  151.4691  133.3534  159.2856 H   0  0  0  0  0  0  0  0  0  0  0  0  # atno 6909 bound_to 6896
  145.4656  140.9560  143.1945 H   0  0  0  0  0  0  0  0  0  0  0  0  # atno 7974 bound_to 7965
  154.9680  140.3086  155.5001 H   0  0  0  0  0  0  0  0  0  0  0  0  # atno 8008 bound_to 7997
  156.2969  140.2289  156.4709 H   0  0  0  0  0  0  0  0  0  0  0  0  # atno 8009 bound_to 7997
  154.7903  140.0440  157.1184 H   0  0  0  0  0  0  0  0  0  0  0  0  # atno 8010 bound_to 7997
  139.6713  143.9740  152.2285 H   0  0  0  0  0  0  0  0  0  0  0  0  # atno 10167 bound_to 10162
  156.9891  131.0142  151.2861 H   0  0  0  0  0  0  0  0  0  0  0  0  # atno 10718 bound_to 10713
  153.1013  135.4812  154.8872 H   0  0  0  0  0  0  0  0  0  0  0  0  # atno 10763 bound_to 10752
  154.7382  135.3076  154.8777 H   0  0  0  0  0  0  0  0  0  0  0  0  # atno 10764 bound_to 10752
  153.9393  135.6836  153.4798 H   0  0  0  0  0  0  0  0  0  0  0  0  # atno 10765 bound_to 10752
  140.3175  134.7465  157.4038 H   0  0  0  0  0  0  0  0  0  0  0  0  # atno 11005 bound_to 11000
  144.7976  139.6204  143.7086 LP  0  0  0  0  0  0  0  0  0  0  0  0  # atno 17320 bound_to 7965
  146.2426  139.6032  142.9481 LP  0  0  0  0  0  0  0  0  0  0  0  0  # atno 17321 bound_to 7965
  139.9505  144.6623  150.8176 LP  0  0  0  0  0  0  0  0  0  0  0  0  # atno 17342 bound_to 10162
  140.7619  143.3185  151.2676 LP  0  0  0  0  0  0  0  0  0  0  0  0  # atno 17343 bound_to 10162
  157.5471  130.8158  149.8100 LP  0  0  0  0  0  0  0  0  0  0  0  0  # atno 17370 bound_to 10713
  156.0214  130.3794  150.1951 LP  0  0  0  0  0  0  0  0  0  0  0  0  # atno 17371 bound_to 10713
  140.0971  134.5523  155.8388 LP  0  0  0  0  0  0  0  0  0  0  0  0  # atno 17394 bound_to 11000
  141.2094  133.6684  156.6438 LP  0  0  0  0  0  0  0  0  0  0  0  0  # atno 17395 bound_to 11000

$$$$
