AV-unprocessed.smi:1692|AV-procd|sdf|6779|dock2
  -GOLD-   22720 7533D 1   1.00000     0.00000
 Structure written by MMmdl.
 46 47  0  0  0  0  0  0  0  0  2 V2000
  144.2600  132.6785  149.9266 C   0  0  0  0  0  0  0  0  0  0  0  0
  145.5311  132.0448  150.5025 C   0  0  1  0  0  0  0  0  0  0  0  0
  146.2504  132.9809  151.4921 C   0  0  0  0  0  0  0  0  0  0  0  0
  147.4303  132.3063  152.0830 N   0  3  1  0  0  0  0  0  0  0  0  0
  148.1931  133.1946  152.9954 C   0  0  0  0  0  0  0  0  0  0  0  0
  149.4533  132.5162  153.5584 C   0  0  0  0  0  0  0  0  0  0  0  0
  150.2472  133.4452  154.4919 C   0  0  0  0  0  0  0  0  0  0  0  0
  150.1091  134.8453  154.1070 N   0  0  0  0  0  0  0  0  0  0  0  0
  150.5285  135.8877  154.8393 C   0  0  0  0  0  0  0  0  0  0  0  0
  151.0957  135.7658  155.9257 O   0  0  0  0  0  0  0  0  0  0  0  0
  150.2509  137.0546  154.2313 N   0  0  0  0  0  0  0  0  0  0  0  0
  150.5275  138.3704  154.6894 C   0  0  0  0  0  0  0  0  0  0  0  0
  149.5656  139.3429  154.3337 C   0  0  0  0  0  0  0  0  0  0  0  0
  149.7470  140.6786  154.7417 C   0  0  0  0  0  0  0  0  0  0  0  0
  150.8862  141.0078  155.4973 C   0  0  0  0  0  0  0  0  0  0  0  0
  151.7950  139.9797  155.8086 C   0  0  0  0  0  0  0  0  0  0  0  0
  151.6241  138.6993  155.4172 N   0  0  0  0  0  0  0  0  0  0  0  0
  147.0291  131.0201  152.7043 C   0  0  0  0  0  0  0  0  0  0  0  0
  146.2883  130.1355  151.6834 C   0  0  1  0  0  0  0  0  0  0  0  0
  145.7861  128.8283  152.3065 C   0  0  0  0  0  0  0  0  0  0  0  0
  145.1636  130.8478  151.1793 O   0  0  0  0  0  0  0  0  0  0  0  0
  144.4889  133.5993  149.3896 H   0  0  0  0  0  0  0  0  0  0  0  0
  143.5460  132.9189  150.7146 H   0  0  0  0  0  0  0  0  0  0  0  0
  143.7684  132.0006  149.2284 H   0  0  0  0  0  0  0  0  0  0  0  0
  146.2004  131.7989  149.6760 H   0  0  0  0  0  0  0  0  0  0  0  0
  146.5656  133.8877  150.9744 H   0  0  0  0  0  0  0  0  0  0  0  0
  145.5694  133.2860  152.2886 H   0  0  0  0  0  0  0  0  0  0  0  0
  148.5063  134.0832  152.4452 H   0  0  0  0  0  0  0  0  0  0  0  0
  147.5469  133.5437  153.8023 H   0  0  0  0  0  0  0  0  0  0  0  0
  149.1795  131.6132  154.1034 H   0  0  0  0  0  0  0  0  0  0  0  0
  150.0935  132.1977  152.7346 H   0  0  0  0  0  0  0  0  0  0  0  0
  149.8875  133.3403  155.5157 H   0  0  0  0  0  0  0  0  0  0  0  0
  151.3022  133.1657  154.5038 H   0  0  0  0  0  0  0  0  0  0  0  0
  149.6503  135.0340  153.2275 H   0  0  0  0  0  0  0  0  0  0  0  0
  149.7832  136.9962  153.3389 H   0  0  0  0  0  0  0  0  0  0  0  0
  148.6947  139.0728  153.7543 H   0  0  0  0  0  0  0  0  0  0  0  0
  149.0239  141.4367  154.4797 H   0  0  0  0  0  0  0  0  0  0  0  0
  151.0591  142.0208  155.8297 H   0  0  0  0  0  0  0  0  0  0  0  0
  152.6822  140.1899  156.3873 H   0  0  0  0  0  0  0  0  0  0  0  0
  147.9048  130.4867  153.0721 H   0  0  0  0  0  0  0  0  0  0  0  0
  146.3894  131.2164  153.5667 H   0  0  0  0  0  0  0  0  0  0  0  0
  146.9573  129.8900  150.8564 H   0  0  0  0  0  0  0  0  0  0  0  0
  146.6133  128.2380  152.7018 H   0  0  0  0  0  0  0  0  0  0  0  0
  145.2675  128.2180  151.5667 H   0  0  0  0  0  0  0  0  0  0  0  0
  145.0915  129.0209  153.1247 H   0  0  0  0  0  0  0  0  0  0  0  0
  148.0453  132.0854  151.3128 H   0  0  0  0  0  0  0  0  0  0  0  0
  1  2  1  0  0  0  0
  1 22  1  0  0  0  0
  1 23  1  0  0  0  0
  1 24  1  0  0  0  0
  2 21  1  0  0  0  0
  2  3  1  0  0  0  0
  2 25  1  0  0  0  0
  3  4  1  0  0  0  0
  3 26  1  0  0  0  0
  3 27  1  0  0  0  0
  4  5  1  0  0  0  0
  4 18  1  0  0  0  0
  4 46  1  0  0  0  0
  5  6  1  0  0  0  0
  5 28  1  0  0  0  0
  5 29  1  0  0  0  0
  6  7  1  0  0  0  0
  6 30  1  0  0  0  0
  6 31  1  0  0  0  0
  7  8  1  0  0  0  0
  7 32  1  0  0  0  0
  7 33  1  0  0  0  0
  8  9  1  0  0  0  0
  8 34  1  0  0  0  0
  9 10  2  0  0  0  0
  9 11  1  0  0  0  0
 11 12  1  0  0  0  0
 11 35  1  0  0  0  0
 12 17  1  0  0  0  0
 12 13  2  0  0  0  0
 13 14  1  0  0  0  0
 13 36  1  0  0  0  0
 14 15  2  0  0  0  0
 14 37  1  0  0  0  0
 15 16  1  0  0  0  0
 15 38  1  0  0  0  0
 16 17  2  0  0  0  0
 16 39  1  0  0  0  0
 18 19  1  0  0  0  0
 18 40  1  0  0  0  0
 18 41  1  0  0  0  0
 19 20  1  0  0  0  0
 19 21  1  0  0  0  0
 19 42  1  0  0  0  0
 20 43  1  0  0  0  0
 20 44  1  0  0  0  0
 20 45  1  0  0  0  0
M  CHG  1   4   1
M  END
> <s_m_source_file>
AV-unprocessed.smi

> <i_m_source_file_index>
1692

> <i_lp_mmshare_version>
43012

> <i_f3d_flags>
0

> <s_epik_input>
W0NIM11bQ0BASF0xW0NIMl1OKFtDSDJdW0NASF0oTzEpW0NIM10pW0NIMl1bQ0gyXVtDSDJdW05IXUMoPU8pW05IXWMyW2NIXVtjSF1bY0hdW2NIXW4y

> <s_epik_cmdline>
J2VwaWtfcHl0aG9uJywgJy1waCcsICc3LjAnLCAnLXRuJywgJzgnLCAnLW1hJywgJzIwMCcsICctbWV0YWxfYmluZGluZycsICctaW1hZScsICc8aW5maWxlLm1hZT4nLCAnLW9tYWUnLCAnPG91dGZpbGUubWFlPic=

> <r_epik_Ionization_Penalty>
0.270538

> <r_epik_Ionization_Penalty_Charging>
0.270496

> <r_epik_Ionization_Penalty_Neutral>
4.22978e-05

> <r_epik_State_Penalty>
0.262618

> <r_epik_Charging_Adjusted_Penalty>
0.533114

> <i_epik_Tot_Q>
1

> <i_epik_Tot_abs_Q>
1

> <r_epik_Metal_State_Penalty>
0.262618

> <b_epik_Metal_Only>
0

> <s_lp_Force_Field>
OPLS_2005

> <r_lp_Energy>
16.7861

> <b_lp_Chiralities_Consistent>
1

> <s_lp_Variant>
AV-unprocessed.smi:1692-2

> <Gold.Version>
5.8.1

> <Gold.Id.Protein>
6NUR|6NUR_protein|mol2

> <Gold.PLP.Fitness>
50.7505

> <Gold.PLP.PLP>
-43.5492

> <Gold.PLP.part.hbond>
-3.0537

> <Gold.PLP.part.metal>
0.0000

> <Gold.PLP.part.buried>
-5.4973

> <Gold.PLP.part.nonpolar>
-35.4149

> <Gold.PLP.part.repulsive>
0.2493

> <Gold.PLP.ligand.clash>
0.0000

> <Gold.PLP.ligand.torsion>
0.4657

> <Gold.PLP.Chemscore.Hbond>
2.7000

> <Gold.PLP.Chemscore.CHOScore>
0.0000

> <Gold.PLP.Chemscore.Metal>
0.0000

> <Gold.Chemscore.Hbonds>
donor molecule, donor type, donor heavy atom, donor atom, acceptor molecule, acceptor atom, score
      L1  H     4    46       P1 10747  1.00
      L1  H     8    34       P1  7948  0.20
      L1  H    11    35       P1  7948  1.00
      P1  H 10752 10765       L1    10  0.16

> <Gold.PLP.Chemscore.Internal.Correction>
0.0328

> <Gold.Rescore>
     Score         DG    S(hbond)    S(metal)    S(lipo)     H(rot)  DE(clash)    DE(int)     intcor
     17.31     -18.61       1.99        0.00      94.29       1.78       0.05       1.25       ----

> <Gold.Chemscore.Fitness>
17.3087

> <Gold.Chemscore.DG>
-18.6110

> <Gold.Chemscore.ZeroCoef>
-5.4800

> <Gold.Chemscore.Hbond>
1.9940

> <Gold.Chemscore.Metal>
0.0000

> <Gold.Chemscore.Lipo>
94.2856

> <Gold.Chemscore.Internal_Hbond>
0.0000

> <Gold.Chemscore.DEClash>
0.0486

> <Gold.Chemscore.DEInternal>
1.2536

> <Gold.Chemscore.Rot>
1.7814

> <Gold.Chemscore.Internal.Correction>
   9.000000E+99

> <Gold.Chemscore.Hbonds>
donor molecule, donor type, donor heavy atom, donor atom, acceptor molecule, acceptor atom, score
      L1  H     4    46       P1 10747  0.96
      L1  H    11    35       P1  7948  0.45

> <Gold.Chemscore.Hbond.Weighted>
-6.6599

> <Gold.Chemscore.Metal.Weighted>
-0.0000

> <Gold.Chemscore.Lipo.Weighted>
-11.0314

> <Gold.Chemscore.Internal_Hbond.Weighted>
0.0000

> <Gold.Chemscore.DEClash.Weighted>
0.0486

> <Gold.Chemscore.DEInternal.Weighted>
1.2536

> <Gold.Chemscore.Rot.Weighted>
4.5603

> <Gold.Chemscore.Internal.Correction.Weighted>
   9.000000E+99

> <Gold.Protein.RotatedTorsions>
[ 6907 6896 6895 6894 ] final   -4.87 input  -60.11 | X-H torsion
[ 7974 7965 7964 7962 ] final -156.60 input  175.53 | X-H torsion
[ 8008 7997 7996 7995 ] final  126.50 input   59.86 | X-H torsion
[ 10167 10162 10161 10158 ] final   39.57 input  -65.29 | X-H torsion
[ 10718 10713 10712 10709 ] final  -84.91 input   66.30 | X-H torsion
[ 10763 10752 10751 10750 ] final -171.08 input  -60.55 | X-H torsion
[ 11005 11000 10999 10996 ] final  -77.52 input  -57.11 | X-H torsion

> <Gold.Protein.ActiveResidues>
 VAL166  LYS551  ARG553  GLY616  TRP617  ASP618  TYR619  PRO620  LYS621  CYS622 
 ASP623  PHE694  ASN695  SER759  ASP760  ASP761  ALA762  ILE779  LEU786  VAL792 
 PHE793  MET794  SER795  GLU796  ALA797  LYS798  CYS799  TRP800  GLU811  SER814 

> <Gold.Protein.RotatedAtoms>
  151.4906  135.1057  159.9802 H   0  0  0  0  0  0  0  0  0  0  0  0  # atno 6907 bound_to 6896
  152.4742  133.8096  159.7007 H   0  0  0  0  0  0  0  0  0  0  0  0  # atno 6908 bound_to 6896
  150.8770  133.7363  159.2970 H   0  0  0  0  0  0  0  0  0  0  0  0  # atno 6909 bound_to 6896
  144.7585  140.4086  143.5994 H   0  0  0  0  0  0  0  0  0  0  0  0  # atno 7974 bound_to 7965
  156.2865  140.2691  156.2121 H   0  0  0  0  0  0  0  0  0  0  0  0  # atno 8008 bound_to 7997
  155.0254  140.0386  157.2471 H   0  0  0  0  0  0  0  0  0  0  0  0  # atno 8009 bound_to 7997
  154.7400  140.2723  155.6387 H   0  0  0  0  0  0  0  0  0  0  0  0  # atno 8010 bound_to 7997
  140.3827  144.1959  150.6130 H   0  0  0  0  0  0  0  0  0  0  0  0  # atno 10167 bound_to 10162
  156.0001  130.4713  150.4482 H   0  0  0  0  0  0  0  0  0  0  0  0  # atno 10718 bound_to 10713
  154.6345  135.2890  155.0178 H   0  0  0  0  0  0  0  0  0  0  0  0  # atno 10763 bound_to 10752
  154.1326  135.6531  153.4929 H   0  0  0  0  0  0  0  0  0  0  0  0  # atno 10764 bound_to 10752
  153.0295  135.5314  154.7185 H   0  0  0  0  0  0  0  0  0  0  0  0  # atno 10765 bound_to 10752
  141.1660  133.7026  156.7833 H   0  0  0  0  0  0  0  0  0  0  0  0  # atno 11005 bound_to 11000
  145.6696  139.1597  143.2762 LP  0  0  0  0  0  0  0  0  0  0  0  0  # atno 17320 bound_to 7965
  146.1623  140.6769  142.9271 LP  0  0  0  0  0  0  0  0  0  0  0  0  # atno 17321 bound_to 7965
  140.4921  143.2344  151.8803 LP  0  0  0  0  0  0  0  0  0  0  0  0  # atno 17342 bound_to 10162
  139.4794  144.5154  151.8875 LP  0  0  0  0  0  0  0  0  0  0  0  0  # atno 17343 bound_to 10162
  157.2517  131.0548  151.2375 LP  0  0  0  0  0  0  0  0  0  0  0  0  # atno 17370 bound_to 10713
  157.3522  130.7088  149.6448 LP  0  0  0  0  0  0  0  0  0  0  0  0  # atno 17371 bound_to 10713
  140.2378  134.8636  157.3543 LP  0  0  0  0  0  0  0  0  0  0  0  0  # atno 17394 bound_to 11000
  140.1826  134.4471  155.7763 LP  0  0  0  0  0  0  0  0  0  0  0  0  # atno 17395 bound_to 11000

$$$$
