AV-unprocessed.smi:212|AV-procd|sdf|1627|dock1
  -GOLD-   2262019573D 1   1.00000     0.00000
 Structure written by MMmdl.
 65 68  0  0  0  0  0  0  0  0  2 V2000
  141.2027  136.0480  153.9193 C   0  0  0  0  0  0  0  0  0  0  0  0
  142.5532  136.7802  153.8439 C   0  0  2  0  0  0  0  0  0  0  0  0
  143.1918  136.6805  152.4425 C   0  0  0  0  0  0  0  0  0  0  0  0
  143.7127  135.3137  152.1745 N   0  3  1  0  0  0  0  0  0  0  0  0
  144.2167  135.1360  150.7871 C   0  0  0  0  0  0  0  0  0  0  0  0
  144.4910  133.6541  150.4382 C   0  0  0  0  0  0  0  0  0  0  0  0
  145.8763  133.2357  150.9588 C   0  0  0  0  0  0  0  0  0  0  0  0
  143.4070  132.7126  150.9950 C   0  0  0  0  0  0  0  0  0  0  0  0
  144.5286  133.5060  149.0328 O   0  0  0  0  0  0  0  0  0  0  0  0
  144.6801  134.8733  153.2109 C   0  0  0  0  0  0  0  0  0  0  0  0
  144.0623  134.9691  154.6181 C   0  0  0  0  0  0  0  0  0  0  0  0
  143.4902  136.2948  154.8607 N   0  0  0  0  0  0  0  0  0  0  0  0
  144.2587  137.2398  155.4636 C   0  0  0  0  0  0  0  0  0  0  0  0
  143.7085  138.0776  156.3823 N   0  0  0  0  0  0  0  0  0  0  0  0
  144.4590  139.0022  156.9892 C   0  0  0  0  0  0  0  0  0  0  0  0
  145.7581  139.2590  156.8285 N   0  0  0  0  0  0  0  0  0  0  0  0
  146.3149  138.4283  155.9017 C   0  0  0  0  0  0  0  0  0  0  0  0
  145.6446  137.4007  155.1799 C   0  0  0  0  0  0  0  0  0  0  0  0
  146.5356  136.7692  154.3195 N   0  0  0  0  0  0  0  0  0  0  0  0
  147.6693  137.3815  154.5281 C   0  0  0  0  0  0  0  0  0  0  0  0
  147.6274  138.3884  155.4650 N   0  0  0  0  0  0  0  0  0  0  0  0
  148.7372  139.2271  155.8824 C   0  0  0  0  0  0  0  0  0  0  0  0
  148.4244  140.7424  155.7654 C   0  0  2  0  0  0  0  0  0  0  0  0
  148.2501  141.1752  154.2898 C   0  0  0  0  0  0  0  0  0  0  0  0
  149.4166  140.9143  153.5373 O   0  0  0  0  0  0  0  0  0  0  0  0
  149.4576  141.6327  156.5136 C   0  0  1  0  0  0  0  0  0  0  0  0
  149.4906  141.4122  158.0289 C   0  0  0  0  0  0  0  0  0  0  0  0
  150.9718  141.2238  158.3483 C   0  0  0  0  0  0  0  0  0  0  0  0
  151.5047  140.6947  157.1467 O   0  0  0  0  0  0  0  0  0  0  0  0
  150.9212  141.4340  156.0860 C   0  0  0  0  0  0  0  0  0  0  0  0
  140.4970  136.4597  153.1976 H   0  0  0  0  0  0  0  0  0  0  0  0
  140.7575  136.1545  154.9090 H   0  0  0  0  0  0  0  0  0  0  0  0
  141.2998  134.9825  153.7105 H   0  0  0  0  0  0  0  0  0  0  0  0
  142.3405  137.8354  154.0135 H   0  0  0  0  0  0  0  0  0  0  0  0
  142.4645  136.9685  151.6834 H   0  0  0  0  0  0  0  0  0  0  0  0
  144.0158  137.3921  152.3665 H   0  0  0  0  0  0  0  0  0  0  0  0
  143.5195  135.5792  150.0740 H   0  0  0  0  0  0  0  0  0  0  0  0
  145.1481  135.6911  150.6622 H   0  0  0  0  0  0  0  0  0  0  0  0
  145.9287  133.3119  152.0455 H   0  0  0  0  0  0  0  0  0  0  0  0
  146.6654  133.8659  150.5464 H   0  0  0  0  0  0  0  0  0  0  0  0
  146.1081  132.2037  150.6924 H   0  0  0  0  0  0  0  0  0  0  0  0
  143.3288  132.8007  152.0790 H   0  0  0  0  0  0  0  0  0  0  0  0
  143.6327  131.6701  150.7666 H   0  0  0  0  0  0  0  0  0  0  0  0
  142.4246  132.9293  150.5743 H   0  0  0  0  0  0  0  0  0  0  0  0
  145.1698  134.1059  148.6829 H   0  0  0  0  0  0  0  0  0  0  0  0
  144.9827  133.8431  153.0199 H   0  0  0  0  0  0  0  0  0  0  0  0
  145.5803  135.4863  153.1468 H   0  0  0  0  0  0  0  0  0  0  0  0
  143.2684  134.2293  154.7206 H   0  0  0  0  0  0  0  0  0  0  0  0
  144.8012  134.7147  155.3793 H   0  0  0  0  0  0  0  0  0  0  0  0
  143.9452  139.6246  157.7069 H   0  0  0  0  0  0  0  0  0  0  0  0
  148.5743  137.1142  154.0015 H   0  0  0  0  0  0  0  0  0  0  0  0
  148.9844  138.9507  156.9065 H   0  0  0  0  0  0  0  0  0  0  0  0
  149.6092  138.9654  155.2832 H   0  0  0  0  0  0  0  0  0  0  0  0
  147.4617  140.9058  156.2529 H   0  0  0  0  0  0  0  0  0  0  0  0
  147.4019  140.6683  153.8293 H   0  0  0  0  0  0  0  0  0  0  0  0
  148.0578  142.2447  154.2135 H   0  0  0  0  0  0  0  0  0  0  0  0
  149.2063  140.2830  152.8662 H   0  0  0  0  0  0  0  0  0  0  0  0
  149.2015  142.6788  156.3432 H   0  0  0  0  0  0  0  0  0  0  0  0
  149.0662  142.2524  158.5794 H   0  0  0  0  0  0  0  0  0  0  0  0
  148.9302  140.5253  158.3218 H   0  0  0  0  0  0  0  0  0  0  0  0
  151.4478  142.1809  158.5675 H   0  0  0  0  0  0  0  0  0  0  0  0
  151.1395  140.5552  159.1928 H   0  0  0  0  0  0  0  0  0  0  0  0
  151.0413  140.9248  155.1302 H   0  0  0  0  0  0  0  0  0  0  0  0
  151.4275  142.3975  156.0082 H   0  0  0  0  0  0  0  0  0  0  0  0
  142.9219  134.6910  152.2584 H   0  0  0  0  0  0  0  0  0  0  0  0
  1  2  1  0  0  0  0
  1 31  1  0  0  0  0
  1 32  1  0  0  0  0
  1 33  1  0  0  0  0
  2 12  1  0  0  0  0
  2  3  1  0  0  0  0
  2 34  1  0  0  0  0
  3  4  1  0  0  0  0
  3 35  1  0  0  0  0
  3 36  1  0  0  0  0
  4  5  1  0  0  0  0
  4 10  1  0  0  0  0
  4 65  1  0  0  0  0
  5  6  1  0  0  0  0
  5 37  1  0  0  0  0
  5 38  1  0  0  0  0
  6  7  1  0  0  0  0
  6  8  1  0  0  0  0
  6  9  1  0  0  0  0
  7 39  1  0  0  0  0
  7 40  1  0  0  0  0
  7 41  1  0  0  0  0
  8 42  1  0  0  0  0
  8 43  1  0  0  0  0
  8 44  1  0  0  0  0
  9 45  1  0  0  0  0
 10 11  1  0  0  0  0
 10 46  1  0  0  0  0
 10 47  1  0  0  0  0
 11 12  1  0  0  0  0
 11 48  1  0  0  0  0
 11 49  1  0  0  0  0
 12 13  1  0  0  0  0
 13 18  1  0  0  0  0
 13 14  2  0  0  0  0
 14 15  1  0  0  0  0
 15 16  2  0  0  0  0
 15 50  1  0  0  0  0
 16 17  1  0  0  0  0
 17 21  1  0  0  0  0
 17 18  2  0  0  0  0
 18 19  1  0  0  0  0
 19 20  2  0  0  0  0
 20 21  1  0  0  0  0
 20 51  1  0  0  0  0
 21 22  1  0  0  0  0
 22 23  1  0  0  0  0
 22 52  1  0  0  0  0
 22 53  1  0  0  0  0
 23 24  1  0  0  0  0
 23 26  1  0  0  0  0
 23 54  1  0  0  0  0
 24 25  1  0  0  0  0
 24 55  1  0  0  0  0
 24 56  1  0  0  0  0
 25 57  1  0  0  0  0
 26 30  1  0  0  0  0
 26 27  1  0  0  0  0
 26 58  1  0  0  0  0
 27 28  1  0  0  0  0
 27 59  1  0  0  0  0
 27 60  1  0  0  0  0
 28 29  1  0  0  0  0
 28 61  1  0  0  0  0
 28 62  1  0  0  0  0
 29 30  1  0  0  0  0
 30 63  1  0  0  0  0
 30 64  1  0  0  0  0
M  CHG  1   4   1
M  END
> <s_m_source_file>
AV-unprocessed.smi

> <i_m_source_file_index>
212

> <i_lp_mmshare_version>
43012

> <i_f3d_flags>
0

> <s_epik_input>
W0NIM11bQ0BASF0xW0NIMl1OKFtDSDJdQyhbQ0gzXSkoW0NIM10pW09IXSlbQ0gyXVtDSDJdTjFjKG5bY0hdbjIpYyhjMjMpbltjSF1uM1tDSDJdW0NASF0oW0NIMl1bT0hdKVtDQEBIXTRbQ0gyXVtDSDJdT1tDSDJdNA==

> <s_epik_cmdline>
J2VwaWtfcHl0aG9uJywgJy1waCcsICc3LjAnLCAnLXRuJywgJzgnLCAnLW1hJywgJzIwMCcsICctbWV0YWxfYmluZGluZycsICctaW1hZScsICc8aW5maWxlLm1hZT4nLCAnLW9tYWUnLCAnPG91dGZpbGUubWFlPic=

> <r_lp_tautomer_probability>
1

> <r_epik_Ionization_Penalty>
0.00182193

> <r_epik_Ionization_Penalty_Charging>
0.00173996

> <r_epik_Ionization_Penalty_Neutral>
8.19718e-05

> <r_epik_State_Penalty>
-0

> <r_epik_Charging_Adjusted_Penalty>
0.00173996

> <i_epik_Tot_Q>
1

> <i_epik_Tot_abs_Q>
1

> <r_epik_Metal_State_Penalty>
-0

> <b_epik_Metal_Only>
0

> <s_lp_Force_Field>
OPLS_2005

> <r_lp_Energy>
60.0337

> <b_lp_Chiralities_Consistent>
1

> <s_lp_Variant>
AV-unprocessed.smi:212-11

> <Gold.Version>
5.8.1

> <Gold.Id.Protein>
6NUR|6NUR_protein|mol2

> <Gold.PLP.Fitness>
45.8866

> <Gold.PLP.PLP>
-35.5476

> <Gold.PLP.part.hbond>
-3.8113

> <Gold.PLP.part.metal>
0.0000

> <Gold.PLP.part.buried>
-7.0401

> <Gold.PLP.part.nonpolar>
-24.0027

> <Gold.PLP.part.repulsive>
0.1170

> <Gold.PLP.ligand.clash>
0.0000

> <Gold.PLP.ligand.torsion>
1.4989

> <Gold.PLP.Chemscore.Hbond>
3.0400

> <Gold.PLP.Chemscore.CHOScore>
0.9806

> <Gold.PLP.Chemscore.Metal>
0.0000

> <Gold.Chemscore.Hbonds>
donor molecule, donor type, donor heavy atom, donor atom, acceptor molecule, acceptor atom, score
      L1  H     9    45       P1  7921  1.00
      L1  H    25    57       P1  7957  0.72
      P1  H  7989  7998       L1    25  0.19
      P1  H  8011  8017       L1    25  0.85
      L1  C    20    51       P1  7948  1.00

> <Gold.PLP.Chemscore.Internal.Correction>
1.2750

> <Gold.Rescore>
     Score         DG    S(hbond)    S(metal)    S(lipo)     H(rot)  DE(clash)    DE(int)     intcor
      9.29     -12.48       1.86        0.00      81.00       3.40       0.01       3.18       ----

> <Gold.Chemscore.Fitness>
9.2944

> <Gold.Chemscore.DG>
-12.4830

> <Gold.Chemscore.ZeroCoef>
-5.4800

> <Gold.Chemscore.Hbond>
1.8642

> <Gold.Chemscore.Metal>
0.0000

> <Gold.Chemscore.Lipo>
80.9993

> <Gold.Chemscore.Internal_Hbond>
0.0000

> <Gold.Chemscore.DEClash>
0.0089

> <Gold.Chemscore.DEInternal>
3.1797

> <Gold.Chemscore.Rot>
3.3986

> <Gold.Chemscore.Internal.Correction>
   9.000000E+99

> <Gold.Chemscore.Hbonds>
donor molecule, donor type, donor heavy atom, donor atom, acceptor molecule, acceptor atom, score
      L1  H     9    45       P1  7921  0.96
      L1  H    25    57       P1  7957  0.72
      P1  H  7989  7998       L1    25  0.06
      P1  H  8011  8017       L1    25  0.11

> <Gold.Chemscore.Hbond.Weighted>
-6.2265

> <Gold.Chemscore.Metal.Weighted>
-0.0000

> <Gold.Chemscore.Lipo.Weighted>
-9.4769

> <Gold.Chemscore.Internal_Hbond.Weighted>
0.0000

> <Gold.Chemscore.DEClash.Weighted>
0.0089

> <Gold.Chemscore.DEInternal.Weighted>
3.1797

> <Gold.Chemscore.Rot.Weighted>
8.7005

> <Gold.Chemscore.Internal.Correction.Weighted>
   9.000000E+99

> <Gold.Protein.RotatedTorsions>
[ 6907 6896 6895 6894 ] final  -23.60 input  -60.11 | X-H torsion
[ 7974 7965 7964 7962 ] final   19.07 input  175.53 | X-H torsion
[ 8008 7997 7996 7995 ] final -133.62 input   59.86 | X-H torsion
[ 10167 10162 10161 10158 ] final   96.86 input  -65.29 | X-H torsion
[ 10718 10713 10712 10709 ] final  100.93 input   66.30 | X-H torsion
[ 10763 10752 10751 10750 ] final   24.75 input  -60.55 | X-H torsion
[ 11005 11000 10999 10996 ] final  -45.87 input  -57.11 | X-H torsion

> <Gold.Protein.ActiveResidues>
 VAL166  LYS551  ARG553  GLY616  TRP617  ASP618  TYR619  PRO620  LYS621  CYS622 
 ASP623  PHE694  ASN695  SER759  ASP760  ASP761  ALA762  ILE779  LEU786  VAL792 
 PHE793  MET794  SER795  GLU796  ALA797  LYS798  CYS799  TRP800  GLU811  SER814 

> <Gold.Protein.RotatedAtoms>
  151.2017  135.0445  159.8874 H   0  0  0  0  0  0  0  0  0  0  0  0  # atno 6907 bound_to 6896
  152.5432  134.0843  159.8259 H   0  0  0  0  0  0  0  0  0  0  0  0  # atno 6908 bound_to 6896
  151.0984  133.5214  159.2643 H   0  0  0  0  0  0  0  0  0  0  0  0  # atno 6909 bound_to 6896
  146.2162  139.8365  142.8649 H   0  0  0  0  0  0  0  0  0  0  0  0  # atno 7974 bound_to 7965
  155.3486  140.0476  157.3046 H   0  0  0  0  0  0  0  0  0  0  0  0  # atno 8008 bound_to 7997
  154.5239  140.2234  155.8889 H   0  0  0  0  0  0  0  0  0  0  0  0  # atno 8009 bound_to 7997
  156.1719  140.3094  155.8995 H   0  0  0  0  0  0  0  0  0  0  0  0  # atno 8010 bound_to 7997
  139.7855  144.6872  150.9963 H   0  0  0  0  0  0  0  0  0  0  0  0  # atno 10167 bound_to 10162
  157.6842  131.0712  150.5176 H   0  0  0  0  0  0  0  0  0  0  0  0  # atno 10718 bound_to 10713
  153.0741  135.6598  154.0184 H   0  0  0  0  0  0  0  0  0  0  0  0  # atno 10763 bound_to 10752
  153.9822  135.2954  155.3420 H   0  0  0  0  0  0  0  0  0  0  0  0  # atno 10764 bound_to 10752
  154.7124  135.5199  153.8757 H   0  0  0  0  0  0  0  0  0  0  0  0  # atno 10765 bound_to 10752
  141.0543  133.6731  156.3075 H   0  0  0  0  0  0  0  0  0  0  0  0  # atno 11005 bound_to 11000
  145.2943  141.0176  143.3645 LP  0  0  0  0  0  0  0  0  0  0  0  0  # atno 17320 bound_to 7965
  144.9054  139.4596  143.6612 LP  0  0  0  0  0  0  0  0  0  0  0  0  # atno 17321 bound_to 7965
  140.7819  143.4437  151.0514 LP  0  0  0  0  0  0  0  0  0  0  0  0  # atno 17342 bound_to 10162
  139.8115  143.7944  152.3171 LP  0  0  0  0  0  0  0  0  0  0  0  0  # atno 17343 bound_to 10162
  156.5490  130.4227  149.6117 LP  0  0  0  0  0  0  0  0  0  0  0  0  # atno 17370 bound_to 10713
  156.2919  130.7129  151.1979 LP  0  0  0  0  0  0  0  0  0  0  0  0  # atno 17371 bound_to 10713
  140.5994  134.5570  157.5515 LP  0  0  0  0  0  0  0  0  0  0  0  0  # atno 17394 bound_to 11000
  139.9377  134.7845  156.0760 LP  0  0  0  0  0  0  0  0  0  0  0  0  # atno 17395 bound_to 11000

$$$$
