AV-unprocessed.smi:2712|AV-procd|sdf|10477|dock4
  -GOLD-   2272014513D 1   1.00000     0.00000
 Structure written by MMmdl.
 52 53  0  0  0  0  0  0  0  0  1 V2000
  153.9238  136.3566  163.9974 C   0  0  0  0  0  0  0  0  0  0  0  0
  155.0664  137.2977  164.2388 C   0  0  0  0  0  0  0  0  0  0  0  0
  155.4368  137.7636  165.5615 C   0  0  0  0  0  0  0  0  0  0  0  0
  156.4780  138.6128  165.6962 C   0  0  0  0  0  0  0  0  0  0  0  0
  157.2458  139.0763  164.5424 C   0  0  0  0  0  0  0  0  0  0  0  0
  158.1967  139.8528  164.6316 O   0  0  0  0  0  0  0  0  0  0  0  0
  156.8105  138.5662  163.3520 N   0  0  0  0  0  0  0  0  0  0  0  0
  157.4758  138.9128  162.0877 C   0  0  0  0  0  0  0  0  0  0  0  0
  156.7283  139.9857  161.2827 C   0  0  0  0  0  0  0  0  0  0  0  0
  157.3120  140.9943  160.8832 O   0  0  0  0  0  0  0  0  0  0  0  0
  155.4307  139.7421  161.0406 N   0  0  0  0  0  0  0  0  0  0  0  0
  154.5262  140.6193  160.3001 C   0  0  1  0  0  0  0  0  0  0  0  0
  153.6695  139.7490  159.3616 C   0  0  0  0  0  0  0  0  0  0  0  0
  152.4013  140.4075  158.7951 C   0  0  0  0  0  0  0  0  0  0  0  0
  152.5333  141.8944  158.4244 C   0  0  0  0  0  0  0  0  0  0  0  0
  152.1962  142.8638  159.5928 C   0  0  2  0  0  0  0  0  0  0  0  0
  151.8120  144.3104  159.1041 C   0  0  0  0  0  0  0  0  0  0  0  0
  152.8896  144.9085  158.1735 C   0  0  0  0  0  0  0  0  0  0  0  0
  151.6173  145.2716  160.2999 C   0  0  0  0  0  0  0  0  0  0  0  0
  150.4627  144.2911  158.3469 C   0  0  0  0  0  0  0  0  0  0  0  0
  153.3094  142.8592  160.6765 C   0  0  0  0  0  0  0  0  0  0  0  0
  153.6978  141.4903  161.2675 C   0  0  0  0  0  0  0  0  0  0  0  0
  155.7393  137.6993  163.2105 N   0  0  0  0  0  0  0  0  0  0  0  0
  153.3566  136.1819  164.9120 H   0  0  0  0  0  0  0  0  0  0  0  0
  154.2858  135.3924  163.6392 H   0  0  0  0  0  0  0  0  0  0  0  0
  153.2373  136.7588  163.2518 H   0  0  0  0  0  0  0  0  0  0  0  0
  154.8799  137.4299  166.4247 H   0  0  0  0  0  0  0  0  0  0  0  0
  156.7528  138.9589  166.6817 H   0  0  0  0  0  0  0  0  0  0  0  0
  158.4862  139.2784  162.2798 H   0  0  0  0  0  0  0  0  0  0  0  0
  157.6004  138.0157  161.4778 H   0  0  0  0  0  0  0  0  0  0  0  0
  155.0356  138.8872  161.4047 H   0  0  0  0  0  0  0  0  0  0  0  0
  155.1360  141.2770  159.6777 H   0  0  0  0  0  0  0  0  0  0  0  0
  154.2995  139.4236  158.5326 H   0  0  0  0  0  0  0  0  0  0  0  0
  153.3665  138.8346  159.8743 H   0  0  0  0  0  0  0  0  0  0  0  0
  152.1075  139.8469  157.9070 H   0  0  0  0  0  0  0  0  0  0  0  0
  151.5756  140.2766  159.4952 H   0  0  0  0  0  0  0  0  0  0  0  0
  153.5217  142.1011  158.0129 H   0  0  0  0  0  0  0  0  0  0  0  0
  151.8434  142.0542  157.5999 H   0  0  0  0  0  0  0  0  0  0  0  0
  151.3024  142.4729  160.0813 H   0  0  0  0  0  0  0  0  0  0  0  0
  152.6155  145.9142  157.8526 H   0  0  0  0  0  0  0  0  0  0  0  0
  153.0249  144.3142  157.2702 H   0  0  0  0  0  0  0  0  0  0  0  0
  153.8581  144.9851  158.6669 H   0  0  0  0  0  0  0  0  0  0  0  0
  152.5563  145.4998  160.8038 H   0  0  0  0  0  0  0  0  0  0  0  0
  150.9309  144.8560  161.0383 H   0  0  0  0  0  0  0  0  0  0  0  0
  151.2071  146.2299  159.9791 H   0  0  0  0  0  0  0  0  0  0  0  0
  150.1200  145.3021  158.1234 H   0  0  0  0  0  0  0  0  0  0  0  0
  149.6813  143.8098  158.9360 H   0  0  0  0  0  0  0  0  0  0  0  0
  150.5208  143.7777  157.3887 H   0  0  0  0  0  0  0  0  0  0  0  0
  154.2074  143.3473  160.2981 H   0  0  0  0  0  0  0  0  0  0  0  0
  152.9844  143.4585  161.5251 H   0  0  0  0  0  0  0  0  0  0  0  0
  152.8179  140.9532  161.6237 H   0  0  0  0  0  0  0  0  0  0  0  0
  154.2922  141.6945  162.1594 H   0  0  0  0  0  0  0  0  0  0  0  0
  1  2  1  0  0  0  0
  1 24  1  0  0  0  0
  1 25  1  0  0  0  0
  1 26  1  0  0  0  0
  2 23  2  0  0  0  0
  2  3  1  0  0  0  0
  3  4  2  0  0  0  0
  3 27  1  0  0  0  0
  4  5  1  0  0  0  0
  4 28  1  0  0  0  0
  5  6  2  0  0  0  0
  5  7  1  0  0  0  0
  7  8  1  0  0  0  0
  7 23  1  0  0  0  0
  8  9  1  0  0  0  0
  8 29  1  0  0  0  0
  8 30  1  0  0  0  0
  9 10  2  0  0  0  0
  9 11  1  0  0  0  0
 11 12  1  0  0  0  0
 11 31  1  0  0  0  0
 12 22  1  0  0  0  0
 12 13  1  0  0  0  0
 12 32  1  0  0  0  0
 13 14  1  0  0  0  0
 13 33  1  0  0  0  0
 13 34  1  0  0  0  0
 14 15  1  0  0  0  0
 14 35  1  0  0  0  0
 14 36  1  0  0  0  0
 15 16  1  0  0  0  0
 15 37  1  0  0  0  0
 15 38  1  0  0  0  0
 16 17  1  0  0  0  0
 16 21  1  0  0  0  0
 16 39  1  0  0  0  0
 17 18  1  0  0  0  0
 17 19  1  0  0  0  0
 17 20  1  0  0  0  0
 18 40  1  0  0  0  0
 18 41  1  0  0  0  0
 18 42  1  0  0  0  0
 19 43  1  0  0  0  0
 19 44  1  0  0  0  0
 19 45  1  0  0  0  0
 20 46  1  0  0  0  0
 20 47  1  0  0  0  0
 20 48  1  0  0  0  0
 21 22  1  0  0  0  0
 21 49  1  0  0  0  0
 21 50  1  0  0  0  0
 22 51  1  0  0  0  0
 22 52  1  0  0  0  0
M  END
> <s_m_source_file>
AV-unprocessed.smi

> <i_m_source_file_index>
2712

> <i_lp_mmshare_version>
43012

> <i_f3d_flags>
0

> <s_epik_input>
W0NIM11jMVtjSF1bY0hdYyg9TyluKG4xKVtDSDJdQyg9TylbTkhdW0NAQEhdMltDSDJdW0NIMl1bQ0gyXVtDQEBIXShDKFtDSDNdKShbQ0gzXSlbQ0gzXSlbQ0gyXVtDSDJdMg==

> <s_epik_cmdline>
J2VwaWtfcHl0aG9uJywgJy1waCcsICc3LjAnLCAnLXRuJywgJzgnLCAnLW1hJywgJzIwMCcsICctbWV0YWxfYmluZGluZycsICctaW1hZScsICc8aW5maWxlLm1hZT4nLCAnLW9tYWUnLCAnPG91dGZpbGUubWFlPic=

> <r_lp_tautomer_probability>
1

> <r_epik_Ionization_Penalty>
8.71758e-07

> <r_epik_Ionization_Penalty_Charging>
8.50442e-07

> <r_epik_Ionization_Penalty_Neutral>
2.13165e-08

> <r_epik_State_Penalty>
-0

> <r_epik_Charging_Adjusted_Penalty>
8.50442e-07

> <i_epik_Tot_Q>
0

> <i_epik_Tot_abs_Q>
0

> <r_epik_Metal_State_Penalty>
-0

> <b_epik_Metal_Only>
0

> <s_lp_Force_Field>
OPLS_2005

> <r_lp_Energy>
38.5576

> <b_lp_Chiralities_Consistent>
1

> <s_lp_Variant>
AV-unprocessed.smi:2712-4

> <Gold.Version>
5.8.1

> <Gold.Id.Protein>
6NUR|6NUR_protein|mol2

> <Gold.PLP.Fitness>
44.8502

> <Gold.PLP.PLP>
-46.3533

> <Gold.PLP.part.hbond>
-1.0000

> <Gold.PLP.part.metal>
0.0000

> <Gold.PLP.part.buried>
-4.9295

> <Gold.PLP.part.nonpolar>
-39.8981

> <Gold.PLP.part.repulsive>
0.0478

> <Gold.PLP.ligand.clash>
0.0000

> <Gold.PLP.ligand.torsion>
0.7937

> <Gold.PLP.Chemscore.Hbond>
0.0000

> <Gold.PLP.Chemscore.CHOScore>
0.0000

> <Gold.PLP.Chemscore.Metal>
0.0000

> <Gold.PLP.Chemscore.Internal.Correction>
0.0844

> <Gold.Rescore>
     Score         DG    S(hbond)    S(metal)    S(lipo)     H(rot)  DE(clash)    DE(int)     intcor
     16.41     -18.04       0.00        0.00     140.48       1.52       1.04       0.59       ----

> <Gold.Chemscore.Fitness>
16.4059

> <Gold.Chemscore.DG>
-18.0352

> <Gold.Chemscore.ZeroCoef>
-5.4800

> <Gold.Chemscore.Hbond>
0.0000

> <Gold.Chemscore.Metal>
0.0000

> <Gold.Chemscore.Lipo>
140.4839

> <Gold.Chemscore.Internal_Hbond>
0.0000

> <Gold.Chemscore.DEClash>
1.0383

> <Gold.Chemscore.DEInternal>
0.5910

> <Gold.Chemscore.Rot>
1.5162

> <Gold.Chemscore.Internal.Correction>
   9.000000E+99

> <Gold.Chemscore.Hbond.Weighted>
-0.0000

> <Gold.Chemscore.Metal.Weighted>
-0.0000

> <Gold.Chemscore.Lipo.Weighted>
-16.4366

> <Gold.Chemscore.Internal_Hbond.Weighted>
0.0000

> <Gold.Chemscore.DEClash.Weighted>
1.0383

> <Gold.Chemscore.DEInternal.Weighted>
0.5910

> <Gold.Chemscore.Rot.Weighted>
3.8814

> <Gold.Chemscore.Internal.Correction.Weighted>
   9.000000E+99

> <Gold.Protein.RotatedTorsions>
[ 6907 6896 6895 6894 ] final   -5.64 input  -60.11 | X-H torsion
[ 7974 7965 7964 7962 ] final   71.46 input  175.53 | X-H torsion
[ 8008 7997 7996 7995 ] final  127.39 input   59.86 | X-H torsion
[ 10167 10162 10161 10158 ] final  -43.37 input  -65.29 | X-H torsion
[ 10718 10713 10712 10709 ] final   98.74 input   66.30 | X-H torsion
[ 10763 10752 10751 10750 ] final -145.64 input  -60.55 | X-H torsion
[ 11005 11000 10999 10996 ] final   25.38 input  -57.11 | X-H torsion

> <Gold.Protein.ActiveResidues>
 VAL166  LYS551  ARG553  GLY616  TRP617  ASP618  TYR619  PRO620  LYS621  CYS622 
 ASP623  PHE694  ASN695  SER759  ASP760  ASP761  ALA762  ILE779  LEU786  VAL792 
 PHE793  MET794  SER795  GLU796  ALA797  LYS798  CYS799  TRP800  GLU811  SER814 

> <Gold.Protein.RotatedAtoms>
  151.4784  135.1050  159.9770 H   0  0  0  0  0  0  0  0  0  0  0  0  # atno 6907 bound_to 6896
  152.4789  133.8201  159.7059 H   0  0  0  0  0  0  0  0  0  0  0  0  # atno 6908 bound_to 6896
  150.8846  133.7264  159.2948 H   0  0  0  0  0  0  0  0  0  0  0  0  # atno 6909 bound_to 6896
  145.7656  139.2820  143.1351 H   0  0  0  0  0  0  0  0  0  0  0  0  # atno 7974 bound_to 7965
  156.2889  140.2670  156.2265 H   0  0  0  0  0  0  0  0  0  0  0  0  # atno 8008 bound_to 7997
  155.0115  140.0387  157.2419 H   0  0  0  0  0  0  0  0  0  0  0  0  # atno 8009 bound_to 7997
  154.7514  140.2743  155.6295 H   0  0  0  0  0  0  0  0  0  0  0  0  # atno 8010 bound_to 7997
  140.6936  143.2987  151.3342 H   0  0  0  0  0  0  0  0  0  0  0  0  # atno 10167 bound_to 10162
  157.6890  131.0649  150.4843 H   0  0  0  0  0  0  0  0  0  0  0  0  # atno 10718 bound_to 10713
  154.8374  135.3408  154.6536 H   0  0  0  0  0  0  0  0  0  0  0  0  # atno 10763 bound_to 10752
  153.7150  135.6961  153.5032 H   0  0  0  0  0  0  0  0  0  0  0  0  # atno 10764 bound_to 10752
  153.2423  135.4380  155.0665 H   0  0  0  0  0  0  0  0  0  0  0  0  # atno 10765 bound_to 10752
  140.3485  134.2255  155.7682 H   0  0  0  0  0  0  0  0  0  0  0  0  # atno 11005 bound_to 11000
  146.0221  140.8338  142.9918 LP  0  0  0  0  0  0  0  0  0  0  0  0  # atno 17320 bound_to 7965
  144.6822  140.2644  143.7314 LP  0  0  0  0  0  0  0  0  0  0  0  0  # atno 17321 bound_to 7965
  139.6366  144.0619  152.2521 LP  0  0  0  0  0  0  0  0  0  0  0  0  # atno 17342 bound_to 10162
  140.0111  144.6223  150.7647 LP  0  0  0  0  0  0  0  0  0  0  0  0  # atno 17343 bound_to 10162
  156.5173  130.4153  149.6269 LP  0  0  0  0  0  0  0  0  0  0  0  0  # atno 17370 bound_to 10713
  156.3186  130.7268  151.2176 LP  0  0  0  0  0  0  0  0  0  0  0  0  # atno 17371 bound_to 10713
  141.2019  133.7952  157.0419 LP  0  0  0  0  0  0  0  0  0  0  0  0  # atno 17394 bound_to 11000
  140.0722  134.9695  157.1487 LP  0  0  0  0  0  0  0  0  0  0  0  0  # atno 17395 bound_to 11000

$$$$
