AV-unprocessed.smi:765|AV-procd|sdf|3646|dock4
  -GOLD-   22720 1 53D 1   1.00000     0.00000
 Structure written by MMmdl.
 39 40  0  0  0  0  0  0  0  0  1 V2000
  151.7522  141.2469  158.9638 C   0  0  0  0  0  0  0  0  0  0  0  0
  151.2247  140.1876  157.9857 C   0  0  1  0  0  0  0  0  0  0  0  0
  151.2511  140.7011  156.5346 C   0  0  0  0  0  0  0  0  0  0  0  0
  150.7547  139.6363  155.5462 C   0  0  0  0  0  0  0  0  0  0  0  0
  151.5636  138.3352  155.6865 C   0  0  0  0  0  0  0  0  0  0  0  0
  151.5330  137.7725  157.1293 C   0  0  2  0  0  0  0  0  0  0  0  0
  152.4405  136.6143  157.2354 C   0  0  0  0  0  0  0  0  0  0  0  0
  153.1511  135.7050  157.3193 N   0  0  0  0  0  0  0  0  0  0  0  0
  150.1689  137.3947  157.5083 N   0  0  0  0  0  0  0  0  0  0  0  0
  149.7442  136.9683  158.7093 C   0  0  0  0  0  0  0  0  0  0  0  0
  150.4636  136.9272  159.7075 O   0  0  0  0  0  0  0  0  0  0  0  0
  148.2862  136.4875  158.7643 C   0  0  2  0  0  0  0  0  0  0  0  0
  147.2773  137.5530  158.2955 C   0  0  0  0  0  0  0  0  0  0  0  0
  147.9729  136.0217  160.1098 N   0  0  0  0  0  0  0  0  0  0  0  0
  147.7791  134.7281  160.5552 C   0  0  0  0  0  0  0  0  0  0  0  0
  147.4745  134.7938  161.8843 C   0  0  0  0  0  0  0  0  0  0  0  0
  147.5048  136.1873  162.1685 C   0  0  0  0  0  0  0  0  0  0  0  0
  147.7993  136.9187  161.1058 N   0  0  0  0  0  0  0  0  0  0  0  0
  152.0178  138.8675  158.1066 C   0  0  0  0  0  0  0  0  0  0  0  0
  152.7937  141.4952  158.7564 H   0  0  0  0  0  0  0  0  0  0  0  0
  151.6933  140.8941  159.9938 H   0  0  0  0  0  0  0  0  0  0  0  0
  151.1715  142.1672  158.8976 H   0  0  0  0  0  0  0  0  0  0  0  0
  150.1854  139.9915  158.2529 H   0  0  0  0  0  0  0  0  0  0  0  0
  150.6355  141.5970  156.4443 H   0  0  0  0  0  0  0  0  0  0  0  0
  152.2663  140.9971  156.2670 H   0  0  0  0  0  0  0  0  0  0  0  0
  149.6958  139.4391  155.7172 H   0  0  0  0  0  0  0  0  0  0  0  0
  150.8340  140.0132  154.5263 H   0  0  0  0  0  0  0  0  0  0  0  0
  151.1976  137.5960  154.9735 H   0  0  0  0  0  0  0  0  0  0  0  0
  152.5979  138.5315  155.4007 H   0  0  0  0  0  0  0  0  0  0  0  0
  149.4906  137.3943  156.7602 H   0  0  0  0  0  0  0  0  0  0  0  0
  148.2044  135.6383  158.0830 H   0  0  0  0  0  0  0  0  0  0  0  0
  147.4845  137.8696  157.2726 H   0  0  0  0  0  0  0  0  0  0  0  0
  147.2983  138.4401  158.9296 H   0  0  0  0  0  0  0  0  0  0  0  0
  146.2609  137.1588  158.3145 H   0  0  0  0  0  0  0  0  0  0  0  0
  147.8670  133.8786  159.8938 H   0  0  0  0  0  0  0  0  0  0  0  0
  147.2604  133.9719  162.5511 H   0  0  0  0  0  0  0  0  0  0  0  0
  147.3196  136.6859  163.1085 H   0  0  0  0  0  0  0  0  0  0  0  0
  153.0737  139.0695  157.9200 H   0  0  0  0  0  0  0  0  0  0  0  0
  151.9614  138.4966  159.1312 H   0  0  0  0  0  0  0  0  0  0  0  0
  1  2  1  0  0  0  0
  1 20  1  0  0  0  0
  1 21  1  0  0  0  0
  1 22  1  0  0  0  0
  2 19  1  0  0  0  0
  2  3  1  0  0  0  0
  2 23  1  0  0  0  0
  3  4  1  0  0  0  0
  3 24  1  0  0  0  0
  3 25  1  0  0  0  0
  4  5  1  0  0  0  0
  4 26  1  0  0  0  0
  4 27  1  0  0  0  0
  5  6  1  0  0  0  0
  5 28  1  0  0  0  0
  5 29  1  0  0  0  0
  6  7  1  0  0  0  0
  6  9  1  0  0  0  0
  6 19  1  0  0  0  0
  7  8  3  0  0  0  0
  9 10  1  0  0  0  0
  9 30  1  0  0  0  0
 10 11  2  0  0  0  0
 10 12  1  0  0  0  0
 12 13  1  0  0  0  0
 12 14  1  0  0  0  0
 12 31  1  0  0  0  0
 13 32  1  0  0  0  0
 13 33  1  0  0  0  0
 13 34  1  0  0  0  0
 14 18  1  0  0  0  0
 14 15  1  0  0  0  0
 15 16  2  0  0  0  0
 15 35  1  0  0  0  0
 16 17  1  0  0  0  0
 16 36  1  0  0  0  0
 17 18  2  0  0  0  0
 17 37  1  0  0  0  0
 19 38  1  0  0  0  0
 19 39  1  0  0  0  0
M  END
> <s_m_source_file>
AV-unprocessed.smi

> <i_m_source_file_index>
765

> <i_lp_mmshare_version>
43012

> <i_f3d_flags>
0

> <s_epik_input>
W0NIM11bQ0BASF0oW0NIMl0xKVtDSDJdW0NIMl1bQ0gyXVtDQEBdMShDI04pW05IXUMoPU8pW0NASF0oW0NIM10pbjJbY0hdW2NIXVtjSF1uMg==

> <s_epik_cmdline>
J2VwaWtfcHl0aG9uJywgJy1waCcsICc3LjAnLCAnLXRuJywgJzgnLCAnLW1hJywgJzIwMCcsICctbWV0YWxfYmluZGluZycsICctaW1hZScsICc8aW5maWxlLm1hZT4nLCAnLW9tYWUnLCAnPG91dGZpbGUubWFlPic=

> <r_lp_tautomer_probability>
1

> <r_epik_Ionization_Penalty>
2.71142e-05

> <r_epik_Ionization_Penalty_Charging>
0

> <r_epik_Ionization_Penalty_Neutral>
2.71142e-05

> <r_epik_State_Penalty>
-0

> <r_epik_Charging_Adjusted_Penalty>
0

> <i_epik_Tot_Q>
0

> <i_epik_Tot_abs_Q>
0

> <r_epik_Metal_State_Penalty>
-0

> <b_epik_Metal_Only>
0

> <s_lp_Force_Field>
OPLS_2005

> <r_lp_Energy>
10.6921

> <b_lp_Chiralities_Consistent>
1

> <s_lp_Variant>
AV-unprocessed.smi:765-4

> <Gold.Version>
5.8.1

> <Gold.Id.Protein>
6NUR|6NUR_protein|mol2

> <Gold.PLP.Fitness>
41.8679

> <Gold.PLP.PLP>
-30.9813

> <Gold.PLP.part.hbond>
-4.1027

> <Gold.PLP.part.metal>
0.0000

> <Gold.PLP.part.buried>
-4.6927

> <Gold.PLP.part.nonpolar>
-22.8553

> <Gold.PLP.part.repulsive>
0.0435

> <Gold.PLP.ligand.clash>
0.0000

> <Gold.PLP.ligand.torsion>
0.2442

> <Gold.PLP.Chemscore.Hbond>
3.7680

> <Gold.PLP.Chemscore.CHOScore>
0.0000

> <Gold.PLP.Chemscore.Metal>
0.0000

> <Gold.Chemscore.Hbonds>
donor molecule, donor type, donor heavy atom, donor atom, acceptor molecule, acceptor atom, score
      P1  H  6896  6909       L1    11  1.00
      P1  H  6931  6943       L1    18  1.00
      P1  H  6934  6947       L1    18  0.51
      P1  H 10752 10764       L1     8  0.99

> <Gold.PLP.Chemscore.Internal.Correction>
0.0710

> <Gold.Rescore>
     Score         DG    S(hbond)    S(metal)    S(lipo)     H(rot)  DE(clash)    DE(int)     intcor
     18.62     -20.36       3.13        0.00      68.80       1.42       0.07       1.67       ----

> <Gold.Chemscore.Fitness>
18.6238

> <Gold.Chemscore.DG>
-20.3609

> <Gold.Chemscore.ZeroCoef>
-5.4800

> <Gold.Chemscore.Hbond>
3.1325

> <Gold.Chemscore.Metal>
0.0000

> <Gold.Chemscore.Lipo>
68.7979

> <Gold.Chemscore.Internal_Hbond>
0.0000

> <Gold.Chemscore.DEClash>
0.0650

> <Gold.Chemscore.DEInternal>
1.6721

> <Gold.Chemscore.Rot>
1.4183

> <Gold.Chemscore.Internal.Correction>
   9.000000E+99

> <Gold.Chemscore.Hbonds>
donor molecule, donor type, donor heavy atom, donor atom, acceptor molecule, acceptor atom, score
      P1  H  6896  6909       L1    11  0.81
      P1  H  6931  6943       L1    18  0.28
      P1  H  6934  6947       L1    18  0.49
      P1  H 10752 10764       L1     8  0.41

> <Gold.Chemscore.Hbond.Weighted>
-10.4625

> <Gold.Chemscore.Metal.Weighted>
-0.0000

> <Gold.Chemscore.Lipo.Weighted>
-8.0494

> <Gold.Chemscore.Internal_Hbond.Weighted>
0.0000

> <Gold.Chemscore.DEClash.Weighted>
0.0650

> <Gold.Chemscore.DEInternal.Weighted>
1.6721

> <Gold.Chemscore.Rot.Weighted>
3.6309

> <Gold.Chemscore.Internal.Correction.Weighted>
   9.000000E+99

> <Gold.Protein.RotatedTorsions>
[ 6907 6896 6895 6894 ] final  109.99 input  -60.11 | X-H torsion
[ 7974 7965 7964 7962 ] final  -85.85 input  175.53 | X-H torsion
[ 8008 7997 7996 7995 ] final   99.12 input   59.86 | X-H torsion
[ 10167 10162 10161 10158 ] final   84.02 input  -65.29 | X-H torsion
[ 10718 10713 10712 10709 ] final   49.94 input   66.30 | X-H torsion
[ 10763 10752 10751 10750 ] final    8.23 input  -60.55 | X-H torsion
[ 11005 11000 10999 10996 ] final   18.47 input  -57.11 | X-H torsion

> <Gold.Protein.ActiveResidues>
 VAL166  LYS551  ARG553  GLY616  TRP617  ASP618  TYR619  PRO620  LYS621  CYS622 
 ASP623  PHE694  ASN695  SER759  ASP760  ASP761  ALA762  ILE779  LEU786  VAL792 
 PHE793  MET794  SER795  GLU796  ALA797  LYS798  CYS799  TRP800  GLU811  SER814 

> <Gold.Protein.RotatedAtoms>
  152.5041  133.8864  159.7371 H   0  0  0  0  0  0  0  0  0  0  0  0  # atno 6907 bound_to 6896
  150.9314  133.6754  159.2817 H   0  0  0  0  0  0  0  0  0  0  0  0  # atno 6908 bound_to 6896
  151.4097  135.0988  159.9634 H   0  0  0  0  0  0  0  0  0  0  0  0  # atno 6909 bound_to 6896
  145.4877  140.9554  143.1829 H   0  0  0  0  0  0  0  0  0  0  0  0  # atno 7974 bound_to 7965
  156.1073  140.3233  155.8023 H   0  0  0  0  0  0  0  0  0  0  0  0  # atno 8008 bound_to 7997
  155.4734  140.0548  157.2994 H   0  0  0  0  0  0  0  0  0  0  0  0  # atno 8009 bound_to 7997
  154.4736  140.2022  155.9948 H   0  0  0  0  0  0  0  0  0  0  0  0  # atno 8010 bound_to 7997
  139.9123  144.6264  150.8524 H   0  0  0  0  0  0  0  0  0  0  0  0  # atno 10167 bound_to 10162
  157.4836  130.8331  149.8121 H   0  0  0  0  0  0  0  0  0  0  0  0  # atno 10718 bound_to 10713
  153.2273  135.6888  153.7930 H   0  0  0  0  0  0  0  0  0  0  0  0  # atno 10763 bound_to 10752
  153.7107  135.3283  155.3246 H   0  0  0  0  0  0  0  0  0  0  0  0  # atno 10764 bound_to 10752
  154.8298  135.4590  154.1145 H   0  0  0  0  0  0  0  0  0  0  0  0  # atno 10765 bound_to 10752
  140.4245  134.1484  155.7675 H   0  0  0  0  0  0  0  0  0  0  0  0  # atno 11005 bound_to 11000
  144.7852  139.6442  143.7137 LP  0  0  0  0  0  0  0  0  0  0  0  0  # atno 17320 bound_to 7965
  146.2303  139.5801  142.9560 LP  0  0  0  0  0  0  0  0  0  0  0  0  # atno 17321 bound_to 7965
  140.7682  143.3356  151.2315 LP  0  0  0  0  0  0  0  0  0  0  0  0  # atno 17342 bound_to 10162
  139.6932  143.9657  152.2869 LP  0  0  0  0  0  0  0  0  0  0  0  0  # atno 17343 bound_to 10162
  156.0134  130.3823  150.2188 LP  0  0  0  0  0  0  0  0  0  0  0  0  # atno 17370 bound_to 10713
  157.0375  131.0025  151.3294 LP  0  0  0  0  0  0  0  0  0  0  0  0  # atno 17371 bound_to 10713
  141.1771  133.8492  157.1385 LP  0  0  0  0  0  0  0  0  0  0  0  0  # atno 17394 bound_to 11000
  140.0177  134.9960  157.0528 LP  0  0  0  0  0  0  0  0  0  0  0  0  # atno 17395 bound_to 11000

$$$$
