AV-unprocessed.smi:1223|AV-procd|sdf|5127|dock2
  -GOLD-   22720 4183D 1   1.00000     0.00000
 Structure written by MMmdl.
 33 34  0  0  0  0  0  0  0  0  1 V2000
  151.2556  141.2862  157.5855 O   0  0  0  0  0  0  0  0  0  0  0  0
  150.9004  142.3254  157.0298 C   0  0  0  0  0  0  0  0  0  0  0  0
  151.5231  143.6622  157.4363 C   0  0  0  0  0  0  0  0  0  0  0  0
  151.7850  143.7092  158.8643 N   0  0  0  0  0  0  0  0  0  0  0  0
  152.5100  142.8211  159.6317 C   0  0  0  0  0  0  0  0  0  0  0  0
  152.4934  143.2857  160.9156 C   0  0  0  0  0  0  0  0  0  0  0  0
  151.7229  144.4791  160.8334 C   0  0  0  0  0  0  0  0  0  0  0  0
  151.2985  144.7291  159.6053 N   0  0  0  0  0  0  0  0  0  0  0  0
  149.9697  142.3686  156.0630 N   0  0  0  0  0  0  0  0  0  0  0  0
  149.2700  141.2186  155.4903 C   0  0  1  0  0  0  0  0  0  0  0  0
  148.3015  141.6849  154.3806 C   0  0  0  0  0  0  0  0  0  0  0  0
  147.1582  140.6981  154.0936 C   0  0  0  0  0  0  0  0  0  0  0  0
  147.6073  139.3279  153.5646 C   0  0  0  0  0  0  0  0  0  0  0  0
  148.4227  138.5108  154.5816 C   0  0  0  0  0  0  0  0  0  0  0  0
  149.8138  138.9387  154.6570 N   0  0  0  0  0  0  0  0  0  0  0  0
  150.2740  140.1379  155.0447 C   0  0  0  0  0  0  0  0  0  0  0  0
  151.4821  140.3739  155.0392 O   0  0  0  0  0  0  0  0  0  0  0  0
  152.4521  143.8202  156.8863 H   0  0  0  0  0  0  0  0  0  0  0  0
  150.8522  144.4824  157.1772 H   0  0  0  0  0  0  0  0  0  0  0  0
  152.9746  141.9451  159.2032 H   0  0  0  0  0  0  0  0  0  0  0  0
  152.9620  142.8416  161.7811 H   0  0  0  0  0  0  0  0  0  0  0  0
  151.4610  145.1668  161.6240 H   0  0  0  0  0  0  0  0  0  0  0  0
  149.7505  143.2700  155.6627 H   0  0  0  0  0  0  0  0  0  0  0  0
  148.6829  140.7733  156.2957 H   0  0  0  0  0  0  0  0  0  0  0  0
  147.8450  142.6325  154.6697 H   0  0  0  0  0  0  0  0  0  0  0  0
  148.8546  141.8939  153.4636 H   0  0  0  0  0  0  0  0  0  0  0  0
  146.5607  140.5621  154.9960 H   0  0  0  0  0  0  0  0  0  0  0  0
  146.4884  141.1496  153.3610 H   0  0  0  0  0  0  0  0  0  0  0  0
  146.7136  138.7587  153.3070 H   0  0  0  0  0  0  0  0  0  0  0  0
  148.1653  139.4435  152.6345 H   0  0  0  0  0  0  0  0  0  0  0  0
  147.9614  138.5370  155.5697 H   0  0  0  0  0  0  0  0  0  0  0  0
  148.4286  137.4645  154.2752 H   0  0  0  0  0  0  0  0  0  0  0  0
  150.5025  138.2562  154.3747 H   0  0  0  0  0  0  0  0  0  0  0  0
  1  2  2  0  0  0  0
  2  3  1  0  0  0  0
  2  9  1  0  0  0  0
  3  4  1  0  0  0  0
  3 18  1  0  0  0  0
  3 19  1  0  0  0  0
  4  8  1  0  0  0  0
  4  5  1  0  0  0  0
  5  6  2  0  0  0  0
  5 20  1  0  0  0  0
  6  7  1  0  0  0  0
  6 21  1  0  0  0  0
  7  8  2  0  0  0  0
  7 22  1  0  0  0  0
  9 10  1  0  0  0  0
  9 23  1  0  0  0  0
 10 16  1  0  0  0  0
 10 11  1  0  0  0  0
 10 24  1  0  0  0  0
 11 12  1  0  0  0  0
 11 25  1  0  0  0  0
 11 26  1  0  0  0  0
 12 13  1  0  0  0  0
 12 27  1  0  0  0  0
 12 28  1  0  0  0  0
 13 14  1  0  0  0  0
 13 29  1  0  0  0  0
 13 30  1  0  0  0  0
 14 15  1  0  0  0  0
 14 31  1  0  0  0  0
 14 32  1  0  0  0  0
 15 16  1  0  0  0  0
 15 33  1  0  0  0  0
 16 17  2  0  0  0  0
M  END
> <s_m_source_file>
AV-unprocessed.smi

> <i_m_source_file_index>
1223

> <i_lp_mmshare_version>
43012

> <i_f3d_flags>
0

> <s_epik_input>
bjFbY0hdW2NIXVtjSF1uMVtDSDJdQyg9TylbTkhdW0NAQEhdMltDSDJdW0NIMl1bQ0gyXVtDSDJdW05IXUMyPU8=

> <s_epik_cmdline>
J2VwaWtfcHl0aG9uJywgJy1waCcsICc3LjAnLCAnLXRuJywgJzgnLCAnLW1hJywgJzIwMCcsICctbWV0YWxfYmluZGluZycsICctaW1hZScsICc8aW5maWxlLm1hZT4nLCAnLW9tYWUnLCAnPG91dGZpbGUubWFlPic=

> <r_lp_tautomer_probability>
1

> <r_epik_Ionization_Penalty>
1.16214e-05

> <r_epik_Ionization_Penalty_Charging>
0

> <r_epik_Ionization_Penalty_Neutral>
1.16214e-05

> <r_epik_State_Penalty>
-0

> <r_epik_Charging_Adjusted_Penalty>
0

> <i_epik_Tot_Q>
0

> <i_epik_Tot_abs_Q>
0

> <r_epik_Metal_State_Penalty>
-0

> <b_epik_Metal_Only>
0

> <s_lp_Force_Field>
OPLS_2005

> <r_lp_Energy>
10.4026

> <b_lp_Chiralities_Consistent>
1

> <s_lp_Variant>
AV-unprocessed.smi:1223-2

> <Gold.Version>
5.8.1

> <Gold.Id.Protein>
6NUR|6NUR_protein|mol2

> <Gold.PLP.Fitness>
41.8036

> <Gold.PLP.PLP>
-36.6115

> <Gold.PLP.part.hbond>
-1.9724

> <Gold.PLP.part.metal>
0.0000

> <Gold.PLP.part.buried>
-4.7303

> <Gold.PLP.part.nonpolar>
-29.9377

> <Gold.PLP.part.repulsive>
0.3273

> <Gold.PLP.ligand.clash>
0.0000

> <Gold.PLP.ligand.torsion>
0.4066

> <Gold.PLP.Chemscore.Hbond>
1.9920

> <Gold.PLP.Chemscore.CHOScore>
0.0000

> <Gold.PLP.Chemscore.Metal>
0.0000

> <Gold.Chemscore.Hbonds>
donor molecule, donor type, donor heavy atom, donor atom, acceptor molecule, acceptor atom, score
      L1  H     9    23       P1  8028  1.00
      P1  H  7989  7998       L1    17  0.96

> <Gold.PLP.Chemscore.Internal.Correction>
0.0294

> <Gold.Rescore>
     Score         DG    S(hbond)    S(metal)    S(lipo)     H(rot)  DE(clash)    DE(int)     intcor
     14.74     -15.42       1.85        0.00      66.67       1.58       0.05       0.62       ----

> <Gold.Chemscore.Fitness>
14.7398

> <Gold.Chemscore.DG>
-15.4154

> <Gold.Chemscore.ZeroCoef>
-5.4800

> <Gold.Chemscore.Hbond>
1.8495

> <Gold.Chemscore.Metal>
0.0000

> <Gold.Chemscore.Lipo>
66.6737

> <Gold.Chemscore.Internal_Hbond>
0.0000

> <Gold.Chemscore.DEClash>
0.0536

> <Gold.Chemscore.DEInternal>
0.6220

> <Gold.Chemscore.Rot>
1.5792

> <Gold.Chemscore.Internal.Correction>
   9.000000E+99

> <Gold.Chemscore.Hbonds>
donor molecule, donor type, donor heavy atom, donor atom, acceptor molecule, acceptor atom, score
      L1  H     9    23       P1  8028  0.96
      P1  H  7989  7998       L1    17  0.23

> <Gold.Chemscore.Hbond.Weighted>
-6.1774

> <Gold.Chemscore.Metal.Weighted>
-0.0000

> <Gold.Chemscore.Lipo.Weighted>
-7.8008

> <Gold.Chemscore.Internal_Hbond.Weighted>
0.0000

> <Gold.Chemscore.DEClash.Weighted>
0.0536

> <Gold.Chemscore.DEInternal.Weighted>
0.6220

> <Gold.Chemscore.Rot.Weighted>
4.0428

> <Gold.Chemscore.Internal.Correction.Weighted>
   9.000000E+99

> <Gold.Protein.RotatedTorsions>
[ 6907 6896 6895 6894 ] final -160.33 input  -60.11 | X-H torsion
[ 7974 7965 7964 7962 ] final  179.89 input  175.53 | X-H torsion
[ 8008 7997 7996 7995 ] final -108.28 input   59.86 | X-H torsion
[ 10167 10162 10161 10158 ] final -127.49 input  -65.29 | X-H torsion
[ 10718 10713 10712 10709 ] final   14.81 input   66.30 | X-H torsion
[ 10763 10752 10751 10750 ] final  -47.32 input  -60.55 | X-H torsion
[ 11005 11000 10999 10996 ] final  -58.98 input  -57.11 | X-H torsion

> <Gold.Protein.ActiveResidues>
 VAL166  LYS551  ARG553  GLY616  TRP617  ASP618  TYR619  PRO620  LYS621  CYS622 
 ASP623  PHE694  ASN695  SER759  ASP760  ASP761  ALA762  ILE779  LEU786  VAL792 
 PHE793  MET794  SER795  GLU796  ALA797  LYS798  CYS799  TRP800  GLU811  SER814 

> <Gold.Protein.RotatedAtoms>
  151.3474  133.3938  159.2676 H   0  0  0  0  0  0  0  0  0  0  0  0  # atno 6907 bound_to 6896
  150.9828  134.9181  159.7865 H   0  0  0  0  0  0  0  0  0  0  0  0  # atno 6908 bound_to 6896
  152.5223  134.3438  159.9279 H   0  0  0  0  0  0  0  0  0  0  0  0  # atno 6909 bound_to 6896
  144.7142  140.0616  143.6432 H   0  0  0  0  0  0  0  0  0  0  0  0  # atno 7974 bound_to 7965
  154.9420  140.0402  157.2101 H   0  0  0  0  0  0  0  0  0  0  0  0  # atno 8008 bound_to 7997
  154.8060  140.2860  155.5865 H   0  0  0  0  0  0  0  0  0  0  0  0  # atno 8009 bound_to 7997
  156.2966  140.2546  156.2938 H   0  0  0  0  0  0  0  0  0  0  0  0  # atno 8010 bound_to 7997
  139.9603  143.5957  152.2447 H   0  0  0  0  0  0  0  0  0  0  0  0  # atno 10167 bound_to 10162
  157.0444  130.6244  149.5756 H   0  0  0  0  0  0  0  0  0  0  0  0  # atno 10718 bound_to 10713
  154.0595  135.6620  153.4810 H   0  0  0  0  0  0  0  0  0  0  0  0  # atno 10763 bound_to 10752
  153.0432  135.5131  154.7673 H   0  0  0  0  0  0  0  0  0  0  0  0  # atno 10764 bound_to 10752
  154.6705  135.3029  154.9715 H   0  0  0  0  0  0  0  0  0  0  0  0  # atno 10765 bound_to 10752
  141.1230  133.6614  156.5002 H   0  0  0  0  0  0  0  0  0  0  0  0  # atno 11005 bound_to 11000
  145.9859  139.2977  143.1014 LP  0  0  0  0  0  0  0  0  0  0  0  0  # atno 17320 bound_to 7965
  145.8958  140.9275  143.0528 LP  0  0  0  0  0  0  0  0  0  0  0  0  # atno 17321 bound_to 7965
  139.6559  144.7662  151.2056 LP  0  0  0  0  0  0  0  0  0  0  0  0  # atno 17342 bound_to 10162
  140.7555  143.6086  150.8628 LP  0  0  0  0  0  0  0  0  0  0  0  0  # atno 17343 bound_to 10162
  156.0027  130.5109  150.7722 LP  0  0  0  0  0  0  0  0  0  0  0  0  # atno 17370 bound_to 10713
  157.5079  131.0923  151.0234 LP  0  0  0  0  0  0  0  0  0  0  0  0  # atno 17371 bound_to 10713
  140.4452  134.6979  157.5012 LP  0  0  0  0  0  0  0  0  0  0  0  0  # atno 17394 bound_to 11000
  140.0203  134.6558  155.9250 LP  0  0  0  0  0  0  0  0  0  0  0  0  # atno 17395 bound_to 11000

$$$$
