AV-unprocessed.smi:424|AV-procd|sdf|2539|dock2
  -GOLD-   2262022503D 1   1.00000     0.00000
 Structure written by MMmdl.
 34 35  0  0  0  0  0  0  0  0  1 V2000
  154.2868  135.8941  163.6748 C   0  0  0  0  0  0  0  0  0  0  0  0
  154.5970  135.8095  162.1715 C   0  0  0  0  0  0  0  0  0  0  0  0
  153.9366  136.9148  161.3396 C   0  0  0  0  0  0  0  0  0  0  0  0
  153.1424  136.6293  160.4433 O   0  0  0  0  0  0  0  0  0  0  0  0
  154.3122  138.1671  161.6583 N   0  0  0  0  0  0  0  0  0  0  0  0
  153.8825  139.4013  161.0976 C   0  0  0  0  0  0  0  0  0  0  0  0
  153.0466  139.5207  159.9628 C   0  0  0  0  0  0  0  0  0  0  0  0
  152.6764  140.8051  159.5199 C   0  0  0  0  0  0  0  0  0  0  0  0
  153.1421  141.9421  160.2212 C   0  0  0  0  0  0  0  0  0  0  0  0
  152.7798  143.2385  159.7947 N   0  0  0  0  0  0  0  0  0  0  0  0
  152.0852  144.0618  160.7816 C   0  0  0  0  0  0  0  0  0  0  0  0
  152.0309  145.5270  160.3149 C   0  0  0  0  0  0  0  0  0  0  0  0
  151.4467  145.6016  159.0186 O   0  0  0  0  0  0  0  0  0  0  0  0
  152.2083  144.8842  158.0534 C   0  0  0  0  0  0  0  0  0  0  0  0
  152.2587  143.3959  158.4380 C   0  0  0  0  0  0  0  0  0  0  0  0
  153.9290  141.8226  161.3184 N   0  0  0  0  0  0  0  0  0  0  0  0
  154.2826  140.5902  161.7389 C   0  0  0  0  0  0  0  0  0  0  0  0
  154.7952  135.0971  164.2176 H   0  0  0  0  0  0  0  0  0  0  0  0
  153.2182  135.7922  163.8677 H   0  0  0  0  0  0  0  0  0  0  0  0
  154.6180  136.8433  164.0981 H   0  0  0  0  0  0  0  0  0  0  0  0
  155.6765  135.8586  162.0224 H   0  0  0  0  0  0  0  0  0  0  0  0
  154.2711  134.8427  161.7866 H   0  0  0  0  0  0  0  0  0  0  0  0
  155.0310  138.2426  162.3634 H   0  0  0  0  0  0  0  0  0  0  0  0
  152.6661  138.6614  159.4338 H   0  0  0  0  0  0  0  0  0  0  0  0
  152.0251  140.9002  158.6641 H   0  0  0  0  0  0  0  0  0  0  0  0
  151.0738  143.6747  160.9119 H   0  0  0  0  0  0  0  0  0  0  0  0
  152.5684  144.0192  161.7564 H   0  0  0  0  0  0  0  0  0  0  0  0
  151.4330  146.1190  161.0078 H   0  0  0  0  0  0  0  0  0  0  0  0
  153.0294  145.9669  160.3008 H   0  0  0  0  0  0  0  0  0  0  0  0
  151.7451  145.0037  157.0740 H   0  0  0  0  0  0  0  0  0  0  0  0
  153.2140  145.3022  157.9833 H   0  0  0  0  0  0  0  0  0  0  0  0
  152.8882  142.8608  157.7259 H   0  0  0  0  0  0  0  0  0  0  0  0
  151.2593  142.9622  158.3824 H   0  0  0  0  0  0  0  0  0  0  0  0
  154.9087  140.5553  162.6185 H   0  0  0  0  0  0  0  0  0  0  0  0
  1  2  1  0  0  0  0
  1 18  1  0  0  0  0
  1 19  1  0  0  0  0
  1 20  1  0  0  0  0
  2  3  1  0  0  0  0
  2 21  1  0  0  0  0
  2 22  1  0  0  0  0
  3  4  2  0  0  0  0
  3  5  1  0  0  0  0
  5  6  1  0  0  0  0
  5 23  1  0  0  0  0
  6 17  1  0  0  0  0
  6  7  2  0  0  0  0
  7  8  1  0  0  0  0
  7 24  1  0  0  0  0
  8  9  2  0  0  0  0
  8 25  1  0  0  0  0
  9 10  1  0  0  0  0
  9 16  1  0  0  0  0
 10 15  1  0  0  0  0
 10 11  1  0  0  0  0
 11 12  1  0  0  0  0
 11 26  1  0  0  0  0
 11 27  1  0  0  0  0
 12 13  1  0  0  0  0
 12 28  1  0  0  0  0
 12 29  1  0  0  0  0
 13 14  1  0  0  0  0
 14 15  1  0  0  0  0
 14 30  1  0  0  0  0
 14 31  1  0  0  0  0
 15 32  1  0  0  0  0
 15 33  1  0  0  0  0
 16 17  2  0  0  0  0
 17 34  1  0  0  0  0
M  END
> <s_m_source_file>
AV-unprocessed.smi

> <i_m_source_file_index>
424

> <i_lp_mmshare_version>
43012

> <i_f3d_flags>
0

> <s_epik_input>
W0NIM11bQ0gyXUMoPU8pW05IXWMxW2NIXVtjSF1jKG5bY0hdMSlOMltDSDJdW0NIMl1PW0NIMl1bQ0gyXTI=

> <s_epik_cmdline>
J2VwaWtfcHl0aG9uJywgJy1waCcsICc3LjAnLCAnLXRuJywgJzgnLCAnLW1hJywgJzIwMCcsICctbWV0YWxfYmluZGluZycsICctaW1hZScsICc8aW5maWxlLm1hZT4nLCAnLW9tYWUnLCAnPG91dGZpbGUubWFlPic=

> <r_lp_tautomer_probability>
1

> <r_epik_Ionization_Penalty>
0.000622595

> <r_epik_Ionization_Penalty_Charging>
0

> <r_epik_Ionization_Penalty_Neutral>
0.000622595

> <r_epik_State_Penalty>
0.000387388

> <r_epik_Charging_Adjusted_Penalty>
0.000387388

> <i_epik_Tot_Q>
0

> <i_epik_Tot_abs_Q>
0

> <r_epik_Metal_State_Penalty>
-0

> <b_epik_Metal_Only>
0

> <s_lp_Force_Field>
OPLS_2005

> <r_lp_Energy>
21.9993

> <b_lp_Chiralities_Consistent>
1

> <s_lp_Variant>
AV-unprocessed.smi:424-1

> <Gold.Version>
5.8.1

> <Gold.Id.Protein>
6NUR|6NUR_protein|mol2

> <Gold.PLP.Fitness>
41.0139

> <Gold.PLP.PLP>
-38.2803

> <Gold.PLP.part.hbond>
-2.0991

> <Gold.PLP.part.metal>
0.0000

> <Gold.PLP.part.buried>
-6.3019

> <Gold.PLP.part.nonpolar>
-30.4981

> <Gold.PLP.part.repulsive>
0.1368

> <Gold.PLP.ligand.clash>
0.0000

> <Gold.PLP.ligand.torsion>
0.2470

> <Gold.PLP.Chemscore.Hbond>
0.9588

> <Gold.PLP.Chemscore.CHOScore>
0.0000

> <Gold.PLP.Chemscore.Metal>
0.0000

> <Gold.Chemscore.Hbonds>
donor molecule, donor type, donor heavy atom, donor atom, acceptor molecule, acceptor atom, score
      P1  H  6896  6909       L1     4  1.00

> <Gold.PLP.Chemscore.Internal.Correction>
0.3514

> <Gold.Rescore>
     Score         DG    S(hbond)    S(metal)    S(lipo)     H(rot)  DE(clash)    DE(int)     intcor
     15.46     -16.95       1.00        0.00      95.55       1.18       0.07       1.43       ----

> <Gold.Chemscore.Fitness>
15.4628

> <Gold.Chemscore.DG>
-16.9543

> <Gold.Chemscore.ZeroCoef>
-5.4800

> <Gold.Chemscore.Hbond>
0.9966

> <Gold.Chemscore.Metal>
0.0000

> <Gold.Chemscore.Lipo>
95.5451

> <Gold.Chemscore.Internal_Hbond>
0.0000

> <Gold.Chemscore.DEClash>
0.0662

> <Gold.Chemscore.DEInternal>
1.4253

> <Gold.Chemscore.Rot>
1.1848

> <Gold.Chemscore.Internal.Correction>
   9.000000E+99

> <Gold.Chemscore.Hbonds>
donor molecule, donor type, donor heavy atom, donor atom, acceptor molecule, acceptor atom, score
      P1  H  6896  6909       L1     4  0.99

> <Gold.Chemscore.Hbond.Weighted>
-3.3286

> <Gold.Chemscore.Metal.Weighted>
-0.0000

> <Gold.Chemscore.Lipo.Weighted>
-11.1788

> <Gold.Chemscore.Internal_Hbond.Weighted>
0.0000

> <Gold.Chemscore.DEClash.Weighted>
0.0662

> <Gold.Chemscore.DEInternal.Weighted>
1.4253

> <Gold.Chemscore.Rot.Weighted>
3.0331

> <Gold.Chemscore.Internal.Correction.Weighted>
   9.000000E+99

> <Gold.Protein.RotatedTorsions>
[ 6907 6896 6895 6894 ] final  154.85 input  -60.11 | X-H torsion
[ 7974 7965 7964 7962 ] final -168.39 input  175.53 | X-H torsion
[ 8008 7997 7996 7995 ] final   77.32 input   59.86 | X-H torsion
[ 10167 10162 10161 10158 ] final    7.86 input  -65.29 | X-H torsion
[ 10718 10713 10712 10709 ] final   92.34 input   66.30 | X-H torsion
[ 10763 10752 10751 10750 ] final   58.88 input  -60.55 | X-H torsion
[ 11005 11000 10999 10996 ] final   19.04 input  -57.11 | X-H torsion

> <Gold.Protein.ActiveResidues>
 VAL166  LYS551  ARG553  GLY616  TRP617  ASP618  TYR619  PRO620  LYS621  CYS622 
 ASP623  PHE694  ASN695  SER759  ASP760  ASP761  ALA762  ILE779  LEU786  VAL792 
 PHE793  MET794  SER795  GLU796  ALA797  LYS798  CYS799  TRP800  GLU811  SER814 

> <Gold.Protein.RotatedAtoms>
  152.0526  133.4026  159.4383 H   0  0  0  0  0  0  0  0  0  0  0  0  # atno 6907 bound_to 6896
  150.6869  134.3291  159.4828 H   0  0  0  0  0  0  0  0  0  0  0  0  # atno 6908 bound_to 6896
  152.1103  134.9279  160.0617 H   0  0  0  0  0  0  0  0  0  0  0  0  # atno 6909 bound_to 6896
  144.7204  140.2378  143.6295 H   0  0  0  0  0  0  0  0  0  0  0  0  # atno 7974 bound_to 7965
  155.8399  140.3462  155.5625 H   0  0  0  0  0  0  0  0  0  0  0  0  # atno 8008 bound_to 7997
  155.8151  140.0904  157.1901 H   0  0  0  0  0  0  0  0  0  0  0  0  # atno 8009 bound_to 7997
  154.4005  140.1440  156.3421 H   0  0  0  0  0  0  0  0  0  0  0  0  # atno 8010 bound_to 7997
  140.6347  143.7913  150.7343 H   0  0  0  0  0  0  0  0  0  0  0  0  # atno 10167 bound_to 10162
  157.6959  131.0440  150.3867 H   0  0  0  0  0  0  0  0  0  0  0  0  # atno 10718 bound_to 10713
  152.9881  135.5591  154.5624 H   0  0  0  0  0  0  0  0  0  0  0  0  # atno 10763 bound_to 10752
  154.5040  135.2799  155.1399 H   0  0  0  0  0  0  0  0  0  0  0  0  # atno 10764 bound_to 10752
  154.2818  135.6343  153.5403 H   0  0  0  0  0  0  0  0  0  0  0  0  # atno 10765 bound_to 10752
  140.4181  134.1548  155.7671 H   0  0  0  0  0  0  0  0  0  0  0  0  # atno 11005 bound_to 11000
  145.8349  139.2103  143.1861 LP  0  0  0  0  0  0  0  0  0  0  0  0  # atno 17320 bound_to 7965
  146.0398  140.8176  142.9834 LP  0  0  0  0  0  0  0  0  0  0  0  0  # atno 17321 bound_to 7965
  140.1532  143.4340  152.2117 LP  0  0  0  0  0  0  0  0  0  0  0  0  # atno 17342 bound_to 10162
  139.5558  144.7372  151.4297 LP  0  0  0  0  0  0  0  0  0  0  0  0  # atno 17343 bound_to 10162
  156.4275  130.3965  149.6783 LP  0  0  0  0  0  0  0  0  0  0  0  0  # atno 17370 bound_to 10713
  156.4012  130.7675  151.2683 LP  0  0  0  0  0  0  0  0  0  0  0  0  # atno 17371 bound_to 10713
  141.1795  133.8444  157.1307 LP  0  0  0  0  0  0  0  0  0  0  0  0  # atno 17394 bound_to 11000
  140.0220  134.9941  157.0610 LP  0  0  0  0  0  0  0  0  0  0  0  0  # atno 17395 bound_to 11000

$$$$
