AV-unprocessed.smi:3143|AV-procd|sdf|11975|dock9
  -GOLD-   2272017373D 1   1.00000     0.00000
 Structure written by MMmdl.
 38 39  0  0  0  0  0  0  0  0  2 V2000
  151.6228  142.9828  157.6971 C   0  0  0  0  0  0  0  0  0  0  0  0
  151.4691  141.5059  158.0938 C   0  0  1  0  0  0  0  0  0  0  0  0
  151.4025  140.6707  156.8725 N   0  3  0  0  0  0  0  0  0  0  0  0
  150.6137  141.2494  155.7641 C   0  0  0  0  0  0  0  0  0  0  0  0
  150.0260  140.1479  154.8715 C   0  0  0  0  0  0  0  0  0  0  0  0
  148.7789  140.5652  154.2613 N   0  0  0  0  0  0  0  0  0  0  0  0
  148.1991  141.8166  154.2568 C   0  0  0  0  0  0  0  0  0  0  0  0
  147.0313  141.7195  153.5556 C   0  0  0  0  0  0  0  0  0  0  0  0
  146.9834  140.3520  153.1647 C   0  0  0  0  0  0  0  0  0  0  0  0
  148.0314  139.6639  153.5887 N   0  0  0  0  0  0  0  0  0  0  0  0
  152.6385  141.0818  159.0052 C   0  0  0  0  0  0  0  0  0  0  0  0
  153.3796  140.1711  158.6319 O   0  0  0  0  0  0  0  0  0  0  0  0
  152.8304  141.7218  160.1789 N   0  0  0  0  0  0  0  0  0  0  0  0
  152.0249  142.8222  160.7093 C   0  0  0  0  0  0  0  0  0  0  0  0
  152.7866  143.3454  161.9273 C   0  0  0  0  0  0  0  0  0  0  0  0
  153.6055  142.1510  162.3948 C   0  0  0  0  0  0  0  0  0  0  0  0
  153.9056  141.3804  161.1092 C   0  0  0  0  0  0  0  0  0  0  0  0
  151.6549  143.6316  158.5731 H   0  0  0  0  0  0  0  0  0  0  0  0
  150.7849  143.3108  157.0810 H   0  0  0  0  0  0  0  0  0  0  0  0
  152.5377  143.1519  157.1273 H   0  0  0  0  0  0  0  0  0  0  0  0
  150.5169  141.3905  158.6117 H   0  0  0  0  0  0  0  0  0  0  0  0
  152.3444  140.5305  156.5368 H   0  0  0  0  0  0  0  0  0  0  0  0
  149.8095  141.8643  156.1704 H   0  0  0  0  0  0  0  0  0  0  0  0
  151.2530  141.9059  155.1725 H   0  0  0  0  0  0  0  0  0  0  0  0
  150.7281  139.8802  154.0806 H   0  0  0  0  0  0  0  0  0  0  0  0
  149.8410  139.2428  155.4522 H   0  0  0  0  0  0  0  0  0  0  0  0
  148.6581  142.6628  154.7472 H   0  0  0  0  0  0  0  0  0  0  0  0
  146.3197  142.5058  153.3515 H   0  0  0  0  0  0  0  0  0  0  0  0
  146.2245  139.8424  152.5891 H   0  0  0  0  0  0  0  0  0  0  0  0
  151.8678  143.6157  159.9777 H   0  0  0  0  0  0  0  0  0  0  0  0
  151.0503  142.4363  161.0116 H   0  0  0  0  0  0  0  0  0  0  0  0
  153.4574  144.1500  161.6225 H   0  0  0  0  0  0  0  0  0  0  0  0
  152.1277  143.7363  162.7031 H   0  0  0  0  0  0  0  0  0  0  0  0
  154.5075  142.4405  162.9347 H   0  0  0  0  0  0  0  0  0  0  0  0
  153.0019  141.5324  163.0608 H   0  0  0  0  0  0  0  0  0  0  0  0
  153.9627  140.3070  161.2969 H   0  0  0  0  0  0  0  0  0  0  0  0
  154.8576  141.7019  160.6836 H   0  0  0  0  0  0  0  0  0  0  0  0
  151.0116  139.7731  157.1223 H   0  0  0  0  0  0  0  0  0  0  0  0
  1  2  1  0  0  0  0
  1 18  1  0  0  0  0
  1 19  1  0  0  0  0
  1 20  1  0  0  0  0
  2  3  1  0  0  0  0
  2 11  1  0  0  0  0
  2 21  1  0  0  0  0
  3  4  1  0  0  0  0
  3 22  1  0  0  0  0
  3 38  1  0  0  0  0
  4  5  1  0  0  0  0
  4 23  1  0  0  0  0
  4 24  1  0  0  0  0
  5  6  1  0  0  0  0
  5 25  1  0  0  0  0
  5 26  1  0  0  0  0
  6 10  1  0  0  0  0
  6  7  1  0  0  0  0
  7  8  2  0  0  0  0
  7 27  1  0  0  0  0
  8  9  1  0  0  0  0
  8 28  1  0  0  0  0
  9 10  2  0  0  0  0
  9 29  1  0  0  0  0
 11 12  2  0  0  0  0
 11 13  1  0  0  0  0
 13 17  1  0  0  0  0
 13 14  1  0  0  0  0
 14 15  1  0  0  0  0
 14 30  1  0  0  0  0
 14 31  1  0  0  0  0
 15 16  1  0  0  0  0
 15 32  1  0  0  0  0
 15 33  1  0  0  0  0
 16 17  1  0  0  0  0
 16 34  1  0  0  0  0
 16 35  1  0  0  0  0
 17 36  1  0  0  0  0
 17 37  1  0  0  0  0
M  CHG  1   3   1
M  END
> <s_m_source_file>
AV-unprocessed.smi

> <i_m_source_file_index>
3143

> <i_lp_mmshare_version>
43012

> <i_f3d_flags>
0

> <s_epik_input>
W0NIMl0xW0NIMl1bQ0gyXVtDSDJdTjFDKD1PKVtDQEhdKFtDSDNdKVtOSF1bQ0gyXVtDSDJdbjJbY0hdW2NIXVtjSF1uMg==

> <s_epik_cmdline>
J2VwaWtfcHl0aG9uJywgJy1waCcsICc3LjAnLCAnLXRuJywgJzgnLCAnLW1hJywgJzIwMCcsICctbWV0YWxfYmluZGluZycsICctaW1hZScsICc8aW5maWxlLm1hZT4nLCAnLW9tYWUnLCAnPG91dGZpbGUubWFlPic=

> <r_lp_tautomer_probability>
1

> <r_epik_Ionization_Penalty>
0.203171

> <r_epik_Ionization_Penalty_Charging>
0.203168

> <r_epik_Ionization_Penalty_Neutral>
2.46932e-06

> <r_epik_State_Penalty>
0.193072

> <r_epik_Charging_Adjusted_Penalty>
0.39624

> <i_epik_Tot_Q>
1

> <i_epik_Tot_abs_Q>
1

> <r_epik_Metal_State_Penalty>
0.193323

> <b_epik_Metal_Only>
0

> <s_lp_Force_Field>
OPLS_2005

> <r_lp_Energy>
30.1321

> <b_lp_Chiralities_Consistent>
1

> <s_lp_Variant>
AV-unprocessed.smi:3143-2

> <Gold.Version>
5.8.1

> <Gold.Id.Protein>
6NUR|6NUR_protein|mol2

> <Gold.PLP.Fitness>
48.2844

> <Gold.PLP.PLP>
-40.6351

> <Gold.PLP.part.hbond>
-1.0000

> <Gold.PLP.part.metal>
0.0000

> <Gold.PLP.part.buried>
-3.5326

> <Gold.PLP.part.nonpolar>
-36.9763

> <Gold.PLP.part.repulsive>
0.5953

> <Gold.PLP.ligand.clash>
0.0000

> <Gold.PLP.ligand.torsion>
0.5987

> <Gold.PLP.Chemscore.Hbond>
0.9357

> <Gold.PLP.Chemscore.CHOScore>
2.0000

> <Gold.PLP.Chemscore.Metal>
0.0000

> <Gold.Chemscore.Hbonds>
donor molecule, donor type, donor heavy atom, donor atom, acceptor molecule, acceptor atom, score
      P1  H  7997  8008       L1    12  0.98
      L1  C     7    27       P1  8028  1.00
      L1  C     9    29       P1 10175  0.73

> <Gold.PLP.Chemscore.Internal.Correction>
0.0395

> <Gold.Rescore>
     Score         DG    S(hbond)    S(metal)    S(lipo)     H(rot)  DE(clash)    DE(int)     intcor
     14.31     -14.95       0.97        0.00      93.56       1.84       0.06       0.58       ----

> <Gold.Chemscore.Fitness>
14.3118

> <Gold.Chemscore.DG>
-14.9526

> <Gold.Chemscore.ZeroCoef>
-5.4800

> <Gold.Chemscore.Hbond>
0.9693

> <Gold.Chemscore.Metal>
0.0000

> <Gold.Chemscore.Lipo>
93.5639

> <Gold.Chemscore.Internal_Hbond>
0.0000

> <Gold.Chemscore.DEClash>
0.0569

> <Gold.Chemscore.DEInternal>
0.5839

> <Gold.Chemscore.Rot>
1.8405

> <Gold.Chemscore.Internal.Correction>
   9.000000E+99

> <Gold.Chemscore.Hbonds>
donor molecule, donor type, donor heavy atom, donor atom, acceptor molecule, acceptor atom, score
      P1  H  7997  8008       L1    12  0.89

> <Gold.Chemscore.Hbond.Weighted>
-3.2373

> <Gold.Chemscore.Metal.Weighted>
-0.0000

> <Gold.Chemscore.Lipo.Weighted>
-10.9470

> <Gold.Chemscore.Internal_Hbond.Weighted>
0.0000

> <Gold.Chemscore.DEClash.Weighted>
0.0569

> <Gold.Chemscore.DEInternal.Weighted>
0.5839

> <Gold.Chemscore.Rot.Weighted>
4.7117

> <Gold.Chemscore.Internal.Correction.Weighted>
   9.000000E+99

> <Gold.Protein.RotatedTorsions>
[ 6907 6896 6895 6894 ] final   35.20 input  -60.11 | X-H torsion
[ 7974 7965 7964 7962 ] final   22.95 input  175.53 | X-H torsion
[ 8008 7997 7996 7995 ] final  -92.30 input   59.86 | X-H torsion
[ 10167 10162 10161 10158 ] final   75.84 input  -65.29 | X-H torsion
[ 10718 10713 10712 10709 ] final   73.83 input   66.30 | X-H torsion
[ 10763 10752 10751 10750 ] final -154.30 input  -60.55 | X-H torsion
[ 11005 11000 10999 10996 ] final  -29.33 input  -57.11 | X-H torsion

> <Gold.Protein.ActiveResidues>
 VAL166  LYS551  ARG553  GLY616  TRP617  ASP618  TYR619  PRO620  LYS621  CYS622 
 ASP623  PHE694  ASN695  SER759  ASP760  ASP761  ALA762  ILE779  LEU786  VAL792 
 PHE793  MET794  SER795  GLU796  ALA797  LYS798  CYS799  TRP800  GLU811  SER814 

> <Gold.Protein.RotatedAtoms>
  152.1128  134.9262  160.0565 H   0  0  0  0  0  0  0  0  0  0  0  0  # atno 6907 bound_to 6896
  152.0433  133.3982  159.4354 H   0  0  0  0  0  0  0  0  0  0  0  0  # atno 6908 bound_to 6896
  150.6844  134.3311  159.4871 H   0  0  0  0  0  0  0  0  0  0  0  0  # atno 6909 bound_to 6896
  146.2006  139.7814  142.8764 H   0  0  0  0  0  0  0  0  0  0  0  0  # atno 7974 bound_to 7965
  154.7214  140.0510  157.0643 H   0  0  0  0  0  0  0  0  0  0  0  0  # atno 8008 bound_to 7997
  155.0422  140.3170  155.4701 H   0  0  0  0  0  0  0  0  0  0  0  0  # atno 8009 bound_to 7997
  156.2817  140.2131  156.5546 H   0  0  0  0  0  0  0  0  0  0  0  0  # atno 8010 bound_to 7997
  139.9986  144.5703  150.7756 H   0  0  0  0  0  0  0  0  0  0  0  0  # atno 10167 bound_to 10162
  157.6565  130.9648  150.1125 H   0  0  0  0  0  0  0  0  0  0  0  0  # atno 10718 bound_to 10713
  154.7868  135.3193  154.7867 H   0  0  0  0  0  0  0  0  0  0  0  0  # atno 10763 bound_to 10752
  153.8566  135.6857  153.4791 H   0  0  0  0  0  0  0  0  0  0  0  0  # atno 10764 bound_to 10752
  153.1523  135.4694  154.9593 H   0  0  0  0  0  0  0  0  0  0  0  0  # atno 10765 bound_to 10752
  140.9287  133.7352  156.0905 H   0  0  0  0  0  0  0  0  0  0  0  0  # atno 11005 bound_to 11000
  145.3495  141.0304  143.3346 LP  0  0  0  0  0  0  0  0  0  0  0  0  # atno 17320 bound_to 7965
  144.8676  139.5085  143.6783 LP  0  0  0  0  0  0  0  0  0  0  0  0  # atno 17321 bound_to 7965
  140.7427  143.2836  151.3527 LP  0  0  0  0  0  0  0  0  0  0  0  0  # atno 17342 bound_to 10162
  139.6288  144.0761  152.2458 LP  0  0  0  0  0  0  0  0  0  0  0  0  # atno 17343 bound_to 10162
  156.2018  130.3661  149.8778 LP  0  0  0  0  0  0  0  0  0  0  0  0  # atno 17370 bound_to 10713
  156.6680  130.8809  151.3558 LP  0  0  0  0  0  0  0  0  0  0  0  0  # atno 17371 bound_to 10713
  140.7892  134.3637  157.5469 LP  0  0  0  0  0  0  0  0  0  0  0  0  # atno 17394 bound_to 11000
  139.8791  134.9129  156.3072 LP  0  0  0  0  0  0  0  0  0  0  0  0  # atno 17395 bound_to 11000

$$$$
