AV-unprocessed.smi:766|AV-procd|sdf|3654|dock2
  -GOLD-   22720 1 63D 1   1.00000     0.00000
 Structure written by MMmdl.
 48 50  0  0  0  0  0  0  0  0  3 V2000
  152.5434  143.8387  160.2524 C   0  0  0  0  0  0  0  0  0  0  0  0
  152.1668  142.8776  159.1375 C   0  0  0  0  0  0  0  0  0  0  0  0
  151.2883  143.3280  158.1266 C   0  0  0  0  0  0  0  0  0  0  0  0
  150.9609  142.4252  157.1219 C   0  0  0  0  0  0  0  0  0  0  0  0
  150.1349  142.5618  156.0044 N   0  3  0  0  0  0  0  0  0  0  0  0
  150.1198  141.3938  155.3043 C   0  0  0  0  0  0  0  0  0  0  0  0
  150.9269  140.5128  155.9567 N   0  0  0  0  0  0  0  0  0  0  0  0
  151.2438  139.1133  155.6337 C   0  0  0  0  0  0  0  0  0  0  0  0
  150.6383  138.6468  154.2950 C   0  0  1  0  0  0  0  0  0  0  0  0
  151.0214  137.3099  154.0376 O   0  0  0  0  0  0  0  0  0  0  0  0
  149.1024  138.7234  154.3124 C   0  0  0  0  0  0  0  0  0  0  0  0
  148.5377  138.5854  152.9555 N   0  3  0  0  0  0  0  0  0  0  0  0
  147.0982  138.9031  152.8696 C   0  0  0  0  0  0  0  0  0  0  0  0
  146.4915  138.4257  151.5381 C   0  0  0  0  0  0  0  0  0  0  0  0
  145.7647  137.1717  151.6562 N   0  0  0  0  0  0  0  0  0  0  0  0
  145.7254  136.1212  150.7628 C   0  0  0  0  0  0  0  0  0  0  0  0
  144.9383  135.1492  151.3107 C   0  0  0  0  0  0  0  0  0  0  0  0
  144.5483  135.6961  152.5647 C   0  0  0  0  0  0  0  0  0  0  0  0
  145.0497  136.9033  152.7711 N   0  0  0  0  0  0  0  0  0  0  0  0
  151.4737  141.1134  157.0979 C   0  0  0  0  0  0  0  0  0  0  0  0
  152.3437  140.6552  158.0852 C   0  0  0  0  0  0  0  0  0  0  0  0
  152.6877  141.5580  159.1167 C   0  0  0  0  0  0  0  0  0  0  0  0
  153.6324  141.0843  160.2083 C   0  0  0  0  0  0  0  0  0  0  0  0
  152.0904  144.8194  160.1039 H   0  0  0  0  0  0  0  0  0  0  0  0
  153.6242  143.9750  160.2943 H   0  0  0  0  0  0  0  0  0  0  0  0
  152.2043  143.4578  161.2160 H   0  0  0  0  0  0  0  0  0  0  0  0
  150.8874  144.3311  158.1360 H   0  0  0  0  0  0  0  0  0  0  0  0
  149.5632  141.2008  154.3984 H   0  0  0  0  0  0  0  0  0  0  0  0
  152.3254  138.9764  155.6477 H   0  0  0  0  0  0  0  0  0  0  0  0
  150.8523  138.5024  156.4481 H   0  0  0  0  0  0  0  0  0  0  0  0
  151.0268  139.2751  153.4923 H   0  0  0  0  0  0  0  0  0  0  0  0
  151.0346  137.1762  153.1016 H   0  0  0  0  0  0  0  0  0  0  0  0
  148.6878  137.9547  154.9665 H   0  0  0  0  0  0  0  0  0  0  0  0
  148.7888  139.6875  154.7154 H   0  0  0  0  0  0  0  0  0  0  0  0
  149.0371  139.2082  152.3366 H   0  0  0  0  0  0  0  0  0  0  0  0
  146.5806  138.4227  153.7007 H   0  0  0  0  0  0  0  0  0  0  0  0
  146.9515  139.9775  152.9890 H   0  0  0  0  0  0  0  0  0  0  0  0
  145.8161  139.1844  151.1401 H   0  0  0  0  0  0  0  0  0  0  0  0
  147.2808  138.2896  150.7977 H   0  0  0  0  0  0  0  0  0  0  0  0
  146.2537  136.1517  149.8211 H   0  0  0  0  0  0  0  0  0  0  0  0
  144.6855  134.1897  150.8838 H   0  0  0  0  0  0  0  0  0  0  0  0
  143.9235  135.2540  153.3267 H   0  0  0  0  0  0  0  0  0  0  0  0
  152.7460  139.6531  158.0707 H   0  0  0  0  0  0  0  0  0  0  0  0
  153.9037  140.0365  160.0752 H   0  0  0  0  0  0  0  0  0  0  0  0
  153.1673  141.1840  161.1894 H   0  0  0  0  0  0  0  0  0  0  0  0
  154.5516  141.6707  160.1989 H   0  0  0  0  0  0  0  0  0  0  0  0
  148.6803  137.6353  152.6431 H   0  0  0  0  0  0  0  0  0  0  0  0
  149.6145  143.3887  155.7402 H   0  0  0  0  0  0  0  0  0  0  0  0
  1  2  1  0  0  0  0
  1 24  1  0  0  0  0
  1 25  1  0  0  0  0
  1 26  1  0  0  0  0
  2 22  1  0  0  0  0
  2  3  2  0  0  0  0
  3  4  1  0  0  0  0
  3 27  1  0  0  0  0
  4 20  2  0  0  0  0
  4  5  1  0  0  0  0
  5  6  2  0  0  0  0
  5 48  1  0  0  0  0
  6  7  1  0  0  0  0
  6 28  1  0  0  0  0
  7  8  1  0  0  0  0
  7 20  1  0  0  0  0
  8  9  1  0  0  0  0
  8 29  1  0  0  0  0
  8 30  1  0  0  0  0
  9 10  1  0  0  0  0
  9 11  1  0  0  0  0
  9 31  1  0  0  0  0
 10 32  1  0  0  0  0
 11 12  1  0  0  0  0
 11 33  1  0  0  0  0
 11 34  1  0  0  0  0
 12 13  1  0  0  0  0
 12 35  1  0  0  0  0
 12 47  1  0  0  0  0
 13 14  1  0  0  0  0
 13 36  1  0  0  0  0
 13 37  1  0  0  0  0
 14 15  1  0  0  0  0
 14 38  1  0  0  0  0
 14 39  1  0  0  0  0
 15 19  1  0  0  0  0
 15 16  1  0  0  0  0
 16 17  2  0  0  0  0
 16 40  1  0  0  0  0
 17 18  1  0  0  0  0
 17 41  1  0  0  0  0
 18 19  2  0  0  0  0
 18 42  1  0  0  0  0
 20 21  1  0  0  0  0
 21 22  2  0  0  0  0
 21 43  1  0  0  0  0
 22 23  1  0  0  0  0
 23 44  1  0  0  0  0
 23 45  1  0  0  0  0
 23 46  1  0  0  0  0
M  CHG  1   5   1
M  CHG  1  12   1
M  END
> <s_m_source_file>
AV-unprocessed.smi

> <i_m_source_file_index>
766

> <i_lp_mmshare_version>
43012

> <i_f3d_flags>
0

> <s_epik_input>
W0NIM11jKFtjSF0xKWMoW0NIM10pW2NIXWMoYzEyKW4oW2NIXW4yKVtDSDJdW0NASF0oW09IXSlbQ0gyXVtOSF1bQ0gyXVtDSDJdbjNbY0hdW2NIXVtjSF1uMw==

> <s_epik_cmdline>
J2VwaWtfcHl0aG9uJywgJy1waCcsICc3LjAnLCAnLXRuJywgJzgnLCAnLW1hJywgJzIwMCcsICctbWV0YWxfYmluZGluZycsICctaW1hZScsICc8aW5maWxlLm1hZT4nLCAnLW9tYWUnLCAnPG91dGZpbGUubWFlPic=

> <r_lp_tautomer_probability>
1

> <r_epik_Ionization_Penalty>
1.25103

> <r_epik_Ionization_Penalty_Charging>
1.25102

> <r_epik_Ionization_Penalty_Neutral>
6.05394e-06

> <r_epik_State_Penalty>
1.2613

> <r_epik_Charging_Adjusted_Penalty>
2.51232

> <i_epik_Tot_Q>
2

> <i_epik_Tot_abs_Q>
2

> <r_epik_Metal_State_Penalty>
1.33164

> <b_epik_Metal_Only>
0

> <s_lp_Force_Field>
OPLS_2005

> <r_lp_Energy>
19.1357

> <b_lp_Chiralities_Consistent>
1

> <s_lp_Variant>
AV-unprocessed.smi:766-4

> <Gold.Version>
5.8.1

> <Gold.Id.Protein>
6NUR|6NUR_protein|mol2

> <Gold.PLP.Fitness>
72.1495

> <Gold.PLP.PLP>
-52.4412

> <Gold.PLP.part.hbond>
-4.6070

> <Gold.PLP.part.metal>
0.0000

> <Gold.PLP.part.buried>
-3.0193

> <Gold.PLP.part.nonpolar>
-46.5279

> <Gold.PLP.part.repulsive>
0.3949

> <Gold.PLP.ligand.clash>
0.0000

> <Gold.PLP.ligand.torsion>
0.7839

> <Gold.PLP.Chemscore.Hbond>
6.0000

> <Gold.PLP.Chemscore.CHOScore>
0.9989

> <Gold.PLP.Chemscore.Metal>
0.0000

> <Gold.Chemscore.Hbonds>
donor molecule, donor type, donor heavy atom, donor atom, acceptor molecule, acceptor atom, score
      L1  H     5    48       P1  8028  1.95
      L1  H    10    32       P1  7949  1.00
      L1  H    12    35       P1  7957  1.00
      L1  H    12    47       P1  7948  2.00
      L1  C    16    40       P1  7921  0.97

> <Gold.PLP.Chemscore.Internal.Correction>
0.2795

> <Gold.Rescore>
     Score         DG    S(hbond)    S(metal)    S(lipo)     H(rot)  DE(clash)    DE(int)     intcor
     22.65     -24.43       3.53        0.00     127.26       3.02       0.12       1.65       ----

> <Gold.Chemscore.Fitness>
22.6507

> <Gold.Chemscore.DG>
-24.4262

> <Gold.Chemscore.ZeroCoef>
-5.4800

> <Gold.Chemscore.Hbond>
3.5317

> <Gold.Chemscore.Metal>
0.0000

> <Gold.Chemscore.Lipo>
127.2567

> <Gold.Chemscore.Internal_Hbond>
0.0000

> <Gold.Chemscore.DEClash>
0.1235

> <Gold.Chemscore.DEInternal>
1.6520

> <Gold.Chemscore.Rot>
3.0229

> <Gold.Chemscore.Internal.Correction>
   9.000000E+99

> <Gold.Chemscore.Hbonds>
donor molecule, donor type, donor heavy atom, donor atom, acceptor molecule, acceptor atom, score
      L1  H     5    48       P1  8028  0.91
      L1  H    10    32       P1  7949  0.32
      L1  H    12    35       P1  7957  0.94
      L1  H    12    47       P1  7948  0.99

> <Gold.Chemscore.Hbond.Weighted>
-11.7958

> <Gold.Chemscore.Metal.Weighted>
-0.0000

> <Gold.Chemscore.Lipo.Weighted>
-14.8890

> <Gold.Chemscore.Internal_Hbond.Weighted>
0.0000

> <Gold.Chemscore.DEClash.Weighted>
0.1235

> <Gold.Chemscore.DEInternal.Weighted>
1.6520

> <Gold.Chemscore.Rot.Weighted>
7.7386

> <Gold.Chemscore.Internal.Correction.Weighted>
   9.000000E+99

> <Gold.Protein.RotatedTorsions>
[ 6907 6896 6895 6894 ] final   98.07 input  -60.11 | X-H torsion
[ 7974 7965 7964 7962 ] final  -93.40 input  175.53 | X-H torsion
[ 8008 7997 7996 7995 ] final -165.10 input   59.86 | X-H torsion
[ 10167 10162 10161 10158 ] final  -87.40 input  -65.29 | X-H torsion
[ 10718 10713 10712 10709 ] final  101.72 input   66.30 | X-H torsion
[ 10763 10752 10751 10750 ] final  158.65 input  -60.55 | X-H torsion
[ 11005 11000 10999 10996 ] final -106.54 input  -57.11 | X-H torsion

> <Gold.Protein.ActiveResidues>
 VAL166  LYS551  ARG553  GLY616  TRP617  ASP618  TYR619  PRO620  LYS621  CYS622 
 ASP623  PHE694  ASN695  SER759  ASP760  ASP761  ALA762  ILE779  LEU786  VAL792 
 PHE793  MET794  SER795  GLU796  ALA797  LYS798  CYS799  TRP800  GLU811  SER814 

> <Gold.Protein.RotatedAtoms>
  152.5414  134.0637  159.8163 H   0  0  0  0  0  0  0  0  0  0  0  0  # atno 6907 bound_to 6896
  151.0761  133.5419  159.2631 H   0  0  0  0  0  0  0  0  0  0  0  0  # atno 6908 bound_to 6896
  151.2264  135.0546  159.9024 H   0  0  0  0  0  0  0  0  0  0  0  0  # atno 6909 bound_to 6896
  145.3870  140.9524  143.2362 H   0  0  0  0  0  0  0  0  0  0  0  0  # atno 7974 bound_to 7965
  155.8451  140.0954  157.1710 H   0  0  0  0  0  0  0  0  0  0  0  0  # atno 8008 bound_to 7997
  154.3983  140.1394  156.3837 H   0  0  0  0  0  0  0  0  0  0  0  0  # atno 8009 bound_to 7997
  155.8022  140.3452  155.5412 H   0  0  0  0  0  0  0  0  0  0  0  0  # atno 8010 bound_to 7997
  140.3848  143.2731  151.9338 H   0  0  0  0  0  0  0  0  0  0  0  0  # atno 10167 bound_to 10162
  157.6822  131.0734  150.5295 H   0  0  0  0  0  0  0  0  0  0  0  0  # atno 10718 bound_to 10713
  154.2194  135.2782  155.2930 H   0  0  0  0  0  0  0  0  0  0  0  0  # atno 10763 bound_to 10752
  154.5714  135.5617  153.7102 H   0  0  0  0  0  0  0  0  0  0  0  0  # atno 10764 bound_to 10752
  153.0045  135.6322  154.2334 H   0  0  0  0  0  0  0  0  0  0  0  0  # atno 10765 bound_to 10752
  141.0999  133.8902  157.1868 H   0  0  0  0  0  0  0  0  0  0  0  0  # atno 11005 bound_to 11000
  144.8467  139.5386  143.6875 LP  0  0  0  0  0  0  0  0  0  0  0  0  # atno 17320 bound_to 7965
  146.2815  139.6891  142.9225 LP  0  0  0  0  0  0  0  0  0  0  0  0  # atno 17321 bound_to 7965
  139.4793  144.5784  151.7974 LP  0  0  0  0  0  0  0  0  0  0  0  0  # atno 17342 bound_to 10162
  140.4900  144.1324  150.5948 LP  0  0  0  0  0  0  0  0  0  0  0  0  # atno 17343 bound_to 10162
  156.5606  130.4254  149.6065 LP  0  0  0  0  0  0  0  0  0  0  0  0  # atno 17370 bound_to 10713
  156.2825  130.7078  151.1906 LP  0  0  0  0  0  0  0  0  0  0  0  0  # atno 17371 bound_to 10713
  139.9848  135.0086  156.9835 LP  0  0  0  0  0  0  0  0  0  0  0  0  # atno 17394 bound_to 11000
  140.5047  134.1062  155.7257 LP  0  0  0  0  0  0  0  0  0  0  0  0  # atno 17395 bound_to 11000

$$$$
