AV-unprocessed.smi:746|AV-procd|sdf|3576|dock9
  -GOLD-   22720 0573D 1   1.00000     0.00000
 Structure written by MMmdl.
 48 50  0  0  0  0  0  0  0  0  1 V2000
  148.2585  132.0060  152.9162 C   0  0  0  0  0  0  0  0  0  0  0  0
  148.3971  133.3076  153.4585 O   0  0  0  0  0  0  0  0  0  0  0  0
  149.7479  133.6415  153.7308 C   0  0  0  0  0  0  0  0  0  0  0  0
  149.7837  134.8360  154.6879 C   0  0  0  0  0  0  0  0  0  0  0  0
  151.1381  135.2399  154.8663 O   0  0  0  0  0  0  0  0  0  0  0  0
  151.3988  136.3385  155.6596 C   0  0  0  0  0  0  0  0  0  0  0  0
  150.3467  137.2332  155.9387 C   0  0  0  0  0  0  0  0  0  0  0  0
  150.6042  138.3583  156.7454 C   0  0  0  0  0  0  0  0  0  0  0  0
  151.9145  138.5575  157.2418 C   0  0  0  0  0  0  0  0  0  0  0  0
  152.2982  139.6387  158.0798 N   0  0  0  0  0  0  0  0  0  0  0  0
  151.9199  140.9311  158.0174 C   0  0  0  0  0  0  0  0  0  0  0  0
  151.0472  141.3433  157.2543 O   0  0  0  0  0  0  0  0  0  0  0  0
  152.5166  141.7065  158.9582 N   0  0  0  0  0  0  0  0  0  0  0  0
  153.7081  141.2735  159.7231 C   0  0  0  0  0  0  0  0  0  0  0  0
  153.5264  141.5489  161.2311 C   0  0  0  0  0  0  0  0  0  0  0  0
  153.1941  143.0288  161.4979 C   0  0  0  0  0  0  0  0  0  0  0  0
  152.0159  143.4495  160.6111 C   0  0  1  0  0  0  0  0  0  0  0  0
  151.6298  144.9297  160.6169 C   0  0  0  0  0  0  0  0  0  0  0  0
  150.9203  145.1510  159.2676 C   0  0  0  0  0  0  0  0  0  0  0  0
  151.1092  143.8540  158.4602 C   0  0  0  0  0  0  0  0  0  0  0  0
  152.3015  143.1576  159.1372 C   0  0  2  0  0  0  0  0  0  0  0  0
  152.8922  137.5944  156.9192 C   0  0  0  0  0  0  0  0  0  0  0  0
  152.6524  136.5149  156.1455 N   0  0  0  0  0  0  0  0  0  0  0  0
  147.2056  131.7989  152.7250 H   0  0  0  0  0  0  0  0  0  0  0  0
  148.6300  131.2491  153.6083 H   0  0  0  0  0  0  0  0  0  0  0  0
  148.7965  131.9124  151.9720 H   0  0  0  0  0  0  0  0  0  0  0  0
  150.2631  132.7899  154.1778 H   0  0  0  0  0  0  0  0  0  0  0  0
  150.2655  133.8917  152.8034 H   0  0  0  0  0  0  0  0  0  0  0  0
  149.1943  135.6553  154.2729 H   0  0  0  0  0  0  0  0  0  0  0  0
  149.3431  134.5526  155.6453 H   0  0  0  0  0  0  0  0  0  0  0  0
  149.3567  137.0575  155.5446 H   0  0  0  0  0  0  0  0  0  0  0  0
  149.7937  139.0315  156.9770 H   0  0  0  0  0  0  0  0  0  0  0  0
  153.0341  139.4329  158.7396 H   0  0  0  0  0  0  0  0  0  0  0  0
  153.9615  140.2225  159.5814 H   0  0  0  0  0  0  0  0  0  0  0  0
  154.5748  141.8245  159.3548 H   0  0  0  0  0  0  0  0  0  0  0  0
  152.7238  140.9195  161.6181 H   0  0  0  0  0  0  0  0  0  0  0  0
  154.4288  141.2673  161.7745 H   0  0  0  0  0  0  0  0  0  0  0  0
  152.9563  143.1833  162.5507 H   0  0  0  0  0  0  0  0  0  0  0  0
  154.0661  143.6456  161.2764 H   0  0  0  0  0  0  0  0  0  0  0  0
  151.1386  142.8736  160.9141 H   0  0  0  0  0  0  0  0  0  0  0  0
  150.9964  145.1844  161.4673 H   0  0  0  0  0  0  0  0  0  0  0  0
  152.5225  145.5542  160.6698 H   0  0  0  0  0  0  0  0  0  0  0  0
  149.8609  145.3716  159.4025 H   0  0  0  0  0  0  0  0  0  0  0  0
  151.3660  145.9988  158.7462 H   0  0  0  0  0  0  0  0  0  0  0  0
  150.2074  143.2460  158.5475 H   0  0  0  0  0  0  0  0  0  0  0  0
  151.2821  144.0520  157.4019 H   0  0  0  0  0  0  0  0  0  0  0  0
  153.2115  143.6777  158.8302 H   0  0  0  0  0  0  0  0  0  0  0  0
  153.9026  137.6948  157.2877 H   0  0  0  0  0  0  0  0  0  0  0  0
  1  2  1  0  0  0  0
  1 24  1  0  0  0  0
  1 25  1  0  0  0  0
  1 26  1  0  0  0  0
  2  3  1  0  0  0  0
  3  4  1  0  0  0  0
  3 27  1  0  0  0  0
  3 28  1  0  0  0  0
  4  5  1  0  0  0  0
  4 29  1  0  0  0  0
  4 30  1  0  0  0  0
  5  6  1  0  0  0  0
  6 23  1  0  0  0  0
  6  7  2  0  0  0  0
  7  8  1  0  0  0  0
  7 31  1  0  0  0  0
  8  9  2  0  0  0  0
  8 32  1  0  0  0  0
  9 10  1  0  0  0  0
  9 22  1  0  0  0  0
 10 11  1  0  0  0  0
 10 33  1  0  0  0  0
 11 12  2  0  0  0  0
 11 13  1  0  0  0  0
 13 21  1  0  0  0  0
 13 14  1  0  0  0  0
 14 15  1  0  0  0  0
 14 34  1  0  0  0  0
 14 35  1  0  0  0  0
 15 16  1  0  0  0  0
 15 36  1  0  0  0  0
 15 37  1  0  0  0  0
 16 17  1  0  0  0  0
 16 38  1  0  0  0  0
 16 39  1  0  0  0  0
 17 21  1  0  0  0  0
 17 18  1  0  0  0  0
 17 40  1  0  0  0  0
 18 19  1  0  0  0  0
 18 41  1  0  0  0  0
 18 42  1  0  0  0  0
 19 20  1  0  0  0  0
 19 43  1  0  0  0  0
 19 44  1  0  0  0  0
 20 21  1  0  0  0  0
 20 45  1  0  0  0  0
 20 46  1  0  0  0  0
 21 47  1  0  0  0  0
 22 23  2  0  0  0  0
 22 48  1  0  0  0  0
M  END
> <s_m_source_file>
AV-unprocessed.smi

> <i_m_source_file_index>
746

> <i_lp_mmshare_version>
43012

> <i_f3d_flags>
0

> <s_epik_input>
W0NIM11PW0NIMl1bQ0gyXU9jMVtjSF1bY0hdYyhbY0hdbjEpW05IXUMoPU8pTihbQ0gyXVtDSDJdW0NIMl0yKVtDQEhdKFtDQEBIXTIzKVtDSDJdW0NIMl1bQ0gyXTM=

> <s_epik_cmdline>
J2VwaWtfcHl0aG9uJywgJy1waCcsICc3LjAnLCAnLXRuJywgJzgnLCAnLW1hJywgJzIwMCcsICctbWV0YWxfYmluZGluZycsICctaW1hZScsICc8aW5maWxlLm1hZT4nLCAnLW9tYWUnLCAnPG91dGZpbGUubWFlPic=

> <r_lp_tautomer_probability>
1

> <r_epik_Ionization_Penalty>
8.29966e-05

> <r_epik_Ionization_Penalty_Charging>
0

> <r_epik_Ionization_Penalty_Neutral>
8.29966e-05

> <r_epik_State_Penalty>
-0

> <r_epik_Charging_Adjusted_Penalty>
0

> <i_epik_Tot_Q>
0

> <i_epik_Tot_abs_Q>
0

> <r_epik_Metal_State_Penalty>
-0

> <b_epik_Metal_Only>
0

> <s_lp_Force_Field>
OPLS_2005

> <r_lp_Energy>
59.0162

> <b_lp_Chiralities_Consistent>
1

> <s_lp_Variant>
AV-unprocessed.smi:746-1

> <Gold.Version>
5.8.1

> <Gold.Id.Protein>
6NUR|6NUR_protein|mol2

> <Gold.PLP.Fitness>
45.0235

> <Gold.PLP.PLP>
-44.3644

> <Gold.PLP.part.hbond>
-1.5958

> <Gold.PLP.part.metal>
0.0000

> <Gold.PLP.part.buried>
-6.8587

> <Gold.PLP.part.nonpolar>
-37.0358

> <Gold.PLP.part.repulsive>
0.3718

> <Gold.PLP.ligand.clash>
1.3310

> <Gold.PLP.ligand.torsion>
0.6640

> <Gold.PLP.Chemscore.Hbond>
1.0000

> <Gold.PLP.Chemscore.CHOScore>
0.0000

> <Gold.PLP.Chemscore.Metal>
0.0000

> <Gold.Chemscore.Hbonds>
donor molecule, donor type, donor heavy atom, donor atom, acceptor molecule, acceptor atom, score
      P1  H 10752 10765       L1    23  0.80

> <Gold.PLP.Chemscore.Internal.Correction>
0.3182

> <Gold.Rescore>
     Score         DG    S(hbond)    S(metal)    S(lipo)     H(rot)  DE(clash)    DE(int)     intcor
     15.19     -18.03       0.87        0.00     115.63       1.52       0.23       2.61       ----

> <Gold.Chemscore.Fitness>
15.1874

> <Gold.Chemscore.DG>
-18.0309

> <Gold.Chemscore.ZeroCoef>
-5.4800

> <Gold.Chemscore.Hbond>
0.8701

> <Gold.Chemscore.Metal>
0.0000

> <Gold.Chemscore.Lipo>
115.6313

> <Gold.Chemscore.Internal_Hbond>
0.0000

> <Gold.Chemscore.DEClash>
0.2288

> <Gold.Chemscore.DEInternal>
2.6147

> <Gold.Chemscore.Rot>
1.5172

> <Gold.Chemscore.Internal.Correction>
   9.000000E+99

> <Gold.Chemscore.Hbonds>
donor molecule, donor type, donor heavy atom, donor atom, acceptor molecule, acceptor atom, score
      P1  H 10752 10765       L1    23  0.11

> <Gold.Chemscore.Hbond.Weighted>
-2.9061

> <Gold.Chemscore.Metal.Weighted>
-0.0000

> <Gold.Chemscore.Lipo.Weighted>
-13.5289

> <Gold.Chemscore.Internal_Hbond.Weighted>
0.0000

> <Gold.Chemscore.DEClash.Weighted>
0.2288

> <Gold.Chemscore.DEInternal.Weighted>
2.6147

> <Gold.Chemscore.Rot.Weighted>
3.8841

> <Gold.Chemscore.Internal.Correction.Weighted>
   9.000000E+99

> <Gold.Protein.RotatedTorsions>
[ 6907 6896 6895 6894 ] final  -51.04 input  -60.11 | X-H torsion
[ 7974 7965 7964 7962 ] final -122.54 input  175.53 | X-H torsion
[ 8008 7997 7996 7995 ] final  111.46 input   59.86 | X-H torsion
[ 10167 10162 10161 10158 ] final  -25.44 input  -65.29 | X-H torsion
[ 10718 10713 10712 10709 ] final  172.45 input   66.30 | X-H torsion
[ 10763 10752 10751 10750 ] final -134.39 input  -60.55 | X-H torsion
[ 11005 11000 10999 10996 ] final   68.45 input  -57.11 | X-H torsion

> <Gold.Protein.ActiveResidues>
 VAL166  LYS551  ARG553  GLY616  TRP617  ASP618  TYR619  PRO620  LYS621  CYS622 
 ASP623  PHE694  ASN695  SER759  ASP760  ASP761  ALA762  ILE779  LEU786  VAL792 
 PHE793  MET794  SER795  GLU796  ALA797  LYS798  CYS799  TRP800  GLU811  SER814 

> <Gold.Protein.RotatedAtoms>
  150.8649  134.8010  159.7110 H   0  0  0  0  0  0  0  0  0  0  0  0  # atno 6907 bound_to 6896
  152.4674  134.5040  159.9743 H   0  0  0  0  0  0  0  0  0  0  0  0  # atno 6908 bound_to 6896
  151.5138  133.3441  159.2925 H   0  0  0  0  0  0  0  0  0  0  0  0  # atno 6909 bound_to 6896
  145.0284  140.8047  143.4338 H   0  0  0  0  0  0  0  0  0  0  0  0  # atno 7974 bound_to 7965
  156.2125  140.3019  155.9765 H   0  0  0  0  0  0  0  0  0  0  0  0  # atno 8008 bound_to 7997
  155.2688  140.0433  157.3022 H   0  0  0  0  0  0  0  0  0  0  0  0  # atno 8009 bound_to 7997
  154.5720  140.2351  155.8186 H   0  0  0  0  0  0  0  0  0  0  0  0  # atno 8010 bound_to 7997
  140.7286  143.4265  151.0869 H   0  0  0  0  0  0  0  0  0  0  0  0  # atno 10167 bound_to 10162
  156.9787  131.0112  151.2887 H   0  0  0  0  0  0  0  0  0  0  0  0  # atno 10718 bound_to 10713
  154.8720  135.3736  154.4728 H   0  0  0  0  0  0  0  0  0  0  0  0  # atno 10763 bound_to 10752
  153.5387  135.7027  153.5652 H   0  0  0  0  0  0  0  0  0  0  0  0  # atno 10764 bound_to 10752
  153.3824  135.3993  155.1831 H   0  0  0  0  0  0  0  0  0  0  0  0  # atno 10765 bound_to 10752
  139.9711  134.6899  156.0446 H   0  0  0  0  0  0  0  0  0  0  0  0  # atno 11005 bound_to 11000
  145.1803  139.2355  143.5296 LP  0  0  0  0  0  0  0  0  0  0  0  0  # atno 17320 bound_to 7965
  146.3495  140.1575  142.8591 LP  0  0  0  0  0  0  0  0  0  0  0  0  # atno 17321 bound_to 7965
  139.7917  143.8210  152.3152 LP  0  0  0  0  0  0  0  0  0  0  0  0  # atno 17342 bound_to 10162
  139.8196  144.7301  150.9590 LP  0  0  0  0  0  0  0  0  0  0  0  0  # atno 17343 bound_to 10162
  157.5541  130.8202  149.8182 LP  0  0  0  0  0  0  0  0  0  0  0  0  # atno 17370 bound_to 10713
  156.0253  130.3781  150.1841 LP  0  0  0  0  0  0  0  0  0  0  0  0  # atno 17371 bound_to 10713
  141.1390  133.6569  156.3676 LP  0  0  0  0  0  0  0  0  0  0  0  0  # atno 17394 bound_to 11000
  140.5292  134.6229  157.5344 LP  0  0  0  0  0  0  0  0  0  0  0  0  # atno 17395 bound_to 11000

$$$$
