AV-unprocessed.smi:310|AV-procd|sdf|2296|dock2
  -GOLD-   2262022193D 1   1.00000     0.00000
 Structure written by MMmdl.
 40 42  0  0  0  0  0  0  0  0  2 V2000
  149.4453  131.1837  152.5382 C   0  0  0  0  0  0  0  0  0  0  0  0
  149.4131  132.5602  153.1090 C   0  0  0  0  0  0  0  0  0  0  0  0
  148.6434  133.6566  152.8420 C   0  0  0  0  0  0  0  0  0  0  0  0
  149.1446  134.6336  153.7451 C   0  0  0  0  0  0  0  0  0  0  0  0
  148.6978  135.8925  153.8734 N   0  5  0  0  0  0  0  0  0  0  0  0
  149.4838  136.8398  154.4357 C   0  0  0  0  0  0  0  0  0  0  0  0
  149.9028  136.8468  155.5958 O   0  0  0  0  0  0  0  0  0  0  0  0
  149.8035  137.8410  153.6026 N   0  0  0  0  0  0  0  0  0  0  0  0
  150.6321  138.9989  153.9281 C   0  0  0  0  0  0  0  0  0  0  0  0
  151.9846  138.5509  154.5304 C   0  0  0  0  0  0  0  0  0  0  0  0
  152.7783  139.7557  155.0645 C   0  0  0  0  0  0  0  0  0  0  0  0
  151.9516  140.4703  156.0468 N   0  0  0  0  0  0  0  0  0  0  0  0
  152.1640  140.5199  157.3858 C   0  0  0  0  0  0  0  0  0  0  0  0
  153.0721  139.8880  157.9284 O   0  0  0  0  0  0  0  0  0  0  0  0
  151.2584  141.4035  158.1906 C   0  0  0  0  0  0  0  0  0  0  0  0
  151.1706  142.8743  157.8236 C   0  0  0  0  0  0  0  0  0  0  0  0
  151.9200  142.4517  159.0599 C   0  0  0  0  0  0  0  0  0  0  0  0
  150.7701  141.0658  155.4108 C   0  0  0  0  0  0  0  0  0  0  0  0
  149.8672  139.9313  154.8923 C   0  0  0  0  0  0  0  0  0  0  0  0
  150.1210  134.1660  154.5047 N   0  0  0  0  0  0  0  0  0  0  0  0
  150.3039  132.8388  154.0984 O   0  0  0  0  0  0  0  0  0  0  0  0
  148.4871  130.6849  152.6826 H   0  0  0  0  0  0  0  0  0  0  0  0
  150.2168  130.5778  153.0138 H   0  0  0  0  0  0  0  0  0  0  0  0
  149.6528  131.2157  151.4686 H   0  0  0  0  0  0  0  0  0  0  0  0
  147.8515  133.7483  152.1140 H   0  0  0  0  0  0  0  0  0  0  0  0
  149.4381  137.7929  152.6628 H   0  0  0  0  0  0  0  0  0  0  0  0
  150.8309  139.5642  153.0154 H   0  0  0  0  0  0  0  0  0  0  0  0
  151.8137  137.8437  155.3433 H   0  0  0  0  0  0  0  0  0  0  0  0
  152.5743  138.0227  153.7804 H   0  0  0  0  0  0  0  0  0  0  0  0
  153.7449  139.4352  155.4508 H   0  0  0  0  0  0  0  0  0  0  0  0
  153.0157  140.4312  154.2414 H   0  0  0  0  0  0  0  0  0  0  0  0
  150.3331  140.9575  158.5507 H   0  0  0  0  0  0  0  0  0  0  0  0
  151.7624  143.2544  156.9929 H   0  0  0  0  0  0  0  0  0  0  0  0
  150.2040  143.3566  157.9535 H   0  0  0  0  0  0  0  0  0  0  0  0
  151.4645  142.6486  160.0281 H   0  0  0  0  0  0  0  0  0  0  0  0
  153.0059  142.5272  159.0369 H   0  0  0  0  0  0  0  0  0  0  0  0
  150.2024  141.7094  156.0838 H   0  0  0  0  0  0  0  0  0  0  0  0
  151.0833  141.7048  154.5838 H   0  0  0  0  0  0  0  0  0  0  0  0
  148.9926  140.3496  154.3932 H   0  0  0  0  0  0  0  0  0  0  0  0
  149.4933  139.3580  155.7423 H   0  0  0  0  0  0  0  0  0  0  0  0
  1  2  1  0  0  0  0
  1 22  1  0  0  0  0
  1 23  1  0  0  0  0
  1 24  1  0  0  0  0
  2 21  1  0  0  0  0
  2  3  2  0  0  0  0
  3  4  1  0  0  0  0
  3 25  1  0  0  0  0
  4  5  1  0  0  0  0
  4 20  2  0  0  0  0
  5  6  1  0  0  0  0
  6  7  2  0  0  0  0
  6  8  1  0  0  0  0
  8  9  1  0  0  0  0
  8 26  1  0  0  0  0
  9 19  1  0  0  0  0
  9 10  1  0  0  0  0
  9 27  1  0  0  0  0
 10 11  1  0  0  0  0
 10 28  1  0  0  0  0
 10 29  1  0  0  0  0
 11 12  1  0  0  0  0
 11 30  1  0  0  0  0
 11 31  1  0  0  0  0
 12 13  1  0  0  0  0
 12 18  1  0  0  0  0
 13 14  2  0  0  0  0
 13 15  1  0  0  0  0
 15 17  1  0  0  0  0
 15 16  1  0  0  0  0
 15 32  1  0  0  0  0
 16 17  1  0  0  0  0
 16 33  1  0  0  0  0
 16 34  1  0  0  0  0
 17 35  1  0  0  0  0
 17 36  1  0  0  0  0
 18 19  1  0  0  0  0
 18 37  1  0  0  0  0
 18 38  1  0  0  0  0
 19 39  1  0  0  0  0
 19 40  1  0  0  0  0
 20 21  1  0  0  0  0
M  CHG  1   5  -1
M  END
> <s_m_source_file>
AV-unprocessed.smi

> <i_m_source_file_index>
310

> <i_lp_mmshare_version>
43012

> <i_f3d_flags>
0

> <s_epik_input>
W0NIM11jMVtjSF1jKG5vMSlbTkhdQyg9TylbTkhdW0NIXTJbQ0gyXVtDSDJdTihbQ0gyXVtDSDJdMilDKD1PKVtDSF0zW0NIMl1bQ0gyXTM=

> <s_epik_cmdline>
J2VwaWtfcHl0aG9uJywgJy1waCcsICc3LjAnLCAnLXRuJywgJzgnLCAnLW1hJywgJzIwMCcsICctbWV0YWxfYmluZGluZycsICctaW1hZScsICc8aW5maWxlLm1hZT4nLCAnLW9tYWUnLCAnPG91dGZpbGUubWFlPic=

> <r_lp_tautomer_probability>
1

> <r_epik_Ionization_Penalty>
6.54503

> <r_epik_Ionization_Penalty_Charging>
6.5449

> <r_epik_Ionization_Penalty_Neutral>
0.000132868

> <r_epik_State_Penalty>
6.54489

> <r_epik_Charging_Adjusted_Penalty>
13.0898

> <i_epik_Tot_Q>
-1

> <i_epik_Tot_abs_Q>
1

> <r_epik_Metal_State_Penalty>
2.47073

> <b_epik_Metal_Only>
1

> <s_lp_Force_Field>
OPLS_2005

> <r_lp_Energy>
23.2172

> <b_lp_Chiralities_Consistent>
1

> <s_lp_Variant>
AV-unprocessed.smi:310-2

> <Gold.Version>
5.8.1

> <Gold.Id.Protein>
6NUR|6NUR_protein|mol2

> <Gold.PLP.Fitness>
40.2921

> <Gold.PLP.PLP>
-35.8190

> <Gold.PLP.part.hbond>
-2.0000

> <Gold.PLP.part.metal>
0.0000

> <Gold.PLP.part.buried>
-2.7194

> <Gold.PLP.part.nonpolar>
-31.5735

> <Gold.PLP.part.repulsive>
0.2007

> <Gold.PLP.ligand.clash>
0.0000

> <Gold.PLP.ligand.torsion>
0.8339

> <Gold.PLP.Chemscore.Hbond>
2.0000

> <Gold.PLP.Chemscore.CHOScore>
0.0000

> <Gold.PLP.Chemscore.Metal>
0.0000

> <Gold.Chemscore.Hbonds>
donor molecule, donor type, donor heavy atom, donor atom, acceptor molecule, acceptor atom, score
      L1  H     8    26       P1  7948  0.48
      P1  H  7997  8010       L1    14  1.00

> <Gold.PLP.Chemscore.Internal.Correction>
0.1409

> <Gold.Rescore>
     Score         DG    S(hbond)    S(metal)    S(lipo)     H(rot)  DE(clash)    DE(int)     intcor
     14.80     -17.78       1.90        0.00      78.11       1.25       0.11       2.87       ----

> <Gold.Chemscore.Fitness>
14.7950

> <Gold.Chemscore.DG>
-17.7785

> <Gold.Chemscore.ZeroCoef>
-5.4800

> <Gold.Chemscore.Hbond>
1.9034

> <Gold.Chemscore.Metal>
0.0000

> <Gold.Chemscore.Lipo>
78.1125

> <Gold.Chemscore.Internal_Hbond>
0.0000

> <Gold.Chemscore.DEClash>
0.1111

> <Gold.Chemscore.DEInternal>
2.8723

> <Gold.Chemscore.Rot>
1.2493

> <Gold.Chemscore.Internal.Correction>
   9.000000E+99

> <Gold.Chemscore.Hbonds>
donor molecule, donor type, donor heavy atom, donor atom, acceptor molecule, acceptor atom, score
      L1  H     8    26       P1  7948  0.38
      P1  H  7997  8010       L1    14  0.74

> <Gold.Chemscore.Hbond.Weighted>
-6.3574

> <Gold.Chemscore.Metal.Weighted>
-0.0000

> <Gold.Chemscore.Lipo.Weighted>
-9.1392

> <Gold.Chemscore.Internal_Hbond.Weighted>
0.0000

> <Gold.Chemscore.DEClash.Weighted>
0.1111

> <Gold.Chemscore.DEInternal.Weighted>
2.8723

> <Gold.Chemscore.Rot.Weighted>
3.1981

> <Gold.Chemscore.Internal.Correction.Weighted>
   9.000000E+99

> <Gold.Protein.RotatedTorsions>
[ 6907 6896 6895 6894 ] final -115.65 input  -60.11 | X-H torsion
[ 7974 7965 7964 7962 ] final  142.81 input  175.53 | X-H torsion
[ 8008 7997 7996 7995 ] final   35.57 input   59.86 | X-H torsion
[ 10167 10162 10161 10158 ] final  -90.55 input  -65.29 | X-H torsion
[ 10718 10713 10712 10709 ] final -107.43 input   66.30 | X-H torsion
[ 10763 10752 10751 10750 ] final  124.10 input  -60.55 | X-H torsion
[ 11005 11000 10999 10996 ] final   -8.11 input  -57.11 | X-H torsion

> <Gold.Protein.ActiveResidues>
 VAL166  LYS551  ARG553  GLY616  TRP617  ASP618  TYR619  PRO620  LYS621  CYS622 
 ASP623  PHE694  ASN695  SER759  ASP760  ASP761  ALA762  ILE779  LEU786  VAL792 
 PHE793  MET794  SER795  GLU796  ALA797  LYS798  CYS799  TRP800  GLU811  SER814 

> <Gold.Protein.RotatedAtoms>
  150.7994  133.8629  159.3236 H   0  0  0  0  0  0  0  0  0  0  0  0  # atno 6907 bound_to 6896
  151.6445  135.1007  160.0157 H   0  0  0  0  0  0  0  0  0  0  0  0  # atno 6908 bound_to 6896
  152.4079  133.6879  159.6408 H   0  0  0  0  0  0  0  0  0  0  0  0  # atno 6909 bound_to 6896
  144.8975  139.5470  143.5769 H   0  0  0  0  0  0  0  0  0  0  0  0  # atno 7974 bound_to 7965
  155.1733  140.3293  155.4388 H   0  0  0  0  0  0  0  0  0  0  0  0  # atno 8008 bound_to 7997
  156.2502  140.1939  156.6785 H   0  0  0  0  0  0  0  0  0  0  0  0  # atno 8009 bound_to 7997
  154.6322  140.0581  156.9732 H   0  0  0  0  0  0  0  0  0  0  0  0  # atno 8010 bound_to 7997
  140.3538  143.2877  151.9695 H   0  0  0  0  0  0  0  0  0  0  0  0  # atno 10167 bound_to 10162
  156.0436  130.5662  150.7820 H   0  0  0  0  0  0  0  0  0  0  0  0  # atno 10718 bound_to 10713
  153.6561  135.3354  155.3114 H   0  0  0  0  0  0  0  0  0  0  0  0  # atno 10763 bound_to 10752
  154.8526  135.4352  154.1854 H   0  0  0  0  0  0  0  0  0  0  0  0  # atno 10764 bound_to 10752
  153.2808  135.7009  153.7462 H   0  0  0  0  0  0  0  0  0  0  0  0  # atno 10765 bound_to 10752
  140.7200  133.8836  155.8813 H   0  0  0  0  0  0  0  0  0  0  0  0  # atno 11005 bound_to 11000
  146.3089  139.7678  142.9034 LP  0  0  0  0  0  0  0  0  0  0  0  0  # atno 17320 bound_to 7965
  145.3674  141.0337  143.3250 LP  0  0  0  0  0  0  0  0  0  0  0  0  # atno 17321 bound_to 7965
  139.4823  144.6053  151.7533 LP  0  0  0  0  0  0  0  0  0  0  0  0  # atno 17342 bound_to 10162
  140.5193  144.0903  150.6018 LP  0  0  0  0  0  0  0  0  0  0  0  0  # atno 17343 bound_to 10162
  157.5285  131.0935  150.9986 LP  0  0  0  0  0  0  0  0  0  0  0  0  # atno 17370 bound_to 10713
  157.0299  130.5707  149.5342 LP  0  0  0  0  0  0  0  0  0  0  0  0  # atno 17371 bound_to 10713
  141.0012  134.1148  157.4315 LP  0  0  0  0  0  0  0  0  0  0  0  0  # atno 17394 bound_to 11000
  139.8850  135.0068  156.6409 LP  0  0  0  0  0  0  0  0  0  0  0  0  # atno 17395 bound_to 11000

$$$$
