AV-unprocessed.smi:788|AV-procd|sdf|3734|dock10
  -GOLD-   22720 1173D 1   1.00000     0.00000
 Structure written by MMmdl.
 35 36  0  0  0  0  0  0  0  0  1 V2000
  150.5896  144.6498  158.7229 C   0  0  0  0  0  0  0  0  0  0  0  0
  151.7657  144.1169  157.8773 C   0  0  1  0  0  0  0  0  0  0  0  0
  153.1036  144.1996  158.6386 C   0  0  0  0  0  0  0  0  0  0  0  0
  153.2135  143.1331  159.7392 C   0  0  0  0  0  0  0  0  0  0  0  0
  153.0007  141.7238  159.1685 C   0  0  0  0  0  0  0  0  0  0  0  0
  151.6571  141.5995  158.4233 C   0  0  2  0  0  0  0  0  0  0  0  0
  151.4805  140.1730  157.8714 C   0  0  0  0  0  0  0  0  0  0  0  0
  151.5472  142.6836  157.3197 C   0  0  1  0  0  0  0  0  0  0  0  0
  150.2644  142.5781  156.6267 N   0  0  0  0  0  0  0  0  0  0  0  0
  149.9475  141.6744  155.6853 C   0  0  0  0  0  0  0  0  0  0  0  0
  150.7339  140.8105  155.3018 O   0  0  0  0  0  0  0  0  0  0  0  0
  148.7024  141.7584  155.1692 N   0  0  0  0  0  0  0  0  0  0  0  0
  148.0307  140.9869  154.1756 C   0  0  0  0  0  0  0  0  0  0  0  0
  148.2369  139.6780  153.9545 N   0  0  0  0  0  0  0  0  0  0  0  0
  147.4408  139.1882  152.9281 N   0  0  0  0  0  0  0  0  0  0  0  0
  146.6612  140.1439  152.4152 C   0  0  0  0  0  0  0  0  0  0  0  0
  146.8259  141.7351  153.1361 S   0  0  0  0  0  0  0  0  0  0  0  0
  150.3913  144.0222  159.5911 H   0  0  0  0  0  0  0  0  0  0  0  0
  149.6697  144.7064  158.1408 H   0  0  0  0  0  0  0  0  0  0  0  0
  150.7979  145.6561  159.0865 H   0  0  0  0  0  0  0  0  0  0  0  0
  151.8513  144.7898  157.0229 H   0  0  0  0  0  0  0  0  0  0  0  0
  153.9243  144.0652  157.9330 H   0  0  0  0  0  0  0  0  0  0  0  0
  153.2350  145.1939  159.0672 H   0  0  0  0  0  0  0  0  0  0  0  0
  154.1929  143.1936  160.2142 H   0  0  0  0  0  0  0  0  0  0  0  0
  152.4817  143.3278  160.5236 H   0  0  0  0  0  0  0  0  0  0  0  0
  153.8200  141.4816  158.4903 H   0  0  0  0  0  0  0  0  0  0  0  0
  153.0469  140.9949  159.9782 H   0  0  0  0  0  0  0  0  0  0  0  0
  150.8584  141.7622  159.1481 H   0  0  0  0  0  0  0  0  0  0  0  0
  152.2240  139.9504  157.1054 H   0  0  0  0  0  0  0  0  0  0  0  0
  150.4939  140.0290  157.4304 H   0  0  0  0  0  0  0  0  0  0  0  0
  151.5888  139.4315  158.6634 H   0  0  0  0  0  0  0  0  0  0  0  0
  152.3396  142.4829  156.5955 H   0  0  0  0  0  0  0  0  0  0  0  0
  149.5579  143.2534  156.8825 H   0  0  0  0  0  0  0  0  0  0  0  0
  148.1398  142.4954  155.5687 H   0  0  0  0  0  0  0  0  0  0  0  0
  145.9844  139.9109  151.6065 H   0  0  0  0  0  0  0  0  0  0  0  0
  1  2  1  0  0  0  0
  1 18  1  0  0  0  0
  1 19  1  0  0  0  0
  1 20  1  0  0  0  0
  2  8  1  0  0  0  0
  2  3  1  0  0  0  0
  2 21  1  0  0  0  0
  3  4  1  0  0  0  0
  3 22  1  0  0  0  0
  3 23  1  0  0  0  0
  4  5  1  0  0  0  0
  4 24  1  0  0  0  0
  4 25  1  0  0  0  0
  5  6  1  0  0  0  0
  5 26  1  0  0  0  0
  5 27  1  0  0  0  0
  6  7  1  0  0  0  0
  6  8  1  0  0  0  0
  6 28  1  0  0  0  0
  7 29  1  0  0  0  0
  7 30  1  0  0  0  0
  7 31  1  0  0  0  0
  8  9  1  0  0  0  0
  8 32  1  0  0  0  0
  9 10  1  0  0  0  0
  9 33  1  0  0  0  0
 10 11  2  0  0  0  0
 10 12  1  0  0  0  0
 12 13  1  0  0  0  0
 12 34  1  0  0  0  0
 13 17  1  0  0  0  0
 13 14  2  0  0  0  0
 14 15  1  0  0  0  0
 15 16  2  0  0  0  0
 16 17  1  0  0  0  0
 16 35  1  0  0  0  0
M  END
> <s_m_source_file>
AV-unprocessed.smi

> <i_m_source_file_index>
788

> <i_lp_mmshare_version>
43012

> <i_f3d_flags>
0

> <s_epik_input>
W0NIM11bQ0BASF0xW0NIMl1bQ0gyXVtDSDJdW0NAQEhdKFtDSDNdKVtDQEhdMVtOSF1DKD1PKVtOSF1jMm5uW2NIXXMy

> <s_epik_cmdline>
J2VwaWtfcHl0aG9uJywgJy1waCcsICc3LjAnLCAnLXRuJywgJzgnLCAnLW1hJywgJzIwMCcsICctbWV0YWxfYmluZGluZycsICctaW1hZScsICc8aW5maWxlLm1hZT4nLCAnLW9tYWUnLCAnPG91dGZpbGUubWFlPic=

> <r_lp_tautomer_probability>
1

> <r_epik_Ionization_Penalty>
0.000304078

> <r_epik_Ionization_Penalty_Charging>
0

> <r_epik_Ionization_Penalty_Neutral>
0.000304078

> <r_epik_State_Penalty>
-0

> <r_epik_Charging_Adjusted_Penalty>
0

> <i_epik_Tot_Q>
0

> <i_epik_Tot_abs_Q>
0

> <r_epik_Metal_State_Penalty>
0.164801

> <b_epik_Metal_Only>
0

> <s_lp_Force_Field>
OPLS_2005

> <r_lp_Energy>
15.5702

> <b_lp_Chiralities_Consistent>
1

> <s_lp_Variant>
AV-unprocessed.smi:788-4

> <Gold.Version>
5.8.1

> <Gold.Id.Protein>
6NUR|6NUR_protein|mol2

> <Gold.PLP.Fitness>
37.7935

> <Gold.PLP.PLP>
-32.8807

> <Gold.PLP.part.hbond>
-3.0000

> <Gold.PLP.part.metal>
0.0000

> <Gold.PLP.part.buried>
-3.4220

> <Gold.PLP.part.nonpolar>
-27.3556

> <Gold.PLP.part.repulsive>
1.7197

> <Gold.PLP.ligand.clash>
0.0000

> <Gold.PLP.ligand.torsion>
0.4941

> <Gold.PLP.Chemscore.Hbond>
1.4226

> <Gold.PLP.Chemscore.CHOScore>
0.5396

> <Gold.PLP.Chemscore.Metal>
0.0000

> <Gold.Chemscore.Hbonds>
donor molecule, donor type, donor heavy atom, donor atom, acceptor molecule, acceptor atom, score
      L1  H     9    33       P1  8028  0.50
      L1  H    12    34       P1  8028  0.11
      P1  H  7989  7998       L1    11  0.82
      L1  C    16    35       P1 10175  0.53

> <Gold.PLP.Chemscore.Internal.Correction>
0.0145

> <Gold.Rescore>
     Score         DG    S(hbond)    S(metal)    S(lipo)     H(rot)  DE(clash)    DE(int)     intcor
     15.38     -18.57       1.18        0.00     100.20       1.00       0.41       2.78       ----

> <Gold.Chemscore.Fitness>
15.3805

> <Gold.Chemscore.DG>
-18.5741

> <Gold.Chemscore.ZeroCoef>
-5.4800

> <Gold.Chemscore.Hbond>
1.1769

> <Gold.Chemscore.Metal>
0.0000

> <Gold.Chemscore.Lipo>
100.1988

> <Gold.Chemscore.Internal_Hbond>
0.0000

> <Gold.Chemscore.DEClash>
0.4123

> <Gold.Chemscore.DEInternal>
2.7813

> <Gold.Chemscore.Rot>
1.0000

> <Gold.Chemscore.Internal.Correction>
   9.000000E+99

> <Gold.Chemscore.Hbonds>
donor molecule, donor type, donor heavy atom, donor atom, acceptor molecule, acceptor atom, score
      L1  H     9    33       P1  8028  0.47
      L1  H    12    34       P1  8028  0.11
      P1  H  7989  7998       L1    11  0.77

> <Gold.Chemscore.Hbond.Weighted>
-3.9309

> <Gold.Chemscore.Metal.Weighted>
-0.0000

> <Gold.Chemscore.Lipo.Weighted>
-11.7233

> <Gold.Chemscore.Internal_Hbond.Weighted>
0.0000

> <Gold.Chemscore.DEClash.Weighted>
0.4123

> <Gold.Chemscore.DEInternal.Weighted>
2.7813

> <Gold.Chemscore.Rot.Weighted>
2.5600

> <Gold.Chemscore.Internal.Correction.Weighted>
   9.000000E+99

> <Gold.Protein.RotatedTorsions>
[ 6907 6896 6895 6894 ] final -103.19 input  -60.11 | X-H torsion
[ 7974 7965 7964 7962 ] final  -76.68 input  175.53 | X-H torsion
[ 8008 7997 7996 7995 ] final    0.15 input   59.86 | X-H torsion
[ 10167 10162 10161 10158 ] final  146.32 input  -65.29 | X-H torsion
[ 10718 10713 10712 10709 ] final -117.08 input   66.30 | X-H torsion
[ 10763 10752 10751 10750 ] final  104.39 input  -60.55 | X-H torsion
[ 11005 11000 10999 10996 ] final  158.03 input  -57.11 | X-H torsion

> <Gold.Protein.ActiveResidues>
 VAL166  LYS551  ARG553  GLY616  TRP617  ASP618  TYR619  PRO620  LYS621  CYS622 
 ASP623  PHE694  ASN695  SER759  ASP760  ASP761  ALA762  ILE779  LEU786  VAL792 
 PHE793  MET794  SER795  GLU796  ALA797  LYS798  CYS799  TRP800  GLU811  SER814 

> <Gold.Protein.RotatedAtoms>
  150.7229  134.0466  159.3783 H   0  0  0  0  0  0  0  0  0  0  0  0  # atno 6907 bound_to 6896
  151.8442  135.0578  160.0461 H   0  0  0  0  0  0  0  0  0  0  0  0  # atno 6908 bound_to 6896
  152.2839  133.5461  159.5552 H   0  0  0  0  0  0  0  0  0  0  0  0  # atno 6909 bound_to 6896
  145.6097  140.9389  143.1196 H   0  0  0  0  0  0  0  0  0  0  0  0  # atno 7974 bound_to 7965
  154.6648  140.2598  155.7070 H   0  0  0  0  0  0  0  0  0  0  0  0  # atno 8008 bound_to 7997
  156.2634  140.2841  156.1055 H   0  0  0  0  0  0  0  0  0  0  0  0  # atno 8009 bound_to 7997
  155.1255  140.0377  157.2751 H   0  0  0  0  0  0  0  0  0  0  0  0  # atno 8010 bound_to 7997
  139.4909  144.5838  151.6819 H   0  0  0  0  0  0  0  0  0  0  0  0  # atno 10167 bound_to 10162
  156.1009  130.6171  150.9118 H   0  0  0  0  0  0  0  0  0  0  0  0  # atno 10718 bound_to 10713
  153.3654  135.3944  155.1749 H   0  0  0  0  0  0  0  0  0  0  0  0  # atno 10763 bound_to 10752
  154.8686  135.3689  154.5046 H   0  0  0  0  0  0  0  0  0  0  0  0  # atno 10764 bound_to 10752
  153.5509  135.7083  153.5652 H   0  0  0  0  0  0  0  0  0  0  0  0  # atno 10765 bound_to 10752
  140.1826  134.8464  157.2821 H   0  0  0  0  0  0  0  0  0  0  0  0  # atno 11005 bound_to 11000
  144.7275  139.7829  143.7359 LP  0  0  0  0  0  0  0  0  0  0  0  0  # atno 17320 bound_to 7965
  146.1514  139.4598  143.0046 LP  0  0  0  0  0  0  0  0  0  0  0  0  # atno 17321 bound_to 7965
  140.5450  144.0518  150.6103 LP  0  0  0  0  0  0  0  0  0  0  0  0  # atno 17342 bound_to 10162
  140.3553  143.2939  152.0443 LP  0  0  0  0  0  0  0  0  0  0  0  0  # atno 17343 bound_to 10162
  157.6178  131.0932  150.8678 LP  0  0  0  0  0  0  0  0  0  0  0  0  # atno 17370 bound_to 10713
  156.8806  130.5178  149.5291 LP  0  0  0  0  0  0  0  0  0  0  0  0  # atno 17371 bound_to 10713
  140.2249  134.3978  155.7548 LP  0  0  0  0  0  0  0  0  0  0  0  0  # atno 17394 bound_to 11000
  141.2223  133.7185  156.8550 LP  0  0  0  0  0  0  0  0  0  0  0  0  # atno 17395 bound_to 11000

$$$$
