AV-unprocessed.smi:823|AV-procd|sdf|3845|dock2
  -GOLD-   22720 1293D 1   1.00000     0.00000
 Structure written by MMmdl.
 46 47  0  0  0  0  0  0  0  0  1 V2000
  153.1229  142.3656  161.8696 C   0  0  0  0  0  0  0  0  0  0  0  0
  153.0193  142.6992  160.3776 C   0  0  1  0  0  0  0  0  0  0  0  0
  152.3843  141.5505  159.5707 C   0  0  0  0  0  0  0  0  0  0  0  0
  152.1976  141.9445  158.1753 N   0  0  0  0  0  0  0  0  0  0  0  0
  151.8638  140.9384  157.2426 C   0  0  0  0  0  0  0  0  0  0  0  0
  150.6715  141.0359  156.4861 C   0  0  0  0  0  0  0  0  0  0  0  0
  150.3543  140.0169  155.5684 C   0  0  0  0  0  0  0  0  0  0  0  0
  151.2341  138.9238  155.4274 C   0  0  0  0  0  0  0  0  0  0  0  0
  150.9520  137.7887  154.4543 C   0  0  0  0  0  0  0  0  0  0  0  0
  149.5313  137.5559  154.2185 N   0  0  0  0  0  0  0  0  0  0  0  0
  148.6019  137.4511  155.1803 C   0  0  0  0  0  0  0  0  0  0  0  0
  148.8632  137.5291  156.3820 O   0  0  0  0  0  0  0  0  0  0  0  0
  147.1538  137.2550  154.7051 C   0  0  2  0  0  0  0  0  0  0  0  0
  146.6567  135.9034  155.2452 C   0  0  0  0  0  0  0  0  0  0  0  0
  147.0931  137.2106  153.2451 N   0  0  0  0  0  0  0  0  0  0  0  0
  146.0036  137.4835  152.5123 C   0  0  0  0  0  0  0  0  0  0  0  0
  146.2347  137.3838  151.2029 N   0  0  0  0  0  0  0  0  0  0  0  0
  144.9088  137.7926  152.9788 O   0  0  0  0  0  0  0  0  0  0  0  0
  152.4050  138.9176  156.2113 C   0  0  0  0  0  0  0  0  0  0  0  0
  152.7142  139.8924  157.0920 N   0  0  0  0  0  0  0  0  0  0  0  0
  151.4813  143.2084  158.0238 C   0  0  0  0  0  0  0  0  0  0  0  0
  152.1385  144.3027  158.8814 C   0  0  0  0  0  0  0  0  0  0  0  0
  152.2197  143.8699  160.2353 O   0  0  0  0  0  0  0  0  0  0  0  0
  153.7384  141.4804  162.0316 H   0  0  0  0  0  0  0  0  0  0  0  0
  152.1396  142.1730  162.3002 H   0  0  0  0  0  0  0  0  0  0  0  0
  153.5739  143.1896  162.4229 H   0  0  0  0  0  0  0  0  0  0  0  0
  154.0222  142.9034  159.9979 H   0  0  0  0  0  0  0  0  0  0  0  0
  153.0273  140.6710  159.6287 H   0  0  0  0  0  0  0  0  0  0  0  0
  151.4186  141.2779  159.9989 H   0  0  0  0  0  0  0  0  0  0  0  0
  150.0072  141.8810  156.5874 H   0  0  0  0  0  0  0  0  0  0  0  0
  149.4490  140.0812  154.9826 H   0  0  0  0  0  0  0  0  0  0  0  0
  151.4203  138.0317  153.5003 H   0  0  0  0  0  0  0  0  0  0  0  0
  151.4241  136.8690  154.8046 H   0  0  0  0  0  0  0  0  0  0  0  0
  149.2323  137.4790  153.2571 H   0  0  0  0  0  0  0  0  0  0  0  0
  146.5168  138.0578  155.0821 H   0  0  0  0  0  0  0  0  0  0  0  0
  146.6811  135.8789  156.3356 H   0  0  0  0  0  0  0  0  0  0  0  0
  147.2621  135.0718  154.8809 H   0  0  0  0  0  0  0  0  0  0  0  0
  145.6261  135.7181  154.9408 H   0  0  0  0  0  0  0  0  0  0  0  0
  147.9472  136.9738  152.7623 H   0  0  0  0  0  0  0  0  0  0  0  0
  145.4946  137.5617  150.5400 H   0  0  0  0  0  0  0  0  0  0  0  0
  147.1558  137.1262  150.8792 H   0  0  0  0  0  0  0  0  0  0  0  0
  153.1146  138.1069  156.1340 H   0  0  0  0  0  0  0  0  0  0  0  0
  151.4572  143.5403  156.9869 H   0  0  0  0  0  0  0  0  0  0  0  0
  150.4458  143.0639  158.3347 H   0  0  0  0  0  0  0  0  0  0  0  0
  153.1331  144.5471  158.5048 H   0  0  0  0  0  0  0  0  0  0  0  0
  151.5483  145.2180  158.8367 H   0  0  0  0  0  0  0  0  0  0  0  0
  1  2  1  0  0  0  0
  1 24  1  0  0  0  0
  1 25  1  0  0  0  0
  1 26  1  0  0  0  0
  2 23  1  0  0  0  0
  2  3  1  0  0  0  0
  2 27  1  0  0  0  0
  3  4  1  0  0  0  0
  3 28  1  0  0  0  0
  3 29  1  0  0  0  0
  4  5  1  0  0  0  0
  4 21  1  0  0  0  0
  5 20  1  0  0  0  0
  5  6  2  0  0  0  0
  6  7  1  0  0  0  0
  6 30  1  0  0  0  0
  7  8  2  0  0  0  0
  7 31  1  0  0  0  0
  8  9  1  0  0  0  0
  8 19  1  0  0  0  0
  9 10  1  0  0  0  0
  9 32  1  0  0  0  0
  9 33  1  0  0  0  0
 10 11  1  0  0  0  0
 10 34  1  0  0  0  0
 11 12  2  0  0  0  0
 11 13  1  0  0  0  0
 13 14  1  0  0  0  0
 13 15  1  0  0  0  0
 13 35  1  0  0  0  0
 14 36  1  0  0  0  0
 14 37  1  0  0  0  0
 14 38  1  0  0  0  0
 15 16  1  0  0  0  0
 15 39  1  0  0  0  0
 16 17  1  0  0  0  0
 16 18  2  0  0  0  0
 17 40  1  0  0  0  0
 17 41  1  0  0  0  0
 19 20  2  0  0  0  0
 19 42  1  0  0  0  0
 21 22  1  0  0  0  0
 21 43  1  0  0  0  0
 21 44  1  0  0  0  0
 22 23  1  0  0  0  0
 22 45  1  0  0  0  0
 22 46  1  0  0  0  0
M  END
> <s_m_source_file>
AV-unprocessed.smi

> <i_m_source_file_index>
823

> <i_lp_mmshare_version>
43012

> <i_f3d_flags>
0

> <s_epik_input>
W0NIM11bQ0BASF0xW0NIMl1OKFtDSDJdW0NIMl1PMSljMltjSF1bY0hdYyhbY0hdbjIpW0NIMl1bTkhdQyg9TylbQ0BIXShbQ0gzXSlbTkhdQyg9TylbTkgyXQ==

> <s_epik_cmdline>
J2VwaWtfcHl0aG9uJywgJy1waCcsICc3LjAnLCAnLXRuJywgJzgnLCAnLW1hJywgJzIwMCcsICctbWV0YWxfYmluZGluZycsICctaW1hZScsICc8aW5maWxlLm1hZT4nLCAnLW9tYWUnLCAnPG91dGZpbGUubWFlPic=

> <r_lp_tautomer_probability>
1

> <r_epik_Ionization_Penalty>
0.00555043

> <r_epik_Ionization_Penalty_Charging>
0

> <r_epik_Ionization_Penalty_Neutral>
0.00555043

> <r_epik_State_Penalty>
0.00402575

> <r_epik_Charging_Adjusted_Penalty>
0.00402575

> <i_epik_Tot_Q>
0

> <i_epik_Tot_abs_Q>
0

> <r_epik_Metal_State_Penalty>
-0

> <b_epik_Metal_Only>
0

> <s_lp_Force_Field>
OPLS_2005

> <r_lp_Energy>
8.16045

> <b_lp_Chiralities_Consistent>
1

> <s_lp_Variant>
AV-unprocessed.smi:823-2

> <Gold.Version>
5.8.1

> <Gold.Id.Protein>
6NUR|6NUR_protein|mol2

> <Gold.PLP.Fitness>
50.8656

> <Gold.PLP.PLP>
-39.6886

> <Gold.PLP.part.hbond>
-4.9421

> <Gold.PLP.part.metal>
0.0000

> <Gold.PLP.part.buried>
-5.8961

> <Gold.PLP.part.nonpolar>
-30.4865

> <Gold.PLP.part.repulsive>
1.3651

> <Gold.PLP.ligand.clash>
0.0000

> <Gold.PLP.ligand.torsion>
1.0079

> <Gold.PLP.Chemscore.Hbond>
4.2674

> <Gold.PLP.Chemscore.CHOScore>
0.0000

> <Gold.PLP.Chemscore.Metal>
0.0000

> <Gold.Chemscore.Hbonds>
donor molecule, donor type, donor heavy atom, donor atom, acceptor molecule, acceptor atom, score
      L1  H    10    34       P1  7948  0.86
      L1  H    15    39       P1  7948  1.00
      L1  H    17    40       P1 10171  0.96
      L1  H    17    41       P1  7948  0.44
      P1  H  7997  8009       L1    20  1.00

> <Gold.PLP.Chemscore.Internal.Correction>
0.3907

> <Gold.Rescore>
     Score         DG    S(hbond)    S(metal)    S(lipo)     H(rot)  DE(clash)    DE(int)     intcor
     18.64     -22.37       3.89        0.00      90.54       2.62       0.45       3.29       ----

> <Gold.Chemscore.Fitness>
18.6383

> <Gold.Chemscore.DG>
-22.3719

> <Gold.Chemscore.ZeroCoef>
-5.4800

> <Gold.Chemscore.Hbond>
3.8912

> <Gold.Chemscore.Metal>
0.0000

> <Gold.Chemscore.Lipo>
90.5387

> <Gold.Chemscore.Internal_Hbond>
0.0000

> <Gold.Chemscore.DEClash>
0.4477

> <Gold.Chemscore.DEInternal>
3.2859

> <Gold.Chemscore.Rot>
2.6163

> <Gold.Chemscore.Internal.Correction>
   9.000000E+99

> <Gold.Chemscore.Hbonds>
donor molecule, donor type, donor heavy atom, donor atom, acceptor molecule, acceptor atom, score
      L1  H    10    34       P1  7948  0.84
      L1  H    15    39       P1  7948  0.93
      L1  H    17    40       P1 10171  0.89
      L1  H    17    41       P1  7948  0.45
      P1  H  7997  8009       L1    20  0.29

> <Gold.Chemscore.Hbond.Weighted>
-12.9966

> <Gold.Chemscore.Metal.Weighted>
-0.0000

> <Gold.Chemscore.Lipo.Weighted>
-10.5930

> <Gold.Chemscore.Internal_Hbond.Weighted>
0.0000

> <Gold.Chemscore.DEClash.Weighted>
0.4477

> <Gold.Chemscore.DEInternal.Weighted>
3.2859

> <Gold.Chemscore.Rot.Weighted>
6.6978

> <Gold.Chemscore.Internal.Correction.Weighted>
   9.000000E+99

> <Gold.Protein.RotatedTorsions>
[ 6907 6896 6895 6894 ] final  -73.66 input  -60.11 | X-H torsion
[ 7974 7965 7964 7962 ] final -130.98 input  175.53 | X-H torsion
[ 8008 7997 7996 7995 ] final  168.40 input   59.86 | X-H torsion
[ 10167 10162 10161 10158 ] final  141.41 input  -65.29 | X-H torsion
[ 10718 10713 10712 10709 ] final  -57.66 input   66.30 | X-H torsion
[ 10763 10752 10751 10750 ] final   -4.60 input  -60.55 | X-H torsion
[ 11005 11000 10999 10996 ] final   26.58 input  -57.11 | X-H torsion

> <Gold.Protein.ActiveResidues>
 VAL166  LYS551  ARG553  GLY616  TRP617  ASP618  TYR619  PRO620  LYS621  CYS622 
 ASP623  PHE694  ASN695  SER759  ASP760  ASP761  ALA762  ILE779  LEU786  VAL792 
 PHE793  MET794  SER795  GLU796  ALA797  LYS798  CYS799  TRP800  GLU811  SER814 

> <Gold.Protein.RotatedAtoms>
  150.7122  134.4984  159.5549 H   0  0  0  0  0  0  0  0  0  0  0  0  # atno 6907 bound_to 6896
  152.2586  134.8054  160.0443 H   0  0  0  0  0  0  0  0  0  0  0  0  # atno 6908 bound_to 6896
  151.8776  133.3453  159.3792 H   0  0  0  0  0  0  0  0  0  0  0  0  # atno 6909 bound_to 6896
  144.9423  140.7252  143.4839 H   0  0  0  0  0  0  0  0  0  0  0  0  # atno 7974 bound_to 7965
  156.1550  140.1591  156.8707 H   0  0  0  0  0  0  0  0  0  0  0  0  # atno 8008 bound_to 7997
  154.5106  140.0802  156.8019 H   0  0  0  0  0  0  0  0  0  0  0  0  # atno 8009 bound_to 7997
  155.3821  140.3405  155.4249 H   0  0  0  0  0  0  0  0  0  0  0  0  # atno 8010 bound_to 7997
  139.5021  144.6173  151.6133 H   0  0  0  0  0  0  0  0  0  0  0  0  # atno 10167 bound_to 10162
  156.1193  130.4167  150.0471 H   0  0  0  0  0  0  0  0  0  0  0  0  # atno 10718 bound_to 10713
  153.3871  135.7000  153.6522 H   0  0  0  0  0  0  0  0  0  0  0  0  # atno 10763 bound_to 10752
  153.5110  135.3632  155.2587 H   0  0  0  0  0  0  0  0  0  0  0  0  # atno 10764 bound_to 10752
  154.8698  135.4135  154.3180 H   0  0  0  0  0  0  0  0  0  0  0  0  # atno 10765 bound_to 10752
  140.3355  134.2391  155.7696 H   0  0  0  0  0  0  0  0  0  0  0  0  # atno 11005 bound_to 11000
  145.2972  139.1863  143.4709 LP  0  0  0  0  0  0  0  0  0  0  0  0  # atno 17320 bound_to 7965
  146.3290  140.2958  142.8618 LP  0  0  0  0  0  0  0  0  0  0  0  0  # atno 17321 bound_to 7965
  140.5865  143.9855  150.6298 LP  0  0  0  0  0  0  0  0  0  0  0  0  # atno 17342 bound_to 10162
  140.3021  143.3253  152.0961 LP  0  0  0  0  0  0  0  0  0  0  0  0  # atno 17343 bound_to 10162
  156.8414  130.9427  151.3631 LP  0  0  0  0  0  0  0  0  0  0  0  0  # atno 17370 bound_to 10713
  157.6377  130.8780  149.9389 LP  0  0  0  0  0  0  0  0  0  0  0  0  # atno 17371 bound_to 10713
  141.2052  133.7865  157.0244 LP  0  0  0  0  0  0  0  0  0  0  0  0  # atno 17394 bound_to 11000
  140.0825  134.9640  157.1647 LP  0  0  0  0  0  0  0  0  0  0  0  0  # atno 17395 bound_to 11000

$$$$
