AV-unprocessed.smi:2083|AV-procd|sdf|8502|dock4
  -GOLD-   2272011213D 1   1.00000     0.00000
 Structure written by MMmdl.
 44 45  0  0  0  0  0  0  0  0  3 V2000
  147.0868  135.7062  162.8500 C   0  0  0  0  0  0  0  0  0  0  0  0
  147.7283  135.6390  161.5060 C   0  0  0  0  0  0  0  0  0  0  0  0
  147.8102  134.6510  160.5660 C   0  0  0  0  0  0  0  0  0  0  0  0
  148.5597  135.2577  159.5214 C   0  0  0  0  0  0  0  0  0  0  0  0
  148.9235  134.6748  158.3687 N   0  5  0  0  0  0  0  0  0  0  0  0
  148.7970  135.3391  157.1974 C   0  0  0  0  0  0  0  0  0  0  0  0
  148.7964  136.5623  157.0421 O   0  0  0  0  0  0  0  0  0  0  0  0
  148.6618  134.5328  156.1369 N   0  0  0  0  0  0  0  0  0  0  0  0
  148.5113  134.9732  154.7554 C   0  0  0  0  0  0  0  0  0  0  0  0
  147.4498  134.1410  153.9976 C   0  0  2  0  0  0  0  0  0  0  0  0
  148.0582  132.7958  153.5297 C   0  0  0  0  0  0  0  0  0  0  0  0
  146.8582  134.9635  152.8915 N   0  3  1  0  0  0  0  0  0  0  0  0
  146.1377  134.2087  151.8248 C   0  0  0  0  0  0  0  0  0  0  0  0
  145.7001  135.1305  150.6743 C   0  0  0  0  0  0  0  0  0  0  0  0
  144.8491  136.2987  151.1845 C   0  0  0  0  0  0  0  0  0  0  0  0
  145.5725  137.0538  152.3115 C   0  0  2  0  0  0  0  0  0  0  0  0
  146.7395  137.9192  151.8044 C   0  0  0  0  0  0  0  0  0  0  0  0
  146.0096  136.0727  153.4173 C   0  0  0  0  0  0  0  0  0  0  0  0
  148.9148  136.4987  159.8088 N   0  0  0  0  0  0  0  0  0  0  0  0
  148.3803  136.7531  161.0775 O   0  0  0  0  0  0  0  0  0  0  0  0
  147.4944  134.9403  163.5099 H   0  0  0  0  0  0  0  0  0  0  0  0
  146.0112  135.5479  162.7712 H   0  0  0  0  0  0  0  0  0  0  0  0
  147.2519  136.6774  163.3174 H   0  0  0  0  0  0  0  0  0  0  0  0
  147.3980  133.6543  160.6157 H   0  0  0  0  0  0  0  0  0  0  0  0
  148.6686  133.5378  156.3070 H   0  0  0  0  0  0  0  0  0  0  0  0
  148.2544  136.0316  154.7751 H   0  0  0  0  0  0  0  0  0  0  0  0
  149.4718  134.8942  154.2430 H   0  0  0  0  0  0  0  0  0  0  0  0
  146.6454  133.8906  154.6915 H   0  0  0  0  0  0  0  0  0  0  0  0
  148.4846  132.2349  154.3614 H   0  0  0  0  0  0  0  0  0  0  0  0
  148.8557  132.9495  152.8020 H   0  0  0  0  0  0  0  0  0  0  0  0
  147.3089  132.1396  153.0869 H   0  0  0  0  0  0  0  0  0  0  0  0
  146.7777  133.4440  151.3866 H   0  0  0  0  0  0  0  0  0  0  0  0
  145.2722  133.7020  152.2551 H   0  0  0  0  0  0  0  0  0  0  0  0
  146.5797  135.5105  150.1536 H   0  0  0  0  0  0  0  0  0  0  0  0
  145.1360  134.5583  149.9371 H   0  0  0  0  0  0  0  0  0  0  0  0
  144.5993  136.9745  150.3658 H   0  0  0  0  0  0  0  0  0  0  0  0
  143.9017  135.9108  151.5613 H   0  0  0  0  0  0  0  0  0  0  0  0
  144.8507  137.7421  152.7531 H   0  0  0  0  0  0  0  0  0  0  0  0
  147.5403  137.3160  151.3763 H   0  0  0  0  0  0  0  0  0  0  0  0
  147.1699  138.5062  152.6161 H   0  0  0  0  0  0  0  0  0  0  0  0
  146.4042  138.6185  151.0378 H   0  0  0  0  0  0  0  0  0  0  0  0
  145.1255  135.6430  153.8915 H   0  0  0  0  0  0  0  0  0  0  0  0
  146.5274  136.6297  154.1966 H   0  0  0  0  0  0  0  0  0  0  0  0
  147.6445  135.3959  152.4278 H   0  0  0  0  0  0  0  0  0  0  0  0
  1  2  1  0  0  0  0
  1 21  1  0  0  0  0
  1 22  1  0  0  0  0
  1 23  1  0  0  0  0
  2 20  1  0  0  0  0
  2  3  2  0  0  0  0
  3  4  1  0  0  0  0
  3 24  1  0  0  0  0
  4  5  1  0  0  0  0
  4 19  2  0  0  0  0
  5  6  1  0  0  0  0
  6  7  2  0  0  0  0
  6  8  1  0  0  0  0
  8  9  1  0  0  0  0
  8 25  1  0  0  0  0
  9 10  1  0  0  0  0
  9 26  1  0  0  0  0
  9 27  1  0  0  0  0
 10 11  1  0  0  0  0
 10 12  1  0  0  0  0
 10 28  1  0  0  0  0
 11 29  1  0  0  0  0
 11 30  1  0  0  0  0
 11 31  1  0  0  0  0
 12 18  1  0  0  0  0
 12 13  1  0  0  0  0
 12 44  1  0  0  0  0
 13 14  1  0  0  0  0
 13 32  1  0  0  0  0
 13 33  1  0  0  0  0
 14 15  1  0  0  0  0
 14 34  1  0  0  0  0
 14 35  1  0  0  0  0
 15 16  1  0  0  0  0
 15 36  1  0  0  0  0
 15 37  1  0  0  0  0
 16 17  1  0  0  0  0
 16 18  1  0  0  0  0
 16 38  1  0  0  0  0
 17 39  1  0  0  0  0
 17 40  1  0  0  0  0
 17 41  1  0  0  0  0
 18 42  1  0  0  0  0
 18 43  1  0  0  0  0
 19 20  1  0  0  0  0
M  CHG  1   5  -1
M  CHG  1  12   1
M  END
> <s_m_source_file>
AV-unprocessed.smi

> <i_m_source_file_index>
2083

> <i_lp_mmshare_version>
43012

> <i_f3d_flags>
0

> <s_epik_input>
W0NIM11jMVtjSF1jKG5vMSlbTkhdQyg9TylbTkhdW0NIMl1bQ0BIXShbQ0gzXSlOMltDSDJdW0NIMl1bQ0gyXVtDQEBIXShbQ0gzXSlbQ0gyXTI=

> <s_epik_cmdline>
J2VwaWtfcHl0aG9uJywgJy1waCcsICc3LjAnLCAnLXRuJywgJzgnLCAnLW1hJywgJzIwMCcsICctbWV0YWxfYmluZGluZycsICctaW1hZScsICc8aW5maWxlLm1hZT4nLCAnLW9tYWUnLCAnPG91dGZpbGUubWFlPic=

> <r_epik_Ionization_Penalty>
6.22434

> <r_epik_Ionization_Penalty_Charging>
6.22425

> <r_epik_Ionization_Penalty_Neutral>
9.62407e-05

> <r_epik_State_Penalty>
6.22423

> <r_epik_Charging_Adjusted_Penalty>
12.4485

> <i_epik_Tot_Q>
0

> <i_epik_Tot_abs_Q>
2

> <r_epik_Metal_State_Penalty>
2.16764

> <b_epik_Metal_Only>
1

> <s_lp_Force_Field>
OPLS_2005

> <r_lp_Energy>
14.8953

> <b_lp_Chiralities_Consistent>
1

> <s_lp_Variant>
AV-unprocessed.smi:2083-13

> <Gold.Version>
5.8.1

> <Gold.Id.Protein>
6NUR|6NUR_protein|mol2

> <Gold.PLP.Fitness>
44.4832

> <Gold.PLP.PLP>
-29.6979

> <Gold.PLP.part.hbond>
-4.7627

> <Gold.PLP.part.metal>
0.0000

> <Gold.PLP.part.buried>
-0.7144

> <Gold.PLP.part.nonpolar>
-24.0342

> <Gold.PLP.part.repulsive>
0.0303

> <Gold.PLP.ligand.clash>
0.0000

> <Gold.PLP.ligand.torsion>
1.1520

> <Gold.PLP.Chemscore.Hbond>
5.6688

> <Gold.PLP.Chemscore.CHOScore>
0.0000

> <Gold.PLP.Chemscore.Metal>
0.0000

> <Gold.Chemscore.Hbonds>
donor molecule, donor type, donor heavy atom, donor atom, acceptor molecule, acceptor atom, score
      L1  H    12    44       P1  7948  2.00
      P1  H  6896  6907       L1     5  0.20
      P1  H  6931  6943       L1    20  1.00

> <Gold.PLP.Chemscore.Internal.Correction>
0.0828

> <Gold.Rescore>
     Score         DG    S(hbond)    S(metal)    S(lipo)     H(rot)  DE(clash)    DE(int)     intcor
     14.09     -16.79       2.16        0.00      68.32       1.52       0.15       2.55       ----

> <Gold.Chemscore.Fitness>
14.0906

> <Gold.Chemscore.DG>
-16.7927

> <Gold.Chemscore.ZeroCoef>
-5.4800

> <Gold.Chemscore.Hbond>
2.1580

> <Gold.Chemscore.Metal>
0.0000

> <Gold.Chemscore.Lipo>
68.3215

> <Gold.Chemscore.Internal_Hbond>
0.0000

> <Gold.Chemscore.DEClash>
0.1542

> <Gold.Chemscore.DEInternal>
2.5479

> <Gold.Chemscore.Rot>
1.5190

> <Gold.Chemscore.Internal.Correction>
   9.000000E+99

> <Gold.Chemscore.Hbonds>
donor molecule, donor type, donor heavy atom, donor atom, acceptor molecule, acceptor atom, score
      L1  H    12    44       P1  7948  0.99
      P1  H  6931  6943       L1    20  0.88

> <Gold.Chemscore.Hbond.Weighted>
-7.2078

> <Gold.Chemscore.Metal.Weighted>
-0.0000

> <Gold.Chemscore.Lipo.Weighted>
-7.9936

> <Gold.Chemscore.Internal_Hbond.Weighted>
0.0000

> <Gold.Chemscore.DEClash.Weighted>
0.1542

> <Gold.Chemscore.DEInternal.Weighted>
2.5479

> <Gold.Chemscore.Rot.Weighted>
3.8886

> <Gold.Chemscore.Internal.Correction.Weighted>
   9.000000E+99

> <Gold.Protein.RotatedTorsions>
[ 6907 6896 6895 6894 ] final  -89.19 input  -60.11 | X-H torsion
[ 7974 7965 7964 7962 ] final  -93.55 input  175.53 | X-H torsion
[ 8008 7997 7996 7995 ] final  156.65 input   59.86 | X-H torsion
[ 10167 10162 10161 10158 ] final    4.61 input  -65.29 | X-H torsion
[ 10718 10713 10712 10709 ] final -157.21 input   66.30 | X-H torsion
[ 10763 10752 10751 10750 ] final  -86.22 input  -60.55 | X-H torsion
[ 11005 11000 10999 10996 ] final    1.55 input  -57.11 | X-H torsion

> <Gold.Protein.ActiveResidues>
 VAL166  LYS551  ARG553  GLY616  TRP617  ASP618  TYR619  PRO620  LYS621  CYS622 
 ASP623  PHE694  ASN695  SER759  ASP760  ASP761  ALA762  ILE779  LEU786  VAL792 
 PHE793  MET794  SER795  GLU796  ALA797  LYS798  CYS799  TRP800  GLU811  SER814 

> <Gold.Protein.RotatedAtoms>
  150.6872  134.2625  159.4554 H   0  0  0  0  0  0  0  0  0  0  0  0  # atno 6907 bound_to 6896
  152.0554  134.9625  160.0584 H   0  0  0  0  0  0  0  0  0  0  0  0  # atno 6908 bound_to 6896
  152.1073  133.4247  159.4651 H   0  0  0  0  0  0  0  0  0  0  0  0  # atno 6909 bound_to 6896
  145.3850  140.9522  143.2372 H   0  0  0  0  0  0  0  0  0  0  0  0  # atno 7974 bound_to 7965
  156.2410  140.1906  156.6988 H   0  0  0  0  0  0  0  0  0  0  0  0  # atno 8008 bound_to 7997
  154.6197  140.0610  156.9626 H   0  0  0  0  0  0  0  0  0  0  0  0  # atno 8009 bound_to 7997
  155.1882  140.3282  155.4366 H   0  0  0  0  0  0  0  0  0  0  0  0  # atno 8010 bound_to 7997
  140.6526  143.7508  150.7599 H   0  0  0  0  0  0  0  0  0  0  0  0  # atno 10167 bound_to 10162
  156.5372  130.8547  151.2736 H   0  0  0  0  0  0  0  0  0  0  0  0  # atno 10718 bound_to 10713
  154.6200  135.5457  153.7564 H   0  0  0  0  0  0  0  0  0  0  0  0  # atno 10763 bound_to 10752
  153.0234  135.6410  154.1455 H   0  0  0  0  0  0  0  0  0  0  0  0  # atno 10764 bound_to 10752
  154.1390  135.2909  155.3146 H   0  0  0  0  0  0  0  0  0  0  0  0  # atno 10765 bound_to 10752
  140.6142  133.9720  155.8192 H   0  0  0  0  0  0  0  0  0  0  0  0  # atno 11005 bound_to 11000
  144.8481  139.5365  143.6869 LP  0  0  0  0  0  0  0  0  0  0  0  0  # atno 17320 bound_to 7965
  146.2824  139.6913  142.9219 LP  0  0  0  0  0  0  0  0  0  0  0  0  # atno 17321 bound_to 7965
  140.1161  143.4654  152.2341 LP  0  0  0  0  0  0  0  0  0  0  0  0  # atno 17342 bound_to 10162
  139.5743  144.7479  151.3807 LP  0  0  0  0  0  0  0  0  0  0  0  0  # atno 17343 bound_to 10162
  157.7411  130.9864  150.2426 LP  0  0  0  0  0  0  0  0  0  0  0  0  # atno 17370 bound_to 10713
  156.3005  130.3758  149.7755 LP  0  0  0  0  0  0  0  0  0  0  0  0  # atno 17371 bound_to 10713
  141.0787  134.0095  157.3419 LP  0  0  0  0  0  0  0  0  0  0  0  0  # atno 17394 bound_to 11000
  139.9179  135.0198  156.7954 LP  0  0  0  0  0  0  0  0  0  0  0  0  # atno 17395 bound_to 11000

$$$$
