AV-unprocessed.smi:2477|AV-procd|sdf|9761|dock7
  -GOLD-   2272013403D 1   1.00000     0.00000
 Structure written by MMmdl.
 51 53  0  0  0  0  0  0  0  0  1 V2000
  145.7072  129.2840  152.1734 C   0  0  0  0  0  0  0  0  0  0  0  0
  145.7262  130.7102  151.8380 N   0  0  0  0  0  0  0  0  0  0  0  0
  144.8117  131.1629  150.8723 C   0  0  0  0  0  0  0  0  0  0  0  0
  144.7591  132.4500  150.5034 C   0  0  0  0  0  0  0  0  0  0  0  0
  145.6717  133.3804  151.1233 C   0  0  0  0  0  0  0  0  0  0  0  0
  146.5643  132.9652  152.0580 C   0  0  0  0  0  0  0  0  0  0  0  0
  147.4916  133.7935  152.7162 N   0  0  0  0  0  0  0  0  0  0  0  0
  147.8840  133.8042  154.0033 C   0  0  0  0  0  0  0  0  0  0  0  0
  147.4814  133.0553  154.8926 O   0  0  0  0  0  0  0  0  0  0  0  0
  148.8085  134.7527  154.2073 N   0  0  0  0  0  0  0  0  0  0  0  0
  149.4774  135.0232  155.4769 C   0  0  2  0  0  0  0  0  0  0  0  0
  148.4293  135.2966  156.5724 C   0  0  0  0  0  0  0  0  0  0  0  0
  149.0966  135.6011  157.9225 C   0  0  0  0  0  0  0  0  0  0  0  0
  150.0809  136.7745  157.8037 C   0  0  0  0  0  0  0  0  0  0  0  0
  151.1305  136.5148  156.7101 C   0  0  0  0  0  0  0  0  0  0  0  0
  150.4814  136.1946  155.3507 C   0  0  2  0  0  0  0  0  0  0  0  0
  149.8025  137.3648  154.9029 O   0  0  0  0  0  0  0  0  0  0  0  0
  150.5434  138.1956  154.0167 C   0  0  0  0  0  0  0  0  0  0  0  0
  151.9845  138.3648  154.5084 C   0  0  0  0  0  0  0  0  0  0  0  0
  151.9000  139.4045  155.6306 C   0  0  0  0  0  0  0  0  0  0  0  0
  150.6307  140.2270  155.3585 C   0  0  0  0  0  0  0  0  0  0  0  0
  149.9750  139.6109  154.1163 C   0  0  0  0  0  0  0  0  0  0  0  0
  146.6141  131.5443  152.4565 C   0  0  0  0  0  0  0  0  0  0  0  0
  147.4073  131.1175  153.2995 O   0  0  0  0  0  0  0  0  0  0  0  0
  144.9343  128.7342  151.6353 H   0  0  0  0  0  0  0  0  0  0  0  0
  145.5227  129.1421  153.2394 H   0  0  0  0  0  0  0  0  0  0  0  0
  146.6647  128.8217  151.9293 H   0  0  0  0  0  0  0  0  0  0  0  0
  144.1629  130.4067  150.4545 H   0  0  0  0  0  0  0  0  0  0  0  0
  144.0511  132.7837  149.7593 H   0  0  0  0  0  0  0  0  0  0  0  0
  145.6060  134.4071  150.8054 H   0  0  0  0  0  0  0  0  0  0  0  0
  147.9308  134.4770  152.1166 H   0  0  0  0  0  0  0  0  0  0  0  0
  149.0870  135.3211  153.4210 H   0  0  0  0  0  0  0  0  0  0  0  0
  150.0303  134.1278  155.7684 H   0  0  0  0  0  0  0  0  0  0  0  0
  147.7979  136.1377  156.2822 H   0  0  0  0  0  0  0  0  0  0  0  0
  147.7671  134.4367  156.6784 H   0  0  0  0  0  0  0  0  0  0  0  0
  148.3361  135.8281  158.6701 H   0  0  0  0  0  0  0  0  0  0  0  0
  149.6247  134.7151  158.2773 H   0  0  0  0  0  0  0  0  0  0  0  0
  149.5329  137.6899  157.5765 H   0  0  0  0  0  0  0  0  0  0  0  0
  150.5760  136.9423  158.7605 H   0  0  0  0  0  0  0  0  0  0  0  0
  151.7896  137.3783  156.6154 H   0  0  0  0  0  0  0  0  0  0  0  0
  151.7632  135.6790  157.0113 H   0  0  0  0  0  0  0  0  0  0  0  0
  151.2770  135.9154  154.6571 H   0  0  0  0  0  0  0  0  0  0  0  0
  150.4897  137.8227  152.9929 H   0  0  0  0  0  0  0  0  0  0  0  0
  152.4467  137.4329  154.8338 H   0  0  0  0  0  0  0  0  0  0  0  0
  152.5946  138.7616  153.6960 H   0  0  0  0  0  0  0  0  0  0  0  0
  151.8105  138.9020  156.5946 H   0  0  0  0  0  0  0  0  0  0  0  0
  152.7939  140.0278  155.6688 H   0  0  0  0  0  0  0  0  0  0  0  0
  149.9573  140.1590  156.2138 H   0  0  0  0  0  0  0  0  0  0  0  0
  150.8555  141.2827  155.2030 H   0  0  0  0  0  0  0  0  0  0  0  0
  150.2718  140.1798  153.2342 H   0  0  0  0  0  0  0  0  0  0  0  0
  148.8854  139.6257  154.1626 H   0  0  0  0  0  0  0  0  0  0  0  0
  1  2  1  0  0  0  0
  1 25  1  0  0  0  0
  1 26  1  0  0  0  0
  1 27  1  0  0  0  0
  2 23  1  0  0  0  0
  2  3  1  0  0  0  0
  3  4  2  0  0  0  0
  3 28  1  0  0  0  0
  4  5  1  0  0  0  0
  4 29  1  0  0  0  0
  5  6  2  0  0  0  0
  5 30  1  0  0  0  0
  6  7  1  0  0  0  0
  6 23  1  0  0  0  0
  7  8  1  0  0  0  0
  7 31  1  0  0  0  0
  8  9  2  0  0  0  0
  8 10  1  0  0  0  0
 10 11  1  0  0  0  0
 10 32  1  0  0  0  0
 11 16  1  0  0  0  0
 11 12  1  0  0  0  0
 11 33  1  0  0  0  0
 12 13  1  0  0  0  0
 12 34  1  0  0  0  0
 12 35  1  0  0  0  0
 13 14  1  0  0  0  0
 13 36  1  0  0  0  0
 13 37  1  0  0  0  0
 14 15  1  0  0  0  0
 14 38  1  0  0  0  0
 14 39  1  0  0  0  0
 15 16  1  0  0  0  0
 15 40  1  0  0  0  0
 15 41  1  0  0  0  0
 16 17  1  0  0  0  0
 16 42  1  0  0  0  0
 17 18  1  0  0  0  0
 18 22  1  0  0  0  0
 18 19  1  0  0  0  0
 18 43  1  0  0  0  0
 19 20  1  0  0  0  0
 19 44  1  0  0  0  0
 19 45  1  0  0  0  0
 20 21  1  0  0  0  0
 20 46  1  0  0  0  0
 20 47  1  0  0  0  0
 21 22  1  0  0  0  0
 21 48  1  0  0  0  0
 21 49  1  0  0  0  0
 22 50  1  0  0  0  0
 22 51  1  0  0  0  0
 23 24  2  0  0  0  0
M  END
> <s_m_source_file>
AV-unprocessed.smi

> <i_m_source_file_index>
2477

> <i_lp_mmshare_version>
43012

> <i_f3d_flags>
0

> <s_epik_input>
W0NIM11uMVtjSF1bY0hdW2NIXWMoYzE9TylbTkhdQyg9TylbTkhdW0NAQEhdMltDSDJdW0NIMl1bQ0gyXVtDSDJdW0NASF0yT1tDSF0zW0NIMl1bQ0gyXVtDSDJdW0NIMl0z

> <s_epik_cmdline>
J2VwaWtfcHl0aG9uJywgJy1waCcsICc3LjAnLCAnLXRuJywgJzgnLCAnLW1hJywgJzIwMCcsICctbWV0YWxfYmluZGluZycsICctaW1hZScsICc8aW5maWxlLm1hZT4nLCAnLW9tYWUnLCAnPG91dGZpbGUubWFlPic=

> <r_lp_tautomer_probability>
1

> <r_epik_Ionization_Penalty>
2.40753e-05

> <r_epik_Ionization_Penalty_Charging>
4.84018e-06

> <r_epik_Ionization_Penalty_Neutral>
1.92352e-05

> <r_epik_State_Penalty>
-0

> <r_epik_Charging_Adjusted_Penalty>
4.84018e-06

> <i_epik_Tot_Q>
0

> <i_epik_Tot_abs_Q>
0

> <r_epik_Metal_State_Penalty>
-0

> <b_epik_Metal_Only>
0

> <s_lp_Force_Field>
OPLS_2005

> <r_lp_Energy>
42.349

> <b_lp_Chiralities_Consistent>
1

> <s_lp_Variant>
AV-unprocessed.smi:2477-3

> <Gold.Version>
5.8.1

> <Gold.Id.Protein>
6NUR|6NUR_protein|mol2

> <Gold.PLP.Fitness>
45.0771

> <Gold.PLP.PLP>
-41.0464

> <Gold.PLP.part.hbond>
-2.0000

> <Gold.PLP.part.metal>
0.0000

> <Gold.PLP.part.buried>
-5.2374

> <Gold.PLP.part.nonpolar>
-34.5831

> <Gold.PLP.part.repulsive>
0.2750

> <Gold.PLP.ligand.clash>
0.0056

> <Gold.PLP.ligand.torsion>
0.9987

> <Gold.PLP.Chemscore.Hbond>
2.0000

> <Gold.PLP.Chemscore.CHOScore>
0.0000

> <Gold.PLP.Chemscore.Metal>
0.0000

> <Gold.Chemscore.Hbonds>
donor molecule, donor type, donor heavy atom, donor atom, acceptor molecule, acceptor atom, score
      L1  H     7    31       P1  7948  1.00
      L1  H    10    32       P1  7948  1.00

> <Gold.PLP.Chemscore.Internal.Correction>
0.0337

> <Gold.Rescore>
     Score         DG    S(hbond)    S(metal)    S(lipo)     H(rot)  DE(clash)    DE(int)     intcor
     13.50     -19.09       1.88        0.00      92.41       1.36       0.00       5.60       ----

> <Gold.Chemscore.Fitness>
13.4976

> <Gold.Chemscore.DG>
-19.0938

> <Gold.Chemscore.ZeroCoef>
-5.4800

> <Gold.Chemscore.Hbond>
1.8784

> <Gold.Chemscore.Metal>
0.0000

> <Gold.Chemscore.Lipo>
92.4124

> <Gold.Chemscore.Internal_Hbond>
0.0000

> <Gold.Chemscore.DEClash>
0.0000

> <Gold.Chemscore.DEInternal>
5.5962

> <Gold.Chemscore.Rot>
1.3564

> <Gold.Chemscore.Internal.Correction>
   9.000000E+99

> <Gold.Chemscore.Hbonds>
donor molecule, donor type, donor heavy atom, donor atom, acceptor molecule, acceptor atom, score
      L1  H     7    31       P1  7948  0.24
      L1  H    10    32       P1  7948  0.45

> <Gold.Chemscore.Hbond.Weighted>
-6.2739

> <Gold.Chemscore.Metal.Weighted>
-0.0000

> <Gold.Chemscore.Lipo.Weighted>
-10.8123

> <Gold.Chemscore.Internal_Hbond.Weighted>
0.0000

> <Gold.Chemscore.DEClash.Weighted>
0.0000

> <Gold.Chemscore.DEInternal.Weighted>
5.5962

> <Gold.Chemscore.Rot.Weighted>
3.4724

> <Gold.Chemscore.Internal.Correction.Weighted>
   9.000000E+99

> <Gold.Protein.RotatedTorsions>
[ 6907 6896 6895 6894 ] final -148.38 input  -60.11 | X-H torsion
[ 7974 7965 7964 7962 ] final  101.05 input  175.53 | X-H torsion
[ 8008 7997 7996 7995 ] final  123.89 input   59.86 | X-H torsion
[ 10167 10162 10161 10158 ] final  127.46 input  -65.29 | X-H torsion
[ 10718 10713 10712 10709 ] final  -64.28 input   66.30 | X-H torsion
[ 10763 10752 10751 10750 ] final -105.96 input  -60.55 | X-H torsion
[ 11005 11000 10999 10996 ] final  136.82 input  -57.11 | X-H torsion

> <Gold.Protein.ActiveResidues>
 VAL166  LYS551  ARG553  GLY616  TRP617  ASP618  TYR619  PRO620  LYS621  CYS622 
 ASP623  PHE694  ASN695  SER759  ASP760  ASP761  ALA762  ILE779  LEU786  VAL792 
 PHE793  MET794  SER795  GLU796  ALA797  LYS798  CYS799  TRP800  GLU811  SER814 

> <Gold.Protein.RotatedAtoms>
  151.1690  133.4796  159.2593 H   0  0  0  0  0  0  0  0  0  0  0  0  # atno 6907 bound_to 6896
  151.1375  135.0162  159.8620 H   0  0  0  0  0  0  0  0  0  0  0  0  # atno 6908 bound_to 6896
  152.5461  134.1587  159.8602 H   0  0  0  0  0  0  0  0  0  0  0  0  # atno 6909 bound_to 6896
  145.3775  139.2386  143.3421 H   0  0  0  0  0  0  0  0  0  0  0  0  # atno 7974 bound_to 7965
  156.2782  140.2752  156.1700 H   0  0  0  0  0  0  0  0  0  0  0  0  # atno 8008 bound_to 7997
  155.0665  140.0387  157.2612 H   0  0  0  0  0  0  0  0  0  0  0  0  # atno 8009 bound_to 7997
  154.7075  140.2662  155.6666 H   0  0  0  0  0  0  0  0  0  0  0  0  # atno 8010 bound_to 7997
  139.5577  144.6860  151.4133 H   0  0  0  0  0  0  0  0  0  0  0  0  # atno 10167 bound_to 10162
  156.0739  130.4231  150.1397 H   0  0  0  0  0  0  0  0  0  0  0  0  # atno 10718 bound_to 10713
  154.7981  135.4730  154.0209 H   0  0  0  0  0  0  0  0  0  0  0  0  # atno 10763 bound_to 10752
  153.1736  135.6829  153.8581 H   0  0  0  0  0  0  0  0  0  0  0  0  # atno 10764 bound_to 10752
  153.8155  135.3211  155.3383 H   0  0  0  0  0  0  0  0  0  0  0  0  # atno 10765 bound_to 10752
  140.0072  134.9454  157.0200 H   0  0  0  0  0  0  0  0  0  0  0  0  # atno 11005 bound_to 11000
  146.2857  140.4437  142.8759 LP  0  0  0  0  0  0  0  0  0  0  0  0  # atno 17320 bound_to 7965
  144.8531  140.7031  143.6155 LP  0  0  0  0  0  0  0  0  0  0  0  0  # atno 17321 bound_to 7965
  140.6853  143.7989  150.7177 LP  0  0  0  0  0  0  0  0  0  0  0  0  # atno 17342 bound_to 10162
  140.1455  143.4404  152.2166 LP  0  0  0  0  0  0  0  0  0  0  0  0  # atno 17343 bound_to 10162
  156.9442  130.9754  151.3510 LP  0  0  0  0  0  0  0  0  0  0  0  0  # atno 17370 bound_to 10713
  157.5824  130.8386  149.8542 LP  0  0  0  0  0  0  0  0  0  0  0  0  # atno 17371 bound_to 10713
  140.4620  134.1475  155.7192 LP  0  0  0  0  0  0  0  0  0  0  0  0  # atno 17394 bound_to 11000
  141.1685  133.8655  157.1642 LP  0  0  0  0  0  0  0  0  0  0  0  0  # atno 17395 bound_to 11000

$$$$
