AV-unprocessed.smi:3083|AV-procd|sdf|11746|dock4
  -GOLD-   2272017143D 1   1.00000     0.00000
 Structure written by MMmdl.
 28 29  0  0  0  0  0  0  0  0  2 V2000
  142.4339  132.4255  150.2483 N   0  3  0  0  0  0  0  0  0  0  0  0
  143.9078  132.3899  150.2885 C   0  0  2  0  0  0  0  0  0  0  0  0
  144.4118  131.3802  151.3435 C   0  0  0  0  0  0  0  0  0  0  0  0
  145.9467  131.3609  151.4217 C   0  0  0  0  0  0  0  0  0  0  0  0
  146.5189  132.7675  151.6543 C   0  0  0  0  0  0  0  0  0  0  0  0
  146.0547  133.7382  150.5556 C   0  0  0  0  0  0  0  0  0  0  0  0
  144.5171  133.8138  150.4400 C   0  0  2  0  0  0  0  0  0  0  0  0
  143.9419  134.6355  151.5079 N   0  0  0  0  0  0  0  0  0  0  0  0
  144.0876  135.9982  151.6769 C   0  0  0  0  0  0  0  0  0  0  0  0
  143.4245  136.3500  152.8171 C   0  0  0  0  0  0  0  0  0  0  0  0
  142.9102  135.1161  153.3004 C   0  0  0  0  0  0  0  0  0  0  0  0
  143.2264  134.0956  152.5209 N   0  0  0  0  0  0  0  0  0  0  0  0
  142.0965  131.6178  149.7435 H   0  0  0  0  0  0  0  0  0  0  0  0
  142.1281  133.2667  149.7808 H   0  0  0  0  0  0  0  0  0  0  0  0
  144.2219  132.0110  149.3148 H   0  0  0  0  0  0  0  0  0  0  0  0
  144.0022  131.6022  152.3279 H   0  0  0  0  0  0  0  0  0  0  0  0
  144.0532  130.3804  151.0957 H   0  0  0  0  0  0  0  0  0  0  0  0
  146.2689  130.6918  152.2201 H   0  0  0  0  0  0  0  0  0  0  0  0
  146.3537  130.9527  150.4956 H   0  0  0  0  0  0  0  0  0  0  0  0
  146.2156  133.1353  152.6350 H   0  0  0  0  0  0  0  0  0  0  0  0
  147.6084  132.7235  151.6697 H   0  0  0  0  0  0  0  0  0  0  0  0
  146.4700  134.7308  150.7349 H   0  0  0  0  0  0  0  0  0  0  0  0
  146.4673  133.4090  149.6010 H   0  0  0  0  0  0  0  0  0  0  0  0
  144.2965  134.3483  149.5145 H   0  0  0  0  0  0  0  0  0  0  0  0
  144.6474  136.6013  150.9771 H   0  0  0  0  0  0  0  0  0  0  0  0
  143.3295  137.3370  153.2454 H   0  0  0  0  0  0  0  0  0  0  0  0
  142.3245  134.9321  154.1889 H   0  0  0  0  0  0  0  0  0  0  0  0
  142.0685  132.4101  151.1897 H   0  0  0  0  0  0  0  0  0  0  0  0
  1  2  1  0  0  0  0
  1 13  1  0  0  0  0
  1 14  1  0  0  0  0
  1 28  1  0  0  0  0
  2  7  1  0  0  0  0
  2  3  1  0  0  0  0
  2 15  1  0  0  0  0
  3  4  1  0  0  0  0
  3 16  1  0  0  0  0
  3 17  1  0  0  0  0
  4  5  1  0  0  0  0
  4 18  1  0  0  0  0
  4 19  1  0  0  0  0
  5  6  1  0  0  0  0
  5 20  1  0  0  0  0
  5 21  1  0  0  0  0
  6  7  1  0  0  0  0
  6 22  1  0  0  0  0
  6 23  1  0  0  0  0
  7  8  1  0  0  0  0
  7 24  1  0  0  0  0
  8 12  1  0  0  0  0
  8  9  1  0  0  0  0
  9 10  2  0  0  0  0
  9 25  1  0  0  0  0
 10 11  1  0  0  0  0
 10 26  1  0  0  0  0
 11 12  2  0  0  0  0
 11 27  1  0  0  0  0
M  CHG  1   1   1
M  END
> <s_m_source_file>
AV-unprocessed.smi

> <i_m_source_file_index>
3083

> <i_lp_mmshare_version>
43012

> <i_f3d_flags>
0

> <s_epik_input>
W05IMl1bQ0BASF0xW0NIMl1bQ0gyXVtDSDJdW0NIMl1bQ0BIXTFuMltjSF1bY0hdW2NIXW4y

> <s_epik_cmdline>
J2VwaWtfcHl0aG9uJywgJy1waCcsICc3LjAnLCAnLXRuJywgJzgnLCAnLW1hJywgJzIwMCcsICctbWV0YWxfYmluZGluZycsICctaW1hZScsICc8aW5maWxlLm1hZT4nLCAnLW9tYWUnLCAnPG91dGZpbGUubWFlPic=

> <r_lp_tautomer_probability>
1

> <r_epik_Ionization_Penalty>
0.00385053

> <r_epik_Ionization_Penalty_Charging>
0.0038389

> <r_epik_Ionization_Penalty_Neutral>
1.16305e-05

> <r_epik_State_Penalty>
-0

> <r_epik_Charging_Adjusted_Penalty>
0.0038389

> <i_epik_Tot_Q>
1

> <i_epik_Tot_abs_Q>
1

> <r_epik_Metal_State_Penalty>
-0

> <b_epik_Metal_Only>
0

> <s_lp_Force_Field>
OPLS_2005

> <r_lp_Energy>
16.3847

> <b_lp_Chiralities_Consistent>
1

> <s_lp_Variant>
AV-unprocessed.smi:3083-3

> <Gold.Version>
5.8.1

> <Gold.Id.Protein>
6NUR|6NUR_protein|mol2

> <Gold.PLP.Fitness>
35.4443

> <Gold.PLP.PLP>
-24.5391

> <Gold.PLP.part.hbond>
-1.9795

> <Gold.PLP.part.metal>
0.0000

> <Gold.PLP.part.buried>
-3.6856

> <Gold.PLP.part.nonpolar>
-19.8582

> <Gold.PLP.part.repulsive>
0.2925

> <Gold.PLP.ligand.clash>
0.0000

> <Gold.PLP.ligand.torsion>
0.2974

> <Gold.PLP.Chemscore.Hbond>
2.8800

> <Gold.PLP.Chemscore.CHOScore>
0.9318

> <Gold.PLP.Chemscore.Metal>
0.0000

> <Gold.Chemscore.Hbonds>
donor molecule, donor type, donor heavy atom, donor atom, acceptor molecule, acceptor atom, score
      L1  H     1    13       P1 10952  0.94
      L1  H     1    14       P1 10186  1.98
      L1  C     9    25       P1 10171  0.94

> <Gold.PLP.Chemscore.Internal.Correction>
0.0646

> <Gold.Rescore>
     Score         DG    S(hbond)    S(metal)    S(lipo)     H(rot)  DE(clash)    DE(int)     intcor
     15.04     -16.53       1.91        0.00      61.81       1.00       0.01       1.48       ----

> <Gold.Chemscore.Fitness>
15.0381

> <Gold.Chemscore.DG>
-16.5292

> <Gold.Chemscore.ZeroCoef>
-5.4800

> <Gold.Chemscore.Hbond>
1.9095

> <Gold.Chemscore.Metal>
0.0000

> <Gold.Chemscore.Lipo>
61.8064

> <Gold.Chemscore.Internal_Hbond>
0.0000

> <Gold.Chemscore.DEClash>
0.0108

> <Gold.Chemscore.DEInternal>
1.4803

> <Gold.Chemscore.Rot>
1.0000

> <Gold.Chemscore.Internal.Correction>
   9.000000E+99

> <Gold.Chemscore.Hbonds>
donor molecule, donor type, donor heavy atom, donor atom, acceptor molecule, acceptor atom, score
      L1  H     1    13       P1 10952  0.90
      L1  H     1    14       P1 10186  0.94

> <Gold.Chemscore.Hbond.Weighted>
-6.3778

> <Gold.Chemscore.Metal.Weighted>
-0.0000

> <Gold.Chemscore.Lipo.Weighted>
-7.2313

> <Gold.Chemscore.Internal_Hbond.Weighted>
0.0000

> <Gold.Chemscore.DEClash.Weighted>
0.0108

> <Gold.Chemscore.DEInternal.Weighted>
1.4803

> <Gold.Chemscore.Rot.Weighted>
2.5600

> <Gold.Chemscore.Internal.Correction.Weighted>
   9.000000E+99

> <Gold.Protein.RotatedTorsions>
[ 6907 6896 6895 6894 ] final  -40.22 input  -60.11 | X-H torsion
[ 7974 7965 7964 7962 ] final  -94.04 input  175.53 | X-H torsion
[ 8008 7997 7996 7995 ] final  -37.75 input   59.86 | X-H torsion
[ 10167 10162 10161 10158 ] final  155.89 input  -65.29 | X-H torsion
[ 10718 10713 10712 10709 ] final  -93.67 input   66.30 | X-H torsion
[ 10763 10752 10751 10750 ] final   35.04 input  -60.55 | X-H torsion
[ 11005 11000 10999 10996 ] final   41.19 input  -57.11 | X-H torsion

> <Gold.Protein.ActiveResidues>
 VAL166  LYS551  ARG553  GLY616  TRP617  ASP618  TYR619  PRO620  LYS621  CYS622 
 ASP623  PHE694  ASN695  SER759  ASP760  ASP761  ALA762  ILE779  LEU786  VAL792 
 PHE793  MET794  SER795  GLU796  ALA797  LYS798  CYS799  TRP800  GLU811  SER814 

> <Gold.Protein.RotatedAtoms>
  150.9810  134.9165  159.7844 H   0  0  0  0  0  0  0  0  0  0  0  0  # atno 6907 bound_to 6896
  152.5222  134.3410  159.9227 H   0  0  0  0  0  0  0  0  0  0  0  0  # atno 6908 bound_to 6896
  151.3417  133.3919  159.2706 H   0  0  0  0  0  0  0  0  0  0  0  0  # atno 6909 bound_to 6896
  145.3786  140.9515  143.2406 H   0  0  0  0  0  0  0  0  0  0  0  0  # atno 7974 bound_to 7965
  154.4048  140.1596  156.2587 H   0  0  0  0  0  0  0  0  0  0  0  0  # atno 8008 bound_to 7997
  155.9055  140.3430  155.6036 H   0  0  0  0  0  0  0  0  0  0  0  0  # atno 8009 bound_to 7997
  155.7398  140.0791  157.2242 H   0  0  0  0  0  0  0  0  0  0  0  0  # atno 8010 bound_to 7997
  139.4821  144.5058  151.8099 H   0  0  0  0  0  0  0  0  0  0  0  0  # atno 10167 bound_to 10162
  156.0016  130.5036  150.5812 H   0  0  0  0  0  0  0  0  0  0  0  0  # atno 10718 bound_to 10713
  153.0137  135.6344  154.1764 H   0  0  0  0  0  0  0  0  0  0  0  0  # atno 10763 bound_to 10752
  154.1505  135.2829  155.3138 H   0  0  0  0  0  0  0  0  0  0  0  0  # atno 10764 bound_to 10752
  154.6057  135.5573  153.7481 H   0  0  0  0  0  0  0  0  0  0  0  0  # atno 10765 bound_to 10752
  140.1858  134.4047  155.8174 H   0  0  0  0  0  0  0  0  0  0  0  0  # atno 11005 bound_to 11000
  144.8524  139.5301  143.6850 LP  0  0  0  0  0  0  0  0  0  0  0  0  # atno 17320 bound_to 7965
  146.2852  139.6986  142.9200 LP  0  0  0  0  0  0  0  0  0  0  0  0  # atno 17321 bound_to 7965
  140.4556  144.1794  150.5901 LP  0  0  0  0  0  0  0  0  0  0  0  0  # atno 17342 bound_to 10162
  140.4539  143.2476  151.9311 LP  0  0  0  0  0  0  0  0  0  0  0  0  # atno 17343 bound_to 10162
  157.3691  131.0762  151.1572 LP  0  0  0  0  0  0  0  0  0  0  0  0  # atno 17370 bound_to 10713
  157.2331  130.6534  149.5858 LP  0  0  0  0  0  0  0  0  0  0  0  0  # atno 17371 bound_to 10713
  141.2225  133.7022  156.8010 LP  0  0  0  0  0  0  0  0  0  0  0  0  # atno 17394 bound_to 11000
  140.2215  134.8753  157.3382 LP  0  0  0  0  0  0  0  0  0  0  0  0  # atno 17395 bound_to 11000

$$$$
