AV-unprocessed.smi:509|AV-procd|sdf|2761|dock6
  -GOLD-   2262023223D 1   1.00000     0.00000
 Structure written by MMmdl.
 45 47  0  0  0  0  0  0  0  0  1 V2000
  152.8476  138.3963  154.5307 C   0  0  0  0  0  0  0  0  0  0  0  0
  153.3730  138.9684  155.7144 O   0  0  0  0  0  0  0  0  0  0  0  0
  152.8041  138.4135  156.8891 C   0  0  0  0  0  0  0  0  0  0  0  0
  151.3221  138.8040  156.9736 C   0  0  0  0  0  0  0  0  0  0  0  0
  151.1493  140.2276  157.2594 N   0  0  0  0  0  0  0  0  0  0  0  0
  150.4924  141.1741  156.5323 C   0  0  0  0  0  0  0  0  0  0  0  0
  149.8123  140.8774  155.3508 N   0  0  0  0  0  0  0  0  0  0  0  0
  148.7731  141.6770  154.7058 C   0  0  0  0  0  0  0  0  0  0  0  0
  147.5702  140.7989  154.3083 C   0  0  0  0  0  0  0  0  0  0  0  0
  148.0054  139.7852  153.3538 N   0  0  0  0  0  0  0  0  0  0  0  0
  149.0399  138.9685  153.9800 C   0  0  0  0  0  0  0  0  0  0  0  0
  150.2305  139.8569  154.3940 C   0  0  0  0  0  0  0  0  0  0  0  0
  150.5915  142.4132  157.0196 N   0  0  0  0  0  0  0  0  0  0  0  0
  151.3492  142.2409  158.1667 C   0  0  0  0  0  0  0  0  0  0  0  0
  151.6978  140.9432  158.3277 C   0  0  0  0  0  0  0  0  0  0  0  0
  152.5325  140.4799  159.4446 C   0  0  0  0  0  0  0  0  0  0  0  0
  152.8629  139.2983  159.5507 O   0  0  0  0  0  0  0  0  0  0  0  0
  152.8910  141.4700  160.3213 N   0  0  0  0  0  0  0  0  0  0  0  0
  153.7145  141.1066  161.4898 C   0  0  0  0  0  0  0  0  0  0  0  0
  152.5447  142.8044  160.2020 C   0  0  0  0  0  0  0  0  0  0  0  0
  152.9002  143.6344  161.0439 O   0  0  0  0  0  0  0  0  0  0  0  0
  151.7934  143.1910  159.1213 N   0  0  0  0  0  0  0  0  0  0  0  0
  151.4179  144.5978  158.9530 C   0  0  0  0  0  0  0  0  0  0  0  0
  153.3165  138.8589  153.6623 H   0  0  0  0  0  0  0  0  0  0  0  0
  151.7712  138.5577  154.4590 H   0  0  0  0  0  0  0  0  0  0  0  0
  153.0457  137.3245  154.4896 H   0  0  0  0  0  0  0  0  0  0  0  0
  152.8986  137.3270  156.8716 H   0  0  0  0  0  0  0  0  0  0  0  0
  153.3391  138.7735  157.7691 H   0  0  0  0  0  0  0  0  0  0  0  0
  150.8298  138.5382  156.0442 H   0  0  0  0  0  0  0  0  0  0  0  0
  150.8130  138.2190  157.7379 H   0  0  0  0  0  0  0  0  0  0  0  0
  148.4594  142.4915  155.3575 H   0  0  0  0  0  0  0  0  0  0  0  0
  149.1922  142.1573  153.8204 H   0  0  0  0  0  0  0  0  0  0  0  0
  147.1266  140.3220  155.1834 H   0  0  0  0  0  0  0  0  0  0  0  0
  146.7948  141.4096  153.8458 H   0  0  0  0  0  0  0  0  0  0  0  0
  147.2223  139.2017  153.0967 H   0  0  0  0  0  0  0  0  0  0  0  0
  148.6283  138.4455  154.8441 H   0  0  0  0  0  0  0  0  0  0  0  0
  149.3674  138.2083  153.2709 H   0  0  0  0  0  0  0  0  0  0  0  0
  150.6791  140.3327  153.5208 H   0  0  0  0  0  0  0  0  0  0  0  0
  151.0057  139.2356  154.8437 H   0  0  0  0  0  0  0  0  0  0  0  0
  153.1992  141.3691  162.4151 H   0  0  0  0  0  0  0  0  0  0  0  0
  154.6624  141.6466  161.4691 H   0  0  0  0  0  0  0  0  0  0  0  0
  153.9623  140.0475  161.5664 H   0  0  0  0  0  0  0  0  0  0  0  0
  150.6950  144.8890  159.7157 H   0  0  0  0  0  0  0  0  0  0  0  0
  150.9702  144.7993  157.9802 H   0  0  0  0  0  0  0  0  0  0  0  0
  152.2885  145.2492  159.0419 H   0  0  0  0  0  0  0  0  0  0  0  0
  1  2  1  0  0  0  0
  1 24  1  0  0  0  0
  1 25  1  0  0  0  0
  1 26  1  0  0  0  0
  2  3  1  0  0  0  0
  3  4  1  0  0  0  0
  3 27  1  0  0  0  0
  3 28  1  0  0  0  0
  4  5  1  0  0  0  0
  4 29  1  0  0  0  0
  4 30  1  0  0  0  0
  5 15  1  0  0  0  0
  5  6  1  0  0  0  0
  6  7  1  0  0  0  0
  6 13  2  0  0  0  0
  7 12  1  0  0  0  0
  7  8  1  0  0  0  0
  8  9  1  0  0  0  0
  8 31  1  0  0  0  0
  8 32  1  0  0  0  0
  9 10  1  0  0  0  0
  9 33  1  0  0  0  0
  9 34  1  0  0  0  0
 10 11  1  0  0  0  0
 10 35  1  0  0  0  0
 11 12  1  0  0  0  0
 11 36  1  0  0  0  0
 11 37  1  0  0  0  0
 12 38  1  0  0  0  0
 12 39  1  0  0  0  0
 13 14  1  0  0  0  0
 14 22  1  0  0  0  0
 14 15  2  0  0  0  0
 15 16  1  0  0  0  0
 16 17  2  0  0  0  0
 16 18  1  0  0  0  0
 18 19  1  0  0  0  0
 18 20  1  0  0  0  0
 19 40  1  0  0  0  0
 19 41  1  0  0  0  0
 19 42  1  0  0  0  0
 20 21  2  0  0  0  0
 20 22  1  0  0  0  0
 22 23  1  0  0  0  0
 23 43  1  0  0  0  0
 23 44  1  0  0  0  0
 23 45  1  0  0  0  0
M  END
> <s_m_source_file>
AV-unprocessed.smi

> <i_m_source_file_index>
509

> <i_lp_mmshare_version>
43012

> <i_f3d_flags>
0

> <s_epik_input>
W0NIM11uMWMoPU8pbihbQ0gzXSljKD1PKWMoYzEyKW4oW0NIMl1bQ0gyXU9bQ0gzXSljKG4yKU4zW0NIMl1bQ0gyXVtOSF1bQ0gyXVtDSDJdMw==

> <s_epik_cmdline>
J2VwaWtfcHl0aG9uJywgJy1waCcsICc3LjAnLCAnLXRuJywgJzgnLCAnLW1hJywgJzIwMCcsICctbWV0YWxfYmluZGluZycsICctaW1hZScsICc8aW5maWxlLm1hZT4nLCAnLW9tYWUnLCAnPG91dGZpbGUubWFlPic=

> <r_epik_Ionization_Penalty>
2.51424

> <r_epik_Ionization_Penalty_Charging>
1.27827e-08

> <r_epik_Ionization_Penalty_Neutral>
2.51424

> <r_epik_State_Penalty>
2.67993

> <r_epik_Charging_Adjusted_Penalty>
2.67993

> <i_epik_Tot_Q>
0

> <i_epik_Tot_abs_Q>
0

> <r_epik_Metal_State_Penalty>
2.67967

> <b_epik_Metal_Only>
0

> <s_lp_Force_Field>
OPLS_2005

> <r_lp_Energy>
54.3442

> <b_lp_Chiralities_Consistent>
1

> <s_lp_Variant>
AV-unprocessed.smi:509-2

> <Gold.Version>
5.8.1

> <Gold.Id.Protein>
6NUR|6NUR_protein|mol2

> <Gold.PLP.Fitness>
46.2700

> <Gold.PLP.PLP>
-43.9802

> <Gold.PLP.part.hbond>
-2.0000

> <Gold.PLP.part.metal>
0.0000

> <Gold.PLP.part.buried>
-0.6919

> <Gold.PLP.part.nonpolar>
-41.7366

> <Gold.PLP.part.repulsive>
0.1934

> <Gold.PLP.ligand.clash>
0.2526

> <Gold.PLP.ligand.torsion>
0.3948

> <Gold.PLP.Chemscore.Hbond>
1.0000

> <Gold.PLP.Chemscore.CHOScore>
0.0000

> <Gold.PLP.Chemscore.Metal>
0.0000

> <Gold.Chemscore.Hbonds>
donor molecule, donor type, donor heavy atom, donor atom, acceptor molecule, acceptor atom, score
      P1  H  7997  8010       L1     2  1.00

> <Gold.PLP.Chemscore.Internal.Correction>
0.3319

> <Gold.Rescore>
     Score         DG    S(hbond)    S(metal)    S(lipo)     H(rot)  DE(clash)    DE(int)     intcor
      9.86     -12.87       0.84        0.00      71.72       1.49       0.02       3.00       ----

> <Gold.Chemscore.Fitness>
9.8562

> <Gold.Chemscore.DG>
-12.8732

> <Gold.Chemscore.ZeroCoef>
-5.4800

> <Gold.Chemscore.Hbond>
0.8444

> <Gold.Chemscore.Metal>
0.0000

> <Gold.Chemscore.Lipo>
71.7189

> <Gold.Chemscore.Internal_Hbond>
0.0000

> <Gold.Chemscore.DEClash>
0.0175

> <Gold.Chemscore.DEInternal>
2.9995

> <Gold.Chemscore.Rot>
1.4915

> <Gold.Chemscore.Internal.Correction>
   9.000000E+99

> <Gold.Chemscore.Hbonds>
donor molecule, donor type, donor heavy atom, donor atom, acceptor molecule, acceptor atom, score
      P1  H  7997  8010       L1     2  0.78

> <Gold.Chemscore.Hbond.Weighted>
-2.8204

> <Gold.Chemscore.Metal.Weighted>
-0.0000

> <Gold.Chemscore.Lipo.Weighted>
-8.3911

> <Gold.Chemscore.Internal_Hbond.Weighted>
0.0000

> <Gold.Chemscore.DEClash.Weighted>
0.0175

> <Gold.Chemscore.DEInternal.Weighted>
2.9995

> <Gold.Chemscore.Rot.Weighted>
3.8183

> <Gold.Chemscore.Internal.Correction.Weighted>
   9.000000E+99

> <Gold.Protein.RotatedTorsions>
[ 6907 6896 6895 6894 ] final  -38.43 input  -60.11 | X-H torsion
[ 7974 7965 7964 7962 ] final   -8.45 input  175.53 | X-H torsion
[ 8008 7997 7996 7995 ] final   95.27 input   59.86 | X-H torsion
[ 10167 10162 10161 10158 ] final  -86.95 input  -65.29 | X-H torsion
[ 10718 10713 10712 10709 ] final  -77.09 input   66.30 | X-H torsion
[ 10763 10752 10751 10750 ] final  -32.81 input  -60.55 | X-H torsion
[ 11005 11000 10999 10996 ] final  -79.82 input  -57.11 | X-H torsion

> <Gold.Protein.ActiveResidues>
 VAL166  LYS551  ARG553  GLY616  TRP617  ASP618  TYR619  PRO620  LYS621  CYS622 
 ASP623  PHE694  ASN695  SER759  ASP760  ASP761  ALA762  ILE779  LEU786  VAL792 
 PHE793  MET794  SER795  GLU796  ALA797  LYS798  CYS799  TRP800  GLU811  SER814 

> <Gold.Protein.RotatedAtoms>
  151.0026  134.9334  159.7961 H   0  0  0  0  0  0  0  0  0  0  0  0  # atno 6907 bound_to 6896
  152.5282  134.3134  159.9132 H   0  0  0  0  0  0  0  0  0  0  0  0  # atno 6908 bound_to 6896
  151.3140  133.4027  159.2683 H   0  0  0  0  0  0  0  0  0  0  0  0  # atno 6909 bound_to 6896
  146.2280  140.2470  142.8346 H   0  0  0  0  0  0  0  0  0  0  0  0  # atno 7974 bound_to 7965
  156.0670  140.3289  155.7530 H   0  0  0  0  0  0  0  0  0  0  0  0  # atno 8008 bound_to 7997
  155.5365  140.0598  157.2896 H   0  0  0  0  0  0  0  0  0  0  0  0  # atno 8009 bound_to 7997
  154.4510  140.1918  156.0536 H   0  0  0  0  0  0  0  0  0  0  0  0  # atno 8010 bound_to 7997
  140.3892  143.2712  151.9286 H   0  0  0  0  0  0  0  0  0  0  0  0  # atno 10167 bound_to 10162
  156.0155  130.4482  150.3293 H   0  0  0  0  0  0  0  0  0  0  0  0  # atno 10718 bound_to 10713
  153.8198  135.6875  153.4829 H   0  0  0  0  0  0  0  0  0  0  0  0  # atno 10763 bound_to 10752
  153.1576  135.4593  154.9725 H   0  0  0  0  0  0  0  0  0  0  0  0  # atno 10764 bound_to 10752
  154.7932  135.3309  154.7671 H   0  0  0  0  0  0  0  0  0  0  0  0  # atno 10765 bound_to 10752
  141.1667  133.7123  156.8180 H   0  0  0  0  0  0  0  0  0  0  0  0  # atno 11005 bound_to 11000
  144.9440  140.8109  143.5613 LP  0  0  0  0  0  0  0  0  0  0  0  0  # atno 17320 bound_to 7965
  145.2425  139.2066  143.4985 LP  0  0  0  0  0  0  0  0  0  0  0  0  # atno 17321 bound_to 7965
  139.4790  144.5744  151.8036 LP  0  0  0  0  0  0  0  0  0  0  0  0  # atno 17342 bound_to 10162
  140.4857  144.1384  150.5940 LP  0  0  0  0  0  0  0  0  0  0  0  0  # atno 17343 bound_to 10162
  157.1391  131.0292  151.2935 LP  0  0  0  0  0  0  0  0  0  0  0  0  # atno 17370 bound_to 10713
  157.4487  130.7585  149.7132 LP  0  0  0  0  0  0  0  0  0  0  0  0  # atno 17371 bound_to 10713
  140.2139  134.8807  157.3305 LP  0  0  0  0  0  0  0  0  0  0  0  0  # atno 17394 bound_to 11000
  140.2057  134.4200  155.7639 LP  0  0  0  0  0  0  0  0  0  0  0  0  # atno 17395 bound_to 11000

$$$$
