AV-unprocessed.smi:2405|AV-procd|sdf|9515|dock5
  -GOLD-   2272013143D 1   1.00000     0.00000
 Structure written by MMmdl.
 36 37  0  0  0  0  0  0  0  0  2 V2000
  153.2372  142.4993  162.1492 C   0  0  0  0  0  0  0  0  0  0  0  0
  152.5569  143.8413  161.8593 C   0  0  0  0  0  0  0  0  0  0  0  0
  151.9406  143.8868  160.5014 C   0  0  0  0  0  0  0  0  0  0  0  0
  151.2488  142.8743  159.9724 N   0  0  0  0  0  0  0  0  0  0  0  0
  150.7290  143.1781  158.7092 C   0  0  0  0  0  0  0  0  0  0  0  0
  149.9171  142.1582  157.9657 C   0  0  0  0  0  0  0  0  0  0  0  0
  150.7628  140.9132  157.6964 C   0  0  0  0  0  0  0  0  0  0  0  0
  151.7288  140.9775  156.9363 O   0  0  0  0  0  0  0  0  0  0  0  0
  150.3829  139.7883  158.3218 N   0  0  0  0  0  0  0  0  0  0  0  0
  151.0267  138.4865  158.1784 C   0  0  1  0  0  0  0  0  0  0  0  0
  151.2746  138.1677  156.6920 C   0  0  0  0  0  0  0  0  0  0  0  0
  152.7937  138.2107  156.4969 C   0  0  0  0  0  0  0  0  0  0  0  0
  153.3801  137.8078  157.8558 C   0  0  2  0  0  0  0  0  0  0  0  0
  153.4496  136.2718  157.9812 C   0  0  0  0  0  0  0  0  0  0  0  0
  153.1712  135.5697  156.9834 O   0  0  0  0  0  0  0  0  0  0  0  0
  153.7957  135.8221  159.0958 O   0  5  0  0  0  0  0  0  0  0  0  0
  152.4122  138.4644  158.8581 C   0  0  0  0  0  0  0  0  0  0  0  0
  151.0438  144.4460  158.2865 C   0  0  0  0  0  0  0  0  0  0  0  0
  151.9894  145.3096  159.4673 S   0  0  0  0  0  0  0  0  0  0  0  0
  153.6775  142.4935  163.1464 H   0  0  0  0  0  0  0  0  0  0  0  0
  154.0335  142.2987  161.4315 H   0  0  0  0  0  0  0  0  0  0  0  0
  152.5231  141.6769  162.0950 H   0  0  0  0  0  0  0  0  0  0  0  0
  151.7813  144.0332  162.6013 H   0  0  0  0  0  0  0  0  0  0  0  0
  153.2802  144.6531  161.9466 H   0  0  0  0  0  0  0  0  0  0  0  0
  149.0354  141.8751  158.5418 H   0  0  0  0  0  0  0  0  0  0  0  0
  149.5502  142.5627  157.0211 H   0  0  0  0  0  0  0  0  0  0  0  0
  149.5717  139.8304  158.9218 H   0  0  0  0  0  0  0  0  0  0  0  0
  150.3894  137.7073  158.6011 H   0  0  0  0  0  0  0  0  0  0  0  0
  150.9109  137.1622  156.4753 H   0  0  0  0  0  0  0  0  0  0  0  0
  150.7590  138.8457  156.0107 H   0  0  0  0  0  0  0  0  0  0  0  0
  153.1193  137.5730  155.6735 H   0  0  0  0  0  0  0  0  0  0  0  0
  153.1049  139.2282  156.2576 H   0  0  0  0  0  0  0  0  0  0  0  0
  154.3902  138.2002  157.9793 H   0  0  0  0  0  0  0  0  0  0  0  0
  152.7571  139.4821  159.0483 H   0  0  0  0  0  0  0  0  0  0  0  0
  152.3842  137.9704  159.8303 H   0  0  0  0  0  0  0  0  0  0  0  0
  150.7676  144.9256  157.3591 H   0  0  0  0  0  0  0  0  0  0  0  0
  1  2  1  0  0  0  0
  1 20  1  0  0  0  0
  1 21  1  0  0  0  0
  1 22  1  0  0  0  0
  2  3  1  0  0  0  0
  2 23  1  0  0  0  0
  2 24  1  0  0  0  0
  3 19  1  0  0  0  0
  3  4  2  0  0  0  0
  4  5  1  0  0  0  0
  5  6  1  0  0  0  0
  5 18  2  0  0  0  0
  6  7  1  0  0  0  0
  6 25  1  0  0  0  0
  6 26  1  0  0  0  0
  7  8  2  0  0  0  0
  7  9  1  0  0  0  0
  9 10  1  0  0  0  0
  9 27  1  0  0  0  0
 10 17  1  0  0  0  0
 10 11  1  0  0  0  0
 10 28  1  0  0  0  0
 11 12  1  0  0  0  0
 11 29  1  0  0  0  0
 11 30  1  0  0  0  0
 12 13  1  0  0  0  0
 12 31  1  0  0  0  0
 12 32  1  0  0  0  0
 13 14  1  0  0  0  0
 13 17  1  0  0  0  0
 13 33  1  0  0  0  0
 14 15  2  0  0  0  0
 14 16  1  0  0  0  0
 17 34  1  0  0  0  0
 17 35  1  0  0  0  0
 18 19  1  0  0  0  0
 18 36  1  0  0  0  0
M  CHG  1  16  -1
M  END
> <s_m_source_file>
AV-unprocessed.smi

> <i_m_source_file_index>
2405

> <i_lp_mmshare_version>
43012

> <i_f3d_flags>
0

> <s_epik_input>
W0NIM11bQ0gyXWMxbmMoW2NIXXMxKVtDSDJdQyg9TylbTkhdW0NAQEhdMltDSDJdW0NIMl1bQ0BIXShbQ0gyXTIpQyg9TylbT0hd

> <s_epik_cmdline>
J2VwaWtfcHl0aG9uJywgJy1waCcsICc3LjAnLCAnLXRuJywgJzgnLCAnLW1hJywgJzIwMCcsICctbWV0YWxfYmluZGluZycsICctaW1hZScsICc8aW5maWxlLm1hZT4nLCAnLW9tYWUnLCAnPG91dGZpbGUubWFlPic=

> <r_epik_Ionization_Penalty>
0.000544611

> <r_epik_Ionization_Penalty_Charging>
0.000481685

> <r_epik_Ionization_Penalty_Neutral>
6.29266e-05

> <r_epik_State_Penalty>
0.00029893

> <r_epik_Charging_Adjusted_Penalty>
0.000780614

> <i_epik_Tot_Q>
-1

> <i_epik_Tot_abs_Q>
1

> <r_epik_Metal_State_Penalty>
-0

> <b_epik_Metal_Only>
0

> <s_lp_Force_Field>
OPLS_2005

> <r_lp_Energy>
7.82971

> <b_lp_Chiralities_Consistent>
1

> <s_lp_Variant>
AV-unprocessed.smi:2405-4

> <Gold.Version>
5.8.1

> <Gold.Id.Protein>
6NUR|6NUR_protein|mol2

> <Gold.PLP.Fitness>
47.7560

> <Gold.PLP.PLP>
-33.6432

> <Gold.PLP.part.hbond>
-3.0000

> <Gold.PLP.part.metal>
0.0000

> <Gold.PLP.part.buried>
-5.0154

> <Gold.PLP.part.nonpolar>
-25.4360

> <Gold.PLP.part.repulsive>
0.1863

> <Gold.PLP.ligand.clash>
0.0000

> <Gold.PLP.ligand.torsion>
0.4790

> <Gold.PLP.Chemscore.Hbond>
4.0000

> <Gold.PLP.Chemscore.CHOScore>
1.0000

> <Gold.PLP.Chemscore.Metal>
0.0000

> <Gold.Chemscore.Hbonds>
donor molecule, donor type, donor heavy atom, donor atom, acceptor molecule, acceptor atom, score
      P1  H  6896  6909       L1    16  1.98
      P1  H 10752 10763       L1    15  2.00
      L1  C    18    36       P1  8028  1.00

> <Gold.PLP.Chemscore.Internal.Correction>
0.0707

> <Gold.Rescore>
     Score         DG    S(hbond)    S(metal)    S(lipo)     H(rot)  DE(clash)    DE(int)     intcor
     14.93     -18.10       1.94        0.00      97.66       2.06       0.08       3.08       ----

> <Gold.Chemscore.Fitness>
14.9317

> <Gold.Chemscore.DG>
-18.0964

> <Gold.Chemscore.ZeroCoef>
-5.4800

> <Gold.Chemscore.Hbond>
1.9380

> <Gold.Chemscore.Metal>
0.0000

> <Gold.Chemscore.Lipo>
97.6571

> <Gold.Chemscore.Internal_Hbond>
0.0000

> <Gold.Chemscore.DEClash>
0.0825

> <Gold.Chemscore.DEInternal>
3.0822

> <Gold.Chemscore.Rot>
2.0635

> <Gold.Chemscore.Internal.Correction>
   9.000000E+99

> <Gold.Chemscore.Hbonds>
donor molecule, donor type, donor heavy atom, donor atom, acceptor molecule, acceptor atom, score
      P1  H  6896  6909       L1    16  0.81
      P1  H 10752 10763       L1    15  1.00

> <Gold.Chemscore.Hbond.Weighted>
-6.4730

> <Gold.Chemscore.Metal.Weighted>
-0.0000

> <Gold.Chemscore.Lipo.Weighted>
-11.4259

> <Gold.Chemscore.Internal_Hbond.Weighted>
0.0000

> <Gold.Chemscore.DEClash.Weighted>
0.0825

> <Gold.Chemscore.DEInternal.Weighted>
3.0822

> <Gold.Chemscore.Rot.Weighted>
5.2825

> <Gold.Chemscore.Internal.Correction.Weighted>
   9.000000E+99

> <Gold.Protein.RotatedTorsions>
[ 6907 6896 6895 6894 ] final  178.12 input  -60.11 | X-H torsion
[ 7974 7965 7964 7962 ] final -151.39 input  175.53 | X-H torsion
[ 8008 7997 7996 7995 ] final -176.60 input   59.86 | X-H torsion
[ 10167 10162 10161 10158 ] final  170.51 input  -65.29 | X-H torsion
[ 10718 10713 10712 10709 ] final   -3.82 input   66.30 | X-H torsion
[ 10763 10752 10751 10750 ] final  122.28 input  -60.55 | X-H torsion
[ 11005 11000 10999 10996 ] final  146.34 input  -57.11 | X-H torsion

> <Gold.Protein.ActiveResidues>
 VAL166  LYS551  ARG553  GLY616  TRP617  ASP618  TYR619  PRO620  LYS621  CYS622 
 ASP623  PHE694  ASN695  SER759  ASP760  ASP761  ALA762  ILE779  LEU786  VAL792 
 PHE793  MET794  SER795  GLU796  ALA797  LYS798  CYS799  TRP800  GLU811  SER814 

> <Gold.Protein.RotatedAtoms>
  151.6929  133.3311  159.3247 H   0  0  0  0  0  0  0  0  0  0  0  0  # atno 6907 bound_to 6896
  150.7770  134.6683  159.6387 H   0  0  0  0  0  0  0  0  0  0  0  0  # atno 6908 bound_to 6896
  152.3816  134.6584  160.0193 H   0  0  0  0  0  0  0  0  0  0  0  0  # atno 6909 bound_to 6896
  144.7853  140.4804  143.5811 H   0  0  0  0  0  0  0  0  0  0  0  0  # atno 7974 bound_to 7965
  155.9968  140.1212  157.0586 H   0  0  0  0  0  0  0  0  0  0  0  0  # atno 8008 bound_to 7997
  154.4229  140.1115  156.5710 H   0  0  0  0  0  0  0  0  0  0  0  0  # atno 8009 bound_to 7997
  155.6267  140.3472  155.4672 H   0  0  0  0  0  0  0  0  0  0  0  0  # atno 8010 bound_to 7997
  139.5020  144.3589  151.9846 H   0  0  0  0  0  0  0  0  0  0  0  0  # atno 10167 bound_to 10162
  156.7704  130.5298  149.5768 H   0  0  0  0  0  0  0  0  0  0  0  0  # atno 10718 bound_to 10713
  153.6273  135.3402  155.3030 H   0  0  0  0  0  0  0  0  0  0  0  0  # atno 10763 bound_to 10752
  154.8587  135.4287  154.2143 H   0  0  0  0  0  0  0  0  0  0  0  0  # atno 10764 bound_to 10752
  153.3030  135.7026  153.7258 H   0  0  0  0  0  0  0  0  0  0  0  0  # atno 10765 bound_to 10752
  140.0785  134.9111  157.1462 H   0  0  0  0  0  0  0  0  0  0  0  0  # atno 11005 bound_to 11000
  145.5939  139.1498  143.3167 LP  0  0  0  0  0  0  0  0  0  0  0  0  # atno 17320 bound_to 7965
  146.2081  140.6064  142.9072 LP  0  0  0  0  0  0  0  0  0  0  0  0  # atno 17321 bound_to 7965
  140.3025  144.3630  150.6056 LP  0  0  0  0  0  0  0  0  0  0  0  0  # atno 17342 bound_to 10162
  140.5862  143.2170  151.7337 LP  0  0  0  0  0  0  0  0  0  0  0  0  # atno 17343 bound_to 10162
  156.1281  130.6158  151.0294 LP  0  0  0  0  0  0  0  0  0  0  0  0  # atno 17370 bound_to 10713
  157.6693  131.0865  150.7651 LP  0  0  0  0  0  0  0  0  0  0  0  0  # atno 17371 bound_to 10713
  140.3522  134.2586  155.7197 LP  0  0  0  0  0  0  0  0  0  0  0  0  # atno 17394 bound_to 11000
  141.2038  133.7902  157.0320 LP  0  0  0  0  0  0  0  0  0  0  0  0  # atno 17395 bound_to 11000

$$$$
