AV-unprocessed.smi:1634|AV-procd|sdf|6537|dock7
  -GOLD-   22720 7223D 1   1.00000     0.00000
 Structure written by MMmdl.
 38 38  0  0  0  0  0  0  0  0  1 V2000
  152.5015  138.2780  154.7354 C   0  0  0  0  0  0  0  0  0  0  0  0
  151.0547  137.9867  154.3064 C   0  0  0  0  0  0  0  0  0  0  0  0
  150.2317  139.2821  154.2505 C   0  0  0  0  0  0  0  0  0  0  0  0
  150.3911  136.9511  155.2284 C   0  0  0  0  0  0  0  0  0  0  0  0
  149.0106  136.8436  154.8962 O   0  0  0  0  0  0  0  0  0  0  0  0
  148.3562  135.6673  155.3640 C   0  0  1  0  0  0  0  0  0  0  0  0
  148.0949  135.8469  156.8669 C   0  0  0  0  0  0  0  0  0  0  0  0
  147.0463  135.4431  154.5912 C   0  0  0  0  0  0  0  0  0  0  0  0
  145.9771  135.4527  155.2004 O   0  0  0  0  0  0  0  0  0  0  0  0
  147.1851  135.2810  153.2603 N   0  0  0  0  0  0  0  0  0  0  0  0
  146.2098  135.0750  152.2694 C   0  0  0  0  0  0  0  0  0  0  0  0
  145.9109  133.8777  151.6998 C   0  0  0  0  0  0  0  0  0  0  0  0
  144.8869  133.7436  150.6773 C   0  0  0  0  0  0  0  0  0  0  0  0
  144.6019  132.4079  150.0079 C   0  0  0  0  0  0  0  0  0  0  0  0
  144.1226  131.5204  150.8805 F   0  0  0  0  0  0  0  0  0  0  0  0
  143.7146  132.5468  149.0225 F   0  0  0  0  0  0  0  0  0  0  0  0
  145.7246  131.9141  149.4877 F   0  0  0  0  0  0  0  0  0  0  0  0
  144.2634  134.8746  150.2997 C   0  0  0  0  0  0  0  0  0  0  0  0
  144.5621  136.1085  150.8815 N   0  0  0  0  0  0  0  0  0  0  0  0
  145.4956  136.2898  151.8421 C   0  0  0  0  0  0  0  0  0  0  0  0
  145.7031  137.4123  152.3017 O   0  0  0  0  0  0  0  0  0  0  0  0
  144.0427  136.9093  150.5515 H   0  0  0  0  0  0  0  0  0  0  0  0
  152.5405  138.6901  155.7443 H   0  0  0  0  0  0  0  0  0  0  0  0
  152.9735  138.9956  154.0639 H   0  0  0  0  0  0  0  0  0  0  0  0
  153.1082  137.3721  154.7232 H   0  0  0  0  0  0  0  0  0  0  0  0
  151.0798  137.5704  153.2984 H   0  0  0  0  0  0  0  0  0  0  0  0
  150.1637  139.7513  155.2326 H   0  0  0  0  0  0  0  0  0  0  0  0
  149.2164  139.0887  153.9030 H   0  0  0  0  0  0  0  0  0  0  0  0
  150.6804  140.0036  153.5672 H   0  0  0  0  0  0  0  0  0  0  0  0
  150.9016  135.9923  155.1316 H   0  0  0  0  0  0  0  0  0  0  0  0
  150.4850  137.2644  156.2692 H   0  0  0  0  0  0  0  0  0  0  0  0
  149.0182  134.8090  155.2330 H   0  0  0  0  0  0  0  0  0  0  0  0
  147.5695  134.9865  157.2829 H   0  0  0  0  0  0  0  0  0  0  0  0
  147.4956  136.7359  157.0676 H   0  0  0  0  0  0  0  0  0  0  0  0
  149.0332  135.9539  157.4117 H   0  0  0  0  0  0  0  0  0  0  0  0
  148.1284  135.3486  152.9057 H   0  0  0  0  0  0  0  0  0  0  0  0
  146.4307  132.9782  151.9830 H   0  0  0  0  0  0  0  0  0  0  0  0
  143.5032  134.9244  149.5340 H   0  0  0  0  0  0  0  0  0  0  0  0
  1  2  1  0  0  0  0
  1 23  1  0  0  0  0
  1 24  1  0  0  0  0
  1 25  1  0  0  0  0
  2  3  1  0  0  0  0
  2  4  1  0  0  0  0
  2 26  1  0  0  0  0
  3 27  1  0  0  0  0
  3 28  1  0  0  0  0
  3 29  1  0  0  0  0
  4  5  1  0  0  0  0
  4 30  1  0  0  0  0
  4 31  1  0  0  0  0
  5  6  1  0  0  0  0
  6  7  1  0  0  0  0
  6  8  1  0  0  0  0
  6 32  1  0  0  0  0
  7 33  1  0  0  0  0
  7 34  1  0  0  0  0
  7 35  1  0  0  0  0
  8  9  2  0  0  0  0
  8 10  1  0  0  0  0
 10 11  1  0  0  0  0
 10 36  1  0  0  0  0
 11 20  1  0  0  0  0
 11 12  2  0  0  0  0
 12 13  1  0  0  0  0
 12 37  1  0  0  0  0
 13 14  1  0  0  0  0
 13 18  2  0  0  0  0
 14 15  1  0  0  0  0
 14 16  1  0  0  0  0
 14 17  1  0  0  0  0
 18 19  1  0  0  0  0
 18 38  1  0  0  0  0
 19 22  1  0  0  0  0
 19 20  1  0  0  0  0
 20 21  2  0  0  0  0
M  END
> <s_m_source_file>
AV-unprocessed.smi

> <i_m_source_file_index>
1634

> <i_lp_mmshare_version>
43012

> <i_f3d_flags>
0

> <s_epik_input>
W0NIM11bQ0hdKFtDSDNdKVtDSDJdT1tDQEhdKFtDSDNdKUMoPU8pW05IXWMxW2NIXWMoQyhGKShGKUYpW2NIXVtuSF1jMT1P

> <s_epik_cmdline>
J2VwaWtfcHl0aG9uJywgJy1waCcsICc3LjAnLCAnLXRuJywgJzgnLCAnLW1hJywgJzIwMCcsICctbWV0YWxfYmluZGluZycsICctaW1hZScsICc8aW5maWxlLm1hZT4nLCAnLW9tYWUnLCAnPG91dGZpbGUubWFlPic=

> <r_lp_tautomer_probability>
0.999

> <r_epik_Ionization_Penalty>
0.00884964

> <r_epik_Ionization_Penalty_Charging>
0.00884955

> <r_epik_Ionization_Penalty_Neutral>
9.33956e-08

> <r_epik_State_Penalty>
0.00669049

> <r_epik_Charging_Adjusted_Penalty>
0.01554

> <i_epik_Tot_Q>
0

> <i_epik_Tot_abs_Q>
0

> <r_epik_Metal_State_Penalty>
0.320763

> <b_epik_Metal_Only>
0

> <s_lp_Force_Field>
OPLS_2005

> <r_lp_Energy>
19.8034

> <b_lp_Chiralities_Consistent>
1

> <s_lp_Variant>
AV-unprocessed.smi:1634-2

> <Gold.Version>
5.8.1

> <Gold.Id.Protein>
6NUR|6NUR_protein|mol2

> <Gold.PLP.Fitness>
43.2636

> <Gold.PLP.PLP>
-38.0648

> <Gold.PLP.part.hbond>
-1.6165

> <Gold.PLP.part.metal>
0.0000

> <Gold.PLP.part.buried>
-4.0772

> <Gold.PLP.part.nonpolar>
-32.9235

> <Gold.PLP.part.repulsive>
0.4496

> <Gold.PLP.ligand.clash>
1.3972

> <Gold.PLP.ligand.torsion>
1.0336

> <Gold.PLP.Chemscore.Hbond>
1.8723

> <Gold.PLP.Chemscore.CHOScore>
1.0000

> <Gold.PLP.Chemscore.Metal>
0.0000

> <Gold.Chemscore.Hbonds>
donor molecule, donor type, donor heavy atom, donor atom, acceptor molecule, acceptor atom, score
      L1  H    10    36       P1  7948  0.80
      L1  H    19    22       P1 10171  1.00
      L1  C    18    38       P1 10186  1.00

> <Gold.PLP.Chemscore.Internal.Correction>
0.0462

> <Gold.Rescore>
     Score         DG    S(hbond)    S(metal)    S(lipo)     H(rot)  DE(clash)    DE(int)     intcor
     12.76     -14.22       1.76        0.00      63.47       1.79       0.47       0.99       ----

> <Gold.Chemscore.Fitness>
12.7576

> <Gold.Chemscore.DG>
-14.2184

> <Gold.Chemscore.ZeroCoef>
-5.4800

> <Gold.Chemscore.Hbond>
1.7629

> <Gold.Chemscore.Metal>
0.0000

> <Gold.Chemscore.Lipo>
63.4673

> <Gold.Chemscore.Internal_Hbond>
0.0000

> <Gold.Chemscore.DEClash>
0.4711

> <Gold.Chemscore.DEInternal>
0.9898

> <Gold.Chemscore.Rot>
1.7873

> <Gold.Chemscore.Internal.Correction>
   9.000000E+99

> <Gold.Chemscore.Hbonds>
donor molecule, donor type, donor heavy atom, donor atom, acceptor molecule, acceptor atom, score
      L1  H    10    36       P1  7948  0.77
      L1  H    19    22       P1 10171  0.98

> <Gold.Chemscore.Hbond.Weighted>
-5.8882

> <Gold.Chemscore.Metal.Weighted>
-0.0000

> <Gold.Chemscore.Lipo.Weighted>
-7.4257

> <Gold.Chemscore.Internal_Hbond.Weighted>
0.0000

> <Gold.Chemscore.DEClash.Weighted>
0.4711

> <Gold.Chemscore.DEInternal.Weighted>
0.9898

> <Gold.Chemscore.Rot.Weighted>
4.5755

> <Gold.Chemscore.Internal.Correction.Weighted>
   9.000000E+99

> <Gold.Protein.RotatedTorsions>
[ 6907 6896 6895 6894 ] final   46.81 input  -60.11 | X-H torsion
[ 7974 7965 7964 7962 ] final  -37.41 input  175.53 | X-H torsion
[ 8008 7997 7996 7995 ] final   66.59 input   59.86 | X-H torsion
[ 10167 10162 10161 10158 ] final -116.41 input  -65.29 | X-H torsion
[ 10718 10713 10712 10709 ] final  135.75 input   66.30 | X-H torsion
[ 10763 10752 10751 10750 ] final -115.86 input  -60.55 | X-H torsion
[ 11005 11000 10999 10996 ] final  -39.50 input  -57.11 | X-H torsion

> <Gold.Protein.ActiveResidues>
 VAL166  LYS551  ARG553  GLY616  TRP617  ASP618  TYR619  PRO620  LYS621  CYS622 
 ASP623  PHE694  ASN695  SER759  ASP760  ASP761  ALA762  ILE779  LEU786  VAL792 
 PHE793  MET794  SER795  GLU796  ALA797  LYS798  CYS799  TRP800  GLU811  SER814 

> <Gold.Protein.RotatedAtoms>
  152.2608  134.8036  160.0430 H   0  0  0  0  0  0  0  0  0  0  0  0  # atno 6907 bound_to 6896
  151.8683  133.3465  159.3734 H   0  0  0  0  0  0  0  0  0  0  0  0  # atno 6908 bound_to 6896
  150.7116  134.5065  159.5631 H   0  0  0  0  0  0  0  0  0  0  0  0  # atno 6909 bound_to 6896
  146.0577  140.6393  142.9012 H   0  0  0  0  0  0  0  0  0  0  0  0  # atno 7974 bound_to 7965
  155.6797  140.3496  155.4850 H   0  0  0  0  0  0  0  0  0  0  0  0  # atno 8008 bound_to 7997
  155.9618  140.1138  157.0912 H   0  0  0  0  0  0  0  0  0  0  0  0  # atno 8009 bound_to 7997
  154.4145  140.1174  156.5175 H   0  0  0  0  0  0  0  0  0  0  0  0  # atno 8010 bound_to 7997
  140.0795  143.4801  152.1934 H   0  0  0  0  0  0  0  0  0  0  0  0  # atno 10167 bound_to 10162
  157.4538  131.1068  151.0002 H   0  0  0  0  0  0  0  0  0  0  0  0  # atno 10718 bound_to 10713
  154.8497  135.4366  154.1730 H   0  0  0  0  0  0  0  0  0  0  0  0  # atno 10763 bound_to 10752
  153.2839  135.6956  153.7365 H   0  0  0  0  0  0  0  0  0  0  0  0  # atno 10764 bound_to 10752
  153.6558  135.3443  155.3088 H   0  0  0  0  0  0  0  0  0  0  0  0  # atno 10765 bound_to 10752
  141.0106  133.6910  156.2195 H   0  0  0  0  0  0  0  0  0  0  0  0  # atno 11005 bound_to 11000
  144.7157  140.4201  143.7046 LP  0  0  0  0  0  0  0  0  0  0  0  0  # atno 17320 bound_to 7965
  145.6615  139.1582  143.2806 LP  0  0  0  0  0  0  0  0  0  0  0  0  # atno 17321 bound_to 7965
  139.5788  144.7500  151.3694 LP  0  0  0  0  0  0  0  0  0  0  0  0  # atno 17342 bound_to 10162
  140.7085  143.7452  150.7524 LP  0  0  0  0  0  0  0  0  0  0  0  0  # atno 17343 bound_to 10162
  157.0822  130.5908  149.5423 LP  0  0  0  0  0  0  0  0  0  0  0  0  # atno 17370 bound_to 10713
  155.9998  130.5075  150.7621 LP  0  0  0  0  0  0  0  0  0  0  0  0  # atno 17371 bound_to 10713
  140.6739  134.4838  157.5588 LP  0  0  0  0  0  0  0  0  0  0  0  0  # atno 17394 bound_to 11000
  139.9088  134.8390  156.1606 LP  0  0  0  0  0  0  0  0  0  0  0  0  # atno 17395 bound_to 11000

$$$$
