AV-unprocessed.smi:2221|AV-procd|sdf|8982|dock4
  -GOLD-   2272012193D 1   1.00000     0.00000
 Structure written by MMmdl.
 53 54  0  0  0  0  0  0  0  0  2 V2000
  151.7796  146.0795  160.2269 C   0  0  0  0  0  0  0  0  0  0  0  0
  151.8529  144.7065  159.5925 C   0  0  0  0  0  0  0  0  0  0  0  0
  152.6472  143.6951  160.1652 C   0  0  0  0  0  0  0  0  0  0  0  0
  152.6811  142.4375  159.5321 C   0  0  0  0  0  0  0  0  0  0  0  0
  153.5107  141.3046  160.0989 C   0  0  0  0  0  0  0  0  0  0  0  0
  151.9882  142.1604  158.4072 N   0  0  0  0  0  0  0  0  0  0  0  0
  151.2211  143.1271  157.8449 C   0  0  0  0  0  0  0  0  0  0  0  0
  150.4574  142.9382  156.6624 N   0  0  0  0  0  0  0  0  0  0  0  0
  150.0442  141.7807  156.1165 C   0  0  0  0  0  0  0  0  0  0  0  0
  150.2679  140.6578  156.5703 O   0  0  0  0  0  0  0  0  0  0  0  0
  149.3461  141.9959  154.9920 N   0  0  0  0  0  0  0  0  0  0  0  0
  148.7636  140.9519  154.1583 C   0  0  0  0  0  0  0  0  0  0  0  0
  147.3081  140.6571  154.5714 C   0  0  0  0  0  0  0  0  0  0  0  0
  146.5547  141.8791  154.8518 N   0  0  0  0  0  0  0  0  0  0  0  0
  145.3054  141.5163  155.5270 C   0  0  0  0  0  0  0  0  0  0  0  0
  144.5269  142.7793  155.9343 C   0  0  0  0  0  0  0  0  0  0  0  0
  144.2073  143.6381  154.6946 C   0  0  0  0  0  0  0  0  0  0  0  0
  143.4464  144.8867  154.9913 N   0  3  0  0  0  0  0  0  0  0  0  0
  143.0989  145.7177  153.8129 C   0  0  0  0  0  0  0  0  0  0  0  0
  144.0598  145.6944  156.0703 C   0  0  0  0  0  0  0  0  0  0  0  0
  145.5127  143.9196  153.9309 C   0  0  0  0  0  0  0  0  0  0  0  0
  146.2528  142.6078  153.6145 C   0  0  0  0  0  0  0  0  0  0  0  0
  151.1319  144.4167  158.4160 C   0  0  0  0  0  0  0  0  0  0  0  0
  151.8124  146.0036  161.3142 H   0  0  0  0  0  0  0  0  0  0  0  0
  150.8557  146.5884  159.9509 H   0  0  0  0  0  0  0  0  0  0  0  0
  152.6203  146.6909  159.8993 H   0  0  0  0  0  0  0  0  0  0  0  0
  153.2143  143.8789  161.0661 H   0  0  0  0  0  0  0  0  0  0  0  0
  154.2947  141.6838  160.7551 H   0  0  0  0  0  0  0  0  0  0  0  0
  153.9859  140.7356  159.2989 H   0  0  0  0  0  0  0  0  0  0  0  0
  152.8790  140.6274  160.6741 H   0  0  0  0  0  0  0  0  0  0  0  0
  150.1976  143.7825  156.1747 H   0  0  0  0  0  0  0  0  0  0  0  0
  149.2081  142.9495  154.6905 H   0  0  0  0  0  0  0  0  0  0  0  0
  148.8134  141.2428  153.1073 H   0  0  0  0  0  0  0  0  0  0  0  0
  149.3912  140.0687  154.2678 H   0  0  0  0  0  0  0  0  0  0  0  0
  146.8000  140.0627  153.8102 H   0  0  0  0  0  0  0  0  0  0  0  0
  147.3323  140.0474  155.4761 H   0  0  0  0  0  0  0  0  0  0  0  0
  144.6963  140.8840  154.8788 H   0  0  0  0  0  0  0  0  0  0  0  0
  145.5277  140.9346  156.4225 H   0  0  0  0  0  0  0  0  0  0  0  0
  143.6095  142.4901  156.4470 H   0  0  0  0  0  0  0  0  0  0  0  0
  145.1251  143.3392  156.6537 H   0  0  0  0  0  0  0  0  0  0  0  0
  143.5861  143.0388  154.0266 H   0  0  0  0  0  0  0  0  0  0  0  0
  143.9827  146.1867  153.3791 H   0  0  0  0  0  0  0  0  0  0  0  0
  142.4145  146.5146  154.1055 H   0  0  0  0  0  0  0  0  0  0  0  0
  142.6017  145.1358  153.0377 H   0  0  0  0  0  0  0  0  0  0  0  0
  145.0257  146.0974  155.7638 H   0  0  0  0  0  0  0  0  0  0  0  0
  144.2067  145.0972  156.9710 H   0  0  0  0  0  0  0  0  0  0  0  0
  143.4132  146.5315  156.3358 H   0  0  0  0  0  0  0  0  0  0  0  0
  145.2962  144.4497  153.0032 H   0  0  0  0  0  0  0  0  0  0  0  0
  146.1737  144.5641  154.5100 H   0  0  0  0  0  0  0  0  0  0  0  0
  147.1709  142.8514  153.0821 H   0  0  0  0  0  0  0  0  0  0  0  0
  145.6540  141.9847  152.9480 H   0  0  0  0  0  0  0  0  0  0  0  0
  150.5168  145.1775  157.9572 H   0  0  0  0  0  0  0  0  0  0  0  0
  142.5651  144.5711  155.3709 H   0  0  0  0  0  0  0  0  0  0  0  0
  1  2  1  0  0  0  0
  1 24  1  0  0  0  0
  1 25  1  0  0  0  0
  1 26  1  0  0  0  0
  2 23  1  0  0  0  0
  2  3  2  0  0  0  0
  3  4  1  0  0  0  0
  3 27  1  0  0  0  0
  4  5  1  0  0  0  0
  4  6  2  0  0  0  0
  5 28  1  0  0  0  0
  5 29  1  0  0  0  0
  5 30  1  0  0  0  0
  6  7  1  0  0  0  0
  7  8  1  0  0  0  0
  7 23  2  0  0  0  0
  8  9  1  0  0  0  0
  8 31  1  0  0  0  0
  9 10  2  0  0  0  0
  9 11  1  0  0  0  0
 11 12  1  0  0  0  0
 11 32  1  0  0  0  0
 12 13  1  0  0  0  0
 12 33  1  0  0  0  0
 12 34  1  0  0  0  0
 13 14  1  0  0  0  0
 13 35  1  0  0  0  0
 13 36  1  0  0  0  0
 14 22  1  0  0  0  0
 14 15  1  0  0  0  0
 15 16  1  0  0  0  0
 15 37  1  0  0  0  0
 15 38  1  0  0  0  0
 16 17  1  0  0  0  0
 16 39  1  0  0  0  0
 16 40  1  0  0  0  0
 17 18  1  0  0  0  0
 17 21  1  0  0  0  0
 17 41  1  0  0  0  0
 18 19  1  0  0  0  0
 18 20  1  0  0  0  0
 18 53  1  0  0  0  0
 19 42  1  0  0  0  0
 19 43  1  0  0  0  0
 19 44  1  0  0  0  0
 20 45  1  0  0  0  0
 20 46  1  0  0  0  0
 20 47  1  0  0  0  0
 21 22  1  0  0  0  0
 21 48  1  0  0  0  0
 21 49  1  0  0  0  0
 22 50  1  0  0  0  0
 22 51  1  0  0  0  0
 23 52  1  0  0  0  0
M  CHG  1  18   1
M  END
> <s_m_source_file>
AV-unprocessed.smi

> <i_m_source_file_index>
2221

> <i_lp_mmshare_version>
43012

> <i_f3d_flags>
0

> <s_epik_input>
W0NIM11jMVtjSF1jKFtDSDNdKW5jKFtjSF0xKVtOSF1DKD1PKVtOSF1bQ0gyXVtDSDJdTjJbQ0gyXVtDSDJdW0NIXShOKFtDSDNdKVtDSDNdKVtDSDJdW0NIMl0y

> <s_epik_cmdline>
J2VwaWtfcHl0aG9uJywgJy1waCcsICc3LjAnLCAnLXRuJywgJzgnLCAnLW1hJywgJzIwMCcsICctbWV0YWxfYmluZGluZycsICctaW1hZScsICc8aW5maWxlLm1hZT4nLCAnLW9tYWUnLCAnPG91dGZpbGUubWFlPic=

> <r_epik_Ionization_Penalty>
0.929621

> <r_epik_Ionization_Penalty_Charging>
0.000679816

> <r_epik_Ionization_Penalty_Neutral>
0.928941

> <r_epik_State_Penalty>
1.01912

> <r_epik_Charging_Adjusted_Penalty>
1.0198

> <i_epik_Tot_Q>
1

> <i_epik_Tot_abs_Q>
1

> <r_epik_Metal_State_Penalty>
1.01908

> <b_epik_Metal_Only>
0

> <s_lp_Force_Field>
OPLS_2005

> <r_lp_Energy>
22.8604

> <b_lp_Chiralities_Consistent>
1

> <s_lp_Variant>
AV-unprocessed.smi:2221-3

> <Gold.Version>
5.8.1

> <Gold.Id.Protein>
6NUR|6NUR_protein|mol2

> <Gold.PLP.Fitness>
52.9447

> <Gold.PLP.PLP>
-48.5641

> <Gold.PLP.part.hbond>
-2.0000

> <Gold.PLP.part.metal>
0.0000

> <Gold.PLP.part.buried>
-8.0038

> <Gold.PLP.part.nonpolar>
-40.1190

> <Gold.PLP.part.repulsive>
0.4375

> <Gold.PLP.ligand.clash>
0.0000

> <Gold.PLP.ligand.torsion>
0.5010

> <Gold.PLP.Chemscore.Hbond>
1.7600

> <Gold.PLP.Chemscore.CHOScore>
0.0000

> <Gold.PLP.Chemscore.Metal>
0.0000

> <Gold.Chemscore.Hbonds>
donor molecule, donor type, donor heavy atom, donor atom, acceptor molecule, acceptor atom, score
      L1  H     8    31       P1  8028  0.91
      L1  H    11    32       P1  8028  0.70

> <Gold.PLP.Chemscore.Internal.Correction>
0.1026

> <Gold.Rescore>
     Score         DG    S(hbond)    S(metal)    S(lipo)     H(rot)  DE(clash)    DE(int)     intcor
     18.85     -20.63       1.72        0.00     116.23       1.64       0.03       1.75       ----

> <Gold.Chemscore.Fitness>
18.8486

> <Gold.Chemscore.DG>
-20.6320

> <Gold.Chemscore.ZeroCoef>
-5.4800

> <Gold.Chemscore.Hbond>
1.7210

> <Gold.Chemscore.Metal>
0.0000

> <Gold.Chemscore.Lipo>
116.2254

> <Gold.Chemscore.Internal_Hbond>
0.0000

> <Gold.Chemscore.DEClash>
0.0338

> <Gold.Chemscore.DEInternal>
1.7496

> <Gold.Chemscore.Rot>
1.6385

> <Gold.Chemscore.Internal.Correction>
   9.000000E+99

> <Gold.Chemscore.Hbonds>
donor molecule, donor type, donor heavy atom, donor atom, acceptor molecule, acceptor atom, score
      L1  H     8    31       P1  8028  0.88
      L1  H    11    32       P1  8028  0.67

> <Gold.Chemscore.Hbond.Weighted>
-5.7481

> <Gold.Chemscore.Metal.Weighted>
-0.0000

> <Gold.Chemscore.Lipo.Weighted>
-13.5984

> <Gold.Chemscore.Internal_Hbond.Weighted>
0.0000

> <Gold.Chemscore.DEClash.Weighted>
0.0338

> <Gold.Chemscore.DEInternal.Weighted>
1.7496

> <Gold.Chemscore.Rot.Weighted>
4.1945

> <Gold.Chemscore.Internal.Correction.Weighted>
   9.000000E+99

> <Gold.Protein.RotatedTorsions>
[ 6907 6896 6895 6894 ] final  156.49 input  -60.11 | X-H torsion
[ 7974 7965 7964 7962 ] final  -55.42 input  175.53 | X-H torsion
[ 8008 7997 7996 7995 ] final  143.07 input   59.86 | X-H torsion
[ 10167 10162 10161 10158 ] final  100.30 input  -65.29 | X-H torsion
[ 10718 10713 10712 10709 ] final   19.31 input   66.30 | X-H torsion
[ 10763 10752 10751 10750 ] final  141.49 input  -60.55 | X-H torsion
[ 11005 11000 10999 10996 ] final   17.42 input  -57.11 | X-H torsion

> <Gold.Protein.ActiveResidues>
 VAL166  LYS551  ARG553  GLY616  TRP617  ASP618  TYR619  PRO620  LYS621  CYS622 
 ASP623  PHE694  ASN695  SER759  ASP760  ASP761  ALA762  ILE779  LEU786  VAL792 
 PHE793  MET794  SER795  GLU796  ALA797  LYS798  CYS799  TRP800  GLU811  SER814 

> <Gold.Protein.RotatedAtoms>
  152.0290  133.3929  159.4288 H   0  0  0  0  0  0  0  0  0  0  0  0  # atno 6907 bound_to 6896
  150.6884  134.3542  159.4931 H   0  0  0  0  0  0  0  0  0  0  0  0  # atno 6908 bound_to 6896
  152.1326  134.9123  160.0608 H   0  0  0  0  0  0  0  0  0  0  0  0  # atno 6909 bound_to 6896
  145.8743  140.8192  142.9872 H   0  0  0  0  0  0  0  0  0  0  0  0  # atno 7974 bound_to 7965
  156.2937  140.2272  156.4830 H   0  0  0  0  0  0  0  0  0  0  0  0  # atno 8008 bound_to 7997
  154.7836  140.0458  157.1168 H   0  0  0  0  0  0  0  0  0  0  0  0  # atno 8009 bound_to 7997
  154.9729  140.3069  155.4983 H   0  0  0  0  0  0  0  0  0  0  0  0  # atno 8010 bound_to 7997
  139.7540  144.6975  151.0390 H   0  0  0  0  0  0  0  0  0  0  0  0  # atno 10167 bound_to 10162
  157.1087  130.6499  149.5891 H   0  0  0  0  0  0  0  0  0  0  0  0  # atno 10718 bound_to 10713
  153.9402  135.2981  155.3443 H   0  0  0  0  0  0  0  0  0  0  0  0  # atno 10763 bound_to 10752
  154.7481  135.4993  153.9243 H   0  0  0  0  0  0  0  0  0  0  0  0  # atno 10764 bound_to 10752
  153.1046  135.6743  153.9716 H   0  0  0  0  0  0  0  0  0  0  0  0  # atno 10765 bound_to 10752
  140.4361  134.1370  155.7685 H   0  0  0  0  0  0  0  0  0  0  0  0  # atno 11005 bound_to 11000
  144.6726  140.1287  143.7445 LP  0  0  0  0  0  0  0  0  0  0  0  0  # atno 17320 bound_to 7965
  145.9099  139.2481  143.1443 LP  0  0  0  0  0  0  0  0  0  0  0  0  # atno 17321 bound_to 7965
  140.7801  143.4775  151.0062 LP  0  0  0  0  0  0  0  0  0  0  0  0  # atno 17342 bound_to 10162
  139.8462  143.7498  152.3179 LP  0  0  0  0  0  0  0  0  0  0  0  0  # atno 17343 bound_to 10162
  155.9856  130.4886  150.7038 LP  0  0  0  0  0  0  0  0  0  0  0  0  # atno 17370 bound_to 10713
  157.4578  131.0880  151.0778 LP  0  0  0  0  0  0  0  0  0  0  0  0  # atno 17371 bound_to 10713
  141.1725  133.8580  157.1525 LP  0  0  0  0  0  0  0  0  0  0  0  0  # atno 17394 bound_to 11000
  140.0101  134.9991  157.0377 LP  0  0  0  0  0  0  0  0  0  0  0  0  # atno 17395 bound_to 11000

$$$$
