AV-unprocessed.smi:136|AV-procd|sdf|1173|dock4
  -GOLD-   2262018323D 1   1.00000     0.00000
 Structure written by MMmdl.
 54 58  0  0  0  0  0  0  0  0  1 V2000
  150.6731  137.1026  159.7579 O   0  0  0  0  0  0  0  0  0  0  0  0
  150.1519  137.3853  158.6774 C   0  0  0  0  0  0  0  0  0  0  0  0
  150.7955  138.4558  157.7709 C   0  0  0  0  0  0  0  0  0  0  0  0
  151.4402  139.5547  158.5227 N   0  0  0  0  0  0  0  0  0  0  0  0
  152.5425  139.2520  159.3597 C   0  0  0  0  0  0  0  0  0  0  0  0
  152.9726  138.1019  159.4592 O   0  0  0  0  0  0  0  0  0  0  0  0
  153.1097  140.3818  160.0865 C   0  0  0  0  0  0  0  0  0  0  0  0
  154.1592  140.1876  160.9031 F   0  0  0  0  0  0  0  0  0  0  0  0
  152.5967  141.6223  159.9549 C   0  0  0  0  0  0  0  0  0  0  0  0
  151.5184  141.9037  159.1348 N   0  0  0  0  0  0  0  0  0  0  0  0
  150.9422  143.2990  159.0125 C   0  0  2  0  0  0  0  0  0  0  0  0
  151.9718  144.2592  158.3864 C   0  0  0  0  0  0  0  0  0  0  0  0
  151.9968  145.4125  159.3698 C   0  0  0  0  0  0  0  0  0  0  0  0
  151.6468  144.7190  160.6776 C   0  0  0  0  0  0  0  0  0  0  0  0
  150.6362  143.8010  160.2826 O   0  0  0  0  0  0  0  0  0  0  0  0
  150.9073  140.8605  158.4054 C   0  0  0  0  0  0  0  0  0  0  0  0
  149.9298  141.0857  157.6879 O   0  0  0  0  0  0  0  0  0  0  0  0
  149.0228  136.7780  158.2490 N   0  0  0  0  0  0  0  0  0  0  0  0
  148.5109  136.9580  157.0053 N   0  0  0  0  0  0  0  0  0  0  0  0
  147.5418  136.1415  156.8128 C   0  0  0  0  0  0  0  0  0  0  0  0
  146.7535  136.0561  155.5631 C   0  0  0  0  0  0  0  0  0  0  0  0
  147.1279  136.8433  154.4502 C   0  0  0  0  0  0  0  0  0  0  0  0
  146.3769  136.7643  153.2612 C   0  0  0  0  0  0  0  0  0  0  0  0
  145.2615  135.9061  153.1837 C   0  0  0  0  0  0  0  0  0  0  0  0
  144.3447  135.8149  151.7251 Cl  0  0  0  0  0  0  0  0  0  0  0  0
  144.8937  135.1222  154.2956 C   0  0  0  0  0  0  0  0  0  0  0  0
  145.6371  135.1925  155.4901 C   0  0  0  0  0  0  0  0  0  0  0  0
  147.2586  135.2575  157.9804 C   0  0  0  0  0  0  0  0  0  0  0  0
  148.2855  135.7543  159.0010 C   0  0  2  0  0  0  0  0  0  0  0  0
  147.6502  136.2631  160.2638 C   0  0  0  0  0  0  0  0  0  0  0  0
  147.8057  135.9816  161.5951 C   0  0  0  0  0  0  0  0  0  0  0  0
  146.9013  136.8260  162.2956 C   0  0  0  0  0  0  0  0  0  0  0  0
  146.2638  137.5661  161.3418 C   0  0  0  0  0  0  0  0  0  0  0  0
  146.7108  137.2375  160.0994 O   0  0  0  0  0  0  0  0  0  0  0  0
  151.5086  137.9668  157.1054 H   0  0  0  0  0  0  0  0  0  0  0  0
  150.0329  138.8528  157.0986 H   0  0  0  0  0  0  0  0  0  0  0  0
  153.0612  142.4120  160.5251 H   0  0  0  0  0  0  0  0  0  0  0  0
  150.0226  143.1889  158.4349 H   0  0  0  0  0  0  0  0  0  0  0  0
  152.9522  143.7827  158.3356 H   0  0  0  0  0  0  0  0  0  0  0  0
  151.6695  144.5570  157.3821 H   0  0  0  0  0  0  0  0  0  0  0  0
  152.9581  145.9260  159.4018 H   0  0  0  0  0  0  0  0  0  0  0  0
  151.2258  146.1407  159.1152 H   0  0  0  0  0  0  0  0  0  0  0  0
  152.5093  144.1830  161.0759 H   0  0  0  0  0  0  0  0  0  0  0  0
  151.2864  145.4094  161.4403 H   0  0  0  0  0  0  0  0  0  0  0  0
  147.9791  137.5077  154.4896 H   0  0  0  0  0  0  0  0  0  0  0  0
  146.6575  137.3643  152.4079 H   0  0  0  0  0  0  0  0  0  0  0  0
  144.0387  134.4650  154.2334 H   0  0  0  0  0  0  0  0  0  0  0  0
  145.3347  134.5807  156.3269 H   0  0  0  0  0  0  0  0  0  0  0  0
  146.2328  135.3852  158.3295 H   0  0  0  0  0  0  0  0  0  0  0  0
  147.4165  134.2078  157.7304 H   0  0  0  0  0  0  0  0  0  0  0  0
  148.9722  134.9420  159.2459 H   0  0  0  0  0  0  0  0  0  0  0  0
  148.4861  135.2547  162.0135 H   0  0  0  0  0  0  0  0  0  0  0  0
  146.7390  136.8852  163.3615 H   0  0  0  0  0  0  0  0  0  0  0  0
  145.5036  138.3326  161.3710 H   0  0  0  0  0  0  0  0  0  0  0  0
  1  2  2  0  0  0  0
  2  3  1  0  0  0  0
  2 18  1  0  0  0  0
  3  4  1  0  0  0  0
  3 35  1  0  0  0  0
  3 36  1  0  0  0  0
  4 16  1  0  0  0  0
  4  5  1  0  0  0  0
  5  6  2  0  0  0  0
  5  7  1  0  0  0  0
  7  8  1  0  0  0  0
  7  9  2  0  0  0  0
  9 10  1  0  0  0  0
  9 37  1  0  0  0  0
 10 11  1  0  0  0  0
 10 16  1  0  0  0  0
 11 15  1  0  0  0  0
 11 12  1  0  0  0  0
 11 38  1  0  0  0  0
 12 13  1  0  0  0  0
 12 39  1  0  0  0  0
 12 40  1  0  0  0  0
 13 14  1  0  0  0  0
 13 41  1  0  0  0  0
 13 42  1  0  0  0  0
 14 15  1  0  0  0  0
 14 43  1  0  0  0  0
 14 44  1  0  0  0  0
 16 17  2  0  0  0  0
 18 29  1  0  0  0  0
 18 19  1  0  0  0  0
 19 20  2  0  0  0  0
 20 21  1  0  0  0  0
 20 28  1  0  0  0  0
 21 27  1  0  0  0  0
 21 22  2  0  0  0  0
 22 23  1  0  0  0  0
 22 45  1  0  0  0  0
 23 24  2  0  0  0  0
 23 46  1  0  0  0  0
 24 25  1  0  0  0  0
 24 26  1  0  0  0  0
 26 27  2  0  0  0  0
 26 47  1  0  0  0  0
 27 48  1  0  0  0  0
 28 29  1  0  0  0  0
 28 49  1  0  0  0  0
 28 50  1  0  0  0  0
 29 30  1  0  0  0  0
 29 51  1  0  0  0  0
 30 34  1  0  0  0  0
 30 31  2  0  0  0  0
 31 32  1  0  0  0  0
 31 52  1  0  0  0  0
 32 33  2  0  0  0  0
 32 53  1  0  0  0  0
 33 34  1  0  0  0  0
 33 54  1  0  0  0  0
M  END
> <s_m_source_file>
AV-unprocessed.smi

> <i_m_source_file_index>
136

> <i_lp_mmshare_version>
43012

> <i_f3d_flags>
0

> <s_epik_input>
bzFbY0hdW2NIXVtjSF1jMVtDQEBIXTJbQ0gyXUMoYzNbY0hdW2NIXWMoQ2wpW2NIXVtjSF0zKT1OTjJDKD1PKVtDSDJdbjRjKD1PKWMoRilbY0hdbihjND1PKVtDQEBIXTVbQ0gyXVtDSDJdW0NIMl1PNQ==

> <s_epik_cmdline>
J2VwaWtfcHl0aG9uJywgJy1waCcsICc3LjAnLCAnLXRuJywgJzgnLCAnLW1hJywgJzIwMCcsICctbWV0YWxfYmluZGluZycsICctaW1hZScsICc8aW5maWxlLm1hZT4nLCAnLW9tYWUnLCAnPG91dGZpbGUubWFlPic=

> <r_lp_tautomer_probability>
1

> <r_epik_Ionization_Penalty>
2.55467e-08

> <r_epik_Ionization_Penalty_Charging>
4.85705e-09

> <r_epik_Ionization_Penalty_Neutral>
2.06897e-08

> <r_epik_State_Penalty>
-0

> <r_epik_Charging_Adjusted_Penalty>
4.85705e-09

> <i_epik_Tot_Q>
0

> <i_epik_Tot_abs_Q>
0

> <r_epik_Metal_State_Penalty>
-0

> <b_epik_Metal_Only>
0

> <s_epik_Chemistry_Notes>
This compound has an imine and may undergo hydrolysis. This compound contains an acetal/aminal-like group ( X-CH(R)-Y where X, Y are N, S, or O) that may be acid/base labile, releasing an aldehyde.

> <s_lp_Force_Field>
OPLS_2005

> <r_lp_Energy>
40.0267

> <b_lp_Chiralities_Consistent>
1

> <s_lp_Variant>
AV-unprocessed.smi:136-3

> <Gold.Version>
5.8.1

> <Gold.Id.Protein>
6NUR|6NUR_protein|mol2

> <Gold.PLP.Fitness>
52.9274

> <Gold.PLP.PLP>
-50.8044

> <Gold.PLP.part.hbond>
-2.7834

> <Gold.PLP.part.metal>
0.0000

> <Gold.PLP.part.buried>
-4.7915

> <Gold.PLP.part.nonpolar>
-42.1349

> <Gold.PLP.part.repulsive>
0.1372

> <Gold.PLP.ligand.clash>
0.0000

> <Gold.PLP.ligand.torsion>
0.4838

> <Gold.PLP.Chemscore.Hbond>
1.0000

> <Gold.PLP.Chemscore.CHOScore>
0.0000

> <Gold.PLP.Chemscore.Metal>
0.0000

> <Gold.Chemscore.Hbonds>
donor molecule, donor type, donor heavy atom, donor atom, acceptor molecule, acceptor atom, score
      P1  H  6896  6908       L1     1  0.93

> <Gold.PLP.Chemscore.Internal.Correction>
0.0907

> <Gold.Rescore>
     Score         DG    S(hbond)    S(metal)    S(lipo)     H(rot)  DE(clash)    DE(int)     intcor
     13.45     -16.76       1.13        0.00     103.65       1.81       0.31       3.00       ----

> <Gold.Chemscore.Fitness>
13.4457

> <Gold.Chemscore.DG>
-16.7590

> <Gold.Chemscore.ZeroCoef>
-5.4800

> <Gold.Chemscore.Hbond>
1.1301

> <Gold.Chemscore.Metal>
0.0000

> <Gold.Chemscore.Lipo>
103.6481

> <Gold.Chemscore.Internal_Hbond>
0.0000

> <Gold.Chemscore.DEClash>
0.3096

> <Gold.Chemscore.DEInternal>
3.0037

> <Gold.Chemscore.Rot>
1.8056

> <Gold.Chemscore.Internal.Correction>
   9.000000E+99

> <Gold.Chemscore.Hbonds>
donor molecule, donor type, donor heavy atom, donor atom, acceptor molecule, acceptor atom, score
      P1  H  6896  6908       L1     1  0.76

> <Gold.Chemscore.Hbond.Weighted>
-3.7746

> <Gold.Chemscore.Metal.Weighted>
-0.0000

> <Gold.Chemscore.Lipo.Weighted>
-12.1268

> <Gold.Chemscore.Internal_Hbond.Weighted>
0.0000

> <Gold.Chemscore.DEClash.Weighted>
0.3096

> <Gold.Chemscore.DEInternal.Weighted>
3.0037

> <Gold.Chemscore.Rot.Weighted>
4.6223

> <Gold.Chemscore.Internal.Correction.Weighted>
   9.000000E+99

> <Gold.Protein.RotatedTorsions>
[ 6907 6896 6895 6894 ] final -143.41 input  -60.11 | X-H torsion
[ 7974 7965 7964 7962 ] final  101.45 input  175.53 | X-H torsion
[ 8008 7997 7996 7995 ] final  133.28 input   59.86 | X-H torsion
[ 10167 10162 10161 10158 ] final  -75.95 input  -65.29 | X-H torsion
[ 10718 10713 10712 10709 ] final  -87.77 input   66.30 | X-H torsion
[ 10763 10752 10751 10750 ] final  163.59 input  -60.55 | X-H torsion
[ 11005 11000 10999 10996 ] final  172.83 input  -57.11 | X-H torsion

> <Gold.Protein.ActiveResidues>
 VAL166  LYS551  ARG553  GLY616  TRP617  ASP618  TYR619  PRO620  LYS621  CYS622 
 ASP623  PHE694  ASN695  SER759  ASP760  ASP761  ALA762  ILE779  LEU786  VAL792 
 PHE793  MET794  SER795  GLU796  ALA797  LYS798  CYS799  TRP800  GLU811  SER814 

> <Gold.Protein.RotatedAtoms>
  151.1002  133.5250  159.2610 H   0  0  0  0  0  0  0  0  0  0  0  0  # atno 6907 bound_to 6896
  151.2083  135.0470  159.8911 H   0  0  0  0  0  0  0  0  0  0  0  0  # atno 6908 bound_to 6896
  152.5442  134.0820  159.8293 H   0  0  0  0  0  0  0  0  0  0  0  0  # atno 6909 bound_to 6896
  145.3722  139.2396  143.3449 H   0  0  0  0  0  0  0  0  0  0  0  0  # atno 7974 bound_to 7965
  156.2991  140.2525  156.3228 H   0  0  0  0  0  0  0  0  0  0  0  0  # atno 8008 bound_to 7997
  154.9219  140.0400  157.2021 H   0  0  0  0  0  0  0  0  0  0  0  0  # atno 8009 bound_to 7997
  154.8303  140.2874  155.5731 H   0  0  0  0  0  0  0  0  0  0  0  0  # atno 8010 bound_to 7997
  140.4899  143.2383  151.7924 H   0  0  0  0  0  0  0  0  0  0  0  0  # atno 10167 bound_to 10162
  155.9984  130.4812  150.4918 H   0  0  0  0  0  0  0  0  0  0  0  0  # atno 10718 bound_to 10713
  154.2960  135.2760  155.2633 H   0  0  0  0  0  0  0  0  0  0  0  0  # atno 10763 bound_to 10752
  154.5090  135.5787  153.6594 H   0  0  0  0  0  0  0  0  0  0  0  0  # atno 10764 bound_to 10752
  152.9907  135.6176  154.3128 H   0  0  0  0  0  0  0  0  0  0  0  0  # atno 10765 bound_to 10752
  140.3339  134.7334  157.4154 H   0  0  0  0  0  0  0  0  0  0  0  0  # atno 11005 bound_to 11000
  146.2880  140.4375  142.8750 LP  0  0  0  0  0  0  0  0  0  0  0  0  # atno 17320 bound_to 7965
  144.8568  140.7082  143.6133 LP  0  0  0  0  0  0  0  0  0  0  0  0  # atno 17321 bound_to 7965
  139.4849  144.4663  151.9480 LP  0  0  0  0  0  0  0  0  0  0  0  0  # atno 17342 bound_to 10162
  140.3750  144.2808  150.5915 LP  0  0  0  0  0  0  0  0  0  0  0  0  # atno 17343 bound_to 10162
  157.2912  131.0626  151.2132 LP  0  0  0  0  0  0  0  0  0  0  0  0  # atno 17370 bound_to 10713
  157.3144  130.6906  149.6234 LP  0  0  0  0  0  0  0  0  0  0  0  0  # atno 17371 bound_to 10713
  140.0837  134.5696  155.8514 LP  0  0  0  0  0  0  0  0  0  0  0  0  # atno 17394 bound_to 11000
  141.2056  133.6648  156.6191 LP  0  0  0  0  0  0  0  0  0  0  0  0  # atno 17395 bound_to 11000

$$$$
