AV-unprocessed.smi:3046|AV-procd|sdf|11616|dock4
  -GOLD-   2272017 03D 1   1.00000     0.00000
 Structure written by MMmdl.
 38 38  0  0  0  0  0  0  0  0  2 V2000
  150.1498  139.2512  153.8978 C   0  0  0  0  0  0  0  0  0  0  0  0
  150.7624  138.5657  154.8744 C   0  0  0  0  0  0  0  0  0  0  0  0
  151.4701  137.2426  154.6777 C   0  0  0  0  0  0  0  0  0  0  0  0
  150.5276  136.2169  154.2567 N   0  0  0  0  0  0  0  0  0  0  0  0
  150.2869  135.0873  154.9373 C   0  0  0  0  0  0  0  0  0  0  0  0
  150.8521  134.8024  155.9937 O   0  0  0  0  0  0  0  0  0  0  0  0
  149.2625  134.1221  154.3262 C   0  0  1  0  0  0  0  0  0  0  0  0
  148.9417  132.9994  155.3244 C   0  0  0  0  0  0  0  0  0  0  0  0
  148.0131  134.8197  153.9396 N   0  3  0  0  0  0  0  0  0  0  0  0
  146.9200  133.9559  153.4340 C   0  0  1  0  0  0  0  0  0  0  0  0
  145.5906  134.7261  153.4808 C   0  0  0  0  0  0  0  0  0  0  0  0
  147.2558  133.4429  152.0174 C   0  0  0  0  0  0  0  0  0  0  0  0
  146.1167  132.8341  151.3555 N   0  0  0  0  0  0  0  0  0  0  0  0
  145.9317  131.5151  150.9974 C   0  0  0  0  0  0  0  0  0  0  0  0
  144.7026  131.4235  150.4094 C   0  0  0  0  0  0  0  0  0  0  0  0
  144.2028  132.7549  150.4601 C   0  0  0  0  0  0  0  0  0  0  0  0
  145.0511  133.5966  151.0283 N   0  0  0  0  0  0  0  0  0  0  0  0
  150.1236  138.8817  152.8830 H   0  0  0  0  0  0  0  0  0  0  0  0
  149.6648  140.1944  154.1024 H   0  0  0  0  0  0  0  0  0  0  0  0
  150.7703  138.9705  155.8762 H   0  0  0  0  0  0  0  0  0  0  0  0
  152.2641  137.3449  153.9362 H   0  0  0  0  0  0  0  0  0  0  0  0
  151.9356  136.9514  155.6205 H   0  0  0  0  0  0  0  0  0  0  0  0
  150.0309  136.3766  153.3919 H   0  0  0  0  0  0  0  0  0  0  0  0
  149.6869  133.6594  153.4332 H   0  0  0  0  0  0  0  0  0  0  0  0
  149.8404  132.4463  155.6004 H   0  0  0  0  0  0  0  0  0  0  0  0
  148.2386  132.2841  154.8961 H   0  0  0  0  0  0  0  0  0  0  0  0
  148.4977  133.3904  156.2411 H   0  0  0  0  0  0  0  0  0  0  0  0
  147.6651  135.2878  154.7640 H   0  0  0  0  0  0  0  0  0  0  0  0
  146.8151  133.0932  154.0940 H   0  0  0  0  0  0  0  0  0  0  0  0
  144.7516  134.0942  153.1883 H   0  0  0  0  0  0  0  0  0  0  0  0
  145.6070  135.5878  152.8126 H   0  0  0  0  0  0  0  0  0  0  0  0
  145.3846  135.0895  154.4880 H   0  0  0  0  0  0  0  0  0  0  0  0
  147.6220  134.2604  151.3950 H   0  0  0  0  0  0  0  0  0  0  0  0
  148.0539  132.7012  152.0549 H   0  0  0  0  0  0  0  0  0  0  0  0
  146.6807  130.7602  151.1859 H   0  0  0  0  0  0  0  0  0  0  0  0
  144.2307  130.5396  150.0067 H   0  0  0  0  0  0  0  0  0  0  0  0
  143.2555  133.1321  150.1039 H   0  0  0  0  0  0  0  0  0  0  0  0
  148.2325  135.5197  153.2450 H   0  0  0  0  0  0  0  0  0  0  0  0
  1  2  2  0  0  0  0
  1 18  1  0  0  0  0
  1 19  1  0  0  0  0
  2  3  1  0  0  0  0
  2 20  1  0  0  0  0
  3  4  1  0  0  0  0
  3 21  1  0  0  0  0
  3 22  1  0  0  0  0
  4  5  1  0  0  0  0
  4 23  1  0  0  0  0
  5  6  2  0  0  0  0
  5  7  1  0  0  0  0
  7  8  1  0  0  0  0
  7  9  1  0  0  0  0
  7 24  1  0  0  0  0
  8 25  1  0  0  0  0
  8 26  1  0  0  0  0
  8 27  1  0  0  0  0
  9 10  1  0  0  0  0
  9 28  1  0  0  0  0
  9 38  1  0  0  0  0
 10 11  1  0  0  0  0
 10 12  1  0  0  0  0
 10 29  1  0  0  0  0
 11 30  1  0  0  0  0
 11 31  1  0  0  0  0
 11 32  1  0  0  0  0
 12 13  1  0  0  0  0
 12 33  1  0  0  0  0
 12 34  1  0  0  0  0
 13 17  1  0  0  0  0
 13 14  1  0  0  0  0
 14 15  2  0  0  0  0
 14 35  1  0  0  0  0
 15 16  1  0  0  0  0
 15 36  1  0  0  0  0
 16 17  2  0  0  0  0
 16 37  1  0  0  0  0
M  CHG  1   9   1
M  END
> <s_m_source_file>
AV-unprocessed.smi

> <i_m_source_file_index>
3046

> <i_lp_mmshare_version>
43012

> <i_f3d_flags>
0

> <s_epik_input>
W0NIMl09W0NIXVtDSDJdW05IXUMoPU8pW0NASF0oW0NIM10pW05IXVtDQEhdKFtDSDNdKVtDSDJdbjFbY0hdW2NIXVtjSF1uMQ==

> <s_epik_cmdline>
J2VwaWtfcHl0aG9uJywgJy1waCcsICc3LjAnLCAnLXRuJywgJzgnLCAnLW1hJywgJzIwMCcsICctbWV0YWxfYmluZGluZycsICctaW1hZScsICc8aW5maWxlLm1hZT4nLCAnLW9tYWUnLCAnPG91dGZpbGUubWFlPic=

> <r_lp_tautomer_probability>
1

> <r_epik_Ionization_Penalty>
0.132961

> <r_epik_Ionization_Penalty_Charging>
0.132956

> <r_epik_Ionization_Penalty_Neutral>
5.00268e-06

> <r_epik_State_Penalty>
0.122332

> <r_epik_Charging_Adjusted_Penalty>
0.255288

> <i_epik_Tot_Q>
1

> <i_epik_Tot_abs_Q>
1

> <r_epik_Metal_State_Penalty>
0.122338

> <b_epik_Metal_Only>
0

> <s_lp_Force_Field>
OPLS_2005

> <r_lp_Energy>
6.90886

> <b_lp_Chiralities_Consistent>
1

> <s_lp_Variant>
AV-unprocessed.smi:3046-4

> <Gold.Version>
5.8.1

> <Gold.Id.Protein>
6NUR|6NUR_protein|mol2

> <Gold.PLP.Fitness>
43.6829

> <Gold.PLP.PLP>
-29.8657

> <Gold.PLP.part.hbond>
-3.0000

> <Gold.PLP.part.metal>
0.0000

> <Gold.PLP.part.buried>
-2.6446

> <Gold.PLP.part.nonpolar>
-24.9219

> <Gold.PLP.part.repulsive>
0.2239

> <Gold.PLP.ligand.clash>
0.0000

> <Gold.PLP.ligand.torsion>
0.4621

> <Gold.PLP.Chemscore.Hbond>
2.8880

> <Gold.PLP.Chemscore.CHOScore>
2.0000

> <Gold.PLP.Chemscore.Metal>
0.0000

> <Gold.Chemscore.Hbonds>
donor molecule, donor type, donor heavy atom, donor atom, acceptor molecule, acceptor atom, score
      L1  H     4    23       P1  7948  0.60
      L1  H     9    38       P1  7948  2.00
      L1  C    14    35       P1 10747  0.88
      L1  C    16    37       P1 10186  0.70

> <Gold.PLP.Chemscore.Internal.Correction>
0.0775

> <Gold.Rescore>
     Score         DG    S(hbond)    S(metal)    S(lipo)     H(rot)  DE(clash)    DE(int)     intcor
     10.31     -12.24       1.29        0.00      70.40       2.26       0.15       1.79       ----

> <Gold.Chemscore.Fitness>
10.3061

> <Gold.Chemscore.DG>
-12.2405

> <Gold.Chemscore.ZeroCoef>
-5.4800

> <Gold.Chemscore.Hbond>
1.2923

> <Gold.Chemscore.Metal>
0.0000

> <Gold.Chemscore.Lipo>
70.3970

> <Gold.Chemscore.Internal_Hbond>
0.0000

> <Gold.Chemscore.DEClash>
0.1465

> <Gold.Chemscore.DEInternal>
1.7879

> <Gold.Chemscore.Rot>
2.2626

> <Gold.Chemscore.Internal.Correction>
   9.000000E+99

> <Gold.Chemscore.Hbonds>
donor molecule, donor type, donor heavy atom, donor atom, acceptor molecule, acceptor atom, score
      L1  H     4    23       P1  7948  0.04
      L1  H     9    38       P1  7948  0.99

> <Gold.Chemscore.Hbond.Weighted>
-4.3162

> <Gold.Chemscore.Metal.Weighted>
-0.0000

> <Gold.Chemscore.Lipo.Weighted>
-8.2364

> <Gold.Chemscore.Internal_Hbond.Weighted>
0.0000

> <Gold.Chemscore.DEClash.Weighted>
0.1465

> <Gold.Chemscore.DEInternal.Weighted>
1.7879

> <Gold.Chemscore.Rot.Weighted>
5.7922

> <Gold.Chemscore.Internal.Correction.Weighted>
   9.000000E+99

> <Gold.Protein.RotatedTorsions>
[ 6907 6896 6895 6894 ] final   45.95 input  -60.11 | X-H torsion
[ 7974 7965 7964 7962 ] final -128.55 input  175.53 | X-H torsion
[ 8008 7997 7996 7995 ] final   15.04 input   59.86 | X-H torsion
[ 10167 10162 10161 10158 ] final  160.71 input  -65.29 | X-H torsion
[ 10718 10713 10712 10709 ] final   14.40 input   66.30 | X-H torsion
[ 10763 10752 10751 10750 ] final  -52.12 input  -60.55 | X-H torsion
[ 11005 11000 10999 10996 ] final  155.65 input  -57.11 | X-H torsion

> <Gold.Protein.ActiveResidues>
 VAL166  LYS551  ARG553  GLY616  TRP617  ASP618  TYR619  PRO620  LYS621  CYS622 
 ASP623  PHE694  ASN695  SER759  ASP760  ASP761  ALA762  ILE779  LEU786  VAL792 
 PHE793  MET794  SER795  GLU796  ALA797  LYS798  CYS799  TRP800  GLU811  SER814 

> <Gold.Protein.RotatedAtoms>
  152.2507  134.8136  160.0446 H   0  0  0  0  0  0  0  0  0  0  0  0  # atno 6907 bound_to 6896
  151.8817  133.3491  159.3776 H   0  0  0  0  0  0  0  0  0  0  0  0  # atno 6908 bound_to 6896
  150.7083  134.4939  159.5573 H   0  0  0  0  0  0  0  0  0  0  0  0  # atno 6909 bound_to 6896
  144.9659  140.7496  143.4700 H   0  0  0  0  0  0  0  0  0  0  0  0  # atno 7974 bound_to 7965
  154.8570  140.2938  155.5563 H   0  0  0  0  0  0  0  0  0  0  0  0  # atno 8008 bound_to 7997
  156.3018  140.2485  156.3470 H   0  0  0  0  0  0  0  0  0  0  0  0  # atno 8009 bound_to 7997
  154.8960  140.0393  157.1855 H   0  0  0  0  0  0  0  0  0  0  0  0  # atno 8010 bound_to 7997
  139.4842  144.4608  151.8708 H   0  0  0  0  0  0  0  0  0  0  0  0  # atno 10167 bound_to 10162
  157.0385  130.6221  149.5747 H   0  0  0  0  0  0  0  0  0  0  0  0  # atno 10718 bound_to 10713
  154.1376  135.6510  153.4935 H   0  0  0  0  0  0  0  0  0  0  0  0  # atno 10763 bound_to 10752
  153.0176  135.5307  154.6938 H   0  0  0  0  0  0  0  0  0  0  0  0  # atno 10764 bound_to 10752
  154.6190  135.2962  155.0318 H   0  0  0  0  0  0  0  0  0  0  0  0  # atno 10765 bound_to 10752
  140.1602  134.8615  157.2564 H   0  0  0  0  0  0  0  0  0  0  0  0  # atno 11005 bound_to 11000
  145.2630  139.1985  143.4882 LP  0  0  0  0  0  0  0  0  0  0  0  0  # atno 17320 bound_to 7965
  146.3368  140.2563  142.8600 LP  0  0  0  0  0  0  0  0  0  0  0  0  # atno 17321 bound_to 7965
  140.4070  144.2419  150.5890 LP  0  0  0  0  0  0  0  0  0  0  0  0  # atno 17342 bound_to 10162
  140.5003  143.2320  151.8689 LP  0  0  0  0  0  0  0  0  0  0  0  0  # atno 17343 bound_to 10162
  156.0046  130.5130  150.7784 LP  0  0  0  0  0  0  0  0  0  0  0  0  # atno 17370 bound_to 10713
  157.5123  131.0926  151.0183 LP  0  0  0  0  0  0  0  0  0  0  0  0  # atno 17371 bound_to 10713
  140.2499  134.3695  155.7446 LP  0  0  0  0  0  0  0  0  0  0  0  0  # atno 17394 bound_to 11000
  141.2208  133.7311  156.8920 LP  0  0  0  0  0  0  0  0  0  0  0  0  # atno 17395 bound_to 11000

$$$$
