AV-unprocessed.smi:2198|AV-procd|sdf|8918|dock4
  -GOLD-   2272012133D 1   1.00000     0.00000
 Structure written by MMmdl.
 43 44  0  0  0  0  0  0  0  0  1 V2000
  151.0458  142.2598  156.5002 C   0  0  0  0  0  0  0  0  0  0  0  0
  150.1128  141.4943  155.5869 C   0  0  0  0  0  0  0  0  0  0  0  0
  148.9285  142.1592  155.3152 N   0  0  0  0  0  0  0  0  0  0  0  0
  148.0038  141.5288  154.5013 C   0  0  0  0  0  0  0  0  0  0  0  0
  146.7272  142.3183  154.2690 C   0  0  0  0  0  0  0  0  0  0  0  0
  148.2523  140.3026  153.9745 C   0  0  0  0  0  0  0  0  0  0  0  0
  147.2566  139.5696  153.0784 C   0  0  0  0  0  0  0  0  0  0  0  0
  146.4315  138.4830  153.7693 C   0  0  0  0  0  0  0  0  0  0  0  0
  145.6674  138.7804  154.6868 O   0  0  0  0  0  0  0  0  0  0  0  0
  146.5969  137.2299  153.3198 N   0  0  0  0  0  0  0  0  0  0  0  0
  145.9073  136.0446  153.8249 C   0  0  1  0  0  0  0  0  0  0  0  0
  144.3812  136.1583  153.6273 C   0  0  0  0  0  0  0  0  0  0  0  0
  143.9820  136.0693  152.1444 C   0  0  0  0  0  0  0  0  0  0  0  0
  144.5310  134.7903  151.4932 C   0  0  0  0  0  0  0  0  0  0  0  0
  146.0598  134.6838  151.6526 C   0  0  2  0  0  0  0  0  0  0  0  0
  146.6027  133.4008  151.0080 C   0  0  0  0  0  0  0  0  0  0  0  0
  146.4583  134.7773  153.1410 C   0  0  0  0  0  0  0  0  0  0  0  0
  149.5459  139.6498  154.2854 C   0  0  0  0  0  0  0  0  0  0  0  0
  149.8400  138.5489  153.8215 O   0  0  0  0  0  0  0  0  0  0  0  0
  150.4428  140.3253  155.1288 N   0  0  0  0  0  0  0  0  0  0  0  0
  148.7034  143.0709  155.6866 H   0  0  0  0  0  0  0  0  0  0  0  0
  151.8825  141.6347  156.8147 H   0  0  0  0  0  0  0  0  0  0  0  0
  150.5179  142.5940  157.3941 H   0  0  0  0  0  0  0  0  0  0  0  0
  151.4468  143.1336  155.9857 H   0  0  0  0  0  0  0  0  0  0  0  0
  145.8630  141.7632  154.6346 H   0  0  0  0  0  0  0  0  0  0  0  0
  146.5879  142.5152  153.2060 H   0  0  0  0  0  0  0  0  0  0  0  0
  146.7491  143.2789  154.7851 H   0  0  0  0  0  0  0  0  0  0  0  0
  147.8018  139.1292  152.2427 H   0  0  0  0  0  0  0  0  0  0  0  0
  146.5675  140.2742  152.6116 H   0  0  0  0  0  0  0  0  0  0  0  0
  147.2482  137.0840  152.5623 H   0  0  0  0  0  0  0  0  0  0  0  0
  146.1134  135.9608  154.8936 H   0  0  0  0  0  0  0  0  0  0  0  0
  143.8905  135.3529  154.1753 H   0  0  0  0  0  0  0  0  0  0  0  0
  144.0073  137.0872  154.0600 H   0  0  0  0  0  0  0  0  0  0  0  0
  142.8960  136.0945  152.0523 H   0  0  0  0  0  0  0  0  0  0  0  0
  144.3552  136.9429  151.6086 H   0  0  0  0  0  0  0  0  0  0  0  0
  144.0512  133.9197  151.9423 H   0  0  0  0  0  0  0  0  0  0  0  0
  144.2645  134.7773  150.4357 H   0  0  0  0  0  0  0  0  0  0  0  0
  146.5109  135.5256  151.1257 H   0  0  0  0  0  0  0  0  0  0  0  0
  146.1914  132.5113  151.4864 H   0  0  0  0  0  0  0  0  0  0  0  0
  147.6889  133.3502  151.0889 H   0  0  0  0  0  0  0  0  0  0  0  0
  146.3490  133.3562  149.9485 H   0  0  0  0  0  0  0  0  0  0  0  0
  147.5440  134.7444  153.2423 H   0  0  0  0  0  0  0  0  0  0  0  0
  146.0805  133.9000  153.6680 H   0  0  0  0  0  0  0  0  0  0  0  0
  1 22  1  0  0  0  0
  1 23  1  0  0  0  0
  1 24  1  0  0  0  0
  1  2  1  0  0  0  0
  2  3  1  0  0  0  0
  2 20  2  0  0  0  0
  3  4  1  0  0  0  0
  3 21  1  0  0  0  0
  4  6  2  0  0  0  0
  4  5  1  0  0  0  0
  5 25  1  0  0  0  0
  5 26  1  0  0  0  0
  5 27  1  0  0  0  0
  6 18  1  0  0  0  0
  6  7  1  0  0  0  0
  7  8  1  0  0  0  0
  7 28  1  0  0  0  0
  7 29  1  0  0  0  0
  8  9  2  0  0  0  0
  8 10  1  0  0  0  0
 10 11  1  0  0  0  0
 10 30  1  0  0  0  0
 11 17  1  0  0  0  0
 11 12  1  0  0  0  0
 11 31  1  0  0  0  0
 12 13  1  0  0  0  0
 12 32  1  0  0  0  0
 12 33  1  0  0  0  0
 13 14  1  0  0  0  0
 13 34  1  0  0  0  0
 13 35  1  0  0  0  0
 14 15  1  0  0  0  0
 14 36  1  0  0  0  0
 14 37  1  0  0  0  0
 15 16  1  0  0  0  0
 15 17  1  0  0  0  0
 15 38  1  0  0  0  0
 16 39  1  0  0  0  0
 16 40  1  0  0  0  0
 16 41  1  0  0  0  0
 17 42  1  0  0  0  0
 17 43  1  0  0  0  0
 18 19  2  0  0  0  0
 18 20  1  0  0  0  0
M  END
> <s_m_source_file>
AV-unprocessed.smi

> <i_m_source_file_index>
2198

> <i_lp_mmshare_version>
43012

> <i_f3d_flags>
0

> <s_epik_input>
W0NIM11jMW5jKFtDSDNdKWMoYyg9TylbbkhdMSlbQ0gyXUMoPU8pW05IXVtDQEBIXTJbQ0gyXVtDSDJdW0NIMl1bQ0BASF0oW0NIM10pW0NIMl0y

> <s_epik_cmdline>
J2VwaWtfcHl0aG9uJywgJy1waCcsICc3LjAnLCAnLXRuJywgJzgnLCAnLW1hJywgJzIwMCcsICctbWV0YWxfYmluZGluZycsICctaW1hZScsICc8aW5maWxlLm1hZT4nLCAnLW9tYWUnLCAnPG91dGZpbGUubWFlPic=

> <r_lp_tautomer_probability>
0.156392

> <r_epik_Ionization_Penalty>
0.0136514

> <r_epik_Ionization_Penalty_Charging>
0.0135207

> <r_epik_Ionization_Penalty_Neutral>
0.000130657

> <r_epik_State_Penalty>
1.15342

> <r_epik_Charging_Adjusted_Penalty>
1.16694

> <i_epik_Tot_Q>
0

> <i_epik_Tot_abs_Q>
0

> <r_epik_Metal_State_Penalty>
1.31404

> <b_epik_Metal_Only>
0

> <s_lp_Force_Field>
OPLS_2005

> <r_lp_Energy>
13.6567

> <b_lp_Chiralities_Consistent>
1

> <s_lp_Variant>
AV-unprocessed.smi:2198-8

> <Gold.Version>
5.8.1

> <Gold.Id.Protein>
6NUR|6NUR_protein|mol2

> <Gold.PLP.Fitness>
39.1716

> <Gold.PLP.PLP>
-32.6700

> <Gold.PLP.part.hbond>
-2.8883

> <Gold.PLP.part.metal>
0.0000

> <Gold.PLP.part.buried>
-1.6957

> <Gold.PLP.part.nonpolar>
-27.6476

> <Gold.PLP.part.repulsive>
0.6013

> <Gold.PLP.ligand.clash>
0.0000

> <Gold.PLP.ligand.torsion>
0.2971

> <Gold.PLP.Chemscore.Hbond>
2.3628

> <Gold.PLP.Chemscore.CHOScore>
0.0000

> <Gold.PLP.Chemscore.Metal>
0.0000

> <Gold.Chemscore.Hbonds>
donor molecule, donor type, donor heavy atom, donor atom, acceptor molecule, acceptor atom, score
      L1  H     3    21       P1  8028  1.00
      L1  H    10    30       P1  7948  1.00
      P1  H  7989  7998       L1    20  0.47

> <Gold.PLP.Chemscore.Internal.Correction>
0.0076

> <Gold.Rescore>
     Score         DG    S(hbond)    S(metal)    S(lipo)     H(rot)  DE(clash)    DE(int)     intcor
     14.88     -15.48       1.98        0.00      61.42       1.48       0.36       0.24       ----

> <Gold.Chemscore.Fitness>
14.8788

> <Gold.Chemscore.DG>
-15.4803

> <Gold.Chemscore.ZeroCoef>
-5.4800

> <Gold.Chemscore.Hbond>
1.9769

> <Gold.Chemscore.Metal>
0.0000

> <Gold.Chemscore.Lipo>
61.4235

> <Gold.Chemscore.Internal_Hbond>
0.0000

> <Gold.Chemscore.DEClash>
0.3593

> <Gold.Chemscore.DEInternal>
0.2421

> <Gold.Chemscore.Rot>
1.4801

> <Gold.Chemscore.Internal.Correction>
   9.000000E+99

> <Gold.Chemscore.Hbonds>
donor molecule, donor type, donor heavy atom, donor atom, acceptor molecule, acceptor atom, score
      L1  H     3    21       P1  8028  0.94
      L1  H    10    30       P1  7948  0.89
      P1  H  7989  7998       L1    20  0.01

> <Gold.Chemscore.Hbond.Weighted>
-6.6028

> <Gold.Chemscore.Metal.Weighted>
-0.0000

> <Gold.Chemscore.Lipo.Weighted>
-7.1866

> <Gold.Chemscore.Internal_Hbond.Weighted>
0.0000

> <Gold.Chemscore.DEClash.Weighted>
0.3593

> <Gold.Chemscore.DEInternal.Weighted>
0.2421

> <Gold.Chemscore.Rot.Weighted>
3.7891

> <Gold.Chemscore.Internal.Correction.Weighted>
   9.000000E+99

> <Gold.Protein.RotatedTorsions>
[ 6907 6896 6895 6894 ] final   -3.97 input  -60.11 | X-H torsion
[ 7974 7965 7964 7962 ] final   98.42 input  175.53 | X-H torsion
[ 8008 7997 7996 7995 ] final -134.80 input   59.86 | X-H torsion
[ 10167 10162 10161 10158 ] final   17.02 input  -65.29 | X-H torsion
[ 10718 10713 10712 10709 ] final -165.47 input   66.30 | X-H torsion
[ 10763 10752 10751 10750 ] final  129.62 input  -60.55 | X-H torsion
[ 11005 11000 10999 10996 ] final   87.74 input  -57.11 | X-H torsion

> <Gold.Protein.ActiveResidues>
 VAL166  LYS551  ARG553  GLY616  TRP617  ASP618  TYR619  PRO620  LYS621  CYS622 
 ASP623  PHE694  ASN695  SER759  ASP760  ASP761  ALA762  ILE779  LEU786  VAL792 
 PHE793  MET794  SER795  GLU796  ALA797  LYS798  CYS799  TRP800  GLU811  SER814 

> <Gold.Protein.RotatedAtoms>
  151.5052  135.1063  159.9839 H   0  0  0  0  0  0  0  0  0  0  0  0  # atno 6907 bound_to 6896
  152.4685  133.7972  159.6944 H   0  0  0  0  0  0  0  0  0  0  0  0  # atno 6908 bound_to 6896
  150.8681  133.7481  159.2996 H   0  0  0  0  0  0  0  0  0  0  0  0  # atno 6909 bound_to 6896
  145.4124  139.2332  143.3241 H   0  0  0  0  0  0  0  0  0  0  0  0  # atno 7974 bound_to 7965
  155.3681  140.0486  157.3046 H   0  0  0  0  0  0  0  0  0  0  0  0  # atno 8008 bound_to 7997
  154.5144  140.2203  155.9058 H   0  0  0  0  0  0  0  0  0  0  0  0  # atno 8009 bound_to 7997
  156.1619  140.3114  155.8828 H   0  0  0  0  0  0  0  0  0  0  0  0  # atno 8010 bound_to 7997
  140.5756  143.9079  150.6747 H   0  0  0  0  0  0  0  0  0  0  0  0  # atno 10167 bound_to 10162
  156.6539  130.9019  151.3018 H   0  0  0  0  0  0  0  0  0  0  0  0  # atno 10718 bound_to 10713
  153.7447  135.3219  155.3310 H   0  0  0  0  0  0  0  0  0  0  0  0  # atno 10763 bound_to 10752
  154.8283  135.4553  154.0991 H   0  0  0  0  0  0  0  0  0  0  0  0  # atno 10764 bound_to 10752
  153.2176  135.6944  153.8120 H   0  0  0  0  0  0  0  0  0  0  0  0  # atno 10765 bound_to 10752
  139.8912  134.8442  156.2903 H   0  0  0  0  0  0  0  0  0  0  0  0  # atno 11005 bound_to 11000
  146.2698  140.4837  142.8819 LP  0  0  0  0  0  0  0  0  0  0  0  0  # atno 17320 bound_to 7965
  144.8300  140.6691  143.6297 LP  0  0  0  0  0  0  0  0  0  0  0  0  # atno 17321 bound_to 7965
  140.2565  143.3555  152.1360 LP  0  0  0  0  0  0  0  0  0  0  0  0  # atno 17342 bound_to 10162
  139.5141  144.6942  151.5675 LP  0  0  0  0  0  0  0  0  0  0  0  0  # atno 17343 bound_to 10162
  157.7132  130.9465  150.1161 LP  0  0  0  0  0  0  0  0  0  0  0  0  # atno 17370 bound_to 10713
  156.2063  130.3663  149.8726 LP  0  0  0  0  0  0  0  0  0  0  0  0  # atno 17371 bound_to 10713
  140.9981  133.7168  156.0917 LP  0  0  0  0  0  0  0  0  0  0  0  0  # atno 17394 bound_to 11000
  140.7535  134.4018  157.5537 LP  0  0  0  0  0  0  0  0  0  0  0  0  # atno 17395 bound_to 11000

$$$$
