AV-unprocessed.smi:3042|AV-procd|sdf|11602|dock2
  -GOLD-   2272016583D 1   1.00000     0.00000
 Structure written by MMmdl.
 32 33  0  0  0  0  0  0  0  0  1 V2000
  142.8027  133.6429  153.4775 N   0  0  0  0  0  0  0  0  0  0  0  0
  143.8192  134.7024  153.3691 C   0  0  0  0  0  0  0  0  0  0  0  0
  144.2705  134.9689  151.9106 C   0  0  1  0  0  0  0  0  0  0  0  0
  144.9040  136.3575  151.8345 C   0  0  0  0  0  0  0  0  0  0  0  0
  145.1713  137.0927  153.0089 C   0  0  0  0  0  0  0  0  0  0  0  0
  145.7584  138.3675  152.8959 C   0  0  0  0  0  0  0  0  0  0  0  0
  146.0574  138.8562  151.6085 C   0  0  0  0  0  0  0  0  0  0  0  0
  145.8085  138.1638  150.4765 N   0  0  0  0  0  0  0  0  0  0  0  0
  145.2454  136.9419  150.5940 C   0  0  0  0  0  0  0  0  0  0  0  0
  145.1667  133.9350  151.3520 N   0  0  0  0  0  0  0  0  0  0  0  0
  144.4728  132.6567  151.1561 C   0  0  0  0  0  0  0  0  0  0  0  0
  145.3933  131.5675  150.5796 C   0  0  0  0  0  0  0  0  0  0  0  0
  146.5141  131.3900  151.4361 O   0  0  0  0  0  0  0  0  0  0  0  0
  147.2562  132.5904  151.6077 C   0  0  0  0  0  0  0  0  0  0  0  0
  146.3451  133.6868  152.1870 C   0  0  0  0  0  0  0  0  0  0  0  0
  143.2447  132.7418  153.6531 H   0  0  0  0  0  0  0  0  0  0  0  0
  142.1786  133.8274  154.2616 H   0  0  0  0  0  0  0  0  0  0  0  0
  143.4346  135.6229  153.8091 H   0  0  0  0  0  0  0  0  0  0  0  0
  144.6702  134.4064  153.9802 H   0  0  0  0  0  0  0  0  0  0  0  0
  143.3676  134.9936  151.2980 H   0  0  0  0  0  0  0  0  0  0  0  0
  144.9305  136.6889  153.9814 H   0  0  0  0  0  0  0  0  0  0  0  0
  145.9754  138.9564  153.7747 H   0  0  0  0  0  0  0  0  0  0  0  0
  146.5093  139.8294  151.4853 H   0  0  0  0  0  0  0  0  0  0  0  0
  145.0599  136.4153  149.6693 H   0  0  0  0  0  0  0  0  0  0  0  0
  144.0608  132.3122  152.1059 H   0  0  0  0  0  0  0  0  0  0  0  0
  143.6285  132.7770  150.4777 H   0  0  0  0  0  0  0  0  0  0  0  0
  144.8563  130.6225  150.4976 H   0  0  0  0  0  0  0  0  0  0  0  0
  145.7286  131.8344  149.5762 H   0  0  0  0  0  0  0  0  0  0  0  0
  148.0922  132.3984  152.2803 H   0  0  0  0  0  0  0  0  0  0  0  0
  147.6795  132.9052  150.6525 H   0  0  0  0  0  0  0  0  0  0  0  0
  146.9462  134.5894  152.2812 H   0  0  0  0  0  0  0  0  0  0  0  0
  146.0334  133.4051  153.1938 H   0  0  0  0  0  0  0  0  0  0  0  0
  1  2  1  0  0  0  0
  1 16  1  0  0  0  0
  1 17  1  0  0  0  0
  2  3  1  0  0  0  0
  2 18  1  0  0  0  0
  2 19  1  0  0  0  0
  3  4  1  0  0  0  0
  3 10  1  0  0  0  0
  3 20  1  0  0  0  0
  4  9  1  0  0  0  0
  4  5  2  0  0  0  0
  5  6  1  0  0  0  0
  5 21  1  0  0  0  0
  6  7  2  0  0  0  0
  6 22  1  0  0  0  0
  7  8  1  0  0  0  0
  7 23  1  0  0  0  0
  8  9  2  0  0  0  0
  9 24  1  0  0  0  0
 10 15  1  0  0  0  0
 10 11  1  0  0  0  0
 11 12  1  0  0  0  0
 11 25  1  0  0  0  0
 11 26  1  0  0  0  0
 12 13  1  0  0  0  0
 12 27  1  0  0  0  0
 12 28  1  0  0  0  0
 13 14  1  0  0  0  0
 14 15  1  0  0  0  0
 14 29  1  0  0  0  0
 14 30  1  0  0  0  0
 15 31  1  0  0  0  0
 15 32  1  0  0  0  0
M  END
> <s_m_source_file>
AV-unprocessed.smi

> <i_m_source_file_index>
3042

> <i_lp_mmshare_version>
43012

> <i_f3d_flags>
0

> <s_epik_input>
W0NIMl0xW0NIMl1PW0NIMl1bQ0gyXU4xW0NASF0oW0NIMl1bTkgyXSljMltjSF1bY0hdW2NIXW5bY0hdMg==

> <s_epik_cmdline>
J2VwaWtfcHl0aG9uJywgJy1waCcsICc3LjAnLCAnLXRuJywgJzgnLCAnLW1hJywgJzIwMCcsICctbWV0YWxfYmluZGluZycsICctaW1hZScsICc8aW5maWxlLm1hZT4nLCAnLW9tYWUnLCAnPG91dGZpbGUubWFlPic=

> <r_epik_Ionization_Penalty>
2.62143

> <r_epik_Ionization_Penalty_Charging>
0

> <r_epik_Ionization_Penalty_Neutral>
2.62143

> <r_epik_State_Penalty>
2.72742

> <r_epik_Charging_Adjusted_Penalty>
2.72742

> <i_epik_Tot_Q>
0

> <i_epik_Tot_abs_Q>
0

> <r_epik_Metal_State_Penalty>
2.72081

> <b_epik_Metal_Only>
0

> <s_lp_Force_Field>
OPLS_2005

> <r_lp_Energy>
27.4396

> <b_lp_Chiralities_Consistent>
1

> <s_lp_Variant>
AV-unprocessed.smi:3042-4

> <Gold.Version>
5.8.1

> <Gold.Id.Protein>
6NUR|6NUR_protein|mol2

> <Gold.PLP.Fitness>
35.1470

> <Gold.PLP.PLP>
-23.7194

> <Gold.PLP.part.hbond>
-2.0000

> <Gold.PLP.part.metal>
0.0000

> <Gold.PLP.part.buried>
-0.0935

> <Gold.PLP.part.nonpolar>
-24.1583

> <Gold.PLP.part.repulsive>
1.9859

> <Gold.PLP.ligand.clash>
0.0000

> <Gold.PLP.ligand.torsion>
0.3091

> <Gold.PLP.Chemscore.Hbond>
1.9920

> <Gold.PLP.Chemscore.CHOScore>
1.9965

> <Gold.PLP.Chemscore.Metal>
0.0000

> <Gold.Chemscore.Hbonds>
donor molecule, donor type, donor heavy atom, donor atom, acceptor molecule, acceptor atom, score
      L1  H     1    16       P1 10957  0.42
      L1  C     9    24       P1  7921  0.36

> <Gold.PLP.Chemscore.Internal.Correction>
0.0803

> <Gold.Rescore>
     Score         DG    S(hbond)    S(metal)    S(lipo)     H(rot)  DE(clash)    DE(int)     intcor
     11.87     -14.02       1.59        0.00      58.99       1.44       1.76       0.39       ----

> <Gold.Chemscore.Fitness>
11.8724

> <Gold.Chemscore.DG>
-14.0208

> <Gold.Chemscore.ZeroCoef>
-5.4800

> <Gold.Chemscore.Hbond>
1.5914

> <Gold.Chemscore.Metal>
0.0000

> <Gold.Chemscore.Lipo>
58.9862

> <Gold.Chemscore.Internal_Hbond>
0.0000

> <Gold.Chemscore.DEClash>
1.7618

> <Gold.Chemscore.DEInternal>
0.3865

> <Gold.Chemscore.Rot>
1.4359

> <Gold.Chemscore.Internal.Correction>
   9.000000E+99

> <Gold.Chemscore.Hbonds>
donor molecule, donor type, donor heavy atom, donor atom, acceptor molecule, acceptor atom, score
      L1  H     1    16       P1 10957  0.32

> <Gold.Chemscore.Hbond.Weighted>
-5.3153

> <Gold.Chemscore.Metal.Weighted>
-0.0000

> <Gold.Chemscore.Lipo.Weighted>
-6.9014

> <Gold.Chemscore.Internal_Hbond.Weighted>
0.0000

> <Gold.Chemscore.DEClash.Weighted>
1.7618

> <Gold.Chemscore.DEInternal.Weighted>
0.3865

> <Gold.Chemscore.Rot.Weighted>
3.6759

> <Gold.Chemscore.Internal.Correction.Weighted>
   9.000000E+99

> <Gold.Protein.RotatedTorsions>
[ 6907 6896 6895 6894 ] final   83.94 input  -60.11 | X-H torsion
[ 7974 7965 7964 7962 ] final -146.10 input  175.53 | X-H torsion
[ 8008 7997 7996 7995 ] final   52.66 input   59.86 | X-H torsion
[ 10167 10162 10161 10158 ] final -104.98 input  -65.29 | X-H torsion
[ 10718 10713 10712 10709 ] final  -52.42 input   66.30 | X-H torsion
[ 10763 10752 10751 10750 ] final  150.82 input  -60.55 | X-H torsion
[ 11005 11000 10999 10996 ] final  -50.95 input  -57.11 | X-H torsion

> <Gold.Protein.ActiveResidues>
 VAL166  LYS551  ARG553  GLY616  TRP617  ASP618  TYR619  PRO620  LYS621  CYS622 
 ASP623  PHE694  ASN695  SER759  ASP760  ASP761  ALA762  ILE779  LEU786  VAL792 
 PHE793  MET794  SER795  GLU796  ALA797  LYS798  CYS799  TRP800  GLU811  SER814 

> <Gold.Protein.RotatedAtoms>
  152.5340  134.2818  159.9010 H   0  0  0  0  0  0  0  0  0  0  0  0  # atno 6907 bound_to 6896
  151.2772  133.4220  159.2632 H   0  0  0  0  0  0  0  0  0  0  0  0  # atno 6908 bound_to 6896
  151.0315  134.9558  159.8170 H   0  0  0  0  0  0  0  0  0  0  0  0  # atno 6909 bound_to 6896
  144.8182  140.5499  143.5596 H   0  0  0  0  0  0  0  0  0  0  0  0  # atno 7974 bound_to 7965
  155.4555  140.3460  155.4306 H   0  0  0  0  0  0  0  0  0  0  0  0  # atno 8008 bound_to 7997
  156.1193  140.1482  156.9257 H   0  0  0  0  0  0  0  0  0  0  0  0  # atno 8009 bound_to 7997
  154.4812  140.0869  156.7360 H   0  0  0  0  0  0  0  0  0  0  0  0  # atno 8010 bound_to 7997
  140.2035  143.3801  152.1110 H   0  0  0  0  0  0  0  0  0  0  0  0  # atno 10167 bound_to 10162
  156.1623  130.4149  149.9774 H   0  0  0  0  0  0  0  0  0  0  0  0  # atno 10718 bound_to 10713
  154.0938  135.2850  155.3266 H   0  0  0  0  0  0  0  0  0  0  0  0  # atno 10763 bound_to 10752
  154.6602  135.5337  153.8012 H   0  0  0  0  0  0  0  0  0  0  0  0  # atno 10764 bound_to 10752
  153.0404  135.6532  154.1105 H   0  0  0  0  0  0  0  0  0  0  0  0  # atno 10765 bound_to 10752
  141.0844  133.6646  156.3806 H   0  0  0  0  0  0  0  0  0  0  0  0  # atno 11005 bound_to 11000
  145.5166  139.1477  143.3575 LP  0  0  0  0  0  0  0  0  0  0  0  0  # atno 17320 bound_to 7965
  146.2486  140.5307  142.8903 LP  0  0  0  0  0  0  0  0  0  0  0  0  # atno 17321 bound_to 7965
  139.5208  144.7037  151.5417 LP  0  0  0  0  0  0  0  0  0  0  0  0  # atno 17342 bound_to 10162
  140.6374  143.8957  150.6660 LP  0  0  0  0  0  0  0  0  0  0  0  0  # atno 17343 bound_to 10162
  156.7599  130.9147  151.3641 LP  0  0  0  0  0  0  0  0  0  0  0  0  # atno 17370 bound_to 10713
  157.6742  130.9079  150.0110 LP  0  0  0  0  0  0  0  0  0  0  0  0  # atno 17371 bound_to 10713
  140.5395  134.6134  157.5375 LP  0  0  0  0  0  0  0  0  0  0  0  0  # atno 17394 bound_to 11000
  139.9661  134.7370  156.0136 LP  0  0  0  0  0  0  0  0  0  0  0  0  # atno 17395 bound_to 11000

$$$$
