AV-unprocessed.smi:3330|AV-procd|sdf|12814|dock2
  -GOLD-   2272019183D 1   1.00000     0.00000
 Structure written by MMmdl.
 37 38  0  0  0  0  0  0  0  0  2 V2000
  147.9245  133.3888  152.7558 C   0  0  0  0  0  0  0  0  0  0  0  0
  146.5773  134.1257  152.8705 C   0  0  1  0  0  0  0  0  0  0  0  0
  146.8313  135.3642  153.5980 N   0  0  0  0  0  0  0  0  0  0  0  0
  147.2174  135.0979  154.9746 C   0  0  0  0  0  0  0  0  0  0  0  0
  147.7719  136.3809  155.6101 C   0  0  0  0  0  0  0  0  0  0  0  0
  148.2012  136.1394  156.9900 N   0  0  0  0  0  0  0  0  0  0  0  0
  147.7209  136.7934  158.0520 C   0  0  0  0  0  0  0  0  0  0  0  0
  146.8740  137.6869  158.0717 O   0  0  0  0  0  0  0  0  0  0  0  0
  148.4021  136.2319  159.2781 C   0  0  0  0  0  0  0  0  0  0  0  0
  149.2643  135.2171  158.7154 N   0  5  0  0  0  0  0  0  0  0  0  0
  149.0977  135.2098  157.3721 C   0  0  0  0  0  0  0  0  0  0  0  0
  149.6606  134.4701  156.5656 O   0  0  0  0  0  0  0  0  0  0  0  0
  145.9299  134.4511  151.4976 C   0  0  2  0  0  0  0  0  0  0  0  0
  144.8721  135.5673  151.5775 C   0  0  0  0  0  0  0  0  0  0  0  0
  145.3402  133.2648  150.8898 N   0  0  0  0  0  0  0  0  0  0  0  0
  145.9699  132.1131  150.4613 C   0  0  0  0  0  0  0  0  0  0  0  0
  145.0081  131.2822  149.9625 C   0  0  0  0  0  0  0  0  0  0  0  0
  143.8045  132.0217  150.1294 C   0  0  0  0  0  0  0  0  0  0  0  0
  144.0057  133.2055  150.6849 N   0  0  0  0  0  0  0  0  0  0  0  0
  147.8085  132.4058  152.2995 H   0  0  0  0  0  0  0  0  0  0  0  0
  148.3713  133.2313  153.7381 H   0  0  0  0  0  0  0  0  0  0  0  0
  148.6366  133.9529  152.1522 H   0  0  0  0  0  0  0  0  0  0  0  0
  145.9008  133.4844  153.4384 H   0  0  0  0  0  0  0  0  0  0  0  0
  147.5718  135.8789  153.1432 H   0  0  0  0  0  0  0  0  0  0  0  0
  146.3568  134.7415  155.5416 H   0  0  0  0  0  0  0  0  0  0  0  0
  147.9721  134.3103  154.9947 H   0  0  0  0  0  0  0  0  0  0  0  0
  148.6079  136.7632  155.0217 H   0  0  0  0  0  0  0  0  0  0  0  0
  147.0130  137.1652  155.5905 H   0  0  0  0  0  0  0  0  0  0  0  0
  148.9474  137.0228  159.7942 H   0  0  0  0  0  0  0  0  0  0  0  0
  147.6571  135.8312  159.9663 H   0  0  0  0  0  0  0  0  0  0  0  0
  146.7196  134.7986  150.8283 H   0  0  0  0  0  0  0  0  0  0  0  0
  145.3134  136.5119  151.8954 H   0  0  0  0  0  0  0  0  0  0  0  0
  144.0787  135.3168  152.2823 H   0  0  0  0  0  0  0  0  0  0  0  0
  144.4110  135.7402  150.6046 H   0  0  0  0  0  0  0  0  0  0  0  0
  147.0388  131.9838  150.5458 H   0  0  0  0  0  0  0  0  0  0  0  0
  145.1441  130.2970  149.5421 H   0  0  0  0  0  0  0  0  0  0  0  0
  142.7970  131.7354  149.8661 H   0  0  0  0  0  0  0  0  0  0  0  0
  1  2  1  0  0  0  0
  1 20  1  0  0  0  0
  1 21  1  0  0  0  0
  1 22  1  0  0  0  0
  2  3  1  0  0  0  0
  2 13  1  0  0  0  0
  2 23  1  0  0  0  0
  3  4  1  0  0  0  0
  3 24  1  0  0  0  0
  4  5  1  0  0  0  0
  4 25  1  0  0  0  0
  4 26  1  0  0  0  0
  5  6  1  0  0  0  0
  5 27  1  0  0  0  0
  5 28  1  0  0  0  0
  6 11  1  0  0  0  0
  6  7  1  0  0  0  0
  7  8  2  0  0  0  0
  7  9  1  0  0  0  0
  9 10  1  0  0  0  0
  9 29  1  0  0  0  0
  9 30  1  0  0  0  0
 10 11  1  0  0  0  0
 11 12  2  0  0  0  0
 13 14  1  0  0  0  0
 13 15  1  0  0  0  0
 13 31  1  0  0  0  0
 14 32  1  0  0  0  0
 14 33  1  0  0  0  0
 14 34  1  0  0  0  0
 15 19  1  0  0  0  0
 15 16  1  0  0  0  0
 16 17  2  0  0  0  0
 16 35  1  0  0  0  0
 17 18  1  0  0  0  0
 17 36  1  0  0  0  0
 18 19  2  0  0  0  0
 18 37  1  0  0  0  0
M  CHG  1  10  -1
M  END
> <s_m_source_file>
AV-unprocessed.smi

> <i_m_source_file_index>
3330

> <i_lp_mmshare_version>
43012

> <i_f3d_flags>
0

> <s_epik_input>
bjFbY0hdW2NIXVtjSF1uMVtDQEBIXShbQ0gzXSlbQ0BIXShbQ0gzXSlbTkhdW0NIMl1bQ0gyXU4yQyg9TylbQ0gyXVtOSF1DMj1P

> <s_epik_cmdline>
J2VwaWtfcHl0aG9uJywgJy1waCcsICc3LjAnLCAnLXRuJywgJzgnLCAnLW1hJywgJzIwMCcsICctbWV0YWxfYmluZGluZycsICctaW1hZScsICc8aW5maWxlLm1hZT4nLCAnLW9tYWUnLCAnPG91dGZpbGUubWFlPic=

> <r_lp_tautomer_probability>
1

> <r_epik_Ionization_Penalty>
8.77477

> <r_epik_Ionization_Penalty_Charging>
6.28461

> <r_epik_Ionization_Penalty_Neutral>
2.49016

> <r_epik_State_Penalty>
8.73376

> <r_epik_Charging_Adjusted_Penalty>
15.0184

> <i_epik_Tot_Q>
-1

> <i_epik_Tot_abs_Q>
1

> <r_epik_Metal_State_Penalty>
4.73175

> <b_epik_Metal_Only>
1

> <s_lp_Force_Field>
OPLS_2005

> <r_lp_Energy>
21.213

> <b_lp_Chiralities_Consistent>
1

> <s_lp_Variant>
AV-unprocessed.smi:3330-14

> <Gold.Version>
5.8.1

> <Gold.Id.Protein>
6NUR|6NUR_protein|mol2

> <Gold.PLP.Fitness>
40.4493

> <Gold.PLP.PLP>
-24.9366

> <Gold.PLP.part.hbond>
-1.9326

> <Gold.PLP.part.metal>
0.0000

> <Gold.PLP.part.buried>
-3.3375

> <Gold.PLP.part.nonpolar>
-20.3423

> <Gold.PLP.part.repulsive>
0.1772

> <Gold.PLP.ligand.clash>
0.0000

> <Gold.PLP.ligand.torsion>
0.4808

> <Gold.PLP.Chemscore.Hbond>
3.0000

> <Gold.PLP.Chemscore.CHOScore>
2.4199

> <Gold.PLP.Chemscore.Metal>
0.0000

> <Gold.Chemscore.Hbonds>
donor molecule, donor type, donor heavy atom, donor atom, acceptor molecule, acceptor atom, score
      L1  H     3    24       P1  7948  1.00
      P1  H  6896  6909       L1    10  2.00
      L1  C    16    35       P1 10747  1.00
      L1  C    18    37       P1 10952  1.00

> <Gold.PLP.Chemscore.Internal.Correction>
0.2146

> <Gold.Rescore>
     Score         DG    S(hbond)    S(metal)    S(lipo)     H(rot)  DE(clash)    DE(int)     intcor
     11.97     -12.23       1.98        0.00      56.18       2.52       0.06       0.20       ----

> <Gold.Chemscore.Fitness>
11.9673

> <Gold.Chemscore.DG>
-12.2288

> <Gold.Chemscore.ZeroCoef>
-5.4800

> <Gold.Chemscore.Hbond>
1.9809

> <Gold.Chemscore.Metal>
0.0000

> <Gold.Chemscore.Lipo>
56.1843

> <Gold.Chemscore.Internal_Hbond>
0.0000

> <Gold.Chemscore.DEClash>
0.0648

> <Gold.Chemscore.DEInternal>
0.1967

> <Gold.Chemscore.Rot>
2.5160

> <Gold.Chemscore.Internal.Correction>
   9.000000E+99

> <Gold.Chemscore.Hbonds>
donor molecule, donor type, donor heavy atom, donor atom, acceptor molecule, acceptor atom, score
      L1  H     3    24       P1  7948  0.99
      P1  H  6896  6909       L1    10  0.98

> <Gold.Chemscore.Hbond.Weighted>
-6.6163

> <Gold.Chemscore.Metal.Weighted>
-0.0000

> <Gold.Chemscore.Lipo.Weighted>
-6.5736

> <Gold.Chemscore.Internal_Hbond.Weighted>
0.0000

> <Gold.Chemscore.DEClash.Weighted>
0.0648

> <Gold.Chemscore.DEInternal.Weighted>
0.1967

> <Gold.Chemscore.Rot.Weighted>
6.4410

> <Gold.Chemscore.Internal.Correction.Weighted>
   9.000000E+99

> <Gold.Protein.RotatedTorsions>
[ 6907 6896 6895 6894 ] final   35.21 input  -60.11 | X-H torsion
[ 7974 7965 7964 7962 ] final  -19.41 input  175.53 | X-H torsion
[ 8008 7997 7996 7995 ] final -124.62 input   59.86 | X-H torsion
[ 10167 10162 10161 10158 ] final   60.21 input  -65.29 | X-H torsion
[ 10718 10713 10712 10709 ] final  161.31 input   66.30 | X-H torsion
[ 10763 10752 10751 10750 ] final  104.30 input  -60.55 | X-H torsion
[ 11005 11000 10999 10996 ] final -124.97 input  -57.11 | X-H torsion

> <Gold.Protein.ActiveResidues>
 VAL166  LYS551  ARG553  GLY616  TRP617  ASP618  TYR619  PRO620  LYS621  CYS622 
 ASP623  PHE694  ASN695  SER759  ASP760  ASP761  ALA762  ILE779  LEU786  VAL792 
 PHE793  MET794  SER795  GLU796  ALA797  LYS798  CYS799  TRP800  GLU811  SER814 

> <Gold.Protein.RotatedAtoms>
  152.1130  134.9260  160.0565 H   0  0  0  0  0  0  0  0  0  0  0  0  # atno 6907 bound_to 6896
  152.0430  133.3981  159.4353 H   0  0  0  0  0  0  0  0  0  0  0  0  # atno 6908 bound_to 6896
  150.6844  134.3314  159.4872 H   0  0  0  0  0  0  0  0  0  0  0  0  # atno 6909 bound_to 6896
  146.1842  140.4059  142.8482 H   0  0  0  0  0  0  0  0  0  0  0  0  # atno 7974 bound_to 7965
  155.1999  140.0415  157.2915 H   0  0  0  0  0  0  0  0  0  0  0  0  # atno 8008 bound_to 7997
  154.6082  140.2470  155.7675 H   0  0  0  0  0  0  0  0  0  0  0  0  # atno 8009 bound_to 7997
  156.2363  140.2920  156.0330 H   0  0  0  0  0  0  0  0  0  0  0  0  # atno 8010 bound_to 7997
  140.1681  144.4304  150.6675 H   0  0  0  0  0  0  0  0  0  0  0  0  # atno 10167 bound_to 10162
  157.1383  131.0534  151.2339 H   0  0  0  0  0  0  0  0  0  0  0  0  # atno 10718 bound_to 10713
  153.3642  135.3947  155.1740 H   0  0  0  0  0  0  0  0  0  0  0  0  # atno 10763 bound_to 10752
  154.8684  135.3687  154.5061 H   0  0  0  0  0  0  0  0  0  0  0  0  # atno 10764 bound_to 10752
  153.5523  135.7082  153.5646 H   0  0  0  0  0  0  0  0  0  0  0  0  # atno 10765 bound_to 10752
  140.9799  134.0688  157.3777 H   0  0  0  0  0  0  0  0  0  0  0  0  # atno 11005 bound_to 11000
  144.8368  140.6795  143.6255 LP  0  0  0  0  0  0  0  0  0  0  0  0  # atno 17320 bound_to 7965
  145.3987  139.1602  143.4189 LP  0  0  0  0  0  0  0  0  0  0  0  0  # atno 17321 bound_to 7965
  140.6600  143.2249  151.5879 LP  0  0  0  0  0  0  0  0  0  0  0  0  # atno 17342 bound_to 10162
  139.5350  144.2806  152.1232 LP  0  0  0  0  0  0  0  0  0  0  0  0  # atno 17343 bound_to 10162
  157.4330  130.7501  149.7006 LP  0  0  0  0  0  0  0  0  0  0  0  0  # atno 17370 bound_to 10713
  155.9793  130.4041  150.3592 LP  0  0  0  0  0  0  0  0  0  0  0  0  # atno 17371 bound_to 10713
  139.8946  135.0136  156.6958 LP  0  0  0  0  0  0  0  0  0  0  0  0  # atno 17394 bound_to 11000
  140.7203  133.9147  155.8142 LP  0  0  0  0  0  0  0  0  0  0  0  0  # atno 17395 bound_to 11000

$$$$
