AV-unprocessed.smi:701|AV-procd|sdf|3408|dock6
  -GOLD-   22720 0383D 1   1.00000     0.00000
 Structure written by MMmdl.
 49 51  0  0  0  0  0  0  0  0  1 V2000
  147.7996  127.8743  152.1125 C   0  0  0  0  0  0  0  0  0  0  0  0
  146.9729  129.1300  152.3974 C   0  0  0  0  0  0  0  0  0  0  0  0
  147.6785  129.9392  153.3229 O   0  0  0  0  0  0  0  0  0  0  0  0
  148.0908  131.1868  152.7776 C   0  0  2  0  0  0  0  0  0  0  0  0
  148.9398  131.9971  153.7664 C   0  0  0  0  0  0  0  0  0  0  0  0
  147.6211  132.5775  154.2785 C   0  0  1  0  0  0  0  0  0  0  0  0
  147.7179  133.9933  154.6140 N   0  0  0  0  0  0  0  0  0  0  0  0
  148.5648  134.4972  155.5229 C   0  0  0  0  0  0  0  0  0  0  0  0
  149.3459  133.8017  156.1734 O   0  0  0  0  0  0  0  0  0  0  0  0
  148.4953  136.0132  155.7507 C   0  0  0  0  0  0  0  0  0  0  0  0
  149.8233  136.6428  155.7611 N   0  0  0  0  0  0  0  0  0  0  0  0
  150.2293  137.4439  154.7031 C   0  0  0  0  0  0  0  0  0  0  0  0
  151.4311  138.0661  154.6576 C   0  0  0  0  0  0  0  0  0  0  0  0
  152.3821  137.9169  155.7540 C   0  0  0  0  0  0  0  0  0  0  0  0
  153.4932  138.4393  155.8051 O   0  0  0  0  0  0  0  0  0  0  0  0
  151.9366  137.1042  156.7999 N   0  0  0  0  0  0  0  0  0  0  0  0
  150.6987  136.4618  156.8539 C   0  0  0  0  0  0  0  0  0  0  0  0
  150.4030  135.7701  157.8277 O   0  0  0  0  0  0  0  0  0  0  0  0
  146.9932  132.2796  152.8918 C   0  0  0  0  0  0  0  0  0  0  0  0
  147.0706  133.3991  151.8266 C   0  0  0  0  0  0  0  0  0  0  0  0
  146.6202  132.9321  150.4310 C   0  0  0  0  0  0  0  0  0  0  0  0
  145.1971  132.3601  150.4665 C   0  0  0  0  0  0  0  0  0  0  0  0
  145.0584  131.2786  151.5458 C   0  0  0  0  0  0  0  0  0  0  0  0
  145.5313  131.7984  152.9132 C   0  0  0  0  0  0  0  0  0  0  0  0
  152.5608  136.9725  157.5823 H   0  0  0  0  0  0  0  0  0  0  0  0
  147.2904  127.2254  151.3999 H   0  0  0  0  0  0  0  0  0  0  0  0
  147.9693  127.3021  153.0251 H   0  0  0  0  0  0  0  0  0  0  0  0
  148.7719  128.1339  151.6934 H   0  0  0  0  0  0  0  0  0  0  0  0
  146.7948  129.6747  151.4698 H   0  0  0  0  0  0  0  0  0  0  0  0
  146.0015  128.8515  152.8083 H   0  0  0  0  0  0  0  0  0  0  0  0
  148.5244  131.0980  151.7806 H   0  0  0  0  0  0  0  0  0  0  0  0
  149.4901  131.4103  154.5019 H   0  0  0  0  0  0  0  0  0  0  0  0
  149.5834  132.7277  153.2736 H   0  0  0  0  0  0  0  0  0  0  0  0
  147.1981  131.9599  155.0745 H   0  0  0  0  0  0  0  0  0  0  0  0
  147.1018  134.6276  154.1268 H   0  0  0  0  0  0  0  0  0  0  0  0
  147.8621  136.4811  154.9940 H   0  0  0  0  0  0  0  0  0  0  0  0
  147.9858  136.1877  156.6992 H   0  0  0  0  0  0  0  0  0  0  0  0
  149.5547  137.5871  153.8710 H   0  0  0  0  0  0  0  0  0  0  0  0
  151.6898  138.6791  153.8063 H   0  0  0  0  0  0  0  0  0  0  0  0
  146.4499  134.2445  152.1270 H   0  0  0  0  0  0  0  0  0  0  0  0
  148.0840  133.7934  151.7504 H   0  0  0  0  0  0  0  0  0  0  0  0
  146.6664  133.7645  149.7284 H   0  0  0  0  0  0  0  0  0  0  0  0
  147.3082  132.1752  150.0536 H   0  0  0  0  0  0  0  0  0  0  0  0
  144.4901  133.1654  150.6697 H   0  0  0  0  0  0  0  0  0  0  0  0
  144.9312  131.9536  149.4905 H   0  0  0  0  0  0  0  0  0  0  0  0
  144.0207  130.9507  151.6105 H   0  0  0  0  0  0  0  0  0  0  0  0
  145.6432  130.4015  151.2658 H   0  0  0  0  0  0  0  0  0  0  0  0
  145.3932  131.0149  153.6586 H   0  0  0  0  0  0  0  0  0  0  0  0
  144.8784  132.6127  153.2300 H   0  0  0  0  0  0  0  0  0  0  0  0
  1  2  1  0  0  0  0
  1 26  1  0  0  0  0
  1 27  1  0  0  0  0
  1 28  1  0  0  0  0
  2  3  1  0  0  0  0
  2 29  1  0  0  0  0
  2 30  1  0  0  0  0
  3  4  1  0  0  0  0
  4 19  1  0  0  0  0
  4  5  1  0  0  0  0
  4 31  1  0  0  0  0
  5  6  1  0  0  0  0
  5 32  1  0  0  0  0
  5 33  1  0  0  0  0
  6  7  1  0  0  0  0
  6 19  1  0  0  0  0
  6 34  1  0  0  0  0
  7  8  1  0  0  0  0
  7 35  1  0  0  0  0
  8  9  2  0  0  0  0
  8 10  1  0  0  0  0
 10 11  1  0  0  0  0
 10 36  1  0  0  0  0
 10 37  1  0  0  0  0
 11 17  1  0  0  0  0
 11 12  1  0  0  0  0
 12 13  2  0  0  0  0
 12 38  1  0  0  0  0
 13 14  1  0  0  0  0
 13 39  1  0  0  0  0
 14 15  2  0  0  0  0
 14 16  1  0  0  0  0
 16 25  1  0  0  0  0
 16 17  1  0  0  0  0
 17 18  2  0  0  0  0
 19 24  1  0  0  0  0
 19 20  1  0  0  0  0
 20 21  1  0  0  0  0
 20 40  1  0  0  0  0
 20 41  1  0  0  0  0
 21 22  1  0  0  0  0
 21 42  1  0  0  0  0
 21 43  1  0  0  0  0
 22 23  1  0  0  0  0
 22 44  1  0  0  0  0
 22 45  1  0  0  0  0
 23 24  1  0  0  0  0
 23 46  1  0  0  0  0
 23 47  1  0  0  0  0
 24 48  1  0  0  0  0
 24 49  1  0  0  0  0
M  END
> <s_m_source_file>
AV-unprocessed.smi

> <i_m_source_file_index>
701

> <i_lp_mmshare_version>
43012

> <i_f3d_flags>
0

> <s_epik_input>
W0NIMl0xW0NIMl1bQ0gyXVtDSDJdW0NIMl1DMTJbQ0BIXShPW0NIMl1bQ0gzXSlbQ0gyXVtDQEhdMltOSF1DKD1PKVtDSDJdbjNbY0hdW2NIXWMoPU8pW25IXWMzPU8=

> <s_epik_cmdline>
J2VwaWtfcHl0aG9uJywgJy1waCcsICc3LjAnLCAnLXRuJywgJzgnLCAnLW1hJywgJzIwMCcsICctbWV0YWxfYmluZGluZycsICctaW1hZScsICc8aW5maWxlLm1hZT4nLCAnLW9tYWUnLCAnPG91dGZpbGUubWFlPic=

> <r_lp_tautomer_probability>
0.999537

> <r_epik_Ionization_Penalty>
0.00304597

> <r_epik_Ionization_Penalty_Charging>
0.00304595

> <r_epik_Ionization_Penalty_Neutral>
1.88422e-08

> <r_epik_State_Penalty>
0.00214084

> <r_epik_Charging_Adjusted_Penalty>
0.00518679

> <i_epik_Tot_Q>
0

> <i_epik_Tot_abs_Q>
0

> <r_epik_Metal_State_Penalty>
0.361872

> <b_epik_Metal_Only>
0

> <s_lp_Force_Field>
OPLS_2005

> <r_lp_Energy>
27.2214

> <b_lp_Chiralities_Consistent>
1

> <s_lp_Variant>
AV-unprocessed.smi:701-1

> <Gold.Version>
5.8.1

> <Gold.Id.Protein>
6NUR|6NUR_protein|mol2

> <Gold.PLP.Fitness>
37.4963

> <Gold.PLP.PLP>
-32.1809

> <Gold.PLP.part.hbond>
-2.0000

> <Gold.PLP.part.metal>
0.0000

> <Gold.PLP.part.buried>
-0.9176

> <Gold.PLP.part.nonpolar>
-30.9122

> <Gold.PLP.part.repulsive>
0.2262

> <Gold.PLP.ligand.clash>
0.0000

> <Gold.PLP.ligand.torsion>
0.9528

> <Gold.PLP.Chemscore.Hbond>
1.2934

> <Gold.PLP.Chemscore.CHOScore>
1.0000

> <Gold.PLP.Chemscore.Metal>
0.0000

> <Gold.Chemscore.Hbonds>
donor molecule, donor type, donor heavy atom, donor atom, acceptor molecule, acceptor atom, score
      P1  H  6896  6908       L1    18  0.58
      P1  H  7997  8008       L1    15  0.77
      L1  C    12    38       P1  7948  1.00

> <Gold.PLP.Chemscore.Internal.Correction>
0.3410

> <Gold.Rescore>
     Score         DG    S(hbond)    S(metal)    S(lipo)     H(rot)  DE(clash)    DE(int)     intcor
     12.69     -16.40       1.77        0.00      88.66       2.09       1.42       2.28       ----

> <Gold.Chemscore.Fitness>
12.6936

> <Gold.Chemscore.DG>
-16.3986

> <Gold.Chemscore.ZeroCoef>
-5.4800

> <Gold.Chemscore.Hbond>
1.7676

> <Gold.Chemscore.Metal>
0.0000

> <Gold.Chemscore.Lipo>
88.6643

> <Gold.Chemscore.Internal_Hbond>
0.0000

> <Gold.Chemscore.DEClash>
1.4225

> <Gold.Chemscore.DEInternal>
2.2824

> <Gold.Chemscore.Rot>
2.0933

> <Gold.Chemscore.Internal.Correction>
   9.000000E+99

> <Gold.Chemscore.Hbonds>
donor molecule, donor type, donor heavy atom, donor atom, acceptor molecule, acceptor atom, score
      P1  H  6896  6908       L1    18  0.57
      P1  H  7997  8008       L1    15  0.75

> <Gold.Chemscore.Hbond.Weighted>
-5.9037

> <Gold.Chemscore.Metal.Weighted>
-0.0000

> <Gold.Chemscore.Lipo.Weighted>
-10.3737

> <Gold.Chemscore.Internal_Hbond.Weighted>
0.0000

> <Gold.Chemscore.DEClash.Weighted>
1.4225

> <Gold.Chemscore.DEInternal.Weighted>
2.2824

> <Gold.Chemscore.Rot.Weighted>
5.3588

> <Gold.Chemscore.Internal.Correction.Weighted>
   9.000000E+99

> <Gold.Protein.RotatedTorsions>
[ 6907 6896 6895 6894 ] final  179.75 input  -60.11 | X-H torsion
[ 7974 7965 7964 7962 ] final  175.43 input  175.53 | X-H torsion
[ 8008 7997 7996 7995 ] final  -25.24 input   59.86 | X-H torsion
[ 10167 10162 10161 10158 ] final -126.08 input  -65.29 | X-H torsion
[ 10718 10713 10712 10709 ] final  -93.84 input   66.30 | X-H torsion
[ 10763 10752 10751 10750 ] final   43.12 input  -60.55 | X-H torsion
[ 11005 11000 10999 10996 ] final  -40.25 input  -57.11 | X-H torsion

> <Gold.Protein.ActiveResidues>
 VAL166  LYS551  ARG553  GLY616  TRP617  ASP618  TYR619  PRO620  LYS621  CYS622 
 ASP623  PHE694  ASN695  SER759  ASP760  ASP761  ALA762  ILE779  LEU786  VAL792 
 PHE793  MET794  SER795  GLU796  ALA797  LYS798  CYS799  TRP800  GLU811  SER814 

> <Gold.Protein.RotatedAtoms>
  151.6667  133.3315  159.3186 H   0  0  0  0  0  0  0  0  0  0  0  0  # atno 6907 bound_to 6896
  150.7887  134.6898  159.6499 H   0  0  0  0  0  0  0  0  0  0  0  0  # atno 6908 bound_to 6896
  152.3963  134.6364  160.0140 H   0  0  0  0  0  0  0  0  0  0  0  0  # atno 6909 bound_to 6896
  144.7202  139.9946  143.6440 H   0  0  0  0  0  0  0  0  0  0  0  0  # atno 7974 bound_to 7965
  154.4486  140.1932  156.0589 H   0  0  0  0  0  0  0  0  0  0  0  0  # atno 8008 bound_to 7997
  156.0598  140.3298  155.7421 H   0  0  0  0  0  0  0  0  0  0  0  0  # atno 8009 bound_to 7997
  155.5429  140.0588  157.2857 H   0  0  0  0  0  0  0  0  0  0  0  0  # atno 8010 bound_to 7997
  139.9753  143.5801  152.2398 H   0  0  0  0  0  0  0  0  0  0  0  0  # atno 10167 bound_to 10162
  156.0018  130.5043  150.5836 H   0  0  0  0  0  0  0  0  0  0  0  0  # atno 10718 bound_to 10713
  152.9867  135.6111  154.3060 H   0  0  0  0  0  0  0  0  0  0  0  0  # atno 10763 bound_to 10752
  154.2778  135.2778  155.2712 H   0  0  0  0  0  0  0  0  0  0  0  0  # atno 10764 bound_to 10752
  154.5065  135.5853  153.6628 H   0  0  0  0  0  0  0  0  0  0  0  0  # atno 10765 bound_to 10752
  141.0161  133.6885  156.2296 H   0  0  0  0  0  0  0  0  0  0  0  0  # atno 11005 bound_to 11000
  146.0384  139.3399  143.0712 LP  0  0  0  0  0  0  0  0  0  0  0  0  # atno 17320 bound_to 7965
  145.8365  140.9603  143.0821 LP  0  0  0  0  0  0  0  0  0  0  0  0  # atno 17321 bound_to 7965
  139.6450  144.7657  151.2261 LP  0  0  0  0  0  0  0  0  0  0  0  0  # atno 17342 bound_to 10162
  140.7508  143.6253  150.8474 LP  0  0  0  0  0  0  0  0  0  0  0  0  # atno 17343 bound_to 10162
  157.3712  131.0766  151.1556 LP  0  0  0  0  0  0  0  0  0  0  0  0  # atno 17370 bound_to 10713
  157.2308  130.6524  149.5849 LP  0  0  0  0  0  0  0  0  0  0  0  0  # atno 17371 bound_to 10713
  140.6652  134.4925  157.5585 LP  0  0  0  0  0  0  0  0  0  0  0  0  # atno 17394 bound_to 11000
  139.9118  134.8329  156.1503 LP  0  0  0  0  0  0  0  0  0  0  0  0  # atno 17395 bound_to 11000

$$$$
