AV-unprocessed.smi:3112|AV-procd|sdf|11847|dock3
  -GOLD-   2272017223D 1   1.00000     0.00000
 Structure written by MMmdl.
 36 36  0  0  0  0  0  0  0  0  1 V2000
  147.8973  141.5045  153.7625 C   0  0  0  0  0  0  0  0  0  0  0  0
  148.9752  140.7721  154.5781 C   0  0  0  0  0  0  0  0  0  0  0  0
  149.7340  141.6575  155.5867 C   0  0  1  0  0  0  0  0  0  0  0  0
  148.8131  142.5219  156.2206 O   0  0  0  0  0  0  0  0  0  0  0  0
  150.4816  140.8495  156.6613 C   0  0  0  0  0  0  0  0  0  0  0  0
  151.3769  141.7090  157.4351 N   0  0  0  0  0  0  0  0  0  0  0  0
  151.7658  141.2016  158.7562 C   0  0  1  0  0  0  0  0  0  0  0  0
  152.5017  139.8643  158.5652 C   0  0  0  0  0  0  0  0  0  0  0  0
  152.6236  142.2043  159.5871 C   0  0  2  0  0  0  0  0  0  0  0  0
  153.1167  141.6874  160.9519 C   0  0  0  0  0  0  0  0  0  0  0  0
  152.0208  143.5309  159.6912 N   0  0  0  0  0  0  0  0  0  0  0  0
  152.5967  144.6902  160.1709 C   0  0  0  0  0  0  0  0  0  0  0  0
  151.6724  145.6882  160.0549 C   0  0  0  0  0  0  0  0  0  0  0  0
  150.5457  145.0386  159.4792 C   0  0  0  0  0  0  0  0  0  0  0  0
  150.7578  143.7522  159.2582 N   0  0  0  0  0  0  0  0  0  0  0  0
  147.4150  140.8215  153.0633 H   0  0  0  0  0  0  0  0  0  0  0  0
  148.3227  142.3225  153.1810 H   0  0  0  0  0  0  0  0  0  0  0  0
  147.1194  141.9176  154.4047 H   0  0  0  0  0  0  0  0  0  0  0  0
  148.5087  139.9437  155.1122 H   0  0  0  0  0  0  0  0  0  0  0  0
  149.6902  140.3169  153.8917 H   0  0  0  0  0  0  0  0  0  0  0  0
  150.4436  142.2695  155.0278 H   0  0  0  0  0  0  0  0  0  0  0  0
  148.9440  143.3949  155.8820 H   0  0  0  0  0  0  0  0  0  0  0  0
  149.7715  140.3201  157.2909 H   0  0  0  0  0  0  0  0  0  0  0  0
  151.0802  140.0815  156.1702 H   0  0  0  0  0  0  0  0  0  0  0  0
  152.2098  141.8987  156.8871 H   0  0  0  0  0  0  0  0  0  0  0  0
  150.8646  140.9749  159.3275 H   0  0  0  0  0  0  0  0  0  0  0  0
  152.8066  139.4416  159.5228 H   0  0  0  0  0  0  0  0  0  0  0  0
  153.3955  139.9761  157.9504 H   0  0  0  0  0  0  0  0  0  0  0  0
  151.8587  139.1313  158.0772 H   0  0  0  0  0  0  0  0  0  0  0  0
  153.5382  142.3448  159.0087 H   0  0  0  0  0  0  0  0  0  0  0  0
  153.5438  140.6882  160.8649 H   0  0  0  0  0  0  0  0  0  0  0  0
  152.3225  141.6537  161.6966 H   0  0  0  0  0  0  0  0  0  0  0  0
  153.8928  142.3414  161.3499 H   0  0  0  0  0  0  0  0  0  0  0  0
  153.6083  144.7082  160.5488 H   0  0  0  0  0  0  0  0  0  0  0  0
  151.7850  146.7248  160.3351 H   0  0  0  0  0  0  0  0  0  0  0  0
  149.5876  145.4611  159.2150 H   0  0  0  0  0  0  0  0  0  0  0  0
  1  2  1  0  0  0  0
  1 16  1  0  0  0  0
  1 17  1  0  0  0  0
  1 18  1  0  0  0  0
  2  3  1  0  0  0  0
  2 19  1  0  0  0  0
  2 20  1  0  0  0  0
  3  4  1  0  0  0  0
  3  5  1  0  0  0  0
  3 21  1  0  0  0  0
  4 22  1  0  0  0  0
  5  6  1  0  0  0  0
  5 23  1  0  0  0  0
  5 24  1  0  0  0  0
  6  7  1  0  0  0  0
  6 25  1  0  0  0  0
  7  8  1  0  0  0  0
  7  9  1  0  0  0  0
  7 26  1  0  0  0  0
  8 27  1  0  0  0  0
  8 28  1  0  0  0  0
  8 29  1  0  0  0  0
  9 10  1  0  0  0  0
  9 11  1  0  0  0  0
  9 30  1  0  0  0  0
 10 31  1  0  0  0  0
 10 32  1  0  0  0  0
 10 33  1  0  0  0  0
 11 15  1  0  0  0  0
 11 12  1  0  0  0  0
 12 13  2  0  0  0  0
 12 34  1  0  0  0  0
 13 14  1  0  0  0  0
 13 35  1  0  0  0  0
 14 15  2  0  0  0  0
 14 36  1  0  0  0  0
M  END
> <s_m_source_file>
AV-unprocessed.smi

> <i_m_source_file_index>
3112

> <i_lp_mmshare_version>
43012

> <i_f3d_flags>
0

> <s_epik_input>
W0NIM11bQ0gyXVtDQEhdKFtPSF0pW0NIMl1bTkhdW0NASF0oW0NIM10pW0NASF0oW0NIM10pbjFbY0hdW2NIXVtjSF1uMQ==

> <s_epik_cmdline>
J2VwaWtfcHl0aG9uJywgJy1waCcsICc3LjAnLCAnLXRuJywgJzgnLCAnLW1hJywgJzIwMCcsICctbWV0YWxfYmluZGluZycsICctaW1hZScsICc8aW5maWxlLm1hZT4nLCAnLW9tYWUnLCAnPG91dGZpbGUubWFlPic=

> <r_lp_tautomer_probability>
1

> <r_epik_Ionization_Penalty>
2.16876

> <r_epik_Ionization_Penalty_Charging>
0

> <r_epik_Ionization_Penalty_Neutral>
2.16876

> <r_epik_State_Penalty>
2.30854

> <r_epik_Charging_Adjusted_Penalty>
2.30854

> <i_epik_Tot_Q>
0

> <i_epik_Tot_abs_Q>
0

> <r_epik_Metal_State_Penalty>
2.3073

> <b_epik_Metal_Only>
0

> <s_lp_Force_Field>
OPLS_2005

> <r_lp_Energy>
21.8482

> <b_lp_Chiralities_Consistent>
1

> <s_lp_Variant>
AV-unprocessed.smi:3112-12

> <Gold.Version>
5.8.1

> <Gold.Id.Protein>
6NUR|6NUR_protein|mol2

> <Gold.PLP.Fitness>
41.4557

> <Gold.PLP.PLP>
-35.9962

> <Gold.PLP.part.hbond>
-1.0000

> <Gold.PLP.part.metal>
0.0000

> <Gold.PLP.part.buried>
-3.7939

> <Gold.PLP.part.nonpolar>
-31.5666

> <Gold.PLP.part.repulsive>
0.0911

> <Gold.PLP.ligand.clash>
0.0000

> <Gold.PLP.ligand.torsion>
0.4481

> <Gold.PLP.Chemscore.Hbond>
1.0000

> <Gold.PLP.Chemscore.CHOScore>
0.9995

> <Gold.PLP.Chemscore.Metal>
0.0000

> <Gold.Chemscore.Hbonds>
donor molecule, donor type, donor heavy atom, donor atom, acceptor molecule, acceptor atom, score
      L1  H     4    22       P1  8028  0.54
      L1  C    14    36       P1  8029  0.80

> <Gold.PLP.Chemscore.Internal.Correction>
0.3571

> <Gold.Rescore>
     Score         DG    S(hbond)    S(metal)    S(lipo)     H(rot)  DE(clash)    DE(int)     intcor
     11.93     -13.78       1.00        0.00      93.01       2.31       0.07       1.78       ----

> <Gold.Chemscore.Fitness>
11.9345

> <Gold.Chemscore.DG>
-13.7810

> <Gold.Chemscore.ZeroCoef>
-5.4800

> <Gold.Chemscore.Hbond>
0.9983

> <Gold.Chemscore.Metal>
0.0000

> <Gold.Chemscore.Lipo>
93.0125

> <Gold.Chemscore.Internal_Hbond>
0.0000

> <Gold.Chemscore.DEClash>
0.0650

> <Gold.Chemscore.DEInternal>
1.7814

> <Gold.Chemscore.Rot>
2.3108

> <Gold.Chemscore.Internal.Correction>
   9.000000E+99

> <Gold.Chemscore.Hbonds>
donor molecule, donor type, donor heavy atom, donor atom, acceptor molecule, acceptor atom, score
      L1  H     4    22       P1  8028  0.52

> <Gold.Chemscore.Hbond.Weighted>
-3.3342

> <Gold.Chemscore.Metal.Weighted>
-0.0000

> <Gold.Chemscore.Lipo.Weighted>
-10.8825

> <Gold.Chemscore.Internal_Hbond.Weighted>
0.0000

> <Gold.Chemscore.DEClash.Weighted>
0.0650

> <Gold.Chemscore.DEInternal.Weighted>
1.7814

> <Gold.Chemscore.Rot.Weighted>
5.9157

> <Gold.Chemscore.Internal.Correction.Weighted>
   9.000000E+99

> <Gold.Protein.RotatedTorsions>
[ 6907 6896 6895 6894 ] final   34.14 input  -60.11 | X-H torsion
[ 7974 7965 7964 7962 ] final  113.41 input  175.53 | X-H torsion
[ 8008 7997 7996 7995 ] final   63.00 input   59.86 | X-H torsion
[ 10167 10162 10161 10158 ] final  118.45 input  -65.29 | X-H torsion
[ 10718 10713 10712 10709 ] final -178.06 input   66.30 | X-H torsion
[ 10763 10752 10751 10750 ] final  105.84 input  -60.55 | X-H torsion
[ 11005 11000 10999 10996 ] final   73.85 input  -57.11 | X-H torsion

> <Gold.Protein.ActiveResidues>
 VAL166  LYS551  ARG553  GLY616  TRP617  ASP618  TYR619  PRO620  LYS621  CYS622 
 ASP623  PHE694  ASN695  SER759  ASP760  ASP761  ALA762  ILE779  LEU786  VAL792 
 PHE793  MET794  SER795  GLU796  ALA797  LYS798  CYS799  TRP800  GLU811  SER814 

> <Gold.Protein.RotatedAtoms>
  152.0983  134.9359  160.0570 H   0  0  0  0  0  0  0  0  0  0  0  0  # atno 6907 bound_to 6896
  152.0584  133.4046  159.4415 H   0  0  0  0  0  0  0  0  0  0  0  0  # atno 6908 bound_to 6896
  150.6838  134.3149  159.4805 H   0  0  0  0  0  0  0  0  0  0  0  0  # atno 6909 bound_to 6896
  145.2173  139.2878  143.4237 H   0  0  0  0  0  0  0  0  0  0  0  0  # atno 7974 bound_to 7965
  155.6233  140.3496  155.4659 H   0  0  0  0  0  0  0  0  0  0  0  0  # atno 8008 bound_to 7997
  156.0061  140.1223  157.0523 H   0  0  0  0  0  0  0  0  0  0  0  0  # atno 8009 bound_to 7997
  154.4265  140.1091  156.5751 H   0  0  0  0  0  0  0  0  0  0  0  0  # atno 8010 bound_to 7997
  139.6111  144.7082  151.2843 H   0  0  0  0  0  0  0  0  0  0  0  0  # atno 10167 bound_to 10162
  156.8387  130.9678  151.3101 H   0  0  0  0  0  0  0  0  0  0  0  0  # atno 10718 bound_to 10713
  153.3848  135.3897  155.1882 H   0  0  0  0  0  0  0  0  0  0  0  0  # atno 10763 bound_to 10752
  154.8712  135.3734  154.4812 H   0  0  0  0  0  0  0  0  0  0  0  0  # atno 10764 bound_to 10752
  153.5292  135.7086  153.5753 H   0  0  0  0  0  0  0  0  0  0  0  0  # atno 10765 bound_to 10752
  139.9420  134.7382  156.1076 H   0  0  0  0  0  0  0  0  0  0  0  0  # atno 11005 bound_to 11000
  146.3384  140.2468  142.8597 LP  0  0  0  0  0  0  0  0  0  0  0  0  # atno 17320 bound_to 7965
  144.9799  140.8449  143.5404 LP  0  0  0  0  0  0  0  0  0  0  0  0  # atno 17321 bound_to 7965
  140.7319  143.6838  150.7979 LP  0  0  0  0  0  0  0  0  0  0  0  0  # atno 17342 bound_to 10162
  140.0432  143.5324  152.2708 LP  0  0  0  0  0  0  0  0  0  0  0  0  # atno 17343 bound_to 10162
  157.6368  130.8773  149.9373 LP  0  0  0  0  0  0  0  0  0  0  0  0  # atno 17370 bound_to 10713
  156.0893  130.3665  150.0426 LP  0  0  0  0  0  0  0  0  0  0  0  0  # atno 17371 bound_to 10713
  141.1057  133.6661  156.2859 LP  0  0  0  0  0  0  0  0  0  0  0  0  # atno 17394 bound_to 11000
  140.5929  134.5632  157.5503 LP  0  0  0  0  0  0  0  0  0  0  0  0  # atno 17395 bound_to 11000

$$$$
