AV-unprocessed.smi:138|AV-procd|sdf|1180|dock3
  -GOLD-   2262018333D 1   1.00000     0.00000
 Structure written by MMmdl.
 52 55  0  0  0  0  0  0  0  0  1 V2000
  153.0154  142.3118  159.9835 C   0  0  0  0  0  0  0  0  0  0  0  0
  152.2496  141.2174  159.3112 C   0  0  0  0  0  0  0  0  0  0  0  0
  152.1452  139.8991  159.6426 C   0  0  0  0  0  0  0  0  0  0  0  0
  151.2991  139.2589  158.6949 C   0  0  0  0  0  0  0  0  0  0  0  0
  150.9113  137.8266  158.6299 C   0  0  0  0  0  0  0  0  0  0  0  0
  150.8027  137.1104  159.6263 O   0  0  0  0  0  0  0  0  0  0  0  0
  150.6346  137.2722  157.2198 C   0  0  0  0  0  0  0  0  0  0  0  0
  150.3966  135.8336  157.2077 N   0  0  0  0  0  0  0  0  0  0  0  0
  149.2194  135.3523  157.8333 C   0  0  0  0  0  0  0  0  0  0  0  0
  148.4063  136.1067  158.3704 O   0  0  0  0  0  0  0  0  0  0  0  0
  149.0671  133.9024  157.8007 C   0  0  0  0  0  0  0  0  0  0  0  0
  147.9924  133.3336  158.3730 F   0  0  0  0  0  0  0  0  0  0  0  0
  149.9919  133.1174  157.2074 C   0  0  0  0  0  0  0  0  0  0  0  0
  151.1261  133.6131  156.5898 N   0  0  0  0  0  0  0  0  0  0  0  0
  152.1219  132.6375  156.0004 C   0  0  1  0  0  0  0  0  0  0  0  0
  152.6594  131.6134  157.0111 C   0  0  0  0  0  0  0  0  0  0  0  0
  152.8198  130.3914  156.1329 C   0  0  0  0  0  0  0  0  0  0  0  0
  151.6434  130.5336  155.1732 C   0  0  0  0  0  0  0  0  0  0  0  0
  151.5144  131.9362  154.9538 O   0  0  0  0  0  0  0  0  0  0  0  0
  151.3748  135.0061  156.6039 C   0  0  0  0  0  0  0  0  0  0  0  0
  152.4065  135.4772  156.1222 O   0  0  0  0  0  0  0  0  0  0  0  0
  150.8843  140.2193  157.8000 C   0  0  0  0  0  0  0  0  0  0  0  0
  149.9689  140.1234  156.6102 C   0  0  0  0  0  0  0  0  0  0  0  0
  151.4881  141.4243  158.1674 N   0  0  0  0  0  0  0  0  0  0  0  0
  151.3479  142.7080  157.4867 C   0  0  0  0  0  0  0  0  0  0  0  0
  150.9365  143.8067  158.4129 C   0  0  0  0  0  0  0  0  0  0  0  0
  151.4914  145.0123  158.7430 C   0  0  0  0  0  0  0  0  0  0  0  0
  150.6202  145.6085  159.6961 C   0  0  0  0  0  0  0  0  0  0  0  0
  149.5968  144.7225  159.8763 C   0  0  0  0  0  0  0  0  0  0  0  0
  149.7740  143.6191  159.1002 O   0  0  0  0  0  0  0  0  0  0  0  0
  153.4714  141.9542  160.9070 H   0  0  0  0  0  0  0  0  0  0  0  0
  152.3639  143.1477  160.2382 H   0  0  0  0  0  0  0  0  0  0  0  0
  153.8144  142.6825  159.3410 H   0  0  0  0  0  0  0  0  0  0  0  0
  152.6386  139.4386  160.4860 H   0  0  0  0  0  0  0  0  0  0  0  0
  149.7703  137.7632  156.7703 H   0  0  0  0  0  0  0  0  0  0  0  0
  151.4672  137.4815  156.5461 H   0  0  0  0  0  0  0  0  0  0  0  0
  149.8277  132.0498  157.2190 H   0  0  0  0  0  0  0  0  0  0  0  0
  152.9236  133.2436  155.5767 H   0  0  0  0  0  0  0  0  0  0  0  0
  153.5939  131.9566  157.4556 H   0  0  0  0  0  0  0  0  0  0  0  0
  151.9434  131.4209  157.8090 H   0  0  0  0  0  0  0  0  0  0  0  0
  153.7600  130.4471  155.5828 H   0  0  0  0  0  0  0  0  0  0  0  0
  152.8043  129.4556  156.6920 H   0  0  0  0  0  0  0  0  0  0  0  0
  151.8005  129.9981  154.2369 H   0  0  0  0  0  0  0  0  0  0  0  0
  150.7297  130.1515  155.6287 H   0  0  0  0  0  0  0  0  0  0  0  0
  149.1323  139.4550  156.8108 H   0  0  0  0  0  0  0  0  0  0  0  0
  150.5055  139.7418  155.7415 H   0  0  0  0  0  0  0  0  0  0  0  0
  149.5263  141.0800  156.3399 H   0  0  0  0  0  0  0  0  0  0  0  0
  152.2968  142.9611  157.0135 H   0  0  0  0  0  0  0  0  0  0  0  0
  150.6393  142.6166  156.6645 H   0  0  0  0  0  0  0  0  0  0  0  0
  152.4132  145.4141  158.3485 H   0  0  0  0  0  0  0  0  0  0  0  0
  150.7288  146.5639  160.1880 H   0  0  0  0  0  0  0  0  0  0  0  0
  148.7067  144.7183  160.4878 H   0  0  0  0  0  0  0  0  0  0  0  0
  1  2  1  0  0  0  0
  1 31  1  0  0  0  0
  1 32  1  0  0  0  0
  1 33  1  0  0  0  0
  2 24  1  0  0  0  0
  2  3  2  0  0  0  0
  3  4  1  0  0  0  0
  3 34  1  0  0  0  0
  4  5  1  0  0  0  0
  4 22  2  0  0  0  0
  5  6  2  0  0  0  0
  5  7  1  0  0  0  0
  7  8  1  0  0  0  0
  7 35  1  0  0  0  0
  7 36  1  0  0  0  0
  8 20  1  0  0  0  0
  8  9  1  0  0  0  0
  9 10  2  0  0  0  0
  9 11  1  0  0  0  0
 11 12  1  0  0  0  0
 11 13  2  0  0  0  0
 13 14  1  0  0  0  0
 13 37  1  0  0  0  0
 14 15  1  0  0  0  0
 14 20  1  0  0  0  0
 15 19  1  0  0  0  0
 15 16  1  0  0  0  0
 15 38  1  0  0  0  0
 16 17  1  0  0  0  0
 16 39  1  0  0  0  0
 16 40  1  0  0  0  0
 17 18  1  0  0  0  0
 17 41  1  0  0  0  0
 17 42  1  0  0  0  0
 18 19  1  0  0  0  0
 18 43  1  0  0  0  0
 18 44  1  0  0  0  0
 20 21  2  0  0  0  0
 22 23  1  0  0  0  0
 22 24  1  0  0  0  0
 23 45  1  0  0  0  0
 23 46  1  0  0  0  0
 23 47  1  0  0  0  0
 24 25  1  0  0  0  0
 25 26  1  0  0  0  0
 25 48  1  0  0  0  0
 25 49  1  0  0  0  0
 26 30  1  0  0  0  0
 26 27  2  0  0  0  0
 27 28  1  0  0  0  0
 27 50  1  0  0  0  0
 28 29  2  0  0  0  0
 28 51  1  0  0  0  0
 29 30  1  0  0  0  0
 29 52  1  0  0  0  0
M  END
> <s_m_source_file>
AV-unprocessed.smi

> <i_m_source_file_index>
138

> <i_lp_mmshare_version>
43012

> <i_f3d_flags>
0

> <s_epik_input>
bzFbY0hdW2NIXVtjSF1jMVtDSDJdbjJjKFtDSDNdKWMoW2NIXWMyW0NIM10pQyg9TylbQ0gyXW4zYyg9TyljKEYpW2NIXW4oYzM9TylbQ0BASF00W0NIMl1bQ0gyXVtDSDJdTzQ=

> <s_epik_cmdline>
J2VwaWtfcHl0aG9uJywgJy1waCcsICc3LjAnLCAnLXRuJywgJzgnLCAnLW1hJywgJzIwMCcsICctbWV0YWxfYmluZGluZycsICctaW1hZScsICc8aW5maWxlLm1hZT4nLCAnLW9tYWUnLCAnPG91dGZpbGUubWFlPic=

> <r_lp_tautomer_probability>
1

> <r_epik_Ionization_Penalty>
5.03107e-09

> <r_epik_Ionization_Penalty_Charging>
5.01743e-09

> <r_epik_Ionization_Penalty_Neutral>
1.36377e-11

> <r_epik_State_Penalty>
-0

> <r_epik_Charging_Adjusted_Penalty>
5.01743e-09

> <i_epik_Tot_Q>
0

> <i_epik_Tot_abs_Q>
0

> <r_epik_Metal_State_Penalty>
-0

> <b_epik_Metal_Only>
0

> <s_epik_Chemistry_Notes>
This compound contains an acetal/aminal-like group ( X-CH(R)-Y where X, Y are N, S, or O) that may be acid/base labile, releasing an aldehyde.

> <s_lp_Force_Field>
OPLS_2005

> <r_lp_Energy>
34.2081

> <b_lp_Chiralities_Consistent>
1

> <s_lp_Variant>
AV-unprocessed.smi:138-2

> <Gold.Version>
5.8.1

> <Gold.Id.Protein>
6NUR|6NUR_protein|mol2

> <Gold.PLP.Fitness>
54.6431

> <Gold.PLP.PLP>
-49.8647

> <Gold.PLP.part.hbond>
-2.1954

> <Gold.PLP.part.metal>
0.0000

> <Gold.PLP.part.buried>
-8.5707

> <Gold.PLP.part.nonpolar>
-39.5889

> <Gold.PLP.part.repulsive>
0.1741

> <Gold.PLP.ligand.clash>
0.3113

> <Gold.PLP.ligand.torsion>
0.5648

> <Gold.PLP.Chemscore.Hbond>
1.9913

> <Gold.PLP.Chemscore.CHOScore>
0.0000

> <Gold.PLP.Chemscore.Metal>
0.0000

> <Gold.Chemscore.Hbonds>
donor molecule, donor type, donor heavy atom, donor atom, acceptor molecule, acceptor atom, score
      P1  H  6896  6907       L1     6  0.96
      P1  H 10752 10763       L1    21  0.45

> <Gold.PLP.Chemscore.Internal.Correction>
0.2457

> <Gold.Rescore>
     Score         DG    S(hbond)    S(metal)    S(lipo)     H(rot)  DE(clash)    DE(int)     intcor
     18.27     -20.28       1.97        0.00     113.86       2.00       0.24       1.77       ----

> <Gold.Chemscore.Fitness>
18.2698

> <Gold.Chemscore.DG>
-20.2812

> <Gold.Chemscore.ZeroCoef>
-5.4800

> <Gold.Chemscore.Hbond>
1.9728

> <Gold.Chemscore.Metal>
0.0000

> <Gold.Chemscore.Lipo>
113.8579

> <Gold.Chemscore.Internal_Hbond>
0.0000

> <Gold.Chemscore.DEClash>
0.2415

> <Gold.Chemscore.DEInternal>
1.7698

> <Gold.Chemscore.Rot>
1.9958

> <Gold.Chemscore.Internal.Correction>
   9.000000E+99

> <Gold.Chemscore.Hbonds>
donor molecule, donor type, donor heavy atom, donor atom, acceptor molecule, acceptor atom, score
      P1  H  6896  6907       L1     6  0.91
      P1  H 10752 10763       L1    21  0.43

> <Gold.Chemscore.Hbond.Weighted>
-6.5890

> <Gold.Chemscore.Metal.Weighted>
-0.0000

> <Gold.Chemscore.Lipo.Weighted>
-13.3214

> <Gold.Chemscore.Internal_Hbond.Weighted>
0.0000

> <Gold.Chemscore.DEClash.Weighted>
0.2415

> <Gold.Chemscore.DEInternal.Weighted>
1.7698

> <Gold.Chemscore.Rot.Weighted>
5.1092

> <Gold.Chemscore.Internal.Correction.Weighted>
   9.000000E+99

> <Gold.Protein.RotatedTorsions>
[ 6907 6896 6895 6894 ] final  -15.66 input  -60.11 | X-H torsion
[ 7974 7965 7964 7962 ] final  170.34 input  175.53 | X-H torsion
[ 8008 7997 7996 7995 ] final   80.94 input   59.86 | X-H torsion
[ 10167 10162 10161 10158 ] final   35.78 input  -65.29 | X-H torsion
[ 10718 10713 10712 10709 ] final -106.90 input   66.30 | X-H torsion
[ 10763 10752 10751 10750 ] final   60.89 input  -60.55 | X-H torsion
[ 11005 11000 10999 10996 ] final   -8.38 input  -57.11 | X-H torsion

> <Gold.Protein.ActiveResidues>
 VAL166  LYS551  ARG553  GLY616  TRP617  ASP618  TYR619  PRO620  LYS621  CYS622 
 ASP623  PHE694  ASN695  SER759  ASP760  ASP761  ALA762  ILE779  LEU786  VAL792 
 PHE793  MET794  SER795  GLU796  ALA797  LYS798  CYS799  TRP800  GLU811  SER814 

> <Gold.Protein.RotatedAtoms>
  151.3205  135.0817  159.9303 H   0  0  0  0  0  0  0  0  0  0  0  0  # atno 6907 bound_to 6896
  152.5258  133.9644  159.7743 H   0  0  0  0  0  0  0  0  0  0  0  0  # atno 6908 bound_to 6896
  150.9964  133.6046  159.2731 H   0  0  0  0  0  0  0  0  0  0  0  0  # atno 6909 bound_to 6896
  144.7327  139.9187  143.6419 H   0  0  0  0  0  0  0  0  0  0  0  0  # atno 7974 bound_to 7965
  155.8904  140.3439  155.5952 H   0  0  0  0  0  0  0  0  0  0  0  0  # atno 8008 bound_to 7997
  155.7618  140.0833  157.2171 H   0  0  0  0  0  0  0  0  0  0  0  0  # atno 8009 bound_to 7997
  154.4033  140.1534  156.2828 H   0  0  0  0  0  0  0  0  0  0  0  0  # atno 8010 bound_to 7997
  140.4190  144.1487  150.6146 H   0  0  0  0  0  0  0  0  0  0  0  0  # atno 10167 bound_to 10162
  156.0411  130.5635  150.7745 H   0  0  0  0  0  0  0  0  0  0  0  0  # atno 10718 bound_to 10713
  152.9934  135.5520  154.5946 H   0  0  0  0  0  0  0  0  0  0  0  0  # atno 10763 bound_to 10752
  154.5300  135.2813  155.1190 H   0  0  0  0  0  0  0  0  0  0  0  0  # atno 10764 bound_to 10752
  154.2509  135.6399  153.5292 H   0  0  0  0  0  0  0  0  0  0  0  0  # atno 10765 bound_to 10752
  140.7229  133.8814  155.8834 H   0  0  0  0  0  0  0  0  0  0  0  0  # atno 11005 bound_to 11000
  146.0946  139.3937  143.0385 LP  0  0  0  0  0  0  0  0  0  0  0  0  # atno 17320 bound_to 7965
  145.7664  140.9914  143.1173 LP  0  0  0  0  0  0  0  0  0  0  0  0  # atno 17321 bound_to 7965
  140.4555  143.2469  151.9291 LP  0  0  0  0  0  0  0  0  0  0  0  0  # atno 17342 bound_to 10162
  139.4782  144.5520  151.8371 LP  0  0  0  0  0  0  0  0  0  0  0  0  # atno 17343 bound_to 10162
  157.5230  131.0932  151.0054 LP  0  0  0  0  0  0  0  0  0  0  0  0  # atno 17370 bound_to 10713
  157.0380  130.5738  149.5352 LP  0  0  0  0  0  0  0  0  0  0  0  0  # atno 17371 bound_to 10713
  140.9988  134.1178  157.4337 LP  0  0  0  0  0  0  0  0  0  0  0  0  # atno 17394 bound_to 11000
  139.8844  135.0062  156.6366 LP  0  0  0  0  0  0  0  0  0  0  0  0  # atno 17395 bound_to 11000

$$$$
