AV-unprocessed.smi:2252|AV-procd|sdf|9108|dock1
  -GOLD-   2272012313D 1   1.00000     0.00000
 Structure written by MMmdl.
 45 47  0  0  0  0  0  0  0  0  2 V2000
  152.7888  142.1523  159.9139 C   0  0  0  0  0  0  0  0  0  0  0  0
  152.1899  143.3075  159.2415 N   0  0  0  0  0  0  0  0  0  0  0  0
  152.5026  144.6267  159.4478 C   0  0  0  0  0  0  0  0  0  0  0  0
  151.7019  145.3563  158.6084 C   0  0  0  0  0  0  0  0  0  0  0  0
  150.9336  144.4532  157.9251 N   0  3  0  0  0  0  0  0  0  0  0  0
  151.2256  143.2058  158.3118 C   0  0  0  0  0  0  0  0  0  0  0  0
  150.5976  141.9579  157.7762 C   0  0  0  0  0  0  0  0  0  0  0  0
  150.8432  141.7684  156.2703 C   0  0  0  0  0  0  0  0  0  0  0  0
  149.6137  141.9389  155.5074 N   0  0  0  0  0  0  0  0  0  0  0  0
  149.2084  141.1261  154.5190 C   0  0  0  0  0  0  0  0  0  0  0  0
  149.8525  140.1424  154.1517 O   0  0  0  0  0  0  0  0  0  0  0  0
  147.8534  141.4547  153.8668 C   0  0  1  0  0  0  0  0  0  0  0  0
  146.9398  140.2096  153.8987 C   0  0  0  0  0  0  0  0  0  0  0  0
  147.4977  138.8319  153.5995 C   0  0  0  0  0  0  0  0  0  0  0  0
  146.5618  139.4889  152.6217 C   0  0  0  0  0  0  0  0  0  0  0  0
  147.1821  142.6170  154.5005 N   0  0  0  0  0  0  0  0  0  0  0  0
  146.0355  143.1537  153.7684 C   0  0  0  0  0  0  0  0  0  0  0  0
  145.3440  144.0664  154.7821 C   0  0  0  0  0  0  0  0  0  0  0  0
  145.7676  143.5261  156.1445 C   0  0  0  0  0  0  0  0  0  0  0  0
  146.6479  142.3179  155.8258 C   0  0  0  0  0  0  0  0  0  0  0  0
  153.5972  142.4867  160.5644 H   0  0  0  0  0  0  0  0  0  0  0  0
  153.1883  141.4636  159.1694 H   0  0  0  0  0  0  0  0  0  0  0  0
  152.0289  141.6496  160.5125 H   0  0  0  0  0  0  0  0  0  0  0  0
  153.2536  144.9414  160.1581 H   0  0  0  0  0  0  0  0  0  0  0  0
  151.6239  146.4220  158.4500 H   0  0  0  0  0  0  0  0  0  0  0  0
  150.9915  141.1221  158.3551 H   0  0  0  0  0  0  0  0  0  0  0  0
  149.5295  142.0197  157.9888 H   0  0  0  0  0  0  0  0  0  0  0  0
  151.5715  142.4983  155.9160 H   0  0  0  0  0  0  0  0  0  0  0  0
  151.2675  140.7836  156.0679 H   0  0  0  0  0  0  0  0  0  0  0  0
  149.0244  142.7220  155.7508 H   0  0  0  0  0  0  0  0  0  0  0  0
  148.0553  141.7041  152.8230 H   0  0  0  0  0  0  0  0  0  0  0  0
  146.1813  140.2387  154.6796 H   0  0  0  0  0  0  0  0  0  0  0  0
  148.5445  138.7549  153.3117 H   0  0  0  0  0  0  0  0  0  0  0  0
  147.1124  137.9978  154.1823 H   0  0  0  0  0  0  0  0  0  0  0  0
  145.5495  139.0964  152.5506 H   0  0  0  0  0  0  0  0  0  0  0  0
  146.9863  139.8527  151.6880 H   0  0  0  0  0  0  0  0  0  0  0  0
  146.3265  143.6966  152.8684 H   0  0  0  0  0  0  0  0  0  0  0  0
  145.3647  142.3429  153.4778 H   0  0  0  0  0  0  0  0  0  0  0  0
  145.6845  145.0961  154.6656 H   0  0  0  0  0  0  0  0  0  0  0  0
  144.2613  144.0578  154.6531 H   0  0  0  0  0  0  0  0  0  0  0  0
  146.3399  144.2820  156.6838 H   0  0  0  0  0  0  0  0  0  0  0  0
  144.9144  143.2500  156.7646 H   0  0  0  0  0  0  0  0  0  0  0  0
  146.0403  141.4114  155.7945 H   0  0  0  0  0  0  0  0  0  0  0  0
  147.4328  142.1764  156.5694 H   0  0  0  0  0  0  0  0  0  0  0  0
  150.2408  144.6918  157.2268 H   0  0  0  0  0  0  0  0  0  0  0  0
  1  2  1  0  0  0  0
  1 21  1  0  0  0  0
  1 22  1  0  0  0  0
  1 23  1  0  0  0  0
  2  6  1  0  0  0  0
  2  3  1  0  0  0  0
  3  4  2  0  0  0  0
  3 24  1  0  0  0  0
  4  5  1  0  0  0  0
  4 25  1  0  0  0  0
  5  6  2  0  0  0  0
  5 45  1  0  0  0  0
  6  7  1  0  0  0  0
  7  8  1  0  0  0  0
  7 26  1  0  0  0  0
  7 27  1  0  0  0  0
  8  9  1  0  0  0  0
  8 28  1  0  0  0  0
  8 29  1  0  0  0  0
  9 10  1  0  0  0  0
  9 30  1  0  0  0  0
 10 11  2  0  0  0  0
 10 12  1  0  0  0  0
 12 13  1  0  0  0  0
 12 16  1  0  0  0  0
 12 31  1  0  0  0  0
 13 15  1  0  0  0  0
 13 14  1  0  0  0  0
 13 32  1  0  0  0  0
 14 15  1  0  0  0  0
 14 33  1  0  0  0  0
 14 34  1  0  0  0  0
 15 35  1  0  0  0  0
 15 36  1  0  0  0  0
 16 20  1  0  0  0  0
 16 17  1  0  0  0  0
 17 18  1  0  0  0  0
 17 37  1  0  0  0  0
 17 38  1  0  0  0  0
 18 19  1  0  0  0  0
 18 39  1  0  0  0  0
 18 40  1  0  0  0  0
 19 20  1  0  0  0  0
 19 41  1  0  0  0  0
 19 42  1  0  0  0  0
 20 43  1  0  0  0  0
 20 44  1  0  0  0  0
M  CHG  1   5   1
M  END
> <s_m_source_file>
AV-unprocessed.smi

> <i_m_source_file_index>
2252

> <i_lp_mmshare_version>
43012

> <i_f3d_flags>
0

> <s_epik_input>
W0NIM11uMVtjSF1bY0hdbmMxW0NIMl1bQ0gyXVtOSF1DKD1PKVtDQEhdKFtDSF0yW0NIMl1bQ0gyXTIpTjNbQ0gyXVtDSDJdW0NIMl1bQ0gyXTM=

> <s_epik_cmdline>
J2VwaWtfcHl0aG9uJywgJy1waCcsICc3LjAnLCAnLXRuJywgJzgnLCAnLW1hJywgJzIwMCcsICctbWV0YWxfYmluZGluZycsICctaW1hZScsICc8aW5maWxlLm1hZT4nLCAnLW9tYWUnLCAnPG91dGZpbGUubWFlPic=

> <r_epik_Ionization_Penalty>
2.52117

> <r_epik_Ionization_Penalty_Charging>
0

> <r_epik_Ionization_Penalty_Neutral>
2.52117

> <r_epik_State_Penalty>
2.63608

> <r_epik_Charging_Adjusted_Penalty>
2.63608

> <i_epik_Tot_Q>
1

> <i_epik_Tot_abs_Q>
1

> <r_epik_Metal_State_Penalty>
2.94973

> <b_epik_Metal_Only>
0

> <s_lp_Force_Field>
OPLS_2005

> <r_lp_Energy>
33.653

> <b_lp_Chiralities_Consistent>
1

> <s_lp_Variant>
AV-unprocessed.smi:2252-6

> <Gold.Version>
5.8.1

> <Gold.Id.Protein>
6NUR|6NUR_protein|mol2

> <Gold.PLP.Fitness>
55.2361

> <Gold.PLP.PLP>
-46.3863

> <Gold.PLP.part.hbond>
-3.1731

> <Gold.PLP.part.metal>
0.0000

> <Gold.PLP.part.buried>
-5.3202

> <Gold.PLP.part.nonpolar>
-38.8011

> <Gold.PLP.part.repulsive>
2.0756

> <Gold.PLP.ligand.clash>
0.0000

> <Gold.PLP.ligand.torsion>
1.4867

> <Gold.PLP.Chemscore.Hbond>
3.5325

> <Gold.PLP.Chemscore.CHOScore>
0.0000

> <Gold.PLP.Chemscore.Metal>
0.0000

> <Gold.Chemscore.Hbonds>
donor molecule, donor type, donor heavy atom, donor atom, acceptor molecule, acceptor atom, score
      L1  H     5    45       P1  8028  1.98
      L1  H     9    30       P1  8028  0.88
      P1  H  7989  7998       L1    11  0.88

> <Gold.PLP.Chemscore.Internal.Correction>
1.2257

> <Gold.Rescore>
     Score         DG    S(hbond)    S(metal)    S(lipo)     H(rot)  DE(clash)    DE(int)     intcor
     12.20     -16.33       1.35        0.00      97.15       1.96       0.29       3.84       ----

> <Gold.Chemscore.Fitness>
12.2018

> <Gold.Chemscore.DG>
-16.3334

> <Gold.Chemscore.ZeroCoef>
-5.4800

> <Gold.Chemscore.Hbond>
1.3481

> <Gold.Chemscore.Metal>
0.0000

> <Gold.Chemscore.Lipo>
97.1537

> <Gold.Chemscore.Internal_Hbond>
0.0000

> <Gold.Chemscore.DEClash>
0.2899

> <Gold.Chemscore.DEInternal>
3.8417

> <Gold.Chemscore.Rot>
1.9595

> <Gold.Chemscore.Internal.Correction>
   9.000000E+99

> <Gold.Chemscore.Hbonds>
donor molecule, donor type, donor heavy atom, donor atom, acceptor molecule, acceptor atom, score
      L1  H     5    45       P1  8028  0.37
      L1  H     9    30       P1  8028  0.83
      P1  H  7989  7998       L1    11  0.41

> <Gold.Chemscore.Hbond.Weighted>
-4.5028

> <Gold.Chemscore.Metal.Weighted>
-0.0000

> <Gold.Chemscore.Lipo.Weighted>
-11.3670

> <Gold.Chemscore.Internal_Hbond.Weighted>
0.0000

> <Gold.Chemscore.DEClash.Weighted>
0.2899

> <Gold.Chemscore.DEInternal.Weighted>
3.8417

> <Gold.Chemscore.Rot.Weighted>
5.0164

> <Gold.Chemscore.Internal.Correction.Weighted>
   9.000000E+99

> <Gold.Protein.RotatedTorsions>
[ 6907 6896 6895 6894 ] final   70.72 input  -60.11 | X-H torsion
[ 7974 7965 7964 7962 ] final   70.02 input  175.53 | X-H torsion
[ 8008 7997 7996 7995 ] final -161.23 input   59.86 | X-H torsion
[ 10167 10162 10161 10158 ] final  112.62 input  -65.29 | X-H torsion
[ 10718 10713 10712 10709 ] final  172.21 input   66.30 | X-H torsion
[ 10763 10752 10751 10750 ] final   59.95 input  -60.55 | X-H torsion
[ 11005 11000 10999 10996 ] final   86.52 input  -57.11 | X-H torsion

> <Gold.Protein.ActiveResidues>
 VAL166  LYS551  ARG553  GLY616  TRP617  ASP618  TYR619  PRO620  LYS621  CYS622 
 ASP623  PHE694  ASN695  SER759  ASP760  ASP761  ALA762  ILE779  LEU786  VAL792 
 PHE793  MET794  SER795  GLU796  ALA797  LYS798  CYS799  TRP800  GLU811  SER814 

> <Gold.Protein.RotatedAtoms>
  152.4767  134.4826  159.9670 H   0  0  0  0  0  0  0  0  0  0  0  0  # atno 6907 bound_to 6896
  151.4841  133.3534  159.2850 H   0  0  0  0  0  0  0  0  0  0  0  0  # atno 6908 bound_to 6896
  150.8810  134.8227  159.7286 H   0  0  0  0  0  0  0  0  0  0  0  0  # atno 6909 bound_to 6896
  145.7833  139.2898  143.1253 H   0  0  0  0  0  0  0  0  0  0  0  0  # atno 7974 bound_to 7965
  155.7892  140.0876  157.2018 H   0  0  0  0  0  0  0  0  0  0  0  0  # atno 8008 bound_to 7997
  154.3986  140.1493  156.3201 H   0  0  0  0  0  0  0  0  0  0  0  0  # atno 8009 bound_to 7997
  155.8576  140.3431  155.5737 H   0  0  0  0  0  0  0  0  0  0  0  0  # atno 8010 bound_to 7997
  139.6522  144.7128  151.2026 H   0  0  0  0  0  0  0  0  0  0  0  0  # atno 10167 bound_to 10162
  156.9823  131.0123  151.2878 H   0  0  0  0  0  0  0  0  0  0  0  0  # atno 10718 bound_to 10713
  152.9908  135.5553  154.5796 H   0  0  0  0  0  0  0  0  0  0  0  0  # atno 10763 bound_to 10752
  154.5180  135.2806  155.1289 H   0  0  0  0  0  0  0  0  0  0  0  0  # atno 10764 bound_to 10752
  154.2654  135.6373  153.5343 H   0  0  0  0  0  0  0  0  0  0  0  0  # atno 10765 bound_to 10752
  139.8942  134.8360  156.2732 H   0  0  0  0  0  0  0  0  0  0  0  0  # atno 11005 bound_to 11000
  146.0051  140.8485  142.9999 LP  0  0  0  0  0  0  0  0  0  0  0  0  # atno 17320 bound_to 7965
  144.6793  140.2409  143.7344 LP  0  0  0  0  0  0  0  0  0  0  0  0  # atno 17321 bound_to 7965
  140.7543  143.6131  150.8586 LP  0  0  0  0  0  0  0  0  0  0  0  0  # atno 17342 bound_to 10162
  139.9780  143.5982  152.2952 LP  0  0  0  0  0  0  0  0  0  0  0  0  # atno 17343 bound_to 10162
  157.5517  130.8187  149.8153 LP  0  0  0  0  0  0  0  0  0  0  0  0  # atno 17370 bound_to 10713
  156.0239  130.3786  150.1879 LP  0  0  0  0  0  0  0  0  0  0  0  0  # atno 17371 bound_to 10713
  141.0087  133.7108  156.1077 LP  0  0  0  0  0  0  0  0  0  0  0  0  # atno 17394 bound_to 11000
  140.7397  134.4163  157.5556 LP  0  0  0  0  0  0  0  0  0  0  0  0  # atno 17395 bound_to 11000

$$$$
