AV-unprocessed.smi:1554|AV-procd|sdf|6263|dock6
  -GOLD-   22720 6453D 1   1.00000     0.00000
 Structure written by MMmdl.
 49 51  0  0  0  0  0  0  0  0  3 V2000
  152.4454  142.9934  160.5730 C   0  0  0  0  0  0  0  0  0  0  0  0
  152.1020  142.2138  159.3148 C   0  0  0  0  0  0  0  0  0  0  0  0
  151.1593  142.7637  158.4169 C   0  0  0  0  0  0  0  0  0  0  0  0
  150.8691  142.0288  157.2735 C   0  0  0  0  0  0  0  0  0  0  0  0
  150.0015  142.2923  156.2111 N   0  3  0  0  0  0  0  0  0  0  0  0
  150.0588  141.2699  155.3131 C   0  0  0  0  0  0  0  0  0  0  0  0
  150.9482  140.3561  155.7887 N   0  0  0  0  0  0  0  0  0  0  0  0
  151.3818  139.0742  155.2165 C   0  0  0  0  0  0  0  0  0  0  0  0
  150.2055  138.1288  154.9003 C   0  0  1  0  0  0  0  0  0  0  0  0
  149.6382  138.5052  153.6592 O   0  0  0  0  0  0  0  0  0  0  0  0
  150.6682  136.6590  154.8230 C   0  0  0  0  0  0  0  0  0  0  0  0
  149.5778  135.7167  154.4608 N   0  3  2  0  0  0  0  0  0  0  0  0
  148.3299  135.9178  155.2386 C   0  0  0  0  0  0  0  0  0  0  0  0
  147.2466  134.9271  154.7812 C   0  0  0  0  0  0  0  0  0  0  0  0
  147.7308  133.5965  154.9107 O   0  0  0  0  0  0  0  0  0  0  0  0
  148.8744  133.3574  154.0979 C   0  0  2  0  0  0  0  0  0  0  0  0
  149.2600  131.8804  154.2372 C   0  0  0  0  0  0  0  0  0  0  0  0
  150.0106  134.3005  154.5393 C   0  0  0  0  0  0  0  0  0  0  0  0
  151.4794  140.7874  157.0086 C   0  0  0  0  0  0  0  0  0  0  0  0
  152.4082  140.2296  157.8836 C   0  0  0  0  0  0  0  0  0  0  0  0
  152.7179  140.9627  159.0517 C   0  0  0  0  0  0  0  0  0  0  0  0
  153.7315  140.3831  160.0238 C   0  0  0  0  0  0  0  0  0  0  0  0
  151.8801  143.9240  160.6335 H   0  0  0  0  0  0  0  0  0  0  0  0
  153.5059  143.2462  160.5887 H   0  0  0  0  0  0  0  0  0  0  0  0
  152.2156  142.4063  161.4623 H   0  0  0  0  0  0  0  0  0  0  0  0
  150.6863  143.7154  158.6107 H   0  0  0  0  0  0  0  0  0  0  0  0
  149.4974  141.1960  154.3927 H   0  0  0  0  0  0  0  0  0  0  0  0
  151.9446  139.2967  154.3086 H   0  0  0  0  0  0  0  0  0  0  0  0
  152.0848  138.6081  155.9083 H   0  0  0  0  0  0  0  0  0  0  0  0
  149.4476  138.2521  155.6726 H   0  0  0  0  0  0  0  0  0  0  0  0
  149.3957  137.7260  153.1832 H   0  0  0  0  0  0  0  0  0  0  0  0
  151.4697  136.5885  154.0855 H   0  0  0  0  0  0  0  0  0  0  0  0
  151.1045  136.3479  155.7736 H   0  0  0  0  0  0  0  0  0  0  0  0
  148.5342  135.7783  156.3015 H   0  0  0  0  0  0  0  0  0  0  0  0
  147.9574  136.9339  155.1159 H   0  0  0  0  0  0  0  0  0  0  0  0
  146.3523  135.0387  155.3946 H   0  0  0  0  0  0  0  0  0  0  0  0
  146.9502  135.1217  153.7491 H   0  0  0  0  0  0  0  0  0  0  0  0
  148.6196  133.5518  153.0543 H   0  0  0  0  0  0  0  0  0  0  0  0
  150.1299  131.6418  153.6246 H   0  0  0  0  0  0  0  0  0  0  0  0
  148.4427  131.2328  153.9187 H   0  0  0  0  0  0  0  0  0  0  0  0
  149.4990  131.6299  155.2712 H   0  0  0  0  0  0  0  0  0  0  0  0
  150.8812  134.1472  153.9000 H   0  0  0  0  0  0  0  0  0  0  0  0
  150.3181  134.0703  155.5610 H   0  0  0  0  0  0  0  0  0  0  0  0
  152.8779  139.2783  157.6825 H   0  0  0  0  0  0  0  0  0  0  0  0
  154.1105  139.4202  159.6797 H   0  0  0  0  0  0  0  0  0  0  0  0
  153.2800  140.2320  161.0046 H   0  0  0  0  0  0  0  0  0  0  0  0
  154.5827  141.0555  160.1341 H   0  0  0  0  0  0  0  0  0  0  0  0
  149.3563  135.8878  153.4904 H   0  0  0  0  0  0  0  0  0  0  0  0
  149.4139  143.1093  156.1030 H   0  0  0  0  0  0  0  0  0  0  0  0
  1  2  1  0  0  0  0
  1 23  1  0  0  0  0
  1 24  1  0  0  0  0
  1 25  1  0  0  0  0
  2 21  1  0  0  0  0
  2  3  2  0  0  0  0
  3  4  1  0  0  0  0
  3 26  1  0  0  0  0
  4 19  2  0  0  0  0
  4  5  1  0  0  0  0
  5  6  2  0  0  0  0
  5 49  1  0  0  0  0
  6  7  1  0  0  0  0
  6 27  1  0  0  0  0
  7  8  1  0  0  0  0
  7 19  1  0  0  0  0
  8  9  1  0  0  0  0
  8 28  1  0  0  0  0
  8 29  1  0  0  0  0
  9 10  1  0  0  0  0
  9 11  1  0  0  0  0
  9 30  1  0  0  0  0
 10 31  1  0  0  0  0
 11 12  1  0  0  0  0
 11 32  1  0  0  0  0
 11 33  1  0  0  0  0
 12 18  1  0  0  0  0
 12 13  1  0  0  0  0
 12 48  1  0  0  0  0
 13 14  1  0  0  0  0
 13 34  1  0  0  0  0
 13 35  1  0  0  0  0
 14 15  1  0  0  0  0
 14 36  1  0  0  0  0
 14 37  1  0  0  0  0
 15 16  1  0  0  0  0
 16 17  1  0  0  0  0
 16 18  1  0  0  0  0
 16 38  1  0  0  0  0
 17 39  1  0  0  0  0
 17 40  1  0  0  0  0
 17 41  1  0  0  0  0
 18 42  1  0  0  0  0
 18 43  1  0  0  0  0
 19 20  1  0  0  0  0
 20 21  2  0  0  0  0
 20 44  1  0  0  0  0
 21 22  1  0  0  0  0
 22 45  1  0  0  0  0
 22 46  1  0  0  0  0
 22 47  1  0  0  0  0
M  CHG  1   5   1
M  CHG  1  12   1
M  END
> <s_m_source_file>
AV-unprocessed.smi

> <i_m_source_file_index>
1554

> <i_lp_mmshare_version>
43012

> <i_f3d_flags>
0

> <s_epik_input>
W0NIM11jKFtjSF0xKWMoW0NIM10pW2NIXWMoYzEyKW4oW2NIXW4yKVtDSDJdW0NASF0oW09IXSlbQ0gyXU4zW0NIMl1bQ0gyXU9bQ0BASF0oW0NIM10pW0NIMl0z

> <s_epik_cmdline>
J2VwaWtfcHl0aG9uJywgJy1waCcsICc3LjAnLCAnLXRuJywgJzgnLCAnLW1hJywgJzIwMCcsICctbWV0YWxfYmluZGluZycsICctaW1hZScsICc8aW5maWxlLm1hZT4nLCAnLW9tYWUnLCAnPG91dGZpbGUubWFlPic=

> <r_epik_Ionization_Penalty>
1.8848

> <r_epik_Ionization_Penalty_Charging>
1.88479

> <r_epik_Ionization_Penalty_Neutral>
1.42224e-05

> <r_epik_State_Penalty>
1.94551

> <r_epik_Charging_Adjusted_Penalty>
3.8303

> <i_epik_Tot_Q>
2

> <i_epik_Tot_abs_Q>
2

> <r_epik_Metal_State_Penalty>
5.95849

> <b_epik_Metal_Only>
0

> <s_lp_Force_Field>
OPLS_2005

> <r_lp_Energy>
30.4692

> <b_lp_Chiralities_Consistent>
1

> <s_lp_Variant>
AV-unprocessed.smi:1554-24

> <Gold.Version>
5.8.1

> <Gold.Id.Protein>
6NUR|6NUR_protein|mol2

> <Gold.PLP.Fitness>
58.0672

> <Gold.PLP.PLP>
-43.6205

> <Gold.PLP.part.hbond>
-4.1571

> <Gold.PLP.part.metal>
0.0000

> <Gold.PLP.part.buried>
-3.8995

> <Gold.PLP.part.nonpolar>
-35.6700

> <Gold.PLP.part.repulsive>
0.1842

> <Gold.PLP.ligand.clash>
0.0000

> <Gold.PLP.ligand.torsion>
0.2948

> <Gold.PLP.Chemscore.Hbond>
5.0000

> <Gold.PLP.Chemscore.CHOScore>
0.0000

> <Gold.PLP.Chemscore.Metal>
0.0000

> <Gold.Chemscore.Hbonds>
donor molecule, donor type, donor heavy atom, donor atom, acceptor molecule, acceptor atom, score
      L1  H     5    49       P1  8028  2.00
      L1  H    10    31       P1  7948  1.00
      L1  H    12    48       P1  7948  2.00

> <Gold.PLP.Chemscore.Internal.Correction>
0.0363

> <Gold.Rescore>
     Score         DG    S(hbond)    S(metal)    S(lipo)     H(rot)  DE(clash)    DE(int)     intcor
     21.62     -21.91       2.81        0.00     106.51       2.11       0.02       0.27       ----

> <Gold.Chemscore.Fitness>
21.6247

> <Gold.Chemscore.DG>
-21.9094

> <Gold.Chemscore.ZeroCoef>
-5.4800

> <Gold.Chemscore.Hbond>
2.8068

> <Gold.Chemscore.Metal>
0.0000

> <Gold.Chemscore.Lipo>
106.5129

> <Gold.Chemscore.Internal_Hbond>
0.0000

> <Gold.Chemscore.DEClash>
0.0195

> <Gold.Chemscore.DEInternal>
0.2652

> <Gold.Chemscore.Rot>
2.1122

> <Gold.Chemscore.Internal.Correction>
   9.000000E+99

> <Gold.Chemscore.Hbonds>
donor molecule, donor type, donor heavy atom, donor atom, acceptor molecule, acceptor atom, score
      L1  H     5    49       P1  8028  1.00
      L1  H    10    31       P1  7948  0.90
      L1  H    12    48       P1  7948  0.55

> <Gold.Chemscore.Hbond.Weighted>
-9.3747

> <Gold.Chemscore.Metal.Weighted>
-0.0000

> <Gold.Chemscore.Lipo.Weighted>
-12.4620

> <Gold.Chemscore.Internal_Hbond.Weighted>
0.0000

> <Gold.Chemscore.DEClash.Weighted>
0.0195

> <Gold.Chemscore.DEInternal.Weighted>
0.2652

> <Gold.Chemscore.Rot.Weighted>
5.4073

> <Gold.Chemscore.Internal.Correction.Weighted>
   9.000000E+99

> <Gold.Protein.RotatedTorsions>
[ 6907 6896 6895 6894 ] final  -54.11 input  -60.11 | X-H torsion
[ 7974 7965 7964 7962 ] final   76.58 input  175.53 | X-H torsion
[ 8008 7997 7996 7995 ] final   98.64 input   59.86 | X-H torsion
[ 10167 10162 10161 10158 ] final   68.91 input  -65.29 | X-H torsion
[ 10718 10713 10712 10709 ] final   -6.03 input   66.30 | X-H torsion
[ 10763 10752 10751 10750 ] final -157.24 input  -60.55 | X-H torsion
[ 11005 11000 10999 10996 ] final -163.30 input  -57.11 | X-H torsion

> <Gold.Protein.ActiveResidues>
 VAL166  LYS551  ARG553  GLY616  TRP617  ASP618  TYR619  PRO620  LYS621  CYS622 
 ASP623  PHE694  ASN695  SER759  ASP760  ASP761  ALA762  ILE779  LEU786  VAL792 
 PHE793  MET794  SER795  GLU796  ALA797  LYS798  CYS799  TRP800  GLU811  SER814 

> <Gold.Protein.RotatedAtoms>
  150.8366  134.7642  159.6897 H   0  0  0  0  0  0  0  0  0  0  0  0  # atno 6907 bound_to 6896
  152.4462  134.5486  159.9870 H   0  0  0  0  0  0  0  0  0  0  0  0  # atno 6908 bound_to 6896
  151.5635  133.3362  159.3011 H   0  0  0  0  0  0  0  0  0  0  0  0  # atno 6909 bound_to 6896
  145.7010  139.2583  143.1705 H   0  0  0  0  0  0  0  0  0  0  0  0  # atno 7974 bound_to 7965
  156.1025  140.3241  155.7961 H   0  0  0  0  0  0  0  0  0  0  0  0  # atno 8008 bound_to 7997
  155.4813  140.0554  157.2984 H   0  0  0  0  0  0  0  0  0  0  0  0  # atno 8009 bound_to 7997
  154.4706  140.2009  156.0020 H   0  0  0  0  0  0  0  0  0  0  0  0  # atno 8010 bound_to 7997
  140.0735  144.5132  150.7211 H   0  0  0  0  0  0  0  0  0  0  0  0  # atno 10167 bound_to 10162
  156.7378  130.5200  149.5831 H   0  0  0  0  0  0  0  0  0  0  0  0  # atno 10718 bound_to 10713
  154.7651  135.3129  154.8302 H   0  0  0  0  0  0  0  0  0  0  0  0  # atno 10763 bound_to 10752
  153.9052  135.6811  153.4757 H   0  0  0  0  0  0  0  0  0  0  0  0  # atno 10764 bound_to 10752
  153.1256  135.4803  154.9199 H   0  0  0  0  0  0  0  0  0  0  0  0  # atno 10765 bound_to 10752
  140.5997  134.4960  157.5203 H   0  0  0  0  0  0  0  0  0  0  0  0  # atno 11005 bound_to 11000
  146.0797  140.7777  142.9647 LP  0  0  0  0  0  0  0  0  0  0  0  0  # atno 17320 bound_to 7965
  144.6968  140.3470  143.7189 LP  0  0  0  0  0  0  0  0  0  0  0  0  # atno 17321 bound_to 7965
  140.7114  143.2508  151.4570 LP  0  0  0  0  0  0  0  0  0  0  0  0  # atno 17342 bound_to 10162
  139.5822  144.1685  152.1982 LP  0  0  0  0  0  0  0  0  0  0  0  0  # atno 17343 bound_to 10162
  156.1485  130.6293  151.0564 LP  0  0  0  0  0  0  0  0  0  0  0  0  # atno 17370 bound_to 10713
  157.6831  131.0832  150.7315 LP  0  0  0  0  0  0  0  0  0  0  0  0  # atno 17371 bound_to 10713
  139.9238  134.8096  156.1131 LP  0  0  0  0  0  0  0  0  0  0  0  0  # atno 17394 bound_to 11000
  141.0880  133.6726  156.2479 LP  0  0  0  0  0  0  0  0  0  0  0  0  # atno 17395 bound_to 11000

$$$$
