AV-unprocessed.smi:633|AV-procd|sdf|3131|dock1
  -GOLD-   22720 0 53D 1   1.00000     0.00000
 Structure written by MMmdl.
 53 56  0  0  0  0  0  0  0  0  1 V2000
  153.5227  141.0814  160.7355 C   0  0  0  0  0  0  0  0  0  0  0  0
  152.3890  141.6520  159.8772 C   0  0  2  0  0  0  0  0  0  0  0  0
  152.0737  140.7572  158.6638 C   0  0  0  0  0  0  0  0  0  0  0  0
  151.0684  141.3889  157.8119 N   0  0  0  0  0  0  0  0  0  0  0  0
  150.4774  140.6092  156.7946 C   0  0  0  0  0  0  0  0  0  0  0  0
  151.2840  140.0296  155.7879 C   0  0  0  0  0  0  0  0  0  0  0  0
  150.6812  139.2480  154.7841 C   0  0  0  0  0  0  0  0  0  0  0  0
  149.2793  139.0575  154.8115 C   0  0  0  0  0  0  0  0  0  0  0  0
  148.5414  138.2979  153.8610 N   0  0  0  0  0  0  0  0  0  0  0  0
  147.2348  138.3605  153.5492 C   0  0  0  0  0  0  0  0  0  0  0  0
  146.4161  139.1301  154.0499 O   0  0  0  0  0  0  0  0  0  0  0  0
  146.9235  137.4671  152.5990 N   0  0  0  0  0  0  0  0  0  0  0  0
  145.5933  137.2516  152.0379 C   0  0  0  0  0  0  0  0  0  0  0  0
  144.5899  136.8063  153.0887 C   0  0  0  0  0  0  0  0  0  0  0  0
  143.1048  137.0034  152.8936 C   0  0  0  0  0  0  0  0  0  0  0  0
  143.8443  137.8092  153.9372 C   0  0  0  0  0  0  0  0  0  0  0  0
  145.6255  136.2660  150.8842 C   0  0  0  0  0  0  0  0  0  0  0  0
  144.4299  135.4001  150.5673 C   0  0  0  0  0  0  0  0  0  0  0  0
  145.6906  134.7758  151.1226 C   0  0  0  0  0  0  0  0  0  0  0  0
  148.5591  139.6878  155.8461 C   0  0  0  0  0  0  0  0  0  0  0  0
  149.1327  140.4401  156.8087 N   0  0  0  0  0  0  0  0  0  0  0  0
  151.4130  142.7558  157.4307 C   0  0  0  0  0  0  0  0  0  0  0  0
  151.7540  143.5940  158.6775 C   0  0  2  0  0  0  0  0  0  0  0  0
  152.2444  144.9985  158.3101 C   0  0  0  0  0  0  0  0  0  0  0  0
  152.7832  142.9414  159.4161 O   0  0  0  0  0  0  0  0  0  0  0  0
  153.2636  140.0960  161.1230 H   0  0  0  0  0  0  0  0  0  0  0  0
  153.7301  141.7294  161.5874 H   0  0  0  0  0  0  0  0  0  0  0  0
  154.4431  140.9839  160.1590 H   0  0  0  0  0  0  0  0  0  0  0  0
  151.4991  141.7519  160.5016 H   0  0  0  0  0  0  0  0  0  0  0  0
  152.9789  140.5798  158.0812 H   0  0  0  0  0  0  0  0  0  0  0  0
  151.7140  139.7878  159.0116 H   0  0  0  0  0  0  0  0  0  0  0  0
  152.3520  140.1875  155.7651 H   0  0  0  0  0  0  0  0  0  0  0  0
  151.3105  138.8264  154.0172 H   0  0  0  0  0  0  0  0  0  0  0  0
  149.0871  137.6369  153.3276 H   0  0  0  0  0  0  0  0  0  0  0  0
  147.6629  136.8796  152.2425 H   0  0  0  0  0  0  0  0  0  0  0  0
  145.2358  138.1983  151.6276 H   0  0  0  0  0  0  0  0  0  0  0  0
  144.8755  135.8849  153.5934 H   0  0  0  0  0  0  0  0  0  0  0  0
  142.7706  137.5314  152.0029 H   0  0  0  0  0  0  0  0  0  0  0  0
  142.4437  136.2130  153.2427 H   0  0  0  0  0  0  0  0  0  0  0  0
  143.6781  137.5562  154.9823 H   0  0  0  0  0  0  0  0  0  0  0  0
  144.0025  138.8663  153.7333 H   0  0  0  0  0  0  0  0  0  0  0  0
  146.1848  136.6268  150.0228 H   0  0  0  0  0  0  0  0  0  0  0  0
  143.5680  135.4660  151.2286 H   0  0  0  0  0  0  0  0  0  0  0  0
  144.2005  135.2261  149.5181 H   0  0  0  0  0  0  0  0  0  0  0  0
  146.3014  134.1851  150.4432 H   0  0  0  0  0  0  0  0  0  0  0  0
  145.6601  134.4203  152.1506 H   0  0  0  0  0  0  0  0  0  0  0  0
  147.4854  139.5844  155.9084 H   0  0  0  0  0  0  0  0  0  0  0  0
  152.2678  142.7238  156.7537 H   0  0  0  0  0  0  0  0  0  0  0  0
  150.5997  143.2376  156.8895 H   0  0  0  0  0  0  0  0  0  0  0  0
  150.8681  143.6907  159.3077 H   0  0  0  0  0  0  0  0  0  0  0  0
  151.4847  145.5464  157.7520 H   0  0  0  0  0  0  0  0  0  0  0  0
  153.1443  144.9538  157.6961 H   0  0  0  0  0  0  0  0  0  0  0  0
  152.4801  145.5749  159.2049 H   0  0  0  0  0  0  0  0  0  0  0  0
  1  2  1  0  0  0  0
  1 26  1  0  0  0  0
  1 27  1  0  0  0  0
  1 28  1  0  0  0  0
  2 25  1  0  0  0  0
  2  3  1  0  0  0  0
  2 29  1  0  0  0  0
  3  4  1  0  0  0  0
  3 30  1  0  0  0  0
  3 31  1  0  0  0  0
  4  5  1  0  0  0  0
  4 22  1  0  0  0  0
  5 21  1  0  0  0  0
  5  6  2  0  0  0  0
  6  7  1  0  0  0  0
  6 32  1  0  0  0  0
  7  8  2  0  0  0  0
  7 33  1  0  0  0  0
  8  9  1  0  0  0  0
  8 20  1  0  0  0  0
  9 10  1  0  0  0  0
  9 34  1  0  0  0  0
 10 11  2  0  0  0  0
 10 12  1  0  0  0  0
 12 13  1  0  0  0  0
 12 35  1  0  0  0  0
 13 14  1  0  0  0  0
 13 17  1  0  0  0  0
 13 36  1  0  0  0  0
 14 16  1  0  0  0  0
 14 15  1  0  0  0  0
 14 37  1  0  0  0  0
 15 16  1  0  0  0  0
 15 38  1  0  0  0  0
 15 39  1  0  0  0  0
 16 40  1  0  0  0  0
 16 41  1  0  0  0  0
 17 19  1  0  0  0  0
 17 18  1  0  0  0  0
 17 42  1  0  0  0  0
 18 19  1  0  0  0  0
 18 43  1  0  0  0  0
 18 44  1  0  0  0  0
 19 45  1  0  0  0  0
 19 46  1  0  0  0  0
 20 21  2  0  0  0  0
 20 47  1  0  0  0  0
 22 23  1  0  0  0  0
 22 48  1  0  0  0  0
 22 49  1  0  0  0  0
 23 24  1  0  0  0  0
 23 25  1  0  0  0  0
 23 50  1  0  0  0  0
 24 51  1  0  0  0  0
 24 52  1  0  0  0  0
 24 53  1  0  0  0  0
M  END
> <s_m_source_file>
AV-unprocessed.smi

> <i_m_source_file_index>
633

> <i_lp_mmshare_version>
43012

> <i_f3d_flags>
0

> <s_epik_input>
W0NIM11bQ0BASF0xW0NIMl1OKFtDSDJdW0NASF0oTzEpW0NIM10pYzJbY0hdW2NIXWMoW2NIXW4yKVtOSF1DKD1PKVtOSF1bQ0hdKFtDSF0zW0NIMl1bQ0gyXTMpW0NIXTRbQ0gyXVtDSDJdNA==

> <s_epik_cmdline>
J2VwaWtfcHl0aG9uJywgJy1waCcsICc3LjAnLCAnLXRuJywgJzgnLCAnLW1hJywgJzIwMCcsICctbWV0YWxfYmluZGluZycsICctaW1hZScsICc8aW5maWxlLm1hZT4nLCAnLW9tYWUnLCAnPG91dGZpbGUubWFlPic=

> <r_lp_tautomer_probability>
1

> <r_epik_Ionization_Penalty>
0.00291159

> <r_epik_Ionization_Penalty_Charging>
0

> <r_epik_Ionization_Penalty_Neutral>
0.00291159

> <r_epik_State_Penalty>
0.00200877

> <r_epik_Charging_Adjusted_Penalty>
0.00200877

> <i_epik_Tot_Q>
0

> <i_epik_Tot_abs_Q>
0

> <r_epik_Metal_State_Penalty>
-0

> <b_epik_Metal_Only>
0

> <s_lp_Force_Field>
OPLS_2005

> <r_lp_Energy>
40.0006

> <b_lp_Chiralities_Consistent>
1

> <s_lp_Variant>
AV-unprocessed.smi:633-2

> <Gold.Version>
5.8.1

> <Gold.Id.Protein>
6NUR|6NUR_protein|mol2

> <Gold.PLP.Fitness>
49.5085

> <Gold.PLP.PLP>
-44.2073

> <Gold.PLP.part.hbond>
-1.9833

> <Gold.PLP.part.metal>
0.0000

> <Gold.PLP.part.buried>
-4.0777

> <Gold.PLP.part.nonpolar>
-38.6126

> <Gold.PLP.part.repulsive>
0.2459

> <Gold.PLP.ligand.clash>
0.0000

> <Gold.PLP.ligand.torsion>
1.4556

> <Gold.PLP.Chemscore.Hbond>
1.9120

> <Gold.PLP.Chemscore.CHOScore>
0.0000

> <Gold.PLP.Chemscore.Metal>
0.0000

> <Gold.Chemscore.Hbonds>
donor molecule, donor type, donor heavy atom, donor atom, acceptor molecule, acceptor atom, score
      L1  H     9    34       P1  7948  0.88
      L1  H    12    35       P1  7948  0.88

> <Gold.PLP.Chemscore.Internal.Correction>
2.4764

> <Gold.Rescore>
     Score         DG    S(hbond)    S(metal)    S(lipo)     H(rot)  DE(clash)    DE(int)     intcor
     17.21     -21.16       1.92        0.00     109.89       1.40       0.02       3.94       ----

> <Gold.Chemscore.Fitness>
17.2081

> <Gold.Chemscore.DG>
-21.1644

> <Gold.Chemscore.ZeroCoef>
-5.4800

> <Gold.Chemscore.Hbond>
1.9212

> <Gold.Chemscore.Metal>
0.0000

> <Gold.Chemscore.Lipo>
109.8899

> <Gold.Chemscore.Internal_Hbond>
0.0000

> <Gold.Chemscore.DEClash>
0.0174

> <Gold.Chemscore.DEInternal>
3.9389

> <Gold.Chemscore.Rot>
1.4022

> <Gold.Chemscore.Internal.Correction>
   9.000000E+99

> <Gold.Chemscore.Hbonds>
donor molecule, donor type, donor heavy atom, donor atom, acceptor molecule, acceptor atom, score
      L1  H     9    34       P1  7948  0.82
      L1  H    12    35       P1  7948  0.86

> <Gold.Chemscore.Hbond.Weighted>
-6.4169

> <Gold.Chemscore.Metal.Weighted>
-0.0000

> <Gold.Chemscore.Lipo.Weighted>
-12.8571

> <Gold.Chemscore.Internal_Hbond.Weighted>
0.0000

> <Gold.Chemscore.DEClash.Weighted>
0.0174

> <Gold.Chemscore.DEInternal.Weighted>
3.9389

> <Gold.Chemscore.Rot.Weighted>
3.5897

> <Gold.Chemscore.Internal.Correction.Weighted>
   9.000000E+99

> <Gold.Protein.RotatedTorsions>
[ 6907 6896 6895 6894 ] final -104.96 input  -60.11 | X-H torsion
[ 7974 7965 7964 7962 ] final   62.17 input  175.53 | X-H torsion
[ 8008 7997 7996 7995 ] final  160.22 input   59.86 | X-H torsion
[ 10167 10162 10161 10158 ] final  169.98 input  -65.29 | X-H torsion
[ 10718 10713 10712 10709 ] final -107.47 input   66.30 | X-H torsion
[ 10763 10752 10751 10750 ] final -161.76 input  -60.55 | X-H torsion
[ 11005 11000 10999 10996 ] final  162.69 input  -57.11 | X-H torsion

> <Gold.Protein.ActiveResidues>
 VAL166  LYS551  ARG553  GLY616  TRP617  ASP618  TYR619  PRO620  LYS621  CYS622 
 ASP623  PHE694  ASN695  SER759  ASP760  ASP761  ALA762  ILE779  LEU786  VAL792 
 PHE793  MET794  SER795  GLU796  ALA797  LYS798  CYS799  TRP800  GLU811  SER814 

> <Gold.Protein.RotatedAtoms>
  150.7313  134.0198  159.3697 H   0  0  0  0  0  0  0  0  0  0  0  0  # atno 6907 bound_to 6896
  151.8162  135.0663  160.0428 H   0  0  0  0  0  0  0  0  0  0  0  0  # atno 6908 bound_to 6896
  152.3037  133.5645  159.5671 H   0  0  0  0  0  0  0  0  0  0  0  0  # atno 6909 bound_to 6896
  145.8764  139.3413  143.0732 H   0  0  0  0  0  0  0  0  0  0  0  0  # atno 7974 bound_to 7965
  156.2187  140.1810  156.7529 H   0  0  0  0  0  0  0  0  0  0  0  0  # atno 8008 bound_to 7997
  154.5831  140.0663  156.9161 H   0  0  0  0  0  0  0  0  0  0  0  0  # atno 8009 bound_to 7997
  155.2467  140.3326  155.4289 H   0  0  0  0  0  0  0  0  0  0  0  0  # atno 8010 bound_to 7997
  139.5006  144.3647  151.9788 H   0  0  0  0  0  0  0  0  0  0  0  0  # atno 10167 bound_to 10162
  156.0438  130.5664  150.7825 H   0  0  0  0  0  0  0  0  0  0  0  0  # atno 10718 bound_to 10713
  154.7275  135.3039  154.8947 H   0  0  0  0  0  0  0  0  0  0  0  0  # atno 10763 bound_to 10752
  153.9800  135.6731  153.4754 H   0  0  0  0  0  0  0  0  0  0  0  0  # atno 10764 bound_to 10752
  153.0888  135.4970  154.8569 H   0  0  0  0  0  0  0  0  0  0  0  0  # atno 10765 bound_to 10752
  140.2283  134.8144  157.3291 H   0  0  0  0  0  0  0  0  0  0  0  0  # atno 11005 bound_to 11000
  145.9076  140.9202  143.0471 LP  0  0  0  0  0  0  0  0  0  0  0  0  # atno 17320 bound_to 7965
  144.6726  140.1116  143.7455 LP  0  0  0  0  0  0  0  0  0  0  0  0  # atno 17321 bound_to 7965
  140.3083  144.3568  150.6041 LP  0  0  0  0  0  0  0  0  0  0  0  0  # atno 17342 bound_to 10162
  140.5819  143.2172  151.7412 LP  0  0  0  0  0  0  0  0  0  0  0  0  # atno 17343 bound_to 10162
  157.5289  131.0935  150.9981 LP  0  0  0  0  0  0  0  0  0  0  0  0  # atno 17370 bound_to 10713
  157.0293  130.5705  149.5341 LP  0  0  0  0  0  0  0  0  0  0  0  0  # atno 17371 bound_to 10713
  140.1777  134.4528  155.7791 LP  0  0  0  0  0  0  0  0  0  0  0  0  # atno 17394 bound_to 11000
  141.2219  133.6970  156.7816 LP  0  0  0  0  0  0  0  0  0  0  0  0  # atno 17395 bound_to 11000

$$$$
