AV-unprocessed.smi:3158|AV-procd|sdf|12043|dock7
  -GOLD-   2272017463D 1   1.00000     0.00000
 Structure written by MMmdl.
 40 40  0  0  0  0  0  0  0  0  2 V2000
  152.3929  138.6026  154.9819 C   0  0  0  0  0  0  0  0  0  0  0  0
  151.0991  138.1045  154.3208 C   0  0  0  0  0  0  0  0  0  0  0  0
  149.8990  139.0629  154.4691 C   0  0  2  0  0  0  0  0  0  0  0  0
  149.4497  139.1778  155.9323 C   0  0  0  0  0  0  0  0  0  0  0  0
  148.7658  138.6194  153.6581 N   0  0  0  0  0  0  0  0  0  0  0  0
  147.4986  139.0451  153.7817 C   0  0  0  0  0  0  0  0  0  0  0  0
  147.1403  139.8803  154.6131 O   0  0  0  0  0  0  0  0  0  0  0  0
  146.4728  138.4358  152.8169 C   0  0  1  0  0  0  0  0  0  0  0  0
  146.8438  138.7837  151.3675 C   0  0  0  0  0  0  0  0  0  0  0  0
  146.4106  136.9674  152.9822 N   0  3  0  0  0  0  0  0  0  0  0  0
  145.1930  136.3296  152.4347 C   0  0  0  0  0  0  0  0  0  0  0  0
  145.3705  135.9756  150.9494 C   0  0  0  0  0  0  0  0  0  0  0  0
  145.4071  134.5397  150.7288 N   0  0  0  0  0  0  0  0  0  0  0  0
  144.4901  133.7492  150.0681 C   0  0  0  0  0  0  0  0  0  0  0  0
  144.9514  132.4648  150.1163 C   0  0  0  0  0  0  0  0  0  0  0  0
  146.1678  132.5687  150.8473 C   0  0  0  0  0  0  0  0  0  0  0  0
  146.4331  133.8102  151.2194 N   0  0  0  0  0  0  0  0  0  0  0  0
  153.1739  137.8444  154.9219 H   0  0  0  0  0  0  0  0  0  0  0  0
  152.2343  138.8335  156.0357 H   0  0  0  0  0  0  0  0  0  0  0  0
  152.7726  139.5001  154.4945 H   0  0  0  0  0  0  0  0  0  0  0  0
  151.2882  137.9078  153.2648 H   0  0  0  0  0  0  0  0  0  0  0  0
  150.8380  137.1422  154.7633 H   0  0  0  0  0  0  0  0  0  0  0  0
  150.2150  140.0582  154.1515 H   0  0  0  0  0  0  0  0  0  0  0  0
  150.2592  139.5457  156.5634 H   0  0  0  0  0  0  0  0  0  0  0  0
  149.1319  138.2128  156.3286 H   0  0  0  0  0  0  0  0  0  0  0  0
  148.6145  139.8717  156.0339 H   0  0  0  0  0  0  0  0  0  0  0  0
  148.9652  137.9308  152.9468 H   0  0  0  0  0  0  0  0  0  0  0  0
  145.4842  138.8496  153.0242 H   0  0  0  0  0  0  0  0  0  0  0  0
  146.8885  139.8633  151.2181 H   0  0  0  0  0  0  0  0  0  0  0  0
  146.1048  138.3895  150.6696 H   0  0  0  0  0  0  0  0  0  0  0  0
  147.8143  138.3694  151.0899 H   0  0  0  0  0  0  0  0  0  0  0  0
  147.2124  136.5508  152.5316 H   0  0  0  0  0  0  0  0  0  0  0  0
  144.9463  135.4284  152.9974 H   0  0  0  0  0  0  0  0  0  0  0  0
  144.3533  137.0129  152.5636 H   0  0  0  0  0  0  0  0  0  0  0  0
  144.5471  136.3883  150.3652 H   0  0  0  0  0  0  0  0  0  0  0  0
  146.2877  136.4177  150.5582 H   0  0  0  0  0  0  0  0  0  0  0  0
  143.5978  134.1606  149.6189 H   0  0  0  0  0  0  0  0  0  0  0  0
  144.4889  131.5839  149.6961 H   0  0  0  0  0  0  0  0  0  0  0  0
  146.8597  131.7849  151.1191 H   0  0  0  0  0  0  0  0  0  0  0  0
  146.4591  136.7743  153.9729 H   0  0  0  0  0  0  0  0  0  0  0  0
  1  2  1  0  0  0  0
  1 18  1  0  0  0  0
  1 19  1  0  0  0  0
  1 20  1  0  0  0  0
  2  3  1  0  0  0  0
  2 21  1  0  0  0  0
  2 22  1  0  0  0  0
  3  4  1  0  0  0  0
  3  5  1  0  0  0  0
  3 23  1  0  0  0  0
  4 24  1  0  0  0  0
  4 25  1  0  0  0  0
  4 26  1  0  0  0  0
  5  6  1  0  0  0  0
  5 27  1  0  0  0  0
  6  7  2  0  0  0  0
  6  8  1  0  0  0  0
  8  9  1  0  0  0  0
  8 10  1  0  0  0  0
  8 28  1  0  0  0  0
  9 29  1  0  0  0  0
  9 30  1  0  0  0  0
  9 31  1  0  0  0  0
 10 11  1  0  0  0  0
 10 32  1  0  0  0  0
 10 40  1  0  0  0  0
 11 12  1  0  0  0  0
 11 33  1  0  0  0  0
 11 34  1  0  0  0  0
 12 13  1  0  0  0  0
 12 35  1  0  0  0  0
 12 36  1  0  0  0  0
 13 17  1  0  0  0  0
 13 14  1  0  0  0  0
 14 15  2  0  0  0  0
 14 37  1  0  0  0  0
 15 16  1  0  0  0  0
 15 38  1  0  0  0  0
 16 17  2  0  0  0  0
 16 39  1  0  0  0  0
M  CHG  1  10   1
M  END
> <s_m_source_file>
AV-unprocessed.smi

> <i_m_source_file_index>
3158

> <i_lp_mmshare_version>
43012

> <i_f3d_flags>
0

> <s_epik_input>
W0NIM11bQ0gyXVtDQEhdKFtDSDNdKVtOSF1DKD1PKVtDQEhdKFtDSDNdKVtOSF1bQ0gyXVtDSDJdbjFbY0hdW2NIXVtjSF1uMQ==

> <s_epik_cmdline>
J2VwaWtfcHl0aG9uJywgJy1waCcsICc3LjAnLCAnLXRuJywgJzgnLCAnLW1hJywgJzIwMCcsICctbWV0YWxfYmluZGluZycsICctaW1hZScsICc8aW5maWxlLm1hZT4nLCAnLW9tYWUnLCAnPG91dGZpbGUubWFlPic=

> <r_lp_tautomer_probability>
1

> <r_epik_Ionization_Penalty>
0.20724

> <r_epik_Ionization_Penalty_Charging>
0.207237

> <r_epik_Ionization_Penalty_Neutral>
3.33806e-06

> <r_epik_State_Penalty>
0.197234

> <r_epik_Charging_Adjusted_Penalty>
0.404471

> <i_epik_Tot_Q>
1

> <i_epik_Tot_abs_Q>
1

> <r_epik_Metal_State_Penalty>
0.197524

> <b_epik_Metal_Only>
0

> <s_lp_Force_Field>
OPLS_2005

> <r_lp_Energy>
5.46656

> <b_lp_Chiralities_Consistent>
1

> <s_lp_Variant>
AV-unprocessed.smi:3158-3

> <Gold.Version>
5.8.1

> <Gold.Id.Protein>
6NUR|6NUR_protein|mol2

> <Gold.PLP.Fitness>
48.4030

> <Gold.PLP.PLP>
-35.2550

> <Gold.PLP.part.hbond>
-3.0000

> <Gold.PLP.part.metal>
0.0000

> <Gold.PLP.part.buried>
-2.4480

> <Gold.PLP.part.nonpolar>
-30.0186

> <Gold.PLP.part.repulsive>
0.3531

> <Gold.PLP.ligand.clash>
0.0000

> <Gold.PLP.ligand.torsion>
0.9722

> <Gold.PLP.Chemscore.Hbond>
3.0000

> <Gold.PLP.Chemscore.CHOScore>
2.0000

> <Gold.PLP.Chemscore.Metal>
0.0000

> <Gold.Chemscore.Hbonds>
donor molecule, donor type, donor heavy atom, donor atom, acceptor molecule, acceptor atom, score
      L1  H     5    27       P1  7948  1.00
      L1  H    10    32       P1  7948  2.00
      L1  C    14    37       P1 10186  0.83
      L1  C    16    39       P1 10747  1.00

> <Gold.PLP.Chemscore.Internal.Correction>
0.0925

> <Gold.Rescore>
     Score         DG    S(hbond)    S(metal)    S(lipo)     H(rot)  DE(clash)    DE(int)     intcor
     13.58     -16.08       1.98        0.00      82.54       2.21       0.28       2.22       ----

> <Gold.Chemscore.Fitness>
13.5778

> <Gold.Chemscore.DG>
-16.0816

> <Gold.Chemscore.ZeroCoef>
-5.4800

> <Gold.Chemscore.Hbond>
1.9793

> <Gold.Chemscore.Metal>
0.0000

> <Gold.Chemscore.Lipo>
82.5351

> <Gold.Chemscore.Internal_Hbond>
0.0000

> <Gold.Chemscore.DEClash>
0.2834

> <Gold.Chemscore.DEInternal>
2.2204

> <Gold.Chemscore.Rot>
2.2132

> <Gold.Chemscore.Internal.Correction>
   9.000000E+99

> <Gold.Chemscore.Hbonds>
donor molecule, donor type, donor heavy atom, donor atom, acceptor molecule, acceptor atom, score
      L1  H     5    27       P1  7948  0.97
      L1  H    10    32       P1  7948  1.00

> <Gold.Chemscore.Hbond.Weighted>
-6.6108

> <Gold.Chemscore.Metal.Weighted>
-0.0000

> <Gold.Chemscore.Lipo.Weighted>
-9.6566

> <Gold.Chemscore.Internal_Hbond.Weighted>
0.0000

> <Gold.Chemscore.DEClash.Weighted>
0.2834

> <Gold.Chemscore.DEInternal.Weighted>
2.2204

> <Gold.Chemscore.Rot.Weighted>
5.6658

> <Gold.Chemscore.Internal.Correction.Weighted>
   9.000000E+99

> <Gold.Protein.RotatedTorsions>
[ 6907 6896 6895 6894 ] final -175.41 input  -60.11 | X-H torsion
[ 7974 7965 7964 7962 ] final -111.22 input  175.53 | X-H torsion
[ 8008 7997 7996 7995 ] final  163.36 input   59.86 | X-H torsion
[ 10167 10162 10161 10158 ] final   73.83 input  -65.29 | X-H torsion
[ 10718 10713 10712 10709 ] final -126.63 input   66.30 | X-H torsion
[ 10763 10752 10751 10750 ] final  167.60 input  -60.55 | X-H torsion
[ 11005 11000 10999 10996 ] final    7.85 input  -57.11 | X-H torsion

> <Gold.Protein.ActiveResidues>
 VAL166  LYS551  ARG553  GLY616  TRP617  ASP618  TYR619  PRO620  LYS621  CYS622 
 ASP623  PHE694  ASN695  SER759  ASP760  ASP761  ALA762  ILE779  LEU786  VAL792 
 PHE793  MET794  SER795  GLU796  ALA797  LYS798  CYS799  TRP800  GLU811  SER814 

> <Gold.Protein.RotatedAtoms>
  151.5881  133.3370  159.3021 H   0  0  0  0  0  0  0  0  0  0  0  0  # atno 6907 bound_to 6896
  150.8275  134.7517  159.6837 H   0  0  0  0  0  0  0  0  0  0  0  0  # atno 6908 bound_to 6896
  152.4363  134.5686  159.9966 H   0  0  0  0  0  0  0  0  0  0  0  0  # atno 6909 bound_to 6896
  145.1587  140.8867  143.3603 H   0  0  0  0  0  0  0  0  0  0  0  0  # atno 7974 bound_to 7965
  156.1962  140.1725  156.7992 H   0  0  0  0  0  0  0  0  0  0  0  0  # atno 8008 bound_to 7997
  154.5533  140.0713  156.8734 H   0  0  0  0  0  0  0  0  0  0  0  0  # atno 8009 bound_to 7997
  155.2986  140.3360  155.4251 H   0  0  0  0  0  0  0  0  0  0  0  0  # atno 8010 bound_to 7997
  140.0203  144.5546  150.7587 H   0  0  0  0  0  0  0  0  0  0  0  0  # atno 10167 bound_to 10162
  156.1783  130.6715  151.0271 H   0  0  0  0  0  0  0  0  0  0  0  0  # atno 10718 bound_to 10713
  154.3563  135.2753  155.2344 H   0  0  0  0  0  0  0  0  0  0  0  0  # atno 10763 bound_to 10752
  154.4552  135.5921  153.6222 H   0  0  0  0  0  0  0  0  0  0  0  0  # atno 10764 bound_to 10752
  152.9846  135.6051  154.3779 H   0  0  0  0  0  0  0  0  0  0  0  0  # atno 10765 bound_to 10752
  140.5436  134.0351  155.7912 H   0  0  0  0  0  0  0  0  0  0  0  0  # atno 11005 bound_to 11000
  145.0354  139.3305  143.6003 LP  0  0  0  0  0  0  0  0  0  0  0  0  # atno 17320 bound_to 7965
  146.3485  139.9707  142.8706 LP  0  0  0  0  0  0  0  0  0  0  0  0  # atno 17321 bound_to 7965
  140.7345  143.2730  151.3829 LP  0  0  0  0  0  0  0  0  0  0  0  0  # atno 17342 bound_to 10162
  139.6144  144.1032  152.2331 LP  0  0  0  0  0  0  0  0  0  0  0  0  # atno 17343 bound_to 10162
  157.6851  131.0827  150.7265 LP  0  0  0  0  0  0  0  0  0  0  0  0  # atno 17370 bound_to 10713
  156.7323  130.4713  149.5497 LP  0  0  0  0  0  0  0  0  0  0  0  0  # atno 17371 bound_to 10713
  141.1213  133.9457  157.2724 LP  0  0  0  0  0  0  0  0  0  0  0  0  # atno 17394 bound_to 11000
  139.9491  135.0179  156.8941 LP  0  0  0  0  0  0  0  0  0  0  0  0  # atno 17395 bound_to 11000

$$$$
