AV-unprocessed.smi:1711|AV-procd|sdf|6900|dock3
  -GOLD-   22720 8103D 1   1.00000     0.00000
 Structure written by MMmdl.
 37 38  0  0  0  0  0  0  0  0  2 V2000
  146.8204  137.7165  153.9094 O   0  0  0  0  0  0  0  0  0  0  0  0
  145.8710  138.4118  153.5470 C   0  0  0  0  0  0  0  0  0  0  0  0
  144.6805  137.9072  153.1924 N   0  0  0  0  0  0  0  0  0  0  0  0
  144.3436  136.4884  153.1985 C   0  0  0  0  0  0  0  0  0  0  0  0
  144.2452  135.9233  151.7681 C   0  0  0  0  0  0  0  0  0  0  0  0
  144.3846  134.4456  151.7349 N   0  3  0  0  0  0  0  0  0  0  0  0
  143.8697  133.8601  150.4693 C   0  0  0  0  0  0  0  0  0  0  0  0
  143.8967  132.3228  150.5152 C   0  0  0  0  0  0  0  0  0  0  0  0
  145.3096  131.8063  150.8147 C   0  0  0  0  0  0  0  0  0  0  0  0
  145.8383  132.4485  152.1037 C   0  0  0  0  0  0  0  0  0  0  0  0
  145.7687  133.9832  152.0258 C   0  0  0  0  0  0  0  0  0  0  0  0
  145.8851  139.7513  153.4498 N   0  0  0  0  0  0  0  0  0  0  0  0
  146.9598  140.6250  153.7540 C   0  0  0  0  0  0  0  0  0  0  0  0
  148.3290  140.3440  153.4947 C   0  0  0  0  0  0  0  0  0  0  0  0
  149.1092  141.3434  153.8804 N   0  0  0  0  0  0  0  0  0  0  0  0
  148.2513  142.2602  154.3823 N   0  0  0  0  0  0  0  0  0  0  0  0
  146.9327  141.8659  154.3265 C   0  0  0  0  0  0  0  0  0  0  0  0
  148.5775  143.1410  154.7543 H   0  0  0  0  0  0  0  0  0  0  0  0
  143.9543  138.5500  152.9108 H   0  0  0  0  0  0  0  0  0  0  0  0
  145.0814  135.9497  153.7936 H   0  0  0  0  0  0  0  0  0  0  0  0
  143.3881  136.3698  153.7103 H   0  0  0  0  0  0  0  0  0  0  0  0
  143.2714  136.2039  151.3639 H   0  0  0  0  0  0  0  0  0  0  0  0
  144.9908  136.3745  151.1114 H   0  0  0  0  0  0  0  0  0  0  0  0
  142.8450  134.1922  150.2979 H   0  0  0  0  0  0  0  0  0  0  0  0
  144.4659  134.2232  149.6304 H   0  0  0  0  0  0  0  0  0  0  0  0
  143.2059  131.9668  151.2810 H   0  0  0  0  0  0  0  0  0  0  0  0
  143.5445  131.9147  149.5675 H   0  0  0  0  0  0  0  0  0  0  0  0
  145.3028  130.7199  150.9089 H   0  0  0  0  0  0  0  0  0  0  0  0
  145.9742  132.0448  149.9833 H   0  0  0  0  0  0  0  0  0  0  0  0
  145.2528  132.0980  152.9549 H   0  0  0  0  0  0  0  0  0  0  0  0
  146.8659  132.1306  152.2830 H   0  0  0  0  0  0  0  0  0  0  0  0
  146.4458  134.3491  151.2522 H   0  0  0  0  0  0  0  0  0  0  0  0
  146.1183  134.3988  152.9701 H   0  0  0  0  0  0  0  0  0  0  0  0
  145.0367  140.1950  153.1299 H   0  0  0  0  0  0  0  0  0  0  0  0
  148.7732  139.4667  153.0479 H   0  0  0  0  0  0  0  0  0  0  0  0
  146.1274  142.4886  154.6871 H   0  0  0  0  0  0  0  0  0  0  0  0
  143.7920  134.0863  152.4697 H   0  0  0  0  0  0  0  0  0  0  0  0
  1  2  2  0  0  0  0
  2  3  1  0  0  0  0
  2 12  1  0  0  0  0
  3  4  1  0  0  0  0
  3 19  1  0  0  0  0
  4  5  1  0  0  0  0
  4 20  1  0  0  0  0
  4 21  1  0  0  0  0
  5  6  1  0  0  0  0
  5 22  1  0  0  0  0
  5 23  1  0  0  0  0
  6 11  1  0  0  0  0
  6  7  1  0  0  0  0
  6 37  1  0  0  0  0
  7  8  1  0  0  0  0
  7 24  1  0  0  0  0
  7 25  1  0  0  0  0
  8  9  1  0  0  0  0
  8 26  1  0  0  0  0
  8 27  1  0  0  0  0
  9 10  1  0  0  0  0
  9 28  1  0  0  0  0
  9 29  1  0  0  0  0
 10 11  1  0  0  0  0
 10 30  1  0  0  0  0
 10 31  1  0  0  0  0
 11 32  1  0  0  0  0
 11 33  1  0  0  0  0
 12 13  1  0  0  0  0
 12 34  1  0  0  0  0
 13 17  2  0  0  0  0
 13 14  1  0  0  0  0
 14 15  2  0  0  0  0
 14 35  1  0  0  0  0
 15 16  1  0  0  0  0
 16 18  1  0  0  0  0
 16 17  1  0  0  0  0
 17 36  1  0  0  0  0
M  CHG  1   6   1
M  END
> <s_m_source_file>
AV-unprocessed.smi

> <i_m_source_file_index>
1711

> <i_lp_mmshare_version>
43012

> <i_f3d_flags>
0

> <s_epik_input>
W2NIXTFbbkhdbltjSF1jMVtOSF1DKD1PKVtOSF1bQ0gyXVtDSDJdTjJbQ0gyXVtDSDJdW0NIMl1bQ0gyXVtDSDJdMg==

> <s_epik_cmdline>
J2VwaWtfcHl0aG9uJywgJy1waCcsICc3LjAnLCAnLXRuJywgJzgnLCAnLW1hJywgJzIwMCcsICctbWV0YWxfYmluZGluZycsICctaW1hZScsICc8aW5maWxlLm1hZT4nLCAnLW9tYWUnLCAnPG91dGZpbGUubWFlPic=

> <r_lp_tautomer_probability>
0.5

> <r_epik_Ionization_Penalty>
0.00236021

> <r_epik_Ionization_Penalty_Charging>
0.00232067

> <r_epik_Ionization_Penalty_Neutral>
3.95492e-05

> <r_epik_State_Penalty>
0.00160128

> <r_epik_Charging_Adjusted_Penalty>
0.00392194

> <i_epik_Tot_Q>
1

> <i_epik_Tot_abs_Q>
1

> <r_epik_Metal_State_Penalty>
-0

> <b_epik_Metal_Only>
0

> <s_lp_Force_Field>
OPLS_2005

> <r_lp_Energy>
18.9048

> <b_lp_Chiralities_Consistent>
1

> <s_lp_Variant>
AV-unprocessed.smi:1711-1

> <Gold.Version>
5.8.1

> <Gold.Id.Protein>
6NUR|6NUR_protein|mol2

> <Gold.PLP.Fitness>
40.0744

> <Gold.PLP.PLP>
-28.4187

> <Gold.PLP.part.hbond>
-5.0000

> <Gold.PLP.part.metal>
0.0000

> <Gold.PLP.part.buried>
-1.1511

> <Gold.PLP.part.nonpolar>
-23.4617

> <Gold.PLP.part.repulsive>
1.1810

> <Gold.PLP.ligand.clash>
0.0000

> <Gold.PLP.ligand.torsion>
0.5506

> <Gold.PLP.Chemscore.Hbond>
3.6320

> <Gold.PLP.Chemscore.CHOScore>
0.6094

> <Gold.PLP.Chemscore.Metal>
0.0000

> <Gold.Chemscore.Hbonds>
donor molecule, donor type, donor heavy atom, donor atom, acceptor molecule, acceptor atom, score
      L1  H     3    19       P1 10175  0.85
      L1  H    12    34       P1 10175  1.00
      L1  H    16    18       P1  8028  1.00
      P1  H  8011  8017       L1    15  0.72
      L1  C    14    35       P1  7957  0.57

> <Gold.PLP.Chemscore.Internal.Correction>
0.0327

> <Gold.Rescore>
     Score         DG    S(hbond)    S(metal)    S(lipo)     H(rot)  DE(clash)    DE(int)     intcor
     17.35     -19.28       3.03        0.00      67.25       1.64       1.45       0.48       ----

> <Gold.Chemscore.Fitness>
17.3461

> <Gold.Chemscore.DG>
-19.2782

> <Gold.Chemscore.ZeroCoef>
-5.4800

> <Gold.Chemscore.Hbond>
3.0342

> <Gold.Chemscore.Metal>
0.0000

> <Gold.Chemscore.Lipo>
67.2490

> <Gold.Chemscore.Internal_Hbond>
0.0000

> <Gold.Chemscore.DEClash>
1.4483

> <Gold.Chemscore.DEInternal>
0.4838

> <Gold.Chemscore.Rot>
1.6423

> <Gold.Chemscore.Internal.Correction>
   9.000000E+99

> <Gold.Chemscore.Hbonds>
donor molecule, donor type, donor heavy atom, donor atom, acceptor molecule, acceptor atom, score
      L1  H     3    19       P1 10175  0.82
      L1  H    12    34       P1 10175  0.93
      L1  H    16    18       P1  8028  1.00
      P1  H  8011  8017       L1    15  0.12

> <Gold.Chemscore.Hbond.Weighted>
-10.1343

> <Gold.Chemscore.Metal.Weighted>
-0.0000

> <Gold.Chemscore.Lipo.Weighted>
-7.8681

> <Gold.Chemscore.Internal_Hbond.Weighted>
0.0000

> <Gold.Chemscore.DEClash.Weighted>
1.4483

> <Gold.Chemscore.DEInternal.Weighted>
0.4838

> <Gold.Chemscore.Rot.Weighted>
4.2043

> <Gold.Chemscore.Internal.Correction.Weighted>
   9.000000E+99

> <Gold.Protein.RotatedTorsions>
[ 6907 6896 6895 6894 ] final -118.02 input  -60.11 | X-H torsion
[ 7974 7965 7964 7962 ] final  109.37 input  175.53 | X-H torsion
[ 8008 7997 7996 7995 ] final  -27.20 input   59.86 | X-H torsion
[ 10167 10162 10161 10158 ] final  124.73 input  -65.29 | X-H torsion
[ 10718 10713 10712 10709 ] final -124.51 input   66.30 | X-H torsion
[ 10763 10752 10751 10750 ] final  -18.75 input  -60.55 | X-H torsion
[ 11005 11000 10999 10996 ] final   -2.18 input  -57.11 | X-H torsion

> <Gold.Protein.ActiveResidues>
 VAL166  LYS551  ARG553  GLY616  TRP617  ASP618  TYR619  PRO620  LYS621  CYS622 
 ASP623  PHE694  ASN695  SER759  ASP760  ASP761  ALA762  ILE779  LEU786  VAL792 
 PHE793  MET794  SER795  GLU796  ALA797  LYS798  CYS799  TRP800  GLU811  SER814 

> <Gold.Protein.RotatedAtoms>
  150.8185  133.8295  159.3149 H   0  0  0  0  0  0  0  0  0  0  0  0  # atno 6907 bound_to 6896
  151.6060  135.1042  160.0080 H   0  0  0  0  0  0  0  0  0  0  0  0  # atno 6908 bound_to 6896
  152.4275  133.7179  159.6573 H   0  0  0  0  0  0  0  0  0  0  0  0  # atno 6909 bound_to 6896
  145.2687  139.2675  143.3978 H   0  0  0  0  0  0  0  0  0  0  0  0  # atno 7974 bound_to 7965
  154.4388  140.1879  156.0895 H   0  0  0  0  0  0  0  0  0  0  0  0  # atno 8008 bound_to 7997
  156.0377  140.3323  155.7182 H   0  0  0  0  0  0  0  0  0  0  0  0  # atno 8009 bound_to 7997
  155.5746  140.0616  157.2789 H   0  0  0  0  0  0  0  0  0  0  0  0  # atno 8010 bound_to 7997
  139.5725  144.6946  151.3740 H   0  0  0  0  0  0  0  0  0  0  0  0  # atno 10167 bound_to 10162
  156.1594  130.6591  151.0027 H   0  0  0  0  0  0  0  0  0  0  0  0  # atno 10718 bound_to 10713
  153.5941  135.7001  153.5411 H   0  0  0  0  0  0  0  0  0  0  0  0  # atno 10763 bound_to 10752
  153.3153  135.4089  155.1370 H   0  0  0  0  0  0  0  0  0  0  0  0  # atno 10764 bound_to 10752
  154.8595  135.3682  154.5474 H   0  0  0  0  0  0  0  0  0  0  0  0  # atno 10765 bound_to 10752
  140.6555  133.9367  155.8405 H   0  0  0  0  0  0  0  0  0  0  0  0  # atno 11005 bound_to 11000
  146.3253  140.3123  142.8627 LP  0  0  0  0  0  0  0  0  0  0  0  0  # atno 17320 bound_to 7965
  144.9354  140.8021  143.5663 LP  0  0  0  0  0  0  0  0  0  0  0  0  # atno 17321 bound_to 7965
  140.7009  143.7633  150.7402 LP  0  0  0  0  0  0  0  0  0  0  0  0  # atno 17342 bound_to 10162
  140.1144  143.4670  152.2351 LP  0  0  0  0  0  0  0  0  0  0  0  0  # atno 17343 bound_to 10162
  157.6720  131.0859  150.7588 LP  0  0  0  0  0  0  0  0  0  0  0  0  # atno 17370 bound_to 10713
  156.7651  130.4811  149.5429 LP  0  0  0  0  0  0  0  0  0  0  0  0  # atno 17371 bound_to 10713
  141.0505  134.0492  157.3790 LP  0  0  0  0  0  0  0  0  0  0  0  0  # atno 17394 bound_to 11000
  139.9031  135.0171  156.7361 LP  0  0  0  0  0  0  0  0  0  0  0  0  # atno 17395 bound_to 11000

$$$$
