AV-unprocessed.smi:5|AV-procd|sdf|37|dock6
  -GOLD-   2262015153D 1   1.00000     0.00000
 Structure written by MMmdl.
 44 45  0  0  0  0  0  0  0  0  1 V2000
  143.8592  131.7928  150.7148 C   0  0  0  0  0  0  0  0  0  0  0  0
  144.4343  133.0980  151.2258 C   0  0  0  0  0  0  0  0  0  0  0  0
  143.7001  134.2223  151.3181 C   0  0  0  0  0  0  0  0  0  0  0  0
  144.2716  135.5385  151.8072 C   0  0  0  0  0  0  0  0  0  0  0  0
  145.8096  135.5061  151.8313 C   0  0  0  0  0  0  0  0  0  0  0  0
  146.2885  134.2473  152.4325 N   0  0  0  0  0  0  0  0  0  0  0  0
  147.0948  134.1477  153.5195 C   0  0  0  0  0  0  0  0  0  0  0  0
  147.4626  133.0707  153.9907 O   0  0  0  0  0  0  0  0  0  0  0  0
  147.4222  135.3217  154.0862 N   0  0  0  0  0  0  0  0  0  0  0  0
  148.2694  135.4865  155.2626 C   0  0  0  0  0  0  0  0  0  0  0  0
  149.2105  136.6767  155.1190 C   0  0  0  0  0  0  0  0  0  0  0  0
  148.7494  137.9072  154.7810 C   0  0  0  0  0  0  0  0  0  0  0  0
  149.5538  139.0286  154.6325 N   0  0  0  0  0  0  0  0  0  0  0  0
  148.9968  140.3204  154.2663 C   0  0  0  0  0  0  0  0  0  0  0  0
  149.3872  141.3975  155.2919 C   0  0  0  0  0  0  0  0  0  0  0  0
  147.4747  140.2433  154.0463 C   0  0  0  0  0  0  0  0  0  0  0  0
  150.9470  138.9097  154.8675 C   0  0  0  0  0  0  0  0  0  0  0  0
  151.7446  139.8435  154.7826 O   0  0  0  0  0  0  0  0  0  0  0  0
  151.4190  137.6462  155.2200 N   0  0  0  0  0  0  0  0  0  0  0  0
  150.6442  136.4938  155.3668 C   0  0  0  0  0  0  0  0  0  0  0  0
  151.1882  135.4375  155.6840 O   0  0  0  0  0  0  0  0  0  0  0  0
  145.8968  133.0547  151.6593 C   0  0  0  0  0  0  0  0  0  0  0  0
  152.4110  137.5562  155.3857 H   0  0  0  0  0  0  0  0  0  0  0  0
  144.4307  131.4394  149.8564 H   0  0  0  0  0  0  0  0  0  0  0  0
  142.8195  131.9083  150.4069 H   0  0  0  0  0  0  0  0  0  0  0  0
  143.9010  131.0302  151.4930 H   0  0  0  0  0  0  0  0  0  0  0  0
  142.6573  134.2200  151.0359 H   0  0  0  0  0  0  0  0  0  0  0  0
  143.9259  136.3443  151.1592 H   0  0  0  0  0  0  0  0  0  0  0  0
  143.8780  135.7359  152.8048 H   0  0  0  0  0  0  0  0  0  0  0  0
  146.1844  135.5447  150.8072 H   0  0  0  0  0  0  0  0  0  0  0  0
  146.1899  136.4105  152.3061 H   0  0  0  0  0  0  0  0  0  0  0  0
  147.0620  136.1645  153.6625 H   0  0  0  0  0  0  0  0  0  0  0  0
  147.6225  135.6589  156.1230 H   0  0  0  0  0  0  0  0  0  0  0  0
  148.8084  134.5609  155.4715 H   0  0  0  0  0  0  0  0  0  0  0  0
  147.6871  138.0131  154.6160 H   0  0  0  0  0  0  0  0  0  0  0  0
  149.4156  140.6256  153.3077 H   0  0  0  0  0  0  0  0  0  0  0  0
  149.0312  142.3796  154.9798 H   0  0  0  0  0  0  0  0  0  0  0  0
  150.4705  141.4605  155.4014 H   0  0  0  0  0  0  0  0  0  0  0  0
  148.9640  141.1917  156.2754 H   0  0  0  0  0  0  0  0  0  0  0  0
  147.0933  141.1845  153.6494 H   0  0  0  0  0  0  0  0  0  0  0  0
  146.9336  140.0412  154.9706 H   0  0  0  0  0  0  0  0  0  0  0  0
  147.2199  139.4605  153.3312 H   0  0  0  0  0  0  0  0  0  0  0  0
  146.0340  132.1405  152.2393 H   0  0  0  0  0  0  0  0  0  0  0  0
  146.5318  132.9667  150.7769 H   0  0  0  0  0  0  0  0  0  0  0  0
  1  2  1  0  0  0  0
  1 24  1  0  0  0  0
  1 25  1  0  0  0  0
  1 26  1  0  0  0  0
  2 22  1  0  0  0  0
  2  3  2  0  0  0  0
  3  4  1  0  0  0  0
  3 27  1  0  0  0  0
  4  5  1  0  0  0  0
  4 28  1  0  0  0  0
  4 29  1  0  0  0  0
  5  6  1  0  0  0  0
  5 30  1  0  0  0  0
  5 31  1  0  0  0  0
  6  7  1  0  0  0  0
  6 22  1  0  0  0  0
  7  8  2  0  0  0  0
  7  9  1  0  0  0  0
  9 10  1  0  0  0  0
  9 32  1  0  0  0  0
 10 11  1  0  0  0  0
 10 33  1  0  0  0  0
 10 34  1  0  0  0  0
 11 20  1  0  0  0  0
 11 12  2  0  0  0  0
 12 13  1  0  0  0  0
 12 35  1  0  0  0  0
 13 14  1  0  0  0  0
 13 17  1  0  0  0  0
 14 15  1  0  0  0  0
 14 16  1  0  0  0  0
 14 36  1  0  0  0  0
 15 37  1  0  0  0  0
 15 38  1  0  0  0  0
 15 39  1  0  0  0  0
 16 40  1  0  0  0  0
 16 41  1  0  0  0  0
 16 42  1  0  0  0  0
 17 18  2  0  0  0  0
 17 19  1  0  0  0  0
 19 23  1  0  0  0  0
 19 20  1  0  0  0  0
 20 21  2  0  0  0  0
 22 43  1  0  0  0  0
 22 44  1  0  0  0  0
M  END
> <s_m_source_file>
AV-unprocessed.smi

> <i_m_source_file_index>
5

> <i_lp_mmshare_version>
43012

> <i_f3d_flags>
0

> <s_epik_input>
W0NIM11DMT1bQ0hdW0NIMl1bQ0gyXU4oW0NIMl0xKUMoPU8pW05IXVtDSDJdYzJbY0hdbihbQ0hdKFtDSDNdKVtDSDNdKWMoPU8pW25IXWMyPU8=

> <s_epik_cmdline>
J2VwaWtfcHl0aG9uJywgJy1waCcsICc3LjAnLCAnLXRuJywgJzgnLCAnLW1hJywgJzIwMCcsICctbWV0YWxfYmluZGluZycsICctaW1hZScsICc8aW5maWxlLm1hZT4nLCAnLW9tYWUnLCAnPG91dGZpbGUubWFlPic=

> <r_lp_tautomer_probability>
0.999537

> <r_epik_Ionization_Penalty>
0.000965624

> <r_epik_Ionization_Penalty_Charging>
0.000915459

> <r_epik_Ionization_Penalty_Neutral>
5.01649e-05

> <r_epik_State_Penalty>
0.000593189

> <r_epik_Charging_Adjusted_Penalty>
0.00150865

> <i_epik_Tot_Q>
0

> <i_epik_Tot_abs_Q>
0

> <r_epik_Metal_State_Penalty>
0.281504

> <b_epik_Metal_Only>
0

> <s_lp_Force_Field>
OPLS_2005

> <r_lp_Energy>
30.7874

> <b_lp_Chiralities_Consistent>
1

> <s_lp_Variant>
AV-unprocessed.smi:5-1

> <Gold.Version>
5.8.1

> <Gold.Id.Protein>
6NUR|6NUR_protein|mol2

> <Gold.PLP.Fitness>
39.5910

> <Gold.PLP.PLP>
-34.0202

> <Gold.PLP.part.hbond>
-3.0000

> <Gold.PLP.part.metal>
0.0000

> <Gold.PLP.part.buried>
-2.1143

> <Gold.PLP.part.nonpolar>
-29.0805

> <Gold.PLP.part.repulsive>
0.3149

> <Gold.PLP.ligand.clash>
0.0000

> <Gold.PLP.ligand.torsion>
0.2455

> <Gold.PLP.Chemscore.Hbond>
2.0000

> <Gold.PLP.Chemscore.CHOScore>
0.0000

> <Gold.PLP.Chemscore.Metal>
0.0000

> <Gold.Chemscore.Hbonds>
donor molecule, donor type, donor heavy atom, donor atom, acceptor molecule, acceptor atom, score
      P1  H  7989  7998       L1    18  1.00
      P1  H 10752 10764       L1    21  0.99

> <Gold.PLP.Chemscore.Internal.Correction>
0.0617

> <Gold.Rescore>
     Score         DG    S(hbond)    S(metal)    S(lipo)     H(rot)  DE(clash)    DE(int)     intcor
     13.98     -15.54       1.96        0.00      62.51       1.48       0.12       1.44       ----

> <Gold.Chemscore.Fitness>
13.9800

> <Gold.Chemscore.DG>
-15.5386

> <Gold.Chemscore.ZeroCoef>
-5.4800

> <Gold.Chemscore.Hbond>
1.9597

> <Gold.Chemscore.Metal>
0.0000

> <Gold.Chemscore.Lipo>
62.5107

> <Gold.Chemscore.Internal_Hbond>
0.0000

> <Gold.Chemscore.DEClash>
0.1232

> <Gold.Chemscore.DEInternal>
1.4354

> <Gold.Chemscore.Rot>
1.4846

> <Gold.Chemscore.Internal.Correction>
   9.000000E+99

> <Gold.Chemscore.Hbonds>
donor molecule, donor type, donor heavy atom, donor atom, acceptor molecule, acceptor atom, score
      P1  H  7989  7998       L1    18  0.94
      P1  H 10752 10764       L1    21  0.31

> <Gold.Chemscore.Hbond.Weighted>
-6.5453

> <Gold.Chemscore.Metal.Weighted>
-0.0000

> <Gold.Chemscore.Lipo.Weighted>
-7.3138

> <Gold.Chemscore.Internal_Hbond.Weighted>
0.0000

> <Gold.Chemscore.DEClash.Weighted>
0.1232

> <Gold.Chemscore.DEInternal.Weighted>
1.4354

> <Gold.Chemscore.Rot.Weighted>
3.8005

> <Gold.Chemscore.Internal.Correction.Weighted>
   9.000000E+99

> <Gold.Protein.RotatedTorsions>
[ 6907 6896 6895 6894 ] final -129.51 input  -60.11 | X-H torsion
[ 7974 7965 7964 7962 ] final  -11.50 input  175.53 | X-H torsion
[ 8008 7997 7996 7995 ] final   16.43 input   59.86 | X-H torsion
[ 10167 10162 10161 10158 ] final  178.23 input  -65.29 | X-H torsion
[ 10718 10713 10712 10709 ] final -169.89 input   66.30 | X-H torsion
[ 10763 10752 10751 10750 ] final  -56.90 input  -60.55 | X-H torsion
[ 11005 11000 10999 10996 ] final -137.35 input  -57.11 | X-H torsion

> <Gold.Protein.ActiveResidues>
 VAL166  LYS551  ARG553  GLY616  TRP617  ASP618  TYR619  PRO620  LYS621  CYS622 
 ASP623  PHE694  ASN695  SER759  ASP760  ASP761  ALA762  ILE779  LEU786  VAL792 
 PHE793  MET794  SER795  GLU796  ALA797  LYS798  CYS799  TRP800  GLU811  SER814 

> <Gold.Protein.RotatedAtoms>
  150.9295  133.6783  159.2813 H   0  0  0  0  0  0  0  0  0  0  0  0  # atno 6907 bound_to 6896
  151.4210  135.0996  159.9623 H   0  0  0  0  0  0  0  0  0  0  0  0  # atno 6908 bound_to 6896
  152.5019  133.8747  159.7371 H   0  0  0  0  0  0  0  0  0  0  0  0  # atno 6909 bound_to 6896
  146.2185  140.2920  142.8369 H   0  0  0  0  0  0  0  0  0  0  0  0  # atno 7974 bound_to 7965
  154.8768  140.2967  155.5448 H   0  0  0  0  0  0  0  0  0  0  0  0  # atno 8008 bound_to 7997
  156.3022  140.2450  156.3698 H   0  0  0  0  0  0  0  0  0  0  0  0  # atno 8009 bound_to 7997
  154.8759  140.0399  157.1742 H   0  0  0  0  0  0  0  0  0  0  0  0  # atno 8010 bound_to 7997
  139.5285  144.2705  152.0632 H   0  0  0  0  0  0  0  0  0  0  0  0  # atno 10167 bound_to 10162
  156.7181  130.9259  151.3095 H   0  0  0  0  0  0  0  0  0  0  0  0  # atno 10718 bound_to 10713
  154.2139  135.6389  153.5124 H   0  0  0  0  0  0  0  0  0  0  0  0  # atno 10763 bound_to 10752
  152.9983  135.5480  154.6186 H   0  0  0  0  0  0  0  0  0  0  0  0  # atno 10764 bound_to 10752
  154.5629  135.2910  155.0875 H   0  0  0  0  0  0  0  0  0  0  0  0  # atno 10765 bound_to 10752
  140.8719  134.2040  157.4645 H   0  0  0  0  0  0  0  0  0  0  0  0  # atno 11005 bound_to 11000
  144.9120  140.7768  143.5802 LP  0  0  0  0  0  0  0  0  0  0  0  0  # atno 17320 bound_to 7965
  145.2851  139.1904  143.4770 LP  0  0  0  0  0  0  0  0  0  0  0  0  # atno 17321 bound_to 7965
  140.2165  144.4510  150.6362 LP  0  0  0  0  0  0  0  0  0  0  0  0  # atno 17342 bound_to 10162
  140.6447  143.2211  151.6213 LP  0  0  0  0  0  0  0  0  0  0  0  0  # atno 17343 bound_to 10162
  157.6909  130.9232  150.0511 LP  0  0  0  0  0  0  0  0  0  0  0  0  # atno 17370 bound_to 10713
  156.1613  130.3644  149.9295 LP  0  0  0  0  0  0  0  0  0  0  0  0  # atno 17371 bound_to 10713
  139.8713  134.9778  156.4974 LP  0  0  0  0  0  0  0  0  0  0  0  0  # atno 17394 bound_to 11000
  140.8563  133.8094  155.9219 LP  0  0  0  0  0  0  0  0  0  0  0  0  # atno 17395 bound_to 11000

$$$$
