AV-unprocessed.smi:3112|AV-procd|sdf|11843|dock9
  -GOLD-   2272017223D 1   1.00000     0.00000
 Structure written by MMmdl.
 37 37  0  0  0  0  0  0  0  0  2 V2000
  148.0276  141.1269  153.7633 C   0  0  0  0  0  0  0  0  0  0  0  0
  146.8409  140.1535  153.7648 C   0  0  0  0  0  0  0  0  0  0  0  0
  147.1093  138.8579  152.9778 C   0  0  1  0  0  0  0  0  0  0  0  0
  148.2456  138.2175  153.5252 O   0  0  0  0  0  0  0  0  0  0  0  0
  145.9230  137.8828  153.0543 C   0  0  0  0  0  0  0  0  0  0  0  0
  146.3714  136.4826  152.9037 N   0  3  0  0  0  0  0  0  0  0  0  0
  145.5485  135.6537  151.9946 C   0  0  1  0  0  0  0  0  0  0  0  0
  145.6975  136.1989  150.5624 C   0  0  0  0  0  0  0  0  0  0  0  0
  145.9402  134.1568  152.1211 C   0  0  1  0  0  0  0  0  0  0  0  0
  145.6884  133.5814  153.5269 C   0  0  0  0  0  0  0  0  0  0  0  0
  145.2657  133.3334  151.1252 N   0  0  0  0  0  0  0  0  0  0  0  0
  145.8175  132.4687  150.2004 C   0  0  0  0  0  0  0  0  0  0  0  0
  144.7893  131.9182  149.4909 C   0  0  0  0  0  0  0  0  0  0  0  0
  143.6294  132.5123  150.0615 C   0  0  0  0  0  0  0  0  0  0  0  0
  143.9175  133.3558  151.0394 N   0  0  0  0  0  0  0  0  0  0  0  0
  147.7799  142.0381  154.3081 H   0  0  0  0  0  0  0  0  0  0  0  0
  148.3028  141.4122  152.7474 H   0  0  0  0  0  0  0  0  0  0  0  0
  148.9051  140.6883  154.2388 H   0  0  0  0  0  0  0  0  0  0  0  0
  146.5639  139.9157  154.7927 H   0  0  0  0  0  0  0  0  0  0  0  0
  145.9807  140.6646  153.3307 H   0  0  0  0  0  0  0  0  0  0  0  0
  147.3122  139.1051  151.9349 H   0  0  0  0  0  0  0  0  0  0  0  0
  148.4981  137.5094  152.9514 H   0  0  0  0  0  0  0  0  0  0  0  0
  145.3884  138.0099  153.9968 H   0  0  0  0  0  0  0  0  0  0  0  0
  145.2127  138.0998  152.2553 H   0  0  0  0  0  0  0  0  0  0  0  0
  147.3176  136.4963  152.5512 H   0  0  0  0  0  0  0  0  0  0  0  0
  144.4968  135.7617  152.2663 H   0  0  0  0  0  0  0  0  0  0  0  0
  145.0346  135.6907  149.8618 H   0  0  0  0  0  0  0  0  0  0  0  0
  146.7188  136.0819  150.1984 H   0  0  0  0  0  0  0  0  0  0  0  0
  145.4503  137.2603  150.5212 H   0  0  0  0  0  0  0  0  0  0  0  0
  147.0125  134.0783  151.9299 H   0  0  0  0  0  0  0  0  0  0  0  0
  146.2978  134.0817  154.2794 H   0  0  0  0  0  0  0  0  0  0  0  0
  145.9405  132.5211  153.5654 H   0  0  0  0  0  0  0  0  0  0  0  0
  144.6435  133.6850  153.8209 H   0  0  0  0  0  0  0  0  0  0  0  0
  146.8845  132.3190  150.1244 H   0  0  0  0  0  0  0  0  0  0  0  0
  144.8548  131.2005  148.6865 H   0  0  0  0  0  0  0  0  0  0  0  0
  142.5941  132.3563  149.7969 H   0  0  0  0  0  0  0  0  0  0  0  0
  146.3776  136.0476  153.8157 H   0  0  0  0  0  0  0  0  0  0  0  0
  1  2  1  0  0  0  0
  1 16  1  0  0  0  0
  1 17  1  0  0  0  0
  1 18  1  0  0  0  0
  2  3  1  0  0  0  0
  2 19  1  0  0  0  0
  2 20  1  0  0  0  0
  3  4  1  0  0  0  0
  3  5  1  0  0  0  0
  3 21  1  0  0  0  0
  4 22  1  0  0  0  0
  5  6  1  0  0  0  0
  5 23  1  0  0  0  0
  5 24  1  0  0  0  0
  6  7  1  0  0  0  0
  6 25  1  0  0  0  0
  6 37  1  0  0  0  0
  7  8  1  0  0  0  0
  7  9  1  0  0  0  0
  7 26  1  0  0  0  0
  8 27  1  0  0  0  0
  8 28  1  0  0  0  0
  8 29  1  0  0  0  0
  9 10  1  0  0  0  0
  9 11  1  0  0  0  0
  9 30  1  0  0  0  0
 10 31  1  0  0  0  0
 10 32  1  0  0  0  0
 10 33  1  0  0  0  0
 11 15  1  0  0  0  0
 11 12  1  0  0  0  0
 12 13  2  0  0  0  0
 12 34  1  0  0  0  0
 13 14  1  0  0  0  0
 13 35  1  0  0  0  0
 14 15  2  0  0  0  0
 14 36  1  0  0  0  0
M  CHG  1   6   1
M  END
> <s_m_source_file>
AV-unprocessed.smi

> <i_m_source_file_index>
3112

> <i_lp_mmshare_version>
43012

> <i_f3d_flags>
0

> <s_epik_input>
W0NIM11bQ0gyXVtDQEhdKFtPSF0pW0NIMl1bTkhdW0NASF0oW0NIM10pW0NASF0oW0NIM10pbjFbY0hdW2NIXVtjSF1uMQ==

> <s_epik_cmdline>
J2VwaWtfcHl0aG9uJywgJy1waCcsICc3LjAnLCAnLXRuJywgJzgnLCAnLW1hJywgJzIwMCcsICctbWV0YWxfYmluZGluZycsICctaW1hZScsICc8aW5maWxlLm1hZT4nLCAnLW9tYWUnLCAnPG91dGZpbGUubWFlPic=

> <r_lp_tautomer_probability>
1

> <r_epik_Ionization_Penalty>
0.0154842

> <r_epik_Ionization_Penalty_Charging>
0.0154724

> <r_epik_Ionization_Penalty_Neutral>
1.17979e-05

> <r_epik_State_Penalty>
0.0121607

> <r_epik_Charging_Adjusted_Penalty>
0.0276331

> <i_epik_Tot_Q>
1

> <i_epik_Tot_abs_Q>
1

> <r_epik_Metal_State_Penalty>
0.0121863

> <b_epik_Metal_Only>
0

> <s_lp_Force_Field>
OPLS_2005

> <r_lp_Energy>
13.9739

> <b_lp_Chiralities_Consistent>
1

> <s_lp_Variant>
AV-unprocessed.smi:3112-8

> <Gold.Version>
5.8.1

> <Gold.Id.Protein>
6NUR|6NUR_protein|mol2

> <Gold.PLP.Fitness>
41.1468

> <Gold.PLP.PLP>
-27.1778

> <Gold.PLP.part.hbond>
-2.1501

> <Gold.PLP.part.metal>
0.0000

> <Gold.PLP.part.buried>
-2.7615

> <Gold.PLP.part.nonpolar>
-24.5371

> <Gold.PLP.part.repulsive>
0.1866

> <Gold.PLP.ligand.clash>
0.0000

> <Gold.PLP.ligand.torsion>
0.8671

> <Gold.PLP.Chemscore.Hbond>
3.0000

> <Gold.PLP.Chemscore.CHOScore>
2.1952

> <Gold.PLP.Chemscore.Metal>
0.0000

> <Gold.Chemscore.Hbonds>
donor molecule, donor type, donor heavy atom, donor atom, acceptor molecule, acceptor atom, score
      L1  H     4    22       P1  7948  1.00
      L1  H     6    25       P1  7948  2.00
      L1  C    12    34       P1 10747  0.96
      L1  C    14    36       P1 10186  0.64
      L1  C    14    36       P1 10952  0.62

> <Gold.PLP.Chemscore.Internal.Correction>
0.1176

> <Gold.Rescore>
     Score         DG    S(hbond)    S(metal)    S(lipo)     H(rot)  DE(clash)    DE(int)     intcor
     14.76     -15.49       2.00        0.00      81.22       2.41       0.11       0.62       ----

> <Gold.Chemscore.Fitness>
14.7557

> <Gold.Chemscore.DG>
-15.4877

> <Gold.Chemscore.ZeroCoef>
-5.4800

> <Gold.Chemscore.Hbond>
1.9974

> <Gold.Chemscore.Metal>
0.0000

> <Gold.Chemscore.Lipo>
81.2235

> <Gold.Chemscore.Internal_Hbond>
0.0000

> <Gold.Chemscore.DEClash>
0.1086

> <Gold.Chemscore.DEInternal>
0.6234

> <Gold.Chemscore.Rot>
2.4089

> <Gold.Chemscore.Internal.Correction>
   9.000000E+99

> <Gold.Chemscore.Hbonds>
donor molecule, donor type, donor heavy atom, donor atom, acceptor molecule, acceptor atom, score
      L1  H     4    22       P1  7948  1.00
      L1  H     6    25       P1  7948  1.00

> <Gold.Chemscore.Hbond.Weighted>
-6.6713

> <Gold.Chemscore.Metal.Weighted>
-0.0000

> <Gold.Chemscore.Lipo.Weighted>
-9.5031

> <Gold.Chemscore.Internal_Hbond.Weighted>
0.0000

> <Gold.Chemscore.DEClash.Weighted>
0.1086

> <Gold.Chemscore.DEInternal.Weighted>
0.6234

> <Gold.Chemscore.Rot.Weighted>
6.1667

> <Gold.Chemscore.Internal.Correction.Weighted>
   9.000000E+99

> <Gold.Protein.RotatedTorsions>
[ 6907 6896 6895 6894 ] final   82.19 input  -60.11 | X-H torsion
[ 7974 7965 7964 7962 ] final   12.72 input  175.53 | X-H torsion
[ 8008 7997 7996 7995 ] final  -11.60 input   59.86 | X-H torsion
[ 10167 10162 10161 10158 ] final  -47.13 input  -65.29 | X-H torsion
[ 10718 10713 10712 10709 ] final -149.83 input   66.30 | X-H torsion
[ 10763 10752 10751 10750 ] final  136.54 input  -60.55 | X-H torsion
[ 11005 11000 10999 10996 ] final -109.14 input  -57.11 | X-H torsion

> <Gold.Protein.ActiveResidues>
 VAL166  LYS551  ARG553  GLY616  TRP617  ASP618  TYR619  PRO620  LYS621  CYS622 
 ASP623  PHE694  ASN695  SER759  ASP760  ASP761  ALA762  ILE779  LEU786  VAL792 
 PHE793  MET794  SER795  GLU796  ALA797  LYS798  CYS799  TRP800  GLU811  SER814 

> <Gold.Protein.RotatedAtoms>
  152.5292  134.3087  159.9105 H   0  0  0  0  0  0  0  0  0  0  0  0  # atno 6907 bound_to 6896
  151.3037  133.4104  159.2649 H   0  0  0  0  0  0  0  0  0  0  0  0  # atno 6908 bound_to 6896
  151.0097  134.9403  159.8057 H   0  0  0  0  0  0  0  0  0  0  0  0  # atno 6909 bound_to 6896
  146.2345  139.9294  142.8498 H   0  0  0  0  0  0  0  0  0  0  0  0  # atno 7974 bound_to 7965
  154.5450  140.2298  155.8578 H   0  0  0  0  0  0  0  0  0  0  0  0  # atno 8008 bound_to 7997
  156.1894  140.3081  155.9264 H   0  0  0  0  0  0  0  0  0  0  0  0  # atno 8009 bound_to 7997
  155.3182  140.0439  157.3028 H   0  0  0  0  0  0  0  0  0  0  0  0  # atno 8010 bound_to 7997
  140.6788  143.2799  151.3882 H   0  0  0  0  0  0  0  0  0  0  0  0  # atno 10167 bound_to 10162
  156.4382  130.8109  151.2338 H   0  0  0  0  0  0  0  0  0  0  0  0  # atno 10718 bound_to 10713
  153.8582  135.3070  155.3436 H   0  0  0  0  0  0  0  0  0  0  0  0  # atno 10763 bound_to 10752
  154.7861  135.4809  153.9951 H   0  0  0  0  0  0  0  0  0  0  0  0  # atno 10764 bound_to 10752
  153.1477  135.6837  153.9023 H   0  0  0  0  0  0  0  0  0  0  0  0  # atno 10765 bound_to 10752
  141.0864  133.9132  157.2176 H   0  0  0  0  0  0  0  0  0  0  0  0  # atno 11005 bound_to 11000
  145.2059  140.9874  143.4129 LP  0  0  0  0  0  0  0  0  0  0  0  0  # atno 17320 bound_to 7965
  144.9733  139.3857  143.6298 LP  0  0  0  0  0  0  0  0  0  0  0  0  # atno 17321 bound_to 7965
  139.6097  144.1123  152.2286 LP  0  0  0  0  0  0  0  0  0  0  0  0  # atno 17342 bound_to 10162
  140.0534  144.5915  150.7319 LP  0  0  0  0  0  0  0  0  0  0  0  0  # atno 17343 bound_to 10162
  157.7507  131.0176  150.3594 LP  0  0  0  0  0  0  0  0  0  0  0  0  # atno 17370 bound_to 10713
  156.3946  130.3904  149.7004 LP  0  0  0  0  0  0  0  0  0  0  0  0  # atno 17371 bound_to 10713
  139.9683  135.0136  156.9444 LP  0  0  0  0  0  0  0  0  0  0  0  0  # atno 17394 bound_to 11000
  140.5354  134.0772  155.7327 LP  0  0  0  0  0  0  0  0  0  0  0  0  # atno 17395 bound_to 11000

$$$$
