AV-unprocessed.smi:1251|AV-procd|sdf|5261|dock7
  -GOLD-   22720 4373D 1   1.00000     0.00000
 Structure written by MMmdl.
 38 39  0  0  0  0  0  0  0  0  2 V2000
  153.1012  142.5718  160.9085 C   0  0  0  0  0  0  0  0  0  0  0  0
  153.0652  141.9884  159.4917 C   0  0  0  0  0  0  0  0  0  0  0  0
  151.8750  141.0438  159.2735 C   0  0  0  0  0  0  0  0  0  0  0  0
  151.7563  140.5899  157.8570 C   0  0  0  0  0  0  0  0  0  0  0  0
  152.7143  139.8985  157.2344 N   0  0  0  0  0  0  0  0  0  0  0  0
  152.3819  139.6146  155.9178 N   0  0  0  0  0  0  0  0  0  0  0  0
  151.1916  140.1143  155.5566 C   0  0  0  0  0  0  0  0  0  0  0  0
  150.6830  139.9474  154.3247 N   0  5  0  0  0  0  0  0  0  0  0  0
  149.4666  140.4546  154.0206 C   0  0  0  0  0  0  0  0  0  0  0  0
  149.1857  141.6478  153.8857 O   0  0  0  0  0  0  0  0  0  0  0  0
  148.5185  139.5197  153.8629 N   0  0  0  0  0  0  0  0  0  0  0  0
  147.1129  139.7566  153.5409 C   0  0  1  0  0  0  0  0  0  0  0  0
  146.4094  138.4117  153.2877 C   0  0  0  0  0  0  0  0  0  0  0  0
  146.4635  140.5493  154.6911 C   0  0  2  0  0  0  0  0  0  0  0  0
  146.5232  142.0692  154.5405 C   0  0  0  0  0  0  0  0  0  0  0  0
  146.3861  142.5673  155.9693 C   0  0  0  0  0  0  0  0  0  0  0  0
  146.7701  141.3553  156.8231 C   0  0  0  0  0  0  0  0  0  0  0  0
  147.1808  140.3548  155.9010 O   0  0  0  0  0  0  0  0  0  0  0  0
  150.3689  140.9788  156.8542 S   0  0  0  0  0  0  0  0  0  0  0  0
  153.9607  143.2304  161.0351 H   0  0  0  0  0  0  0  0  0  0  0  0
  153.1726  141.7825  161.6573 H   0  0  0  0  0  0  0  0  0  0  0  0
  152.2027  143.1530  161.1177 H   0  0  0  0  0  0  0  0  0  0  0  0
  153.0221  142.8035  158.7685 H   0  0  0  0  0  0  0  0  0  0  0  0
  153.9963  141.4535  159.2995 H   0  0  0  0  0  0  0  0  0  0  0  0
  151.9678  140.1671  159.9159 H   0  0  0  0  0  0  0  0  0  0  0  0
  150.9464  141.5402  159.5566 H   0  0  0  0  0  0  0  0  0  0  0  0
  148.7974  138.5577  153.9879 H   0  0  0  0  0  0  0  0  0  0  0  0
  147.0483  140.3598  152.6336 H   0  0  0  0  0  0  0  0  0  0  0  0
  145.3695  138.5556  152.9952 H   0  0  0  0  0  0  0  0  0  0  0  0
  146.4222  137.7837  154.1791 H   0  0  0  0  0  0  0  0  0  0  0  0
  146.8961  137.8573  152.4847 H   0  0  0  0  0  0  0  0  0  0  0  0
  145.4290  140.2321  154.8383 H   0  0  0  0  0  0  0  0  0  0  0  0
  147.4925  142.3696  154.1400 H   0  0  0  0  0  0  0  0  0  0  0  0
  145.7483  142.4610  153.8811 H   0  0  0  0  0  0  0  0  0  0  0  0
  147.0336  143.4244  156.1563 H   0  0  0  0  0  0  0  0  0  0  0  0
  145.3594  142.8684  156.1807 H   0  0  0  0  0  0  0  0  0  0  0  0
  147.5703  141.5792  157.5288 H   0  0  0  0  0  0  0  0  0  0  0  0
  145.9093  140.9951  157.3877 H   0  0  0  0  0  0  0  0  0  0  0  0
  1  2  1  0  0  0  0
  1 20  1  0  0  0  0
  1 21  1  0  0  0  0
  1 22  1  0  0  0  0
  2  3  1  0  0  0  0
  2 23  1  0  0  0  0
  2 24  1  0  0  0  0
  3  4  1  0  0  0  0
  3 25  1  0  0  0  0
  3 26  1  0  0  0  0
  4 19  1  0  0  0  0
  4  5  2  0  0  0  0
  5  6  1  0  0  0  0
  6  7  2  0  0  0  0
  7  8  1  0  0  0  0
  7 19  1  0  0  0  0
  8  9  1  0  0  0  0
  9 10  2  0  0  0  0
  9 11  1  0  0  0  0
 11 12  1  0  0  0  0
 11 27  1  0  0  0  0
 12 13  1  0  0  0  0
 12 14  1  0  0  0  0
 12 28  1  0  0  0  0
 13 29  1  0  0  0  0
 13 30  1  0  0  0  0
 13 31  1  0  0  0  0
 14 18  1  0  0  0  0
 14 15  1  0  0  0  0
 14 32  1  0  0  0  0
 15 16  1  0  0  0  0
 15 33  1  0  0  0  0
 15 34  1  0  0  0  0
 16 17  1  0  0  0  0
 16 35  1  0  0  0  0
 16 36  1  0  0  0  0
 17 18  1  0  0  0  0
 17 37  1  0  0  0  0
 17 38  1  0  0  0  0
M  CHG  1   8  -1
M  END
> <s_m_source_file>
AV-unprocessed.smi

> <i_m_source_file_index>
1251

> <i_lp_mmshare_version>
43012

> <i_f3d_flags>
0

> <s_epik_input>
W0NIM11bQ0gyXVtDSDJdYzFubmMoczEpW05IXUMoPU8pW05IXVtDQEhdKFtDSDNdKVtDQEBIXTJbQ0gyXVtDSDJdW0NIMl1PMg==

> <s_epik_cmdline>
J2VwaWtfcHl0aG9uJywgJy1waCcsICc3LjAnLCAnLXRuJywgJzgnLCAnLW1hJywgJzIwMCcsICctbWV0YWxfYmluZGluZycsICctaW1hZScsICc8aW5maWxlLm1hZT4nLCAnLW9tYWUnLCAnPG91dGZpbGUubWFlPic=

> <r_lp_tautomer_probability>
1

> <r_epik_Ionization_Penalty>
4.22551

> <r_epik_Ionization_Penalty_Charging>
4.21437

> <r_epik_Ionization_Penalty_Neutral>
0.0111434

> <r_epik_State_Penalty>
4.21389

> <r_epik_Charging_Adjusted_Penalty>
8.42826

> <i_epik_Tot_Q>
-1

> <i_epik_Tot_abs_Q>
1

> <r_epik_Metal_State_Penalty>
0.69377

> <b_epik_Metal_Only>
1

> <s_lp_Force_Field>
OPLS_2005

> <r_lp_Energy>
12.2708

> <b_lp_Chiralities_Consistent>
1

> <s_lp_Variant>
AV-unprocessed.smi:1251-6

> <Gold.Version>
5.8.1

> <Gold.Id.Protein>
6NUR|6NUR_protein|mol2

> <Gold.PLP.Fitness>
36.8338

> <Gold.PLP.PLP>
-32.6952

> <Gold.PLP.part.hbond>
-5.9169

> <Gold.PLP.part.metal>
0.0000

> <Gold.PLP.part.buried>
0.1733

> <Gold.PLP.part.nonpolar>
-25.8095

> <Gold.PLP.part.repulsive>
0.4148

> <Gold.PLP.ligand.clash>
0.0000

> <Gold.PLP.ligand.torsion>
1.6207

> <Gold.PLP.Chemscore.Hbond>
2.4448

> <Gold.PLP.Chemscore.CHOScore>
0.0000

> <Gold.PLP.Chemscore.Metal>
0.0000

> <Gold.Chemscore.Hbonds>
donor molecule, donor type, donor heavy atom, donor atom, acceptor molecule, acceptor atom, score
      P1  H  7989  7998       L1     8  1.00
      P1  H  7997  8008       L1     5  0.74
      P1  H  8011  8017       L1    10  0.64

> <Gold.PLP.Chemscore.Internal.Correction>
0.0456

> <Gold.Rescore>
     Score         DG    S(hbond)    S(metal)    S(lipo)     H(rot)  DE(clash)    DE(int)     intcor
      7.79     -13.21       1.30        0.00      62.78       1.55       1.36       4.06       ----

> <Gold.Chemscore.Fitness>
7.7932

> <Gold.Chemscore.DG>
-13.2076

> <Gold.Chemscore.ZeroCoef>
-5.4800

> <Gold.Chemscore.Hbond>
1.3001

> <Gold.Chemscore.Metal>
0.0000

> <Gold.Chemscore.Lipo>
62.7799

> <Gold.Chemscore.Internal_Hbond>
0.0000

> <Gold.Chemscore.DEClash>
1.3557

> <Gold.Chemscore.DEInternal>
4.0587

> <Gold.Chemscore.Rot>
1.5469

> <Gold.Chemscore.Internal.Correction>
   9.000000E+99

> <Gold.Chemscore.Hbonds>
donor molecule, donor type, donor heavy atom, donor atom, acceptor molecule, acceptor atom, score
      P1  H  7989  7998       L1     8  0.10
      P1  H  7997  8008       L1     5  0.11
      P1  H  8011  8017       L1    10  0.58

> <Gold.Chemscore.Hbond.Weighted>
-4.3424

> <Gold.Chemscore.Metal.Weighted>
-0.0000

> <Gold.Chemscore.Lipo.Weighted>
-7.3452

> <Gold.Chemscore.Internal_Hbond.Weighted>
0.0000

> <Gold.Chemscore.DEClash.Weighted>
1.3557

> <Gold.Chemscore.DEInternal.Weighted>
4.0587

> <Gold.Chemscore.Rot.Weighted>
3.9600

> <Gold.Chemscore.Internal.Correction.Weighted>
   9.000000E+99

> <Gold.Protein.RotatedTorsions>
[ 6907 6896 6895 6894 ] final    0.29 input  -60.11 | X-H torsion
[ 7974 7965 7964 7962 ] final  135.08 input  175.53 | X-H torsion
[ 8008 7997 7996 7995 ] final  -81.87 input   59.86 | X-H torsion
[ 10167 10162 10161 10158 ] final -154.64 input  -65.29 | X-H torsion
[ 10718 10713 10712 10709 ] final  100.34 input   66.30 | X-H torsion
[ 10763 10752 10751 10750 ] final   63.27 input  -60.55 | X-H torsion
[ 11005 11000 10999 10996 ] final  -14.69 input  -57.11 | X-H torsion

> <Gold.Protein.ActiveResidues>
 VAL166  LYS551  ARG553  GLY616  TRP617  ASP618  TYR619  PRO620  LYS621  CYS622 
 ASP623  PHE694  ASN695  SER759  ASP760  ASP761  ALA762  ILE779  LEU786  VAL792 
 PHE793  MET794  SER795  GLU796  ALA797  LYS798  CYS799  TRP800  GLU811  SER814 

> <Gold.Protein.RotatedAtoms>
  151.5741  135.1061  160.0001 H   0  0  0  0  0  0  0  0  0  0  0  0  # atno 6907 bound_to 6896
  152.4386  133.7403  159.6647 H   0  0  0  0  0  0  0  0  0  0  0  0  # atno 6908 bound_to 6896
  150.8288  133.8057  159.3130 H   0  0  0  0  0  0  0  0  0  0  0  0  # atno 6909 bound_to 6896
  144.9699  139.4617  143.5438 H   0  0  0  0  0  0  0  0  0  0  0  0  # atno 7974 bound_to 7965
  154.6028  140.0641  156.9391 H   0  0  0  0  0  0  0  0  0  0  0  0  # atno 8008 bound_to 7997
  155.2103  140.3322  155.4311 H   0  0  0  0  0  0  0  0  0  0  0  0  # atno 8009 bound_to 7997
  156.2329  140.1849  156.7180 H   0  0  0  0  0  0  0  0  0  0  0  0  # atno 8010 bound_to 7997
  139.6997  143.9284  152.2423 H   0  0  0  0  0  0  0  0  0  0  0  0  # atno 10167 bound_to 10162
  157.6856  131.0695  150.5086 H   0  0  0  0  0  0  0  0  0  0  0  0  # atno 10718 bound_to 10713
  153.0012  135.5435  154.6325 H   0  0  0  0  0  0  0  0  0  0  0  0  # atno 10763 bound_to 10752
  154.5599  135.2833  155.0931 H   0  0  0  0  0  0  0  0  0  0  0  0  # atno 10764 bound_to 10752
  154.2138  135.6463  153.5176 H   0  0  0  0  0  0  0  0  0  0  0  0  # atno 10765 bound_to 10752
  140.7890  133.8303  155.9361 H   0  0  0  0  0  0  0  0  0  0  0  0  # atno 11005 bound_to 11000
  146.3379  139.8904  142.8810 LP  0  0  0  0  0  0  0  0  0  0  0  0  # atno 17320 bound_to 7965
  145.2574  141.0065  143.3846 LP  0  0  0  0  0  0  0  0  0  0  0  0  # atno 17321 bound_to 7965
  139.9123  144.6849  150.8549 LP  0  0  0  0  0  0  0  0  0  0  0  0  # atno 17342 bound_to 10162
  140.7706  143.3434  151.2160 LP  0  0  0  0  0  0  0  0  0  0  0  0  # atno 17343 bound_to 10162
  156.5404  130.4206  149.6157 LP  0  0  0  0  0  0  0  0  0  0  0  0  # atno 17370 bound_to 10713
  156.2990  130.7166  151.2033 LP  0  0  0  0  0  0  0  0  0  0  0  0  # atno 17371 bound_to 10713
  140.9408  134.1903  157.4798 LP  0  0  0  0  0  0  0  0  0  0  0  0  # atno 17394 bound_to 11000
  139.8733  134.9871  156.5354 LP  0  0  0  0  0  0  0  0  0  0  0  0  # atno 17395 bound_to 11000

$$$$
