AV-unprocessed.smi:1906|AV-procd|sdf|7728|dock5
  -GOLD-   22720 9473D 1   1.00000     0.00000
 Structure written by MMmdl.
 35 37  0  0  0  0  0  0  0  0  1 V2000
  151.3060  145.6484  159.9870 C   0  0  0  0  0  0  0  0  0  0  0  0
  151.9448  144.3280  160.2792 C   0  0  0  0  0  0  0  0  0  0  0  0
  152.5268  144.0676  161.4498 N   0  0  0  0  0  0  0  0  0  0  0  0
  152.9667  142.7683  161.2875 C   0  0  0  0  0  0  0  0  0  0  0  0
  153.6636  141.9167  162.1740 C   0  0  0  0  0  0  0  0  0  0  0  0
  154.0102  140.6072  161.7813 C   0  0  0  0  0  0  0  0  0  0  0  0
  153.6656  140.1312  160.4996 C   0  0  0  0  0  0  0  0  0  0  0  0
  152.9717  140.9636  159.6007 C   0  0  0  0  0  0  0  0  0  0  0  0
  152.6294  142.2702  159.9970 C   0  0  0  0  0  0  0  0  0  0  0  0
  151.9707  143.3224  159.3690 N   0  0  0  0  0  0  0  0  0  0  0  0
  151.4339  143.3111  158.0144 C   0  0  0  0  0  0  0  0  0  0  0  0
  150.1479  142.4676  157.9004 C   0  0  1  0  0  0  0  0  0  0  0  0
  149.0399  143.3440  157.9333 O   0  0  0  0  0  0  0  0  0  0  0  0
  150.1463  141.5751  156.6668 C   0  0  0  0  0  0  0  0  0  0  0  0
  151.1784  140.6346  156.4530 C   0  0  0  0  0  0  0  0  0  0  0  0
  151.1533  139.7989  155.3195 C   0  0  0  0  0  0  0  0  0  0  0  0
  150.0965  139.8975  154.3942 C   0  0  0  0  0  0  0  0  0  0  0  0
  149.0647  140.8325  154.6024 C   0  0  0  0  0  0  0  0  0  0  0  0
  148.0466  140.9258  153.7148 F   0  0  0  0  0  0  0  0  0  0  0  0
  149.0900  141.6688  155.7349 C   0  0  0  0  0  0  0  0  0  0  0  0
  151.4156  146.3226  160.8369 H   0  0  0  0  0  0  0  0  0  0  0  0
  150.2421  145.5176  159.7883 H   0  0  0  0  0  0  0  0  0  0  0  0
  151.7753  146.1132  159.1205 H   0  0  0  0  0  0  0  0  0  0  0  0
  153.9318  142.2718  163.1579 H   0  0  0  0  0  0  0  0  0  0  0  0
  154.5422  139.9647  162.4676 H   0  0  0  0  0  0  0  0  0  0  0  0
  153.9340  139.1268  160.2064 H   0  0  0  0  0  0  0  0  0  0  0  0
  152.7059  140.6027  158.6182 H   0  0  0  0  0  0  0  0  0  0  0  0
  151.2248  144.3453  157.7374 H   0  0  0  0  0  0  0  0  0  0  0  0
  152.1911  142.9573  157.3146 H   0  0  0  0  0  0  0  0  0  0  0  0
  150.0572  141.8331  158.7828 H   0  0  0  0  0  0  0  0  0  0  0  0
  148.9565  143.7523  157.0850 H   0  0  0  0  0  0  0  0  0  0  0  0
  151.9886  140.5442  157.1617 H   0  0  0  0  0  0  0  0  0  0  0  0
  151.9432  139.0797  155.1613 H   0  0  0  0  0  0  0  0  0  0  0  0
  150.0764  139.2551  153.5263 H   0  0  0  0  0  0  0  0  0  0  0  0
  148.2895  142.3773  155.8915 H   0  0  0  0  0  0  0  0  0  0  0  0
  1  2  1  0  0  0  0
  1 21  1  0  0  0  0
  1 22  1  0  0  0  0
  1 23  1  0  0  0  0
  2 10  1  0  0  0  0
  2  3  2  0  0  0  0
  3  4  1  0  0  0  0
  4  9  2  0  0  0  0
  4  5  1  0  0  0  0
  5  6  2  0  0  0  0
  5 24  1  0  0  0  0
  6  7  1  0  0  0  0
  6 25  1  0  0  0  0
  7  8  2  0  0  0  0
  7 26  1  0  0  0  0
  8  9  1  0  0  0  0
  8 27  1  0  0  0  0
  9 10  1  0  0  0  0
 10 11  1  0  0  0  0
 11 12  1  0  0  0  0
 11 28  1  0  0  0  0
 11 29  1  0  0  0  0
 12 13  1  0  0  0  0
 12 14  1  0  0  0  0
 12 30  1  0  0  0  0
 13 31  1  0  0  0  0
 14 20  1  0  0  0  0
 14 15  2  0  0  0  0
 15 16  1  0  0  0  0
 15 32  1  0  0  0  0
 16 17  2  0  0  0  0
 16 33  1  0  0  0  0
 17 18  1  0  0  0  0
 17 34  1  0  0  0  0
 18 19  1  0  0  0  0
 18 20  2  0  0  0  0
 20 35  1  0  0  0  0
M  END
> <s_m_source_file>
AV-unprocessed.smi

> <i_m_source_file_index>
1906

> <i_lp_mmshare_version>
43012

> <i_f3d_flags>
0

> <s_epik_input>
W2NIXTFbY0hdW2NIXVtjSF1jKGMxMiluKGMobjIpW0NIM10pW0NIMl1bQ0BIXShbT0hdKWMzW2NIXVtjSF1bY0hdYyhGKVtjSF0z

> <s_epik_cmdline>
J2VwaWtfcHl0aG9uJywgJy1waCcsICc3LjAnLCAnLXRuJywgJzgnLCAnLW1hJywgJzIwMCcsICctbWV0YWxfYmluZGluZycsICctaW1hZScsICc8aW5maWxlLm1hZT4nLCAnLW9tYWUnLCAnPG91dGZpbGUubWFlPic=

> <r_epik_Ionization_Penalty>
0.129664

> <r_epik_Ionization_Penalty_Charging>
0

> <r_epik_Ionization_Penalty_Neutral>
0.129664

> <r_epik_State_Penalty>
0.119073

> <r_epik_Charging_Adjusted_Penalty>
0.119073

> <i_epik_Tot_Q>
0

> <i_epik_Tot_abs_Q>
0

> <r_epik_Metal_State_Penalty>
0.000131867

> <b_epik_Metal_Only>
0

> <s_lp_Force_Field>
OPLS_2005

> <r_lp_Energy>
11.7028

> <b_lp_Chiralities_Consistent>
1

> <s_lp_Variant>
AV-unprocessed.smi:1906-2

> <Gold.Version>
5.8.1

> <Gold.Id.Protein>
6NUR|6NUR_protein|mol2

> <Gold.PLP.Fitness>
52.0092

> <Gold.PLP.PLP>
-50.5305

> <Gold.PLP.part.hbond>
-1.9867

> <Gold.PLP.part.metal>
0.0000

> <Gold.PLP.part.buried>
1.7813

> <Gold.PLP.part.nonpolar>
-48.7657

> <Gold.PLP.part.repulsive>
0.1311

> <Gold.PLP.ligand.clash>
0.0000

> <Gold.PLP.ligand.torsion>
0.7673

> <Gold.PLP.Chemscore.Hbond>
1.0000

> <Gold.PLP.Chemscore.CHOScore>
0.0000

> <Gold.PLP.Chemscore.Metal>
0.0000

> <Gold.Chemscore.Hbonds>
donor molecule, donor type, donor heavy atom, donor atom, acceptor molecule, acceptor atom, score
      L1  H    13    31       P1  8028  1.00

> <Gold.PLP.Chemscore.Internal.Correction>
0.0134

> <Gold.Rescore>
     Score         DG    S(hbond)    S(metal)    S(lipo)     H(rot)  DE(clash)    DE(int)     intcor
     16.99     -18.35       0.78        0.00     127.11       1.79       0.59       0.77       ----

> <Gold.Chemscore.Fitness>
16.9943

> <Gold.Chemscore.DG>
-18.3529

> <Gold.Chemscore.ZeroCoef>
-5.4800

> <Gold.Chemscore.Hbond>
0.7755

> <Gold.Chemscore.Metal>
0.0000

> <Gold.Chemscore.Lipo>
127.1082

> <Gold.Chemscore.Internal_Hbond>
0.0000

> <Gold.Chemscore.DEClash>
0.5884

> <Gold.Chemscore.DEInternal>
0.7702

> <Gold.Chemscore.Rot>
1.7926

> <Gold.Chemscore.Internal.Correction>
   9.000000E+99

> <Gold.Chemscore.Hbonds>
donor molecule, donor type, donor heavy atom, donor atom, acceptor molecule, acceptor atom, score
      L1  H    13    31       P1  8028  0.30

> <Gold.Chemscore.Hbond.Weighted>
-2.5903

> <Gold.Chemscore.Metal.Weighted>
-0.0000

> <Gold.Chemscore.Lipo.Weighted>
-14.8717

> <Gold.Chemscore.Internal_Hbond.Weighted>
0.0000

> <Gold.Chemscore.DEClash.Weighted>
0.5884

> <Gold.Chemscore.DEInternal.Weighted>
0.7702

> <Gold.Chemscore.Rot.Weighted>
4.5890

> <Gold.Chemscore.Internal.Correction.Weighted>
   9.000000E+99

> <Gold.Protein.RotatedTorsions>
[ 6907 6896 6895 6894 ] final  -54.69 input  -60.11 | X-H torsion
[ 7974 7965 7964 7962 ] final  -63.42 input  175.53 | X-H torsion
[ 8008 7997 7996 7995 ] final -106.16 input   59.86 | X-H torsion
[ 10167 10162 10161 10158 ] final  133.92 input  -65.29 | X-H torsion
[ 10718 10713 10712 10709 ] final   73.14 input   66.30 | X-H torsion
[ 10763 10752 10751 10750 ] final  -29.98 input  -60.55 | X-H torsion
[ 11005 11000 10999 10996 ] final   -4.64 input  -57.11 | X-H torsion

> <Gold.Protein.ActiveResidues>
 VAL166  LYS551  ARG553  GLY616  TRP617  ASP618  TYR619  PRO620  LYS621  CYS622 
 ASP623  PHE694  ASN695  SER759  ASP760  ASP761  ALA762  ILE779  LEU786  VAL792 
 PHE793  MET794  SER795  GLU796  ALA797  LYS798  CYS799  TRP800  GLU811  SER814 

> <Gold.Protein.RotatedAtoms>
  150.8316  134.7572  159.6858 H   0  0  0  0  0  0  0  0  0  0  0  0  # atno 6907 bound_to 6896
  152.4420  134.5569  159.9892 H   0  0  0  0  0  0  0  0  0  0  0  0  # atno 6908 bound_to 6896
  151.5728  133.3350  159.3029 H   0  0  0  0  0  0  0  0  0  0  0  0  # atno 6909 bound_to 6896
  145.7792  140.8771  143.0339 H   0  0  0  0  0  0  0  0  0  0  0  0  # atno 7974 bound_to 7965
  154.9104  140.0410  157.1943 H   0  0  0  0  0  0  0  0  0  0  0  0  # atno 8008 bound_to 7997
  154.8354  140.2906  155.5673 H   0  0  0  0  0  0  0  0  0  0  0  0  # atno 8009 bound_to 7997
  156.2989  140.2493  156.3287 H   0  0  0  0  0  0  0  0  0  0  0  0  # atno 8010 bound_to 7997
  139.5277  144.6592  151.5065 H   0  0  0  0  0  0  0  0  0  0  0  0  # atno 10167 bound_to 10162
  157.6534  130.9613  150.1027 H   0  0  0  0  0  0  0  0  0  0  0  0  # atno 10718 bound_to 10713
  153.7734  135.6910  153.4902 H   0  0  0  0  0  0  0  0  0  0  0  0  # atno 10763 bound_to 10752
  153.1859  135.4489  155.0086 H   0  0  0  0  0  0  0  0  0  0  0  0  # atno 10764 bound_to 10752
  154.8109  135.3377  154.7242 H   0  0  0  0  0  0  0  0  0  0  0  0  # atno 10765 bound_to 10752
  140.6825  133.9141  155.8564 H   0  0  0  0  0  0  0  0  0  0  0  0  # atno 11005 bound_to 11000
  144.6799  139.9965  143.7484 LP  0  0  0  0  0  0  0  0  0  0  0  0  # atno 17320 bound_to 7965
  146.0091  139.3154  143.0881 LP  0  0  0  0  0  0  0  0  0  0  0  0  # atno 17321 bound_to 7965
  140.6432  143.8846  150.6712 LP  0  0  0  0  0  0  0  0  0  0  0  0  # atno 17342 bound_to 10162
  140.2187  143.3826  152.1660 LP  0  0  0  0  0  0  0  0  0  0  0  0  # atno 17343 bound_to 10162
  156.1945  130.3656  149.8867 LP  0  0  0  0  0  0  0  0  0  0  0  0  # atno 17370 bound_to 10713
  156.6787  130.8849  151.3573 LP  0  0  0  0  0  0  0  0  0  0  0  0  # atno 17371 bound_to 10713
  141.0306  134.0761  157.4018 LP  0  0  0  0  0  0  0  0  0  0  0  0  # atno 17394 bound_to 11000
  139.8947  135.0137  156.6966 LP  0  0  0  0  0  0  0  0  0  0  0  0  # atno 17395 bound_to 11000

$$$$
