AV-unprocessed.smi:2086|AV-procd|sdf|8519|dock6
  -GOLD-   2272011233D 1   1.00000     0.00000
 Structure written by MMmdl.
 33 34  0  0  0  0  0  0  0  0  2 V2000
  151.4534  139.5037  159.0924 O   0  0  0  0  0  0  0  0  0  0  0  0
  152.4366  140.2324  158.9190 C   0  0  0  0  0  0  0  0  0  0  0  0
  153.7633  139.9249  158.9377 N   0  5  0  0  0  0  0  0  0  0  0  0
  154.3650  138.9631  159.8604 C   0  0  0  0  0  0  0  0  0  0  0  0
  155.2283  139.6854  160.9116 C   0  0  0  0  0  0  0  0  0  0  0  0
  155.5979  138.8119  161.8485 F   0  0  0  0  0  0  0  0  0  0  0  0
  156.3269  140.1959  160.3530 F   0  0  0  0  0  0  0  0  0  0  0  0
  154.5378  140.6652  161.4969 F   0  0  0  0  0  0  0  0  0  0  0  0
  152.1840  141.6775  158.5699 C   0  0  0  0  0  0  0  0  0  0  0  0
  152.7188  142.6730  159.4178 C   0  0  0  0  0  0  0  0  0  0  0  0
  152.4947  144.0302  159.1278 C   0  0  0  0  0  0  0  0  0  0  0  0
  151.7422  144.3481  157.9848 C   0  0  0  0  0  0  0  0  0  0  0  0
  151.2411  143.4171  157.1490 N   0  0  0  0  0  0  0  0  0  0  0  0
  151.4560  142.1038  157.4155 C   0  0  0  0  0  0  0  0  0  0  0  0
  150.9612  141.1872  156.4645 N   0  0  0  0  0  0  0  0  0  0  0  0
  150.0631  141.6926  155.4325 C   0  0  0  0  0  0  0  0  0  0  0  0
  149.4135  140.5142  154.6874 C   0  0  0  0  0  0  0  0  0  0  0  0
  150.4271  139.6593  154.1646 O   0  0  0  0  0  0  0  0  0  0  0  0
  151.2491  139.1124  155.1930 C   0  0  0  0  0  0  0  0  0  0  0  0
  151.9524  140.2489  155.9542 C   0  0  0  0  0  0  0  0  0  0  0  0
  153.6070  138.3734  160.3787 H   0  0  0  0  0  0  0  0  0  0  0  0
  154.9860  138.2412  159.3280 H   0  0  0  0  0  0  0  0  0  0  0  0
  153.2880  142.4014  160.2953 H   0  0  0  0  0  0  0  0  0  0  0  0
  152.8860  144.8063  159.7684 H   0  0  0  0  0  0  0  0  0  0  0  0
  151.5445  145.3786  157.7291 H   0  0  0  0  0  0  0  0  0  0  0  0
  149.2937  142.3202  155.8840 H   0  0  0  0  0  0  0  0  0  0  0  0
  150.6222  142.3123  154.7301 H   0  0  0  0  0  0  0  0  0  0  0  0
  148.7551  139.9511  155.3507 H   0  0  0  0  0  0  0  0  0  0  0  0
  148.7992  140.8820  153.8656 H   0  0  0  0  0  0  0  0  0  0  0  0
  150.6470  138.5062  155.8719 H   0  0  0  0  0  0  0  0  0  0  0  0
  151.9873  138.4486  154.7432 H   0  0  0  0  0  0  0  0  0  0  0  0
  152.6355  140.7792  155.2896 H   0  0  0  0  0  0  0  0  0  0  0  0
  152.5530  139.8362  156.7645 H   0  0  0  0  0  0  0  0  0  0  0  0
  1  2  2  0  0  0  0
  2  3  1  0  0  0  0
  2  9  1  0  0  0  0
  3  4  1  0  0  0  0
  4  5  1  0  0  0  0
  4 21  1  0  0  0  0
  4 22  1  0  0  0  0
  5  6  1  0  0  0  0
  5  7  1  0  0  0  0
  5  8  1  0  0  0  0
  9 14  1  0  0  0  0
  9 10  2  0  0  0  0
 10 11  1  0  0  0  0
 10 23  1  0  0  0  0
 11 12  2  0  0  0  0
 11 24  1  0  0  0  0
 12 13  1  0  0  0  0
 12 25  1  0  0  0  0
 13 14  2  0  0  0  0
 14 15  1  0  0  0  0
 15 20  1  0  0  0  0
 15 16  1  0  0  0  0
 16 17  1  0  0  0  0
 16 26  1  0  0  0  0
 16 27  1  0  0  0  0
 17 18  1  0  0  0  0
 17 28  1  0  0  0  0
 17 29  1  0  0  0  0
 18 19  1  0  0  0  0
 19 20  1  0  0  0  0
 19 30  1  0  0  0  0
 19 31  1  0  0  0  0
 20 32  1  0  0  0  0
 20 33  1  0  0  0  0
M  CHG  1   3  -1
M  END
> <s_m_source_file>
AV-unprocessed.smi

> <i_m_source_file_index>
2086

> <i_lp_mmshare_version>
43012

> <i_f3d_flags>
0

> <s_epik_input>
RkMoRikoRilbQ0gyXVtOSF1DKD1PKWMxW2NIXVtjSF1bY0hdbmMxTjJbQ0gyXVtDSDJdT1tDSDJdW0NIMl0y

> <s_epik_cmdline>
J2VwaWtfcHl0aG9uJywgJy1waCcsICc3LjAnLCAnLXRuJywgJzgnLCAnLW1hJywgJzIwMCcsICctbWV0YWxfYmluZGluZycsICctaW1hZScsICc8aW5maWxlLm1hZT4nLCAnLW9tYWUnLCAnPG91dGZpbGUubWFlPic=

> <r_lp_tautomer_probability>
1

> <r_epik_Ionization_Penalty>
6.70774

> <r_epik_Ionization_Penalty_Charging>
6.70732

> <r_epik_Ionization_Penalty_Neutral>
0.000422769

> <r_epik_State_Penalty>
6.70731

> <r_epik_Charging_Adjusted_Penalty>
13.4146

> <i_epik_Tot_Q>
-1

> <i_epik_Tot_abs_Q>
1

> <r_epik_Metal_State_Penalty>
2.62875

> <b_epik_Metal_Only>
1

> <s_lp_Force_Field>
OPLS_2005

> <r_lp_Energy>
34.3175

> <b_lp_Chiralities_Consistent>
1

> <s_lp_Variant>
AV-unprocessed.smi:2086-2

> <Gold.Version>
5.8.1

> <Gold.Id.Protein>
6NUR|6NUR_protein|mol2

> <Gold.PLP.Fitness>
45.8438

> <Gold.PLP.PLP>
-39.4069

> <Gold.PLP.part.hbond>
-2.0000

> <Gold.PLP.part.metal>
0.0000

> <Gold.PLP.part.buried>
-4.7896

> <Gold.PLP.part.nonpolar>
-32.8136

> <Gold.PLP.part.repulsive>
0.7857

> <Gold.PLP.ligand.clash>
0.0000

> <Gold.PLP.ligand.torsion>
1.6488

> <Gold.PLP.Chemscore.Hbond>
2.9500

> <Gold.PLP.Chemscore.CHOScore>
0.0000

> <Gold.PLP.Chemscore.Metal>
0.0000

> <Gold.Chemscore.Hbonds>
donor molecule, donor type, donor heavy atom, donor atom, acceptor molecule, acceptor atom, score
      P1  H  7989  7998       L1    18  0.95
      P1  H  7997  8008       L1     3  2.00

> <Gold.PLP.Chemscore.Internal.Correction>
0.8846

> <Gold.Rescore>
     Score         DG    S(hbond)    S(metal)    S(lipo)     H(rot)  DE(clash)    DE(int)     intcor
     12.66     -15.28       0.95        0.00      85.41       1.32       0.20       2.43       ----

> <Gold.Chemscore.Fitness>
12.6590

> <Gold.Chemscore.DG>
-15.2821

> <Gold.Chemscore.ZeroCoef>
-5.4800

> <Gold.Chemscore.Hbond>
0.9510

> <Gold.Chemscore.Metal>
0.0000

> <Gold.Chemscore.Lipo>
85.4122

> <Gold.Chemscore.Internal_Hbond>
0.0000

> <Gold.Chemscore.DEClash>
0.1976

> <Gold.Chemscore.DEInternal>
2.4255

> <Gold.Chemscore.Rot>
1.3154

> <Gold.Chemscore.Internal.Correction>
   9.000000E+99

> <Gold.Chemscore.Hbonds>
donor molecule, donor type, donor heavy atom, donor atom, acceptor molecule, acceptor atom, score
      P1  H  7989  7998       L1    18  0.07
      P1  H  7997  8008       L1     3  0.67

> <Gold.Chemscore.Hbond.Weighted>
-3.1764

> <Gold.Chemscore.Metal.Weighted>
-0.0000

> <Gold.Chemscore.Lipo.Weighted>
-9.9932

> <Gold.Chemscore.Internal_Hbond.Weighted>
0.0000

> <Gold.Chemscore.DEClash.Weighted>
0.1976

> <Gold.Chemscore.DEInternal.Weighted>
2.4255

> <Gold.Chemscore.Rot.Weighted>
3.3675

> <Gold.Chemscore.Internal.Correction.Weighted>
   9.000000E+99

> <Gold.Protein.RotatedTorsions>
[ 6907 6896 6895 6894 ] final -135.66 input  -60.11 | X-H torsion
[ 7974 7965 7964 7962 ] final  116.00 input  175.53 | X-H torsion
[ 8008 7997 7996 7995 ] final -104.85 input   59.86 | X-H torsion
[ 10167 10162 10161 10158 ] final  157.41 input  -65.29 | X-H torsion
[ 10718 10713 10712 10709 ] final   -7.58 input   66.30 | X-H torsion
[ 10763 10752 10751 10750 ] final  164.74 input  -60.55 | X-H torsion
[ 11005 11000 10999 10996 ] final  108.61 input  -57.11 | X-H torsion

> <Gold.Protein.ActiveResidues>
 VAL166  LYS551  ARG553  GLY616  TRP617  ASP618  TYR619  PRO620  LYS621  CYS622 
 ASP623  PHE694  ASN695  SER759  ASP760  ASP761  ALA762  ILE779  LEU786  VAL792 
 PHE793  MET794  SER795  GLU796  ALA797  LYS798  CYS799  TRP800  GLU811  SER814 

> <Gold.Protein.RotatedAtoms>
  151.0005  133.6061  159.2695 H   0  0  0  0  0  0  0  0  0  0  0  0  # atno 6907 bound_to 6896
  151.3249  135.0826  159.9328 H   0  0  0  0  0  0  0  0  0  0  0  0  # atno 6908 bound_to 6896
  152.5272  133.9646  159.7787 H   0  0  0  0  0  0  0  0  0  0  0  0  # atno 6909 bound_to 6896
  145.1850  139.3030  143.4398 H   0  0  0  0  0  0  0  0  0  0  0  0  # atno 7974 bound_to 7965
  154.8913  140.0416  157.1840 H   0  0  0  0  0  0  0  0  0  0  0  0  # atno 8008 bound_to 7997
  154.8538  140.2933  155.5561 H   0  0  0  0  0  0  0  0  0  0  0  0  # atno 8009 bound_to 7997
  156.2997  140.2460  156.3501 H   0  0  0  0  0  0  0  0  0  0  0  0  # atno 8010 bound_to 7997
  139.4823  144.4920  151.8294 H   0  0  0  0  0  0  0  0  0  0  0  0  # atno 10167 bound_to 10162
  156.7152  130.5134  149.5882 H   0  0  0  0  0  0  0  0  0  0  0  0  # atno 10718 bound_to 10713
  154.3136  135.2757  155.2554 H   0  0  0  0  0  0  0  0  0  0  0  0  # atno 10763 bound_to 10752
  154.4938  135.5826  153.6483 H   0  0  0  0  0  0  0  0  0  0  0  0  # atno 10764 bound_to 10752
  152.9885  135.6141  154.3315 H   0  0  0  0  0  0  0  0  0  0  0  0  # atno 10765 bound_to 10752
  139.8847  134.9435  156.5999 H   0  0  0  0  0  0  0  0  0  0  0  0  # atno 11005 bound_to 11000
  146.3446  140.2043  142.8589 LP  0  0  0  0  0  0  0  0  0  0  0  0  # atno 17320 bound_to 7965
  145.0098  140.8704  143.5231 LP  0  0  0  0  0  0  0  0  0  0  0  0  # atno 17321 bound_to 7965
  140.4405  144.1992  150.5891 LP  0  0  0  0  0  0  0  0  0  0  0  0  # atno 17342 bound_to 10162
  140.4688  143.2421  151.9118 LP  0  0  0  0  0  0  0  0  0  0  0  0  # atno 17343 bound_to 10162
  156.1633  130.6388  151.0746 LP  0  0  0  0  0  0  0  0  0  0  0  0  # atno 17370 bound_to 10713
  157.6920  131.0807  150.7079 LP  0  0  0  0  0  0  0  0  0  0  0  0  # atno 17371 bound_to 10713
  140.7892  133.8596  155.8631 LP  0  0  0  0  0  0  0  0  0  0  0  0  # atno 17394 bound_to 11000
  140.9693  134.1553  157.4590 LP  0  0  0  0  0  0  0  0  0  0  0  0  # atno 17395 bound_to 11000

$$$$
