AV-unprocessed.smi:2274|AV-procd|sdf|9168|dock9
  -GOLD-   2272012383D 1   1.00000     0.00000
 Structure written by MMmdl.
 47 48  0  0  0  0  0  0  0  0  1 V2000
  150.4969  141.9995  157.3332 C   0  0  0  0  0  0  0  0  0  0  0  0
  151.0299  141.3796  156.0361 C   0  0  0  0  0  0  0  0  0  0  0  0
  149.9667  140.7617  155.2630 N   0  0  0  0  0  0  0  0  0  0  0  0
  148.9311  141.5290  154.8461 N   0  0  0  0  0  0  0  0  0  0  0  0
  148.1278  140.7140  154.1786 C   0  0  0  0  0  0  0  0  0  0  0  0
  146.8327  141.2539  153.6382 C   0  0  0  0  0  0  0  0  0  0  0  0
  148.6807  139.3991  154.1344 C   0  0  0  0  0  0  0  0  0  0  0  0
  148.1407  138.2233  153.5566 N   0  0  0  0  0  0  0  0  0  0  0  0
  146.8795  137.7804  153.6710 C   0  0  0  0  0  0  0  0  0  0  0  0
  145.9820  138.3623  154.2802 O   0  0  0  0  0  0  0  0  0  0  0  0
  146.7050  136.6236  153.0169 N   0  0  0  0  0  0  0  0  0  0  0  0
  145.4512  135.8821  152.9497 C   0  0  0  0  0  0  0  0  0  0  0  0
  144.7912  136.0095  151.5653 C   0  0  0  0  0  0  0  0  0  0  0  0
  144.7160  134.6716  150.8130 C   0  0  2  0  0  0  0  0  0  0  0  0
  143.6342  133.7429  151.3991 C   0  0  0  0  0  0  0  0  0  0  0  0
  143.6399  132.3874  150.6836 C   0  0  0  0  0  0  0  0  0  0  0  0
  145.0537  131.7976  150.7058 C   0  0  0  0  0  0  0  0  0  0  0  0
  146.0657  132.8176  150.1610 C   0  0  0  0  0  0  0  0  0  0  0  0
  145.9853  134.0274  150.9085 O   0  0  0  0  0  0  0  0  0  0  0  0
  149.8372  139.4445  154.8579 C   0  0  0  0  0  0  0  0  0  0  0  0
  150.8358  138.3840  155.1953 C   0  0  0  0  0  0  0  0  0  0  0  0
  151.3043  142.4577  157.9043 H   0  0  0  0  0  0  0  0  0  0  0  0
  150.0279  141.2454  157.9663 H   0  0  0  0  0  0  0  0  0  0  0  0
  149.7556  142.7718  157.1256 H   0  0  0  0  0  0  0  0  0  0  0  0
  151.5190  142.1397  155.4263 H   0  0  0  0  0  0  0  0  0  0  0  0
  151.7866  140.6266  156.2615 H   0  0  0  0  0  0  0  0  0  0  0  0
  146.0499  140.4955  153.6571 H   0  0  0  0  0  0  0  0  0  0  0  0
  146.9495  141.5928  152.6087 H   0  0  0  0  0  0  0  0  0  0  0  0
  146.4774  142.1009  154.2262 H   0  0  0  0  0  0  0  0  0  0  0  0
  148.7453  137.7213  152.9232 H   0  0  0  0  0  0  0  0  0  0  0  0
  147.4973  136.2220  152.5370 H   0  0  0  0  0  0  0  0  0  0  0  0
  145.6230  134.8334  153.1982 H   0  0  0  0  0  0  0  0  0  0  0  0
  144.7875  136.2780  153.7187 H   0  0  0  0  0  0  0  0  0  0  0  0
  143.7888  136.4266  151.6706 H   0  0  0  0  0  0  0  0  0  0  0  0
  145.3571  136.7217  150.9632 H   0  0  0  0  0  0  0  0  0  0  0  0
  144.4905  134.8700  149.7635 H   0  0  0  0  0  0  0  0  0  0  0  0
  143.8149  133.5928  152.4643 H   0  0  0  0  0  0  0  0  0  0  0  0
  142.6504  134.2050  151.3111 H   0  0  0  0  0  0  0  0  0  0  0  0
  142.9344  131.7037  151.1570 H   0  0  0  0  0  0  0  0  0  0  0  0
  143.3106  132.5149  149.6516 H   0  0  0  0  0  0  0  0  0  0  0  0
  145.3229  131.5286  151.7278 H   0  0  0  0  0  0  0  0  0  0  0  0
  145.0891  130.8785  150.1201 H   0  0  0  0  0  0  0  0  0  0  0  0
  147.0778  132.4208  150.2421 H   0  0  0  0  0  0  0  0  0  0  0  0
  145.8861  133.0179  149.1035 H   0  0  0  0  0  0  0  0  0  0  0  0
  150.6201  137.4558  154.6663 H   0  0  0  0  0  0  0  0  0  0  0  0
  150.8264  138.1710  156.2643 H   0  0  0  0  0  0  0  0  0  0  0  0
  151.8432  138.6968  154.9204 H   0  0  0  0  0  0  0  0  0  0  0  0
  1  2  1  0  0  0  0
  1 22  1  0  0  0  0
  1 23  1  0  0  0  0
  1 24  1  0  0  0  0
  2  3  1  0  0  0  0
  2 25  1  0  0  0  0
  2 26  1  0  0  0  0
  3 20  1  0  0  0  0
  3  4  1  0  0  0  0
  4  5  2  0  0  0  0
  5  6  1  0  0  0  0
  5  7  1  0  0  0  0
  6 27  1  0  0  0  0
  6 28  1  0  0  0  0
  6 29  1  0  0  0  0
  7  8  1  0  0  0  0
  7 20  2  0  0  0  0
  8  9  1  0  0  0  0
  8 30  1  0  0  0  0
  9 10  2  0  0  0  0
  9 11  1  0  0  0  0
 11 12  1  0  0  0  0
 11 31  1  0  0  0  0
 12 13  1  0  0  0  0
 12 32  1  0  0  0  0
 12 33  1  0  0  0  0
 13 14  1  0  0  0  0
 13 34  1  0  0  0  0
 13 35  1  0  0  0  0
 14 19  1  0  0  0  0
 14 15  1  0  0  0  0
 14 36  1  0  0  0  0
 15 16  1  0  0  0  0
 15 37  1  0  0  0  0
 15 38  1  0  0  0  0
 16 17  1  0  0  0  0
 16 39  1  0  0  0  0
 16 40  1  0  0  0  0
 17 18  1  0  0  0  0
 17 41  1  0  0  0  0
 17 42  1  0  0  0  0
 18 19  1  0  0  0  0
 18 43  1  0  0  0  0
 18 44  1  0  0  0  0
 20 21  1  0  0  0  0
 21 45  1  0  0  0  0
 21 46  1  0  0  0  0
 21 47  1  0  0  0  0
M  END
> <s_m_source_file>
AV-unprocessed.smi

> <i_m_source_file_index>
2274

> <i_lp_mmshare_version>
43012

> <i_f3d_flags>
0

> <s_epik_input>
W0NIM11bQ0gyXW4xbmMoW0NIM10pYyhjMVtDSDNdKVtOSF1DKD1PKVtOSF1bQ0gyXVtDSDJdW0NAQEhdMltDSDJdW0NIMl1bQ0gyXVtDSDJdTzI=

> <s_epik_cmdline>
J2VwaWtfcHl0aG9uJywgJy1waCcsICc3LjAnLCAnLXRuJywgJzgnLCAnLW1hJywgJzIwMCcsICctbWV0YWxfYmluZGluZycsICctaW1hZScsICc8aW5maWxlLm1hZT4nLCAnLW9tYWUnLCAnPG91dGZpbGUubWFlPic=

> <r_lp_tautomer_probability>
1

> <r_epik_Ionization_Penalty>
0.00368263

> <r_epik_Ionization_Penalty_Charging>
0

> <r_epik_Ionization_Penalty_Neutral>
0.00368263

> <r_epik_State_Penalty>
0.00259417

> <r_epik_Charging_Adjusted_Penalty>
0.00259417

> <i_epik_Tot_Q>
0

> <i_epik_Tot_abs_Q>
0

> <r_epik_Metal_State_Penalty>
-0

> <b_epik_Metal_Only>
0

> <s_lp_Force_Field>
OPLS_2005

> <r_lp_Energy>
11.6854

> <b_lp_Chiralities_Consistent>
1

> <s_lp_Variant>
AV-unprocessed.smi:2274-1

> <Gold.Version>
5.8.1

> <Gold.Id.Protein>
6NUR|6NUR_protein|mol2

> <Gold.PLP.Fitness>
43.0024

> <Gold.PLP.PLP>
-38.6950

> <Gold.PLP.part.hbond>
-2.1046

> <Gold.PLP.part.metal>
0.0000

> <Gold.PLP.part.buried>
-4.6068

> <Gold.PLP.part.nonpolar>
-32.4106

> <Gold.PLP.part.repulsive>
0.4795

> <Gold.PLP.ligand.clash>
0.0000

> <Gold.PLP.ligand.torsion>
0.9547

> <Gold.PLP.Chemscore.Hbond>
1.9600

> <Gold.PLP.Chemscore.CHOScore>
0.0000

> <Gold.PLP.Chemscore.Metal>
0.0000

> <Gold.Chemscore.Hbonds>
donor molecule, donor type, donor heavy atom, donor atom, acceptor molecule, acceptor atom, score
      L1  H     8    30       P1  7948  0.96
      L1  H    11    31       P1  7948  1.00

> <Gold.PLP.Chemscore.Internal.Correction>
0.3368

> <Gold.Rescore>
     Score         DG    S(hbond)    S(metal)    S(lipo)     H(rot)  DE(clash)    DE(int)     intcor
     18.41     -19.46       1.93        0.00      96.27       1.46       0.09       0.96       ----

> <Gold.Chemscore.Fitness>
18.4144

> <Gold.Chemscore.DG>
-19.4579

> <Gold.Chemscore.ZeroCoef>
-5.4800

> <Gold.Chemscore.Hbond>
1.9322

> <Gold.Chemscore.Metal>
0.0000

> <Gold.Chemscore.Lipo>
96.2710

> <Gold.Chemscore.Internal_Hbond>
0.0000

> <Gold.Chemscore.DEClash>
0.0880

> <Gold.Chemscore.DEInternal>
0.9555

> <Gold.Chemscore.Rot>
1.4606

> <Gold.Chemscore.Internal.Correction>
   9.000000E+99

> <Gold.Chemscore.Hbonds>
donor molecule, donor type, donor heavy atom, donor atom, acceptor molecule, acceptor atom, score
      L1  H     8    30       P1  7948  0.92
      L1  H    11    31       P1  7948  0.97

> <Gold.Chemscore.Hbond.Weighted>
-6.4534

> <Gold.Chemscore.Metal.Weighted>
-0.0000

> <Gold.Chemscore.Lipo.Weighted>
-11.2637

> <Gold.Chemscore.Internal_Hbond.Weighted>
0.0000

> <Gold.Chemscore.DEClash.Weighted>
0.0880

> <Gold.Chemscore.DEInternal.Weighted>
0.9555

> <Gold.Chemscore.Rot.Weighted>
3.7393

> <Gold.Chemscore.Internal.Correction.Weighted>
   9.000000E+99

> <Gold.Protein.RotatedTorsions>
[ 6907 6896 6895 6894 ] final   -6.70 input  -60.11 | X-H torsion
[ 7974 7965 7964 7962 ] final  -11.10 input  175.53 | X-H torsion
[ 8008 7997 7996 7995 ] final  112.15 input   59.86 | X-H torsion
[ 10167 10162 10161 10158 ] final  -12.99 input  -65.29 | X-H torsion
[ 10718 10713 10712 10709 ] final  118.53 input   66.30 | X-H torsion
[ 10763 10752 10751 10750 ] final   99.08 input  -60.55 | X-H torsion
[ 11005 11000 10999 10996 ] final  158.80 input  -57.11 | X-H torsion

> <Gold.Protein.ActiveResidues>
 VAL166  LYS551  ARG553  GLY616  TRP617  ASP618  TYR619  PRO620  LYS621  CYS622 
 ASP623  PHE694  ASN695  SER759  ASP760  ASP761  ALA762  ILE779  LEU786  VAL792 
 PHE793  MET794  SER795  GLU796  ALA797  LYS798  CYS799  TRP800  GLU811  SER814 

> <Gold.Protein.RotatedAtoms>
  151.4613  135.1038  159.9725 H   0  0  0  0  0  0  0  0  0  0  0  0  # atno 6907 bound_to 6896
  152.4852  133.8350  159.7133 H   0  0  0  0  0  0  0  0  0  0  0  0  # atno 6908 bound_to 6896
  150.8955  133.7126  159.2920 H   0  0  0  0  0  0  0  0  0  0  0  0  # atno 6909 bound_to 6896
  146.2199  140.2861  142.8365 H   0  0  0  0  0  0  0  0  0  0  0  0  # atno 7974 bound_to 7965
  156.2173  140.3005  155.9869 H   0  0  0  0  0  0  0  0  0  0  0  0  # atno 8008 bound_to 7997
  155.2573  140.0428  157.3010 H   0  0  0  0  0  0  0  0  0  0  0  0  # atno 8009 bound_to 7997
  154.5786  140.2369  155.8094 H   0  0  0  0  0  0  0  0  0  0  0  0  # atno 8010 bound_to 7997
  140.7173  143.5474  150.9340 H   0  0  0  0  0  0  0  0  0  0  0  0  # atno 10167 bound_to 10162
  157.6024  131.1049  150.7769 H   0  0  0  0  0  0  0  0  0  0  0  0  # atno 10718 bound_to 10713
  153.2970  135.4126  155.1218 H   0  0  0  0  0  0  0  0  0  0  0  0  # atno 10763 bound_to 10752
  154.8538  135.3532  154.5903 H   0  0  0  0  0  0  0  0  0  0  0  0  # atno 10764 bound_to 10752
  153.6328  135.7060  153.5327 H   0  0  0  0  0  0  0  0  0  0  0  0  # atno 10765 bound_to 10752
  140.1900  134.8414  157.2901 H   0  0  0  0  0  0  0  0  0  0  0  0  # atno 11005 bound_to 11000
  144.9161  140.7814  143.5777 LP  0  0  0  0  0  0  0  0  0  0  0  0  # atno 17320 bound_to 7965
  145.2795  139.1924  143.4799 LP  0  0  0  0  0  0  0  0  0  0  0  0  # atno 17321 bound_to 7965
  139.9197  143.6620  152.3099 LP  0  0  0  0  0  0  0  0  0  0  0  0  # atno 17342 bound_to 10162
  139.7033  144.7632  151.1236 LP  0  0  0  0  0  0  0  0  0  0  0  0  # atno 17343 bound_to 10162
  156.8165  130.4970  149.5349 LP  0  0  0  0  0  0  0  0  0  0  0  0  # atno 17370 bound_to 10713
  156.1100  130.6033  151.0032 LP  0  0  0  0  0  0  0  0  0  0  0  0  # atno 17371 bound_to 10713
  140.2171  134.4068  155.7584 LP  0  0  0  0  0  0  0  0  0  0  0  0  # atno 17394 bound_to 11000
  141.2226  133.7147  156.8431 LP  0  0  0  0  0  0  0  0  0  0  0  0  # atno 17395 bound_to 11000

$$$$
