AV-unprocessed.smi:232|AV-procd|sdf|1782|dock7
  -GOLD-   2262020333D 1   1.00000     0.00000
 Structure written by MMmdl.
 52 55  0  0  0  0  0  0  0  0  1 V2000
  154.1016  140.4530  160.8610 C   0  0  0  0  0  0  0  0  0  0  0  0
  153.0781  140.5476  159.7227 C   0  0  0  0  0  0  0  0  0  0  0  0
  152.3082  141.8864  159.7106 C   0  0  1  0  0  0  0  0  0  0  0  0
  153.1569  143.0804  160.1898 C   0  0  0  0  0  0  0  0  0  0  0  0
  152.9565  144.1797  159.1400 C   0  0  0  0  0  0  0  0  0  0  0  0
  151.7566  143.7169  158.3122 C   0  0  2  0  0  0  0  0  0  0  0  0
  150.4296  144.2700  158.8731 C   0  0  0  0  0  0  0  0  0  0  0  0
  151.8441  142.2617  158.3750 N   0  0  0  0  0  0  0  0  0  0  0  0
  150.8666  141.5574  157.7445 C   0  0  0  0  0  0  0  0  0  0  0  0
  149.5609  141.7757  158.0562 N   0  0  0  0  0  0  0  0  0  0  0  0
  148.5925  141.1087  157.4224 C   0  0  0  0  0  0  0  0  0  0  0  0
  148.7035  140.1985  156.4537 N   0  0  0  0  0  0  0  0  0  0  0  0
  150.0102  139.9730  156.1358 C   0  0  0  0  0  0  0  0  0  0  0  0
  151.1431  140.5987  156.7292 C   0  0  0  0  0  0  0  0  0  0  0  0
  152.3086  140.1027  156.1568 N   0  0  0  0  0  0  0  0  0  0  0  0
  151.8890  139.2457  155.2670 C   0  0  0  0  0  0  0  0  0  0  0  0
  150.5214  139.1236  155.1699 N   0  0  0  0  0  0  0  0  0  0  0  0
  149.7891  138.2579  154.2619 C   0  0  0  0  0  0  0  0  0  0  0  0
  148.7594  137.3470  154.9698 C   0  0  1  0  0  0  0  0  0  0  0  0
  147.8601  136.9320  153.9619 O   0  0  0  0  0  0  0  0  0  0  0  0
  149.3351  136.0685  155.6238 C   0  0  1  0  0  0  0  0  0  0  0  0
  149.9150  135.0199  154.6701 C   0  0  0  0  0  0  0  0  0  0  0  0
  150.9324  134.2733  155.5160 C   0  0  0  0  0  0  0  0  0  0  0  0
  151.1737  135.2039  156.7047 C   0  0  0  0  0  0  0  0  0  0  0  0
  150.4950  136.4063  156.3719 O   0  0  0  0  0  0  0  0  0  0  0  0
  154.5943  139.4806  160.8572 H   0  0  0  0  0  0  0  0  0  0  0  0
  153.6208  140.5778  161.8314 H   0  0  0  0  0  0  0  0  0  0  0  0
  154.8755  141.2150  160.7690 H   0  0  0  0  0  0  0  0  0  0  0  0
  153.5796  140.4012  158.7653 H   0  0  0  0  0  0  0  0  0  0  0  0
  152.3846  139.7139  159.8262 H   0  0  0  0  0  0  0  0  0  0  0  0
  151.4376  141.8025  160.3630 H   0  0  0  0  0  0  0  0  0  0  0  0
  152.8174  143.4115  161.1718 H   0  0  0  0  0  0  0  0  0  0  0  0
  154.2156  142.8332  160.2769 H   0  0  0  0  0  0  0  0  0  0  0  0
  152.8216  145.1682  159.5804 H   0  0  0  0  0  0  0  0  0  0  0  0
  153.8383  144.2267  158.4993 H   0  0  0  0  0  0  0  0  0  0  0  0
  151.8822  144.0639  157.2870 H   0  0  0  0  0  0  0  0  0  0  0  0
  150.4298  145.3601  158.8625 H   0  0  0  0  0  0  0  0  0  0  0  0
  150.2585  143.9500  159.9013 H   0  0  0  0  0  0  0  0  0  0  0  0
  149.5771  143.9440  158.2765 H   0  0  0  0  0  0  0  0  0  0  0  0
  147.5849  141.3424  157.7323 H   0  0  0  0  0  0  0  0  0  0  0  0
  152.5710  138.6847  154.6446 H   0  0  0  0  0  0  0  0  0  0  0  0
  149.2827  138.9065  153.5456 H   0  0  0  0  0  0  0  0  0  0  0  0
  150.4952  137.6572  153.6874 H   0  0  0  0  0  0  0  0  0  0  0  0
  148.1991  137.9239  155.7065 H   0  0  0  0  0  0  0  0  0  0  0  0
  148.3551  136.7327  153.1821 H   0  0  0  0  0  0  0  0  0  0  0  0
  148.5985  135.5995  156.2795 H   0  0  0  0  0  0  0  0  0  0  0  0
  149.1557  134.3543  154.2610 H   0  0  0  0  0  0  0  0  0  0  0  0
  150.4275  135.5059  153.8388 H   0  0  0  0  0  0  0  0  0  0  0  0
  150.5408  133.3136  155.8544 H   0  0  0  0  0  0  0  0  0  0  0  0
  151.8473  134.0846  154.9532 H   0  0  0  0  0  0  0  0  0  0  0  0
  150.7430  134.7852  157.6154 H   0  0  0  0  0  0  0  0  0  0  0  0
  152.2331  135.3907  156.8822 H   0  0  0  0  0  0  0  0  0  0  0  0
  1  2  1  0  0  0  0
  1 26  1  0  0  0  0
  1 27  1  0  0  0  0
  1 28  1  0  0  0  0
  2  3  1  0  0  0  0
  2 29  1  0  0  0  0
  2 30  1  0  0  0  0
  3  8  1  0  0  0  0
  3  4  1  0  0  0  0
  3 31  1  0  0  0  0
  4  5  1  0  0  0  0
  4 32  1  0  0  0  0
  4 33  1  0  0  0  0
  5  6  1  0  0  0  0
  5 34  1  0  0  0  0
  5 35  1  0  0  0  0
  6  7  1  0  0  0  0
  6  8  1  0  0  0  0
  6 36  1  0  0  0  0
  7 37  1  0  0  0  0
  7 38  1  0  0  0  0
  7 39  1  0  0  0  0
  8  9  1  0  0  0  0
  9 14  1  0  0  0  0
  9 10  2  0  0  0  0
 10 11  1  0  0  0  0
 11 12  2  0  0  0  0
 11 40  1  0  0  0  0
 12 13  1  0  0  0  0
 13 17  1  0  0  0  0
 13 14  2  0  0  0  0
 14 15  1  0  0  0  0
 15 16  2  0  0  0  0
 16 17  1  0  0  0  0
 16 41  1  0  0  0  0
 17 18  1  0  0  0  0
 18 19  1  0  0  0  0
 18 42  1  0  0  0  0
 18 43  1  0  0  0  0
 19 20  1  0  0  0  0
 19 21  1  0  0  0  0
 19 44  1  0  0  0  0
 20 45  1  0  0  0  0
 21 25  1  0  0  0  0
 21 22  1  0  0  0  0
 21 46  1  0  0  0  0
 22 23  1  0  0  0  0
 22 47  1  0  0  0  0
 22 48  1  0  0  0  0
 23 24  1  0  0  0  0
 23 49  1  0  0  0  0
 23 50  1  0  0  0  0
 24 25  1  0  0  0  0
 24 51  1  0  0  0  0
 24 52  1  0  0  0  0
M  END
> <s_m_source_file>
AV-unprocessed.smi

> <i_m_source_file_index>
232

> <i_lp_mmshare_version>
43012

> <i_f3d_flags>
0

> <s_epik_input>
W0NIM11bQ0gyXVtDQEBIXTFbQ0gyXVtDSDJdW0NAQEhdKFtDSDNdKU4xYyhuW2NIXW4yKWMoYzIzKW5bY0hdbjNbQ0gyXVtDQEhdKFtPSF0pW0NAQEhdNFtDSDJdW0NIMl1bQ0gyXU80

> <s_epik_cmdline>
J2VwaWtfcHl0aG9uJywgJy1waCcsICc3LjAnLCAnLXRuJywgJzgnLCAnLW1hJywgJzIwMCcsICctbWV0YWxfYmluZGluZycsICctaW1hZScsICc8aW5maWxlLm1hZT4nLCAnLW9tYWUnLCAnPG91dGZpbGUubWFlPic=

> <r_lp_tautomer_probability>
1

> <r_epik_Ionization_Penalty>
0.00258048

> <r_epik_Ionization_Penalty_Charging>
0

> <r_epik_Ionization_Penalty_Neutral>
0.00258048

> <r_epik_State_Penalty>
0.00168551

> <r_epik_Charging_Adjusted_Penalty>
0.00168551

> <i_epik_Tot_Q>
0

> <i_epik_Tot_abs_Q>
0

> <r_epik_Metal_State_Penalty>
-0

> <b_epik_Metal_Only>
0

> <s_lp_Force_Field>
OPLS_2005

> <r_lp_Energy>
55.4366

> <b_lp_Chiralities_Consistent>
1

> <s_lp_Variant>
AV-unprocessed.smi:232-16

> <Gold.Version>
5.8.1

> <Gold.Id.Protein>
6NUR|6NUR_protein|mol2

> <Gold.PLP.Fitness>
44.3736

> <Gold.PLP.PLP>
-40.0400

> <Gold.PLP.part.hbond>
-1.8197

> <Gold.PLP.part.metal>
0.0000

> <Gold.PLP.part.buried>
-4.4471

> <Gold.PLP.part.nonpolar>
-35.0625

> <Gold.PLP.part.repulsive>
0.1362

> <Gold.PLP.ligand.clash>
0.0000

> <Gold.PLP.ligand.torsion>
0.9869

> <Gold.PLP.Chemscore.Hbond>
2.0000

> <Gold.PLP.Chemscore.CHOScore>
0.0000

> <Gold.PLP.Chemscore.Metal>
0.0000

> <Gold.Chemscore.Hbonds>
donor molecule, donor type, donor heavy atom, donor atom, acceptor molecule, acceptor atom, score
      L1  H    20    45       P1  7948  1.00
      P1  H  7997  8010       L1    15  1.00

> <Gold.PLP.Chemscore.Internal.Correction>
0.3073

> <Gold.Rescore>
     Score         DG    S(hbond)    S(metal)    S(lipo)     H(rot)  DE(clash)    DE(int)     intcor
     14.52     -18.08       1.93        0.00     105.80       2.43       0.11       3.45       ----

> <Gold.Chemscore.Fitness>
14.5180

> <Gold.Chemscore.DG>
-18.0779

> <Gold.Chemscore.ZeroCoef>
-5.4800

> <Gold.Chemscore.Hbond>
1.9251

> <Gold.Chemscore.Metal>
0.0000

> <Gold.Chemscore.Lipo>
105.8018

> <Gold.Chemscore.Internal_Hbond>
0.0000

> <Gold.Chemscore.DEClash>
0.1078

> <Gold.Chemscore.DEInternal>
3.4520

> <Gold.Chemscore.Rot>
2.4260

> <Gold.Chemscore.Internal.Correction>
   9.000000E+99

> <Gold.Chemscore.Hbonds>
donor molecule, donor type, donor heavy atom, donor atom, acceptor molecule, acceptor atom, score
      L1  H    20    45       P1  7948  0.93
      P1  H  7997  8010       L1    15  0.79

> <Gold.Chemscore.Hbond.Weighted>
-6.4298

> <Gold.Chemscore.Metal.Weighted>
-0.0000

> <Gold.Chemscore.Lipo.Weighted>
-12.3788

> <Gold.Chemscore.Internal_Hbond.Weighted>
0.0000

> <Gold.Chemscore.DEClash.Weighted>
0.1078

> <Gold.Chemscore.DEInternal.Weighted>
3.4520

> <Gold.Chemscore.Rot.Weighted>
6.2107

> <Gold.Chemscore.Internal.Correction.Weighted>
   9.000000E+99

> <Gold.Protein.RotatedTorsions>
[ 6907 6896 6895 6894 ] final  -49.23 input  -60.11 | X-H torsion
[ 7974 7965 7964 7962 ] final  168.32 input  175.53 | X-H torsion
[ 8008 7997 7996 7995 ] final   78.22 input   59.86 | X-H torsion
[ 10167 10162 10161 10158 ] final -108.03 input  -65.29 | X-H torsion
[ 10718 10713 10712 10709 ] final   -2.82 input   66.30 | X-H torsion
[ 10763 10752 10751 10750 ] final  155.26 input  -60.55 | X-H torsion
[ 11005 11000 10999 10996 ] final -136.79 input  -57.11 | X-H torsion

> <Gold.Protein.ActiveResidues>
 VAL166  LYS551  ARG553  GLY616  TRP617  ASP618  TYR619  PRO620  LYS621  CYS622 
 ASP623  PHE694  ASN695  SER759  ASP760  ASP761  ALA762  ILE779  LEU786  VAL792 
 PHE793  MET794  SER795  GLU796  ALA797  LYS798  CYS799  TRP800  GLU811  SER814 

> <Gold.Protein.RotatedAtoms>
  150.8826  134.8219  159.7235 H   0  0  0  0  0  0  0  0  0  0  0  0  # atno 6907 bound_to 6896
  152.4787  134.4772  159.9664 H   0  0  0  0  0  0  0  0  0  0  0  0  # atno 6908 bound_to 6896
  151.4845  133.3500  159.2879 H   0  0  0  0  0  0  0  0  0  0  0  0  # atno 6909 bound_to 6896
  144.7392  139.8891  143.6402 H   0  0  0  0  0  0  0  0  0  0  0  0  # atno 7974 bound_to 7965
  155.8527  140.3457  155.5704 H   0  0  0  0  0  0  0  0  0  0  0  0  # atno 8008 bound_to 7997
  155.8020  140.0886  157.1971 H   0  0  0  0  0  0  0  0  0  0  0  0  # atno 8009 bound_to 7997
  154.4008  140.1464  156.3273 H   0  0  0  0  0  0  0  0  0  0  0  0  # atno 8010 bound_to 7997
  140.1705  143.4046  152.1358 H   0  0  0  0  0  0  0  0  0  0  0  0  # atno 10167 bound_to 10162
  156.7852  130.5343  149.5744 H   0  0  0  0  0  0  0  0  0  0  0  0  # atno 10718 bound_to 10713
  154.1655  135.2807  155.3096 H   0  0  0  0  0  0  0  0  0  0  0  0  # atno 10763 bound_to 10752
  154.6115  135.5497  153.7481 H   0  0  0  0  0  0  0  0  0  0  0  0  # atno 10764 bound_to 10752
  153.0180  135.6416  154.1796 H   0  0  0  0  0  0  0  0  0  0  0  0  # atno 10765 bound_to 10752
  140.8772  134.1977  157.4614 H   0  0  0  0  0  0  0  0  0  0  0  0  # atno 11005 bound_to 11000
  146.1155  139.4166  143.0261 LP  0  0  0  0  0  0  0  0  0  0  0  0  # atno 17320 bound_to 7965
  145.7381  141.0018  143.1316 LP  0  0  0  0  0  0  0  0  0  0  0  0  # atno 17321 bound_to 7965
  139.5340  144.7190  151.4957 LP  0  0  0  0  0  0  0  0  0  0  0  0  # atno 17342 bound_to 10162
  140.6585  143.8549  150.6861 LP  0  0  0  0  0  0  0  0  0  0  0  0  # atno 17343 bound_to 10162
  156.1193  130.6098  151.0169 LP  0  0  0  0  0  0  0  0  0  0  0  0  # atno 17370 bound_to 10713
  157.6627  131.0878  150.7801 LP  0  0  0  0  0  0  0  0  0  0  0  0  # atno 17371 bound_to 10713
  139.8716  134.9801  156.5062 LP  0  0  0  0  0  0  0  0  0  0  0  0  # atno 17394 bound_to 11000
  140.8504  133.8136  155.9163 LP  0  0  0  0  0  0  0  0  0  0  0  0  # atno 17395 bound_to 11000

$$$$
