AV-unprocessed.smi:760|AV-procd|sdf|3628|dock2
  -GOLD-   22720 1 23D 1   1.00000     0.00000
 Structure written by MMmdl.
 44 45  0  0  0  0  0  0  0  0  2 V2000
  149.5935  133.6085  154.0266 C   0  0  0  0  0  0  0  0  0  0  0  0
  149.7719  134.2388  155.1994 C   0  0  0  0  0  0  0  0  0  0  0  0
  150.8785  133.8428  156.1612 C   0  0  0  0  0  0  0  0  0  0  0  0
  148.8944  135.4086  155.6185 C   0  0  0  0  0  0  0  0  0  0  0  0
  149.0891  136.6108  154.7657 N   0  3  2  0  0  0  0  0  0  0  0  0
  150.3591  137.3105  155.0911 C   0  0  0  0  0  0  0  0  0  0  0  0
  150.6348  138.4612  154.1082 C   0  0  0  0  0  0  0  0  0  0  0  0
  149.4698  139.4673  154.0610 C   0  0  2  0  0  0  0  0  0  0  0  0
  149.3742  140.2461  155.2957 N   0  0  0  0  0  0  0  0  0  0  0  0
  150.3952  140.8851  155.8853 C   0  0  0  0  0  0  0  0  0  0  0  0
  151.5438  140.8825  155.4430 O   0  0  0  0  0  0  0  0  0  0  0  0
  150.0005  141.5109  157.0060 N   0  0  0  0  0  0  0  0  0  0  0  0
  150.8036  142.2809  157.8845 C   0  0  0  0  0  0  0  0  0  0  0  0
  151.9189  141.8790  158.6736 C   0  0  0  0  0  0  0  0  0  0  0  0
  152.4045  142.8996  159.3646 N   0  0  0  0  0  0  0  0  0  0  0  0
  151.6189  143.9536  159.0356 N   0  0  0  0  0  0  0  0  0  0  0  0
  151.8835  145.2482  159.6262 C   0  0  0  0  0  0  0  0  0  0  0  0
  150.6335  143.6101  158.1316 C   0  0  0  0  0  0  0  0  0  0  0  0
  148.1554  138.7185  153.7870 C   0  0  0  0  0  0  0  0  0  0  0  0
  147.9323  137.5462  154.7607 C   0  0  0  0  0  0  0  0  0  0  0  0
  150.2268  132.7856  153.7285 H   0  0  0  0  0  0  0  0  0  0  0  0
  148.8100  133.9064  153.3451 H   0  0  0  0  0  0  0  0  0  0  0  0
  151.5850  134.6652  156.2757 H   0  0  0  0  0  0  0  0  0  0  0  0
  151.4304  132.9769  155.7936 H   0  0  0  0  0  0  0  0  0  0  0  0
  150.4871  133.5968  157.1469 H   0  0  0  0  0  0  0  0  0  0  0  0
  147.8441  135.1129  155.6305 H   0  0  0  0  0  0  0  0  0  0  0  0
  149.1556  135.6573  156.6481 H   0  0  0  0  0  0  0  0  0  0  0  0
  150.3177  137.6873  156.1143 H   0  0  0  0  0  0  0  0  0  0  0  0
  151.1889  136.6038  155.0501 H   0  0  0  0  0  0  0  0  0  0  0  0
  151.5664  138.9636  154.3714 H   0  0  0  0  0  0  0  0  0  0  0  0
  150.7894  138.0470  153.1109 H   0  0  0  0  0  0  0  0  0  0  0  0
  149.6382  140.1621  153.2361 H   0  0  0  0  0  0  0  0  0  0  0  0
  148.4641  140.3089  155.7281 H   0  0  0  0  0  0  0  0  0  0  0  0
  149.0272  141.4266  157.2594 H   0  0  0  0  0  0  0  0  0  0  0  0
  152.3885  140.9118  158.7729 H   0  0  0  0  0  0  0  0  0  0  0  0
  151.0060  145.8882  159.5298 H   0  0  0  0  0  0  0  0  0  0  0  0
  152.7249  145.7185  159.1167 H   0  0  0  0  0  0  0  0  0  0  0  0
  152.1228  145.1354  160.6844 H   0  0  0  0  0  0  0  0  0  0  0  0
  149.9162  144.3243  157.7545 H   0  0  0  0  0  0  0  0  0  0  0  0
  147.3109  139.4076  153.8302 H   0  0  0  0  0  0  0  0  0  0  0  0
  148.1747  138.3304  152.7675 H   0  0  0  0  0  0  0  0  0  0  0  0
  147.0298  137.0234  154.4491 H   0  0  0  0  0  0  0  0  0  0  0  0
  147.7558  137.9168  155.7715 H   0  0  0  0  0  0  0  0  0  0  0  0
  149.1895  136.2711  153.8197 H   0  0  0  0  0  0  0  0  0  0  0  0
  1  2  2  0  0  0  0
  1 21  1  0  0  0  0
  1 22  1  0  0  0  0
  2  3  1  0  0  0  0
  2  4  1  0  0  0  0
  3 23  1  0  0  0  0
  3 24  1  0  0  0  0
  3 25  1  0  0  0  0
  4  5  1  0  0  0  0
  4 26  1  0  0  0  0
  4 27  1  0  0  0  0
  5 20  1  0  0  0  0
  5  6  1  0  0  0  0
  5 44  1  0  0  0  0
  6  7  1  0  0  0  0
  6 28  1  0  0  0  0
  6 29  1  0  0  0  0
  7  8  1  0  0  0  0
  7 30  1  0  0  0  0
  7 31  1  0  0  0  0
  8  9  1  0  0  0  0
  8 19  1  0  0  0  0
  8 32  1  0  0  0  0
  9 10  1  0  0  0  0
  9 33  1  0  0  0  0
 10 11  2  0  0  0  0
 10 12  1  0  0  0  0
 12 13  1  0  0  0  0
 12 34  1  0  0  0  0
 13 18  2  0  0  0  0
 13 14  1  0  0  0  0
 14 15  2  0  0  0  0
 14 35  1  0  0  0  0
 15 16  1  0  0  0  0
 16 17  1  0  0  0  0
 16 18  1  0  0  0  0
 17 36  1  0  0  0  0
 17 37  1  0  0  0  0
 17 38  1  0  0  0  0
 18 39  1  0  0  0  0
 19 20  1  0  0  0  0
 19 40  1  0  0  0  0
 19 41  1  0  0  0  0
 20 42  1  0  0  0  0
 20 43  1  0  0  0  0
M  CHG  1   5   1
M  END
> <s_m_source_file>
AV-unprocessed.smi

> <i_m_source_file_index>
760

> <i_lp_mmshare_version>
43012

> <i_f3d_flags>
0

> <s_epik_input>
W0NIMl09QyhbQ0gzXSlbQ0gyXU4xW0NIMl1bQ0gyXVtDSF0oW0NIMl1bQ0gyXTEpW05IXUMoPU8pW05IXWMyW2NIXW5uKFtDSDNdKVtjSF0y

> <s_epik_cmdline>
J2VwaWtfcHl0aG9uJywgJy1waCcsICc3LjAnLCAnLXRuJywgJzgnLCAnLW1hJywgJzIwMCcsICctbWV0YWxfYmluZGluZycsICctaW1hZScsICc8aW5maWxlLm1hZT4nLCAnLW9tYWUnLCAnPG91dGZpbGUubWFlPic=

> <r_lp_tautomer_probability>
1

> <r_epik_Ionization_Penalty>
0.0194996

> <r_epik_Ionization_Penalty_Charging>
0.0193505

> <r_epik_Ionization_Penalty_Neutral>
0.000149098

> <r_epik_State_Penalty>
0.0154499

> <r_epik_Charging_Adjusted_Penalty>
0.0348004

> <i_epik_Tot_Q>
1

> <i_epik_Tot_abs_Q>
1

> <r_epik_Metal_State_Penalty>
0.0154507

> <b_epik_Metal_Only>
0

> <s_lp_Force_Field>
OPLS_2005

> <r_lp_Energy>
20.0822

> <b_lp_Chiralities_Consistent>
1

> <s_lp_Variant>
AV-unprocessed.smi:760-2

> <Gold.Version>
5.8.1

> <Gold.Id.Protein>
6NUR|6NUR_protein|mol2

> <Gold.PLP.Fitness>
43.9004

> <Gold.PLP.PLP>
-34.3279

> <Gold.PLP.part.hbond>
-2.0000

> <Gold.PLP.part.metal>
0.0000

> <Gold.PLP.part.buried>
-2.1762

> <Gold.PLP.part.nonpolar>
-29.6470

> <Gold.PLP.part.repulsive>
0.1227

> <Gold.PLP.ligand.clash>
0.0000

> <Gold.PLP.ligand.torsion>
0.9123

> <Gold.PLP.Chemscore.Hbond>
2.6720

> <Gold.PLP.Chemscore.CHOScore>
1.1178

> <Gold.PLP.Chemscore.Metal>
0.0000

> <Gold.Chemscore.Hbonds>
donor molecule, donor type, donor heavy atom, donor atom, acceptor molecule, acceptor atom, score
      L1  H     5    44       P1  7948  2.00
      P1  H  7989  7998       L1    11  0.62
      L1  C    18    39       P1  8028  0.91
      L1  C    18    39       P1  8029  0.20

> <Gold.PLP.Chemscore.Internal.Correction>
0.0278

> <Gold.Rescore>
     Score         DG    S(hbond)    S(metal)    S(lipo)     H(rot)  DE(clash)    DE(int)     intcor
     14.15     -16.39       1.42        0.00      82.96       1.38       0.50       1.74       ----

> <Gold.Chemscore.Fitness>
14.1514

> <Gold.Chemscore.DG>
-16.3924

> <Gold.Chemscore.ZeroCoef>
-5.4800

> <Gold.Chemscore.Hbond>
1.4151

> <Gold.Chemscore.Metal>
0.0000

> <Gold.Chemscore.Lipo>
82.9611

> <Gold.Chemscore.Internal_Hbond>
0.0000

> <Gold.Chemscore.DEClash>
0.4985

> <Gold.Chemscore.DEInternal>
1.7424

> <Gold.Chemscore.Rot>
1.3752

> <Gold.Chemscore.Internal.Correction>
   9.000000E+99

> <Gold.Chemscore.Hbonds>
donor molecule, donor type, donor heavy atom, donor atom, acceptor molecule, acceptor atom, score
      L1  H     5    44       P1  7948  0.93
      P1  H  7989  7998       L1    11  0.56

> <Gold.Chemscore.Hbond.Weighted>
-4.7263

> <Gold.Chemscore.Metal.Weighted>
-0.0000

> <Gold.Chemscore.Lipo.Weighted>
-9.7064

> <Gold.Chemscore.Internal_Hbond.Weighted>
0.0000

> <Gold.Chemscore.DEClash.Weighted>
0.4985

> <Gold.Chemscore.DEInternal.Weighted>
1.7424

> <Gold.Chemscore.Rot.Weighted>
3.5204

> <Gold.Chemscore.Internal.Correction.Weighted>
   9.000000E+99

> <Gold.Protein.RotatedTorsions>
[ 6907 6896 6895 6894 ] final  156.02 input  -60.11 | X-H torsion
[ 7974 7965 7964 7962 ] final   92.28 input  175.53 | X-H torsion
[ 8008 7997 7996 7995 ] final  -99.67 input   59.86 | X-H torsion
[ 10167 10162 10161 10158 ] final  152.65 input  -65.29 | X-H torsion
[ 10718 10713 10712 10709 ] final  -59.47 input   66.30 | X-H torsion
[ 10763 10752 10751 10750 ] final  -58.60 input  -60.55 | X-H torsion
[ 11005 11000 10999 10996 ] final   79.16 input  -57.11 | X-H torsion

> <Gold.Protein.ActiveResidues>
 VAL166  LYS551  ARG553  GLY616  TRP617  ASP618  TYR619  PRO620  LYS621  CYS622 
 ASP623  PHE694  ASN695  SER759  ASP760  ASP761  ALA762  ILE779  LEU786  VAL792 
 PHE793  MET794  SER795  GLU796  ALA797  LYS798  CYS799  TRP800  GLU811  SER814 

> <Gold.Protein.RotatedAtoms>
  152.0357  133.3956  159.4315 H   0  0  0  0  0  0  0  0  0  0  0  0  # atno 6907 bound_to 6896
  150.6879  134.3471  159.4902 H   0  0  0  0  0  0  0  0  0  0  0  0  # atno 6908 bound_to 6896
  152.1263  134.9168  160.0611 H   0  0  0  0  0  0  0  0  0  0  0  0  # atno 6909 bound_to 6896
  145.4944  139.2276  143.2812 H   0  0  0  0  0  0  0  0  0  0  0  0  # atno 7974 bound_to 7965
  154.8180  140.0446  157.1390 H   0  0  0  0  0  0  0  0  0  0  0  0  # atno 8008 bound_to 7997
  154.9292  140.3037  155.5156 H   0  0  0  0  0  0  0  0  0  0  0  0  # atno 8009 bound_to 7997
  156.2978  140.2326  156.4350 H   0  0  0  0  0  0  0  0  0  0  0  0  # atno 8010 bound_to 7997
  139.4831  144.5340  151.7676 H   0  0  0  0  0  0  0  0  0  0  0  0  # atno 10167 bound_to 10162
  156.1059  130.4180  150.0720 H   0  0  0  0  0  0  0  0  0  0  0  0  # atno 10718 bound_to 10713
  154.2406  135.6344  153.5206 H   0  0  0  0  0  0  0  0  0  0  0  0  # atno 10763 bound_to 10752
  152.9931  135.5541  154.5914 H   0  0  0  0  0  0  0  0  0  0  0  0  # atno 10764 bound_to 10752
  154.5419  135.2895  155.1062 H   0  0  0  0  0  0  0  0  0  0  0  0  # atno 10765 bound_to 10752
  139.9184  134.7820  156.1742 H   0  0  0  0  0  0  0  0  0  0  0  0  # atno 11005 bound_to 11000
  146.2265  140.5740  142.8994 LP  0  0  0  0  0  0  0  0  0  0  0  0  # atno 17320 bound_to 7965
  144.7816  140.5851  143.6602 LP  0  0  0  0  0  0  0  0  0  0  0  0  # atno 17321 bound_to 7965
  140.4870  144.1367  150.5943 LP  0  0  0  0  0  0  0  0  0  0  0  0  # atno 17342 bound_to 10162
  140.4214  143.2610  151.9710 LP  0  0  0  0  0  0  0  0  0  0  0  0  # atno 17343 bound_to 10162
  156.8696  130.9519  151.3610 LP  0  0  0  0  0  0  0  0  0  0  0  0  # atno 17370 bound_to 10713
  157.6236  130.8674  149.9150 LP  0  0  0  0  0  0  0  0  0  0  0  0  # atno 17371 bound_to 10713
  141.0681  133.6809  156.2086 LP  0  0  0  0  0  0  0  0  0  0  0  0  # atno 17394 bound_to 11000
  140.6551  134.5026  157.5580 LP  0  0  0  0  0  0  0  0  0  0  0  0  # atno 17395 bound_to 11000

$$$$
