AV-unprocessed.smi:53|AV-procd|sdf|520|dock4
  -GOLD-   2262016393D 1   1.00000     0.00000
 Structure written by MMmdl.
 30 31  0  0  0  0  0  0  0  0  1 V2000
  149.0757  130.7498  154.5915 N   0  0  0  0  0  0  0  0  0  0  0  0
  149.5245  131.9547  154.9706 C   0  0  0  0  0  0  0  0  0  0  0  0
  149.0571  133.1503  154.3060 C   0  0  0  0  0  0  0  0  0  0  0  0
  149.5588  134.3264  154.7424 C   0  0  0  0  0  0  0  0  0  0  0  0
  150.4888  134.3982  155.7704 N   0  0  0  0  0  0  0  0  0  0  0  0
  151.0260  135.7291  156.2475 C   0  0  1  0  0  0  0  0  0  0  0  0
  151.4216  136.4784  155.1356 O   0  0  0  0  0  0  0  0  0  0  0  0
  150.8891  137.7969  155.2161 C   0  0  1  0  0  0  0  0  0  0  0  0
  150.7182  138.3771  153.8036 C   0  0  0  0  0  0  0  0  0  0  0  0
  150.1352  139.6607  153.8739 O   0  0  0  0  0  0  0  0  0  0  0  0
  149.5671  137.5783  155.9533 C   0  0  2  0  0  0  0  0  0  0  0  0
  149.0501  138.7625  156.5308 O   0  0  0  0  0  0  0  0  0  0  0  0
  149.9276  136.5140  156.9835 C   0  0  2  0  0  0  0  0  0  0  0  0
  150.4185  137.0693  158.1906 O   0  0  0  0  0  0  0  0  0  0  0  0
  150.9103  133.2118  156.4172 C   0  0  0  0  0  0  0  0  0  0  0  0
  151.7008  133.2302  157.3598 O   0  0  0  0  0  0  0  0  0  0  0  0
  150.3935  132.0290  155.9600 N   0  0  0  0  0  0  0  0  0  0  0  0
  151.9089  135.5165  156.8535 H   0  0  0  0  0  0  0  0  0  0  0  0
  151.5505  138.4170  155.8246 H   0  0  0  0  0  0  0  0  0  0  0  0
  148.8273  137.1693  155.2636 H   0  0  0  0  0  0  0  0  0  0  0  0
  149.0762  135.8743  157.2210 H   0  0  0  0  0  0  0  0  0  0  0  0
  149.4014  129.9166  155.0598 H   0  0  0  0  0  0  0  0  0  0  0  0
  148.4066  130.6784  153.8386 H   0  0  0  0  0  0  0  0  0  0  0  0
  148.3411  133.1394  153.4966 H   0  0  0  0  0  0  0  0  0  0  0  0
  149.2107  135.2293  154.2627 H   0  0  0  0  0  0  0  0  0  0  0  0
  151.6700  138.4192  153.2730 H   0  0  0  0  0  0  0  0  0  0  0  0
  150.0484  137.7470  153.2177 H   0  0  0  0  0  0  0  0  0  0  0  0
  149.5692  139.7757  153.1258 H   0  0  0  0  0  0  0  0  0  0  0  0
  149.5236  139.5001  156.1768 H   0  0  0  0  0  0  0  0  0  0  0  0
  149.6814  137.3090  158.7312 H   0  0  0  0  0  0  0  0  0  0  0  0
  1  2  1  0  0  0  0
  1 22  1  0  0  0  0
  1 23  1  0  0  0  0
  2 17  2  0  0  0  0
  2  3  1  0  0  0  0
  3  4  2  0  0  0  0
  3 24  1  0  0  0  0
  4  5  1  0  0  0  0
  4 25  1  0  0  0  0
  5  6  1  0  0  0  0
  5 15  1  0  0  0  0
  6 18  1  0  0  0  0
  6 13  1  0  0  0  0
  6  7  1  0  0  0  0
  7  8  1  0  0  0  0
  8 19  1  0  0  0  0
  8  9  1  0  0  0  0
  8 11  1  0  0  0  0
  9 10  1  0  0  0  0
  9 26  1  0  0  0  0
  9 27  1  0  0  0  0
 10 28  1  0  0  0  0
 11 20  1  0  0  0  0
 11 12  1  0  0  0  0
 11 13  1  0  0  0  0
 12 29  1  0  0  0  0
 13 21  1  0  0  0  0
 13 14  1  0  0  0  0
 14 30  1  0  0  0  0
 15 16  2  0  0  0  0
 15 17  1  0  0  0  0
M  END
> <s_m_source_file>
AV-unprocessed.smi

> <i_m_source_file_index>
53

> <i_lp_mmshare_version>
43012

> <i_f3d_flags>
0

> <s_epik_input>
W05IMl1jMVtjSF1bY0hdbihjKD1PKW4xKVtDQEBIXTJPW0NASF0oW0NIMl1bT0hdKVtDQEBIXShbT0hdKVtDQEBIXTJbT0hd

> <s_epik_cmdline>
J2VwaWtfcHl0aG9uJywgJy1waCcsICc3LjAnLCAnLXRuJywgJzgnLCAnLW1hJywgJzIwMCcsICctbWV0YWxfYmluZGluZycsICctaW1hZScsICc8aW5maWxlLm1hZT4nLCAnLW9tYWUnLCAnPG91dGZpbGUubWFlPic=

> <r_lp_tautomer_probability>
0.99996

> <r_epik_Ionization_Penalty>
0.00069087

> <r_epik_Ionization_Penalty_Charging>
2.61959e-08

> <r_epik_Ionization_Penalty_Neutral>
0.000690844

> <r_epik_State_Penalty>
1.15523e-05

> <r_epik_Charging_Adjusted_Penalty>
1.15785e-05

> <i_epik_Tot_Q>
0

> <i_epik_Tot_abs_Q>
0

> <r_epik_Metal_State_Penalty>
-0

> <b_epik_Metal_Only>
0

> <s_epik_Chemistry_Notes>
This compound contains an acetal/aminal-like group ( X-CH(R)-Y where X, Y are N, S, or O) that may be acid/base labile, releasing an aldehyde.

> <s_lp_Force_Field>
OPLS_2005

> <r_lp_Energy>
33.3856

> <b_lp_Chiralities_Consistent>
1

> <s_lp_Variant>
AV-unprocessed.smi:53-8

> <Gold.Version>
5.8.1

> <Gold.Id.Protein>
6NUR|6NUR_protein|mol2

> <Gold.PLP.Fitness>
36.4799

> <Gold.PLP.PLP>
-23.2030

> <Gold.PLP.part.hbond>
-4.0000

> <Gold.PLP.part.metal>
0.0000

> <Gold.PLP.part.buried>
-4.9416

> <Gold.PLP.part.nonpolar>
-14.2480

> <Gold.PLP.part.repulsive>
0.1205

> <Gold.PLP.ligand.clash>
0.0000

> <Gold.PLP.ligand.torsion>
0.2578

> <Gold.PLP.Chemscore.Hbond>
3.5920

> <Gold.PLP.Chemscore.CHOScore>
1.0000

> <Gold.PLP.Chemscore.Metal>
0.0000

> <Gold.Chemscore.Hbonds>
donor molecule, donor type, donor heavy atom, donor atom, acceptor molecule, acceptor atom, score
      L1  H    10    28       P1  7957  0.83
      P1  H  6896  6907       L1    16  0.67
      P1  H  7989  7998       L1    10  0.96
      P1  H 10752 10765       L1     7  1.00
      L1  C     4    25       P1  7948  0.87

> <Gold.PLP.Chemscore.Internal.Correction>
0.0166

> <Gold.Rescore>
     Score         DG    S(hbond)    S(metal)    S(lipo)     H(rot)  DE(clash)    DE(int)     intcor
      8.68      -9.07       2.88        0.00      29.74       3.71       0.20       0.19       ----

> <Gold.Chemscore.Fitness>
8.6799

> <Gold.Chemscore.DG>
-9.0682

> <Gold.Chemscore.ZeroCoef>
-5.4800

> <Gold.Chemscore.Hbond>
2.8758

> <Gold.Chemscore.Metal>
0.0000

> <Gold.Chemscore.Lipo>
29.7392

> <Gold.Chemscore.Internal_Hbond>
0.0000

> <Gold.Chemscore.DEClash>
0.1971

> <Gold.Chemscore.DEInternal>
0.1912

> <Gold.Chemscore.Rot>
3.7095

> <Gold.Chemscore.Internal.Correction>
   9.000000E+99

> <Gold.Chemscore.Hbonds>
donor molecule, donor type, donor heavy atom, donor atom, acceptor molecule, acceptor atom, score
      L1  H    10    28       P1  7957  0.81
      P1  H  6896  6907       L1    16  0.66
      P1  H  7989  7998       L1    10  0.14
      P1  H 10752 10765       L1     7  0.40

> <Gold.Chemscore.Hbond.Weighted>
-9.6051

> <Gold.Chemscore.Metal.Weighted>
-0.0000

> <Gold.Chemscore.Lipo.Weighted>
-3.4795

> <Gold.Chemscore.Internal_Hbond.Weighted>
0.0000

> <Gold.Chemscore.DEClash.Weighted>
0.1971

> <Gold.Chemscore.DEInternal.Weighted>
0.1912

> <Gold.Chemscore.Rot.Weighted>
9.4964

> <Gold.Chemscore.Internal.Correction.Weighted>
   9.000000E+99

> <Gold.Protein.RotatedTorsions>
[ 6907 6896 6895 6894 ] final -179.06 input  -60.11 | X-H torsion
[ 7974 7965 7964 7962 ] final  -95.65 input  175.53 | X-H torsion
[ 8008 7997 7996 7995 ] final   57.34 input   59.86 | X-H torsion
[ 10167 10162 10161 10158 ] final   79.14 input  -65.29 | X-H torsion
[ 10718 10713 10712 10709 ] final -168.83 input   66.30 | X-H torsion
[ 10763 10752 10751 10750 ] final  177.81 input  -60.55 | X-H torsion
[ 11005 11000 10999 10996 ] final  156.99 input  -57.11 | X-H torsion

> <Gold.Protein.ActiveResidues>
 VAL166  LYS551  ARG553  GLY616  TRP617  ASP618  TYR619  PRO620  LYS621  CYS622 
 ASP623  PHE694  ASN695  SER759  ASP760  ASP761  ALA762  ILE779  LEU786  VAL792 
 PHE793  MET794  SER795  GLU796  ALA797  LYS798  CYS799  TRP800  GLU811  SER814 

> <Gold.Protein.RotatedAtoms>
  151.6473  133.3322  159.3143 H   0  0  0  0  0  0  0  0  0  0  0  0  # atno 6907 bound_to 6896
  150.7978  134.7053  159.6583 H   0  0  0  0  0  0  0  0  0  0  0  0  # atno 6908 bound_to 6896
  152.4067  134.6200  160.0099 H   0  0  0  0  0  0  0  0  0  0  0  0  # atno 6909 bound_to 6896
  145.3573  140.9486  143.2520 H   0  0  0  0  0  0  0  0  0  0  0  0  # atno 7974 bound_to 7965
  155.5321  140.3482  155.4428 H   0  0  0  0  0  0  0  0  0  0  0  0  # atno 8008 bound_to 7997
  156.0711  140.1363  156.9854 H   0  0  0  0  0  0  0  0  0  0  0  0  # atno 8009 bound_to 7997
  154.4528  140.0965  156.6645 H   0  0  0  0  0  0  0  0  0  0  0  0  # atno 8010 bound_to 7997
  139.9635  144.5945  150.8051 H   0  0  0  0  0  0  0  0  0  0  0  0  # atno 10167 bound_to 10162
  156.7027  130.9203  151.3081 H   0  0  0  0  0  0  0  0  0  0  0  0  # atno 10718 bound_to 10713
  154.4994  135.2783  155.1433 H   0  0  0  0  0  0  0  0  0  0  0  0  # atno 10763 bound_to 10752
  154.3072  135.6236  153.5454 H   0  0  0  0  0  0  0  0  0  0  0  0  # atno 10764 bound_to 10752
  152.9900  135.5711  154.5433 H   0  0  0  0  0  0  0  0  0  0  0  0  # atno 10765 bound_to 10752
  140.1727  134.8531  157.2710 H   0  0  0  0  0  0  0  0  0  0  0  0  # atno 11005 bound_to 11000
  144.8673  139.5090  143.6784 LP  0  0  0  0  0  0  0  0  0  0  0  0  # atno 17320 bound_to 7965
  146.2942  139.7229  142.9138 LP  0  0  0  0  0  0  0  0  0  0  0  0  # atno 17321 bound_to 7965
  140.7545  143.3029  151.3034 LP  0  0  0  0  0  0  0  0  0  0  0  0  # atno 17342 bound_to 10162
  139.6536  144.0317  152.2644 LP  0  0  0  0  0  0  0  0  0  0  0  0  # atno 17343 bound_to 10162
  157.6967  130.9289  150.0664 LP  0  0  0  0  0  0  0  0  0  0  0  0  # atno 17370 bound_to 10713
  156.1717  130.3646  149.9156 LP  0  0  0  0  0  0  0  0  0  0  0  0  # atno 17371 bound_to 10713
  140.2358  134.3854  155.7502 LP  0  0  0  0  0  0  0  0  0  0  0  0  # atno 17394 bound_to 11000
  141.2218  133.7239  156.8712 LP  0  0  0  0  0  0  0  0  0  0  0  0  # atno 17395 bound_to 11000

$$$$
