AV-unprocessed.smi:904|AV-procd|sdf|4098|dock3
  -GOLD-   22720 1593D 1   1.00000     0.00000
 Structure written by MMmdl.
 42 43  0  0  0  0  0  0  0  0  1 V2000
  153.6518  140.3710  159.7090 C   0  0  0  0  0  0  0  0  0  0  0  0
  153.2304  141.6396  160.3947 C   0  0  0  0  0  0  0  0  0  0  0  0
  153.4608  141.7801  161.6895 N   0  0  0  0  0  0  0  0  0  0  0  0
  152.9851  143.0043  161.9934 N   0  0  0  0  0  0  0  0  0  0  0  0
  153.0804  143.4847  163.3582 C   0  0  0  0  0  0  0  0  0  0  0  0
  152.4587  143.6414  160.8867 C   0  0  0  0  0  0  0  0  0  0  0  0
  151.8768  145.0164  160.9593 C   0  0  0  0  0  0  0  0  0  0  0  0
  152.5951  142.7843  159.8275 C   0  0  0  0  0  0  0  0  0  0  0  0
  152.1814  142.9926  158.3922 C   0  0  0  0  0  0  0  0  0  0  0  0
  151.0677  142.0109  158.0301 C   0  0  0  0  0  0  0  0  0  0  0  0
  150.5949  141.2697  158.8918 O   0  0  0  0  0  0  0  0  0  0  0  0
  150.6579  142.0203  156.7521 N   0  0  0  0  0  0  0  0  0  0  0  0
  149.5934  141.1919  156.1969 C   0  0  2  0  0  0  0  0  0  0  0  0
  149.8960  139.6966  156.4195 C   0  0  0  0  0  0  0  0  0  0  0  0
  148.8203  138.8017  155.7793 C   0  0  0  0  0  0  0  0  0  0  0  0
  148.6130  139.1134  154.2851 C   0  0  2  0  0  0  0  0  0  0  0  0
  149.7389  138.6914  153.5411 O   0  0  0  0  0  0  0  0  0  0  0  0
  148.3565  140.6139  154.0493 C   0  0  0  0  0  0  0  0  0  0  0  0
  149.4359  141.4988  154.6969 C   0  0  0  0  0  0  0  0  0  0  0  0
  154.6167  140.4977  159.2179 H   0  0  0  0  0  0  0  0  0  0  0  0
  152.9285  140.0742  158.9498 H   0  0  0  0  0  0  0  0  0  0  0  0
  153.7437  139.5442  160.4141 H   0  0  0  0  0  0  0  0  0  0  0  0
  152.1196  143.8924  163.6735 H   0  0  0  0  0  0  0  0  0  0  0  0
  153.8372  144.2672  163.4178 H   0  0  0  0  0  0  0  0  0  0  0  0
  153.3545  142.6731  164.0338 H   0  0  0  0  0  0  0  0  0  0  0  0
  151.7180  145.4310  159.9639 H   0  0  0  0  0  0  0  0  0  0  0  0
  152.5413  145.6932  161.4966 H   0  0  0  0  0  0  0  0  0  0  0  0
  150.9168  145.0022  161.4752 H   0  0  0  0  0  0  0  0  0  0  0  0
  151.8325  144.0112  158.2192 H   0  0  0  0  0  0  0  0  0  0  0  0
  153.0200  142.8465  157.7106 H   0  0  0  0  0  0  0  0  0  0  0  0
  151.1075  142.6653  156.1186 H   0  0  0  0  0  0  0  0  0  0  0  0
  148.6535  141.4407  156.6938 H   0  0  0  0  0  0  0  0  0  0  0  0
  150.8722  139.4507  155.9991 H   0  0  0  0  0  0  0  0  0  0  0  0
  149.9587  139.4802  157.4865 H   0  0  0  0  0  0  0  0  0  0  0  0
  149.0772  137.7506  155.9153 H   0  0  0  0  0  0  0  0  0  0  0  0
  147.8777  138.9536  156.3067 H   0  0  0  0  0  0  0  0  0  0  0  0
  147.7585  138.5444  153.9172 H   0  0  0  0  0  0  0  0  0  0  0  0
  149.7430  139.1514  152.7153 H   0  0  0  0  0  0  0  0  0  0  0  0
  148.2906  140.8235  152.9811 H   0  0  0  0  0  0  0  0  0  0  0  0
  147.3856  140.8782  154.4700 H   0  0  0  0  0  0  0  0  0  0  0  0
  149.1794  142.5495  154.5559 H   0  0  0  0  0  0  0  0  0  0  0  0
  150.3874  141.3448  154.1857 H   0  0  0  0  0  0  0  0  0  0  0  0
  1  2  1  0  0  0  0
  1 20  1  0  0  0  0
  1 21  1  0  0  0  0
  1 22  1  0  0  0  0
  2  8  1  0  0  0  0
  2  3  2  0  0  0  0
  3  4  1  0  0  0  0
  4  5  1  0  0  0  0
  4  6  1  0  0  0  0
  5 23  1  0  0  0  0
  5 24  1  0  0  0  0
  5 25  1  0  0  0  0
  6  7  1  0  0  0  0
  6  8  2  0  0  0  0
  7 26  1  0  0  0  0
  7 27  1  0  0  0  0
  7 28  1  0  0  0  0
  8  9  1  0  0  0  0
  9 10  1  0  0  0  0
  9 29  1  0  0  0  0
  9 30  1  0  0  0  0
 10 11  2  0  0  0  0
 10 12  1  0  0  0  0
 12 13  1  0  0  0  0
 12 31  1  0  0  0  0
 13 19  1  0  0  0  0
 13 14  1  0  0  0  0
 13 32  1  0  0  0  0
 14 15  1  0  0  0  0
 14 33  1  0  0  0  0
 14 34  1  0  0  0  0
 15 16  1  0  0  0  0
 15 35  1  0  0  0  0
 15 36  1  0  0  0  0
 16 17  1  0  0  0  0
 16 18  1  0  0  0  0
 16 37  1  0  0  0  0
 17 38  1  0  0  0  0
 18 19  1  0  0  0  0
 18 39  1  0  0  0  0
 18 40  1  0  0  0  0
 19 41  1  0  0  0  0
 19 42  1  0  0  0  0
M  END
> <s_m_source_file>
AV-unprocessed.smi

> <i_m_source_file_index>
904

> <i_lp_mmshare_version>
43012

> <i_f3d_flags>
0

> <s_epik_input>
W0NIM11jMW5uKFtDSDNdKWMoW0NIM10pYzFbQ0gyXUMoPU8pW05IXVtDQEBIXTJbQ0gyXVtDSDJdW0NAQEhdKFtPSF0pW0NIMl1bQ0gyXTI=

> <s_epik_cmdline>
J2VwaWtfcHl0aG9uJywgJy1waCcsICc3LjAnLCAnLXRuJywgJzgnLCAnLW1hJywgJzIwMCcsICctbWV0YWxfYmluZGluZycsICctaW1hZScsICc8aW5maWxlLm1hZT4nLCAnLW9tYWUnLCAnPG91dGZpbGUubWFlPic=

> <r_lp_tautomer_probability>
1

> <r_epik_Ionization_Penalty>
0.00340889

> <r_epik_Ionization_Penalty_Charging>
0

> <r_epik_Ionization_Penalty_Neutral>
0.00340889

> <r_epik_State_Penalty>
0.00241397

> <r_epik_Charging_Adjusted_Penalty>
0.00241397

> <i_epik_Tot_Q>
0

> <i_epik_Tot_abs_Q>
0

> <r_epik_Metal_State_Penalty>
-0

> <b_epik_Metal_Only>
0

> <s_lp_Force_Field>
OPLS_2005

> <r_lp_Energy>
4.71478

> <b_lp_Chiralities_Consistent>
1

> <s_lp_Variant>
AV-unprocessed.smi:904-2

> <Gold.Version>
5.8.1

> <Gold.Id.Protein>
6NUR|6NUR_protein|mol2

> <Gold.PLP.Fitness>
44.9404

> <Gold.PLP.PLP>
-42.0523

> <Gold.PLP.part.hbond>
-2.1751

> <Gold.PLP.part.metal>
0.0000

> <Gold.PLP.part.buried>
-4.0136

> <Gold.PLP.part.nonpolar>
-34.9553

> <Gold.PLP.part.repulsive>
0.0589

> <Gold.PLP.ligand.clash>
0.0000

> <Gold.PLP.ligand.torsion>
0.0577

> <Gold.PLP.Chemscore.Hbond>
1.0000

> <Gold.PLP.Chemscore.CHOScore>
0.0000

> <Gold.PLP.Chemscore.Metal>
0.0000

> <Gold.Chemscore.Hbonds>
donor molecule, donor type, donor heavy atom, donor atom, acceptor molecule, acceptor atom, score
      L1  H    17    38       P1  7957  1.00

> <Gold.PLP.Chemscore.Internal.Correction>
0.0035

> <Gold.Rescore>
     Score         DG    S(hbond)    S(metal)    S(lipo)     H(rot)  DE(clash)    DE(int)     intcor
     15.76     -16.78       0.99        0.00     108.52       1.84       0.03       0.99       ----

> <Gold.Chemscore.Fitness>
15.7620

> <Gold.Chemscore.DG>
-16.7752

> <Gold.Chemscore.ZeroCoef>
-5.4800

> <Gold.Chemscore.Hbond>
0.9911

> <Gold.Chemscore.Metal>
0.0000

> <Gold.Chemscore.Lipo>
108.5178

> <Gold.Chemscore.Internal_Hbond>
0.0000

> <Gold.Chemscore.DEClash>
0.0270

> <Gold.Chemscore.DEInternal>
0.9861

> <Gold.Chemscore.Rot>
1.8406

> <Gold.Chemscore.Internal.Correction>
   9.000000E+99

> <Gold.Chemscore.Hbonds>
donor molecule, donor type, donor heavy atom, donor atom, acceptor molecule, acceptor atom, score
      L1  H    17    38       P1  7957  0.94

> <Gold.Chemscore.Hbond.Weighted>
-3.3104

> <Gold.Chemscore.Metal.Weighted>
-0.0000

> <Gold.Chemscore.Lipo.Weighted>
-12.6966

> <Gold.Chemscore.Internal_Hbond.Weighted>
0.0000

> <Gold.Chemscore.DEClash.Weighted>
0.0270

> <Gold.Chemscore.DEInternal.Weighted>
0.9861

> <Gold.Chemscore.Rot.Weighted>
4.7118

> <Gold.Chemscore.Internal.Correction.Weighted>
   9.000000E+99

> <Gold.Protein.RotatedTorsions>
[ 6907 6896 6895 6894 ] final   -0.75 input  -60.11 | X-H torsion
[ 7974 7965 7964 7962 ] final  -23.99 input  175.53 | X-H torsion
[ 8008 7997 7996 7995 ] final  -47.57 input   59.86 | X-H torsion
[ 10167 10162 10161 10158 ] final  -10.91 input  -65.29 | X-H torsion
[ 10718 10713 10712 10709 ] final   52.57 input   66.30 | X-H torsion
[ 10763 10752 10751 10750 ] final -111.43 input  -60.55 | X-H torsion
[ 11005 11000 10999 10996 ] final -130.93 input  -57.11 | X-H torsion

> <Gold.Protein.ActiveResidues>
 VAL166  LYS551  ARG553  GLY616  TRP617  ASP618  TYR619  PRO620  LYS621  CYS622 
 ASP623  PHE694  ASN695  SER759  ASP760  ASP761  ALA762  ILE779  LEU786  VAL792 
 PHE793  MET794  SER795  GLU796  ALA797  LYS798  CYS799  TRP800  GLU811  SER814 

> <Gold.Protein.RotatedAtoms>
  151.5571  135.1066  159.9963 H   0  0  0  0  0  0  0  0  0  0  0  0  # atno 6907 bound_to 6896
  152.4464  133.7540  159.6720 H   0  0  0  0  0  0  0  0  0  0  0  0  # atno 6908 bound_to 6896
  150.8381  133.7913  159.3095 H   0  0  0  0  0  0  0  0  0  0  0  0  # atno 6909 bound_to 6896
  146.1582  140.4691  142.8582 H   0  0  0  0  0  0  0  0  0  0  0  0  # atno 7974 bound_to 7965
  154.4018  140.1343  156.4197 H   0  0  0  0  0  0  0  0  0  0  0  0  # atno 8008 bound_to 7997
  155.7654  140.3485  155.5199 H   0  0  0  0  0  0  0  0  0  0  0  0  # atno 8009 bound_to 7997
  155.8818  140.0988  157.1470 H   0  0  0  0  0  0  0  0  0  0  0  0  # atno 8010 bound_to 7997
  140.7125  143.5697  150.9106 H   0  0  0  0  0  0  0  0  0  0  0  0  # atno 10167 bound_to 10162
  157.5087  130.8486  149.8407 H   0  0  0  0  0  0  0  0  0  0  0  0  # atno 10718 bound_to 10713
  154.8300  135.4527  154.1038 H   0  0  0  0  0  0  0  0  0  0  0  0  # atno 10763 bound_to 10752
  153.2319  135.6906  153.7886 H   0  0  0  0  0  0  0  0  0  0  0  0  # atno 10764 bound_to 10752
  153.7265  135.3333  155.3253 H   0  0  0  0  0  0  0  0  0  0  0  0  # atno 10765 bound_to 10752
  140.9303  134.1328  157.4240 H   0  0  0  0  0  0  0  0  0  0  0  0  # atno 11005 bound_to 11000
  144.7992  140.6180  143.6490 LP  0  0  0  0  0  0  0  0  0  0  0  0  # atno 17320 bound_to 7965
  145.4655  139.1508  143.3843 LP  0  0  0  0  0  0  0  0  0  0  0  0  # atno 17321 bound_to 7965
  139.9423  143.6368  152.3050 LP  0  0  0  0  0  0  0  0  0  0  0  0  # atno 17342 bound_to 10162
  139.6857  144.7652  151.1528 LP  0  0  0  0  0  0  0  0  0  0  0  0  # atno 17343 bound_to 10162
  156.0275  130.3775  150.1781 LP  0  0  0  0  0  0  0  0  0  0  0  0  # atno 17370 bound_to 10713
  156.9971  130.9911  151.3400 LP  0  0  0  0  0  0  0  0  0  0  0  0  # atno 17371 bound_to 10713
  139.8795  135.0002  156.6000 LP  0  0  0  0  0  0  0  0  0  0  0  0  # atno 17394 bound_to 11000
  140.7872  133.8612  155.8615 LP  0  0  0  0  0  0  0  0  0  0  0  0  # atno 17395 bound_to 11000

$$$$
