AV-unprocessed.smi:247|AV-procd|sdf|1891|dock7
  -GOLD-   2262020553D 1   1.00000     0.00000
 Structure written by MMmdl.
 61 65  0  0  0  0  0  0  0  0  1 V2000
  147.6291  132.3902  152.0892 O   0  0  0  0  0  0  0  0  0  0  0  0
  146.8877  133.5942  152.1169 C   0  0  0  0  0  0  0  0  0  0  0  0
  145.5102  133.4886  151.4053 C   0  0  0  0  0  0  0  0  0  0  0  0
  144.6154  134.6793  151.8745 C   0  0  0  0  0  0  0  0  0  0  0  0
  145.3274  135.9209  152.1443 N   0  0  0  0  0  0  0  0  0  0  0  0
  145.4802  136.9868  151.2871 C   0  0  0  0  0  0  0  0  0  0  0  0
  146.1609  137.9917  151.7645 N   0  0  0  0  0  0  0  0  0  0  0  0
  146.4831  137.6049  153.0608 C   0  0  0  0  0  0  0  0  0  0  0  0
  147.2054  138.2099  154.1311 C   0  0  0  0  0  0  0  0  0  0  0  0
  147.7785  139.4409  154.0449 N   0  0  0  0  0  0  0  0  0  0  0  0
  147.1301  140.4707  153.2417 C   0  0  0  0  0  0  0  0  0  0  0  0
  147.4967  141.8037  153.8933 C   0  0  0  0  0  0  0  0  0  0  0  0
  147.9152  141.4024  155.3054 C   0  0  0  0  0  0  0  0  0  0  0  0
  148.5880  140.0305  155.1157 C   0  0  2  0  0  0  0  0  0  0  0  0
  150.1062  140.1154  154.7377 C   0  0  1  0  0  0  0  0  0  0  0  0
  150.9520  140.7110  155.8907 C   0  0  0  0  0  0  0  0  0  0  0  0
  150.9401  139.8344  157.0151 O   0  0  0  0  0  0  0  0  0  0  0  0
  151.5747  138.5850  156.7595 C   0  0  0  0  0  0  0  0  0  0  0  0
  150.8761  137.8517  155.6031 C   0  0  0  0  0  0  0  0  0  0  0  0
  150.7947  138.7709  154.3770 C   0  0  1  0  0  0  0  0  0  0  0  0
  150.2160  138.0996  153.2767 O   0  0  0  0  0  0  0  0  0  0  0  0
  147.3253  137.4923  155.2788 N   0  0  0  0  0  0  0  0  0  0  0  0
  146.7764  136.2796  155.3849 C   0  0  0  0  0  0  0  0  0  0  0  0
  146.0777  135.5989  154.4760 N   0  0  0  0  0  0  0  0  0  0  0  0
  145.9602  136.3043  153.3150 C   0  0  0  0  0  0  0  0  0  0  0  0
  145.7128  133.4840  149.8676 C   0  0  0  0  0  0  0  0  0  0  0  0
  144.4179  133.1483  149.1069 C   0  0  0  0  0  0  0  0  0  0  0  0
  143.9182  131.8883  149.5380 O   0  0  0  0  0  0  0  0  0  0  0  0
  143.5713  131.8677  150.9176 C   0  0  0  0  0  0  0  0  0  0  0  0
  144.8127  132.1562  151.7835 C   0  0  0  0  0  0  0  0  0  0  0  0
  147.9541  132.2574  151.2119 H   0  0  0  0  0  0  0  0  0  0  0  0
  146.7542  133.8834  153.1598 H   0  0  0  0  0  0  0  0  0  0  0  0
  147.5059  134.3620  151.6520 H   0  0  0  0  0  0  0  0  0  0  0  0
  143.8402  134.9073  151.1446 H   0  0  0  0  0  0  0  0  0  0  0  0
  144.0795  134.3998  152.7827 H   0  0  0  0  0  0  0  0  0  0  0  0
  145.0757  136.9932  150.2856 H   0  0  0  0  0  0  0  0  0  0  0  0
  147.4615  140.4295  152.2038 H   0  0  0  0  0  0  0  0  0  0  0  0
  146.0483  140.3319  153.2618 H   0  0  0  0  0  0  0  0  0  0  0  0
  148.3406  142.2543  153.3699 H   0  0  0  0  0  0  0  0  0  0  0  0
  146.6739  142.5189  153.8816 H   0  0  0  0  0  0  0  0  0  0  0  0
  148.5214  142.1617  155.7932 H   0  0  0  0  0  0  0  0  0  0  0  0
  147.0207  141.2766  155.9171 H   0  0  0  0  0  0  0  0  0  0  0  0
  148.4949  139.4849  156.0539 H   0  0  0  0  0  0  0  0  0  0  0  0
  150.2025  140.7762  153.8754 H   0  0  0  0  0  0  0  0  0  0  0  0
  151.9815  140.8719  155.5667 H   0  0  0  0  0  0  0  0  0  0  0  0
  150.5959  141.6895  156.2036 H   0  0  0  0  0  0  0  0  0  0  0  0
  152.6287  138.7488  156.5300 H   0  0  0  0  0  0  0  0  0  0  0  0
  151.5388  137.9784  157.6644 H   0  0  0  0  0  0  0  0  0  0  0  0
  151.4228  136.9401  155.3599 H   0  0  0  0  0  0  0  0  0  0  0  0
  149.8798  137.5403  155.9144 H   0  0  0  0  0  0  0  0  0  0  0  0
  151.8159  138.9930  154.0632 H   0  0  0  0  0  0  0  0  0  0  0  0
  150.0556  138.7293  152.5907 H   0  0  0  0  0  0  0  0  0  0  0  0
  146.9187  135.7845  156.3343 H   0  0  0  0  0  0  0  0  0  0  0  0
  146.1228  134.4314  149.5197 H   0  0  0  0  0  0  0  0  0  0  0  0
  146.4533  132.7317  149.5947 H   0  0  0  0  0  0  0  0  0  0  0  0
  143.6604  133.9211  149.2382 H   0  0  0  0  0  0  0  0  0  0  0  0
  144.6226  133.0918  148.0377 H   0  0  0  0  0  0  0  0  0  0  0  0
  142.7664  132.5763  151.1137 H   0  0  0  0  0  0  0  0  0  0  0  0
  143.1764  130.8807  151.1590 H   0  0  0  0  0  0  0  0  0  0  0  0
  145.5000  131.3200  151.6523 H   0  0  0  0  0  0  0  0  0  0  0  0
  144.5397  132.1547  152.8394 H   0  0  0  0  0  0  0  0  0  0  0  0
  1  2  1  0  0  0  0
  1 31  1  0  0  0  0
  2  3  1  0  0  0  0
  2 32  1  0  0  0  0
  2 33  1  0  0  0  0
  3 30  1  0  0  0  0
  3  4  1  0  0  0  0
  3 26  1  0  0  0  0
  4  5  1  0  0  0  0
  4 34  1  0  0  0  0
  4 35  1  0  0  0  0
  5 25  1  0  0  0  0
  5  6  1  0  0  0  0
  6  7  2  0  0  0  0
  6 36  1  0  0  0  0
  7  8  1  0  0  0  0
  8 25  2  0  0  0  0
  8  9  1  0  0  0  0
  9 10  1  0  0  0  0
  9 22  2  0  0  0  0
 10 14  1  0  0  0  0
 10 11  1  0  0  0  0
 11 12  1  0  0  0  0
 11 37  1  0  0  0  0
 11 38  1  0  0  0  0
 12 13  1  0  0  0  0
 12 39  1  0  0  0  0
 12 40  1  0  0  0  0
 13 14  1  0  0  0  0
 13 41  1  0  0  0  0
 13 42  1  0  0  0  0
 14 15  1  0  0  0  0
 14 43  1  0  0  0  0
 15 20  1  0  0  0  0
 15 16  1  0  0  0  0
 15 44  1  0  0  0  0
 16 17  1  0  0  0  0
 16 45  1  0  0  0  0
 16 46  1  0  0  0  0
 17 18  1  0  0  0  0
 18 19  1  0  0  0  0
 18 47  1  0  0  0  0
 18 48  1  0  0  0  0
 19 20  1  0  0  0  0
 19 49  1  0  0  0  0
 19 50  1  0  0  0  0
 20 21  1  0  0  0  0
 20 51  1  0  0  0  0
 21 52  1  0  0  0  0
 22 23  1  0  0  0  0
 23 24  2  0  0  0  0
 23 53  1  0  0  0  0
 24 25  1  0  0  0  0
 26 27  1  0  0  0  0
 26 54  1  0  0  0  0
 26 55  1  0  0  0  0
 27 28  1  0  0  0  0
 27 56  1  0  0  0  0
 27 57  1  0  0  0  0
 28 29  1  0  0  0  0
 29 30  1  0  0  0  0
 29 58  1  0  0  0  0
 29 59  1  0  0  0  0
 30 60  1  0  0  0  0
 30 61  1  0  0  0  0
M  END
> <s_m_source_file>
AV-unprocessed.smi

> <i_m_source_file_index>
247

> <i_lp_mmshare_version>
43012

> <i_f3d_flags>
0

> <s_epik_input>
W0NIMl0xW0NIMl1PW0NIMl1bQ0gyXUMxKFtDSDJdW09IXSlbQ0gyXW4oW2NIXW4yKWMoYzIzKW5bY0hdbmMzTjRbQ0gyXVtDSDJdW0NIMl1bQ0BIXTRbQ0BASF01W0NIMl1PW0NIMl1bQ0gyXVtDQEhdNVtPSF0=

> <s_epik_cmdline>
J2VwaWtfcHl0aG9uJywgJy1waCcsICc3LjAnLCAnLXRuJywgJzgnLCAnLW1hJywgJzIwMCcsICctbWV0YWxfYmluZGluZycsICctaW1hZScsICc8aW5maWxlLm1hZT4nLCAnLW9tYWUnLCAnPG91dGZpbGUubWFlPic=

> <r_lp_tautomer_probability>
1

> <r_epik_Ionization_Penalty>
0.00362597

> <r_epik_Ionization_Penalty_Charging>
0

> <r_epik_Ionization_Penalty_Neutral>
0.00362597

> <r_epik_State_Penalty>
0.00241433

> <r_epik_Charging_Adjusted_Penalty>
0.00241433

> <i_epik_Tot_Q>
0

> <i_epik_Tot_abs_Q>
0

> <r_epik_Metal_State_Penalty>
-0

> <b_epik_Metal_Only>
0

> <s_lp_Force_Field>
OPLS_2005

> <r_lp_Energy>
63.0173

> <b_lp_Chiralities_Consistent>
1

> <s_lp_Variant>
AV-unprocessed.smi:247-4

> <Gold.Version>
5.8.1

> <Gold.Id.Protein>
6NUR|6NUR_protein|mol2

> <Gold.PLP.Fitness>
45.2820

> <Gold.PLP.PLP>
-37.5575

> <Gold.PLP.part.hbond>
-5.0000

> <Gold.PLP.part.metal>
0.0000

> <Gold.PLP.part.buried>
2.5587

> <Gold.PLP.part.nonpolar>
-36.4497

> <Gold.PLP.part.repulsive>
0.7841

> <Gold.PLP.ligand.clash>
0.0000

> <Gold.PLP.ligand.torsion>
1.2442

> <Gold.PLP.Chemscore.Hbond>
2.5878

> <Gold.PLP.Chemscore.CHOScore>
0.7137

> <Gold.PLP.Chemscore.Metal>
0.0000

> <Gold.Chemscore.Hbonds>
donor molecule, donor type, donor heavy atom, donor atom, acceptor molecule, acceptor atom, score
      L1  H     1    31       P1 10747  0.72
      L1  H    21    52       P1  7957  1.00
      P1  H 10785 10796       L1    28  0.75
      L1  C     6    36       P1 10171  0.74

> <Gold.PLP.Chemscore.Internal.Correction>
0.3082

> <Gold.Rescore>
     Score         DG    S(hbond)    S(metal)    S(lipo)     H(rot)  DE(clash)    DE(int)     intcor
     10.70     -15.57       1.55        0.00     106.44       2.94       1.47       3.40       ----

> <Gold.Chemscore.Fitness>
10.7000

> <Gold.Chemscore.DG>
-15.5723

> <Gold.Chemscore.ZeroCoef>
-5.4800

> <Gold.Chemscore.Hbond>
1.5483

> <Gold.Chemscore.Metal>
0.0000

> <Gold.Chemscore.Lipo>
106.4377

> <Gold.Chemscore.Internal_Hbond>
0.0000

> <Gold.Chemscore.DEClash>
1.4706

> <Gold.Chemscore.DEInternal>
3.4017

> <Gold.Chemscore.Rot>
2.9423

> <Gold.Chemscore.Internal.Correction>
   9.000000E+99

> <Gold.Chemscore.Hbonds>
donor molecule, donor type, donor heavy atom, donor atom, acceptor molecule, acceptor atom, score
      L1  H     1    31       P1 10747  0.71
      L1  H    21    52       P1  7957  0.34
      P1  H 10785 10796       L1    28  0.39

> <Gold.Chemscore.Hbond.Weighted>
-5.1714

> <Gold.Chemscore.Metal.Weighted>
-0.0000

> <Gold.Chemscore.Lipo.Weighted>
-12.4532

> <Gold.Chemscore.Internal_Hbond.Weighted>
0.0000

> <Gold.Chemscore.DEClash.Weighted>
1.4706

> <Gold.Chemscore.DEInternal.Weighted>
3.4017

> <Gold.Chemscore.Rot.Weighted>
7.5323

> <Gold.Chemscore.Internal.Correction.Weighted>
   9.000000E+99

> <Gold.Protein.RotatedTorsions>
[ 6907 6896 6895 6894 ] final  -80.87 input  -60.11 | X-H torsion
[ 7974 7965 7964 7962 ] final -151.79 input  175.53 | X-H torsion
[ 8008 7997 7996 7995 ] final   19.88 input   59.86 | X-H torsion
[ 10167 10162 10161 10158 ] final   77.30 input  -65.29 | X-H torsion
[ 10718 10713 10712 10709 ] final -158.26 input   66.30 | X-H torsion
[ 10763 10752 10751 10750 ] final -130.19 input  -60.55 | X-H torsion
[ 11005 11000 10999 10996 ] final   80.77 input  -57.11 | X-H torsion

> <Gold.Protein.ActiveResidues>
 VAL166  LYS551  ARG553  GLY616  TRP617  ASP618  TYR619  PRO620  LYS621  CYS622 
 ASP623  PHE694  ASN695  SER759  ASP760  ASP761  ALA762  ILE779  LEU786  VAL792 
 PHE793  MET794  SER795  GLU796  ALA797  LYS798  CYS799  TRP800  GLU811  SER814 

> <Gold.Protein.RotatedAtoms>
  150.6922  134.3904  159.5073 H   0  0  0  0  0  0  0  0  0  0  0  0  # atno 6907 bound_to 6896
  152.1693  134.8844  160.0545 H   0  0  0  0  0  0  0  0  0  0  0  0  # atno 6908 bound_to 6896
  151.9877  133.3745  159.4169 H   0  0  0  0  0  0  0  0  0  0  0  0  # atno 6909 bound_to 6896
  144.7830  140.4750  143.5826 H   0  0  0  0  0  0  0  0  0  0  0  0  # atno 7974 bound_to 7965
  154.9273  140.3035  155.5185 H   0  0  0  0  0  0  0  0  0  0  0  0  # atno 8008 bound_to 7997
  156.3006  140.2360  156.4266 H   0  0  0  0  0  0  0  0  0  0  0  0  # atno 8009 bound_to 7997
  154.8271  140.0420  157.1440 H   0  0  0  0  0  0  0  0  0  0  0  0  # atno 8010 bound_to 7997
  139.9831  144.5812  150.7883 H   0  0  0  0  0  0  0  0  0  0  0  0  # atno 10167 bound_to 10162
  156.5516  130.8608  151.2782 H   0  0  0  0  0  0  0  0  0  0  0  0  # atno 10718 bound_to 10713
  154.8756  135.3870  154.4043 H   0  0  0  0  0  0  0  0  0  0  0  0  # atno 10763 bound_to 10752
  153.4764  135.7030  153.5968 H   0  0  0  0  0  0  0  0  0  0  0  0  # atno 10764 bound_to 10752
  153.4403  135.3857  155.2192 H   0  0  0  0  0  0  0  0  0  0  0  0  # atno 10765 bound_to 10752
  139.9122  134.7945  156.1953 H   0  0  0  0  0  0  0  0  0  0  0  0  # atno 11005 bound_to 11000
  145.5998  139.1503  143.3135 LP  0  0  0  0  0  0  0  0  0  0  0  0  # atno 17320 bound_to 7965
  146.2048  140.6120  142.9086 LP  0  0  0  0  0  0  0  0  0  0  0  0  # atno 17321 bound_to 7965
  140.7482  143.2918  151.3309 LP  0  0  0  0  0  0  0  0  0  0  0  0  # atno 17342 bound_to 10162
  139.6395  144.0566  152.2543 LP  0  0  0  0  0  0  0  0  0  0  0  0  # atno 17343 bound_to 10162
  157.7386  130.9817  150.2264 LP  0  0  0  0  0  0  0  0  0  0  0  0  # atno 17370 bound_to 10713
  156.2879  130.3742  149.7870 LP  0  0  0  0  0  0  0  0  0  0  0  0  # atno 17371 bound_to 10713
  141.0558  133.6866  156.1859 LP  0  0  0  0  0  0  0  0  0  0  0  0  # atno 17394 bound_to 11000
  140.6738  134.4839  157.5588 LP  0  0  0  0  0  0  0  0  0  0  0  0  # atno 17395 bound_to 11000

$$$$
