AV-unprocessed.smi:820|AV-procd|sdf|3836|dock5
  -GOLD-   22720 1283D 1   1.00000     0.00000
 Structure written by MMmdl.
 32 33  0  0  0  0  0  0  0  0  1 V2000
  146.5705  128.4240  152.5097 C   0  0  0  0  0  0  0  0  0  0  0  0
  146.9168  129.5361  153.5036 C   0  0  0  0  0  0  0  0  0  0  0  0
  148.7085  129.6583  153.7652 S   0  0  0  0  0  0  0  0  0  0  0  0
  149.0890  131.3364  154.1737 C   0  0  0  0  0  0  0  0  0  0  0  0
  149.9492  131.6829  155.2367 C   0  0  0  0  0  0  0  0  0  0  0  0
  150.1874  133.0492  155.4816 C   0  0  0  0  0  0  0  0  0  0  0  0
  149.5652  134.0139  154.6522 C   0  0  0  0  0  0  0  0  0  0  0  0
  149.7080  135.4194  154.8089 N   0  0  0  0  0  0  0  0  0  0  0  0
  150.1578  136.1132  155.8723 C   0  0  0  0  0  0  0  0  0  0  0  0
  150.5556  135.5927  156.9152 O   0  0  0  0  0  0  0  0  0  0  0  0
  150.1341  137.5489  155.6186 C   0  0  0  0  0  0  0  0  0  0  0  0
  150.5278  138.0185  154.4121 C   0  0  0  0  0  0  0  0  0  0  0  0
  150.5033  139.3463  154.0655 O   0  0  0  0  0  0  0  0  0  0  0  0
  149.7918  140.1820  154.9706 C   0  0  0  0  0  0  0  0  0  0  0  0
  150.0910  139.7752  156.4206 C   0  0  0  0  0  0  0  0  0  0  0  0
  149.7542  138.4075  156.6275 O   0  0  0  0  0  0  0  0  0  0  0  0
  148.7140  133.5494  153.6270 C   0  0  0  0  0  0  0  0  0  0  0  0
  148.4791  132.2428  153.3826 N   0  0  0  0  0  0  0  0  0  0  0  0
  145.4929  128.3609  152.3564 H   0  0  0  0  0  0  0  0  0  0  0  0
  146.9135  127.4542  152.8707 H   0  0  0  0  0  0  0  0  0  0  0  0
  147.0355  128.6045  151.5401 H   0  0  0  0  0  0  0  0  0  0  0  0
  146.5463  130.4926  153.1338 H   0  0  0  0  0  0  0  0  0  0  0  0
  146.4289  129.3435  154.4594 H   0  0  0  0  0  0  0  0  0  0  0  0
  150.4178  130.9372  155.8599 H   0  0  0  0  0  0  0  0  0  0  0  0
  150.8270  133.3255  156.3050 H   0  0  0  0  0  0  0  0  0  0  0  0
  149.4905  135.9705  153.9909 H   0  0  0  0  0  0  0  0  0  0  0  0
  150.8602  137.4017  153.5892 H   0  0  0  0  0  0  0  0  0  0  0  0
  150.0769  141.2199  154.7982 H   0  0  0  0  0  0  0  0  0  0  0  0
  148.7230  140.1040  154.7666 H   0  0  0  0  0  0  0  0  0  0  0  0
  151.1472  139.9245  156.6496 H   0  0  0  0  0  0  0  0  0  0  0  0
  149.5211  140.3918  157.1156 H   0  0  0  0  0  0  0  0  0  0  0  0
  148.2064  134.2481  152.9779 H   0  0  0  0  0  0  0  0  0  0  0  0
  1  2  1  0  0  0  0
  1 19  1  0  0  0  0
  1 20  1  0  0  0  0
  1 21  1  0  0  0  0
  2  3  1  0  0  0  0
  2 22  1  0  0  0  0
  2 23  1  0  0  0  0
  3  4  1  0  0  0  0
  4 18  1  0  0  0  0
  4  5  2  0  0  0  0
  5  6  1  0  0  0  0
  5 24  1  0  0  0  0
  6  7  2  0  0  0  0
  6 25  1  0  0  0  0
  7  8  1  0  0  0  0
  7 17  1  0  0  0  0
  8  9  1  0  0  0  0
  8 26  1  0  0  0  0
  9 10  2  0  0  0  0
  9 11  1  0  0  0  0
 11 16  1  0  0  0  0
 11 12  2  0  0  0  0
 12 13  1  0  0  0  0
 12 27  1  0  0  0  0
 13 14  1  0  0  0  0
 14 15  1  0  0  0  0
 14 28  1  0  0  0  0
 14 29  1  0  0  0  0
 15 16  1  0  0  0  0
 15 30  1  0  0  0  0
 15 31  1  0  0  0  0
 17 18  2  0  0  0  0
 17 32  1  0  0  0  0
M  END
> <s_m_source_file>
AV-unprocessed.smi

> <i_m_source_file_index>
820

> <i_lp_mmshare_version>
43012

> <i_f3d_flags>
0

> <s_epik_input>
W0NIM11bQ0gyXVNjMVtjSF1bY0hdYyhbY0hdbjEpW05IXUMoPU8pQzI9W0NIXU9bQ0gyXVtDSDJdTzI=

> <s_epik_cmdline>
J2VwaWtfcHl0aG9uJywgJy1waCcsICc3LjAnLCAnLXRuJywgJzgnLCAnLW1hJywgJzIwMCcsICctbWV0YWxfYmluZGluZycsICctaW1hZScsICc8aW5maWxlLm1hZT4nLCAnLW9tYWUnLCAnPG91dGZpbGUubWFlPic=

> <r_lp_tautomer_probability>
1

> <r_epik_Ionization_Penalty>
8.32294e-05

> <r_epik_Ionization_Penalty_Charging>
0

> <r_epik_Ionization_Penalty_Neutral>
8.32294e-05

> <r_epik_State_Penalty>
-0

> <r_epik_Charging_Adjusted_Penalty>
0

> <i_epik_Tot_Q>
0

> <i_epik_Tot_abs_Q>
0

> <r_epik_Metal_State_Penalty>
0.0397586

> <b_epik_Metal_Only>
0

> <s_lp_Force_Field>
OPLS_2005

> <r_lp_Energy>
6.19244

> <b_lp_Chiralities_Consistent>
1

> <s_lp_Variant>
AV-unprocessed.smi:820-1

> <Gold.Version>
5.8.1

> <Gold.Id.Protein>
6NUR|6NUR_protein|mol2

> <Gold.PLP.Fitness>
36.7346

> <Gold.PLP.PLP>
-27.7954

> <Gold.PLP.part.hbond>
-2.0000

> <Gold.PLP.part.metal>
0.0000

> <Gold.PLP.part.buried>
-2.8366

> <Gold.PLP.part.nonpolar>
-23.6884

> <Gold.PLP.part.repulsive>
0.4559

> <Gold.PLP.ligand.clash>
0.0000

> <Gold.PLP.ligand.torsion>
1.0671

> <Gold.PLP.Chemscore.Hbond>
1.6100

> <Gold.PLP.Chemscore.CHOScore>
2.0758

> <Gold.PLP.Chemscore.Metal>
0.0000

> <Gold.Chemscore.Hbonds>
donor molecule, donor type, donor heavy atom, donor atom, acceptor molecule, acceptor atom, score
      L1  H     8    26       P1  7948  0.62
      P1  H  7989  7998       L1    13  0.60
      L1  C    12    27       P1  7948  0.14
      L1  C    12    27       P1  7949  0.89
      L1  C    17    32       P1  7948  1.00

> <Gold.PLP.Chemscore.Internal.Correction>
0.0161

> <Gold.Rescore>
     Score         DG    S(hbond)    S(metal)    S(lipo)     H(rot)  DE(clash)    DE(int)     intcor
     11.51     -13.88       1.07        0.00      66.26       1.14       0.32       2.05       ----

> <Gold.Chemscore.Fitness>
11.5099

> <Gold.Chemscore.DG>
-13.8786

> <Gold.Chemscore.ZeroCoef>
-5.4800

> <Gold.Chemscore.Hbond>
1.0695

> <Gold.Chemscore.Metal>
0.0000

> <Gold.Chemscore.Lipo>
66.2610

> <Gold.Chemscore.Internal_Hbond>
0.0000

> <Gold.Chemscore.DEClash>
0.3227

> <Gold.Chemscore.DEInternal>
2.0460

> <Gold.Chemscore.Rot>
1.1429

> <Gold.Chemscore.Internal.Correction>
   9.000000E+99

> <Gold.Chemscore.Hbonds>
donor molecule, donor type, donor heavy atom, donor atom, acceptor molecule, acceptor atom, score
      L1  H     8    26       P1  7948  0.37
      P1  H  7989  7998       L1    13  0.04

> <Gold.Chemscore.Hbond.Weighted>
-3.5720

> <Gold.Chemscore.Metal.Weighted>
-0.0000

> <Gold.Chemscore.Lipo.Weighted>
-7.7525

> <Gold.Chemscore.Internal_Hbond.Weighted>
0.0000

> <Gold.Chemscore.DEClash.Weighted>
0.3227

> <Gold.Chemscore.DEInternal.Weighted>
2.0460

> <Gold.Chemscore.Rot.Weighted>
2.9259

> <Gold.Chemscore.Internal.Correction.Weighted>
   9.000000E+99

> <Gold.Protein.RotatedTorsions>
[ 6907 6896 6895 6894 ] final -102.42 input  -60.11 | X-H torsion
[ 7974 7965 7964 7962 ] final  -51.24 input  175.53 | X-H torsion
[ 8008 7997 7996 7995 ] final  142.88 input   59.86 | X-H torsion
[ 10167 10162 10161 10158 ] final  -44.39 input  -65.29 | X-H torsion
[ 10718 10713 10712 10709 ] final    7.60 input   66.30 | X-H torsion
[ 10763 10752 10751 10750 ] final -171.72 input  -60.55 | X-H torsion
[ 11005 11000 10999 10996 ] final -172.40 input  -57.11 | X-H torsion

> <Gold.Protein.ActiveResidues>
 VAL166  LYS551  ARG553  GLY616  TRP617  ASP618  TYR619  PRO620  LYS621  CYS622 
 ASP623  PHE694  ASN695  SER759  ASP760  ASP761  ALA762  ILE779  LEU786  VAL792 
 PHE793  MET794  SER795  GLU796  ALA797  LYS798  CYS799  TRP800  GLU811  SER814 

> <Gold.Protein.RotatedAtoms>
  150.7195  134.0584  159.3822 H   0  0  0  0  0  0  0  0  0  0  0  0  # atno 6907 bound_to 6896
  151.8563  135.0538  160.0474 H   0  0  0  0  0  0  0  0  0  0  0  0  # atno 6908 bound_to 6896
  152.2752  133.5383  159.5500 H   0  0  0  0  0  0  0  0  0  0  0  0  # atno 6909 bound_to 6896
  145.9211  140.7832  142.9647 H   0  0  0  0  0  0  0  0  0  0  0  0  # atno 7974 bound_to 7965
  156.2941  140.2277  156.4800 H   0  0  0  0  0  0  0  0  0  0  0  0  # atno 8008 bound_to 7997
  154.7861  140.0457  157.1186 H   0  0  0  0  0  0  0  0  0  0  0  0  # atno 8009 bound_to 7997
  154.9700  140.3065  155.4995 H   0  0  0  0  0  0  0  0  0  0  0  0  # atno 8010 bound_to 7997
  140.6899  143.2933  151.3488 H   0  0  0  0  0  0  0  0  0  0  0  0  # atno 10167 bound_to 10162
  156.9393  130.5855  149.5652 H   0  0  0  0  0  0  0  0  0  0  0  0  # atno 10718 bound_to 10713
  154.6274  135.2882  155.0256 H   0  0  0  0  0  0  0  0  0  0  0  0  # atno 10763 bound_to 10752
  154.1429  135.6515  153.4950 H   0  0  0  0  0  0  0  0  0  0  0  0  # atno 10764 bound_to 10752
  153.0263  135.5337  154.7088 H   0  0  0  0  0  0  0  0  0  0  0  0  # atno 10765 bound_to 10752
  140.4974  134.5926  157.4976 H   0  0  0  0  0  0  0  0  0  0  0  0  # atno 11005 bound_to 11000
  144.6753  140.1978  143.7390 LP  0  0  0  0  0  0  0  0  0  0  0  0  # atno 17320 bound_to 7965
  145.8548  139.2193  143.1751 LP  0  0  0  0  0  0  0  0  0  0  0  0  # atno 17321 bound_to 7965
  139.6291  144.0756  152.2460 LP  0  0  0  0  0  0  0  0  0  0  0  0  # atno 17342 bound_to 10162
  140.0225  144.6142  150.7555 LP  0  0  0  0  0  0  0  0  0  0  0  0  # atno 17343 bound_to 10162
  156.0412  130.5494  150.8774 LP  0  0  0  0  0  0  0  0  0  0  0  0  # atno 17370 bound_to 10713
  157.5796  131.0946  150.9292 LP  0  0  0  0  0  0  0  0  0  0  0  0  # atno 17371 bound_to 10713
  139.9733  134.7257  155.9999 LP  0  0  0  0  0  0  0  0  0  0  0  0  # atno 17394 bound_to 11000
  141.1453  133.6557  156.3849 LP  0  0  0  0  0  0  0  0  0  0  0  0  # atno 17395 bound_to 11000

$$$$
