AV-unprocessed.smi:55|AV-procd|sdf|565|dock7
  -GOLD-   2262016473D 1   1.00000     0.00000
 Structure written by MMmdl.
 31 32  0  0  0  0  0  0  0  0  1 V2000
  152.5654  143.2218  160.2068 C   0  0  0  0  0  0  0  0  0  0  0  0
  152.8095  141.7738  159.8154 C   0  0  0  0  0  0  0  0  0  0  0  0
  152.1217  141.1644  158.8162 C   0  0  0  0  0  0  0  0  0  0  0  0
  152.3217  139.8451  158.4346 N   0  0  0  0  0  0  0  0  0  0  0  0
  151.5179  139.2265  157.3132 C   0  0  2  0  0  0  0  0  0  0  0  0
  152.4031  138.9496  156.0935 C   0  0  0  0  0  0  0  0  0  0  0  0
  151.4921  139.3298  154.9431 C   0  0  1  0  0  0  0  0  0  0  0  0
  150.6937  138.2276  154.5542 O   0  0  0  0  0  0  0  0  0  0  0  0
  150.6610  140.4679  155.5528 C   0  0  1  0  0  0  0  0  0  0  0  0
  149.2944  140.7560  154.9074 C   0  0  0  0  0  0  0  0  0  0  0  0
  149.4601  141.1396  153.5588 O   0  0  0  0  0  0  0  0  0  0  0  0
  150.5135  140.1199  156.9276 O   0  0  0  0  0  0  0  0  0  0  0  0
  153.3049  139.0775  159.0934 C   0  0  0  0  0  0  0  0  0  0  0  0
  153.5607  137.9119  158.7939 O   0  0  0  0  0  0  0  0  0  0  0  0
  154.0091  139.7012  160.1221 N   0  0  0  0  0  0  0  0  0  0  0  0
  153.8306  141.0199  160.5475 C   0  0  0  0  0  0  0  0  0  0  0  0
  154.5139  141.4578  161.4717 O   0  0  0  0  0  0  0  0  0  0  0  0
  151.0255  138.3329  157.6993 H   0  0  0  0  0  0  0  0  0  0  0  0
  152.0579  139.6658  154.0736 H   0  0  0  0  0  0  0  0  0  0  0  0
  151.2606  141.3788  155.5235 H   0  0  0  0  0  0  0  0  0  0  0  0
  154.7115  139.1542  160.5986 H   0  0  0  0  0  0  0  0  0  0  0  0
  151.7855  143.6794  159.5975 H   0  0  0  0  0  0  0  0  0  0  0  0
  153.4758  143.8088  160.0809 H   0  0  0  0  0  0  0  0  0  0  0  0
  152.2560  143.2879  161.2505 H   0  0  0  0  0  0  0  0  0  0  0  0
  151.3805  141.7441  158.2875 H   0  0  0  0  0  0  0  0  0  0  0  0
  153.2718  139.6095  156.1120 H   0  0  0  0  0  0  0  0  0  0  0  0
  152.7486  137.9152  156.0765 H   0  0  0  0  0  0  0  0  0  0  0  0
  150.9780  137.9389  153.7000 H   0  0  0  0  0  0  0  0  0  0  0  0
  148.6313  139.8929  154.9674 H   0  0  0  0  0  0  0  0  0  0  0  0
  148.8003  141.5717  155.4357 H   0  0  0  0  0  0  0  0  0  0  0  0
  149.2122  140.4131  153.0074 H   0  0  0  0  0  0  0  0  0  0  0  0
  1  2  1  0  0  0  0
  1 22  1  0  0  0  0
  1 23  1  0  0  0  0
  1 24  1  0  0  0  0
  2 16  1  0  0  0  0
  2  3  2  0  0  0  0
  3  4  1  0  0  0  0
  3 25  1  0  0  0  0
  4  5  1  0  0  0  0
  4 13  1  0  0  0  0
  5 18  1  0  0  0  0
  5 12  1  0  0  0  0
  5  6  1  0  0  0  0
  6  7  1  0  0  0  0
  6 26  1  0  0  0  0
  6 27  1  0  0  0  0
  7 19  1  0  0  0  0
  7  8  1  0  0  0  0
  7  9  1  0  0  0  0
  8 28  1  0  0  0  0
  9 20  1  0  0  0  0
  9 10  1  0  0  0  0
  9 12  1  0  0  0  0
 10 11  1  0  0  0  0
 10 29  1  0  0  0  0
 10 30  1  0  0  0  0
 11 31  1  0  0  0  0
 13 14  2  0  0  0  0
 13 15  1  0  0  0  0
 15 21  1  0  0  0  0
 15 16  1  0  0  0  0
 16 17  2  0  0  0  0
M  END
> <s_m_source_file>
AV-unprocessed.smi

> <i_m_source_file_index>
55

> <i_lp_mmshare_version>
43012

> <i_f3d_flags>
0

> <s_epik_input>
Tz1jMVtuSF1jKD1PKW4oW2NIXWMxW0NIM10pW0NAQEhdMltDSDJdW0NAQEhdKFtPSF0pW0NAQEhdKE8yKVtDSDJdW09IXQ==

> <s_epik_cmdline>
J2VwaWtfcHl0aG9uJywgJy1waCcsICc3LjAnLCAnLXRuJywgJzgnLCAnLW1hJywgJzIwMCcsICctbWV0YWxfYmluZGluZycsICctaW1hZScsICc8aW5maWxlLm1hZT4nLCAnLW9tYWUnLCAnPG91dGZpbGUubWFlPic=

> <r_lp_tautomer_probability>
0.999537

> <r_epik_Ionization_Penalty>
0.00121888

> <r_epik_Ionization_Penalty_Charging>
0.00121876

> <r_epik_Ionization_Penalty_Neutral>
1.19946e-07

> <r_epik_State_Penalty>
0.000805124

> <r_epik_Charging_Adjusted_Penalty>
0.00202389

> <i_epik_Tot_Q>
0

> <i_epik_Tot_abs_Q>
0

> <r_epik_Metal_State_Penalty>
0.662472

> <b_epik_Metal_Only>
0

> <s_epik_Chemistry_Notes>
This compound contains an acetal/aminal-like group ( X-CH(R)-Y where X, Y are N, S, or O) that may be acid/base labile, releasing an aldehyde.

> <s_lp_Force_Field>
OPLS_2005

> <r_lp_Energy>
27.6975

> <b_lp_Chiralities_Consistent>
1

> <s_lp_Variant>
AV-unprocessed.smi:55-5

> <Gold.Version>
5.8.1

> <Gold.Id.Protein>
6NUR|6NUR_protein|mol2

> <Gold.PLP.Fitness>
38.1460

> <Gold.PLP.PLP>
-32.9595

> <Gold.PLP.part.hbond>
-4.0000

> <Gold.PLP.part.metal>
0.0000

> <Gold.PLP.part.buried>
-3.2397

> <Gold.PLP.part.nonpolar>
-25.4209

> <Gold.PLP.part.repulsive>
0.0569

> <Gold.PLP.ligand.clash>
0.0000

> <Gold.PLP.ligand.torsion>
0.1179

> <Gold.PLP.Chemscore.Hbond>
1.8067

> <Gold.PLP.Chemscore.CHOScore>
0.0000

> <Gold.PLP.Chemscore.Metal>
0.0000

> <Gold.Chemscore.Hbonds>
donor molecule, donor type, donor heavy atom, donor atom, acceptor molecule, acceptor atom, score
      L1  H    11    31       P1  7957  0.61
      P1  H  7989  7998       L1    11  0.13
      P1  H  8011  8017       L1    11  1.00

> <Gold.PLP.Chemscore.Internal.Correction>
0.0021

> <Gold.Rescore>
     Score         DG    S(hbond)    S(metal)    S(lipo)     H(rot)  DE(clash)    DE(int)     intcor
      9.48      -9.68       1.35        0.00      57.00       2.73       0.01       0.20       ----

> <Gold.Chemscore.Fitness>
9.4754

> <Gold.Chemscore.DG>
-9.6826

> <Gold.Chemscore.ZeroCoef>
-5.4800

> <Gold.Chemscore.Hbond>
1.3506

> <Gold.Chemscore.Metal>
0.0000

> <Gold.Chemscore.Lipo>
56.9964

> <Gold.Chemscore.Internal_Hbond>
0.0000

> <Gold.Chemscore.DEClash>
0.0050

> <Gold.Chemscore.DEInternal>
0.2022

> <Gold.Chemscore.Rot>
2.7253

> <Gold.Chemscore.Internal.Correction>
   9.000000E+99

> <Gold.Chemscore.Hbonds>
donor molecule, donor type, donor heavy atom, donor atom, acceptor molecule, acceptor atom, score
      L1  H    11    31       P1  7957  0.62
      P1  H  7989  7998       L1    11  0.01
      P1  H  8011  8017       L1    11  0.28

> <Gold.Chemscore.Hbond.Weighted>
-4.5109

> <Gold.Chemscore.Metal.Weighted>
-0.0000

> <Gold.Chemscore.Lipo.Weighted>
-6.6686

> <Gold.Chemscore.Internal_Hbond.Weighted>
0.0000

> <Gold.Chemscore.DEClash.Weighted>
0.0050

> <Gold.Chemscore.DEInternal.Weighted>
0.2022

> <Gold.Chemscore.Rot.Weighted>
6.9769

> <Gold.Chemscore.Internal.Correction.Weighted>
   9.000000E+99

> <Gold.Protein.RotatedTorsions>
[ 6907 6896 6895 6894 ] final  -77.46 input  -60.11 | X-H torsion
[ 7974 7965 7964 7962 ] final  -59.63 input  175.53 | X-H torsion
[ 8008 7997 7996 7995 ] final  126.58 input   59.86 | X-H torsion
[ 10167 10162 10161 10158 ] final  -87.38 input  -65.29 | X-H torsion
[ 10718 10713 10712 10709 ] final  133.31 input   66.30 | X-H torsion
[ 10763 10752 10751 10750 ] final -126.08 input  -60.55 | X-H torsion
[ 11005 11000 10999 10996 ] final  -91.69 input  -57.11 | X-H torsion

> <Gold.Protein.ActiveResidues>
 VAL166  LYS551  ARG553  GLY616  TRP617  ASP618  TYR619  PRO620  LYS621  CYS622 
 ASP623  PHE694  ASN695  SER759  ASP760  ASP761  ALA762  ILE779  LEU786  VAL792 
 PHE793  MET794  SER795  GLU796  ALA797  LYS798  CYS799  TRP800  GLU811  SER814 

> <Gold.Protein.RotatedAtoms>
  150.6998  134.4418  159.5295 H   0  0  0  0  0  0  0  0  0  0  0  0  # atno 6907 bound_to 6896
  152.2127  134.8484  160.0504 H   0  0  0  0  0  0  0  0  0  0  0  0  # atno 6908 bound_to 6896
  151.9363  133.3590  159.3986 H   0  0  0  0  0  0  0  0  0  0  0  0  # atno 6909 bound_to 6896
  145.8251  140.8515  143.0112 H   0  0  0  0  0  0  0  0  0  0  0  0  # atno 7974 bound_to 7965
  156.2868  140.2689  156.2134 H   0  0  0  0  0  0  0  0  0  0  0  0  # atno 8008 bound_to 7997
  155.0242  140.0386  157.2467 H   0  0  0  0  0  0  0  0  0  0  0  0  # atno 8009 bound_to 7997
  154.7410  140.2725  155.6378 H   0  0  0  0  0  0  0  0  0  0  0  0  # atno 8010 bound_to 7997
  140.3850  143.2731  151.9336 H   0  0  0  0  0  0  0  0  0  0  0  0  # atno 10167 bound_to 10162
  157.4785  131.1084  150.9712 H   0  0  0  0  0  0  0  0  0  0  0  0  # atno 10718 bound_to 10713
  154.8742  135.4007  154.3373 H   0  0  0  0  0  0  0  0  0  0  0  0  # atno 10763 bound_to 10752
  153.4177  135.7022  153.6320 H   0  0  0  0  0  0  0  0  0  0  0  0  # atno 10764 bound_to 10752
  153.4996  135.3730  155.2503 H   0  0  0  0  0  0  0  0  0  0  0  0  # atno 10765 bound_to 10752
  141.1539  133.7772  156.9914 H   0  0  0  0  0  0  0  0  0  0  0  0  # atno 11005 bound_to 11000
  144.6744  140.0591  143.7476 LP  0  0  0  0  0  0  0  0  0  0  0  0  # atno 17320 bound_to 7965
  145.9632  139.2815  143.1143 LP  0  0  0  0  0  0  0  0  0  0  0  0  # atno 17321 bound_to 7965
  139.4792  144.5782  151.7977 LP  0  0  0  0  0  0  0  0  0  0  0  0  # atno 17342 bound_to 10162
  140.4898  144.1327  150.5948 LP  0  0  0  0  0  0  0  0  0  0  0  0  # atno 17343 bound_to 10162
  157.0453  130.5765  149.5362 LP  0  0  0  0  0  0  0  0  0  0  0  0  # atno 17370 bound_to 10713
  156.0109  130.5200  150.7985 LP  0  0  0  0  0  0  0  0  0  0  0  0  # atno 17371 bound_to 10713
  140.1000  134.9541  157.1908 LP  0  0  0  0  0  0  0  0  0  0  0  0  # atno 17394 bound_to 11000
  140.3331  134.2787  155.7224 LP  0  0  0  0  0  0  0  0  0  0  0  0  # atno 17395 bound_to 11000

$$$$
