AV-unprocessed.smi:2033|AV-procd|sdf|8262|dock3
  -GOLD-   2272010533D 1   1.00000     0.00000
 Structure written by MMmdl.
 32 33  0  0  0  0  0  0  0  0  2 V2000
  153.1657  142.8289  162.5607 C   0  0  0  0  0  0  0  0  0  0  0  0
  153.3920  141.8833  161.4315 C   0  0  0  0  0  0  0  0  0  0  0  0
  154.4837  141.1203  161.3362 N   0  0  0  0  0  0  0  0  0  0  0  0
  154.4681  140.3254  160.1990 N   0  0  0  0  0  0  0  0  0  0  0  0
  153.3725  140.5045  159.4471 C   0  0  0  0  0  0  0  0  0  0  0  0
  153.1624  139.8282  158.3059 N   0  5  0  0  0  0  0  0  0  0  0  0
  151.8998  139.6166  157.8695 C   0  0  0  0  0  0  0  0  0  0  0  0
  150.9378  139.2689  158.5584 O   0  0  0  0  0  0  0  0  0  0  0  0
  151.7419  139.8177  156.5520 N   0  0  0  0  0  0  0  0  0  0  0  0
  150.4960  139.6640  155.7953 C   0  0  1  0  0  0  0  0  0  0  0  0
  150.0969  141.0596  155.2629 C   0  0  0  0  0  0  0  0  0  0  0  0
  148.5991  141.1943  154.9367 C   0  0  0  0  0  0  0  0  0  0  0  0
  148.1023  140.3066  153.7853 C   0  0  0  0  0  0  0  0  0  0  0  0
  148.2440  138.7998  154.0600 C   0  0  0  0  0  0  0  0  0  0  0  0
  149.6138  138.3365  153.8822 N   0  0  0  0  0  0  0  0  0  0  0  0
  150.6872  138.7003  154.6003 C   0  0  0  0  0  0  0  0  0  0  0  0
  151.8038  138.2755  154.3035 O   0  0  0  0  0  0  0  0  0  0  0  0
  152.2454  141.6838  160.1173 S   0  0  0  0  0  0  0  0  0  0  0  0
  153.7362  143.7437  162.3999 H   0  0  0  0  0  0  0  0  0  0  0  0
  153.4819  142.3771  163.5013 H   0  0  0  0  0  0  0  0  0  0  0  0
  152.1083  143.0835  162.6352 H   0  0  0  0  0  0  0  0  0  0  0  0
  152.5592  140.0926  156.0278 H   0  0  0  0  0  0  0  0  0  0  0  0
  149.7218  139.2834  156.4639 H   0  0  0  0  0  0  0  0  0  0  0  0
  150.3249  141.8081  156.0233 H   0  0  0  0  0  0  0  0  0  0  0  0
  150.6994  141.3347  154.3953 H   0  0  0  0  0  0  0  0  0  0  0  0
  148.0144  140.9849  155.8333 H   0  0  0  0  0  0  0  0  0  0  0  0
  148.3920  142.2348  154.6849 H   0  0  0  0  0  0  0  0  0  0  0  0
  147.0477  140.5286  153.6184 H   0  0  0  0  0  0  0  0  0  0  0  0
  148.6128  140.5705  152.8580 H   0  0  0  0  0  0  0  0  0  0  0  0
  147.8779  138.5419  155.0547 H   0  0  0  0  0  0  0  0  0  0  0  0
  147.6250  138.2471  153.3528 H   0  0  0  0  0  0  0  0  0  0  0  0
  149.7722  137.6968  153.1174 H   0  0  0  0  0  0  0  0  0  0  0  0
  1  2  1  0  0  0  0
  1 19  1  0  0  0  0
  1 20  1  0  0  0  0
  1 21  1  0  0  0  0
  2 18  1  0  0  0  0
  2  3  2  0  0  0  0
  3  4  1  0  0  0  0
  4  5  2  0  0  0  0
  5  6  1  0  0  0  0
  5 18  1  0  0  0  0
  6  7  1  0  0  0  0
  7  8  2  0  0  0  0
  7  9  1  0  0  0  0
  9 10  1  0  0  0  0
  9 22  1  0  0  0  0
 10 16  1  0  0  0  0
 10 11  1  0  0  0  0
 10 23  1  0  0  0  0
 11 12  1  0  0  0  0
 11 24  1  0  0  0  0
 11 25  1  0  0  0  0
 12 13  1  0  0  0  0
 12 26  1  0  0  0  0
 12 27  1  0  0  0  0
 13 14  1  0  0  0  0
 13 28  1  0  0  0  0
 13 29  1  0  0  0  0
 14 15  1  0  0  0  0
 14 30  1  0  0  0  0
 14 31  1  0  0  0  0
 15 16  1  0  0  0  0
 15 32  1  0  0  0  0
 16 17  2  0  0  0  0
M  CHG  1   6  -1
M  END
> <s_m_source_file>
AV-unprocessed.smi

> <i_m_source_file_index>
2033

> <i_lp_mmshare_version>
43012

> <i_f3d_flags>
0

> <s_epik_input>
W0NIM11jMW5uYyhzMSlbTkhdQyg9TylbTkhdW0NAQEhdMltDSDJdW0NIMl1bQ0gyXVtDSDJdW05IXUMyPU8=

> <s_epik_cmdline>
J2VwaWtfcHl0aG9uJywgJy1waCcsICc3LjAnLCAnLXRuJywgJzgnLCAnLW1hJywgJzIwMCcsICctbWV0YWxfYmluZGluZycsICctaW1hZScsICc8aW5maWxlLm1hZT4nLCAnLW9tYWUnLCAnPG91dGZpbGUubWFlPic=

> <r_lp_tautomer_probability>
1

> <r_epik_Ionization_Penalty>
4.07233

> <r_epik_Ionization_Penalty_Charging>
3.9374

> <r_epik_Ionization_Penalty_Neutral>
0.134927

> <r_epik_State_Penalty>
3.93663

> <r_epik_Charging_Adjusted_Penalty>
7.87404

> <i_epik_Tot_Q>
-1

> <i_epik_Tot_abs_Q>
1

> <r_epik_Metal_State_Penalty>
0.602812

> <b_epik_Metal_Only>
1

> <s_lp_Force_Field>
OPLS_2005

> <r_lp_Energy>
8.77885

> <b_lp_Chiralities_Consistent>
1

> <s_lp_Variant>
AV-unprocessed.smi:2033-4

> <Gold.Version>
5.8.1

> <Gold.Id.Protein>
6NUR|6NUR_protein|mol2

> <Gold.PLP.Fitness>
39.4660

> <Gold.PLP.PLP>
-31.5852

> <Gold.PLP.part.hbond>
-3.1750

> <Gold.PLP.part.metal>
0.0000

> <Gold.PLP.part.buried>
-3.8180

> <Gold.PLP.part.nonpolar>
-25.0351

> <Gold.PLP.part.repulsive>
0.3176

> <Gold.PLP.ligand.clash>
0.0000

> <Gold.PLP.ligand.torsion>
0.5247

> <Gold.PLP.Chemscore.Hbond>
2.9750

> <Gold.PLP.Chemscore.CHOScore>
0.0000

> <Gold.PLP.Chemscore.Metal>
0.0000

> <Gold.Chemscore.Hbonds>
donor molecule, donor type, donor heavy atom, donor atom, acceptor molecule, acceptor atom, score
      L1  H    15    32       P1  7948  0.90
      P1  H  7997  8010       L1     6  2.00

> <Gold.PLP.Chemscore.Internal.Correction>
0.0052

> <Gold.Rescore>
     Score         DG    S(hbond)    S(metal)    S(lipo)     H(rot)  DE(clash)    DE(int)     intcor
     15.36     -15.92       1.76        0.00      60.97       1.00       0.05       0.50       ----

> <Gold.Chemscore.Fitness>
15.3633

> <Gold.Chemscore.DG>
-15.9176

> <Gold.Chemscore.ZeroCoef>
-5.4800

> <Gold.Chemscore.Hbond>
1.7556

> <Gold.Chemscore.Metal>
0.0000

> <Gold.Chemscore.Lipo>
60.9730

> <Gold.Chemscore.Internal_Hbond>
0.0000

> <Gold.Chemscore.DEClash>
0.0516

> <Gold.Chemscore.DEInternal>
0.5027

> <Gold.Chemscore.Rot>
1.0000

> <Gold.Chemscore.Internal.Correction>
   9.000000E+99

> <Gold.Chemscore.Hbonds>
donor molecule, donor type, donor heavy atom, donor atom, acceptor molecule, acceptor atom, score
      L1  H    15    32       P1  7948  0.50
      P1  H  7997  8010       L1     6  0.84

> <Gold.Chemscore.Hbond.Weighted>
-5.8638

> <Gold.Chemscore.Metal.Weighted>
-0.0000

> <Gold.Chemscore.Lipo.Weighted>
-7.1338

> <Gold.Chemscore.Internal_Hbond.Weighted>
0.0000

> <Gold.Chemscore.DEClash.Weighted>
0.0516

> <Gold.Chemscore.DEInternal.Weighted>
0.5027

> <Gold.Chemscore.Rot.Weighted>
2.5600

> <Gold.Chemscore.Internal.Correction.Weighted>
   9.000000E+99

> <Gold.Protein.RotatedTorsions>
[ 6907 6896 6895 6894 ] final -166.76 input  -60.11 | X-H torsion
[ 7974 7965 7964 7962 ] final  -62.99 input  175.53 | X-H torsion
[ 8008 7997 7996 7995 ] final   42.36 input   59.86 | X-H torsion
[ 10167 10162 10161 10158 ] final  -13.56 input  -65.29 | X-H torsion
[ 10718 10713 10712 10709 ] final   83.69 input   66.30 | X-H torsion
[ 10763 10752 10751 10750 ] final  160.49 input  -60.55 | X-H torsion
[ 11005 11000 10999 10996 ] final  129.22 input  -57.11 | X-H torsion

> <Gold.Protein.ActiveResidues>
 VAL166  LYS551  ARG553  GLY616  TRP617  ASP618  TYR619  PRO620  LYS621  CYS622 
 ASP623  PHE694  ASN695  SER759  ASP760  ASP761  ALA762  ILE779  LEU786  VAL792 
 PHE793  MET794  SER795  GLU796  ALA797  LYS798  CYS799  TRP800  GLU811  SER814 

> <Gold.Protein.RotatedAtoms>
  151.4487  133.3623  159.2791 H   0  0  0  0  0  0  0  0  0  0  0  0  # atno 6907 bound_to 6896
  150.9106  134.8524  159.7433 H   0  0  0  0  0  0  0  0  0  0  0  0  # atno 6908 bound_to 6896
  152.4930  134.4416  159.9597 H   0  0  0  0  0  0  0  0  0  0  0  0  # atno 6909 bound_to 6896
  145.7846  140.8743  143.0312 H   0  0  0  0  0  0  0  0  0  0  0  0  # atno 7974 bound_to 7965
  155.2849  140.3375  155.4256 H   0  0  0  0  0  0  0  0  0  0  0  0  # atno 8008 bound_to 7997
  156.2073  140.1756  156.7813 H   0  0  0  0  0  0  0  0  0  0  0  0  # atno 8009 bound_to 7997
  154.5638  140.0682  156.8844 H   0  0  0  0  0  0  0  0  0  0  0  0  # atno 8010 bound_to 7997
  140.7184  143.5414  150.9405 H   0  0  0  0  0  0  0  0  0  0  0  0  # atno 10167 bound_to 10162
  157.6884  131.0101  150.2561 H   0  0  0  0  0  0  0  0  0  0  0  0  # atno 10718 bound_to 10713
  154.2483  135.2772  155.2827 H   0  0  0  0  0  0  0  0  0  0  0  0  # atno 10763 bound_to 10752
  154.5487  135.5681  153.6906 H   0  0  0  0  0  0  0  0  0  0  0  0  # atno 10764 bound_to 10752
  152.9986  135.6269  154.2629 H   0  0  0  0  0  0  0  0  0  0  0  0  # atno 10765 bound_to 10752
  139.9604  134.9603  156.9117 H   0  0  0  0  0  0  0  0  0  0  0  0  # atno 11005 bound_to 11000
  144.6791  140.0037  143.7484 LP  0  0  0  0  0  0  0  0  0  0  0  0  # atno 17320 bound_to 7965
  146.0039  139.3114  143.0911 LP  0  0  0  0  0  0  0  0  0  0  0  0  # atno 17321 bound_to 7965
  139.9136  143.6690  152.3110 LP  0  0  0  0  0  0  0  0  0  0  0  0  # atno 17342 bound_to 10162
  139.7082  144.7624  151.1157 LP  0  0  0  0  0  0  0  0  0  0  0  0  # atno 17343 bound_to 10162
  156.3149  130.3777  149.7628 LP  0  0  0  0  0  0  0  0  0  0  0  0  # atno 17370 bound_to 10713
  156.5216  130.8217  151.3205 LP  0  0  0  0  0  0  0  0  0  0  0  0  # atno 17371 bound_to 10713
  140.5514  134.0623  155.7370 LP  0  0  0  0  0  0  0  0  0  0  0  0  # atno 17394 bound_to 11000
  141.1280  133.9350  157.2595 LP  0  0  0  0  0  0  0  0  0  0  0  0  # atno 17395 bound_to 11000

$$$$
