AV-unprocessed.smi:1641|AV-procd|sdf|6556|dock3
  -GOLD-   22720 7243D 1   1.00000     0.00000
 Structure written by MMmdl.
 41 42  0  0  0  0  0  0  0  0  1 V2000
  144.9239  133.6944  162.2576 C   0  0  0  0  0  0  0  0  0  0  0  0
  145.9252  134.4301  161.4342 C   0  0  0  0  0  0  0  0  0  0  0  0
  146.9894  133.8327  160.8843 N   0  0  0  0  0  0  0  0  0  0  0  0
  147.7762  134.7196  160.1625 N   0  0  0  0  0  0  0  0  0  0  0  0
  147.2798  135.9641  160.1895 C   0  0  0  0  0  0  0  0  0  0  0  0
  147.8844  137.0700  159.5351 N   0  0  0  0  0  0  0  0  0  0  0  0
  149.1413  137.1775  159.0695 C   0  0  0  0  0  0  0  0  0  0  0  0
  150.0062  136.3039  159.1434 O   0  0  0  0  0  0  0  0  0  0  0  0
  149.3499  138.3767  158.5074 N   0  0  0  0  0  0  0  0  0  0  0  0
  150.6095  138.8157  157.9191 C   0  0  0  0  0  0  0  0  0  0  0  0
  150.5686  140.3143  157.5659 C   0  0  0  0  0  0  0  0  0  0  0  0
  151.1258  141.2038  158.5832 N   0  0  0  0  0  0  0  0  0  0  0  0
  151.3730  142.5510  158.0746 C   0  0  0  0  0  0  0  0  0  0  0  0
  151.9849  143.4710  159.1490 C   0  0  2  0  0  0  0  0  0  0  0  0
  152.3291  144.8576  158.5953 C   0  0  0  0  0  0  0  0  0  0  0  0
  153.1816  142.8792  159.6474 O   0  0  0  0  0  0  0  0  0  0  0  0
  152.9816  141.5797  160.1966 C   0  0  2  0  0  0  0  0  0  0  0  0
  154.3309  141.0576  160.7015 C   0  0  0  0  0  0  0  0  0  0  0  0
  152.3726  140.6667  159.1160 C   0  0  0  0  0  0  0  0  0  0  0  0
  145.7933  136.1533  161.1037 S   0  0  0  0  0  0  0  0  0  0  0  0
  144.0963  133.3643  161.6296 H   0  0  0  0  0  0  0  0  0  0  0  0
  144.5326  134.3428  163.0416 H   0  0  0  0  0  0  0  0  0  0  0  0
  145.3809  132.8213  162.7248 H   0  0  0  0  0  0  0  0  0  0  0  0
  147.2901  137.8761  159.4107 H   0  0  0  0  0  0  0  0  0  0  0  0
  148.5854  139.0357  158.4877 H   0  0  0  0  0  0  0  0  0  0  0  0
  151.4261  138.5875  158.6050 H   0  0  0  0  0  0  0  0  0  0  0  0
  150.7847  138.2273  157.0179 H   0  0  0  0  0  0  0  0  0  0  0  0
  151.1291  140.4488  156.6395 H   0  0  0  0  0  0  0  0  0  0  0  0
  149.5436  140.6130  157.3407 H   0  0  0  0  0  0  0  0  0  0  0  0
  152.0414  142.5026  157.2134 H   0  0  0  0  0  0  0  0  0  0  0  0
  150.4436  142.9980  157.7234 H   0  0  0  0  0  0  0  0  0  0  0  0
  151.2788  143.5884  159.9731 H   0  0  0  0  0  0  0  0  0  0  0  0
  151.4409  145.3564  158.2067 H   0  0  0  0  0  0  0  0  0  0  0  0
  153.0566  144.7894  157.7858 H   0  0  0  0  0  0  0  0  0  0  0  0
  152.7541  145.4931  159.3726 H   0  0  0  0  0  0  0  0  0  0  0  0
  152.2958  141.6535  161.0423 H   0  0  0  0  0  0  0  0  0  0  0  0
  154.2284  140.0639  161.1381 H   0  0  0  0  0  0  0  0  0  0  0  0
  154.7418  141.7163  161.4669 H   0  0  0  0  0  0  0  0  0  0  0  0
  155.0574  140.9945  159.8910 H   0  0  0  0  0  0  0  0  0  0  0  0
  152.1955  139.6774  159.5396 H   0  0  0  0  0  0  0  0  0  0  0  0
  153.0918  140.5337  158.3058 H   0  0  0  0  0  0  0  0  0  0  0  0
  1  2  1  0  0  0  0
  1 21  1  0  0  0  0
  1 22  1  0  0  0  0
  1 23  1  0  0  0  0
  2 20  1  0  0  0  0
  2  3  2  0  0  0  0
  3  4  1  0  0  0  0
  4  5  2  0  0  0  0
  5  6  1  0  0  0  0
  5 20  1  0  0  0  0
  6  7  1  0  0  0  0
  6 24  1  0  0  0  0
  7  8  2  0  0  0  0
  7  9  1  0  0  0  0
  9 10  1  0  0  0  0
  9 25  1  0  0  0  0
 10 11  1  0  0  0  0
 10 26  1  0  0  0  0
 10 27  1  0  0  0  0
 11 12  1  0  0  0  0
 11 28  1  0  0  0  0
 11 29  1  0  0  0  0
 12 19  1  0  0  0  0
 12 13  1  0  0  0  0
 13 14  1  0  0  0  0
 13 30  1  0  0  0  0
 13 31  1  0  0  0  0
 14 15  1  0  0  0  0
 14 16  1  0  0  0  0
 14 32  1  0  0  0  0
 15 33  1  0  0  0  0
 15 34  1  0  0  0  0
 15 35  1  0  0  0  0
 16 17  1  0  0  0  0
 17 18  1  0  0  0  0
 17 19  1  0  0  0  0
 17 36  1  0  0  0  0
 18 37  1  0  0  0  0
 18 38  1  0  0  0  0
 18 39  1  0  0  0  0
 19 40  1  0  0  0  0
 19 41  1  0  0  0  0
M  END
> <s_m_source_file>
AV-unprocessed.smi

> <i_m_source_file_index>
1641

> <i_lp_mmshare_version>
43012

> <i_f3d_flags>
0

> <s_epik_input>
W0NIM11jMW5uYyhzMSlbTkhdQyg9TylbTkhdW0NIMl1bQ0gyXU4yW0NIMl1bQ0BASF0oW0NIM10pT1tDQEBIXShbQ0gzXSlbQ0gyXTI=

> <s_epik_cmdline>
J2VwaWtfcHl0aG9uJywgJy1waCcsICc3LjAnLCAnLXRuJywgJzgnLCAnLW1hJywgJzIwMCcsICctbWV0YWxfYmluZGluZycsICctaW1hZScsICc8aW5maWxlLm1hZT4nLCAnLW9tYWUnLCAnPG91dGZpbGUubWFlPic=

> <r_lp_tautomer_probability>
1

> <r_epik_Ionization_Penalty>
0.221104

> <r_epik_Ionization_Penalty_Charging>
0

> <r_epik_Ionization_Penalty_Neutral>
0.221104

> <r_epik_State_Penalty>
0.209349

> <r_epik_Charging_Adjusted_Penalty>
0.209349

> <i_epik_Tot_Q>
0

> <i_epik_Tot_abs_Q>
0

> <r_epik_Metal_State_Penalty>
0.560954

> <b_epik_Metal_Only>
0

> <s_lp_Force_Field>
OPLS_2005

> <r_lp_Energy>
18.567

> <b_lp_Chiralities_Consistent>
1

> <s_lp_Variant>
AV-unprocessed.smi:1641-1

> <Gold.Version>
5.8.1

> <Gold.Id.Protein>
6NUR|6NUR_protein|mol2

> <Gold.PLP.Fitness>
37.0378

> <Gold.PLP.PLP>
-34.9337

> <Gold.PLP.part.hbond>
-1.0000

> <Gold.PLP.part.metal>
0.0000

> <Gold.PLP.part.buried>
-6.7118

> <Gold.PLP.part.nonpolar>
-28.3640

> <Gold.PLP.part.repulsive>
0.3943

> <Gold.PLP.ligand.clash>
0.0000

> <Gold.PLP.ligand.torsion>
0.4591

> <Gold.PLP.Chemscore.Hbond>
1.0000

> <Gold.PLP.Chemscore.CHOScore>
0.0000

> <Gold.PLP.Chemscore.Metal>
0.0000

> <Gold.Chemscore.Hbonds>
donor molecule, donor type, donor heavy atom, donor atom, acceptor molecule, acceptor atom, score
      P1  H  6896  6909       L1     8  1.00

> <Gold.PLP.Chemscore.Internal.Correction>
0.0223

> <Gold.Rescore>
     Score         DG    S(hbond)    S(metal)    S(lipo)     H(rot)  DE(clash)    DE(int)     intcor
     13.71     -15.44       1.00        0.00      91.61       1.60       0.00       1.73       ----

> <Gold.Chemscore.Fitness>
13.7126

> <Gold.Chemscore.DG>
-15.4434

> <Gold.Chemscore.ZeroCoef>
-5.4800

> <Gold.Chemscore.Hbond>
0.9983

> <Gold.Chemscore.Metal>
0.0000

> <Gold.Chemscore.Lipo>
91.6134

> <Gold.Chemscore.Internal_Hbond>
0.0000

> <Gold.Chemscore.DEClash>
0.0021

> <Gold.Chemscore.DEInternal>
1.7286

> <Gold.Chemscore.Rot>
1.5975

> <Gold.Chemscore.Internal.Correction>
   9.000000E+99

> <Gold.Chemscore.Hbonds>
donor molecule, donor type, donor heavy atom, donor atom, acceptor molecule, acceptor atom, score
      P1  H  6896  6909       L1     8  1.00

> <Gold.Chemscore.Hbond.Weighted>
-3.3342

> <Gold.Chemscore.Metal.Weighted>
-0.0000

> <Gold.Chemscore.Lipo.Weighted>
-10.7188

> <Gold.Chemscore.Internal_Hbond.Weighted>
0.0000

> <Gold.Chemscore.DEClash.Weighted>
0.0021

> <Gold.Chemscore.DEInternal.Weighted>
1.7286

> <Gold.Chemscore.Rot.Weighted>
4.0896

> <Gold.Chemscore.Internal.Correction.Weighted>
   9.000000E+99

> <Gold.Protein.RotatedTorsions>
[ 6907 6896 6895 6894 ] final   64.71 input  -60.11 | X-H torsion
[ 7974 7965 7964 7962 ] final   24.71 input  175.53 | X-H torsion
[ 8008 7997 7996 7995 ] final  -15.17 input   59.86 | X-H torsion
[ 10167 10162 10161 10158 ] final -173.12 input  -65.29 | X-H torsion
[ 10718 10713 10712 10709 ] final -112.34 input   66.30 | X-H torsion
[ 10763 10752 10751 10750 ] final  172.06 input  -60.55 | X-H torsion
[ 11005 11000 10999 10996 ] final -117.45 input  -57.11 | X-H torsion

> <Gold.Protein.ActiveResidues>
 VAL166  LYS551  ARG553  GLY616  TRP617  ASP618  TYR619  PRO620  LYS621  CYS622 
 ASP623  PHE694  ASN695  SER759  ASP760  ASP761  ALA762  ILE779  LEU786  VAL792 
 PHE793  MET794  SER795  GLU796  ALA797  LYS798  CYS799  TRP800  GLU811  SER814 

> <Gold.Protein.RotatedAtoms>
  152.4352  134.5700  159.9918 H   0  0  0  0  0  0  0  0  0  0  0  0  # atno 6907 bound_to 6896
  151.5812  133.3372  159.3017 H   0  0  0  0  0  0  0  0  0  0  0  0  # atno 6908 bound_to 6896
  150.8250  134.7511  159.6869 H   0  0  0  0  0  0  0  0  0  0  0  0  # atno 6909 bound_to 6896
  146.1924  139.7567  142.8822 H   0  0  0  0  0  0  0  0  0  0  0  0  # atno 7974 bound_to 7965
  154.5152  140.2203  155.9080 H   0  0  0  0  0  0  0  0  0  0  0  0  # atno 8008 bound_to 7997
  156.1599  140.3144  155.8754 H   0  0  0  0  0  0  0  0  0  0  0  0  # atno 8009 bound_to 7997
  155.3773  140.0470  157.3035 H   0  0  0  0  0  0  0  0  0  0  0  0  # atno 8010 bound_to 7997
  139.5706  144.1650  152.1378 H   0  0  0  0  0  0  0  0  0  0  0  0  # atno 10167 bound_to 10162
  156.0700  130.5915  150.8495 H   0  0  0  0  0  0  0  0  0  0  0  0  # atno 10718 bound_to 10713
  154.4207  135.2758  155.1977 H   0  0  0  0  0  0  0  0  0  0  0  0  # atno 10763 bound_to 10752
  154.3924  135.6063  153.5854 H   0  0  0  0  0  0  0  0  0  0  0  0  # atno 10764 bound_to 10752
  152.9833  135.5906  154.4503 H   0  0  0  0  0  0  0  0  0  0  0  0  # atno 10765 bound_to 10752
  141.0354  133.9918  157.3079 H   0  0  0  0  0  0  0  0  0  0  0  0  # atno 11005 bound_to 11000
  145.3750  141.0349  143.3209 LP  0  0  0  0  0  0  0  0  0  0  0  0  # atno 17320 bound_to 7965
  144.8513  139.5318  143.6855 LP  0  0  0  0  0  0  0  0  0  0  0  0  # atno 17321 bound_to 7965
  140.1182  144.5396  150.6880 LP  0  0  0  0  0  0  0  0  0  0  0  0  # atno 17342 bound_to 10162
  140.6990  143.2422  151.4917 LP  0  0  0  0  0  0  0  0  0  0  0  0  # atno 17343 bound_to 10162
  157.5765  131.0946  150.9337 LP  0  0  0  0  0  0  0  0  0  0  0  0  # atno 17370 bound_to 10713
  156.9542  130.5431  149.5283 LP  0  0  0  0  0  0  0  0  0  0  0  0  # atno 17371 bound_to 10713
  139.9237  135.0201  156.8157 LP  0  0  0  0  0  0  0  0  0  0  0  0  # atno 17394 bound_to 11000
  140.6332  133.9887  155.7672 LP  0  0  0  0  0  0  0  0  0  0  0  0  # atno 17395 bound_to 11000

$$$$
