AV-unprocessed.smi:2025|AV-procd|sdf|8199|dock2
  -GOLD-   2272010453D 1   1.00000     0.00000
 Structure written by MMmdl.
 39 40  0  0  0  0  0  0  0  0  1 V2000
  150.8825  145.2890  159.6524 C   0  0  0  0  0  0  0  0  0  0  0  0
  151.7942  144.1627  159.1441 C   0  0  2  0  0  0  0  0  0  0  0  0
  150.9599  143.0390  158.7229 N   0  0  0  0  0  0  0  0  0  0  0  0
  150.8550  142.5602  157.4736 C   0  0  0  0  0  0  0  0  0  0  0  0
  151.4433  143.0471  156.5076 O   0  0  0  0  0  0  0  0  0  0  0  0
  149.9319  141.3492  157.2906 C   0  0  0  0  0  0  0  0  0  0  0  0
  150.6747  140.1190  156.9892 N   0  0  0  0  0  0  0  0  0  0  0  0
  151.0955  139.3014  158.0224 C   0  0  0  0  0  0  0  0  0  0  0  0
  151.7656  138.1445  157.8306 C   0  0  0  0  0  0  0  0  0  0  0  0
  152.0945  137.6854  156.4870 C   0  0  0  0  0  0  0  0  0  0  0  0
  152.6876  136.6301  156.2594 O   0  0  0  0  0  0  0  0  0  0  0  0
  151.6669  138.5461  155.4495 N   0  0  0  0  0  0  0  0  0  0  0  0
  151.9550  138.1327  154.0917 C   0  0  0  0  0  0  0  0  0  0  0  0
  150.9482  139.7465  155.6547 C   0  0  0  0  0  0  0  0  0  0  0  0
  150.5604  140.4507  154.7191 O   0  0  0  0  0  0  0  0  0  0  0  0
  152.8049  143.7133  160.2212 C   0  0  1  0  0  0  0  0  0  0  0  0
  152.2129  143.4652  161.6096 C   0  0  0  0  0  0  0  0  0  0  0  0
  153.2644  142.5772  162.2345 C   0  0  0  0  0  0  0  0  0  0  0  0
  153.7174  141.7248  161.0505 C   0  0  0  0  0  0  0  0  0  0  0  0
  153.3824  142.4585  159.8741 O   0  0  0  0  0  0  0  0  0  0  0  0
  151.4628  146.1646  159.9440 H   0  0  0  0  0  0  0  0  0  0  0  0
  150.3027  144.9711  160.5196 H   0  0  0  0  0  0  0  0  0  0  0  0
  150.1811  145.6054  158.8796 H   0  0  0  0  0  0  0  0  0  0  0  0
  152.3486  144.5507  158.2878 H   0  0  0  0  0  0  0  0  0  0  0  0
  150.4329  142.5738  159.4477 H   0  0  0  0  0  0  0  0  0  0  0  0
  149.3162  141.2052  158.1808 H   0  0  0  0  0  0  0  0  0  0  0  0
  149.2340  141.5730  156.4831 H   0  0  0  0  0  0  0  0  0  0  0  0
  150.8717  139.5970  159.0371 H   0  0  0  0  0  0  0  0  0  0  0  0
  152.0598  137.5489  158.6824 H   0  0  0  0  0  0  0  0  0  0  0  0
  151.8990  138.9827  153.4115 H   0  0  0  0  0  0  0  0  0  0  0  0
  151.2206  137.3696  153.8305 H   0  0  0  0  0  0  0  0  0  0  0  0
  152.9716  137.7374  154.0588 H   0  0  0  0  0  0  0  0  0  0  0  0
  153.6130  144.4425  160.3053 H   0  0  0  0  0  0  0  0  0  0  0  0
  152.0419  144.3831  162.1731 H   0  0  0  0  0  0  0  0  0  0  0  0
  151.2671  142.9267  161.5339 H   0  0  0  0  0  0  0  0  0  0  0  0
  154.0942  143.1848  162.5978 H   0  0  0  0  0  0  0  0  0  0  0  0
  152.8856  141.9842  163.0674 H   0  0  0  0  0  0  0  0  0  0  0  0
  154.7860  141.5117  161.0897 H   0  0  0  0  0  0  0  0  0  0  0  0
  153.1837  140.7741  161.0298 H   0  0  0  0  0  0  0  0  0  0  0  0
  1  2  1  0  0  0  0
  1 21  1  0  0  0  0
  1 22  1  0  0  0  0
  1 23  1  0  0  0  0
  2  3  1  0  0  0  0
  2 16  1  0  0  0  0
  2 24  1  0  0  0  0
  3  4  1  0  0  0  0
  3 25  1  0  0  0  0
  4  5  2  0  0  0  0
  4  6  1  0  0  0  0
  6  7  1  0  0  0  0
  6 26  1  0  0  0  0
  6 27  1  0  0  0  0
  7 14  1  0  0  0  0
  7  8  1  0  0  0  0
  8  9  2  0  0  0  0
  8 28  1  0  0  0  0
  9 10  1  0  0  0  0
  9 29  1  0  0  0  0
 10 11  2  0  0  0  0
 10 12  1  0  0  0  0
 12 13  1  0  0  0  0
 12 14  1  0  0  0  0
 13 30  1  0  0  0  0
 13 31  1  0  0  0  0
 13 32  1  0  0  0  0
 14 15  2  0  0  0  0
 16 20  1  0  0  0  0
 16 17  1  0  0  0  0
 16 33  1  0  0  0  0
 17 18  1  0  0  0  0
 17 34  1  0  0  0  0
 17 35  1  0  0  0  0
 18 19  1  0  0  0  0
 18 36  1  0  0  0  0
 18 37  1  0  0  0  0
 19 20  1  0  0  0  0
 19 38  1  0  0  0  0
 19 39  1  0  0  0  0
M  END
> <s_m_source_file>
AV-unprocessed.smi

> <i_m_source_file_index>
2025

> <i_lp_mmshare_version>
43012

> <i_f3d_flags>
0

> <s_epik_input>
TzFbQ0gyXVtDSDJdW0NIMl1bQ0BIXTFbQ0BIXShbQ0gzXSlbTkhdQyg9TylbQ0gyXW4yW2NIXVtjSF1jKD1PKW4oW0NIM10pYzI9Tw==

> <s_epik_cmdline>
J2VwaWtfcHl0aG9uJywgJy1waCcsICc3LjAnLCAnLXRuJywgJzgnLCAnLW1hJywgJzIwMCcsICctbWV0YWxfYmluZGluZycsICctaW1hZScsICc8aW5maWxlLm1hZT4nLCAnLW9tYWUnLCAnPG91dGZpbGUubWFlPic=

> <r_lp_tautomer_probability>
1

> <r_epik_Ionization_Penalty>
3.54787e-08

> <r_epik_Ionization_Penalty_Charging>
1.24654e-08

> <r_epik_Ionization_Penalty_Neutral>
2.30132e-08

> <r_epik_State_Penalty>
-0

> <r_epik_Charging_Adjusted_Penalty>
1.24654e-08

> <i_epik_Tot_Q>
0

> <i_epik_Tot_abs_Q>
0

> <r_epik_Metal_State_Penalty>
-0

> <b_epik_Metal_Only>
0

> <s_lp_Force_Field>
OPLS_2005

> <r_lp_Energy>
25.1152

> <b_lp_Chiralities_Consistent>
1

> <s_lp_Variant>
AV-unprocessed.smi:2025-3

> <Gold.Version>
5.8.1

> <Gold.Id.Protein>
6NUR|6NUR_protein|mol2

> <Gold.PLP.Fitness>
45.0729

> <Gold.PLP.PLP>
-40.4623

> <Gold.PLP.part.hbond>
-2.0000

> <Gold.PLP.part.metal>
0.0000

> <Gold.PLP.part.buried>
-4.8323

> <Gold.PLP.part.nonpolar>
-33.0350

> <Gold.PLP.part.repulsive>
0.2805

> <Gold.PLP.ligand.clash>
0.0000

> <Gold.PLP.ligand.torsion>
0.7004

> <Gold.PLP.Chemscore.Hbond>
2.0000

> <Gold.PLP.Chemscore.CHOScore>
0.0000

> <Gold.PLP.Chemscore.Metal>
0.0000

> <Gold.Chemscore.Hbonds>
donor molecule, donor type, donor heavy atom, donor atom, acceptor molecule, acceptor atom, score
      P1  H  7989  7998       L1    15  1.00
      P1  H 10752 10765       L1    11  1.00

> <Gold.PLP.Chemscore.Internal.Correction>
0.0114

> <Gold.Rescore>
     Score         DG    S(hbond)    S(metal)    S(lipo)     H(rot)  DE(clash)    DE(int)     intcor
     16.39     -17.92       1.96        0.00      90.39       1.82       1.04       0.49       ----

> <Gold.Chemscore.Fitness>
16.3864

> <Gold.Chemscore.DG>
-17.9235

> <Gold.Chemscore.ZeroCoef>
-5.4800

> <Gold.Chemscore.Hbond>
1.9565

> <Gold.Chemscore.Metal>
0.0000

> <Gold.Chemscore.Lipo>
90.3877

> <Gold.Chemscore.Internal_Hbond>
0.0000

> <Gold.Chemscore.DEClash>
1.0424

> <Gold.Chemscore.DEInternal>
0.4947

> <Gold.Chemscore.Rot>
1.8228

> <Gold.Chemscore.Internal.Correction>
   9.000000E+99

> <Gold.Chemscore.Hbonds>
donor molecule, donor type, donor heavy atom, donor atom, acceptor molecule, acceptor atom, score
      P1  H  7989  7998       L1    15  0.95
      P1  H 10752 10765       L1    11  0.95

> <Gold.Chemscore.Hbond.Weighted>
-6.5346

> <Gold.Chemscore.Metal.Weighted>
-0.0000

> <Gold.Chemscore.Lipo.Weighted>
-10.5754

> <Gold.Chemscore.Internal_Hbond.Weighted>
0.0000

> <Gold.Chemscore.DEClash.Weighted>
1.0424

> <Gold.Chemscore.DEInternal.Weighted>
0.4947

> <Gold.Chemscore.Rot.Weighted>
4.6665

> <Gold.Chemscore.Internal.Correction.Weighted>
   9.000000E+99

> <Gold.Protein.RotatedTorsions>
[ 6907 6896 6895 6894 ] final  108.44 input  -60.11 | X-H torsion
[ 7974 7965 7964 7962 ] final  137.34 input  175.53 | X-H torsion
[ 8008 7997 7996 7995 ] final  157.35 input   59.86 | X-H torsion
[ 10167 10162 10161 10158 ] final -158.54 input  -65.29 | X-H torsion
[ 10718 10713 10712 10709 ] final   12.86 input   66.30 | X-H torsion
[ 10763 10752 10751 10750 ] final -138.44 input  -60.55 | X-H torsion
[ 11005 11000 10999 10996 ] final   33.31 input  -57.11 | X-H torsion

> <Gold.Protein.ActiveResidues>
 VAL166  LYS551  ARG553  GLY616  TRP617  ASP618  TYR619  PRO620  LYS621  CYS622 
 ASP623  PHE694  ASN695  SER759  ASP760  ASP761  ALA762  ILE779  LEU786  VAL792 
 PHE793  MET794  SER795  GLU796  ALA797  LYS798  CYS799  TRP800  GLU811  SER814 

> <Gold.Protein.RotatedAtoms>
  152.5112  133.9089  159.7477 H   0  0  0  0  0  0  0  0  0  0  0  0  # atno 6907 bound_to 6896
  150.9487  133.6565  159.2783 H   0  0  0  0  0  0  0  0  0  0  0  0  # atno 6908 bound_to 6896
  151.3851  135.0951  159.9561 H   0  0  0  0  0  0  0  0  0  0  0  0  # atno 6909 bound_to 6896
  144.9477  139.4855  143.5541 H   0  0  0  0  0  0  0  0  0  0  0  0  # atno 7974 bound_to 7965
  156.2369  140.1888  156.7094 H   0  0  0  0  0  0  0  0  0  0  0  0  # atno 8008 bound_to 7997
  154.6123  140.0620  156.9537 H   0  0  0  0  0  0  0  0  0  0  0  0  # atno 8009 bound_to 7997
  155.1995  140.3291  155.4348 H   0  0  0  0  0  0  0  0  0  0  0  0  # atno 8010 bound_to 7997
  139.6684  143.9789  152.2269 H   0  0  0  0  0  0  0  0  0  0  0  0  # atno 10167 bound_to 10162
  157.0162  130.6137  149.5715 H   0  0  0  0  0  0  0  0  0  0  0  0  # atno 10718 bound_to 10713
  154.8636  135.3612  154.5386 H   0  0  0  0  0  0  0  0  0  0  0  0  # atno 10763 bound_to 10752
  153.6008  135.7012  153.5390 H   0  0  0  0  0  0  0  0  0  0  0  0  # atno 10764 bound_to 10752
  153.3292  135.4129  155.1443 H   0  0  0  0  0  0  0  0  0  0  0  0  # atno 10765 bound_to 10752
  140.2644  134.3155  155.7847 H   0  0  0  0  0  0  0  0  0  0  0  0  # atno 11005 bound_to 11000
  146.3309  139.8541  142.8868 LP  0  0  0  0  0  0  0  0  0  0  0  0  # atno 17320 bound_to 7965
  145.2892  141.0162  143.3673 LP  0  0  0  0  0  0  0  0  0  0  0  0  # atno 17321 bound_to 7965
  139.9546  144.6598  150.8138 LP  0  0  0  0  0  0  0  0  0  0  0  0  # atno 17342 bound_to 10162
  140.7608  143.3160  151.2732 LP  0  0  0  0  0  0  0  0  0  0  0  0  # atno 17343 bound_to 10162
  156.0118  130.5210  150.8012 LP  0  0  0  0  0  0  0  0  0  0  0  0  # atno 17370 bound_to 10713
  157.5283  131.0935  150.9988 LP  0  0  0  0  0  0  0  0  0  0  0  0  # atno 17371 bound_to 10713
  141.2186  133.7429  156.9237 LP  0  0  0  0  0  0  0  0  0  0  0  0  # atno 17394 bound_to 11000
  140.1433  134.9279  157.2496 LP  0  0  0  0  0  0  0  0  0  0  0  0  # atno 17395 bound_to 11000

$$$$
