AV-unprocessed.smi:3150|AV-procd|sdf|12009|dock2
  -GOLD-   2272017413D 1   1.00000     0.00000
 Structure written by MMmdl.
 33 34  0  0  0  0  0  0  0  0  3 V2000
  151.7912  138.2291  154.6680 C   0  0  0  0  0  0  0  0  0  0  0  0
  150.8235  139.1654  155.4066 C   0  0  2  0  0  0  0  0  0  0  0  0
  150.1117  139.9090  154.4211 O   0  0  0  0  0  0  0  0  0  0  0  0
  148.6939  139.8468  154.5153 C   0  0  0  0  0  0  0  0  0  0  0  0
  148.1205  141.1811  154.0899 C   0  0  0  0  0  0  0  0  0  0  0  0
  147.2571  141.9876  155.0336 C   0  0  0  0  0  0  0  0  0  0  0  0
  146.6387  141.3265  153.8281 C   0  0  0  0  0  0  0  0  0  0  0  0
  151.5796  140.1132  156.3514 C   0  0  0  0  0  0  0  0  0  0  0  0
  152.7768  139.9260  156.5740 O   0  0  0  0  0  0  0  0  0  0  0  0
  150.8531  141.1202  156.8707 N   0  0  0  0  0  0  0  0  0  0  0  0
  151.2635  142.1453  157.7674 C   0  0  0  0  0  0  0  0  0  0  0  0
  150.8743  143.4362  157.6161 N   0  3  0  0  0  0  0  0  0  0  0  0
  151.2476  144.4318  158.4486 C   0  0  0  0  0  0  0  0  0  0  0  0
  152.0863  144.1508  159.5442 C   0  0  0  0  0  0  0  0  0  0  0  0
  152.5193  142.8259  159.7494 C   0  0  0  0  0  0  0  0  0  0  0  0
  152.1060  141.8144  158.8565 C   0  0  0  0  0  0  0  0  0  0  0  0
  152.5269  140.5292  159.0562 O   0  5  0  0  0  0  0  0  0  0  0  0
  152.3773  137.6320  155.3675 H   0  0  0  0  0  0  0  0  0  0  0  0
  152.4859  138.7846  154.0367 H   0  0  0  0  0  0  0  0  0  0  0  0
  151.2445  137.5389  154.0253 H   0  0  0  0  0  0  0  0  0  0  0  0
  150.1203  138.5533  155.9749 H   0  0  0  0  0  0  0  0  0  0  0  0
  148.3041  139.0714  153.8547 H   0  0  0  0  0  0  0  0  0  0  0  0
  148.3687  139.6175  155.5308 H   0  0  0  0  0  0  0  0  0  0  0  0
  148.7734  141.7493  153.4298 H   0  0  0  0  0  0  0  0  0  0  0  0
  147.0355  141.5606  156.0097 H   0  0  0  0  0  0  0  0  0  0  0  0
  147.3678  143.0698  155.0129 H   0  0  0  0  0  0  0  0  0  0  0  0
  146.3358  141.9673  153.0025 H   0  0  0  0  0  0  0  0  0  0  0  0
  146.0043  140.4596  154.0021 H   0  0  0  0  0  0  0  0  0  0  0  0
  149.8803  141.1579  156.6011 H   0  0  0  0  0  0  0  0  0  0  0  0
  150.8660  145.4147  158.2141 H   0  0  0  0  0  0  0  0  0  0  0  0
  152.3928  144.9375  160.2174 H   0  0  0  0  0  0  0  0  0  0  0  0
  153.1628  142.5899  160.5846 H   0  0  0  0  0  0  0  0  0  0  0  0
  150.2667  143.6654  156.8288 H   0  0  0  0  0  0  0  0  0  0  0  0
  1  2  1  0  0  0  0
  1 18  1  0  0  0  0
  1 19  1  0  0  0  0
  1 20  1  0  0  0  0
  2  3  1  0  0  0  0
  2  8  1  0  0  0  0
  2 21  1  0  0  0  0
  3  4  1  0  0  0  0
  4  5  1  0  0  0  0
  4 22  1  0  0  0  0
  4 23  1  0  0  0  0
  5  7  1  0  0  0  0
  5  6  1  0  0  0  0
  5 24  1  0  0  0  0
  6  7  1  0  0  0  0
  6 25  1  0  0  0  0
  6 26  1  0  0  0  0
  7 27  1  0  0  0  0
  7 28  1  0  0  0  0
  8  9  2  0  0  0  0
  8 10  1  0  0  0  0
 10 29  1  0  0  0  0
 10 11  1  0  0  0  0
 11 16  2  0  0  0  0
 11 12  1  0  0  0  0
 12 33  1  0  0  0  0
 12 13  2  0  0  0  0
 13 30  1  0  0  0  0
 13 14  1  0  0  0  0
 14 31  1  0  0  0  0
 14 15  2  0  0  0  0
 15 16  1  0  0  0  0
 15 32  1  0  0  0  0
 16 17  1  0  0  0  0
M  CHG  1  12   1
M  CHG  1  17  -1
M  END
> <s_m_source_file>
AV-unprocessed.smi

> <i_m_source_file_index>
3150

> <i_lp_mmshare_version>
43012

> <i_f3d_flags>
0

> <s_epik_input>
W0NIMl0xW0NIMl1bQ0hdMVtDSDJdT1tDQEBIXShbQ0gzXSlDKD1PKVtOSF1jMm5bY0hdW2NIXVtjSF1jMltPSF0=

> <s_epik_cmdline>
J2VwaWtfcHl0aG9uJywgJy1waCcsICc3LjAnLCAnLXRuJywgJzgnLCAnLW1hJywgJzIwMCcsICctbWV0YWxfYmluZGluZycsICctaW1hZScsICc8aW5maWxlLm1hZT4nLCAnLW9tYWUnLCAnPG91dGZpbGUubWFlPic=

> <r_lp_tautomer_probability>
0.56342

> <r_epik_Ionization_Penalty>
0.213151

> <r_epik_Ionization_Penalty_Charging>
0.0249427

> <r_epik_Ionization_Penalty_Neutral>
0.188209

> <r_epik_State_Penalty>
0.538305

> <r_epik_Charging_Adjusted_Penalty>
0.563248

> <i_epik_Tot_Q>
0

> <i_epik_Tot_abs_Q>
2

> <r_epik_Metal_State_Penalty>
2.57454

> <b_epik_Metal_Only>
0

> <s_lp_Force_Field>
OPLS_2005

> <r_lp_Energy>
15.508

> <b_lp_Chiralities_Consistent>
1

> <s_lp_Variant>
AV-unprocessed.smi:3150-3

> <Gold.Version>
5.8.1

> <Gold.Id.Protein>
6NUR|6NUR_protein|mol2

> <Gold.PLP.Fitness>
47.8752

> <Gold.PLP.PLP>
-38.5053

> <Gold.PLP.part.hbond>
-3.0000

> <Gold.PLP.part.metal>
0.0000

> <Gold.PLP.part.buried>
-2.8243

> <Gold.PLP.part.nonpolar>
-32.2692

> <Gold.PLP.part.repulsive>
0.1940

> <Gold.PLP.ligand.clash>
0.0000

> <Gold.PLP.ligand.torsion>
1.9005

> <Gold.PLP.Chemscore.Hbond>
4.0000

> <Gold.PLP.Chemscore.CHOScore>
0.0000

> <Gold.PLP.Chemscore.Metal>
0.0000

> <Gold.Chemscore.Hbonds>
donor molecule, donor type, donor heavy atom, donor atom, acceptor molecule, acceptor atom, score
      L1  H    12    33       P1  8028  1.76
      P1  H  7989  7998       L1     3  1.00
      P1  H  7997  8010       L1     9  1.00

> <Gold.PLP.Chemscore.Internal.Correction>
1.1710

> <Gold.Rescore>
     Score         DG    S(hbond)    S(metal)    S(lipo)     H(rot)  DE(clash)    DE(int)     intcor
     14.86     -20.55       2.70        0.00      88.44       1.68       0.50       5.18       ----

> <Gold.Chemscore.Fitness>
14.8611

> <Gold.Chemscore.DG>
-20.5460

> <Gold.Chemscore.ZeroCoef>
-5.4800

> <Gold.Chemscore.Hbond>
2.7030

> <Gold.Chemscore.Metal>
0.0000

> <Gold.Chemscore.Lipo>
88.4377

> <Gold.Chemscore.Internal_Hbond>
0.0000

> <Gold.Chemscore.DEClash>
0.5000

> <Gold.Chemscore.DEInternal>
5.1849

> <Gold.Chemscore.Rot>
1.6833

> <Gold.Chemscore.Internal.Correction>
   9.000000E+99

> <Gold.Chemscore.Hbonds>
donor molecule, donor type, donor heavy atom, donor atom, acceptor molecule, acceptor atom, score
      L1  H    12    33       P1  8028  0.85
      P1  H  7989  7998       L1     3  0.32
      P1  H  7997  8010       L1     9  0.98

> <Gold.Chemscore.Hbond.Weighted>
-9.0282

> <Gold.Chemscore.Metal.Weighted>
-0.0000

> <Gold.Chemscore.Lipo.Weighted>
-10.3472

> <Gold.Chemscore.Internal_Hbond.Weighted>
0.0000

> <Gold.Chemscore.DEClash.Weighted>
0.5000

> <Gold.Chemscore.DEInternal.Weighted>
5.1849

> <Gold.Chemscore.Rot.Weighted>
4.3094

> <Gold.Chemscore.Internal.Correction.Weighted>
   9.000000E+99

> <Gold.Protein.RotatedTorsions>
[ 6907 6896 6895 6894 ] final   -0.75 input  -60.11 | X-H torsion
[ 7974 7965 7964 7962 ] final  -82.53 input  175.53 | X-H torsion
[ 8008 7997 7996 7995 ] final   65.10 input   59.86 | X-H torsion
[ 10167 10162 10161 10158 ] final    4.64 input  -65.29 | X-H torsion
[ 10718 10713 10712 10709 ] final -101.24 input   66.30 | X-H torsion
[ 10763 10752 10751 10750 ] final  -56.88 input  -60.55 | X-H torsion
[ 11005 11000 10999 10996 ] final  -90.40 input  -57.11 | X-H torsion

> <Gold.Protein.ActiveResidues>
 VAL166  LYS551  ARG553  GLY616  TRP617  ASP618  TYR619  PRO620  LYS621  CYS622 
 ASP623  PHE694  ASN695  SER759  ASP760  ASP761  ALA762  ILE779  LEU786  VAL792 
 PHE793  MET794  SER795  GLU796  ALA797  LYS798  CYS799  TRP800  GLU811  SER814 

> <Gold.Protein.RotatedAtoms>
  151.5573  135.1066  159.9963 H   0  0  0  0  0  0  0  0  0  0  0  0  # atno 6907 bound_to 6896
  152.4463  133.7539  159.6720 H   0  0  0  0  0  0  0  0  0  0  0  0  # atno 6908 bound_to 6896
  150.8380  133.7914  159.3096 H   0  0  0  0  0  0  0  0  0  0  0  0  # atno 6909 bound_to 6896
  145.5321  140.9520  143.1597 H   0  0  0  0  0  0  0  0  0  0  0  0  # atno 7974 bound_to 7965
  155.6564  140.3497  155.4766 H   0  0  0  0  0  0  0  0  0  0  0  0  # atno 8008 bound_to 7997
  155.9805  140.1173  157.0754 H   0  0  0  0  0  0  0  0  0  0  0  0  # atno 8009 bound_to 7997
  154.4190  140.1139  156.5415 H   0  0  0  0  0  0  0  0  0  0  0  0  # atno 8010 bound_to 7997
  140.6524  143.7512  150.7597 H   0  0  0  0  0  0  0  0  0  0  0  0  # atno 10167 bound_to 10162
  156.0188  130.5364  150.6935 H   0  0  0  0  0  0  0  0  0  0  0  0  # atno 10718 bound_to 10713
  154.2136  135.6390  153.5123 H   0  0  0  0  0  0  0  0  0  0  0  0  # atno 10763 bound_to 10752
  152.9984  135.5480  154.6188 H   0  0  0  0  0  0  0  0  0  0  0  0  # atno 10764 bound_to 10752
  154.5631  135.2910  155.0873 H   0  0  0  0  0  0  0  0  0  0  0  0  # atno 10765 bound_to 10752
  141.1566  133.7690  156.9732 H   0  0  0  0  0  0  0  0  0  0  0  0  # atno 11005 bound_to 11000
  144.7621  139.6933  143.7230 LP  0  0  0  0  0  0  0  0  0  0  0  0  # atno 17320 bound_to 7965
  146.2037  139.5348  142.9726 LP  0  0  0  0  0  0  0  0  0  0  0  0  # atno 17321 bound_to 7965
  140.1165  143.4651  152.2339 LP  0  0  0  0  0  0  0  0  0  0  0  0  # atno 17342 bound_to 10162
  139.5741  144.7478  151.3812 LP  0  0  0  0  0  0  0  0  0  0  0  0  # atno 17343 bound_to 10162
  157.4611  131.0883  151.0745 LP  0  0  0  0  0  0  0  0  0  0  0  0  # atno 17370 bound_to 10713
  157.1232  130.6071  149.5510 LP  0  0  0  0  0  0  0  0  0  0  0  0  # atno 17371 bound_to 10713
  140.1115  134.9474  157.2072 LP  0  0  0  0  0  0  0  0  0  0  0  0  # atno 17394 bound_to 11000
  140.3187  134.2940  155.7251 LP  0  0  0  0  0  0  0  0  0  0  0  0  # atno 17395 bound_to 11000

$$$$
