AV-unprocessed.smi:2693|AV-procd|sdf|10398|dock9
  -GOLD-   2272014433D 1   1.00000     0.00000
 Structure written by MMmdl.
 45 47  0  0  0  0  0  0  0  0  1 V2000
  151.0965  142.5537  156.5097 C   0  0  0  0  0  0  0  0  0  0  0  0
  150.8863  141.2244  157.0757 N   0  0  0  0  0  0  0  0  0  0  0  0
  151.3658  140.9839  158.4335 C   0  0  0  0  0  0  0  0  0  0  0  0
  150.2494  140.2180  156.3438 C   0  0  0  0  0  0  0  0  0  0  0  0
  150.4385  140.2046  155.0175 N   0  0  0  0  0  0  0  0  0  0  0  0
  149.8288  139.2313  154.3085 C   0  0  0  0  0  0  0  0  0  0  0  0
  149.0123  138.2600  154.9218 C   0  0  0  0  0  0  0  0  0  0  0  0
  148.4202  137.2479  154.1197 N   0  0  0  0  0  0  0  0  0  0  0  0
  147.3343  136.5037  154.3882 C   0  0  0  0  0  0  0  0  0  0  0  0
  146.5935  136.6510  155.3598 O   0  0  0  0  0  0  0  0  0  0  0  0
  147.1385  135.5718  153.4465 N   0  0  0  0  0  0  0  0  0  0  0  0
  146.0607  134.5900  153.4748 C   0  0  1  0  0  0  0  0  0  0  0  0
  145.5509  134.2386  152.0770 C   0  0  2  0  0  0  0  0  0  0  0  0
  144.2710  134.4443  151.3486 C   0  0  0  0  0  0  0  0  0  0  0  0
  144.1163  133.0079  150.7807 C   0  0  0  0  0  0  0  0  0  0  0  0
  145.1129  132.2031  151.4574 O   0  0  0  0  0  0  0  0  0  0  0  0
  145.3051  132.8720  152.6867 C   0  0  1  0  0  0  0  0  0  0  0  0
  146.5666  133.0990  153.5430 C   0  0  0  0  0  0  0  0  0  0  0  0
  147.9298  132.7244  152.9262 C   0  0  0  0  0  0  0  0  0  0  0  0
  146.5350  132.4598  154.9317 C   0  0  0  0  0  0  0  0  0  0  0  0
  148.8861  138.3620  156.3278 C   0  0  0  0  0  0  0  0  0  0  0  0
  149.5033  139.3390  157.0256 N   0  0  0  0  0  0  0  0  0  0  0  0
  151.7511  142.4959  155.6395 H   0  0  0  0  0  0  0  0  0  0  0  0
  151.5542  143.2345  157.2275 H   0  0  0  0  0  0  0  0  0  0  0  0
  150.1468  142.9900  156.1986 H   0  0  0  0  0  0  0  0  0  0  0  0
  152.0512  140.1357  158.4522 H   0  0  0  0  0  0  0  0  0  0  0  0
  150.5294  140.7648  159.0978 H   0  0  0  0  0  0  0  0  0  0  0  0
  151.8970  141.8459  158.8371 H   0  0  0  0  0  0  0  0  0  0  0  0
  149.9960  139.2300  153.2414 H   0  0  0  0  0  0  0  0  0  0  0  0
  148.8743  137.0737  153.2350 H   0  0  0  0  0  0  0  0  0  0  0  0
  147.7864  135.5218  152.6743 H   0  0  0  0  0  0  0  0  0  0  0  0
  145.2569  134.8261  154.1782 H   0  0  0  0  0  0  0  0  0  0  0  0
  146.3749  134.2457  151.3597 H   0  0  0  0  0  0  0  0  0  0  0  0
  143.4550  134.7074  152.0232 H   0  0  0  0  0  0  0  0  0  0  0  0
  144.3442  135.1988  150.5650 H   0  0  0  0  0  0  0  0  0  0  0  0
  143.1159  132.6193  150.9749 H   0  0  0  0  0  0  0  0  0  0  0  0
  144.2901  132.9738  149.7048 H   0  0  0  0  0  0  0  0  0  0  0  0
  144.3990  132.8178  153.3012 H   0  0  0  0  0  0  0  0  0  0  0  0
  148.0284  131.6433  152.8233 H   0  0  0  0  0  0  0  0  0  0  0  0
  148.7548  133.0647  153.5528 H   0  0  0  0  0  0  0  0  0  0  0  0
  148.0962  133.1469  151.9371 H   0  0  0  0  0  0  0  0  0  0  0  0
  146.6068  131.3734  154.8737 H   0  0  0  0  0  0  0  0  0  0  0  0
  145.6105  132.6943  155.4600 H   0  0  0  0  0  0  0  0  0  0  0  0
  147.3573  132.8123  155.5548 H   0  0  0  0  0  0  0  0  0  0  0  0
  148.3165  137.6608  156.9172 H   0  0  0  0  0  0  0  0  0  0  0  0
  1  2  1  0  0  0  0
  1 23  1  0  0  0  0
  1 24  1  0  0  0  0
  1 25  1  0  0  0  0
  2  3  1  0  0  0  0
  2  4  1  0  0  0  0
  3 26  1  0  0  0  0
  3 27  1  0  0  0  0
  3 28  1  0  0  0  0
  4 22  1  0  0  0  0
  4  5  2  0  0  0  0
  5  6  1  0  0  0  0
  6  7  2  0  0  0  0
  6 29  1  0  0  0  0
  7  8  1  0  0  0  0
  7 21  1  0  0  0  0
  8  9  1  0  0  0  0
  8 30  1  0  0  0  0
  9 10  2  0  0  0  0
  9 11  1  0  0  0  0
 11 12  1  0  0  0  0
 11 31  1  0  0  0  0
 12 18  1  0  0  0  0
 12 13  1  0  0  0  0
 12 32  1  0  0  0  0
 13 17  1  0  0  0  0
 13 14  1  0  0  0  0
 13 33  1  0  0  0  0
 14 15  1  0  0  0  0
 14 34  1  0  0  0  0
 14 35  1  0  0  0  0
 15 16  1  0  0  0  0
 15 36  1  0  0  0  0
 15 37  1  0  0  0  0
 16 17  1  0  0  0  0
 17 18  1  0  0  0  0
 17 38  1  0  0  0  0
 18 19  1  0  0  0  0
 18 20  1  0  0  0  0
 19 39  1  0  0  0  0
 19 40  1  0  0  0  0
 19 41  1  0  0  0  0
 20 42  1  0  0  0  0
 20 43  1  0  0  0  0
 20 44  1  0  0  0  0
 21 22  2  0  0  0  0
 21 45  1  0  0  0  0
M  END
> <s_m_source_file>
AV-unprocessed.smi

> <i_m_source_file_index>
2693

> <i_lp_mmshare_version>
43012

> <i_f3d_flags>
0

> <s_epik_input>
W0NIM11OKFtDSDNdKWMxbltjSF1jKFtjSF1uMSlbTkhdQyg9TylbTkhdW0NASF0yQyhbQ0gzXSkoW0NIM10pW0NAQEhdKFtDQEhdMjMpT1tDSDJdW0NIMl0z

> <s_epik_cmdline>
J2VwaWtfcHl0aG9uJywgJy1waCcsICc3LjAnLCAnLXRuJywgJzgnLCAnLW1hJywgJzIwMCcsICctbWV0YWxfYmluZGluZycsICctaW1hZScsICc8aW5maWxlLm1hZT4nLCAnLW9tYWUnLCAnPG91dGZpbGUubWFlPic=

> <r_lp_tautomer_probability>
1

> <r_epik_Ionization_Penalty>
0.00031779

> <r_epik_Ionization_Penalty_Charging>
0

> <r_epik_Ionization_Penalty_Neutral>
0.00031779

> <r_epik_State_Penalty>
-0

> <r_epik_Charging_Adjusted_Penalty>
0

> <i_epik_Tot_Q>
0

> <i_epik_Tot_abs_Q>
0

> <r_epik_Metal_State_Penalty>
-0

> <b_epik_Metal_Only>
0

> <s_lp_Force_Field>
OPLS_2005

> <r_lp_Energy>
52.7678

> <b_lp_Chiralities_Consistent>
1

> <s_lp_Variant>
AV-unprocessed.smi:2693-2

> <Gold.Version>
5.8.1

> <Gold.Id.Protein>
6NUR|6NUR_protein|mol2

> <Gold.PLP.Fitness>
36.4990

> <Gold.PLP.PLP>
-26.2529

> <Gold.PLP.part.hbond>
-2.7340

> <Gold.PLP.part.metal>
0.0000

> <Gold.PLP.part.buried>
-3.4954

> <Gold.PLP.part.nonpolar>
-20.2409

> <Gold.PLP.part.repulsive>
0.2137

> <Gold.PLP.ligand.clash>
0.0000

> <Gold.PLP.ligand.torsion>
0.7497

> <Gold.PLP.Chemscore.Hbond>
2.8260

> <Gold.PLP.Chemscore.CHOScore>
1.0000

> <Gold.PLP.Chemscore.Metal>
0.0000

> <Gold.Chemscore.Hbonds>
donor molecule, donor type, donor heavy atom, donor atom, acceptor molecule, acceptor atom, score
      L1  H     8    30       P1  7948  1.00
      L1  H    11    31       P1  7948  0.98
      P1  H  7989  7998       L1     5  0.78
      L1  C     6    29       P1  7957  1.00

> <Gold.PLP.Chemscore.Internal.Correction>
0.2675

> <Gold.Rescore>
     Score         DG    S(hbond)    S(metal)    S(lipo)     H(rot)  DE(clash)    DE(int)     intcor
     15.62     -17.49       2.23        0.00      60.90       1.00       0.25       1.61       ----

> <Gold.Chemscore.Fitness>
15.6213

> <Gold.Chemscore.DG>
-17.4887

> <Gold.Chemscore.ZeroCoef>
-5.4800

> <Gold.Chemscore.Hbond>
2.2286

> <Gold.Chemscore.Metal>
0.0000

> <Gold.Chemscore.Lipo>
60.9002

> <Gold.Chemscore.Internal_Hbond>
0.0000

> <Gold.Chemscore.DEClash>
0.2539

> <Gold.Chemscore.DEInternal>
1.6134

> <Gold.Chemscore.Rot>
1.0000

> <Gold.Chemscore.Internal.Correction>
   9.000000E+99

> <Gold.Chemscore.Hbonds>
donor molecule, donor type, donor heavy atom, donor atom, acceptor molecule, acceptor atom, score
      L1  H     8    30       P1  7948  0.94
      L1  H    11    31       P1  7948  0.90
      P1  H  7989  7998       L1     5  0.11

> <Gold.Chemscore.Hbond.Weighted>
-7.4434

> <Gold.Chemscore.Metal.Weighted>
-0.0000

> <Gold.Chemscore.Lipo.Weighted>
-7.1253

> <Gold.Chemscore.Internal_Hbond.Weighted>
0.0000

> <Gold.Chemscore.DEClash.Weighted>
0.2539

> <Gold.Chemscore.DEInternal.Weighted>
1.6134

> <Gold.Chemscore.Rot.Weighted>
2.5600

> <Gold.Chemscore.Internal.Correction.Weighted>
   9.000000E+99

> <Gold.Protein.RotatedTorsions>
[ 6907 6896 6895 6894 ] final  166.15 input  -60.11 | X-H torsion
[ 7974 7965 7964 7962 ] final   42.70 input  175.53 | X-H torsion
[ 8008 7997 7996 7995 ] final   67.11 input   59.86 | X-H torsion
[ 10167 10162 10161 10158 ] final  127.75 input  -65.29 | X-H torsion
[ 10718 10713 10712 10709 ] final  -96.09 input   66.30 | X-H torsion
[ 10763 10752 10751 10750 ] final  148.65 input  -60.55 | X-H torsion
[ 11005 11000 10999 10996 ] final  102.58 input  -57.11 | X-H torsion

> <Gold.Protein.ActiveResidues>
 VAL166  LYS551  ARG553  GLY616  TRP617  ASP618  TYR619  PRO620  LYS621  CYS622 
 ASP623  PHE694  ASN695  SER759  ASP760  ASP761  ALA762  ILE779  LEU786  VAL792 
 PHE793  MET794  SER795  GLU796  ALA797  LYS798  CYS799  TRP800  GLU811  SER814 

> <Gold.Protein.RotatedAtoms>
  151.8834  133.3500  159.3773 H   0  0  0  0  0  0  0  0  0  0  0  0  # atno 6907 bound_to 6896
  150.7121  134.4996  159.5564 H   0  0  0  0  0  0  0  0  0  0  0  0  # atno 6908 bound_to 6896
  152.2552  134.8092  160.0490 H   0  0  0  0  0  0  0  0  0  0  0  0  # atno 6909 bound_to 6896
  146.0718  139.5270  142.9593 H   0  0  0  0  0  0  0  0  0  0  0  0  # atno 7974 bound_to 7965
  155.6879  140.3496  155.4881 H   0  0  0  0  0  0  0  0  0  0  0  0  # atno 8008 bound_to 7997
  155.9550  140.1126  157.0967 H   0  0  0  0  0  0  0  0  0  0  0  0  # atno 8009 bound_to 7997
  154.4130  140.1187  156.5089 H   0  0  0  0  0  0  0  0  0  0  0  0  # atno 8010 bound_to 7997
  139.5562  144.6850  151.4175 H   0  0  0  0  0  0  0  0  0  0  0  0  # atno 10167 bound_to 10162
  156.0055  130.5137  150.6175 H   0  0  0  0  0  0  0  0  0  0  0  0  # atno 10718 bound_to 10713
  154.0583  135.2876  155.3329 H   0  0  0  0  0  0  0  0  0  0  0  0  # atno 10763 bound_to 10752
  154.6825  135.5258  153.8285 H   0  0  0  0  0  0  0  0  0  0  0  0  # atno 10764 bound_to 10752
  153.0533  135.6585  154.0774 H   0  0  0  0  0  0  0  0  0  0  0  0  # atno 10765 bound_to 10752
  139.8778  134.9230  156.5080 H   0  0  0  0  0  0  0  0  0  0  0  0  # atno 11005 bound_to 11000
  145.6378  141.0291  143.1828 LP  0  0  0  0  0  0  0  0  0  0  0  0  # atno 17320 bound_to 7965
  144.7236  139.7947  143.7373 LP  0  0  0  0  0  0  0  0  0  0  0  0  # atno 17321 bound_to 7965
  140.6835  143.8027  150.7154 LP  0  0  0  0  0  0  0  0  0  0  0  0  # atno 17342 bound_to 10162
  140.1487  143.4376  152.2145 LP  0  0  0  0  0  0  0  0  0  0  0  0  # atno 17343 bound_to 10162
  157.3996  131.0808  151.1320 LP  0  0  0  0  0  0  0  0  0  0  0  0  # atno 17370 bound_to 10713
  157.1986  130.6384  149.5730 LP  0  0  0  0  0  0  0  0  0  0  0  0  # atno 17371 bound_to 10713
  140.8541  133.8110  155.9198 LP  0  0  0  0  0  0  0  0  0  0  0  0  # atno 17394 bound_to 11000
  140.9115  134.2254  157.4983 LP  0  0  0  0  0  0  0  0  0  0  0  0  # atno 17395 bound_to 11000

$$$$
