AV-unprocessed.smi:1748|AV-procd|sdf|7041|dock6
  -GOLD-   22720 8263D 1   1.00000     0.00000
 Structure written by MMmdl.
 39 40  0  0  0  0  0  0  0  0  3 V2000
  145.6529  134.4556  151.3464 C   0  0  0  0  0  0  0  0  0  0  0  0
  146.8457  134.2201  152.1875 N   0  3  2  0  0  0  0  0  0  0  0  0
  147.4451  132.8809  151.9610 C   0  0  0  0  0  0  0  0  0  0  0  0
  148.7531  132.7158  152.7548 C   0  0  0  0  0  0  0  0  0  0  0  0
  148.5420  133.0078  154.2509 C   0  0  0  0  0  0  0  0  0  0  0  0
  147.8824  134.3838  154.4566 C   0  0  1  0  0  0  0  0  0  0  0  0
  148.8224  135.4435  154.0919 N   0  0  0  0  0  0  0  0  0  0  0  0
  149.2641  136.4076  154.9116 C   0  0  0  0  0  0  0  0  0  0  0  0
  148.9301  136.4923  156.0931 O   0  0  0  0  0  0  0  0  0  0  0  0
  150.0691  137.2604  154.2542 N   0  0  0  0  0  0  0  0  0  0  0  0
  150.7147  138.4120  154.7324 C   0  0  0  0  0  0  0  0  0  0  0  0
  150.1102  139.3922  155.4586 C   0  0  0  0  0  0  0  0  0  0  0  0
  150.8316  140.5645  155.9378 C   0  0  0  0  0  0  0  0  0  0  0  0
  150.2077  141.6334  156.8179 C   0  0  0  0  0  0  0  0  0  0  0  0
  150.8115  141.6933  158.0052 F   0  0  0  0  0  0  0  0  0  0  0  0
  150.3201  142.8251  156.2328 F   0  0  0  0  0  0  0  0  0  0  0  0
  148.9126  141.3893  157.0171 F   0  0  0  0  0  0  0  0  0  0  0  0
  152.1695  140.5331  155.5942 C   0  0  0  0  0  0  0  0  0  0  0  0
  152.8414  139.6084  154.8732 N   0  5  0  0  0  0  0  0  0  0  0  0
  152.1558  138.5185  154.4268 C   0  0  0  0  0  0  0  0  0  0  0  0
  152.7078  137.6300  153.7764 O   0  0  0  0  0  0  0  0  0  0  0  0
  146.5812  134.4670  153.6273 C   0  0  0  0  0  0  0  0  0  0  0  0
  144.8480  133.7671  151.6063 H   0  0  0  0  0  0  0  0  0  0  0  0
  145.8931  134.3198  150.2915 H   0  0  0  0  0  0  0  0  0  0  0  0
  145.2873  135.4750  151.4752 H   0  0  0  0  0  0  0  0  0  0  0  0
  146.7310  132.1082  152.2505 H   0  0  0  0  0  0  0  0  0  0  0  0
  147.6463  132.7445  150.8976 H   0  0  0  0  0  0  0  0  0  0  0  0
  149.1411  131.7051  152.6254 H   0  0  0  0  0  0  0  0  0  0  0  0
  149.5118  133.3870  152.3503 H   0  0  0  0  0  0  0  0  0  0  0  0
  147.9047  132.2343  154.6816 H   0  0  0  0  0  0  0  0  0  0  0  0
  149.4915  132.9539  154.7852 H   0  0  0  0  0  0  0  0  0  0  0  0
  147.6386  134.4945  155.5146 H   0  0  0  0  0  0  0  0  0  0  0  0
  149.1563  135.4476  153.1389 H   0  0  0  0  0  0  0  0  0  0  0  0
  150.1883  137.0998  153.2645 H   0  0  0  0  0  0  0  0  0  0  0  0
  149.0669  139.3201  155.7196 H   0  0  0  0  0  0  0  0  0  0  0  0
  152.7965  141.3745  155.9590 H   0  0  0  0  0  0  0  0  0  0  0  0
  146.1156  135.4456  153.7518 H   0  0  0  0  0  0  0  0  0  0  0  0
  145.8587  133.7354  153.9928 H   0  0  0  0  0  0  0  0  0  0  0  0
  147.5356  134.9006  151.9021 H   0  0  0  0  0  0  0  0  0  0  0  0
  1  2  1  0  0  0  0
  1 23  1  0  0  0  0
  1 24  1  0  0  0  0
  1 25  1  0  0  0  0
  2 22  1  0  0  0  0
  2  3  1  0  0  0  0
  2 39  1  0  0  0  0
  3  4  1  0  0  0  0
  3 26  1  0  0  0  0
  3 27  1  0  0  0  0
  4  5  1  0  0  0  0
  4 28  1  0  0  0  0
  4 29  1  0  0  0  0
  5  6  1  0  0  0  0
  5 30  1  0  0  0  0
  5 31  1  0  0  0  0
  6  7  1  0  0  0  0
  6 22  1  0  0  0  0
  6 32  1  0  0  0  0
  7  8  1  0  0  0  0
  7 33  1  0  0  0  0
  8  9  2  0  0  0  0
  8 10  1  0  0  0  0
 10 11  1  0  0  0  0
 10 34  1  0  0  0  0
 11 20  1  0  0  0  0
 11 12  2  0  0  0  0
 12 13  1  0  0  0  0
 12 35  1  0  0  0  0
 13 14  1  0  0  0  0
 13 18  2  0  0  0  0
 14 15  1  0  0  0  0
 14 16  1  0  0  0  0
 14 17  1  0  0  0  0
 18 19  1  0  0  0  0
 18 36  1  0  0  0  0
 19 20  1  0  0  0  0
 20 21  2  0  0  0  0
 22 37  1  0  0  0  0
 22 38  1  0  0  0  0
M  CHG  1   2   1
M  CHG  1  19  -1
M  END
> <s_m_source_file>
AV-unprocessed.smi

> <i_m_source_file_index>
1748

> <i_lp_mmshare_version>
43012

> <i_f3d_flags>
0

> <s_epik_input>
W0NIM11OMVtDSDJdW0NIMl1bQ0gyXVtDQEhdKFtDSDJdMSlbTkhdQyg9TylbTkhdYzJbY0hdYyhDKEYpKEYpRilbY0hdW25IXWMyPU8=

> <s_epik_cmdline>
J2VwaWtfcHl0aG9uJywgJy1waCcsICc3LjAnLCAnLXRuJywgJzgnLCAnLW1hJywgJzIwMCcsICctbWV0YWxfYmluZGluZycsICctaW1hZScsICc8aW5maWxlLm1hZT4nLCAnLW9tYWUnLCAnPG91dGZpbGUubWFlPic=

> <r_lp_tautomer_probability>
1

> <r_epik_Ionization_Penalty>
3.00907

> <r_epik_Ionization_Penalty_Charging>
0.148702

> <r_epik_Ionization_Penalty_Neutral>
2.86036

> <r_epik_State_Penalty>
2.85557

> <r_epik_Charging_Adjusted_Penalty>
3.00428

> <i_epik_Tot_Q>
0

> <i_epik_Tot_abs_Q>
2

> <r_epik_Metal_State_Penalty>
0.443779

> <b_epik_Metal_Only>
1

> <s_lp_Force_Field>
OPLS_2005

> <r_lp_Energy>
32.6678

> <b_lp_Chiralities_Consistent>
1

> <s_lp_Variant>
AV-unprocessed.smi:1748-6

> <Gold.Version>
5.8.1

> <Gold.Id.Protein>
6NUR|6NUR_protein|mol2

> <Gold.PLP.Fitness>
44.3165

> <Gold.PLP.PLP>
-29.7265

> <Gold.PLP.part.hbond>
-5.2622

> <Gold.PLP.part.metal>
0.0000

> <Gold.PLP.part.buried>
-0.0834

> <Gold.PLP.part.nonpolar>
-25.5370

> <Gold.PLP.part.repulsive>
0.2073

> <Gold.PLP.ligand.clash>
0.0000

> <Gold.PLP.ligand.torsion>
0.4520

> <Gold.PLP.Chemscore.Hbond>
5.1472

> <Gold.PLP.Chemscore.CHOScore>
0.0000

> <Gold.PLP.Chemscore.Metal>
0.0000

> <Gold.Chemscore.Hbonds>
donor molecule, donor type, donor heavy atom, donor atom, acceptor molecule, acceptor atom, score
      L1  H     2    39       P1  7948  2.00
      L1  H     7    33       P1  7948  0.72
      L1  H    10    34       P1  7948  0.47
      P1  H  7997  8009       L1    19  0.60
      P1  H 10752 10763       L1    21  0.62

> <Gold.PLP.Chemscore.Internal.Correction>
0.0523

> <Gold.Rescore>
     Score         DG    S(hbond)    S(metal)    S(lipo)     H(rot)  DE(clash)    DE(int)     intcor
     18.40     -19.00       2.99        0.00      52.00       1.00       0.15       0.45       ----

> <Gold.Chemscore.Fitness>
18.4034

> <Gold.Chemscore.DG>
-19.0035

> <Gold.Chemscore.ZeroCoef>
-5.4800

> <Gold.Chemscore.Hbond>
2.9938

> <Gold.Chemscore.Metal>
0.0000

> <Gold.Chemscore.Lipo>
52.0011

> <Gold.Chemscore.Internal_Hbond>
0.0000

> <Gold.Chemscore.DEClash>
0.1461

> <Gold.Chemscore.DEInternal>
0.4540

> <Gold.Chemscore.Rot>
1.0000

> <Gold.Chemscore.Internal.Correction>
   9.000000E+99

> <Gold.Chemscore.Hbonds>
donor molecule, donor type, donor heavy atom, donor atom, acceptor molecule, acceptor atom, score
      L1  H     2    39       P1  7948  0.78
      L1  H     7    33       P1  7948  0.20
      L1  H    10    34       P1  7948  0.05
      P1  H 10752 10763       L1    21  0.61

> <Gold.Chemscore.Hbond.Weighted>
-9.9994

> <Gold.Chemscore.Metal.Weighted>
-0.0000

> <Gold.Chemscore.Lipo.Weighted>
-6.0841

> <Gold.Chemscore.Internal_Hbond.Weighted>
0.0000

> <Gold.Chemscore.DEClash.Weighted>
0.1461

> <Gold.Chemscore.DEInternal.Weighted>
0.4540

> <Gold.Chemscore.Rot.Weighted>
2.5600

> <Gold.Chemscore.Internal.Correction.Weighted>
   9.000000E+99

> <Gold.Protein.RotatedTorsions>
[ 6907 6896 6895 6894 ] final  171.17 input  -60.11 | X-H torsion
[ 7974 7965 7964 7962 ] final  -61.57 input  175.53 | X-H torsion
[ 8008 7997 7996 7995 ] final -134.67 input   59.86 | X-H torsion
[ 10167 10162 10161 10158 ] final    6.88 input  -65.29 | X-H torsion
[ 10718 10713 10712 10709 ] final   35.83 input   66.30 | X-H torsion
[ 10763 10752 10751 10750 ] final   26.60 input  -60.55 | X-H torsion
[ 11005 11000 10999 10996 ] final  -14.95 input  -57.11 | X-H torsion

> <Gold.Protein.ActiveResidues>
 VAL166  LYS551  ARG553  GLY616  TRP617  ASP618  TYR619  PRO620  LYS621  CYS622 
 ASP623  PHE694  ASN695  SER759  ASP760  ASP761  ALA762  ILE779  LEU786  VAL792 
 PHE793  MET794  SER795  GLU796  ALA797  LYS798  CYS799  TRP800  GLU811  SER814 

> <Gold.Protein.RotatedAtoms>
  151.8045  133.3374  159.3536 H   0  0  0  0  0  0  0  0  0  0  0  0  # atno 6907 bound_to 6896
  150.7347  134.5722  159.5905 H   0  0  0  0  0  0  0  0  0  0  0  0  # atno 6908 bound_to 6896
  152.3119  134.7488  160.0385 H   0  0  0  0  0  0  0  0  0  0  0  0  # atno 6909 bound_to 6896
  145.8018  140.8650  143.0227 H   0  0  0  0  0  0  0  0  0  0  0  0  # atno 7974 bound_to 7965
  155.3660  140.0485  157.3046 H   0  0  0  0  0  0  0  0  0  0  0  0  # atno 8008 bound_to 7997
  154.5154  140.2206  155.9039 H   0  0  0  0  0  0  0  0  0  0  0  0  # atno 8009 bound_to 7997
  156.1630  140.3112  155.8846 H   0  0  0  0  0  0  0  0  0  0  0  0  # atno 8010 bound_to 7997
  140.6403  143.7790  150.7418 H   0  0  0  0  0  0  0  0  0  0  0  0  # atno 10167 bound_to 10162
  157.3275  130.7480  149.6825 H   0  0  0  0  0  0  0  0  0  0  0  0  # atno 10718 bound_to 10713
  153.0611  135.6556  154.0460 H   0  0  0  0  0  0  0  0  0  0  0  0  # atno 10763 bound_to 10752
  154.0127  135.2927  155.3392 H   0  0  0  0  0  0  0  0  0  0  0  0  # atno 10764 bound_to 10752
  154.6950  135.5267  153.8514 H   0  0  0  0  0  0  0  0  0  0  0  0  # atno 10765 bound_to 10752
  140.7917  133.8283  155.9386 H   0  0  0  0  0  0  0  0  0  0  0  0  # atno 11005 bound_to 11000
  144.6768  140.0270  143.7483 LP  0  0  0  0  0  0  0  0  0  0  0  0  # atno 17320 bound_to 7965
  145.9869  139.2985  143.1008 LP  0  0  0  0  0  0  0  0  0  0  0  0  # atno 17321 bound_to 7965
  140.1420  143.4433  152.2187 LP  0  0  0  0  0  0  0  0  0  0  0  0  # atno 17342 bound_to 10162
  139.5612  144.7407  151.4150 LP  0  0  0  0  0  0  0  0  0  0  0  0  # atno 17343 bound_to 10162
  155.9692  130.4205  150.4425 LP  0  0  0  0  0  0  0  0  0  0  0  0  # atno 17370 bound_to 10713
  157.2451  131.0534  151.2413 LP  0  0  0  0  0  0  0  0  0  0  0  0  # atno 17371 bound_to 10713
  140.9383  134.1934  157.4816 LP  0  0  0  0  0  0  0  0  0  0  0  0  # atno 17394 bound_to 11000
  139.8730  134.9861  156.5311 LP  0  0  0  0  0  0  0  0  0  0  0  0  # atno 17395 bound_to 11000

$$$$
