AV-unprocessed.smi:845|AV-procd|sdf|3928|dock9
  -GOLD-   22720 1393D 1   1.00000     0.00000
 Structure written by MMmdl.
 43 44  0  0  0  0  0  0  0  0  2 V2000
  149.3373  133.9505  157.4206 C   0  0  0  0  0  0  0  0  0  0  0  0
  149.7482  135.3116  156.8256 C   0  0  0  0  0  0  0  0  0  0  0  0
  149.1885  136.4363  157.7170 C   0  0  0  0  0  0  0  0  0  0  0  0
  149.2992  135.4587  155.3416 C   0  0  1  0  0  0  0  0  0  0  0  0
  147.7969  135.1556  155.0770 C   0  0  0  0  0  0  0  0  0  0  0  0
  147.5025  134.8189  153.6843 N   0  0  0  0  0  0  0  0  0  0  0  0
  146.4017  134.1897  153.2490 C   0  0  0  0  0  0  0  0  0  0  0  0
  145.5046  133.7966  153.9949 O   0  0  0  0  0  0  0  0  0  0  0  0
  146.4204  134.0450  151.9125 N   0  0  0  0  0  0  0  0  0  0  0  0
  145.4560  133.4105  151.0859 C   0  0  0  0  0  0  0  0  0  0  0  0
  145.7392  132.7958  149.9315 N   0  0  0  0  0  0  0  0  0  0  0  0
  144.5975  132.2633  149.3271 C   0  0  0  0  0  0  0  0  0  0  0  0
  143.4450  132.4854  150.0391 C   0  0  0  0  0  0  0  0  0  0  0  0
  143.7497  133.3774  151.5060 S   0  0  0  0  0  0  0  0  0  0  0  0
  149.7573  136.7545  154.7517 N   0  3  0  0  0  0  0  0  0  0  0  0
  148.9121  137.9231  155.0984 C   0  0  0  0  0  0  0  0  0  0  0  0
  149.3344  139.1417  154.2599 C   0  0  0  0  0  0  0  0  0  0  0  0
  150.7159  139.4131  154.4671 O   0  0  0  0  0  0  0  0  0  0  0  0
  151.5434  138.3245  154.0730 C   0  0  0  0  0  0  0  0  0  0  0  0
  151.1947  137.0855  154.9131 C   0  0  0  0  0  0  0  0  0  0  0  0
  148.2566  133.8103  157.3814 H   0  0  0  0  0  0  0  0  0  0  0  0
  149.6418  133.8717  158.4648 H   0  0  0  0  0  0  0  0  0  0  0  0
  149.8021  133.1173  156.8934 H   0  0  0  0  0  0  0  0  0  0  0  0
  150.8355  135.3697  156.8774 H   0  0  0  0  0  0  0  0  0  0  0  0
  148.0984  136.4581  157.6901 H   0  0  0  0  0  0  0  0  0  0  0  0
  149.5485  137.4185  157.4121 H   0  0  0  0  0  0  0  0  0  0  0  0
  149.4896  136.2997  158.7560 H   0  0  0  0  0  0  0  0  0  0  0  0
  149.8519  134.6895  154.7997 H   0  0  0  0  0  0  0  0  0  0  0  0
  147.4264  134.3967  155.7662 H   0  0  0  0  0  0  0  0  0  0  0  0
  147.2131  136.0478  155.3045 H   0  0  0  0  0  0  0  0  0  0  0  0
  148.1834  135.1074  152.9968 H   0  0  0  0  0  0  0  0  0  0  0  0
  147.2175  134.4308  151.4282 H   0  0  0  0  0  0  0  0  0  0  0  0
  144.6967  131.7398  148.3876 H   0  0  0  0  0  0  0  0  0  0  0  0
  142.4396  132.1797  149.7903 H   0  0  0  0  0  0  0  0  0  0  0  0
  147.8616  137.6995  154.9095 H   0  0  0  0  0  0  0  0  0  0  0  0
  149.0065  138.1564  156.1593 H   0  0  0  0  0  0  0  0  0  0  0  0
  149.1424  138.9701  153.1995 H   0  0  0  0  0  0  0  0  0  0  0  0
  148.7537  140.0175  154.5505 H   0  0  0  0  0  0  0  0  0  0  0  0
  151.4202  138.1220  153.0080 H   0  0  0  0  0  0  0  0  0  0  0  0
  152.5867  138.6007  154.2263 H   0  0  0  0  0  0  0  0  0  0  0  0
  151.4148  137.2979  155.9584 H   0  0  0  0  0  0  0  0  0  0  0  0
  151.8204  136.2468  154.6096 H   0  0  0  0  0  0  0  0  0  0  0  0
  149.6247  136.6326  153.7579 H   0  0  0  0  0  0  0  0  0  0  0  0
  1  2  1  0  0  0  0
  1 21  1  0  0  0  0
  1 22  1  0  0  0  0
  1 23  1  0  0  0  0
  2  3  1  0  0  0  0
  2  4  1  0  0  0  0
  2 24  1  0  0  0  0
  3 25  1  0  0  0  0
  3 26  1  0  0  0  0
  3 27  1  0  0  0  0
  4  5  1  0  0  0  0
  4 15  1  0  0  0  0
  4 28  1  0  0  0  0
  5  6  1  0  0  0  0
  5 29  1  0  0  0  0
  5 30  1  0  0  0  0
  6  7  1  0  0  0  0
  6 31  1  0  0  0  0
  7  8  2  0  0  0  0
  7  9  1  0  0  0  0
  9 10  1  0  0  0  0
  9 32  1  0  0  0  0
 10 14  1  0  0  0  0
 10 11  2  0  0  0  0
 11 12  1  0  0  0  0
 12 13  2  0  0  0  0
 12 33  1  0  0  0  0
 13 14  1  0  0  0  0
 13 34  1  0  0  0  0
 15 20  1  0  0  0  0
 15 16  1  0  0  0  0
 15 43  1  0  0  0  0
 16 17  1  0  0  0  0
 16 35  1  0  0  0  0
 16 36  1  0  0  0  0
 17 18  1  0  0  0  0
 17 37  1  0  0  0  0
 17 38  1  0  0  0  0
 18 19  1  0  0  0  0
 19 20  1  0  0  0  0
 19 39  1  0  0  0  0
 19 40  1  0  0  0  0
 20 41  1  0  0  0  0
 20 42  1  0  0  0  0
M  CHG  1  15   1
M  END
> <s_m_source_file>
AV-unprocessed.smi

> <i_m_source_file_index>
845

> <i_lp_mmshare_version>
43012

> <i_f3d_flags>
0

> <s_epik_input>
W0NIMl0xW0NIMl1PW0NIMl1bQ0gyXU4xW0NASF0oW0NIXShbQ0gzXSlbQ0gzXSlbQ0gyXVtOSF1DKD1PKVtOSF1jMm5bY0hdW2NIXXMy

> <s_epik_cmdline>
J2VwaWtfcHl0aG9uJywgJy1waCcsICc3LjAnLCAnLXRuJywgJzgnLCAnLW1hJywgJzIwMCcsICctbWV0YWxfYmluZGluZycsICctaW1hZScsICc8aW5maWxlLm1hZT4nLCAnLW9tYWUnLCAnPG91dGZpbGUubWFlPic=

> <r_lp_tautomer_probability>
0.999

> <r_epik_Ionization_Penalty>
0.398341

> <r_epik_Ionization_Penalty_Charging>
0.398119

> <r_epik_Ionization_Penalty_Neutral>
0.000222117

> <r_epik_State_Penalty>
0.397286

> <r_epik_Charging_Adjusted_Penalty>
0.795404

> <i_epik_Tot_Q>
1

> <i_epik_Tot_abs_Q>
1

> <r_epik_Metal_State_Penalty>
0.407542

> <b_epik_Metal_Only>
0

> <s_lp_Force_Field>
OPLS_2005

> <r_lp_Energy>
31.69

> <b_lp_Chiralities_Consistent>
1

> <s_lp_Variant>
AV-unprocessed.smi:845-2

> <Gold.Version>
5.8.1

> <Gold.Id.Protein>
6NUR|6NUR_protein|mol2

> <Gold.PLP.Fitness>
41.0133

> <Gold.PLP.PLP>
-25.3240

> <Gold.PLP.part.hbond>
-3.1162

> <Gold.PLP.part.metal>
0.0000

> <Gold.PLP.part.buried>
-4.5351

> <Gold.PLP.part.nonpolar>
-19.8623

> <Gold.PLP.part.repulsive>
1.1767

> <Gold.PLP.ligand.clash>
0.0000

> <Gold.PLP.ligand.torsion>
0.6442

> <Gold.PLP.Chemscore.Hbond>
4.0000

> <Gold.PLP.Chemscore.CHOScore>
1.5662

> <Gold.PLP.Chemscore.Metal>
0.0000

> <Gold.Chemscore.Hbonds>
donor molecule, donor type, donor heavy atom, donor atom, acceptor molecule, acceptor atom, score
      L1  H     6    31       P1  7948  1.00
      L1  H    15    43       P1  7948  2.00
      P1  H  7989  7998       L1    18  0.95
      L1  C    13    34       P1 10186  0.37
      L1  C    13    34       P1 10952  1.00

> <Gold.PLP.Chemscore.Internal.Correction>
0.2790

> <Gold.Rescore>
     Score         DG    S(hbond)    S(metal)    S(lipo)     H(rot)  DE(clash)    DE(int)     intcor
     14.03     -14.99       1.82        0.00      68.69       1.80       0.11       0.86       ----

> <Gold.Chemscore.Fitness>
14.0281

> <Gold.Chemscore.DG>
-14.9911

> <Gold.Chemscore.ZeroCoef>
-5.4800

> <Gold.Chemscore.Hbond>
1.8244

> <Gold.Chemscore.Metal>
0.0000

> <Gold.Chemscore.Lipo>
68.6946

> <Gold.Chemscore.Internal_Hbond>
0.0000

> <Gold.Chemscore.DEClash>
0.1059

> <Gold.Chemscore.DEInternal>
0.8571

> <Gold.Chemscore.Rot>
1.8046

> <Gold.Chemscore.Internal.Correction>
   9.000000E+99

> <Gold.Chemscore.Hbonds>
donor molecule, donor type, donor heavy atom, donor atom, acceptor molecule, acceptor atom, score
      L1  H     6    31       P1  7948  0.95
      L1  H     9    32       P1  7948  0.01
      L1  H    15    43       P1  7948  0.66
      P1  H  7989  7998       L1    18  0.21

> <Gold.Chemscore.Hbond.Weighted>
-6.0936

> <Gold.Chemscore.Metal.Weighted>
-0.0000

> <Gold.Chemscore.Lipo.Weighted>
-8.0373

> <Gold.Chemscore.Internal_Hbond.Weighted>
0.0000

> <Gold.Chemscore.DEClash.Weighted>
0.1059

> <Gold.Chemscore.DEInternal.Weighted>
0.8571

> <Gold.Chemscore.Rot.Weighted>
4.6197

> <Gold.Chemscore.Internal.Correction.Weighted>
   9.000000E+99

> <Gold.Protein.RotatedTorsions>
[ 6907 6896 6895 6894 ] final   29.00 input  -60.11 | X-H torsion
[ 7974 7965 7964 7962 ] final -121.14 input  175.53 | X-H torsion
[ 8008 7997 7996 7995 ] final   27.01 input   59.86 | X-H torsion
[ 10167 10162 10161 10158 ] final   36.67 input  -65.29 | X-H torsion
[ 10718 10713 10712 10709 ] final  -15.58 input   66.30 | X-H torsion
[ 10763 10752 10751 10750 ] final  152.28 input  -60.55 | X-H torsion
[ 11005 11000 10999 10996 ] final  -42.65 input  -57.11 | X-H torsion

> <Gold.Protein.ActiveResidues>
 VAL166  LYS551  ARG553  GLY616  TRP617  ASP618  TYR619  PRO620  LYS621  CYS622 
 ASP623  PHE694  ASN695  SER759  ASP760  ASP761  ALA762  ILE779  LEU786  VAL792 
 PHE793  MET794  SER795  GLU796  ALA797  LYS798  CYS799  TRP800  GLU811  SER814 

> <Gold.Protein.RotatedAtoms>
  152.0252  134.9800  160.0571 H   0  0  0  0  0  0  0  0  0  0  0  0  # atno 6907 bound_to 6896
  152.1298  133.4396  159.4724 H   0  0  0  0  0  0  0  0  0  0  0  0  # atno 6908 bound_to 6896
  150.6855  134.2352  159.4494 H   0  0  0  0  0  0  0  0  0  0  0  0  # atno 6909 bound_to 6896
  145.0436  140.8164  143.4251 H   0  0  0  0  0  0  0  0  0  0  0  0  # atno 7974 bound_to 7965
  155.0362  140.3164  155.4741 H   0  0  0  0  0  0  0  0  0  0  0  0  # atno 8008 bound_to 7997
  156.2864  140.2171  156.5427 H   0  0  0  0  0  0  0  0  0  0  0  0  # atno 8009 bound_to 7997
  154.7328  140.0480  157.0730 H   0  0  0  0  0  0  0  0  0  0  0  0  # atno 8010 bound_to 7997
  140.4106  144.1598  150.6139 H   0  0  0  0  0  0  0  0  0  0  0  0  # atno 10167 bound_to 10162
  156.5997  130.4821  149.6245 H   0  0  0  0  0  0  0  0  0  0  0  0  # atno 10718 bound_to 10713
  154.1175  135.2835  155.3216 H   0  0  0  0  0  0  0  0  0  0  0  0  # atno 10763 bound_to 10752
  154.6446  135.5390  153.7833 H   0  0  0  0  0  0  0  0  0  0  0  0  # atno 10764 bound_to 10752
  153.0324  135.6495  154.1331 H   0  0  0  0  0  0  0  0  0  0  0  0  # atno 10765 bound_to 10752
  141.0330  133.6812  156.2624 H   0  0  0  0  0  0  0  0  0  0  0  0  # atno 11005 bound_to 11000
  145.1616  139.2455  143.5389 LP  0  0  0  0  0  0  0  0  0  0  0  0  # atno 17320 bound_to 7965
  146.3512  140.1344  142.8596 LP  0  0  0  0  0  0  0  0  0  0  0  0  # atno 17321 bound_to 7965
  140.4642  143.2437  151.9178 LP  0  0  0  0  0  0  0  0  0  0  0  0  # atno 17342 bound_to 10162
  139.4782  144.5436  151.8491 LP  0  0  0  0  0  0  0  0  0  0  0  0  # atno 17343 bound_to 10162
  156.2480  130.6890  151.1618 LP  0  0  0  0  0  0  0  0  0  0  0  0  # atno 17370 bound_to 10713
  157.7283  131.0633  150.5828 LP  0  0  0  0  0  0  0  0  0  0  0  0  # atno 17371 bound_to 10713
  140.6372  134.5203  157.5566 LP  0  0  0  0  0  0  0  0  0  0  0  0  # atno 17394 bound_to 11000
  139.9221  134.8128  156.1179 LP  0  0  0  0  0  0  0  0  0  0  0  0  # atno 17395 bound_to 11000

$$$$
