AV-unprocessed.smi:3084|AV-procd|sdf|11748|dock3
  -GOLD-   2272017143D 1   1.00000     0.00000
 Structure written by MMmdl.
 27 28  0  0  0  0  0  0  0  0  2 V2000
  152.2597  139.2842  155.3695 C   0  0  0  0  0  0  0  0  0  0  0  0
  152.8040  139.0222  156.5950 N   0  0  0  0  0  0  0  0  0  0  0  0
  152.1954  139.9557  157.3127 C   0  0  0  0  0  0  0  0  0  0  0  0
  151.3674  140.7249  156.6036 N   0  0  0  0  0  0  0  0  0  0  0  0
  150.5181  141.8283  157.0138 C   0  0  0  0  0  0  0  0  0  0  0  0
  151.3050  142.9974  157.6410 C   0  0  2  0  0  0  0  0  0  0  0  0
  152.1466  142.5725  158.8664 C   0  0  0  0  0  0  0  0  0  0  0  0
  152.8694  143.7742  159.4949 C   0  0  0  0  0  0  0  0  0  0  0  0
  151.8666  144.8878  159.8281 C   0  0  0  0  0  0  0  0  0  0  0  0
  151.0497  145.2726  158.5846 C   0  0  0  0  0  0  0  0  0  0  0  0
  150.3728  144.0868  158.0151 N   0  3  0  0  0  0  0  0  0  0  0  0
  151.3882  140.2920  155.3212 N   0  0  0  0  0  0  0  0  0  0  0  0
  152.5115  138.7139  154.4873 H   0  0  0  0  0  0  0  0  0  0  0  0
  152.3583  140.0814  158.3732 H   0  0  0  0  0  0  0  0  0  0  0  0
  149.9622  142.1702  156.1397 H   0  0  0  0  0  0  0  0  0  0  0  0
  149.7819  141.4470  157.7230 H   0  0  0  0  0  0  0  0  0  0  0  0
  151.9791  143.3996  156.8829 H   0  0  0  0  0  0  0  0  0  0  0  0
  151.5025  142.1042  159.6120 H   0  0  0  0  0  0  0  0  0  0  0  0
  152.8847  141.8219  158.5818 H   0  0  0  0  0  0  0  0  0  0  0  0
  153.4016  143.4650  160.3951 H   0  0  0  0  0  0  0  0  0  0  0  0
  153.6222  144.1531  158.8024 H   0  0  0  0  0  0  0  0  0  0  0  0
  151.1957  144.5526  160.6204 H   0  0  0  0  0  0  0  0  0  0  0  0
  152.3920  145.7613  160.2158 H   0  0  0  0  0  0  0  0  0  0  0  0
  150.2999  146.0212  158.8413 H   0  0  0  0  0  0  0  0  0  0  0  0
  151.6970  145.7159  157.8266 H   0  0  0  0  0  0  0  0  0  0  0  0
  149.8585  144.3711  157.1934 H   0  0  0  0  0  0  0  0  0  0  0  0
  149.7213  143.7304  158.6995 H   0  0  0  0  0  0  0  0  0  0  0  0
  1 12  2  0  0  0  0
  1  2  1  0  0  0  0
  1 13  1  0  0  0  0
  2  3  2  0  0  0  0
  3  4  1  0  0  0  0
  3 14  1  0  0  0  0
  4  5  1  0  0  0  0
  4 12  1  0  0  0  0
  5  6  1  0  0  0  0
  5 15  1  0  0  0  0
  5 16  1  0  0  0  0
  6 11  1  0  0  0  0
  6  7  1  0  0  0  0
  6 17  1  0  0  0  0
  7  8  1  0  0  0  0
  7 18  1  0  0  0  0
  7 19  1  0  0  0  0
  8  9  1  0  0  0  0
  8 20  1  0  0  0  0
  8 21  1  0  0  0  0
  9 10  1  0  0  0  0
  9 22  1  0  0  0  0
  9 23  1  0  0  0  0
 10 11  1  0  0  0  0
 10 24  1  0  0  0  0
 10 25  1  0  0  0  0
 11 26  1  0  0  0  0
 11 27  1  0  0  0  0
M  CHG  1  11   1
M  END
> <s_m_source_file>
AV-unprocessed.smi

> <i_m_source_file_index>
3084

> <i_lp_mmshare_version>
43012

> <i_f3d_flags>
0

> <s_epik_input>
bjFbY0hdbltjSF1uMVtDSDJdW0NAQEhdMltDSDJdW0NIMl1bQ0gyXVtDSDJdW05IXTI=

> <s_epik_cmdline>
J2VwaWtfcHl0aG9uJywgJy1waCcsICc3LjAnLCAnLXRuJywgJzgnLCAnLW1hJywgJzIwMCcsICctbWV0YWxfYmluZGluZycsICctaW1hZScsICc8aW5maWxlLm1hZT4nLCAnLW9tYWUnLCAnPG91dGZpbGUubWFlPic=

> <r_lp_tautomer_probability>
1

> <r_epik_Ionization_Penalty>
0.000475214

> <r_epik_Ionization_Penalty_Charging>
0.000474443

> <r_epik_Ionization_Penalty_Neutral>
7.70992e-07

> <r_epik_State_Penalty>
0.000294136

> <r_epik_Charging_Adjusted_Penalty>
0.000768579

> <i_epik_Tot_Q>
1

> <i_epik_Tot_abs_Q>
1

> <r_epik_Metal_State_Penalty>
-0

> <b_epik_Metal_Only>
0

> <s_lp_Force_Field>
OPLS_2005

> <r_lp_Energy>
15.8084

> <b_lp_Chiralities_Consistent>
1

> <s_lp_Variant>
AV-unprocessed.smi:3084-1

> <Gold.Version>
5.8.1

> <Gold.Id.Protein>
6NUR|6NUR_protein|mol2

> <Gold.PLP.Fitness>
41.2459

> <Gold.PLP.PLP>
-30.6709

> <Gold.PLP.part.hbond>
-3.5414

> <Gold.PLP.part.metal>
0.0000

> <Gold.PLP.part.buried>
-3.4554

> <Gold.PLP.part.nonpolar>
-23.0811

> <Gold.PLP.part.repulsive>
0.0720

> <Gold.PLP.ligand.clash>
0.0000

> <Gold.PLP.ligand.torsion>
0.0039

> <Gold.PLP.Chemscore.Hbond>
3.5260

> <Gold.PLP.Chemscore.CHOScore>
0.0000

> <Gold.PLP.Chemscore.Metal>
0.0000

> <Gold.Chemscore.Hbonds>
donor molecule, donor type, donor heavy atom, donor atom, acceptor molecule, acceptor atom, score
      L1  H    11    26       P1  8028  2.00
      P1  H  7989  7998       L1    12  0.98
      P1  H  7997  8010       L1     2  0.52

> <Gold.PLP.Chemscore.Internal.Correction>
0.0047

> <Gold.Rescore>
     Score         DG    S(hbond)    S(metal)    S(lipo)     H(rot)  DE(clash)    DE(int)     intcor
     15.22     -15.28       1.86        0.00      63.50       1.51       0.05       0.01       ----

> <Gold.Chemscore.Fitness>
15.2152

> <Gold.Chemscore.DG>
-15.2759

> <Gold.Chemscore.ZeroCoef>
-5.4800

> <Gold.Chemscore.Hbond>
1.8633

> <Gold.Chemscore.Metal>
0.0000

> <Gold.Chemscore.Lipo>
63.4990

> <Gold.Chemscore.Internal_Hbond>
0.0000

> <Gold.Chemscore.DEClash>
0.0502

> <Gold.Chemscore.DEInternal>
0.0105

> <Gold.Chemscore.Rot>
1.5066

> <Gold.Chemscore.Internal.Correction>
   9.000000E+99

> <Gold.Chemscore.Hbonds>
donor molecule, donor type, donor heavy atom, donor atom, acceptor molecule, acceptor atom, score
      L1  H    11    26       P1  8028  0.45
      P1  H  7989  7998       L1    12  0.24
      P1  H  7997  8010       L1     2  0.01

> <Gold.Chemscore.Hbond.Weighted>
-6.2235

> <Gold.Chemscore.Metal.Weighted>
-0.0000

> <Gold.Chemscore.Lipo.Weighted>
-7.4294

> <Gold.Chemscore.Internal_Hbond.Weighted>
0.0000

> <Gold.Chemscore.DEClash.Weighted>
0.0502

> <Gold.Chemscore.DEInternal.Weighted>
0.0105

> <Gold.Chemscore.Rot.Weighted>
3.8569

> <Gold.Chemscore.Internal.Correction.Weighted>
   9.000000E+99

> <Gold.Protein.RotatedTorsions>
[ 6907 6896 6895 6894 ] final  101.61 input  -60.11 | X-H torsion
[ 7974 7965 7964 7962 ] final  -85.63 input  175.53 | X-H torsion
[ 8008 7997 7996 7995 ] final   69.55 input   59.86 | X-H torsion
[ 10167 10162 10161 10158 ] final  -86.63 input  -65.29 | X-H torsion
[ 10718 10713 10712 10709 ] final -171.01 input   66.30 | X-H torsion
[ 10763 10752 10751 10750 ] final  -79.77 input  -60.55 | X-H torsion
[ 11005 11000 10999 10996 ] final -118.32 input  -57.11 | X-H torsion

> <Gold.Protein.ActiveResidues>
 VAL166  LYS551  ARG553  GLY616  TRP617  ASP618  TYR619  PRO620  LYS621  CYS622 
 ASP623  PHE694  ASN695  SER759  ASP760  ASP761  ALA762  ILE779  LEU786  VAL792 
 PHE793  MET794  SER795  GLU796  ALA797  LYS798  CYS799  TRP800  GLU811  SER814 

> <Gold.Protein.RotatedAtoms>
  152.5345  134.0100  159.7933 H   0  0  0  0  0  0  0  0  0  0  0  0  # atno 6907 bound_to 6896
  151.0304  133.5788  159.2668 H   0  0  0  0  0  0  0  0  0  0  0  0  # atno 6908 bound_to 6896
  151.2795  135.0716  159.9217 H   0  0  0  0  0  0  0  0  0  0  0  0  # atno 6909 bound_to 6896
  145.4907  140.9553  143.1814 H   0  0  0  0  0  0  0  0  0  0  0  0  # atno 7974 bound_to 7965
  155.7254  140.3492  155.5035 H   0  0  0  0  0  0  0  0  0  0  0  0  # atno 8008 bound_to 7997
  155.9231  140.1071  157.1212 H   0  0  0  0  0  0  0  0  0  0  0  0  # atno 8009 bound_to 7997
  154.4073  140.1245  156.4692 H   0  0  0  0  0  0  0  0  0  0  0  0  # atno 8010 bound_to 7997
  140.3923  143.2699  151.9249 H   0  0  0  0  0  0  0  0  0  0  0  0  # atno 10167 bound_to 10162
  156.7346  130.9319  151.3106 H   0  0  0  0  0  0  0  0  0  0  0  0  # atno 10718 bound_to 10713
  154.5428  135.5684  153.6854 H   0  0  0  0  0  0  0  0  0  0  0  0  # atno 10763 bound_to 10752
  152.9968  135.6232  154.2479 H   0  0  0  0  0  0  0  0  0  0  0  0  # atno 10764 bound_to 10752
  154.2410  135.2862  155.2833 H   0  0  0  0  0  0  0  0  0  0  0  0  # atno 10765 bound_to 10752
  141.0294  134.0005  157.3166 H   0  0  0  0  0  0  0  0  0  0  0  0  # atno 11005 bound_to 11000
  144.7836  139.6474  143.7144 LP  0  0  0  0  0  0  0  0  0  0  0  0  # atno 17320 bound_to 7965
  146.2286  139.5770  142.9570 LP  0  0  0  0  0  0  0  0  0  0  0  0  # atno 17321 bound_to 7965
  139.4788  144.5715  151.8080 LP  0  0  0  0  0  0  0  0  0  0  0  0  # atno 17342 bound_to 10162
  140.4827  144.1426  150.5935 LP  0  0  0  0  0  0  0  0  0  0  0  0  # atno 17343 bound_to 10162
  157.6844  130.9171  150.0349 LP  0  0  0  0  0  0  0  0  0  0  0  0  # atno 17370 bound_to 10713
  156.1506  130.3642  149.9445 LP  0  0  0  0  0  0  0  0  0  0  0  0  # atno 17371 bound_to 10713
  139.9197  135.0199  156.8018 LP  0  0  0  0  0  0  0  0  0  0  0  0  # atno 17394 bound_to 11000
  140.6434  133.9797  155.7719 LP  0  0  0  0  0  0  0  0  0  0  0  0  # atno 17395 bound_to 11000

$$$$
