AV-unprocessed.smi:3019|AV-procd|sdf|11492|dock4
  -GOLD-   2272016433D 1   1.00000     0.00000
 Structure written by MMmdl.
 30 31  0  0  0  0  0  0  0  0  1 V2000
  153.3952  141.7468  160.7403 C   0  0  0  0  0  0  0  0  0  0  0  0
  152.8508  143.1409  160.3953 C   0  0  0  0  0  0  0  0  0  0  0  0
  152.1617  143.8262  161.5843 C   0  0  0  0  0  0  0  0  0  0  0  0
  151.9652  143.1054  159.1878 C   0  0  0  0  0  0  0  0  0  0  0  0
  151.0032  144.0102  159.0095 N   0  0  0  0  0  0  0  0  0  0  0  0
  150.4661  143.6221  157.8340 N   0  0  0  0  0  0  0  0  0  0  0  0
  151.1094  142.5412  157.3876 C   0  0  0  0  0  0  0  0  0  0  0  0
  150.7511  141.8804  156.0941 C   0  0  1  0  0  0  0  0  0  0  0  0
  151.5023  140.5505  155.8879 C   0  0  0  0  0  0  0  0  0  0  0  0
  151.0526  139.9003  154.6579 N   0  0  0  0  0  0  0  0  0  0  0  0
  149.6015  139.7200  154.6564 C   0  0  0  0  0  0  0  0  0  0  0  0
  148.8942  141.0654  154.8989 C   0  0  0  0  0  0  0  0  0  0  0  0
  149.3486  141.6295  156.1243 O   0  0  0  0  0  0  0  0  0  0  0  0
  152.0843  142.1590  158.2070 N   0  0  0  0  0  0  0  0  0  0  0  0
  149.6943  144.1028  157.3943 H   0  0  0  0  0  0  0  0  0  0  0  0
  153.9370  141.3185  159.8963 H   0  0  0  0  0  0  0  0  0  0  0  0
  152.5899  141.0597  161.0020 H   0  0  0  0  0  0  0  0  0  0  0  0
  154.0816  141.7912  161.5861 H   0  0  0  0  0  0  0  0  0  0  0  0
  153.7165  143.7562  160.1446 H   0  0  0  0  0  0  0  0  0  0  0  0
  151.8485  144.8379  161.3253 H   0  0  0  0  0  0  0  0  0  0  0  0
  152.8335  143.8970  162.4401 H   0  0  0  0  0  0  0  0  0  0  0  0
  151.2765  143.2746  161.9022 H   0  0  0  0  0  0  0  0  0  0  0  0
  150.9780  142.5707  155.2790 H   0  0  0  0  0  0  0  0  0  0  0  0
  152.5771  140.7282  155.8464 H   0  0  0  0  0  0  0  0  0  0  0  0
  151.3257  139.8911  156.7388 H   0  0  0  0  0  0  0  0  0  0  0  0
  151.5067  138.9970  154.5656 H   0  0  0  0  0  0  0  0  0  0  0  0
  149.2777  139.2922  153.7075 H   0  0  0  0  0  0  0  0  0  0  0  0
  149.3146  139.0116  155.4346 H   0  0  0  0  0  0  0  0  0  0  0  0
  149.0755  141.7571  154.0747 H   0  0  0  0  0  0  0  0  0  0  0  0
  147.8160  140.9162  154.9574 H   0  0  0  0  0  0  0  0  0  0  0  0
  1  2  1  0  0  0  0
  1 16  1  0  0  0  0
  1 17  1  0  0  0  0
  1 18  1  0  0  0  0
  2  3  1  0  0  0  0
  2  4  1  0  0  0  0
  2 19  1  0  0  0  0
  3 20  1  0  0  0  0
  3 21  1  0  0  0  0
  3 22  1  0  0  0  0
  4 14  1  0  0  0  0
  4  5  2  0  0  0  0
  5  6  1  0  0  0  0
  6 15  1  0  0  0  0
  6  7  1  0  0  0  0
  7  8  1  0  0  0  0
  7 14  2  0  0  0  0
  8 13  1  0  0  0  0
  8  9  1  0  0  0  0
  8 23  1  0  0  0  0
  9 10  1  0  0  0  0
  9 24  1  0  0  0  0
  9 25  1  0  0  0  0
 10 11  1  0  0  0  0
 10 26  1  0  0  0  0
 11 12  1  0  0  0  0
 11 27  1  0  0  0  0
 11 28  1  0  0  0  0
 12 13  1  0  0  0  0
 12 29  1  0  0  0  0
 12 30  1  0  0  0  0
M  END
> <s_m_source_file>
AV-unprocessed.smi

> <i_m_source_file_index>
3019

> <i_lp_mmshare_version>
43012

> <i_f3d_flags>
0

> <s_epik_input>
W0NIM11bQ0hdKFtDSDNdKWMxbltuSF1jKG4xKVtDQEBIXTJbQ0gyXVtOSF1bQ0gyXVtDSDJdTzI=

> <s_epik_cmdline>
J2VwaWtfcHl0aG9uJywgJy1waCcsICc3LjAnLCAnLXRuJywgJzgnLCAnLW1hJywgJzIwMCcsICctbWV0YWxfYmluZGluZycsICctaW1hZScsICc8aW5maWxlLm1hZT4nLCAnLW9tYWUnLCAnPG91dGZpbGUubWFlPic=

> <r_epik_Ionization_Penalty>
0.981987

> <r_epik_Ionization_Penalty_Charging>
0

> <r_epik_Ionization_Penalty_Neutral>
0.981987

> <r_epik_State_Penalty>
2.09479

> <r_epik_Charging_Adjusted_Penalty>
2.09479

> <i_epik_Tot_Q>
0

> <i_epik_Tot_abs_Q>
0

> <r_epik_Metal_State_Penalty>
2.40362

> <b_epik_Metal_Only>
0

> <s_lp_Force_Field>
OPLS_2005

> <r_lp_Energy>
8.95245

> <b_lp_Chiralities_Consistent>
1

> <s_lp_Variant>
AV-unprocessed.smi:3019-8

> <Gold.Version>
5.8.1

> <Gold.Id.Protein>
6NUR|6NUR_protein|mol2

> <Gold.PLP.Fitness>
36.8596

> <Gold.PLP.PLP>
-32.4999

> <Gold.PLP.part.hbond>
-2.0000

> <Gold.PLP.part.metal>
0.0000

> <Gold.PLP.part.buried>
-4.9710

> <Gold.PLP.part.nonpolar>
-25.6750

> <Gold.PLP.part.repulsive>
0.5232

> <Gold.PLP.ligand.clash>
0.0000

> <Gold.PLP.ligand.torsion>
0.8497

> <Gold.PLP.Chemscore.Hbond>
2.0000

> <Gold.PLP.Chemscore.CHOScore>
0.0000

> <Gold.PLP.Chemscore.Metal>
0.0000

> <Gold.Chemscore.Hbonds>
donor molecule, donor type, donor heavy atom, donor atom, acceptor molecule, acceptor atom, score
      L1  H     6    15       P1  8028  0.94
      P1  H  7989  7998       L1    10  1.00

> <Gold.PLP.Chemscore.Internal.Correction>
0.0592

> <Gold.Rescore>
     Score         DG    S(hbond)    S(metal)    S(lipo)     H(rot)  DE(clash)    DE(int)     intcor
     12.81     -13.09       1.02        0.00      63.50       1.26       0.04       0.24       ----

> <Gold.Chemscore.Fitness>
12.8133

> <Gold.Chemscore.DG>
-13.0907

> <Gold.Chemscore.ZeroCoef>
-5.4800

> <Gold.Chemscore.Hbond>
1.0198

> <Gold.Chemscore.Metal>
0.0000

> <Gold.Chemscore.Lipo>
63.5025

> <Gold.Chemscore.Internal_Hbond>
0.0000

> <Gold.Chemscore.DEClash>
0.0396

> <Gold.Chemscore.DEInternal>
0.2378

> <Gold.Chemscore.Rot>
1.2598

> <Gold.Chemscore.Internal.Correction>
   9.000000E+99

> <Gold.Chemscore.Hbonds>
donor molecule, donor type, donor heavy atom, donor atom, acceptor molecule, acceptor atom, score
      L1  H     6    15       P1  8028  0.35
      P1  H  7989  7998       L1    10  0.24

> <Gold.Chemscore.Hbond.Weighted>
-3.4061

> <Gold.Chemscore.Metal.Weighted>
-0.0000

> <Gold.Chemscore.Lipo.Weighted>
-7.4298

> <Gold.Chemscore.Internal_Hbond.Weighted>
0.0000

> <Gold.Chemscore.DEClash.Weighted>
0.0396

> <Gold.Chemscore.DEInternal.Weighted>
0.2378

> <Gold.Chemscore.Rot.Weighted>
3.2251

> <Gold.Chemscore.Internal.Correction.Weighted>
   9.000000E+99

> <Gold.Protein.RotatedTorsions>
[ 6907 6896 6895 6894 ] final   79.50 input  -60.11 | X-H torsion
[ 7974 7965 7964 7962 ] final -161.64 input  175.53 | X-H torsion
[ 8008 7997 7996 7995 ] final -155.77 input   59.86 | X-H torsion
[ 10167 10162 10161 10158 ] final   70.64 input  -65.29 | X-H torsion
[ 10718 10713 10712 10709 ] final -103.12 input   66.30 | X-H torsion
[ 10763 10752 10751 10750 ] final  159.44 input  -60.55 | X-H torsion
[ 11005 11000 10999 10996 ] final   83.88 input  -57.11 | X-H torsion

> <Gold.Protein.ActiveResidues>
 VAL166  LYS551  ARG553  GLY616  TRP617  ASP618  TYR619  PRO620  LYS621  CYS622 
 ASP623  PHE694  ASN695  SER759  ASP760  ASP761  ALA762  ILE779  LEU786  VAL792 
 PHE793  MET794  SER795  GLU796  ALA797  LYS798  CYS799  TRP800  GLU811  SER814 

> <Gold.Protein.RotatedAtoms>
  152.5201  134.3501  159.9247 H   0  0  0  0  0  0  0  0  0  0  0  0  # atno 6907 bound_to 6896
  151.3452  133.3940  159.2682 H   0  0  0  0  0  0  0  0  0  0  0  0  # atno 6908 bound_to 6896
  150.9771  134.9152  159.7880 H   0  0  0  0  0  0  0  0  0  0  0  0  # atno 6909 bound_to 6896
  144.7384  140.3369  143.6142 H   0  0  0  0  0  0  0  0  0  0  0  0  # atno 7974 bound_to 7965
  155.7070  140.0773  157.2387 H   0  0  0  0  0  0  0  0  0  0  0  0  # atno 8008 bound_to 7997
  154.4064  140.1637  156.2307 H   0  0  0  0  0  0  0  0  0  0  0  0  # atno 8009 bound_to 7997
  155.9317  140.3391  155.6257 H   0  0  0  0  0  0  0  0  0  0  0  0  # atno 8010 bound_to 7997
  140.0548  144.5282  150.7337 H   0  0  0  0  0  0  0  0  0  0  0  0  # atno 10167 bound_to 10162
  156.0253  130.5452  150.7206 H   0  0  0  0  0  0  0  0  0  0  0  0  # atno 10718 bound_to 10713
  154.2319  135.2778  155.2887 H   0  0  0  0  0  0  0  0  0  0  0  0  # atno 10763 bound_to 10752
  154.5617  135.5645  153.7017 H   0  0  0  0  0  0  0  0  0  0  0  0  # atno 10764 bound_to 10752
  153.0018  135.6299  154.2461 H   0  0  0  0  0  0  0  0  0  0  0  0  # atno 10765 bound_to 10752
  139.9017  134.8176  156.2369 H   0  0  0  0  0  0  0  0  0  0  0  0  # atno 11005 bound_to 11000
  145.7415  139.1765  143.2373 LP  0  0  0  0  0  0  0  0  0  0  0  0  # atno 17320 bound_to 7965
  146.1131  140.7404  142.9494 LP  0  0  0  0  0  0  0  0  0  0  0  0  # atno 17321 bound_to 7965
  140.7200  143.2579  151.4310 LP  0  0  0  0  0  0  0  0  0  0  0  0  # atno 17342 bound_to 10162
  139.5930  144.1457  152.2111 LP  0  0  0  0  0  0  0  0  0  0  0  0  # atno 17343 bound_to 10162
  157.4823  131.0903  151.0522 LP  0  0  0  0  0  0  0  0  0  0  0  0  # atno 17370 bound_to 10713
  157.0952  130.5959  149.5448 LP  0  0  0  0  0  0  0  0  0  0  0  0  # atno 17371 bound_to 10713
  141.0309  133.6989  156.1429 LP  0  0  0  0  0  0  0  0  0  0  0  0  # atno 17394 bound_to 11000
  140.7097  134.4475  157.5582 LP  0  0  0  0  0  0  0  0  0  0  0  0  # atno 17395 bound_to 11000

$$$$
