AV-unprocessed.smi:2090|AV-procd|sdf|8535|dock1
  -GOLD-   2272011253D 1   1.00000     0.00000
 Structure written by MMmdl.
 41 42  0  0  0  0  0  0  0  0  3 V2000
  150.7787  141.1567  156.4314 C   0  0  0  0  0  0  0  0  0  0  0  0
  151.1918  139.8147  155.9315 C   0  0  0  0  0  0  0  0  0  0  0  0
  150.4918  138.7618  155.4144 C   0  0  0  0  0  0  0  0  0  0  0  0
  151.5048  137.8045  155.1341 C   0  0  0  0  0  0  0  0  0  0  0  0
  151.3100  136.5818  154.6163 N   0  5  0  0  0  0  0  0  0  0  0  0
  150.3923  135.7504  155.1603 C   0  0  0  0  0  0  0  0  0  0  0  0
  150.5363  135.0592  156.1712 O   0  0  0  0  0  0  0  0  0  0  0  0
  149.2343  135.7148  154.4880 N   0  0  0  0  0  0  0  0  0  0  0  0
  148.0791  134.9038  154.8459 C   0  0  0  0  0  0  0  0  0  0  0  0
  146.8052  135.4842  154.2133 C   0  0  0  0  0  0  0  0  0  0  0  0
  146.6427  135.0747  152.7958 N   0  3  2  0  0  0  0  0  0  0  0  0
  145.4034  135.6279  152.1914 C   0  0  0  0  0  0  0  0  0  0  0  0
  145.3236  135.3079  150.6879 C   0  0  0  0  0  0  0  0  0  0  0  0
  145.4305  133.7983  150.4080 C   0  0  2  0  0  0  0  0  0  0  0  0
  144.1500  133.0313  150.7825 C   0  0  0  0  0  0  0  0  0  0  0  0
  146.6854  133.2380  151.1018 C   0  0  0  0  0  0  0  0  0  0  0  0
  146.7397  133.6041  152.5963 C   0  0  0  0  0  0  0  0  0  0  0  0
  152.7109  138.2316  155.4694 N   0  0  0  0  0  0  0  0  0  0  0  0
  152.5196  139.5235  155.9741 O   0  0  0  0  0  0  0  0  0  0  0  0
  149.8768  141.0814  157.0390 H   0  0  0  0  0  0  0  0  0  0  0  0
  150.5705  141.8291  155.5994 H   0  0  0  0  0  0  0  0  0  0  0  0
  151.5609  141.6063  157.0434 H   0  0  0  0  0  0  0  0  0  0  0  0
  149.4262  138.6883  155.2575 H   0  0  0  0  0  0  0  0  0  0  0  0
  149.1555  136.2981  153.6679 H   0  0  0  0  0  0  0  0  0  0  0  0
  148.2255  133.8777  154.5044 H   0  0  0  0  0  0  0  0  0  0  0  0
  148.0066  134.8766  155.9330 H   0  0  0  0  0  0  0  0  0  0  0  0
  145.9206  135.2012  154.7861 H   0  0  0  0  0  0  0  0  0  0  0  0
  146.8713  136.5722  154.2677 H   0  0  0  0  0  0  0  0  0  0  0  0
  144.5318  135.2338  152.7155 H   0  0  0  0  0  0  0  0  0  0  0  0
  145.3837  136.7105  152.3220 H   0  0  0  0  0  0  0  0  0  0  0  0
  144.3990  135.7062  150.2683 H   0  0  0  0  0  0  0  0  0  0  0  0
  146.1350  135.8252  150.1735 H   0  0  0  0  0  0  0  0  0  0  0  0
  145.5627  133.6708  149.3328 H   0  0  0  0  0  0  0  0  0  0  0  0
  143.9305  133.0897  151.8482 H   0  0  0  0  0  0  0  0  0  0  0  0
  144.2370  131.9764  150.5217 H   0  0  0  0  0  0  0  0  0  0  0  0
  143.2874  133.4289  150.2470 H   0  0  0  0  0  0  0  0  0  0  0  0
  146.7332  132.1553  150.9797 H   0  0  0  0  0  0  0  0  0  0  0  0
  147.5739  133.6360  150.6090 H   0  0  0  0  0  0  0  0  0  0  0  0
  147.6736  133.2281  153.0121 H   0  0  0  0  0  0  0  0  0  0  0  0
  145.9358  133.1063  153.1400 H   0  0  0  0  0  0  0  0  0  0  0  0
  147.4110  135.4924  152.2905 H   0  0  0  0  0  0  0  0  0  0  0  0
  1  2  1  0  0  0  0
  1 20  1  0  0  0  0
  1 21  1  0  0  0  0
  1 22  1  0  0  0  0
  2 19  1  0  0  0  0
  2  3  2  0  0  0  0
  3  4  1  0  0  0  0
  3 23  1  0  0  0  0
  4  5  1  0  0  0  0
  4 18  2  0  0  0  0
  5  6  1  0  0  0  0
  6  7  2  0  0  0  0
  6  8  1  0  0  0  0
  8  9  1  0  0  0  0
  8 24  1  0  0  0  0
  9 10  1  0  0  0  0
  9 25  1  0  0  0  0
  9 26  1  0  0  0  0
 10 11  1  0  0  0  0
 10 27  1  0  0  0  0
 10 28  1  0  0  0  0
 11 17  1  0  0  0  0
 11 12  1  0  0  0  0
 11 41  1  0  0  0  0
 12 13  1  0  0  0  0
 12 29  1  0  0  0  0
 12 30  1  0  0  0  0
 13 14  1  0  0  0  0
 13 31  1  0  0  0  0
 13 32  1  0  0  0  0
 14 15  1  0  0  0  0
 14 16  1  0  0  0  0
 14 33  1  0  0  0  0
 15 34  1  0  0  0  0
 15 35  1  0  0  0  0
 15 36  1  0  0  0  0
 16 17  1  0  0  0  0
 16 37  1  0  0  0  0
 16 38  1  0  0  0  0
 17 39  1  0  0  0  0
 17 40  1  0  0  0  0
 18 19  1  0  0  0  0
M  CHG  1   5  -1
M  CHG  1  11   1
M  END
> <s_m_source_file>
AV-unprocessed.smi

> <i_m_source_file_index>
2090

> <i_lp_mmshare_version>
43012

> <i_f3d_flags>
0

> <s_epik_input>
W0NIM11jMVtjSF1jKG5vMSlbTkhdQyg9TylbTkhdW0NIMl1bQ0gyXU4yW0NIMl1bQ0gyXVtDSF0oW0NIM10pW0NIMl1bQ0gyXTI=

> <s_epik_cmdline>
J2VwaWtfcHl0aG9uJywgJy1waCcsICc3LjAnLCAnLXRuJywgJzgnLCAnLW1hJywgJzIwMCcsICctbWV0YWxfYmluZGluZycsICctaW1hZScsICc8aW5maWxlLm1hZT4nLCAnLW9tYWUnLCAnPG91dGZpbGUubWFlPic=

> <r_epik_Ionization_Penalty>
6.22503

> <r_epik_Ionization_Penalty_Charging>
6.22494

> <r_epik_Ionization_Penalty_Neutral>
9.3589e-05

> <r_epik_State_Penalty>
6.22491

> <r_epik_Charging_Adjusted_Penalty>
12.4498

> <i_epik_Tot_Q>
0

> <i_epik_Tot_abs_Q>
2

> <r_epik_Metal_State_Penalty>
2.16853

> <b_epik_Metal_Only>
1

> <s_lp_Force_Field>
OPLS_2005

> <r_lp_Energy>
7.06079

> <b_lp_Chiralities_Consistent>
1

> <s_lp_Variant>
AV-unprocessed.smi:2090-4

> <Gold.Version>
5.8.1

> <Gold.Id.Protein>
6NUR|6NUR_protein|mol2

> <Gold.PLP.Fitness>
48.2848

> <Gold.PLP.PLP>
-33.1962

> <Gold.PLP.part.hbond>
-4.5859

> <Gold.PLP.part.metal>
0.0000

> <Gold.PLP.part.buried>
-5.1864

> <Gold.PLP.part.nonpolar>
-23.9409

> <Gold.PLP.part.repulsive>
1.3901

> <Gold.PLP.ligand.clash>
0.0000

> <Gold.PLP.ligand.torsion>
1.4579

> <Gold.PLP.Chemscore.Hbond>
5.9920

> <Gold.PLP.Chemscore.CHOScore>
0.0000

> <Gold.PLP.Chemscore.Metal>
0.0000

> <Gold.Chemscore.Hbonds>
donor molecule, donor type, donor heavy atom, donor atom, acceptor molecule, acceptor atom, score
      L1  H     8    24       P1  7948  0.85
      L1  H    11    41       P1  7948  2.00
      P1  H  7997  8009       L1    19  1.00
      P1  H 10752 10764       L1     5  2.00

> <Gold.PLP.Chemscore.Internal.Correction>
0.0284

> <Gold.Rescore>
     Score         DG    S(hbond)    S(metal)    S(lipo)     H(rot)  DE(clash)    DE(int)     intcor
     15.99     -17.47       2.68        0.00      59.84       1.54       0.08       1.41       ----

> <Gold.Chemscore.Fitness>
15.9890

> <Gold.Chemscore.DG>
-17.4738

> <Gold.Chemscore.ZeroCoef>
-5.4800

> <Gold.Chemscore.Hbond>
2.6757

> <Gold.Chemscore.Metal>
0.0000

> <Gold.Chemscore.Lipo>
59.8435

> <Gold.Chemscore.Internal_Hbond>
0.0000

> <Gold.Chemscore.DEClash>
0.0788

> <Gold.Chemscore.DEInternal>
1.4061

> <Gold.Chemscore.Rot>
1.5409

> <Gold.Chemscore.Internal.Correction>
   9.000000E+99

> <Gold.Chemscore.Hbonds>
donor molecule, donor type, donor heavy atom, donor atom, acceptor molecule, acceptor atom, score
      L1  H     8    24       P1  7948  0.80
      L1  H    11    41       P1  7948  1.00
      P1  H  7997  8009       L1    19  0.44
      P1  H 10752 10764       L1     5  0.33

> <Gold.Chemscore.Hbond.Weighted>
-8.9368

> <Gold.Chemscore.Metal.Weighted>
-0.0000

> <Gold.Chemscore.Lipo.Weighted>
-7.0017

> <Gold.Chemscore.Internal_Hbond.Weighted>
0.0000

> <Gold.Chemscore.DEClash.Weighted>
0.0788

> <Gold.Chemscore.DEInternal.Weighted>
1.4061

> <Gold.Chemscore.Rot.Weighted>
3.9446

> <Gold.Chemscore.Internal.Correction.Weighted>
   9.000000E+99

> <Gold.Protein.RotatedTorsions>
[ 6907 6896 6895 6894 ] final  -95.19 input  -60.11 | X-H torsion
[ 7974 7965 7964 7962 ] final   66.97 input  175.53 | X-H torsion
[ 8008 7997 7996 7995 ] final -170.01 input   59.86 | X-H torsion
[ 10167 10162 10161 10158 ] final   64.00 input  -65.29 | X-H torsion
[ 10718 10713 10712 10709 ] final   -7.81 input   66.30 | X-H torsion
[ 10763 10752 10751 10750 ] final  -54.03 input  -60.55 | X-H torsion
[ 11005 11000 10999 10996 ] final   77.92 input  -57.11 | X-H torsion

> <Gold.Protein.ActiveResidues>
 VAL166  LYS551  ARG553  GLY616  TRP617  ASP618  TYR619  PRO620  LYS621  CYS622 
 ASP623  PHE694  ASN695  SER759  ASP760  ASP761  ALA762  ILE779  LEU786  VAL792 
 PHE793  MET794  SER795  GLU796  ALA797  LYS798  CYS799  TRP800  GLU811  SER814 

> <Gold.Protein.RotatedAtoms>
  150.6958  134.1696  159.4206 H   0  0  0  0  0  0  0  0  0  0  0  0  # atno 6907 bound_to 6896
  151.9674  135.0091  160.0560 H   0  0  0  0  0  0  0  0  0  0  0  0  # atno 6908 bound_to 6896
  152.1872  133.4713  159.5026 H   0  0  0  0  0  0  0  0  0  0  0  0  # atno 6909 bound_to 6896
  145.8203  139.3081  143.1047 H   0  0  0  0  0  0  0  0  0  0  0  0  # atno 7974 bound_to 7965
  155.9126  140.1060  157.1268 H   0  0  0  0  0  0  0  0  0  0  0  0  # atno 8008 bound_to 7997
  154.4042  140.1271  156.4642 H   0  0  0  0  0  0  0  0  0  0  0  0  # atno 8009 bound_to 7997
  155.7292  140.3468  155.5053 H   0  0  0  0  0  0  0  0  0  0  0  0  # atno 8010 bound_to 7997
  140.1269  144.4679  150.6887 H   0  0  0  0  0  0  0  0  0  0  0  0  # atno 10167 bound_to 10162
  156.7117  130.5124  149.5890 H   0  0  0  0  0  0  0  0  0  0  0  0  # atno 10718 bound_to 10713
  154.1682  135.6463  153.5003 H   0  0  0  0  0  0  0  0  0  0  0  0  # atno 10763 bound_to 10752
  153.0091  135.5377  154.6640 H   0  0  0  0  0  0  0  0  0  0  0  0  # atno 10764 bound_to 10752
  154.5972  135.2940  155.0546 H   0  0  0  0  0  0  0  0  0  0  0  0  # atno 10765 bound_to 10752
  139.9234  134.7722  156.1583 H   0  0  0  0  0  0  0  0  0  0  0  0  # atno 11005 bound_to 11000
  145.9682  140.8781  143.0176 LP  0  0  0  0  0  0  0  0  0  0  0  0  # atno 17320 bound_to 7965
  144.6748  140.1908  143.7397 LP  0  0  0  0  0  0  0  0  0  0  0  0  # atno 17321 bound_to 7965
  140.6839  143.2340  151.5311 LP  0  0  0  0  0  0  0  0  0  0  0  0  # atno 17342 bound_to 10162
  139.5539  144.2324  152.1579 LP  0  0  0  0  0  0  0  0  0  0  0  0  # atno 17343 bound_to 10162
  156.1656  130.6403  151.0774 LP  0  0  0  0  0  0  0  0  0  0  0  0  # atno 17370 bound_to 10713
  157.6933  131.0802  150.7043 LP  0  0  0  0  0  0  0  0  0  0  0  0  # atno 17371 bound_to 10713
  141.0773  133.6770  156.2263 LP  0  0  0  0  0  0  0  0  0  0  0  0  # atno 17394 bound_to 11000
  140.6407  134.5169  157.5569 LP  0  0  0  0  0  0  0  0  0  0  0  0  # atno 17395 bound_to 11000

$$$$
