AV-unprocessed.smi:1933|AV-procd|sdf|7820|dock6
  -GOLD-   22720 9563D 1   1.00000     0.00000
 Structure written by MMmdl.
 48 50  0  0  0  0  0  0  0  0  2 V2000
  144.6767  136.8129  151.8697 O   0  0  0  0  0  0  0  0  0  0  0  0
  145.8858  136.5820  151.8503 C   0  0  0  0  0  0  0  0  0  0  0  0
  146.8214  137.5003  152.1336 N   0  0  0  0  0  0  0  0  0  0  0  0
  146.5658  138.8875  152.5107 C   0  0  0  0  0  0  0  0  0  0  0  0
  146.3745  139.0840  154.0412 C   0  0  1  0  0  0  0  0  0  0  0  0
  147.6400  138.7691  154.8918 C   0  0  2  0  0  0  0  0  0  0  0  0
  148.9360  139.4521  154.4490 C   0  0  0  0  0  0  0  0  0  0  0  0
  150.0351  138.4074  154.6644 C   0  0  0  0  0  0  0  0  0  0  0  0
  149.3971  137.3255  155.3226 O   0  0  0  0  0  0  0  0  0  0  0  0
  148.0576  137.2946  154.8690 C   0  0  0  0  0  0  0  0  0  0  0  0
  145.8797  140.4581  154.3604 N   0  3  0  0  0  0  0  0  0  0  0  0
  145.3396  140.6597  155.7291 C   0  0  0  0  0  0  0  0  0  0  0  0
  144.6933  142.0505  155.8340 C   0  0  0  0  0  0  0  0  0  0  0  0
  145.6564  143.0462  155.5087 O   0  0  0  0  0  0  0  0  0  0  0  0
  146.1390  142.9129  154.1766 C   0  0  0  0  0  0  0  0  0  0  0  0
  146.8231  141.5459  154.0044 C   0  0  0  0  0  0  0  0  0  0  0  0
  146.4466  135.4062  151.5188 N   0  0  0  0  0  0  0  0  0  0  0  0
  145.8029  134.2377  151.0343 C   0  0  0  0  0  0  0  0  0  0  0  0
  144.3879  134.1397  151.0385 C   0  0  0  0  0  0  0  0  0  0  0  0
  143.7765  132.9611  150.5697 C   0  0  0  0  0  0  0  0  0  0  0  0
  144.5908  131.9065  150.1210 C   0  0  0  0  0  0  0  0  0  0  0  0
  145.9860  132.0792  150.1707 C   0  0  0  0  0  0  0  0  0  0  0  0
  146.5759  133.2073  150.6201 N   0  0  0  0  0  0  0  0  0  0  0  0
  147.7888  137.2150  152.0875 H   0  0  0  0  0  0  0  0  0  0  0  0
  147.3634  139.5341  152.1435 H   0  0  0  0  0  0  0  0  0  0  0  0
  145.6658  139.1887  151.9758 H   0  0  0  0  0  0  0  0  0  0  0  0
  145.5982  138.3923  154.3721 H   0  0  0  0  0  0  0  0  0  0  0  0
  147.4580  139.0456  155.9314 H   0  0  0  0  0  0  0  0  0  0  0  0
  148.9080  139.7460  153.3992 H   0  0  0  0  0  0  0  0  0  0  0  0
  149.1308  140.3458  155.0415 H   0  0  0  0  0  0  0  0  0  0  0  0
  150.4320  138.0647  153.7077 H   0  0  0  0  0  0  0  0  0  0  0  0
  150.8650  138.7899  155.2593 H   0  0  0  0  0  0  0  0  0  0  0  0
  147.4406  136.6696  155.5152 H   0  0  0  0  0  0  0  0  0  0  0  0
  148.0227  136.8855  153.8574 H   0  0  0  0  0  0  0  0  0  0  0  0
  144.6007  139.8949  155.9665 H   0  0  0  0  0  0  0  0  0  0  0  0
  146.1374  140.5807  156.4684 H   0  0  0  0  0  0  0  0  0  0  0  0
  143.8293  142.1305  155.1722 H   0  0  0  0  0  0  0  0  0  0  0  0
  144.3348  142.2235  156.8488 H   0  0  0  0  0  0  0  0  0  0  0  0
  145.3179  143.0288  153.4673 H   0  0  0  0  0  0  0  0  0  0  0  0
  146.8485  143.7159  153.9760 H   0  0  0  0  0  0  0  0  0  0  0  0
  147.7111  141.4972  154.6352 H   0  0  0  0  0  0  0  0  0  0  0  0
  147.1540  141.4323  152.9714 H   0  0  0  0  0  0  0  0  0  0  0  0
  147.4543  135.3946  151.4661 H   0  0  0  0  0  0  0  0  0  0  0  0
  143.7650  134.9430  151.4025 H   0  0  0  0  0  0  0  0  0  0  0  0
  142.7006  132.8671  150.5601 H   0  0  0  0  0  0  0  0  0  0  0  0
  144.1579  130.9872  149.7548 H   0  0  0  0  0  0  0  0  0  0  0  0
  146.6472  131.2908  149.8426 H   0  0  0  0  0  0  0  0  0  0  0  0
  145.0929  140.5921  153.7411 H   0  0  0  0  0  0  0  0  0  0  0  0
  1  2  2  0  0  0  0
  2  3  1  0  0  0  0
  2 17  1  0  0  0  0
  3  4  1  0  0  0  0
  3 24  1  0  0  0  0
  4  5  1  0  0  0  0
  4 25  1  0  0  0  0
  4 26  1  0  0  0  0
  5  6  1  0  0  0  0
  5 11  1  0  0  0  0
  5 27  1  0  0  0  0
  6 10  1  0  0  0  0
  6  7  1  0  0  0  0
  6 28  1  0  0  0  0
  7  8  1  0  0  0  0
  7 29  1  0  0  0  0
  7 30  1  0  0  0  0
  8  9  1  0  0  0  0
  8 31  1  0  0  0  0
  8 32  1  0  0  0  0
  9 10  1  0  0  0  0
 10 33  1  0  0  0  0
 10 34  1  0  0  0  0
 11 16  1  0  0  0  0
 11 12  1  0  0  0  0
 11 48  1  0  0  0  0
 12 13  1  0  0  0  0
 12 35  1  0  0  0  0
 12 36  1  0  0  0  0
 13 14  1  0  0  0  0
 13 37  1  0  0  0  0
 13 38  1  0  0  0  0
 14 15  1  0  0  0  0
 15 16  1  0  0  0  0
 15 39  1  0  0  0  0
 15 40  1  0  0  0  0
 16 41  1  0  0  0  0
 16 42  1  0  0  0  0
 17 18  1  0  0  0  0
 17 43  1  0  0  0  0
 18 23  1  0  0  0  0
 18 19  2  0  0  0  0
 19 20  1  0  0  0  0
 19 44  1  0  0  0  0
 20 21  2  0  0  0  0
 20 45  1  0  0  0  0
 21 22  1  0  0  0  0
 21 46  1  0  0  0  0
 22 23  2  0  0  0  0
 22 47  1  0  0  0  0
M  CHG  1  11   1
M  END
> <s_m_source_file>
AV-unprocessed.smi

> <i_m_source_file_index>
1933

> <i_lp_mmshare_version>
43012

> <i_f3d_flags>
0

> <s_epik_input>
bjFbY0hdW2NIXVtjSF1bY0hdYzFbTkhdQyg9TylbTkhdW0NIMl1bQ0BIXShbQ0BASF0yW0NIMl1bQ0gyXU9bQ0gyXTIpTjNbQ0gyXVtDSDJdT1tDSDJdW0NIMl0z

> <s_epik_cmdline>
J2VwaWtfcHl0aG9uJywgJy1waCcsICc3LjAnLCAnLXRuJywgJzgnLCAnLW1hJywgJzIwMCcsICctbWV0YWxfYmluZGluZycsICctaW1hZScsICc8aW5maWxlLm1hZT4nLCAnLW9tYWUnLCAnPG91dGZpbGUubWFlPic=

> <r_epik_Ionization_Penalty>
0.983294

> <r_epik_Ionization_Penalty_Charging>
0.98326

> <r_epik_Ionization_Penalty_Neutral>
3.39688e-05

> <r_epik_State_Penalty>
1.0303

> <r_epik_Charging_Adjusted_Penalty>
2.01356

> <i_epik_Tot_Q>
1

> <i_epik_Tot_abs_Q>
1

> <r_epik_Metal_State_Penalty>
1.0303

> <b_epik_Metal_Only>
0

> <s_lp_Force_Field>
OPLS_2005

> <r_lp_Energy>
43.6882

> <b_lp_Chiralities_Consistent>
1

> <s_lp_Variant>
AV-unprocessed.smi:1933-6

> <Gold.Version>
5.8.1

> <Gold.Id.Protein>
6NUR|6NUR_protein|mol2

> <Gold.PLP.Fitness>
50.6296

> <Gold.PLP.PLP>
-36.3569

> <Gold.PLP.part.hbond>
-2.9041

> <Gold.PLP.part.metal>
0.0000

> <Gold.PLP.part.buried>
-6.1271

> <Gold.PLP.part.nonpolar>
-29.9610

> <Gold.PLP.part.repulsive>
2.0821

> <Gold.PLP.ligand.clash>
0.0000

> <Gold.PLP.ligand.torsion>
0.4332

> <Gold.PLP.Chemscore.Hbond>
3.9600

> <Gold.PLP.Chemscore.CHOScore>
1.0000

> <Gold.PLP.Chemscore.Metal>
0.0000

> <Gold.Chemscore.Hbonds>
donor molecule, donor type, donor heavy atom, donor atom, acceptor molecule, acceptor atom, score
      L1  H     3    24       P1  7948  0.98
      L1  H    11    48       P1 10175  2.00
      L1  H    17    43       P1  7948  0.96
      L1  C    22    47       P1 10747  1.00

> <Gold.PLP.Chemscore.Internal.Correction>
0.2592

> <Gold.Rescore>
     Score         DG    S(hbond)    S(metal)    S(lipo)     H(rot)  DE(clash)    DE(int)     intcor
     17.92     -19.93       2.89        0.00      79.81       1.77       0.08       1.94       ----

> <Gold.Chemscore.Fitness>
17.9211

> <Gold.Chemscore.DG>
-19.9335

> <Gold.Chemscore.ZeroCoef>
-5.4800

> <Gold.Chemscore.Hbond>
2.8860

> <Gold.Chemscore.Metal>
0.0000

> <Gold.Chemscore.Lipo>
79.8121

> <Gold.Chemscore.Internal_Hbond>
0.0000

> <Gold.Chemscore.DEClash>
0.0771

> <Gold.Chemscore.DEInternal>
1.9354

> <Gold.Chemscore.Rot>
1.7671

> <Gold.Chemscore.Internal.Correction>
   9.000000E+99

> <Gold.Chemscore.Hbonds>
donor molecule, donor type, donor heavy atom, donor atom, acceptor molecule, acceptor atom, score
      L1  H     3    24       P1  7948  0.91
      L1  H    11    48       P1 10175  0.99
      L1  H    17    43       P1  7948  0.81

> <Gold.Chemscore.Hbond.Weighted>
-9.6393

> <Gold.Chemscore.Metal.Weighted>
-0.0000

> <Gold.Chemscore.Lipo.Weighted>
-9.3380

> <Gold.Chemscore.Internal_Hbond.Weighted>
0.0000

> <Gold.Chemscore.DEClash.Weighted>
0.0771

> <Gold.Chemscore.DEInternal.Weighted>
1.9354

> <Gold.Chemscore.Rot.Weighted>
4.5238

> <Gold.Chemscore.Internal.Correction.Weighted>
   9.000000E+99

> <Gold.Protein.RotatedTorsions>
[ 6907 6896 6895 6894 ] final  -96.32 input  -60.11 | X-H torsion
[ 7974 7965 7964 7962 ] final  155.48 input  175.53 | X-H torsion
[ 8008 7997 7996 7995 ] final  -89.18 input   59.86 | X-H torsion
[ 10167 10162 10161 10158 ] final  -91.62 input  -65.29 | X-H torsion
[ 10718 10713 10712 10709 ] final   80.07 input   66.30 | X-H torsion
[ 10763 10752 10751 10750 ] final  171.68 input  -60.55 | X-H torsion
[ 11005 11000 10999 10996 ] final   38.59 input  -57.11 | X-H torsion

> <Gold.Protein.ActiveResidues>
 VAL166  LYS551  ARG553  GLY616  TRP617  ASP618  TYR619  PRO620  LYS621  CYS622 
 ASP623  PHE694  ASN695  SER759  ASP760  ASP761  ALA762  ILE779  LEU786  VAL792 
 PHE793  MET794  SER795  GLU796  ALA797  LYS798  CYS799  TRP800  GLU811  SER814 

> <Gold.Protein.RotatedAtoms>
  150.6985  134.1522  159.4144 H   0  0  0  0  0  0  0  0  0  0  0  0  # atno 6907 bound_to 6896
  151.9504  135.0169  160.0551 H   0  0  0  0  0  0  0  0  0  0  0  0  # atno 6908 bound_to 6896
  152.2016  133.4810  159.5098 H   0  0  0  0  0  0  0  0  0  0  0  0  # atno 6909 bound_to 6896
  144.8022  139.7073  143.6177 H   0  0  0  0  0  0  0  0  0  0  0  0  # atno 7974 bound_to 7965
  154.6835  140.0545  157.0290 H   0  0  0  0  0  0  0  0  0  0  0  0  # atno 8008 bound_to 7997
  155.0918  140.3220  155.4553 H   0  0  0  0  0  0  0  0  0  0  0  0  # atno 8009 bound_to 7997
  156.2703  140.2046  156.6045 H   0  0  0  0  0  0  0  0  0  0  0  0  # atno 8010 bound_to 7997
  140.3430  143.2932  151.9813 H   0  0  0  0  0  0  0  0  0  0  0  0  # atno 10167 bound_to 10162
  157.6795  130.9943  150.2025 H   0  0  0  0  0  0  0  0  0  0  0  0  # atno 10718 bound_to 10713
  154.4154  135.2757  155.2010 H   0  0  0  0  0  0  0  0  0  0  0  0  # atno 10763 bound_to 10752
  154.3978  135.6051  153.5883 H   0  0  0  0  0  0  0  0  0  0  0  0  # atno 10764 bound_to 10752
  152.9832  135.5919  154.4442 H   0  0  0  0  0  0  0  0  0  0  0  0  # atno 10765 bound_to 10752
  140.2112  134.3753  155.8048 H   0  0  0  0  0  0  0  0  0  0  0  0  # atno 11005 bound_to 11000
  146.2306  139.5807  142.9557 LP  0  0  0  0  0  0  0  0  0  0  0  0  # atno 17320 bound_to 7965
  145.5524  141.0412  143.2271 LP  0  0  0  0  0  0  0  0  0  0  0  0  # atno 17321 bound_to 7965
  139.4837  144.6140  151.7380 LP  0  0  0  0  0  0  0  0  0  0  0  0  # atno 17342 bound_to 10162
  140.5291  144.0759  150.6047 LP  0  0  0  0  0  0  0  0  0  0  0  0  # atno 17343 bound_to 10162
  156.2713  130.3722  149.8029 LP  0  0  0  0  0  0  0  0  0  0  0  0  # atno 17370 bound_to 10713
  156.5745  130.8439  151.3366 LP  0  0  0  0  0  0  0  0  0  0  0  0  # atno 17371 bound_to 10713
  141.2226  133.7144  156.8420 LP  0  0  0  0  0  0  0  0  0  0  0  0  # atno 17394 bound_to 11000
  140.1949  134.8939  157.3103 LP  0  0  0  0  0  0  0  0  0  0  0  0  # atno 17395 bound_to 11000

$$$$
