AV-unprocessed.smi:1987|AV-procd|sdf|8055|dock7
  -GOLD-   2272010263D 1   1.00000     0.00000
 Structure written by MMmdl.
 37 39  0  0  0  0  0  0  0  0  2 V2000
  149.6719  140.0507  156.1000 O   0  0  0  0  0  0  0  0  0  0  0  0
  150.0494  140.2099  154.9397 C   0  0  0  0  0  0  0  0  0  0  0  0
  151.5291  140.0634  154.5880 C   0  0  0  0  0  0  0  0  0  0  0  0
  152.0269  138.7738  155.0287 N   0  0  0  0  0  0  0  0  0  0  0  0
  151.5385  137.5425  154.8639 C   0  0  0  0  0  0  0  0  0  0  0  0
  152.2929  136.6338  155.4631 N   0  0  0  0  0  0  0  0  0  0  0  0
  153.3094  137.3885  156.0249 N   0  0  0  0  0  0  0  0  0  0  0  0
  153.1565  138.6591  155.7715 N   0  0  0  0  0  0  0  0  0  0  0  0
  149.2284  140.5457  153.9327 N   0  0  0  0  0  0  0  0  0  0  0  0
  147.8130  140.8645  154.0748 C   0  0  0  0  0  0  0  0  0  0  0  0
  146.9234  139.8302  153.3576 C   0  0  1  0  0  0  0  0  0  0  0  0
  147.0482  139.8188  151.8349 C   0  0  0  0  0  0  0  0  0  0  0  0
  146.4759  138.4524  151.4686 C   0  0  0  0  0  0  0  0  0  0  0  0
  146.8866  137.5438  152.5615 N   0  3  2  0  0  0  0  0  0  0  0  0
  145.9152  136.4638  152.8370 C   0  0  0  0  0  0  0  0  0  0  0  0
  145.1968  135.9698  151.6039 C   0  0  0  0  0  0  0  0  0  0  0  0
  144.4800  136.8645  152.5919 C   0  0  0  0  0  0  0  0  0  0  0  0
  147.2180  138.3749  153.7436 C   0  0  0  0  0  0  0  0  0  0  0  0
  151.6701  140.1457  153.5095 H   0  0  0  0  0  0  0  0  0  0  0  0
  152.1120  140.8593  155.0546 H   0  0  0  0  0  0  0  0  0  0  0  0
  150.6335  137.3156  154.3199 H   0  0  0  0  0  0  0  0  0  0  0  0
  149.6284  140.6463  153.0106 H   0  0  0  0  0  0  0  0  0  0  0  0
  147.5798  140.8867  155.1397 H   0  0  0  0  0  0  0  0  0  0  0  0
  147.6157  141.8677  153.6931 H   0  0  0  0  0  0  0  0  0  0  0  0
  145.8787  140.0303  153.6022 H   0  0  0  0  0  0  0  0  0  0  0  0
  146.5131  140.6405  151.3571 H   0  0  0  0  0  0  0  0  0  0  0  0
  148.0964  139.8778  151.5379 H   0  0  0  0  0  0  0  0  0  0  0  0
  145.3870  138.5165  151.4284 H   0  0  0  0  0  0  0  0  0  0  0  0
  146.8258  138.0966  150.4993 H   0  0  0  0  0  0  0  0  0  0  0  0
  146.1684  135.7756  153.6418 H   0  0  0  0  0  0  0  0  0  0  0  0
  145.4697  136.3996  150.6417 H   0  0  0  0  0  0  0  0  0  0  0  0
  144.9054  134.9217  151.5788 H   0  0  0  0  0  0  0  0  0  0  0  0
  143.7168  136.4053  153.2172 H   0  0  0  0  0  0  0  0  0  0  0  0
  144.2757  137.8891  152.2862 H   0  0  0  0  0  0  0  0  0  0  0  0
  148.2779  138.2368  153.9600 H   0  0  0  0  0  0  0  0  0  0  0  0
  146.6618  138.0794  154.6346 H   0  0  0  0  0  0  0  0  0  0  0  0
  147.7496  137.1066  152.2711 H   0  0  0  0  0  0  0  0  0  0  0  0
  1  2  2  0  0  0  0
  2  3  1  0  0  0  0
  2  9  1  0  0  0  0
  3  4  1  0  0  0  0
  3 19  1  0  0  0  0
  3 20  1  0  0  0  0
  4  8  1  0  0  0  0
  4  5  1  0  0  0  0
  5  6  2  0  0  0  0
  5 21  1  0  0  0  0
  6  7  1  0  0  0  0
  7  8  2  0  0  0  0
  9 10  1  0  0  0  0
  9 22  1  0  0  0  0
 10 11  1  0  0  0  0
 10 23  1  0  0  0  0
 10 24  1  0  0  0  0
 11 18  1  0  0  0  0
 11 12  1  0  0  0  0
 11 25  1  0  0  0  0
 12 13  1  0  0  0  0
 12 26  1  0  0  0  0
 12 27  1  0  0  0  0
 13 14  1  0  0  0  0
 13 28  1  0  0  0  0
 13 29  1  0  0  0  0
 14 15  1  0  0  0  0
 14 18  1  0  0  0  0
 14 37  1  0  0  0  0
 15 17  1  0  0  0  0
 15 16  1  0  0  0  0
 15 30  1  0  0  0  0
 16 17  1  0  0  0  0
 16 31  1  0  0  0  0
 16 32  1  0  0  0  0
 17 33  1  0  0  0  0
 17 34  1  0  0  0  0
 18 35  1  0  0  0  0
 18 36  1  0  0  0  0
M  CHG  1  14   1
M  END
> <s_m_source_file>
AV-unprocessed.smi

> <i_m_source_file_index>
1987

> <i_lp_mmshare_version>
43012

> <i_f3d_flags>
0

> <s_epik_input>
bjFubltjSF1uMVtDSDJdQyg9TylbTkhdW0NIMl1bQ0BASF0yW0NIMl1bQ0gyXU4oW0NIMl0yKVtDSF0zW0NIMl1bQ0gyXTM=

> <s_epik_cmdline>
J2VwaWtfcHl0aG9uJywgJy1waCcsICc3LjAnLCAnLXRuJywgJzgnLCAnLW1hJywgJzIwMCcsICctbWV0YWxfYmluZGluZycsICctaW1hZScsICc8aW5maWxlLm1hZT4nLCAnLW9tYWUnLCAnPG91dGZpbGUubWFlPic=

> <r_lp_tautomer_probability>
1

> <r_epik_Ionization_Penalty>
0.000242849

> <r_epik_Ionization_Penalty_Charging>
0.000241326

> <r_epik_Ionization_Penalty_Neutral>
1.52322e-06

> <r_epik_State_Penalty>
-0

> <r_epik_Charging_Adjusted_Penalty>
0.000241326

> <i_epik_Tot_Q>
1

> <i_epik_Tot_abs_Q>
1

> <r_epik_Metal_State_Penalty>
-0

> <b_epik_Metal_Only>
0

> <s_lp_Force_Field>
OPLS_2005

> <r_lp_Energy>
38.094

> <b_lp_Chiralities_Consistent>
1

> <s_lp_Variant>
AV-unprocessed.smi:1987-2

> <Gold.Version>
5.8.1

> <Gold.Id.Protein>
6NUR|6NUR_protein|mol2

> <Gold.PLP.Fitness>
43.3432

> <Gold.PLP.PLP>
-28.8079

> <Gold.PLP.part.hbond>
-4.9671

> <Gold.PLP.part.metal>
0.0000

> <Gold.PLP.part.buried>
5.1916

> <Gold.PLP.part.nonpolar>
-29.3542

> <Gold.PLP.part.repulsive>
0.2711

> <Gold.PLP.ligand.clash>
0.0000

> <Gold.PLP.ligand.torsion>
0.8083

> <Gold.PLP.Chemscore.Hbond>
4.9600

> <Gold.PLP.Chemscore.CHOScore>
0.0000

> <Gold.PLP.Chemscore.Metal>
0.0000

> <Gold.Chemscore.Hbonds>
donor molecule, donor type, donor heavy atom, donor atom, acceptor molecule, acceptor atom, score
      L1  H     9    22       P1  7957  0.94
      L1  H    14    37       P1  7948  2.00
      P1  H  7997  8010       L1     8  1.00
      P1  H 10752 10765       L1     6  0.79

> <Gold.PLP.Chemscore.Internal.Correction>
1.2719

> <Gold.Rescore>
     Score         DG    S(hbond)    S(metal)    S(lipo)     H(rot)  DE(clash)    DE(int)     intcor
     13.96     -16.74       3.55        0.00      52.37       2.62       1.96       0.82       ----

> <Gold.Chemscore.Fitness>
13.9620

> <Gold.Chemscore.DG>
-16.7353

> <Gold.Chemscore.ZeroCoef>
-5.4800

> <Gold.Chemscore.Hbond>
3.5467

> <Gold.Chemscore.Metal>
0.0000

> <Gold.Chemscore.Lipo>
52.3734

> <Gold.Chemscore.Internal_Hbond>
0.0000

> <Gold.Chemscore.DEClash>
1.9581

> <Gold.Chemscore.DEInternal>
0.8151

> <Gold.Chemscore.Rot>
2.6244

> <Gold.Chemscore.Internal.Correction>
   9.000000E+99

> <Gold.Chemscore.Hbonds>
donor molecule, donor type, donor heavy atom, donor atom, acceptor molecule, acceptor atom, score
      L1  H     9    22       P1  7957  0.90
      L1  H    14    37       P1  7948  0.93
      P1  H  7997  8010       L1     8  0.95
      P1  H 10752 10765       L1     6  0.33

> <Gold.Chemscore.Hbond.Weighted>
-11.8461

> <Gold.Chemscore.Metal.Weighted>
-0.0000

> <Gold.Chemscore.Lipo.Weighted>
-6.1277

> <Gold.Chemscore.Internal_Hbond.Weighted>
0.0000

> <Gold.Chemscore.DEClash.Weighted>
1.9581

> <Gold.Chemscore.DEInternal.Weighted>
0.8151

> <Gold.Chemscore.Rot.Weighted>
6.7186

> <Gold.Chemscore.Internal.Correction.Weighted>
   9.000000E+99

> <Gold.Protein.RotatedTorsions>
[ 6907 6896 6895 6894 ] final  130.16 input  -60.11 | X-H torsion
[ 7974 7965 7964 7962 ] final -159.28 input  175.53 | X-H torsion
[ 8008 7997 7996 7995 ] final   88.12 input   59.86 | X-H torsion
[ 10167 10162 10161 10158 ] final  -44.63 input  -65.29 | X-H torsion
[ 10718 10713 10712 10709 ] final -131.07 input   66.30 | X-H torsion
[ 10763 10752 10751 10750 ] final -172.63 input  -60.55 | X-H torsion
[ 11005 11000 10999 10996 ] final  159.43 input  -57.11 | X-H torsion

> <Gold.Protein.ActiveResidues>
 VAL166  LYS551  ARG553  GLY616  TRP617  ASP618  TYR619  PRO620  LYS621  CYS622 
 ASP623  PHE694  ASN695  SER759  ASP760  ASP761  ALA762  ILE779  LEU786  VAL792 
 PHE793  MET794  SER795  GLU796  ALA797  LYS798  CYS799  TRP800  GLU811  SER814 

> <Gold.Protein.RotatedAtoms>
  152.3553  133.6230  159.5974 H   0  0  0  0  0  0  0  0  0  0  0  0  # atno 6907 bound_to 6896
  150.7565  133.9509  159.3494 H   0  0  0  0  0  0  0  0  0  0  0  0  # atno 6908 bound_to 6896
  151.7355  135.0866  160.0358 H   0  0  0  0  0  0  0  0  0  0  0  0  # atno 6909 bound_to 6896
  144.7471  140.3707  143.6076 H   0  0  0  0  0  0  0  0  0  0  0  0  # atno 7974 bound_to 7965
  155.9839  140.3375  155.6688 H   0  0  0  0  0  0  0  0  0  0  0  0  # atno 8008 bound_to 7997
  155.6512  140.0706  157.2604 H   0  0  0  0  0  0  0  0  0  0  0  0  # atno 8009 bound_to 7997
  154.4199  140.1725  156.1664 H   0  0  0  0  0  0  0  0  0  0  0  0  # atno 8010 bound_to 7997
  140.6889  143.2920  151.3523 H   0  0  0  0  0  0  0  0  0  0  0  0  # atno 10167 bound_to 10162
  156.2207  130.6977  151.0753 H   0  0  0  0  0  0  0  0  0  0  0  0  # atno 10718 bound_to 10713
  154.6171  135.2871  155.0368 H   0  0  0  0  0  0  0  0  0  0  0  0  # atno 10763 bound_to 10752
  154.1576  135.6493  153.4982 H   0  0  0  0  0  0  0  0  0  0  0  0  # atno 10764 bound_to 10752
  153.0219  135.5370  154.6946 H   0  0  0  0  0  0  0  0  0  0  0  0  # atno 10765 bound_to 10752
  140.1961  134.8372  157.2966 H   0  0  0  0  0  0  0  0  0  0  0  0  # atno 11005 bound_to 11000
  145.7080  139.1677  143.2555 LP  0  0  0  0  0  0  0  0  0  0  0  0  # atno 17320 bound_to 7965
  146.1367  140.7113  142.9386 LP  0  0  0  0  0  0  0  0  0  0  0  0  # atno 17321 bound_to 7965
  139.6273  144.0789  152.2445 LP  0  0  0  0  0  0  0  0  0  0  0  0  # atno 17342 bound_to 10162
  140.0253  144.6122  150.7533 LP  0  0  0  0  0  0  0  0  0  0  0  0  # atno 17343 bound_to 10162
  157.7086  131.0745  150.6580 LP  0  0  0  0  0  0  0  0  0  0  0  0  # atno 17370 bound_to 10713
  156.6643  130.4521  149.5677 LP  0  0  0  0  0  0  0  0  0  0  0  0  # atno 17371 bound_to 10713
  140.2106  134.4143  155.7615 LP  0  0  0  0  0  0  0  0  0  0  0  0  # atno 17394 bound_to 11000
  141.2227  133.7116  156.8331 LP  0  0  0  0  0  0  0  0  0  0  0  0  # atno 17395 bound_to 11000

$$$$
