AV-unprocessed.smi:3025|AV-procd|sdf|11506|dock3
  -GOLD-   2272016443D 1   1.00000     0.00000
 Structure written by MMmdl.
 42 43  0  0  0  0  0  0  0  0  2 V2000
  144.1683  133.4901  151.1529 C   0  0  0  0  0  0  0  0  0  0  0  0
  144.3721  134.7790  151.9564 C   0  0  0  0  0  0  0  0  0  0  0  0
  145.3092  135.7716  151.2476 C   0  0  0  0  0  0  0  0  0  0  0  0
  145.5427  137.0851  152.0225 C   0  0  2  0  0  0  0  0  0  0  0  0
  146.3177  138.1337  151.1956 C   0  0  0  0  0  0  0  0  0  0  0  0
  146.5611  139.4260  151.9943 C   0  0  0  0  0  0  0  0  0  0  0  0
  147.2857  139.1635  153.3315 C   0  0  2  0  0  0  0  0  0  0  0  0
  148.6970  138.7541  153.1399 N   0  3  0  0  0  0  0  0  0  0  0  0
  149.5038  138.6560  154.3742 C   0  0  0  0  0  0  0  0  0  0  0  0
  150.9037  138.1050  154.0728 C   0  0  0  0  0  0  0  0  0  0  0  0
  151.8225  138.2125  155.2455 C   0  0  0  0  0  0  0  0  0  0  0  0
  152.1924  139.3864  155.7615 N   0  0  0  0  0  0  0  0  0  0  0  0
  153.0319  139.1727  156.7961 N   0  0  0  0  0  0  0  0  0  0  0  0
  153.1081  137.8435  156.8245 C   0  0  0  0  0  0  0  0  0  0  0  0
  152.3757  137.1832  155.8774 N   0  0  0  0  0  0  0  0  0  0  0  0
  146.5264  138.1023  154.1492 C   0  0  0  0  0  0  0  0  0  0  0  0
  146.2815  136.8114  153.3478 C   0  0  0  0  0  0  0  0  0  0  0  0
  151.9128  140.3095  155.4611 H   0  0  0  0  0  0  0  0  0  0  0  0
  143.4956  132.8093  151.6753 H   0  0  0  0  0  0  0  0  0  0  0  0
  145.1128  132.9685  150.9973 H   0  0  0  0  0  0  0  0  0  0  0  0
  143.7348  133.7000  150.1748 H   0  0  0  0  0  0  0  0  0  0  0  0
  143.3994  135.2378  152.1311 H   0  0  0  0  0  0  0  0  0  0  0  0
  144.7774  134.5278  152.9372 H   0  0  0  0  0  0  0  0  0  0  0  0
  146.2706  135.2794  151.0943 H   0  0  0  0  0  0  0  0  0  0  0  0
  144.9240  135.9939  150.2515 H   0  0  0  0  0  0  0  0  0  0  0  0
  144.5662  137.5033  152.2721 H   0  0  0  0  0  0  0  0  0  0  0  0
  147.2712  137.7177  150.8678 H   0  0  0  0  0  0  0  0  0  0  0  0
  145.7668  138.3847  150.2895 H   0  0  0  0  0  0  0  0  0  0  0  0
  147.1051  140.1468  151.3844 H   0  0  0  0  0  0  0  0  0  0  0  0
  145.5969  139.8912  152.2039 H   0  0  0  0  0  0  0  0  0  0  0  0
  147.2914  140.0859  153.9142 H   0  0  0  0  0  0  0  0  0  0  0  0
  148.6911  137.8392  152.7121 H   0  0  0  0  0  0  0  0  0  0  0  0
  149.5902  139.6390  154.8372 H   0  0  0  0  0  0  0  0  0  0  0  0
  148.9981  138.0042  155.0880 H   0  0  0  0  0  0  0  0  0  0  0  0
  150.8383  137.0593  153.7687 H   0  0  0  0  0  0  0  0  0  0  0  0
  151.3485  138.6452  153.2360 H   0  0  0  0  0  0  0  0  0  0  0  0
  153.7154  137.3284  157.5543 H   0  0  0  0  0  0  0  0  0  0  0  0
  147.0673  137.8744  155.0686 H   0  0  0  0  0  0  0  0  0  0  0  0
  145.5647  138.5124  154.4604 H   0  0  0  0  0  0  0  0  0  0  0  0
  145.7036  136.1159  153.9579 H   0  0  0  0  0  0  0  0  0  0  0  0
  147.2331  136.3185  153.1446 H   0  0  0  0  0  0  0  0  0  0  0  0
  149.1398  139.4009  152.5028 H   0  0  0  0  0  0  0  0  0  0  0  0
  1  2  1  0  0  0  0
  1 19  1  0  0  0  0
  1 20  1  0  0  0  0
  1 21  1  0  0  0  0
  2  3  1  0  0  0  0
  2 22  1  0  0  0  0
  2 23  1  0  0  0  0
  3  4  1  0  0  0  0
  3 24  1  0  0  0  0
  3 25  1  0  0  0  0
  4 17  1  0  0  0  0
  4  5  1  0  0  0  0
  4 26  1  0  0  0  0
  5  6  1  0  0  0  0
  5 27  1  0  0  0  0
  5 28  1  0  0  0  0
  6  7  1  0  0  0  0
  6 29  1  0  0  0  0
  6 30  1  0  0  0  0
  7  8  1  0  0  0  0
  7 16  1  0  0  0  0
  7 31  1  0  0  0  0
  8  9  1  0  0  0  0
  8 32  1  0  0  0  0
  8 42  1  0  0  0  0
  9 10  1  0  0  0  0
  9 33  1  0  0  0  0
  9 34  1  0  0  0  0
 10 35  1  0  0  0  0
 10 36  1  0  0  0  0
 10 11  1  0  0  0  0
 11 15  2  0  0  0  0
 11 12  1  0  0  0  0
 12 18  1  0  0  0  0
 12 13  1  0  0  0  0
 13 14  2  0  0  0  0
 14 15  1  0  0  0  0
 14 37  1  0  0  0  0
 16 17  1  0  0  0  0
 16 38  1  0  0  0  0
 16 39  1  0  0  0  0
 17 40  1  0  0  0  0
 17 41  1  0  0  0  0
M  CHG  1   8   1
M  END
> <s_m_source_file>
AV-unprocessed.smi

> <i_m_source_file_index>
3025

> <i_lp_mmshare_version>
43012

> <i_f3d_flags>
0

> <s_epik_input>
W0NIM11bQ0gyXVtDSDJdW0NAQEhdMVtDSDJdW0NIMl1bQ0BIXShbQ0gyXVtDSDJdMSlbTkhdW0NIMl1bQ0gyXWMybm5bY0hdW25IXTI=

> <s_epik_cmdline>
J2VwaWtfcHl0aG9uJywgJy1waCcsICc3LjAnLCAnLXRuJywgJzgnLCAnLW1hJywgJzIwMCcsICctbWV0YWxfYmluZGluZycsICctaW1hZScsICc8aW5maWxlLm1hZT4nLCAnLW9tYWUnLCAnPG91dGZpbGUubWFlPic=

> <r_lp_tautomer_probability>
0.948284

> <r_epik_Ionization_Penalty>
0.0093758

> <r_epik_Ionization_Penalty_Charging>
0.000546397

> <r_epik_Ionization_Penalty_Neutral>
0.00882941

> <r_epik_State_Penalty>
0.401098

> <r_epik_Charging_Adjusted_Penalty>
0.401645

> <i_epik_Tot_Q>
1

> <i_epik_Tot_abs_Q>
1

> <r_epik_Metal_State_Penalty>
0.634803

> <b_epik_Metal_Only>
0

> <s_lp_Force_Field>
OPLS_2005

> <r_lp_Energy>
16.9982

> <b_lp_Chiralities_Consistent>
1

> <s_lp_Variant>
AV-unprocessed.smi:3025-2

> <Gold.Version>
5.8.1

> <Gold.Id.Protein>
6NUR|6NUR_protein|mol2

> <Gold.PLP.Fitness>
43.5738

> <Gold.PLP.PLP>
-29.0718

> <Gold.PLP.part.hbond>
-4.0000

> <Gold.PLP.part.metal>
0.0000

> <Gold.PLP.part.buried>
1.5642

> <Gold.PLP.part.nonpolar>
-27.7254

> <Gold.PLP.part.repulsive>
0.2613

> <Gold.PLP.ligand.clash>
0.0000

> <Gold.PLP.ligand.torsion>
0.0859

> <Gold.PLP.Chemscore.Hbond>
4.8640

> <Gold.PLP.Chemscore.CHOScore>
0.0000

> <Gold.PLP.Chemscore.Metal>
0.0000

> <Gold.Chemscore.Hbonds>
donor molecule, donor type, donor heavy atom, donor atom, acceptor molecule, acceptor atom, score
      L1  H     8    32       P1  7948  2.00
      L1  H     8    42       P1  7957  1.00
      P1  H  7997  8009       L1    13  1.00
      P1  H 10752 10765       L1    15  0.83

> <Gold.PLP.Chemscore.Internal.Correction>
0.0818

> <Gold.Rescore>
     Score         DG    S(hbond)    S(metal)    S(lipo)     H(rot)  DE(clash)    DE(int)     intcor
     18.39     -19.34       3.71        0.00      68.60       2.56       0.84       0.10       ----

> <Gold.Chemscore.Fitness>
18.3937

> <Gold.Chemscore.DG>
-19.3386

> <Gold.Chemscore.ZeroCoef>
-5.4800

> <Gold.Chemscore.Hbond>
3.7084

> <Gold.Chemscore.Metal>
0.0000

> <Gold.Chemscore.Lipo>
68.6047

> <Gold.Chemscore.Internal_Hbond>
0.0000

> <Gold.Chemscore.DEClash>
0.8433

> <Gold.Chemscore.DEInternal>
0.1016

> <Gold.Chemscore.Rot>
2.5602

> <Gold.Chemscore.Internal.Correction>
   9.000000E+99

> <Gold.Chemscore.Hbonds>
donor molecule, donor type, donor heavy atom, donor atom, acceptor molecule, acceptor atom, score
      L1  H     8    32       P1  7948  1.00
      L1  H     8    42       P1  7957  0.95
      P1  H  7997  8009       L1    13  0.80
      P1  H 10752 10765       L1    15  0.76

> <Gold.Chemscore.Hbond.Weighted>
-12.3861

> <Gold.Chemscore.Metal.Weighted>
-0.0000

> <Gold.Chemscore.Lipo.Weighted>
-8.0268

> <Gold.Chemscore.Internal_Hbond.Weighted>
0.0000

> <Gold.Chemscore.DEClash.Weighted>
0.8433

> <Gold.Chemscore.DEInternal.Weighted>
0.1016

> <Gold.Chemscore.Rot.Weighted>
6.5542

> <Gold.Chemscore.Internal.Correction.Weighted>
   9.000000E+99

> <Gold.Protein.RotatedTorsions>
[ 6907 6896 6895 6894 ] final  -78.04 input  -60.11 | X-H torsion
[ 7974 7965 7964 7962 ] final  148.70 input  175.53 | X-H torsion
[ 8008 7997 7996 7995 ] final  177.05 input   59.86 | X-H torsion
[ 10167 10162 10161 10158 ] final -124.36 input  -65.29 | X-H torsion
[ 10718 10713 10712 10709 ] final  152.66 input   66.30 | X-H torsion
[ 10763 10752 10751 10750 ] final -161.46 input  -60.55 | X-H torsion
[ 11005 11000 10999 10996 ] final   -0.81 input  -57.11 | X-H torsion

> <Gold.Protein.ActiveResidues>
 VAL166  LYS551  ARG553  GLY616  TRP617  ASP618  TYR619  PRO620  LYS621  CYS622 
 ASP623  PHE694  ASN695  SER759  ASP760  ASP761  ALA762  ILE779  LEU786  VAL792 
 PHE793  MET794  SER795  GLU796  ALA797  LYS798  CYS799  TRP800  GLU811  SER814 

> <Gold.Protein.RotatedAtoms>
  150.6983  134.4332  159.5257 H   0  0  0  0  0  0  0  0  0  0  0  0  # atno 6907 bound_to 6896
  152.2055  134.8546  160.0512 H   0  0  0  0  0  0  0  0  0  0  0  0  # atno 6908 bound_to 6896
  151.9451  133.3614  159.4016 H   0  0  0  0  0  0  0  0  0  0  0  0  # atno 6909 bound_to 6896
  144.8493  139.6188  143.5981 H   0  0  0  0  0  0  0  0  0  0  0  0  # atno 7974 bound_to 7965
  156.0699  140.1368  156.9841 H   0  0  0  0  0  0  0  0  0  0  0  0  # atno 8008 bound_to 7997
  154.4526  140.0974  156.6714 H   0  0  0  0  0  0  0  0  0  0  0  0  # atno 8009 bound_to 7997
  155.5245  140.3457  155.4415 H   0  0  0  0  0  0  0  0  0  0  0  0  # atno 8010 bound_to 7997
  139.9936  143.5615  152.2332 H   0  0  0  0  0  0  0  0  0  0  0  0  # atno 10167 bound_to 10162
  157.2549  131.0786  151.1705 H   0  0  0  0  0  0  0  0  0  0  0  0  # atno 10718 bound_to 10713
  154.7302  135.3044  154.8904 H   0  0  0  0  0  0  0  0  0  0  0  0  # atno 10763 bound_to 10752
  153.9750  135.6737  153.4752 H   0  0  0  0  0  0  0  0  0  0  0  0  # atno 10764 bound_to 10752
  153.0911  135.4959  154.8612 H   0  0  0  0  0  0  0  0  0  0  0  0  # atno 10765 bound_to 10752
  140.6404  133.9495  155.8323 H   0  0  0  0  0  0  0  0  0  0  0  0  # atno 11005 bound_to 11000
  146.2771  139.6782  142.9255 LP  0  0  0  0  0  0  0  0  0  0  0  0  # atno 17320 bound_to 7965
  145.4532  141.0429  143.2793 LP  0  0  0  0  0  0  0  0  0  0  0  0  # atno 17321 bound_to 7965
  139.6322  144.7645  151.2512 LP  0  0  0  0  0  0  0  0  0  0  0  0  # atno 17342 bound_to 10162
  140.7445  143.6460  150.8292 LP  0  0  0  0  0  0  0  0  0  0  0  0  # atno 17343 bound_to 10162
  157.3238  130.6950  149.6284 LP  0  0  0  0  0  0  0  0  0  0  0  0  # atno 17370 bound_to 10713
  155.9665  130.4327  150.4977 LP  0  0  0  0  0  0  0  0  0  0  0  0  # atno 17371 bound_to 10713
  141.0611  134.0345  157.3657 LP  0  0  0  0  0  0  0  0  0  0  0  0  # atno 17394 bound_to 11000
  139.9082  135.0184  156.7580 LP  0  0  0  0  0  0  0  0  0  0  0  0  # atno 17395 bound_to 11000

$$$$
