AV-unprocessed.smi:3098|AV-procd|sdf|11800|dock5
  -GOLD-   2272017173D 1   1.00000     0.00000
 Structure written by MMmdl.
 30 31  0  0  0  0  0  0  0  0  2 V2000
  149.5974  138.5007  153.3392 N   0  3  0  0  0  0  0  0  0  0  0  0
  150.8565  138.2140  154.0463 C   0  0  0  0  0  0  0  0  0  0  0  0
  151.0624  139.1741  155.2006 C   0  0  0  0  0  0  0  0  0  0  0  0
  152.2208  139.1045  156.0027 C   0  0  0  0  0  0  0  0  0  0  0  0
  152.4518  139.9300  157.0451 N   0  0  0  0  0  0  0  0  0  0  0  0
  151.5267  140.8773  157.3350 C   0  0  0  0  0  0  0  0  0  0  0  0
  151.7684  141.7317  158.4206 N   0  0  0  0  0  0  0  0  0  0  0  0
  152.7996  141.2431  159.3276 C   0  0  0  0  0  0  0  0  0  0  0  0
  152.9040  142.1687  160.5522 C   0  0  0  0  0  0  0  0  0  0  0  0
  153.1486  143.5045  160.1212 O   0  0  0  0  0  0  0  0  0  0  0  0
  152.0993  144.0012  159.2950 C   0  0  0  0  0  0  0  0  0  0  0  0
  151.9739  143.1232  158.0378 C   0  0  0  0  0  0  0  0  0  0  0  0
  150.3375  141.0280  156.5880 C   0  0  0  0  0  0  0  0  0  0  0  0
  149.4326  141.9851  156.9047 F   0  0  0  0  0  0  0  0  0  0  0  0
  150.1034  140.1626  155.5022 C   0  0  0  0  0  0  0  0  0  0  0  0
  148.8805  138.7396  154.0096 H   0  0  0  0  0  0  0  0  0  0  0  0
  149.3102  137.6855  152.8165 H   0  0  0  0  0  0  0  0  0  0  0  0
  150.8373  137.1881  154.4154 H   0  0  0  0  0  0  0  0  0  0  0  0
  151.6890  138.2888  153.3457 H   0  0  0  0  0  0  0  0  0  0  0  0
  152.9809  138.3626  155.8070 H   0  0  0  0  0  0  0  0  0  0  0  0
  152.5628  140.2268  159.6449 H   0  0  0  0  0  0  0  0  0  0  0  0
  153.7591  141.2053  158.8099 H   0  0  0  0  0  0  0  0  0  0  0  0
  151.9917  142.1293  161.1497 H   0  0  0  0  0  0  0  0  0  0  0  0
  153.7221  141.8482  161.1976 H   0  0  0  0  0  0  0  0  0  0  0  0
  151.1613  144.0202  159.8522 H   0  0  0  0  0  0  0  0  0  0  0  0
  152.3247  145.0299  159.0141 H   0  0  0  0  0  0  0  0  0  0  0  0
  152.8784  143.2115  157.4342 H   0  0  0  0  0  0  0  0  0  0  0  0
  151.1399  143.4648  157.4235 H   0  0  0  0  0  0  0  0  0  0  0  0
  149.2016  140.2565  154.9148 H   0  0  0  0  0  0  0  0  0  0  0  0
  149.7348  139.2750  152.7051 H   0  0  0  0  0  0  0  0  0  0  0  0
  1  2  1  0  0  0  0
  1 16  1  0  0  0  0
  1 17  1  0  0  0  0
  1 30  1  0  0  0  0
  2  3  1  0  0  0  0
  2 18  1  0  0  0  0
  2 19  1  0  0  0  0
  3 15  1  0  0  0  0
  3  4  2  0  0  0  0
  4  5  1  0  0  0  0
  4 20  1  0  0  0  0
  5  6  2  0  0  0  0
  6  7  1  0  0  0  0
  6 13  1  0  0  0  0
  7 12  1  0  0  0  0
  7  8  1  0  0  0  0
  8  9  1  0  0  0  0
  8 21  1  0  0  0  0
  8 22  1  0  0  0  0
  9 10  1  0  0  0  0
  9 23  1  0  0  0  0
  9 24  1  0  0  0  0
 10 11  1  0  0  0  0
 11 12  1  0  0  0  0
 11 25  1  0  0  0  0
 11 26  1  0  0  0  0
 12 27  1  0  0  0  0
 12 28  1  0  0  0  0
 13 14  1  0  0  0  0
 13 15  2  0  0  0  0
 15 29  1  0  0  0  0
M  CHG  1   1   1
M  END
> <s_m_source_file>
AV-unprocessed.smi

> <i_m_source_file_index>
3098

> <i_lp_mmshare_version>
43012

> <i_f3d_flags>
0

> <s_epik_input>
W05IMl1bQ0gyXWMxW2NIXW5jKGMoRilbY0hdMSlOMltDSDJdW0NIMl1PW0NIMl1bQ0gyXTI=

> <s_epik_cmdline>
J2VwaWtfcHl0aG9uJywgJy1waCcsICc3LjAnLCAnLXRuJywgJzgnLCAnLW1hJywgJzIwMCcsICctbWV0YWxfYmluZGluZycsICctaW1hZScsICc8aW5maWxlLm1hZT4nLCAnLW9tYWUnLCAnPG91dGZpbGUubWFlPic=

> <r_lp_tautomer_probability>
1

> <r_epik_Ionization_Penalty>
0.06982

> <r_epik_Ionization_Penalty_Charging>
0.0698168

> <r_epik_Ionization_Penalty_Neutral>
3.20429e-06

> <r_epik_State_Penalty>
0.0611812

> <r_epik_Charging_Adjusted_Penalty>
0.130998

> <i_epik_Tot_Q>
1

> <i_epik_Tot_abs_Q>
1

> <r_epik_Metal_State_Penalty>
0.0611834

> <b_epik_Metal_Only>
0

> <s_lp_Force_Field>
OPLS_2005

> <r_lp_Energy>
20.0675

> <b_lp_Chiralities_Consistent>
1

> <s_lp_Variant>
AV-unprocessed.smi:3098-1

> <Gold.Version>
5.8.1

> <Gold.Id.Protein>
6NUR|6NUR_protein|mol2

> <Gold.PLP.Fitness>
42.8631

> <Gold.PLP.PLP>
-31.3083

> <Gold.PLP.part.hbond>
-2.9243

> <Gold.PLP.part.metal>
0.0000

> <Gold.PLP.part.buried>
-3.3193

> <Gold.PLP.part.nonpolar>
-24.7082

> <Gold.PLP.part.repulsive>
0.0974

> <Gold.PLP.ligand.clash>
0.0000

> <Gold.PLP.ligand.torsion>
0.2653

> <Gold.PLP.Chemscore.Hbond>
3.9920

> <Gold.PLP.Chemscore.CHOScore>
0.0000

> <Gold.PLP.Chemscore.Metal>
0.0000

> <Gold.Chemscore.Hbonds>
donor molecule, donor type, donor heavy atom, donor atom, acceptor molecule, acceptor atom, score
      L1  H     1    17       P1  7948  2.00
      L1  H     1    30       P1  7957  1.00
      P1  H  7997  8008       L1     5  0.75

> <Gold.PLP.Chemscore.Internal.Correction>
0.1094

> <Gold.Rescore>
     Score         DG    S(hbond)    S(metal)    S(lipo)     H(rot)  DE(clash)    DE(int)     intcor
     18.50     -19.82       2.63        0.00      76.82       1.34       0.03       1.29       ----

> <Gold.Chemscore.Fitness>
18.5013

> <Gold.Chemscore.DG>
-19.8249

> <Gold.Chemscore.ZeroCoef>
-5.4800

> <Gold.Chemscore.Hbond>
2.6329

> <Gold.Chemscore.Metal>
0.0000

> <Gold.Chemscore.Lipo>
76.8154

> <Gold.Chemscore.Internal_Hbond>
0.0000

> <Gold.Chemscore.DEClash>
0.0294

> <Gold.Chemscore.DEInternal>
1.2942

> <Gold.Chemscore.Rot>
1.3423

> <Gold.Chemscore.Internal.Correction>
   9.000000E+99

> <Gold.Chemscore.Hbonds>
donor molecule, donor type, donor heavy atom, donor atom, acceptor molecule, acceptor atom, score
      L1  H     1    17       P1  7948  0.94
      L1  H     1    30       P1  7957  0.94
      P1  H  7997  8008       L1     5  0.09

> <Gold.Chemscore.Hbond.Weighted>
-8.7938

> <Gold.Chemscore.Metal.Weighted>
-0.0000

> <Gold.Chemscore.Lipo.Weighted>
-8.9874

> <Gold.Chemscore.Internal_Hbond.Weighted>
0.0000

> <Gold.Chemscore.DEClash.Weighted>
0.0294

> <Gold.Chemscore.DEInternal.Weighted>
1.2942

> <Gold.Chemscore.Rot.Weighted>
3.4363

> <Gold.Chemscore.Internal.Correction.Weighted>
   9.000000E+99

> <Gold.Protein.RotatedTorsions>
[ 6907 6896 6895 6894 ] final   -9.94 input  -60.11 | X-H torsion
[ 7974 7965 7964 7962 ] final  -30.81 input  175.53 | X-H torsion
[ 8008 7997 7996 7995 ] final  -65.48 input   59.86 | X-H torsion
[ 10167 10162 10161 10158 ] final   13.12 input  -65.29 | X-H torsion
[ 10718 10713 10712 10709 ] final  102.21 input   66.30 | X-H torsion
[ 10763 10752 10751 10750 ] final  -95.53 input  -60.55 | X-H torsion
[ 11005 11000 10999 10996 ] final  -41.03 input  -57.11 | X-H torsion

> <Gold.Protein.ActiveResidues>
 VAL166  LYS551  ARG553  GLY616  TRP617  ASP618  TYR619  PRO620  LYS621  CYS622 
 ASP623  PHE694  ASN695  SER759  ASP760  ASP761  ALA762  ILE779  LEU786  VAL792 
 PHE793  MET794  SER795  GLU796  ALA797  LYS798  CYS799  TRP800  GLU811  SER814 

> <Gold.Protein.RotatedAtoms>
  151.4098  135.0983  159.9581 H   0  0  0  0  0  0  0  0  0  0  0  0  # atno 6907 bound_to 6896
  152.5024  133.8809  159.7356 H   0  0  0  0  0  0  0  0  0  0  0  0  # atno 6908 bound_to 6896
  150.9301  133.6720  159.2841 H   0  0  0  0  0  0  0  0  0  0  0  0  # atno 6909 bound_to 6896
  146.1115  140.5587  142.8776 H   0  0  0  0  0  0  0  0  0  0  0  0  # atno 7974 bound_to 7965
  154.4675  140.0932  156.7057 H   0  0  0  0  0  0  0  0  0  0  0  0  # atno 8008 bound_to 7997
  155.4818  140.3468  155.4322 H   0  0  0  0  0  0  0  0  0  0  0  0  # atno 8009 bound_to 7997
  156.0981  140.1415  156.9492 H   0  0  0  0  0  0  0  0  0  0  0  0  # atno 8010 bound_to 7997
  140.6023  143.8579  150.6978 H   0  0  0  0  0  0  0  0  0  0  0  0  # atno 10167 bound_to 10162
  157.6808  131.0747  150.5369 H   0  0  0  0  0  0  0  0  0  0  0  0  # atno 10718 bound_to 10713
  154.7157  135.5117  153.8733 H   0  0  0  0  0  0  0  0  0  0  0  0  # atno 10763 bound_to 10752
  153.0818  135.6633  154.0039 H   0  0  0  0  0  0  0  0  0  0  0  0  # atno 10764 bound_to 10752
  153.9872  135.3023  155.3394 H   0  0  0  0  0  0  0  0  0  0  0  0  # atno 10765 bound_to 10752
  141.0217  133.6860  156.2402 H   0  0  0  0  0  0  0  0  0  0  0  0  # atno 11005 bound_to 11000
  144.7516  140.5204  143.6798 LP  0  0  0  0  0  0  0  0  0  0  0  0  # atno 17320 bound_to 7965
  145.5654  139.1481  143.3318 LP  0  0  0  0  0  0  0  0  0  0  0  0  # atno 17321 bound_to 7965
  140.2128  143.3870  152.1705 LP  0  0  0  0  0  0  0  0  0  0  0  0  # atno 17342 bound_to 10162
  139.5300  144.7148  151.5090 LP  0  0  0  0  0  0  0  0  0  0  0  0  # atno 17343 bound_to 10162
  156.5677  130.4272  149.6034 LP  0  0  0  0  0  0  0  0  0  0  0  0  # atno 17370 bound_to 10713
  156.2767  130.7048  151.1860 LP  0  0  0  0  0  0  0  0  0  0  0  0  # atno 17371 bound_to 10713
  140.6562  134.5016  157.5580 LP  0  0  0  0  0  0  0  0  0  0  0  0  # atno 17394 bound_to 11000
  139.9150  134.8265  156.1397 LP  0  0  0  0  0  0  0  0  0  0  0  0  # atno 17395 bound_to 11000

$$$$
