AV-unprocessed.smi:1920|AV-procd|sdf|7779|dock4
  -GOLD-   22720 9523D 1   1.00000     0.00000
 Structure written by MMmdl.
 37 38  0  0  0  0  0  0  0  0  2 V2000
  145.7057  132.3561  153.4476 C   0  0  0  0  0  0  0  0  0  0  0  0
  147.0915  132.5203  152.7958 C   0  0  2  0  0  0  0  0  0  0  0  0
  147.0211  133.0488  151.3497 C   0  0  0  0  0  0  0  0  0  0  0  0
  145.7916  133.7992  151.0754 N   0  0  0  0  0  0  0  0  0  0  0  0
  145.6246  135.1594  151.1246 C   0  0  0  0  0  0  0  0  0  0  0  0
  144.3174  135.4050  150.7918 C   0  0  0  0  0  0  0  0  0  0  0  0
  143.7431  134.1856  150.5502 N   0  3  0  0  0  0  0  0  0  0  0  0
  144.6419  133.2104  150.7203 C   0  0  0  0  0  0  0  0  0  0  0  0
  147.8086  131.2485  152.8041 N   0  0  0  0  0  0  0  0  0  0  0  0
  148.2508  130.6126  153.9004 C   0  0  0  0  0  0  0  0  0  0  0  0
  148.0958  131.0454  155.0422 O   0  0  0  0  0  0  0  0  0  0  0  0
  148.9812  129.2849  153.6720 C   0  0  0  0  0  0  0  0  0  0  0  0
  148.0822  128.1799  153.0752 C   0  0  1  0  0  0  0  0  0  0  0  0
  147.6069  128.4761  151.6728 C   0  0  0  0  0  0  0  0  0  0  0  0
  147.8876  127.4961  150.8169 C   0  0  0  0  0  0  0  0  0  0  0  0
  148.6080  126.3495  151.4701 C   0  0  0  0  0  0  0  0  0  0  0  0
  148.8082  126.8178  152.9290 C   0  0  0  0  0  0  0  0  0  0  0  0
  145.1815  133.3093  153.5178 H   0  0  0  0  0  0  0  0  0  0  0  0
  145.7892  131.9624  154.4612 H   0  0  0  0  0  0  0  0  0  0  0  0
  145.0780  131.6709  152.8769 H   0  0  0  0  0  0  0  0  0  0  0  0
  147.6613  133.2416  153.3845 H   0  0  0  0  0  0  0  0  0  0  0  0
  147.8601  133.7159  151.1470 H   0  0  0  0  0  0  0  0  0  0  0  0
  147.0903  132.2270  150.6348 H   0  0  0  0  0  0  0  0  0  0  0  0
  146.4272  135.8332  151.3877 H   0  0  0  0  0  0  0  0  0  0  0  0
  143.7681  136.3318  150.7102 H   0  0  0  0  0  0  0  0  0  0  0  0
  144.4701  132.1556  150.5989 H   0  0  0  0  0  0  0  0  0  0  0  0
  147.9823  130.8164  151.9080 H   0  0  0  0  0  0  0  0  0  0  0  0
  149.8430  129.4485  153.0226 H   0  0  0  0  0  0  0  0  0  0  0  0
  149.3790  128.9525  154.6315 H   0  0  0  0  0  0  0  0  0  0  0  0
  147.1965  128.0488  153.6989 H   0  0  0  0  0  0  0  0  0  0  0  0
  147.0818  129.3856  151.4198 H   0  0  0  0  0  0  0  0  0  0  0  0
  147.6289  127.4914  149.7684 H   0  0  0  0  0  0  0  0  0  0  0  0
  147.9990  125.4466  151.4150 H   0  0  0  0  0  0  0  0  0  0  0  0
  149.5587  126.1606  150.9708 H   0  0  0  0  0  0  0  0  0  0  0  0
  149.8738  126.9172  153.1394 H   0  0  0  0  0  0  0  0  0  0  0  0
  148.4134  126.0859  153.6344 H   0  0  0  0  0  0  0  0  0  0  0  0
  142.7780  134.0404  150.2809 H   0  0  0  0  0  0  0  0  0  0  0  0
  1  2  1  0  0  0  0
  1 18  1  0  0  0  0
  1 19  1  0  0  0  0
  1 20  1  0  0  0  0
  2  3  1  0  0  0  0
  2  9  1  0  0  0  0
  2 21  1  0  0  0  0
  3  4  1  0  0  0  0
  3 22  1  0  0  0  0
  3 23  1  0  0  0  0
  4  8  1  0  0  0  0
  4  5  1  0  0  0  0
  5  6  2  0  0  0  0
  5 24  1  0  0  0  0
  6  7  1  0  0  0  0
  6 25  1  0  0  0  0
  7  8  2  0  0  0  0
  7 37  1  0  0  0  0
  8 26  1  0  0  0  0
  9 10  1  0  0  0  0
  9 27  1  0  0  0  0
 10 11  2  0  0  0  0
 10 12  1  0  0  0  0
 12 13  1  0  0  0  0
 12 28  1  0  0  0  0
 12 29  1  0  0  0  0
 13 17  1  0  0  0  0
 13 14  1  0  0  0  0
 13 30  1  0  0  0  0
 14 15  2  0  0  0  0
 14 31  1  0  0  0  0
 15 16  1  0  0  0  0
 15 32  1  0  0  0  0
 16 17  1  0  0  0  0
 16 33  1  0  0  0  0
 16 34  1  0  0  0  0
 17 35  1  0  0  0  0
 17 36  1  0  0  0  0
M  CHG  1   7   1
M  END
> <s_m_source_file>
AV-unprocessed.smi

> <i_m_source_file_index>
1920

> <i_lp_mmshare_version>
43012

> <i_f3d_flags>
0

> <s_epik_input>
W2NIXTFuW2NIXVtjSF1uMVtDSDJdW0NAQEhdKFtDSDNdKVtOSF1DKD1PKVtDSDJdW0NAQEhdMltDSF09W0NIXVtDSDJdW0NIMl0y

> <s_epik_cmdline>
J2VwaWtfcHl0aG9uJywgJy1waCcsICc3LjAnLCAnLXRuJywgJzgnLCAnLW1hJywgJzIwMCcsICctbWV0YWxfYmluZGluZycsICctaW1hZScsICc8aW5maWxlLm1hZT4nLCAnLW9tYWUnLCAnPG91dGZpbGUubWFlPic=

> <r_lp_tautomer_probability>
1

> <r_epik_Ionization_Penalty>
0.24816

> <r_epik_Ionization_Penalty_Charging>
0

> <r_epik_Ionization_Penalty_Neutral>
0.24816

> <r_epik_State_Penalty>
0.2394

> <r_epik_Charging_Adjusted_Penalty>
0.2394

> <i_epik_Tot_Q>
1

> <i_epik_Tot_abs_Q>
1

> <r_epik_Metal_State_Penalty>
0.531457

> <b_epik_Metal_Only>
0

> <s_lp_Force_Field>
OPLS_2005

> <r_lp_Energy>
20.8449

> <b_lp_Chiralities_Consistent>
1

> <s_lp_Variant>
AV-unprocessed.smi:1920-3

> <Gold.Version>
5.8.1

> <Gold.Id.Protein>
6NUR|6NUR_protein|mol2

> <Gold.PLP.Fitness>
44.4796

> <Gold.PLP.PLP>
-34.7081

> <Gold.PLP.part.hbond>
-2.0000

> <Gold.PLP.part.metal>
0.0000

> <Gold.PLP.part.buried>
-3.6766

> <Gold.PLP.part.nonpolar>
-29.3643

> <Gold.PLP.part.repulsive>
0.0269

> <Gold.PLP.ligand.clash>
0.0000

> <Gold.PLP.ligand.torsion>
0.9250

> <Gold.PLP.Chemscore.Hbond>
2.8480

> <Gold.PLP.Chemscore.CHOScore>
1.0000

> <Gold.PLP.Chemscore.Metal>
0.0000

> <Gold.Chemscore.Hbonds>
donor molecule, donor type, donor heavy atom, donor atom, acceptor molecule, acceptor atom, score
      L1  H     7    37       P1 10186  2.00
      L1  H     9    27       P1 10747  0.94
      L1  C     5    24       P1  7948  0.92

> <Gold.PLP.Chemscore.Internal.Correction>
0.0775

> <Gold.Rescore>
     Score         DG    S(hbond)    S(metal)    S(lipo)     H(rot)  DE(clash)    DE(int)     intcor
     13.29     -14.43       1.82        0.00      68.71       2.01       0.09       1.05       ----

> <Gold.Chemscore.Fitness>
13.2886

> <Gold.Chemscore.DG>
-14.4328

> <Gold.Chemscore.ZeroCoef>
-5.4800

> <Gold.Chemscore.Hbond>
1.8163

> <Gold.Chemscore.Metal>
0.0000

> <Gold.Chemscore.Lipo>
68.7142

> <Gold.Chemscore.Internal_Hbond>
0.0000

> <Gold.Chemscore.DEClash>
0.0916

> <Gold.Chemscore.DEInternal>
1.0526

> <Gold.Chemscore.Rot>
2.0130

> <Gold.Chemscore.Internal.Correction>
   9.000000E+99

> <Gold.Chemscore.Hbonds>
donor molecule, donor type, donor heavy atom, donor atom, acceptor molecule, acceptor atom, score
      L1  H     7    37       P1 10186  0.94
      L1  H     9    27       P1 10747  0.91

> <Gold.Chemscore.Hbond.Weighted>
-6.0665

> <Gold.Chemscore.Metal.Weighted>
-0.0000

> <Gold.Chemscore.Lipo.Weighted>
-8.0396

> <Gold.Chemscore.Internal_Hbond.Weighted>
0.0000

> <Gold.Chemscore.DEClash.Weighted>
0.0916

> <Gold.Chemscore.DEInternal.Weighted>
1.0526

> <Gold.Chemscore.Rot.Weighted>
5.1533

> <Gold.Chemscore.Internal.Correction.Weighted>
   9.000000E+99

> <Gold.Protein.RotatedTorsions>
[ 6907 6896 6895 6894 ] final -143.31 input  -60.11 | X-H torsion
[ 7974 7965 7964 7962 ] final -147.39 input  175.53 | X-H torsion
[ 8008 7997 7996 7995 ] final   69.35 input   59.86 | X-H torsion
[ 10167 10162 10161 10158 ] final  167.86 input  -65.29 | X-H torsion
[ 10718 10713 10712 10709 ] final  105.12 input   66.30 | X-H torsion
[ 10763 10752 10751 10750 ] final   66.27 input  -60.55 | X-H torsion
[ 11005 11000 10999 10996 ] final   80.13 input  -57.11 | X-H torsion

> <Gold.Protein.ActiveResidues>
 VAL166  LYS551  ARG553  GLY616  TRP617  ASP618  TYR619  PRO620  LYS621  CYS622 
 ASP623  PHE694  ASN695  SER759  ASP760  ASP761  ALA762  ILE779  LEU786  VAL792 
 PHE793  MET794  SER795  GLU796  ALA797  LYS798  CYS799  TRP800  GLU811  SER814 

> <Gold.Protein.RotatedAtoms>
  151.0988  133.5259  159.2610 H   0  0  0  0  0  0  0  0  0  0  0  0  # atno 6907 bound_to 6896
  151.2098  135.0476  159.8916 H   0  0  0  0  0  0  0  0  0  0  0  0  # atno 6908 bound_to 6896
  152.5441  134.0805  159.8287 H   0  0  0  0  0  0  0  0  0  0  0  0  # atno 6909 bound_to 6896
  144.8097  140.5333  143.5651 H   0  0  0  0  0  0  0  0  0  0  0  0  # atno 7974 bound_to 7965
  155.7223  140.3493  155.5022 H   0  0  0  0  0  0  0  0  0  0  0  0  # atno 8008 bound_to 7997
  155.9258  140.1075  157.1193 H   0  0  0  0  0  0  0  0  0  0  0  0  # atno 8009 bound_to 7997
  154.4077  140.1241  156.4725 H   0  0  0  0  0  0  0  0  0  0  0  0  # atno 8010 bound_to 7997
  139.4955  144.3876  151.9553 H   0  0  0  0  0  0  0  0  0  0  0  0  # atno 10167 bound_to 10162
  157.6716  131.0820  150.5809 H   0  0  0  0  0  0  0  0  0  0  0  0  # atno 10718 bound_to 10713
  153.0132  135.5326  154.6798 H   0  0  0  0  0  0  0  0  0  0  0  0  # atno 10763 bound_to 10752
  154.5961  135.2863  155.0587 H   0  0  0  0  0  0  0  0  0  0  0  0  # atno 10764 bound_to 10752
  154.1662  135.6539  153.5050 H   0  0  0  0  0  0  0  0  0  0  0  0  # atno 10765 bound_to 10752
  139.9146  134.7897  156.1869 H   0  0  0  0  0  0  0  0  0  0  0  0  # atno 11005 bound_to 11000
  145.5354  139.1475  143.3476 LP  0  0  0  0  0  0  0  0  0  0  0  0  # atno 17320 bound_to 7965
  146.2393  140.5494  142.8941 LP  0  0  0  0  0  0  0  0  0  0  0  0  # atno 17321 bound_to 7965
  140.3313  144.3313  150.5987 LP  0  0  0  0  0  0  0  0  0  0  0  0  # atno 17342 bound_to 10162
  140.5642  143.2188  151.7712 LP  0  0  0  0  0  0  0  0  0  0  0  0  # atno 17343 bound_to 10162
  156.6110  130.4380  149.5859 LP  0  0  0  0  0  0  0  0  0  0  0  0  # atno 17370 bound_to 10713
  156.2431  130.6863  151.1574 LP  0  0  0  0  0  0  0  0  0  0  0  0  # atno 17371 bound_to 10713
  141.0607  133.6843  156.1948 LP  0  0  0  0  0  0  0  0  0  0  0  0  # atno 17394 bound_to 11000
  140.6665  134.4913  157.5585 LP  0  0  0  0  0  0  0  0  0  0  0  0  # atno 17395 bound_to 11000

$$$$
