AV-unprocessed.smi:32|AV-procd|sdf|198|dock7
  -GOLD-   2262015473D 1   1.00000     0.00000
 Structure written by MMmdl.
 49 51  0  0  0  0  0  0  0  0  1 V2000
  152.0469  136.9731  160.0559 O   0  0  0  0  0  0  0  0  0  0  0  0
  152.7559  137.9750  159.9538 C   0  0  0  0  0  0  0  0  0  0  0  0
  153.0087  138.6202  158.5830 C   0  0  0  0  0  0  0  0  0  0  0  0
  152.2959  139.9035  158.4027 N   0  0  0  0  0  0  0  0  0  0  0  0
  151.2999  139.9846  157.3977 C   0  0  0  0  0  0  0  0  0  0  0  0
  151.0211  139.0112  156.6956 O   0  0  0  0  0  0  0  0  0  0  0  0
  150.6514  141.2830  157.2560 C   0  0  0  0  0  0  0  0  0  0  0  0
  149.6960  141.4521  156.3261 F   0  0  0  0  0  0  0  0  0  0  0  0
  150.9986  142.3220  158.0428 C   0  0  0  0  0  0  0  0  0  0  0  0
  151.9740  142.2296  159.0192 N   0  0  0  0  0  0  0  0  0  0  0  0
  152.3555  143.4208  159.8719 C   0  0  1  0  0  0  0  0  0  0  0  0
  152.7302  144.6109  158.9827 C   0  0  0  0  0  0  0  0  0  0  0  0
  151.4002  145.3180  158.8386 C   0  0  0  0  0  0  0  0  0  0  0  0
  150.7730  145.0811  160.2087 C   0  0  0  0  0  0  0  0  0  0  0  0
  151.2536  143.8091  160.6412 O   0  0  0  0  0  0  0  0  0  0  0  0
  152.6550  141.0077  159.2122 C   0  0  0  0  0  0  0  0  0  0  0  0
  153.5472  140.9122  160.0577 O   0  0  0  0  0  0  0  0  0  0  0  0
  153.3634  138.5657  160.9974 N   0  0  0  0  0  0  0  0  0  0  0  0
  153.3099  138.1684  162.4076 C   0  0  0  0  0  0  0  0  0  0  0  0
  154.4469  138.8566  163.1996 C   0  0  0  0  0  0  0  0  0  0  0  0
  154.2799  138.8485  164.7261 C   0  0  0  0  0  0  0  0  0  0  0  0
  154.1414  137.4538  165.3581 C   0  0  0  0  0  0  0  0  0  0  0  0
  152.7622  136.8256  165.1076 C   0  0  0  0  0  0  0  0  0  0  0  0
  152.6150  136.0532  163.7852 C   0  0  0  0  0  0  0  0  0  0  0  0
  153.3334  136.6281  162.5503 C   0  0  0  0  0  0  0  0  0  0  0  0
  154.0824  138.7586  158.4423 H   0  0  0  0  0  0  0  0  0  0  0  0
  152.7340  137.8979  157.8134 H   0  0  0  0  0  0  0  0  0  0  0  0
  150.4878  143.2601  157.8864 H   0  0  0  0  0  0  0  0  0  0  0  0
  153.1611  143.0797  160.5244 H   0  0  0  0  0  0  0  0  0  0  0  0
  153.4404  145.2388  159.5219 H   0  0  0  0  0  0  0  0  0  0  0  0
  153.1763  144.3024  158.0365 H   0  0  0  0  0  0  0  0  0  0  0  0
  151.5002  146.3753  158.5920 H   0  0  0  0  0  0  0  0  0  0  0  0
  150.8028  144.8414  158.0606 H   0  0  0  0  0  0  0  0  0  0  0  0
  151.1111  145.8393  160.9161 H   0  0  0  0  0  0  0  0  0  0  0  0
  149.6836  145.1068  160.1793 H   0  0  0  0  0  0  0  0  0  0  0  0
  153.9217  139.3821  160.7946 H   0  0  0  0  0  0  0  0  0  0  0  0
  152.3507  138.5420  162.7674 H   0  0  0  0  0  0  0  0  0  0  0  0
  155.4063  138.4041  162.9460 H   0  0  0  0  0  0  0  0  0  0  0  0
  154.5214  139.8980  162.8830 H   0  0  0  0  0  0  0  0  0  0  0  0
  155.1499  139.3405  165.1621 H   0  0  0  0  0  0  0  0  0  0  0  0
  153.4252  139.4664  165.0042 H   0  0  0  0  0  0  0  0  0  0  0  0
  154.9431  136.7896  165.0331 H   0  0  0  0  0  0  0  0  0  0  0  0
  154.2665  137.5676  166.4355 H   0  0  0  0  0  0  0  0  0  0  0  0
  152.5341  136.1380  165.9227 H   0  0  0  0  0  0  0  0  0  0  0  0
  151.9955  137.5994  165.1656 H   0  0  0  0  0  0  0  0  0  0  0  0
  152.9665  135.0313  163.9310 H   0  0  0  0  0  0  0  0  0  0  0  0
  151.5506  135.9638  163.5655 H   0  0  0  0  0  0  0  0  0  0  0  0
  152.8789  136.1675  161.6718 H   0  0  0  0  0  0  0  0  0  0  0  0
  154.3680  136.2829  162.5488 H   0  0  0  0  0  0  0  0  0  0  0  0
  1  2  2  0  0  0  0
  2  3  1  0  0  0  0
  2 18  1  0  0  0  0
  3  4  1  0  0  0  0
  3 26  1  0  0  0  0
  3 27  1  0  0  0  0
  4 16  1  0  0  0  0
  4  5  1  0  0  0  0
  5  6  2  0  0  0  0
  5  7  1  0  0  0  0
  7  8  1  0  0  0  0
  7  9  2  0  0  0  0
  9 10  1  0  0  0  0
  9 28  1  0  0  0  0
 10 11  1  0  0  0  0
 10 16  1  0  0  0  0
 11 15  1  0  0  0  0
 11 12  1  0  0  0  0
 11 29  1  0  0  0  0
 12 13  1  0  0  0  0
 12 30  1  0  0  0  0
 12 31  1  0  0  0  0
 13 14  1  0  0  0  0
 13 32  1  0  0  0  0
 13 33  1  0  0  0  0
 14 15  1  0  0  0  0
 14 34  1  0  0  0  0
 14 35  1  0  0  0  0
 16 17  2  0  0  0  0
 18 19  1  0  0  0  0
 18 36  1  0  0  0  0
 19 25  1  0  0  0  0
 19 20  1  0  0  0  0
 19 37  1  0  0  0  0
 20 21  1  0  0  0  0
 20 38  1  0  0  0  0
 20 39  1  0  0  0  0
 21 22  1  0  0  0  0
 21 40  1  0  0  0  0
 21 41  1  0  0  0  0
 22 23  1  0  0  0  0
 22 42  1  0  0  0  0
 22 43  1  0  0  0  0
 23 24  1  0  0  0  0
 23 44  1  0  0  0  0
 23 45  1  0  0  0  0
 24 25  1  0  0  0  0
 24 46  1  0  0  0  0
 24 47  1  0  0  0  0
 25 48  1  0  0  0  0
 25 49  1  0  0  0  0
M  END
> <s_m_source_file>
AV-unprocessed.smi

> <i_m_source_file_index>
32

> <i_lp_mmshare_version>
43012

> <i_f3d_flags>
0

> <s_epik_input>
W0NIMl0xW0NIMl1bQ0gyXVtDSDJdW0NIMl1bQ0gyXVtDSF0xW05IXUMoPU8pW0NIMl1uMmMoPU8pYyhGKVtjSF1uKGMyPU8pW0NAQEhdM1tDSDJdW0NIMl1bQ0gyXU8z

> <s_epik_cmdline>
J2VwaWtfcHl0aG9uJywgJy1waCcsICc3LjAnLCAnLXRuJywgJzgnLCAnLW1hJywgJzIwMCcsICctbWV0YWxfYmluZGluZycsICctaW1hZScsICc8aW5maWxlLm1hZT4nLCAnLW9tYWUnLCAnPG91dGZpbGUubWFlPic=

> <r_lp_tautomer_probability>
1

> <r_epik_Ionization_Penalty>
2.43741e-08

> <r_epik_Ionization_Penalty_Charging>
4.15308e-09

> <r_epik_Ionization_Penalty_Neutral>
2.0221e-08

> <r_epik_State_Penalty>
-0

> <r_epik_Charging_Adjusted_Penalty>
4.15308e-09

> <i_epik_Tot_Q>
0

> <i_epik_Tot_abs_Q>
0

> <r_epik_Metal_State_Penalty>
-0

> <b_epik_Metal_Only>
0

> <s_epik_Chemistry_Notes>
This compound contains an acetal/aminal-like group ( X-CH(R)-Y where X, Y are N, S, or O) that may be acid/base labile, releasing an aldehyde.

> <s_lp_Force_Field>
OPLS_2005

> <r_lp_Energy>
36.3437

> <b_lp_Chiralities_Consistent>
1

> <s_lp_Variant>
AV-unprocessed.smi:32-2

> <Gold.Version>
5.8.1

> <Gold.Id.Protein>
6NUR|6NUR_protein|mol2

> <Gold.PLP.Fitness>
50.8426

> <Gold.PLP.PLP>
-48.7265

> <Gold.PLP.part.hbond>
-1.1989

> <Gold.PLP.part.metal>
0.0000

> <Gold.PLP.part.buried>
-6.0059

> <Gold.PLP.part.nonpolar>
-42.1764

> <Gold.PLP.part.repulsive>
0.1267

> <Gold.PLP.ligand.clash>
0.0000

> <Gold.PLP.ligand.torsion>
0.4612

> <Gold.PLP.Chemscore.Hbond>
1.0000

> <Gold.PLP.Chemscore.CHOScore>
0.0000

> <Gold.PLP.Chemscore.Metal>
0.0000

> <Gold.Chemscore.Hbonds>
donor molecule, donor type, donor heavy atom, donor atom, acceptor molecule, acceptor atom, score
      P1  H  6896  6907       L1     1  1.00

> <Gold.PLP.Chemscore.Internal.Correction>
0.0385

> <Gold.Rescore>
     Score         DG    S(hbond)    S(metal)    S(lipo)     H(rot)  DE(clash)    DE(int)     intcor
     13.62     -16.13       1.00        0.00     102.41       1.82       0.78       1.72       ----

> <Gold.Chemscore.Fitness>
13.6246

> <Gold.Chemscore.DG>
-16.1279

> <Gold.Chemscore.ZeroCoef>
-5.4800

> <Gold.Chemscore.Hbond>
0.9992

> <Gold.Chemscore.Metal>
0.0000

> <Gold.Chemscore.Lipo>
102.4093

> <Gold.Chemscore.Internal_Hbond>
0.0000

> <Gold.Chemscore.DEClash>
0.7832

> <Gold.Chemscore.DEInternal>
1.7201

> <Gold.Chemscore.Rot>
1.8248

> <Gold.Chemscore.Internal.Correction>
   9.000000E+99

> <Gold.Chemscore.Hbonds>
donor molecule, donor type, donor heavy atom, donor atom, acceptor molecule, acceptor atom, score
      P1  H  6896  6907       L1     1  1.00

> <Gold.Chemscore.Hbond.Weighted>
-3.3374

> <Gold.Chemscore.Metal.Weighted>
-0.0000

> <Gold.Chemscore.Lipo.Weighted>
-11.9819

> <Gold.Chemscore.Internal_Hbond.Weighted>
0.0000

> <Gold.Chemscore.DEClash.Weighted>
0.7832

> <Gold.Chemscore.DEInternal.Weighted>
1.7201

> <Gold.Chemscore.Rot.Weighted>
4.6714

> <Gold.Chemscore.Internal.Correction.Weighted>
   9.000000E+99

> <Gold.Protein.RotatedTorsions>
[ 6907 6896 6895 6894 ] final   15.86 input  -60.11 | X-H torsion
[ 7974 7965 7964 7962 ] final  -90.99 input  175.53 | X-H torsion
[ 8008 7997 7996 7995 ] final   81.55 input   59.86 | X-H torsion
[ 10167 10162 10161 10158 ] final   66.63 input  -65.29 | X-H torsion
[ 10718 10713 10712 10709 ] final -158.53 input   66.30 | X-H torsion
[ 10763 10752 10751 10750 ] final   35.13 input  -60.55 | X-H torsion
[ 11005 11000 10999 10996 ] final   24.83 input  -57.11 | X-H torsion

> <Gold.Protein.ActiveResidues>
 VAL166  LYS551  ARG553  GLY616  TRP617  ASP618  TYR619  PRO620  LYS621  CYS622 
 ASP623  PHE694  ASN695  SER759  ASP760  ASP761  ALA762  ILE779  LEU786  VAL792 
 PHE793  MET794  SER795  GLU796  ALA797  LYS798  CYS799  TRP800  GLU811  SER814 

> <Gold.Protein.RotatedAtoms>
  151.8248  135.0640  160.0429 H   0  0  0  0  0  0  0  0  0  0  0  0  # atno 6907 bound_to 6896
  152.2924  133.5570  159.5574 H   0  0  0  0  0  0  0  0  0  0  0  0  # atno 6908 bound_to 6896
  150.7236  134.0325  159.3780 H   0  0  0  0  0  0  0  0  0  0  0  0  # atno 6909 bound_to 6896
  145.4190  140.9550  143.2191 H   0  0  0  0  0  0  0  0  0  0  0  0  # atno 7974 bound_to 7965
  155.8986  140.3434  155.6009 H   0  0  0  0  0  0  0  0  0  0  0  0  # atno 8008 bound_to 7997
  155.7527  140.0822  157.2212 H   0  0  0  0  0  0  0  0  0  0  0  0  # atno 8009 bound_to 7997
  154.4041  140.1550  156.2729 H   0  0  0  0  0  0  0  0  0  0  0  0  # atno 8010 bound_to 7997
  140.0983  144.4926  150.7054 H   0  0  0  0  0  0  0  0  0  0  0  0  # atno 10167 bound_to 10162
  156.5554  130.8624  151.2793 H   0  0  0  0  0  0  0  0  0  0  0  0  # atno 10718 bound_to 10713
  153.0133  135.6342  154.1777 H   0  0  0  0  0  0  0  0  0  0  0  0  # atno 10763 bound_to 10752
  154.1518  135.2828  155.3135 H   0  0  0  0  0  0  0  0  0  0  0  0  # atno 10764 bound_to 10752
  154.6047  135.5576  153.7472 H   0  0  0  0  0  0  0  0  0  0  0  0  # atno 10765 bound_to 10752
  140.3544  134.2193  155.7677 H   0  0  0  0  0  0  0  0  0  0  0  0  # atno 11005 bound_to 11000
  144.8258  139.5713  143.6966 LP  0  0  0  0  0  0  0  0  0  0  0  0  # atno 17320 bound_to 7965
  146.2666  139.6534  142.9325 LP  0  0  0  0  0  0  0  0  0  0  0  0  # atno 17321 bound_to 7965
  140.6991  143.2423  151.4915 LP  0  0  0  0  0  0  0  0  0  0  0  0  # atno 17342 bound_to 10162
  139.5685  144.1984  152.1802 LP  0  0  0  0  0  0  0  0  0  0  0  0  # atno 17343 bound_to 10162
  157.7379  130.9804  150.2221 LP  0  0  0  0  0  0  0  0  0  0  0  0  # atno 17370 bound_to 10713
  156.2846  130.3738  149.7901 LP  0  0  0  0  0  0  0  0  0  0  0  0  # atno 17371 bound_to 10713
  141.2002  133.7992  157.0497 LP  0  0  0  0  0  0  0  0  0  0  0  0  # atno 17394 bound_to 11000
  140.0677  134.9720  157.1413 LP  0  0  0  0  0  0  0  0  0  0  0  0  # atno 17395 bound_to 11000

$$$$
