AV-unprocessed.smi:1884|AV-procd|sdf|7649|dock2
  -GOLD-   22720 9373D 1   1.00000     0.00000
 Structure written by MMmdl.
 41 43  0  0  0  0  0  0  0  0  2 V2000
  149.4911  140.7329  155.7461 C   0  0  0  0  0  0  0  0  0  0  0  0
  150.3849  141.4043  156.7340 C   0  0  0  0  0  0  0  0  0  0  0  0
  150.4966  142.7481  156.9314 N   0  3  0  0  0  0  0  0  0  0  0  0
  151.4293  143.0015  157.9382 C   0  0  0  0  0  0  0  0  0  0  0  0
  151.8764  144.2007  158.4845 C   0  0  0  0  0  0  0  0  0  0  0  0
  152.8484  144.1088  159.5023 C   0  0  0  0  0  0  0  0  0  0  0  0
  153.3377  142.8609  159.9400 C   0  0  0  0  0  0  0  0  0  0  0  0
  152.8735  141.6517  159.3815 C   0  0  0  0  0  0  0  0  0  0  0  0
  151.9121  141.7509  158.3758 C   0  0  0  0  0  0  0  0  0  0  0  0
  151.2370  140.7947  157.6068 N   0  0  0  0  0  0  0  0  0  0  0  0
  151.5032  139.3638  157.8228 C   0  0  0  0  0  0  0  0  0  0  0  0
  150.2265  138.5579  158.1363 C   0  0  1  0  0  0  0  0  0  0  0  0
  149.7605  137.8507  157.0048 O   0  0  0  0  0  0  0  0  0  0  0  0
  150.3888  137.5820  159.3130 C   0  0  0  0  0  0  0  0  0  0  0  0
  149.6341  136.3998  159.0745 O   0  0  0  0  0  0  0  0  0  0  0  0
  148.8647  135.8970  160.1015 C   0  0  0  0  0  0  0  0  0  0  0  0
  148.2268  134.6596  159.8765 C   0  0  0  0  0  0  0  0  0  0  0  0
  147.4217  134.0707  160.8706 C   0  0  0  0  0  0  0  0  0  0  0  0
  147.2454  134.7177  162.1095 C   0  0  0  0  0  0  0  0  0  0  0  0
  146.4156  134.1132  163.1381 C   0  0  0  0  0  0  0  0  0  0  0  0
  145.7549  133.6317  163.9569 N   0  0  0  0  0  0  0  0  0  0  0  0
  147.8779  135.9540  162.3469 C   0  0  0  0  0  0  0  0  0  0  0  0
  148.6826  136.5417  161.3511 C   0  0  0  0  0  0  0  0  0  0  0  0
  148.9429  141.4714  155.1607 H   0  0  0  0  0  0  0  0  0  0  0  0
  148.7726  140.0954  156.2614 H   0  0  0  0  0  0  0  0  0  0  0  0
  150.0778  140.1168  155.0646 H   0  0  0  0  0  0  0  0  0  0  0  0
  151.5038  145.1578  158.1500 H   0  0  0  0  0  0  0  0  0  0  0  0
  153.2275  145.0136  159.9551 H   0  0  0  0  0  0  0  0  0  0  0  0
  154.0849  142.8295  160.7198 H   0  0  0  0  0  0  0  0  0  0  0  0
  153.2585  140.7017  159.7220 H   0  0  0  0  0  0  0  0  0  0  0  0
  152.0276  138.9640  156.9549 H   0  0  0  0  0  0  0  0  0  0  0  0
  152.2013  139.2872  158.6571 H   0  0  0  0  0  0  0  0  0  0  0  0
  149.4327  139.2585  158.3978 H   0  0  0  0  0  0  0  0  0  0  0  0
  148.8689  137.5825  157.1654 H   0  0  0  0  0  0  0  0  0  0  0  0
  151.4436  137.3175  159.4024 H   0  0  0  0  0  0  0  0  0  0  0  0
  150.0861  138.0603  160.2464 H   0  0  0  0  0  0  0  0  0  0  0  0
  148.3557  134.1559  158.9298 H   0  0  0  0  0  0  0  0  0  0  0  0
  146.9421  133.1220  160.6755 H   0  0  0  0  0  0  0  0  0  0  0  0
  147.7501  136.4596  163.2935 H   0  0  0  0  0  0  0  0  0  0  0  0
  149.1503  137.4889  161.5724 H   0  0  0  0  0  0  0  0  0  0  0  0
  149.9708  143.4405  156.4137 H   0  0  0  0  0  0  0  0  0  0  0  0
  1  2  1  0  0  0  0
  1 24  1  0  0  0  0
  1 25  1  0  0  0  0
  1 26  1  0  0  0  0
  2 10  1  0  0  0  0
  2  3  2  0  0  0  0
  3  4  1  0  0  0  0
  3 41  1  0  0  0  0
  4  9  2  0  0  0  0
  4  5  1  0  0  0  0
  5  6  2  0  0  0  0
  5 27  1  0  0  0  0
  6  7  1  0  0  0  0
  6 28  1  0  0  0  0
  7  8  2  0  0  0  0
  7 29  1  0  0  0  0
  8  9  1  0  0  0  0
  8 30  1  0  0  0  0
  9 10  1  0  0  0  0
 10 11  1  0  0  0  0
 11 12  1  0  0  0  0
 11 31  1  0  0  0  0
 11 32  1  0  0  0  0
 12 13  1  0  0  0  0
 12 14  1  0  0  0  0
 12 33  1  0  0  0  0
 13 34  1  0  0  0  0
 14 15  1  0  0  0  0
 14 35  1  0  0  0  0
 14 36  1  0  0  0  0
 15 16  1  0  0  0  0
 16 23  1  0  0  0  0
 16 17  2  0  0  0  0
 17 18  1  0  0  0  0
 17 37  1  0  0  0  0
 18 19  2  0  0  0  0
 18 38  1  0  0  0  0
 19 20  1  0  0  0  0
 19 22  1  0  0  0  0
 20 21  3  0  0  0  0
 22 23  2  0  0  0  0
 22 39  1  0  0  0  0
 23 40  1  0  0  0  0
M  CHG  1   3   1
M  END
> <s_m_source_file>
AV-unprocessed.smi

> <i_m_source_file_index>
1884

> <i_lp_mmshare_version>
43012

> <i_f3d_flags>
0

> <s_epik_input>
W2NIXTFbY0hdW2NIXVtjSF1jKGMxMiluKGMobjIpW0NIM10pW0NIMl1bQ0BIXShbT0hdKVtDSDJdT2MzW2NIXVtjSF1jKEMjTilbY0hdW2NIXTM=

> <s_epik_cmdline>
J2VwaWtfcHl0aG9uJywgJy1waCcsICc3LjAnLCAnLXRuJywgJzgnLCAnLW1hJywgJzIwMCcsICctbWV0YWxfYmluZGluZycsICctaW1hZScsICc8aW5maWxlLm1hZT4nLCAnLW9tYWUnLCAnPG91dGZpbGUubWFlPic=

> <r_epik_Ionization_Penalty>
1.04791

> <r_epik_Ionization_Penalty_Charging>
1.04791

> <r_epik_Ionization_Penalty_Neutral>
2.3993e-06

> <r_epik_State_Penalty>
1.10051

> <r_epik_Charging_Adjusted_Penalty>
2.14841

> <i_epik_Tot_Q>
1

> <i_epik_Tot_abs_Q>
1

> <r_epik_Metal_State_Penalty>
5.09283

> <b_epik_Metal_Only>
0

> <s_lp_Force_Field>
OPLS_2005

> <r_lp_Energy>
19.6719

> <b_lp_Chiralities_Consistent>
1

> <s_lp_Variant>
AV-unprocessed.smi:1884-4

> <Gold.Version>
5.8.1

> <Gold.Id.Protein>
6NUR|6NUR_protein|mol2

> <Gold.PLP.Fitness>
51.3442

> <Gold.PLP.PLP>
-47.9659

> <Gold.PLP.part.hbond>
-2.8793

> <Gold.PLP.part.metal>
0.0000

> <Gold.PLP.part.buried>
-5.0980

> <Gold.PLP.part.nonpolar>
-41.7828

> <Gold.PLP.part.repulsive>
0.1541

> <Gold.PLP.ligand.clash>
0.0000

> <Gold.PLP.ligand.torsion>
1.5160

> <Gold.PLP.Chemscore.Hbond>
2.1156

> <Gold.PLP.Chemscore.CHOScore>
0.0000

> <Gold.PLP.Chemscore.Metal>
0.0000

> <Gold.Chemscore.Hbonds>
donor molecule, donor type, donor heavy atom, donor atom, acceptor molecule, acceptor atom, score
      L1  H     3    41       P1  8028  2.00

> <Gold.PLP.Chemscore.Internal.Correction>
0.0636

> <Gold.Rescore>
     Score         DG    S(hbond)    S(metal)    S(lipo)     H(rot)  DE(clash)    DE(int)     intcor
     14.60     -16.29       0.99        0.00     116.37       2.39       0.01       1.67       ----

> <Gold.Chemscore.Fitness>
14.5999

> <Gold.Chemscore.DG>
-16.2856

> <Gold.Chemscore.ZeroCoef>
-5.4800

> <Gold.Chemscore.Hbond>
0.9918

> <Gold.Chemscore.Metal>
0.0000

> <Gold.Chemscore.Lipo>
116.3739

> <Gold.Chemscore.Internal_Hbond>
0.0000

> <Gold.Chemscore.DEClash>
0.0149

> <Gold.Chemscore.DEInternal>
1.6709

> <Gold.Chemscore.Rot>
2.3917

> <Gold.Chemscore.Internal.Correction>
   9.000000E+99

> <Gold.Chemscore.Hbonds>
donor molecule, donor type, donor heavy atom, donor atom, acceptor molecule, acceptor atom, score
      L1  H     3    41       P1  8028  1.00

> <Gold.Chemscore.Hbond.Weighted>
-3.3127

> <Gold.Chemscore.Metal.Weighted>
-0.0000

> <Gold.Chemscore.Lipo.Weighted>
-13.6157

> <Gold.Chemscore.Internal_Hbond.Weighted>
0.0000

> <Gold.Chemscore.DEClash.Weighted>
0.0149

> <Gold.Chemscore.DEInternal.Weighted>
1.6709

> <Gold.Chemscore.Rot.Weighted>
6.1229

> <Gold.Chemscore.Internal.Correction.Weighted>
   9.000000E+99

> <Gold.Protein.RotatedTorsions>
[ 6907 6896 6895 6894 ] final   59.08 input  -60.11 | X-H torsion
[ 7974 7965 7964 7962 ] final  138.26 input  175.53 | X-H torsion
[ 8008 7997 7996 7995 ] final   47.30 input   59.86 | X-H torsion
[ 10167 10162 10161 10158 ] final  163.74 input  -65.29 | X-H torsion
[ 10718 10713 10712 10709 ] final  -84.99 input   66.30 | X-H torsion
[ 10763 10752 10751 10750 ] final   62.04 input  -60.55 | X-H torsion
[ 11005 11000 10999 10996 ] final  -44.18 input  -57.11 | X-H torsion

> <Gold.Protein.ActiveResidues>
 VAL166  LYS551  ARG553  GLY616  TRP617  ASP618  TYR619  PRO620  LYS621  CYS622 
 ASP623  PHE694  ASN695  SER759  ASP760  ASP761  ALA762  ILE779  LEU786  VAL792 
 PHE793  MET794  SER795  GLU796  ALA797  LYS798  CYS799  TRP800  GLU811  SER814 

> <Gold.Protein.RotatedAtoms>
  152.3883  134.6482  160.0117 H   0  0  0  0  0  0  0  0  0  0  0  0  # atno 6907 bound_to 6896
  151.6724  133.3308  159.3208 H   0  0  0  0  0  0  0  0  0  0  0  0  # atno 6908 bound_to 6896
  150.7804  134.6787  159.6477 H   0  0  0  0  0  0  0  0  0  0  0  0  # atno 6909 bound_to 6896
  144.9389  139.4955  143.5581 H   0  0  0  0  0  0  0  0  0  0  0  0  # atno 7974 bound_to 7965
  155.3668  140.3421  155.4242 H   0  0  0  0  0  0  0  0  0  0  0  0  # atno 8008 bound_to 7997
  156.1684  140.1623  156.8525 H   0  0  0  0  0  0  0  0  0  0  0  0  # atno 8009 bound_to 7997
  154.5208  140.0767  156.8150 H   0  0  0  0  0  0  0  0  0  0  0  0  # atno 8010 bound_to 7997
  139.4878  144.4306  151.9075 H   0  0  0  0  0  0  0  0  0  0  0  0  # atno 10167 bound_to 10162
  156.0001  130.4716  150.4495 H   0  0  0  0  0  0  0  0  0  0  0  0  # atno 10718 bound_to 10713
  152.9969  135.5479  154.6129 H   0  0  0  0  0  0  0  0  0  0  0  0  # atno 10763 bound_to 10752
  154.5446  135.2822  155.1067 H   0  0  0  0  0  0  0  0  0  0  0  0  # atno 10764 bound_to 10752
  154.2331  135.6430  153.5234 H   0  0  0  0  0  0  0  0  0  0  0  0  # atno 10765 bound_to 10752
  141.0433  133.6771  156.2836 H   0  0  0  0  0  0  0  0  0  0  0  0  # atno 11005 bound_to 11000
  146.3278  139.8394  142.8893 LP  0  0  0  0  0  0  0  0  0  0  0  0  # atno 17320 bound_to 7965
  145.3022  141.0197  143.3602 LP  0  0  0  0  0  0  0  0  0  0  0  0  # atno 17321 bound_to 7965
  140.3753  144.2804  150.5915 LP  0  0  0  0  0  0  0  0  0  0  0  0  # atno 17342 bound_to 10162
  140.5282  143.2249  151.8281 LP  0  0  0  0  0  0  0  0  0  0  0  0  # atno 17343 bound_to 10162
  157.2529  131.0550  151.2368 LP  0  0  0  0  0  0  0  0  0  0  0  0  # atno 17370 bound_to 10713
  157.3511  130.7082  149.6441 LP  0  0  0  0  0  0  0  0  0  0  0  0  # atno 17371 bound_to 10713
  140.6194  134.5377  157.5545 LP  0  0  0  0  0  0  0  0  0  0  0  0  # atno 17394 bound_to 11000
  139.9292  134.7996  156.0979 LP  0  0  0  0  0  0  0  0  0  0  0  0  # atno 17395 bound_to 11000

$$$$
