AV-unprocessed.smi:2499|AV-procd|sdf|9838|dock4
  -GOLD-   2272013463D 1   1.00000     0.00000
 Structure written by MMmdl.
 27 28  0  0  0  0  0  0  0  0  1 V2000
  151.6176  144.5344  159.2464 C   0  0  0  0  0  0  0  0  0  0  0  0
  151.7860  143.0094  159.2108 C   0  0  1  0  0  0  0  0  0  0  0  0
  151.4752  142.5379  157.8648 N   0  0  0  0  0  0  0  0  0  0  0  0
  151.4353  141.2566  157.4695 C   0  0  0  0  0  0  0  0  0  0  0  0
  151.6554  140.3272  158.2527 O   0  0  0  0  0  0  0  0  0  0  0  0
  151.0934  141.1817  156.1273 N   0  0  0  0  0  0  0  0  0  0  0  0
  150.8345  140.0266  155.5951 C   0  0  0  0  0  0  0  0  0  0  0  0
  150.7963  138.7329  156.1089 N   0  0  0  0  0  0  0  0  0  0  0  0
  150.4520  137.8823  155.0961 C   0  0  0  0  0  0  0  0  0  0  0  0
  150.2808  138.6038  153.9925 C   0  0  0  0  0  0  0  0  0  0  0  0
  150.5077  139.9191  154.2669 O   0  0  0  0  0  0  0  0  0  0  0  0
  153.1716  142.6060  159.6867 C   0  0  0  0  0  0  0  0  0  0  0  0
  153.4718  141.1942  160.1324 C   0  0  0  0  0  0  0  0  0  0  0  0
  153.4371  142.3157  161.1450 C   0  0  0  0  0  0  0  0  0  0  0  0
  151.7873  144.9251  160.2501 H   0  0  0  0  0  0  0  0  0  0  0  0
  150.6101  144.8265  158.9483 H   0  0  0  0  0  0  0  0  0  0  0  0
  152.3205  145.0279  158.5742 H   0  0  0  0  0  0  0  0  0  0  0  0
  151.0546  142.5897  159.9044 H   0  0  0  0  0  0  0  0  0  0  0  0
  151.2764  143.2463  157.1728 H   0  0  0  0  0  0  0  0  0  0  0  0
  150.9816  138.4299  157.0545 H   0  0  0  0  0  0  0  0  0  0  0  0
  150.3635  136.8215  155.2790 H   0  0  0  0  0  0  0  0  0  0  0  0
  150.0093  138.3432  152.9802 H   0  0  0  0  0  0  0  0  0  0  0  0
  153.9758  143.1169  159.1603 H   0  0  0  0  0  0  0  0  0  0  0  0
  152.6513  140.4797  160.1496 H   0  0  0  0  0  0  0  0  0  0  0  0
  154.4438  140.7818  159.8692 H   0  0  0  0  0  0  0  0  0  0  0  0
  154.3860  142.6506  161.5590 H   0  0  0  0  0  0  0  0  0  0  0  0
  152.5924  142.3455  161.8306 H   0  0  0  0  0  0  0  0  0  0  0  0
  1  2  1  0  0  0  0
  1 15  1  0  0  0  0
  1 16  1  0  0  0  0
  1 17  1  0  0  0  0
  2  3  1  0  0  0  0
  2 12  1  0  0  0  0
  2 18  1  0  0  0  0
  3 19  1  0  0  0  0
  3  4  1  0  0  0  0
  4  6  1  0  0  0  0
  4  5  2  0  0  0  0
  6  7  2  0  0  0  0
  7 11  1  0  0  0  0
  7  8  1  0  0  0  0
  8 20  1  0  0  0  0
  8  9  1  0  0  0  0
  9 21  1  0  0  0  0
  9 10  2  0  0  0  0
 10 22  1  0  0  0  0
 10 11  1  0  0  0  0
 12 14  1  0  0  0  0
 12 13  1  0  0  0  0
 12 23  1  0  0  0  0
 13 14  1  0  0  0  0
 13 24  1  0  0  0  0
 13 25  1  0  0  0  0
 14 26  1  0  0  0  0
 14 27  1  0  0  0  0
M  END
> <s_m_source_file>
AV-unprocessed.smi

> <i_m_source_file_index>
2499

> <i_lp_mmshare_version>
43012

> <i_f3d_flags>
0

> <s_epik_input>
W0NIMl0xW0NIMl1bQ0hdMVtDQEhdKFtDSDNdKVtOSF1DKD1PKVtOSF1jMm5bY0hdW2NIXW8y

> <s_epik_cmdline>
J2VwaWtfcHl0aG9uJywgJy1waCcsICc3LjAnLCAnLXRuJywgJzgnLCAnLW1hJywgJzIwMCcsICctbWV0YWxfYmluZGluZycsICctaW1hZScsICc8aW5maWxlLm1hZT4nLCAnLW9tYWUnLCAnPG91dGZpbGUubWFlPic=

> <r_lp_tautomer_probability>
0.107061

> <r_epik_Ionization_Penalty>
1.51515

> <r_epik_Ionization_Penalty_Charging>
1.51478

> <r_epik_Ionization_Penalty_Neutral>
0.000369309

> <r_epik_State_Penalty>
2.62718

> <r_epik_Charging_Adjusted_Penalty>
4.14196

> <i_epik_Tot_Q>
0

> <i_epik_Tot_abs_Q>
0

> <r_epik_Metal_State_Penalty>
3.5378

> <b_epik_Metal_Only>
0

> <s_lp_Force_Field>
OPLS_2005

> <r_lp_Energy>
36.8038

> <b_lp_Chiralities_Consistent>
1

> <s_lp_Variant>
AV-unprocessed.smi:2499-8

> <Gold.Version>
5.8.1

> <Gold.Id.Protein>
6NUR|6NUR_protein|mol2

> <Gold.PLP.Fitness>
37.9807

> <Gold.PLP.PLP>
-29.6073

> <Gold.PLP.part.hbond>
-1.0000

> <Gold.PLP.part.metal>
0.0000

> <Gold.PLP.part.buried>
-5.0240

> <Gold.PLP.part.nonpolar>
-24.7860

> <Gold.PLP.part.repulsive>
0.2431

> <Gold.PLP.ligand.clash>
0.0000

> <Gold.PLP.ligand.torsion>
0.5663

> <Gold.PLP.Chemscore.Hbond>
1.0000

> <Gold.PLP.Chemscore.CHOScore>
1.8149

> <Gold.PLP.Chemscore.Metal>
0.0000

> <Gold.Chemscore.Hbonds>
donor molecule, donor type, donor heavy atom, donor atom, acceptor molecule, acceptor atom, score
      P1  H  7989  7998       L1    11  1.00
      L1  C    10    22       P1  7948  0.92
      L1  C    10    22       P1  7957  0.89

> <Gold.PLP.Chemscore.Internal.Correction>
1.0615

> <Gold.Rescore>
     Score         DG    S(hbond)    S(metal)    S(lipo)     H(rot)  DE(clash)    DE(int)     intcor
     11.63     -13.69       0.98        0.00      70.36       1.29       0.08       1.97       ----

> <Gold.Chemscore.Fitness>
11.6299

> <Gold.Chemscore.DG>
-13.6854

> <Gold.Chemscore.ZeroCoef>
-5.4800

> <Gold.Chemscore.Hbond>
0.9821

> <Gold.Chemscore.Metal>
0.0000

> <Gold.Chemscore.Lipo>
70.3552

> <Gold.Chemscore.Internal_Hbond>
0.0000

> <Gold.Chemscore.DEClash>
0.0814

> <Gold.Chemscore.DEInternal>
1.9741

> <Gold.Chemscore.Rot>
1.2915

> <Gold.Chemscore.Internal.Correction>
   9.000000E+99

> <Gold.Chemscore.Hbonds>
donor molecule, donor type, donor heavy atom, donor atom, acceptor molecule, acceptor atom, score
      P1  H  7989  7998       L1    11  0.50

> <Gold.Chemscore.Hbond.Weighted>
-3.2801

> <Gold.Chemscore.Metal.Weighted>
-0.0000

> <Gold.Chemscore.Lipo.Weighted>
-8.2316

> <Gold.Chemscore.Internal_Hbond.Weighted>
0.0000

> <Gold.Chemscore.DEClash.Weighted>
0.0814

> <Gold.Chemscore.DEInternal.Weighted>
1.9741

> <Gold.Chemscore.Rot.Weighted>
3.3062

> <Gold.Chemscore.Internal.Correction.Weighted>
   9.000000E+99

> <Gold.Protein.RotatedTorsions>
[ 6907 6896 6895 6894 ] final  -75.82 input  -60.11 | X-H torsion
[ 7974 7965 7964 7962 ] final   48.47 input  175.53 | X-H torsion
[ 8008 7997 7996 7995 ] final  -33.83 input   59.86 | X-H torsion
[ 10167 10162 10161 10158 ] final  -61.64 input  -65.29 | X-H torsion
[ 10718 10713 10712 10709 ] final -112.65 input   66.30 | X-H torsion
[ 10763 10752 10751 10750 ] final  133.35 input  -60.55 | X-H torsion
[ 11005 11000 10999 10996 ] final  -89.27 input  -57.11 | X-H torsion

> <Gold.Protein.ActiveResidues>
 VAL166  LYS551  ARG553  GLY616  TRP617  ASP618  TYR619  PRO620  LYS621  CYS622 
 ASP623  PHE694  ASN695  SER759  ASP760  ASP761  ALA762  ILE779  LEU786  VAL792 
 PHE793  MET794  SER795  GLU796  ALA797  LYS798  CYS799  TRP800  GLU811  SER814 

> <Gold.Protein.RotatedAtoms>
  150.7047  134.4664  159.5404 H   0  0  0  0  0  0  0  0  0  0  0  0  # atno 6907 bound_to 6896
  152.2329  134.8301  160.0480 H   0  0  0  0  0  0  0  0  0  0  0  0  # atno 6908 bound_to 6896
  151.9111  133.3526  159.3900 H   0  0  0  0  0  0  0  0  0  0  0  0  # atno 6909 bound_to 6896
  146.0201  139.4641  142.9902 H   0  0  0  0  0  0  0  0  0  0  0  0  # atno 7974 bound_to 7965
  154.4138  140.1700  156.1951 H   0  0  0  0  0  0  0  0  0  0  0  0  # atno 8008 bound_to 7997
  155.9571  140.3396  155.6434 H   0  0  0  0  0  0  0  0  0  0  0  0  # atno 8009 bound_to 7997
  155.6796  140.0721  157.2480 H   0  0  0  0  0  0  0  0  0  0  0  0  # atno 8010 bound_to 7997
  140.5992  143.2357  151.5966 H   0  0  0  0  0  0  0  0  0  0  0  0  # atno 10167 bound_to 10162
  156.0718  130.5931  150.8536 H   0  0  0  0  0  0  0  0  0  0  0  0  # atno 10718 bound_to 10713
  153.8057  135.3136  155.3395 H   0  0  0  0  0  0  0  0  0  0  0  0  # atno 10763 bound_to 10752
  154.8071  135.4690  154.0424 H   0  0  0  0  0  0  0  0  0  0  0  0  # atno 10764 bound_to 10752
  153.1786  135.6890  153.8597 H   0  0  0  0  0  0  0  0  0  0  0  0  # atno 10765 bound_to 10752
  141.1587  133.7620  156.9571 H   0  0  0  0  0  0  0  0  0  0  0  0  # atno 11005 bound_to 11000
  145.7207  141.0076  143.1404 LP  0  0  0  0  0  0  0  0  0  0  0  0  # atno 17320 bound_to 7965
  144.6986  139.8867  143.7450 LP  0  0  0  0  0  0  0  0  0  0  0  0  # atno 17321 bound_to 7965
  139.5279  144.3002  152.1079 LP  0  0  0  0  0  0  0  0  0  0  0  0  # atno 17342 bound_to 10162
  140.2180  144.4495  150.6355 LP  0  0  0  0  0  0  0  0  0  0  0  0  # atno 17343 bound_to 10162
  157.5793  131.0946  150.9296 LP  0  0  0  0  0  0  0  0  0  0  0  0  # atno 17370 bound_to 10713
  156.9495  130.5414  149.5282 LP  0  0  0  0  0  0  0  0  0  0  0  0  # atno 17371 bound_to 10713
  140.1218  134.9412  157.2214 LP  0  0  0  0  0  0  0  0  0  0  0  0  # atno 17394 bound_to 11000
  140.3062  134.3075  155.7277 LP  0  0  0  0  0  0  0  0  0  0  0  0  # atno 17395 bound_to 11000

$$$$
