AV-unprocessed.smi:993|AV-procd|sdf|4336|dock3
  -GOLD-   22720 2233D 1   1.00000     0.00000
 Structure written by MMmdl.
 31 32  0  0  0  0  0  0  0  0  2 V2000
  149.3862  141.6891  154.7983 C   0  0  0  0  0  0  0  0  0  0  0  0
  150.3568  141.4234  155.9360 C   0  0  0  0  0  0  0  0  0  0  0  0
  150.5032  142.4739  156.8222 N   0  0  0  0  0  0  0  0  0  0  0  0
  151.3616  142.3336  157.9058 C   0  0  0  0  0  0  0  0  0  0  0  0
  151.4348  143.4416  158.7480 N   0  0  0  0  0  0  0  0  0  0  0  0
  150.7118  144.6976  158.5789 C   0  0  0  0  0  0  0  0  0  0  0  0
  150.8942  145.4774  159.8815 C   0  0  0  0  0  0  0  0  0  0  0  0
  152.2274  144.9645  160.4101 C   0  0  0  0  0  0  0  0  0  0  0  0
  152.2378  143.5028  159.9630 C   0  0  0  0  0  0  0  0  0  0  0  0
  152.0530  141.2539  158.1280 N   0  0  0  0  0  0  0  0  0  0  0  0
  151.9499  140.1531  157.2635 C   0  0  0  0  0  0  0  0  0  0  0  0
  152.6064  139.1347  157.4763 O   0  0  0  0  0  0  0  0  0  0  0  0
  151.0377  140.2648  156.1054 C   0  0  0  0  0  0  0  0  0  0  0  0
  150.9017  139.0758  155.1525 C   0  0  0  0  0  0  0  0  0  0  0  0
  152.2277  138.5549  154.5857 C   0  0  0  0  0  0  0  0  0  0  0  0
  152.1979  137.4270  154.0470 O   0  0  0  0  0  0  0  0  0  0  0  0
  153.2454  139.2747  154.6949 O   0  5  0  0  0  0  0  0  0  0  0  0
  149.9657  143.3113  156.6541 H   0  0  0  0  0  0  0  0  0  0  0  0
  148.5752  140.9608  154.8123 H   0  0  0  0  0  0  0  0  0  0  0  0
  149.8968  141.6193  153.8378 H   0  0  0  0  0  0  0  0  0  0  0  0
  148.9437  142.6832  154.8705 H   0  0  0  0  0  0  0  0  0  0  0  0
  149.6553  144.5326  158.3643 H   0  0  0  0  0  0  0  0  0  0  0  0
  151.1478  145.2439  157.7416 H   0  0  0  0  0  0  0  0  0  0  0  0
  150.8768  146.5578  159.7366 H   0  0  0  0  0  0  0  0  0  0  0  0
  150.0988  145.2169  160.5809 H   0  0  0  0  0  0  0  0  0  0  0  0
  153.0450  145.5031  159.9293 H   0  0  0  0  0  0  0  0  0  0  0  0
  152.3342  145.0796  161.4890 H   0  0  0  0  0  0  0  0  0  0  0  0
  153.2549  143.1464  159.7943 H   0  0  0  0  0  0  0  0  0  0  0  0
  151.7776  142.8664  160.7201 H   0  0  0  0  0  0  0  0  0  0  0  0
  150.2383  139.3148  154.3211 H   0  0  0  0  0  0  0  0  0  0  0  0
  150.4122  138.2573  155.6804 H   0  0  0  0  0  0  0  0  0  0  0  0
  1 19  1  0  0  0  0
  1 20  1  0  0  0  0
  1 21  1  0  0  0  0
  1  2  1  0  0  0  0
  2 13  2  0  0  0  0
  2  3  1  0  0  0  0
  3 18  1  0  0  0  0
  3  4  1  0  0  0  0
  4  5  1  0  0  0  0
  4 10  2  0  0  0  0
  5  9  1  0  0  0  0
  5  6  1  0  0  0  0
  6  7  1  0  0  0  0
  6 22  1  0  0  0  0
  6 23  1  0  0  0  0
  7  8  1  0  0  0  0
  7 24  1  0  0  0  0
  7 25  1  0  0  0  0
  8  9  1  0  0  0  0
  8 26  1  0  0  0  0
  8 27  1  0  0  0  0
  9 28  1  0  0  0  0
  9 29  1  0  0  0  0
 10 11  1  0  0  0  0
 11 12  2  0  0  0  0
 11 13  1  0  0  0  0
 13 14  1  0  0  0  0
 14 15  1  0  0  0  0
 14 30  1  0  0  0  0
 14 31  1  0  0  0  0
 15 16  2  0  0  0  0
 15 17  1  0  0  0  0
M  CHG  1  17  -1
M  END
> <s_m_source_file>
AV-unprocessed.smi

> <i_m_source_file_index>
993

> <i_lp_mmshare_version>
43012

> <i_f3d_flags>
0

> <s_epik_input>
W0NIMl0xW0NIMl1bQ0gyXVtDSDJdTjFjKG5jMltDSDNdKVtuSF1jKD1PKWMyW0NIMl1DKD1PKVtPSF0=

> <s_epik_cmdline>
J2VwaWtfcHl0aG9uJywgJy1waCcsICc3LjAnLCAnLXRuJywgJzgnLCAnLW1hJywgJzIwMCcsICctbWV0YWxfYmluZGluZycsICctaW1hZScsICc8aW5maWxlLm1hZT4nLCAnLW9tYWUnLCAnPG91dGZpbGUubWFlPic=

> <r_lp_tautomer_probability>
0.108306

> <r_epik_Ionization_Penalty>
0.978387

> <r_epik_Ionization_Penalty_Charging>
0.00633795

> <r_epik_Ionization_Penalty_Neutral>
0.972049

> <r_epik_State_Penalty>
1.38976

> <r_epik_Charging_Adjusted_Penalty>
1.3961

> <i_epik_Tot_Q>
-1

> <i_epik_Tot_abs_Q>
1

> <r_epik_Metal_State_Penalty>
0.631271

> <b_epik_Metal_Only>
0

> <s_lp_Force_Field>
OPLS_2005

> <r_lp_Energy>
28.5052

> <b_lp_Chiralities_Consistent>
1

> <s_lp_Variant>
AV-unprocessed.smi:993-2

> <Gold.Version>
5.8.1

> <Gold.Id.Protein>
6NUR|6NUR_protein|mol2

> <Gold.PLP.Fitness>
51.7057

> <Gold.PLP.PLP>
-37.7860

> <Gold.PLP.part.hbond>
-3.7894

> <Gold.PLP.part.metal>
0.0000

> <Gold.PLP.part.buried>
-5.1065

> <Gold.PLP.part.nonpolar>
-30.4357

> <Gold.PLP.part.repulsive>
0.3104

> <Gold.PLP.ligand.clash>
0.0000

> <Gold.PLP.ligand.torsion>
0.2286

> <Gold.PLP.Chemscore.Hbond>
4.7920

> <Gold.PLP.Chemscore.CHOScore>
0.0000

> <Gold.PLP.Chemscore.Metal>
0.0000

> <Gold.Chemscore.Hbonds>
donor molecule, donor type, donor heavy atom, donor atom, acceptor molecule, acceptor atom, score
      L1  H     3    18       P1  8028  1.00
      P1  H  7997  8009       L1    17  2.00
      P1  H 10752 10765       L1    16  1.76

> <Gold.PLP.Chemscore.Internal.Correction>
0.0009

> <Gold.Rescore>
     Score         DG    S(hbond)    S(metal)    S(lipo)     H(rot)  DE(clash)    DE(int)     intcor
     18.79     -19.16       2.77        0.00      70.74       1.51       0.11       0.26       ----

> <Gold.Chemscore.Fitness>
18.7875

> <Gold.Chemscore.DG>
-19.1618

> <Gold.Chemscore.ZeroCoef>
-5.4800

> <Gold.Chemscore.Hbond>
2.7737

> <Gold.Chemscore.Metal>
0.0000

> <Gold.Chemscore.Lipo>
70.7436

> <Gold.Chemscore.Internal_Hbond>
0.0000

> <Gold.Chemscore.DEClash>
0.1135

> <Gold.Chemscore.DEInternal>
0.2609

> <Gold.Chemscore.Rot>
1.5075

> <Gold.Chemscore.Internal.Correction>
   9.000000E+99

> <Gold.Chemscore.Hbonds>
donor molecule, donor type, donor heavy atom, donor atom, acceptor molecule, acceptor atom, score
      L1  H     3    18       P1  8028  0.93
      P1  H  7997  8009       L1    17  0.99
      P1  H 10752 10765       L1    16  0.86

> <Gold.Chemscore.Hbond.Weighted>
-9.2640

> <Gold.Chemscore.Metal.Weighted>
-0.0000

> <Gold.Chemscore.Lipo.Weighted>
-8.2770

> <Gold.Chemscore.Internal_Hbond.Weighted>
0.0000

> <Gold.Chemscore.DEClash.Weighted>
0.1135

> <Gold.Chemscore.DEInternal.Weighted>
0.2609

> <Gold.Chemscore.Rot.Weighted>
3.8592

> <Gold.Chemscore.Internal.Correction.Weighted>
   9.000000E+99

> <Gold.Protein.RotatedTorsions>
[ 6907 6896 6895 6894 ] final -125.85 input  -60.11 | X-H torsion
[ 7974 7965 7964 7962 ] final  -54.65 input  175.53 | X-H torsion
[ 8008 7997 7996 7995 ] final -118.24 input   59.86 | X-H torsion
[ 10167 10162 10161 10158 ] final  -92.98 input  -65.29 | X-H torsion
[ 10718 10713 10712 10709 ] final   93.95 input   66.30 | X-H torsion
[ 10763 10752 10751 10750 ] final  151.17 input  -60.55 | X-H torsion
[ 11005 11000 10999 10996 ] final  162.22 input  -57.11 | X-H torsion

> <Gold.Protein.ActiveResidues>
 VAL166  LYS551  ARG553  GLY616  TRP617  ASP618  TYR619  PRO620  LYS621  CYS622 
 ASP623  PHE694  ASN695  SER759  ASP760  ASP761  ALA762  ILE779  LEU786  VAL792 
 PHE793  MET794  SER795  GLU796  ALA797  LYS798  CYS799  TRP800  GLU811  SER814 

> <Gold.Protein.RotatedAtoms>
  150.8909  133.7244  159.2904 H   0  0  0  0  0  0  0  0  0  0  0  0  # atno 6907 bound_to 6896
  151.4794  135.1050  159.9783 H   0  0  0  0  0  0  0  0  0  0  0  0  # atno 6908 bound_to 6896
  152.4819  133.8230  159.7118 H   0  0  0  0  0  0  0  0  0  0  0  0  # atno 6909 bound_to 6896
  145.8832  140.8129  142.9829 H   0  0  0  0  0  0  0  0  0  0  0  0  # atno 7974 bound_to 7965
  155.0966  140.0395  157.2684 H   0  0  0  0  0  0  0  0  0  0  0  0  # atno 8008 bound_to 7997
  154.6791  140.2629  155.6902 H   0  0  0  0  0  0  0  0  0  0  0  0  # atno 8009 bound_to 7997
  156.2688  140.2782  156.1328 H   0  0  0  0  0  0  0  0  0  0  0  0  # atno 8010 bound_to 7997
  140.3293  143.3004  151.9959 H   0  0  0  0  0  0  0  0  0  0  0  0  # atno 10167 bound_to 10162
  157.6951  131.0496  150.4112 H   0  0  0  0  0  0  0  0  0  0  0  0  # atno 10718 bound_to 10713
  154.0994  135.2847  155.3255 H   0  0  0  0  0  0  0  0  0  0  0  0  # atno 10763 bound_to 10752
  154.6566  135.5350  153.7969 H   0  0  0  0  0  0  0  0  0  0  0  0  # atno 10764 bound_to 10752
  153.0384  135.6523  154.1158 H   0  0  0  0  0  0  0  0  0  0  0  0  # atno 10765 bound_to 10752
  140.2236  134.8177  157.3245 H   0  0  0  0  0  0  0  0  0  0  0  0  # atno 11005 bound_to 11000
  144.6728  140.1415  143.7436 LP  0  0  0  0  0  0  0  0  0  0  0  0  # atno 17320 bound_to 7965
  145.8999  139.2424  143.1500 LP  0  0  0  0  0  0  0  0  0  0  0  0  # atno 17321 bound_to 7965
  139.4859  144.6248  151.7186 LP  0  0  0  0  0  0  0  0  0  0  0  0  # atno 17342 bound_to 10162
  140.5412  144.0577  150.6089 LP  0  0  0  0  0  0  0  0  0  0  0  0  # atno 17343 bound_to 10162
  156.4496  130.4009  149.6644 LP  0  0  0  0  0  0  0  0  0  0  0  0  # atno 17370 bound_to 10713
  156.3799  130.7573  151.2565 LP  0  0  0  0  0  0  0  0  0  0  0  0  # atno 17371 bound_to 10713
  140.1824  134.4473  155.7764 LP  0  0  0  0  0  0  0  0  0  0  0  0  # atno 17394 bound_to 11000
  141.2222  133.6989  156.7890 LP  0  0  0  0  0  0  0  0  0  0  0  0  # atno 17395 bound_to 11000

$$$$
