AV-unprocessed.smi:2752|AV-procd|sdf|10605|dock4
  -GOLD-   2272015 53D 1   1.00000     0.00000
 Structure written by MMmdl.
 34 35  0  0  0  0  0  0  0  0  1 V2000
  150.9449  138.2110  154.3835 C   0  0  0  0  0  0  0  0  0  0  0  0
  150.7560  139.6082  154.2178 O   0  0  0  0  0  0  0  0  0  0  0  0
  149.8070  140.1636  155.1192 C   0  0  2  0  0  0  0  0  0  0  0  0
  148.4297  139.5912  154.7668 C   0  0  0  0  0  0  0  0  0  0  0  0
  147.8429  140.5747  153.7599 C   0  0  0  0  0  0  0  0  0  0  0  0
  148.3110  141.9383  154.2639 C   0  0  0  0  0  0  0  0  0  0  0  0
  149.6879  141.6921  154.9067 C   0  0  1  0  0  0  0  0  0  0  0  0
  149.8025  142.3977  156.1812 N   0  0  0  0  0  0  0  0  0  0  0  0
  150.7054  142.1414  157.1389 C   0  0  0  0  0  0  0  0  0  0  0  0
  151.5601  141.2592  157.0531 O   0  0  0  0  0  0  0  0  0  0  0  0
  150.5443  142.9668  158.1883 N   0  0  0  0  0  0  0  0  0  0  0  0
  151.3179  143.0378  159.3776 C   0  0  0  0  0  0  0  0  0  0  0  0
  152.4750  142.2256  159.3879 C   0  0  0  0  0  0  0  0  0  0  0  0
  153.3082  142.2194  160.5237 C   0  0  0  0  0  0  0  0  0  0  0  0
  152.9601  143.0269  161.6209 C   0  0  0  0  0  0  0  0  0  0  0  0
  153.7291  143.0534  162.7352 F   0  0  0  0  0  0  0  0  0  0  0  0
  151.7917  143.8059  161.5311 C   0  0  0  0  0  0  0  0  0  0  0  0
  150.9927  143.8130  160.4427 N   0  0  0  0  0  0  0  0  0  0  0  0
  151.6915  137.8578  153.6725 H   0  0  0  0  0  0  0  0  0  0  0  0
  150.0196  137.6651  154.1947 H   0  0  0  0  0  0  0  0  0  0  0  0
  151.2947  137.9640  155.3862 H   0  0  0  0  0  0  0  0  0  0  0  0
  150.0646  139.8926  156.1454 H   0  0  0  0  0  0  0  0  0  0  0  0
  148.4776  138.5711  154.3842 H   0  0  0  0  0  0  0  0  0  0  0  0
  147.8035  139.5775  155.6599 H   0  0  0  0  0  0  0  0  0  0  0  0
  148.2612  140.3828  152.7708 H   0  0  0  0  0  0  0  0  0  0  0  0
  146.7577  140.5041  153.6848 H   0  0  0  0  0  0  0  0  0  0  0  0
  148.3539  142.6800  153.4657 H   0  0  0  0  0  0  0  0  0  0  0  0
  147.5996  142.3033  155.0066 H   0  0  0  0  0  0  0  0  0  0  0  0
  150.4552  142.0228  154.2048 H   0  0  0  0  0  0  0  0  0  0  0  0
  149.1389  143.1407  156.3439 H   0  0  0  0  0  0  0  0  0  0  0  0
  149.7860  143.6296  158.1240 H   0  0  0  0  0  0  0  0  0  0  0  0
  152.7261  141.6109  158.5354 H   0  0  0  0  0  0  0  0  0  0  0  0
  154.1967  141.6060  160.5512 H   0  0  0  0  0  0  0  0  0  0  0  0
  151.4898  144.4389  162.3525 H   0  0  0  0  0  0  0  0  0  0  0  0
  1  2  1  0  0  0  0
  1 19  1  0  0  0  0
  1 20  1  0  0  0  0
  1 21  1  0  0  0  0
  2  3  1  0  0  0  0
  3  7  1  0  0  0  0
  3  4  1  0  0  0  0
  3 22  1  0  0  0  0
  4  5  1  0  0  0  0
  4 23  1  0  0  0  0
  4 24  1  0  0  0  0
  5  6  1  0  0  0  0
  5 25  1  0  0  0  0
  5 26  1  0  0  0  0
  6  7  1  0  0  0  0
  6 27  1  0  0  0  0
  6 28  1  0  0  0  0
  7  8  1  0  0  0  0
  7 29  1  0  0  0  0
  8  9  1  0  0  0  0
  8 30  1  0  0  0  0
  9 10  2  0  0  0  0
  9 11  1  0  0  0  0
 11 12  1  0  0  0  0
 11 31  1  0  0  0  0
 12 18  1  0  0  0  0
 12 13  2  0  0  0  0
 13 14  1  0  0  0  0
 13 32  1  0  0  0  0
 14 15  2  0  0  0  0
 14 33  1  0  0  0  0
 15 16  1  0  0  0  0
 15 17  1  0  0  0  0
 17 18  2  0  0  0  0
 17 34  1  0  0  0  0
M  END
> <s_m_source_file>
AV-unprocessed.smi

> <i_m_source_file_index>
2752

> <i_lp_mmshare_version>
43012

> <i_f3d_flags>
0

> <s_epik_input>
W0NIM11PW0NAQEhdMVtDSDJdW0NIMl1bQ0gyXVtDQEhdMVtOSF1DKD1PKVtOSF1jMltjSF1bY0hdYyhGKVtjSF1uMg==

> <s_epik_cmdline>
J2VwaWtfcHl0aG9uJywgJy1waCcsICc3LjAnLCAnLXRuJywgJzgnLCAnLW1hJywgJzIwMCcsICctbWV0YWxfYmluZGluZycsICctaW1hZScsICc8aW5maWxlLm1hZT4nLCAnLW9tYWUnLCAnPG91dGZpbGUubWFlPic=

> <r_lp_tautomer_probability>
1

> <r_epik_Ionization_Penalty>
3.49853e-05

> <r_epik_Ionization_Penalty_Charging>
0

> <r_epik_Ionization_Penalty_Neutral>
3.49853e-05

> <r_epik_State_Penalty>
-0

> <r_epik_Charging_Adjusted_Penalty>
0

> <i_epik_Tot_Q>
0

> <i_epik_Tot_abs_Q>
0

> <r_epik_Metal_State_Penalty>
-0

> <b_epik_Metal_Only>
0

> <s_lp_Force_Field>
OPLS_2005

> <r_lp_Energy>
22.4566

> <b_lp_Chiralities_Consistent>
1

> <s_lp_Variant>
AV-unprocessed.smi:2752-1

> <Gold.Version>
5.8.1

> <Gold.Id.Protein>
6NUR|6NUR_protein|mol2

> <Gold.PLP.Fitness>
39.7130

> <Gold.PLP.PLP>
-36.6069

> <Gold.PLP.part.hbond>
-2.5309

> <Gold.PLP.part.metal>
0.0000

> <Gold.PLP.part.buried>
-1.1462

> <Gold.PLP.part.nonpolar>
-33.1154

> <Gold.PLP.part.repulsive>
0.4108

> <Gold.PLP.ligand.clash>
2.2490

> <Gold.PLP.ligand.torsion>
0.2432

> <Gold.PLP.Chemscore.Hbond>
1.9440

> <Gold.PLP.Chemscore.CHOScore>
0.0000

> <Gold.PLP.Chemscore.Metal>
0.0000

> <Gold.Chemscore.Hbonds>
donor molecule, donor type, donor heavy atom, donor atom, acceptor molecule, acceptor atom, score
      L1  H     8    30       P1  8028  0.70
      P1  H  7989  7998       L1     2  1.00

> <Gold.PLP.Chemscore.Internal.Correction>
0.0095

> <Gold.Rescore>
     Score         DG    S(hbond)    S(metal)    S(lipo)     H(rot)  DE(clash)    DE(int)     intcor
     13.09     -16.88       1.41        0.00      85.34       1.28       0.50       3.29       ----

> <Gold.Chemscore.Fitness>
13.0867

> <Gold.Chemscore.DG>
-16.8838

> <Gold.Chemscore.ZeroCoef>
-5.4800

> <Gold.Chemscore.Hbond>
1.4076

> <Gold.Chemscore.Metal>
0.0000

> <Gold.Chemscore.Lipo>
85.3391

> <Gold.Chemscore.Internal_Hbond>
0.0000

> <Gold.Chemscore.DEClash>
0.5049

> <Gold.Chemscore.DEInternal>
3.2921

> <Gold.Chemscore.Rot>
1.2821

> <Gold.Chemscore.Internal.Correction>
   9.000000E+99

> <Gold.Chemscore.Hbonds>
donor molecule, donor type, donor heavy atom, donor atom, acceptor molecule, acceptor atom, score
      L1  H     8    30       P1  8028  0.70
      P1  H  7989  7998       L1     2  0.74

> <Gold.Chemscore.Hbond.Weighted>
-4.7013

> <Gold.Chemscore.Metal.Weighted>
-0.0000

> <Gold.Chemscore.Lipo.Weighted>
-9.9847

> <Gold.Chemscore.Internal_Hbond.Weighted>
0.0000

> <Gold.Chemscore.DEClash.Weighted>
0.5049

> <Gold.Chemscore.DEInternal.Weighted>
3.2921

> <Gold.Chemscore.Rot.Weighted>
3.2822

> <Gold.Chemscore.Internal.Correction.Weighted>
   9.000000E+99

> <Gold.Protein.RotatedTorsions>
[ 6907 6896 6895 6894 ] final -158.32 input  -60.11 | X-H torsion
[ 7974 7965 7964 7962 ] final -166.87 input  175.53 | X-H torsion
[ 8008 7997 7996 7995 ] final  -78.99 input   59.86 | X-H torsion
[ 10167 10162 10161 10158 ] final  -71.61 input  -65.29 | X-H torsion
[ 10718 10713 10712 10709 ] final -137.24 input   66.30 | X-H torsion
[ 10763 10752 10751 10750 ] final  135.75 input  -60.55 | X-H torsion
[ 11005 11000 10999 10996 ] final  -69.57 input  -57.11 | X-H torsion

> <Gold.Protein.ActiveResidues>
 VAL166  LYS551  ARG553  GLY616  TRP617  ASP618  TYR619  PRO620  LYS621  CYS622 
 ASP623  PHE694  ASN695  SER759  ASP760  ASP761  ALA762  ILE779  LEU786  VAL792 
 PHE793  MET794  SER795  GLU796  ALA797  LYS798  CYS799  TRP800  GLU811  SER814 

> <Gold.Protein.RotatedAtoms>
  151.3164  133.4059  159.2650 H   0  0  0  0  0  0  0  0  0  0  0  0  # atno 6907 bound_to 6896
  151.0071  134.9369  159.7997 H   0  0  0  0  0  0  0  0  0  0  0  0  # atno 6908 bound_to 6896
  152.5291  134.3128  159.9172 H   0  0  0  0  0  0  0  0  0  0  0  0  # atno 6909 bound_to 6896
  144.7235  140.2603  143.6266 H   0  0  0  0  0  0  0  0  0  0  0  0  # atno 7974 bound_to 7965
  154.5742  140.0685  156.9010 H   0  0  0  0  0  0  0  0  0  0  0  0  # atno 8008 bound_to 7997
  155.2579  140.3356  155.4258 H   0  0  0  0  0  0  0  0  0  0  0  0  # atno 8009 bound_to 7997
  156.2141  140.1771  156.7613 H   0  0  0  0  0  0  0  0  0  0  0  0  # atno 8010 bound_to 7997
  140.5259  143.2326  151.7348 H   0  0  0  0  0  0  0  0  0  0  0  0  # atno 10167 bound_to 10162
  156.2859  130.7347  151.1358 H   0  0  0  0  0  0  0  0  0  0  0  0  # atno 10718 bound_to 10713
  153.8452  135.3086  155.3429 H   0  0  0  0  0  0  0  0  0  0  0  0  # atno 10763 bound_to 10752
  154.7915  135.4779  154.0067 H   0  0  0  0  0  0  0  0  0  0  0  0  # atno 10764 bound_to 10752
  153.1552  135.6850  153.8916 H   0  0  0  0  0  0  0  0  0  0  0  0  # atno 10765 bound_to 10752
  141.1557  133.6768  156.6620 H   0  0  0  0  0  0  0  0  0  0  0  0  # atno 11005 bound_to 11000
  145.8142  139.2016  143.1975 LP  0  0  0  0  0  0  0  0  0  0  0  0  # atno 17320 bound_to 7965
  146.0569  140.8011  142.9754 LP  0  0  0  0  0  0  0  0  0  0  0  0  # atno 17321 bound_to 7965
  139.4938  144.4186  152.0002 LP  0  0  0  0  0  0  0  0  0  0  0  0  # atno 17342 bound_to 10162
  140.3285  144.3344  150.5992 LP  0  0  0  0  0  0  0  0  0  0  0  0  # atno 17343 bound_to 10162
  157.7328  131.0596  150.5608 LP  0  0  0  0  0  0  0  0  0  0  0  0  # atno 17370 bound_to 10713
  156.5719  130.4282  149.6015 LP  0  0  0  0  0  0  0  0  0  0  0  0  # atno 17371 bound_to 10713
  140.3240  134.7984  157.4275 LP  0  0  0  0  0  0  0  0  0  0  0  0  # atno 17394 bound_to 11000
  140.1072  134.5393  155.8298 LP  0  0  0  0  0  0  0  0  0  0  0  0  # atno 17395 bound_to 11000

$$$$
