AV-unprocessed.smi:1760|AV-procd|sdf|7091|dock4
  -GOLD-   22720 8313D 1   1.00000     0.00000
 Structure written by MMmdl.
 43 45  0  0  0  0  0  0  0  0  1 V2000
  146.3107  137.7173  154.0261 O   0  0  0  0  0  0  0  0  0  0  0  0
  145.8949  138.2218  152.9833 C   0  0  0  0  0  0  0  0  0  0  0  0
  145.0708  137.6314  152.0979 N   0  0  0  0  0  0  0  0  0  0  0  0
  144.4802  136.3570  152.1430 C   0  0  0  0  0  0  0  0  0  0  0  0
  144.8094  135.3175  151.3319 C   0  0  0  0  0  0  0  0  0  0  0  0
  144.1621  134.0206  151.4386 C   0  0  0  0  0  0  0  0  0  0  0  0
  144.4825  132.8893  150.4739 C   0  0  0  0  0  0  0  0  0  0  0  0
  145.7881  132.6172  150.4632 F   0  0  0  0  0  0  0  0  0  0  0  0
  143.8260  131.7775  150.8053 F   0  0  0  0  0  0  0  0  0  0  0  0
  144.1202  133.2325  149.2387 F   0  0  0  0  0  0  0  0  0  0  0  0
  143.2073  133.9018  152.3795 C   0  0  0  0  0  0  0  0  0  0  0  0
  142.8793  134.9579  153.2323 N   0  0  0  0  0  0  0  0  0  0  0  0
  143.4533  136.1808  153.1834 C   0  0  0  0  0  0  0  0  0  0  0  0
  143.1103  137.0595  153.9738 O   0  0  0  0  0  0  0  0  0  0  0  0
  146.2352  139.4508  152.5690 N   0  0  0  0  0  0  0  0  0  0  0  0
  147.1397  140.3670  153.2591 C   0  0  0  0  0  0  0  0  0  0  0  0
  148.4749  139.6686  153.5600 C   0  0  0  0  0  0  0  0  0  0  0  0
  149.3821  140.5643  154.4219 C   0  0  0  0  0  0  0  0  0  0  0  0
  148.7092  140.9071  155.6752 N   0  0  0  0  0  0  0  0  0  0  0  0
  149.6058  141.7143  156.4861 C   0  0  0  0  0  0  0  0  0  0  0  0
  150.7311  141.0041  157.2031 C   0  0  0  0  0  0  0  0  0  0  0  0
  149.5500  141.5261  157.9849 C   0  0  0  0  0  0  0  0  0  0  0  0
  147.5000  141.6821  155.3954 C   0  0  0  0  0  0  0  0  0  0  0  0
  146.5062  140.8394  154.5769 C   0  0  0  0  0  0  0  0  0  0  0  0
  142.1661  134.7834  153.9258 H   0  0  0  0  0  0  0  0  0  0  0  0
  144.8736  138.1527  151.2557 H   0  0  0  0  0  0  0  0  0  0  0  0
  145.5832  135.4157  150.5883 H   0  0  0  0  0  0  0  0  0  0  0  0
  142.6272  133.0066  152.5480 H   0  0  0  0  0  0  0  0  0  0  0  0
  145.8469  139.7768  151.6961 H   0  0  0  0  0  0  0  0  0  0  0  0
  147.3443  141.2457  152.6444 H   0  0  0  0  0  0  0  0  0  0  0  0
  148.2967  138.7268  154.0816 H   0  0  0  0  0  0  0  0  0  0  0  0
  148.9828  139.4160  152.6287 H   0  0  0  0  0  0  0  0  0  0  0  0
  150.3113  140.0366  154.6402 H   0  0  0  0  0  0  0  0  0  0  0  0
  149.6489  141.4710  153.8763 H   0  0  0  0  0  0  0  0  0  0  0  0
  149.8357  142.7256  156.1543 H   0  0  0  0  0  0  0  0  0  0  0  0
  150.8142  139.9257  157.0804 H   0  0  0  0  0  0  0  0  0  0  0  0
  151.6753  141.5355  157.3028 H   0  0  0  0  0  0  0  0  0  0  0  0
  149.7066  142.4052  158.6064 H   0  0  0  0  0  0  0  0  0  0  0  0
  148.8493  140.7937  158.3818 H   0  0  0  0  0  0  0  0  0  0  0  0
  147.0342  141.9818  156.3351 H   0  0  0  0  0  0  0  0  0  0  0  0
  147.7539  142.5969  154.8572 H   0  0  0  0  0  0  0  0  0  0  0  0
  145.6086  141.4236  154.3714 H   0  0  0  0  0  0  0  0  0  0  0  0
  146.1878  139.9801  155.1695 H   0  0  0  0  0  0  0  0  0  0  0  0
  1  2  2  0  0  0  0
  2  3  1  0  0  0  0
  2 15  1  0  0  0  0
  3  4  1  0  0  0  0
  3 26  1  0  0  0  0
  4 13  1  0  0  0  0
  4  5  2  0  0  0  0
  5  6  1  0  0  0  0
  5 27  1  0  0  0  0
  6  7  1  0  0  0  0
  6 11  2  0  0  0  0
  7  8  1  0  0  0  0
  7  9  1  0  0  0  0
  7 10  1  0  0  0  0
 11 12  1  0  0  0  0
 11 28  1  0  0  0  0
 12 25  1  0  0  0  0
 12 13  1  0  0  0  0
 13 14  2  0  0  0  0
 15 16  1  0  0  0  0
 15 29  1  0  0  0  0
 16 24  1  0  0  0  0
 16 17  1  0  0  0  0
 16 30  1  0  0  0  0
 17 18  1  0  0  0  0
 17 31  1  0  0  0  0
 17 32  1  0  0  0  0
 18 19  1  0  0  0  0
 18 33  1  0  0  0  0
 18 34  1  0  0  0  0
 19 20  1  0  0  0  0
 19 23  1  0  0  0  0
 20 22  1  0  0  0  0
 20 21  1  0  0  0  0
 20 35  1  0  0  0  0
 21 22  1  0  0  0  0
 21 36  1  0  0  0  0
 21 37  1  0  0  0  0
 22 38  1  0  0  0  0
 22 39  1  0  0  0  0
 23 24  1  0  0  0  0
 23 40  1  0  0  0  0
 23 41  1  0  0  0  0
 24 42  1  0  0  0  0
 24 43  1  0  0  0  0
M  END
> <s_m_source_file>
AV-unprocessed.smi

> <i_m_source_file_index>
1760

> <i_lp_mmshare_version>
43012

> <i_f3d_flags>
0

> <s_epik_input>
W0NIMl0xW0NIMl1bQ0hdMU4oW0NIMl1bQ0gyXTIpW0NIMl1bQ0gyXVtDSF0yW05IXUMoPU8pW05IXWMzW2NIXWMoQyhGKShGKUYpW2NIXVtuSF1jMz1P

> <s_epik_cmdline>
J2VwaWtfcHl0aG9uJywgJy1waCcsICc3LjAnLCAnLXRuJywgJzgnLCAnLW1hJywgJzIwMCcsICctbWV0YWxfYmluZGluZycsICctaW1hZScsICc8aW5maWxlLm1hZT4nLCAnLW9tYWUnLCAnPG91dGZpbGUubWFlPic=

> <r_lp_tautomer_probability>
0.999

> <r_epik_Ionization_Penalty>
0.980325

> <r_epik_Ionization_Penalty_Charging>
0.0037226

> <r_epik_Ionization_Penalty_Neutral>
0.976602

> <r_epik_State_Penalty>
1.02305

> <r_epik_Charging_Adjusted_Penalty>
1.02677

> <i_epik_Tot_Q>
0

> <i_epik_Tot_abs_Q>
0

> <r_epik_Metal_State_Penalty>
1.39928

> <b_epik_Metal_Only>
0

> <s_lp_Force_Field>
OPLS_2005

> <r_lp_Energy>
33.0511

> <b_lp_Chiralities_Consistent>
1

> <s_lp_Variant>
AV-unprocessed.smi:1760-3

> <Gold.Version>
5.8.1

> <Gold.Id.Protein>
6NUR|6NUR_protein|mol2

> <Gold.PLP.Fitness>
40.7207

> <Gold.PLP.PLP>
-38.0111

> <Gold.PLP.part.hbond>
-2.5647

> <Gold.PLP.part.metal>
0.0000

> <Gold.PLP.part.buried>
-0.3480

> <Gold.PLP.part.nonpolar>
-35.8752

> <Gold.PLP.part.repulsive>
0.3243

> <Gold.PLP.ligand.clash>
1.2486

> <Gold.PLP.ligand.torsion>
1.4284

> <Gold.PLP.Chemscore.Hbond>
1.0018

> <Gold.PLP.Chemscore.CHOScore>
0.8454

> <Gold.PLP.Chemscore.Metal>
0.0000

> <Gold.Chemscore.Hbonds>
donor molecule, donor type, donor heavy atom, donor atom, acceptor molecule, acceptor atom, score
      L1  H     3    26       P1 10171  1.00
      L1  C    11    28       P1 10957  0.84

> <Gold.PLP.Chemscore.Internal.Correction>
1.2734

> <Gold.Rescore>
     Score         DG    S(hbond)    S(metal)    S(lipo)     H(rot)  DE(clash)    DE(int)     intcor
     10.54     -14.40       1.05        0.00      74.27       1.27       1.44       2.43       ----

> <Gold.Chemscore.Fitness>
10.5402

> <Gold.Chemscore.DG>
-14.4023

> <Gold.Chemscore.ZeroCoef>
-5.4800

> <Gold.Chemscore.Hbond>
1.0455

> <Gold.Chemscore.Metal>
0.0000

> <Gold.Chemscore.Lipo>
74.2748

> <Gold.Chemscore.Internal_Hbond>
0.0000

> <Gold.Chemscore.DEClash>
1.4357

> <Gold.Chemscore.DEInternal>
2.4264

> <Gold.Chemscore.Rot>
1.2734

> <Gold.Chemscore.Internal.Correction>
   9.000000E+99

> <Gold.Chemscore.Hbonds>
donor molecule, donor type, donor heavy atom, donor atom, acceptor molecule, acceptor atom, score
      L1  H     3    26       P1 10171  0.98

> <Gold.Chemscore.Hbond.Weighted>
-3.4920

> <Gold.Chemscore.Metal.Weighted>
-0.0000

> <Gold.Chemscore.Lipo.Weighted>
-8.6901

> <Gold.Chemscore.Internal_Hbond.Weighted>
0.0000

> <Gold.Chemscore.DEClash.Weighted>
1.4357

> <Gold.Chemscore.DEInternal.Weighted>
2.4264

> <Gold.Chemscore.Rot.Weighted>
3.2598

> <Gold.Chemscore.Internal.Correction.Weighted>
   9.000000E+99

> <Gold.Protein.RotatedTorsions>
[ 6907 6896 6895 6894 ] final  -22.01 input  -60.11 | X-H torsion
[ 7974 7965 7964 7962 ] final   20.32 input  175.53 | X-H torsion
[ 8008 7997 7996 7995 ] final -151.60 input   59.86 | X-H torsion
[ 10167 10162 10161 10158 ] final  131.37 input  -65.29 | X-H torsion
[ 10718 10713 10712 10709 ] final   -1.39 input   66.30 | X-H torsion
[ 10763 10752 10751 10750 ] final   57.54 input  -60.55 | X-H torsion
[ 11005 11000 10999 10996 ] final  -99.94 input  -57.11 | X-H torsion

> <Gold.Protein.ActiveResidues>
 VAL166  LYS551  ARG553  GLY616  TRP617  ASP618  TYR619  PRO620  LYS621  CYS622 
 ASP623  PHE694  ASN695  SER759  ASP760  ASP761  ALA762  ILE779  LEU786  VAL792 
 PHE793  MET794  SER795  GLU796  ALA797  LYS798  CYS799  TRP800  GLU811  SER814 

> <Gold.Protein.RotatedAtoms>
  151.2249  135.0533  159.8964 H   0  0  0  0  0  0  0  0  0  0  0  0  # atno 6907 bound_to 6896
  152.5411  134.0600  159.8158 H   0  0  0  0  0  0  0  0  0  0  0  0  # atno 6908 bound_to 6896
  151.0771  133.5371  159.2655 H   0  0  0  0  0  0  0  0  0  0  0  0  # atno 6909 bound_to 6896
  146.2116  139.8187  142.8684 H   0  0  0  0  0  0  0  0  0  0  0  0  # atno 7974 bound_to 7965
  155.6420  140.0702  157.2615 H   0  0  0  0  0  0  0  0  0  0  0  0  # atno 8008 bound_to 7997
  154.4181  140.1748  156.1633 H   0  0  0  0  0  0  0  0  0  0  0  0  # atno 8009 bound_to 7997
  155.9847  140.3350  155.6700 H   0  0  0  0  0  0  0  0  0  0  0  0  # atno 8010 bound_to 7997
  139.5387  144.6709  151.4697 H   0  0  0  0  0  0  0  0  0  0  0  0  # atno 10167 bound_to 10162
  156.8064  130.5410  149.5714 H   0  0  0  0  0  0  0  0  0  0  0  0  # atno 10718 bound_to 10713
  152.9852  135.5638  154.5408 H   0  0  0  0  0  0  0  0  0  0  0  0  # atno 10763 bound_to 10752
  154.4863  135.2791  155.1534 H   0  0  0  0  0  0  0  0  0  0  0  0  # atno 10764 bound_to 10752
  154.3022  135.6305  153.5482 H   0  0  0  0  0  0  0  0  0  0  0  0  # atno 10765 bound_to 10752
  141.1290  133.8360  157.1037 H   0  0  0  0  0  0  0  0  0  0  0  0  # atno 11005 bound_to 11000
  145.3119  141.0222  143.3549 LP  0  0  0  0  0  0  0  0  0  0  0  0  # atno 17320 bound_to 7965
  144.8929  139.4750  143.6669 LP  0  0  0  0  0  0  0  0  0  0  0  0  # atno 17321 bound_to 7965
  140.6607  143.8505  150.6884 LP  0  0  0  0  0  0  0  0  0  0  0  0  # atno 17342 bound_to 10162
  140.1898  143.4045  152.1871 LP  0  0  0  0  0  0  0  0  0  0  0  0  # atno 17343 bound_to 10162
  156.1071  130.6012  150.9987 LP  0  0  0  0  0  0  0  0  0  0  0  0  # atno 17370 bound_to 10713
  157.6528  131.0894  150.8013 LP  0  0  0  0  0  0  0  0  0  0  0  0  # atno 17371 bound_to 10713
  140.0318  134.9897  157.0794 LP  0  0  0  0  0  0  0  0  0  0  0  0  # atno 17394 bound_to 11000
  140.4274  134.1817  155.7166 LP  0  0  0  0  0  0  0  0  0  0  0  0  # atno 17395 bound_to 11000

$$$$
