AV-unprocessed.smi:650|AV-procd|sdf|3182|dock4
  -GOLD-   22720 0103D 1   1.00000     0.00000
 Structure written by MMmdl.
 43 44  0  0  0  0  0  0  0  0  2 V2000
  151.7392  140.9734  156.2247 C   0  0  0  0  0  0  0  0  0  0  0  0
  151.5804  139.5870  155.7009 C   0  0  0  0  0  0  0  0  0  0  0  0
  150.5030  138.8880  155.2339 C   0  0  0  0  0  0  0  0  0  0  0  0
  151.0604  137.6240  154.9037 C   0  0  0  0  0  0  0  0  0  0  0  0
  150.2502  136.5865  154.3758 N   0  0  0  0  0  0  0  0  0  0  0  0
  150.0408  135.3658  154.8971 C   0  0  0  0  0  0  0  0  0  0  0  0
  150.5382  134.9460  155.9425 O   0  0  0  0  0  0  0  0  0  0  0  0
  149.2140  134.6421  154.1278 N   0  0  0  0  0  0  0  0  0  0  0  0
  148.7513  133.2888  154.4230 C   0  0  0  0  0  0  0  0  0  0  0  0
  147.3564  132.9945  153.8314 C   0  0  2  0  0  0  0  0  0  0  0  0
  147.4776  132.4274  152.4057 C   0  0  0  0  0  0  0  0  0  0  0  0
  146.0988  132.1452  151.7873 C   0  0  0  0  0  0  0  0  0  0  0  0
  145.2579  133.3688  151.7749 N   0  3  1  0  0  0  0  0  0  0  0  0
  143.9772  133.1653  151.0503 C   0  0  0  0  0  0  0  0  0  0  0  0
  144.1764  132.5297  149.6638 C   0  0  0  0  0  0  0  0  0  0  0  0
  142.9344  132.1017  149.1458 O   0  0  0  0  0  0  0  0  0  0  0  0
  145.0810  133.9157  153.1455 C   0  0  0  0  0  0  0  0  0  0  0  0
  146.4372  134.2324  153.7971 C   0  0  0  0  0  0  0  0  0  0  0  0
  152.3613  137.5587  155.1428 N   0  0  0  0  0  0  0  0  0  0  0  0
  152.7011  138.8164  155.6551 O   0  0  0  0  0  0  0  0  0  0  0  0
  150.8168  141.3197  156.6910 H   0  0  0  0  0  0  0  0  0  0  0  0
  151.9915  141.6632  155.4194 H   0  0  0  0  0  0  0  0  0  0  0  0
  152.5315  141.0202  156.9721 H   0  0  0  0  0  0  0  0  0  0  0  0
  149.4820  139.2280  155.1465 H   0  0  0  0  0  0  0  0  0  0  0  0
  149.7735  136.8006  153.5126 H   0  0  0  0  0  0  0  0  0  0  0  0
  148.8589  135.0676  153.2840 H   0  0  0  0  0  0  0  0  0  0  0  0
  149.4746  132.5460  154.0815 H   0  0  0  0  0  0  0  0  0  0  0  0
  148.7142  133.1930  155.5086 H   0  0  0  0  0  0  0  0  0  0  0  0
  146.8808  132.2358  154.4551 H   0  0  0  0  0  0  0  0  0  0  0  0
  148.0208  133.1310  151.7730 H   0  0  0  0  0  0  0  0  0  0  0  0
  148.0652  131.5088  152.4183 H   0  0  0  0  0  0  0  0  0  0  0  0
  146.2349  131.7806  150.7684 H   0  0  0  0  0  0  0  0  0  0  0  0
  145.5894  131.3556  152.3423 H   0  0  0  0  0  0  0  0  0  0  0  0
  143.3214  132.5150  151.6314 H   0  0  0  0  0  0  0  0  0  0  0  0
  143.4557  134.1192  150.9596 H   0  0  0  0  0  0  0  0  0  0  0  0
  144.5946  133.2671  148.9781 H   0  0  0  0  0  0  0  0  0  0  0  0
  144.8738  131.6933  149.6874 H   0  0  0  0  0  0  0  0  0  0  0  0
  142.3165  132.8144  149.2136 H   0  0  0  0  0  0  0  0  0  0  0  0
  144.4848  134.8269  153.1181 H   0  0  0  0  0  0  0  0  0  0  0  0
  144.5311  133.1988  153.7571 H   0  0  0  0  0  0  0  0  0  0  0  0
  146.2622  134.6054  154.8062 H   0  0  0  0  0  0  0  0  0  0  0  0
  146.9258  135.0402  153.2501 H   0  0  0  0  0  0  0  0  0  0  0  0
  145.7725  134.0576  151.2439 H   0  0  0  0  0  0  0  0  0  0  0  0
  1  2  1  0  0  0  0
  1 21  1  0  0  0  0
  1 22  1  0  0  0  0
  1 23  1  0  0  0  0
  2 20  1  0  0  0  0
  2  3  2  0  0  0  0
  3  4  1  0  0  0  0
  3 24  1  0  0  0  0
  4  5  1  0  0  0  0
  4 19  2  0  0  0  0
  5  6  1  0  0  0  0
  5 25  1  0  0  0  0
  6  7  2  0  0  0  0
  6  8  1  0  0  0  0
  8  9  1  0  0  0  0
  8 26  1  0  0  0  0
  9 10  1  0  0  0  0
  9 27  1  0  0  0  0
  9 28  1  0  0  0  0
 10 18  1  0  0  0  0
 10 11  1  0  0  0  0
 10 29  1  0  0  0  0
 11 12  1  0  0  0  0
 11 30  1  0  0  0  0
 11 31  1  0  0  0  0
 12 13  1  0  0  0  0
 12 32  1  0  0  0  0
 12 33  1  0  0  0  0
 13 14  1  0  0  0  0
 13 17  1  0  0  0  0
 13 43  1  0  0  0  0
 14 15  1  0  0  0  0
 14 34  1  0  0  0  0
 14 35  1  0  0  0  0
 15 16  1  0  0  0  0
 15 36  1  0  0  0  0
 15 37  1  0  0  0  0
 16 38  1  0  0  0  0
 17 18  1  0  0  0  0
 17 39  1  0  0  0  0
 17 40  1  0  0  0  0
 18 41  1  0  0  0  0
 18 42  1  0  0  0  0
 19 20  1  0  0  0  0
M  CHG  1  13   1
M  END
> <s_m_source_file>
AV-unprocessed.smi

> <i_m_source_file_index>
650

> <i_lp_mmshare_version>
43012

> <i_f3d_flags>
0

> <s_epik_input>
W0NIM11jMVtjSF1jKG5vMSlbTkhdQyg9TylbTkhdW0NIMl1bQ0hdMltDSDJdW0NIMl1OKFtDSDJdW0NIMl0yKVtDSDJdW0NIMl1bT0hd

> <s_epik_cmdline>
J2VwaWtfcHl0aG9uJywgJy1waCcsICc3LjAnLCAnLXRuJywgJzgnLCAnLW1hJywgJzIwMCcsICctbWV0YWxfYmluZGluZycsICctaW1hZScsICc8aW5maWxlLm1hZT4nLCAnLW9tYWUnLCAnPG91dGZpbGUubWFlPic=

> <r_epik_Ionization_Penalty>
0.00179437

> <r_epik_Ionization_Penalty_Charging>
0.00177223

> <r_epik_Ionization_Penalty_Neutral>
2.21418e-05

> <r_epik_State_Penalty>
0.00120075

> <r_epik_Charging_Adjusted_Penalty>
0.00297297

> <i_epik_Tot_Q>
1

> <i_epik_Tot_abs_Q>
1

> <r_epik_Metal_State_Penalty>
-0

> <b_epik_Metal_Only>
0

> <s_lp_Force_Field>
OPLS_2005

> <r_lp_Energy>
15.9462

> <b_lp_Chiralities_Consistent>
1

> <s_lp_Variant>
AV-unprocessed.smi:650-1

> <Gold.Version>
5.8.1

> <Gold.Id.Protein>
6NUR|6NUR_protein|mol2

> <Gold.PLP.Fitness>
47.6394

> <Gold.PLP.PLP>
-34.3354

> <Gold.PLP.part.hbond>
-7.5998

> <Gold.PLP.part.metal>
0.0000

> <Gold.PLP.part.buried>
-4.2824

> <Gold.PLP.part.nonpolar>
-22.8219

> <Gold.PLP.part.repulsive>
0.1800

> <Gold.PLP.ligand.clash>
0.0000

> <Gold.PLP.ligand.torsion>
1.1545

> <Gold.PLP.Chemscore.Hbond>
5.1860

> <Gold.PLP.Chemscore.CHOScore>
0.0000

> <Gold.PLP.Chemscore.Metal>
0.0000

> <Gold.Chemscore.Hbonds>
donor molecule, donor type, donor heavy atom, donor atom, acceptor molecule, acceptor atom, score
      L1  H     5    25       P1  7948  1.00
      L1  H     8    26       P1  7948  1.00
      L1  H    16    38       P1 10186  0.84
      P1  H  7997  8010       L1    20  0.63
      P1  H 10752 10763       L1    19  0.51
      P1  H 10785 10796       L1    16  1.00

> <Gold.PLP.Chemscore.Internal.Correction>
0.0548

> <Gold.Rescore>
     Score         DG    S(hbond)    S(metal)    S(lipo)     H(rot)  DE(clash)    DE(int)     intcor
     17.30     -18.64       3.69        0.00      62.92       2.55       0.09       1.25       ----

> <Gold.Chemscore.Fitness>
17.3015

> <Gold.Chemscore.DG>
-18.6419

> <Gold.Chemscore.ZeroCoef>
-5.4800

> <Gold.Chemscore.Hbond>
3.6903

> <Gold.Chemscore.Metal>
0.0000

> <Gold.Chemscore.Lipo>
62.9248

> <Gold.Chemscore.Internal_Hbond>
0.0000

> <Gold.Chemscore.DEClash>
0.0888

> <Gold.Chemscore.DEInternal>
1.2516

> <Gold.Chemscore.Rot>
2.5492

> <Gold.Chemscore.Internal.Correction>
   9.000000E+99

> <Gold.Chemscore.Hbonds>
donor molecule, donor type, donor heavy atom, donor atom, acceptor molecule, acceptor atom, score
      L1  H     5    25       P1  7948  0.47
      L1  H     8    26       P1  7948  0.43
      L1  H    16    38       P1 10186  0.84
      P1  H  7997  8010       L1    20  0.34
      P1  H 10752 10763       L1    19  0.28
      P1  H 10785 10796       L1    16  0.47

> <Gold.Chemscore.Hbond.Weighted>
-12.3257

> <Gold.Chemscore.Metal.Weighted>
-0.0000

> <Gold.Chemscore.Lipo.Weighted>
-7.3622

> <Gold.Chemscore.Internal_Hbond.Weighted>
0.0000

> <Gold.Chemscore.DEClash.Weighted>
0.0888

> <Gold.Chemscore.DEInternal.Weighted>
1.2516

> <Gold.Chemscore.Rot.Weighted>
6.5260

> <Gold.Chemscore.Internal.Correction.Weighted>
   9.000000E+99

> <Gold.Protein.RotatedTorsions>
[ 6907 6896 6895 6894 ] final  158.14 input  -60.11 | X-H torsion
[ 7974 7965 7964 7962 ] final -133.73 input  175.53 | X-H torsion
[ 8008 7997 7996 7995 ] final   83.70 input   59.86 | X-H torsion
[ 10167 10162 10161 10158 ] final    5.99 input  -65.29 | X-H torsion
[ 10718 10713 10712 10709 ] final  139.67 input   66.30 | X-H torsion
[ 10763 10752 10751 10750 ] final   54.18 input  -60.55 | X-H torsion
[ 11005 11000 10999 10996 ] final  -43.47 input  -57.11 | X-H torsion

> <Gold.Protein.ActiveResidues>
 VAL166  LYS551  ARG553  GLY616  TRP617  ASP618  TYR619  PRO620  LYS621  CYS622 
 ASP623  PHE694  ASN695  SER759  ASP760  ASP761  ALA762  ILE779  LEU786  VAL792 
 PHE793  MET794  SER795  GLU796  ALA797  LYS798  CYS799  TRP800  GLU811  SER814 

> <Gold.Protein.RotatedAtoms>
  152.0048  133.3839  159.4195 H   0  0  0  0  0  0  0  0  0  0  0  0  # atno 6907 bound_to 6896
  150.6906  134.3794  159.5036 H   0  0  0  0  0  0  0  0  0  0  0  0  # atno 6908 bound_to 6896
  152.1547  134.8960  160.0596 H   0  0  0  0  0  0  0  0  0  0  0  0  # atno 6909 bound_to 6896
  144.9166  140.6962  143.4991 H   0  0  0  0  0  0  0  0  0  0  0  0  # atno 7974 bound_to 7965
  155.9274  140.3417  155.6221 H   0  0  0  0  0  0  0  0  0  0  0  0  # atno 8008 bound_to 7997
  155.7200  140.0782  157.2353 H   0  0  0  0  0  0  0  0  0  0  0  0  # atno 8009 bound_to 7997
  154.4079  140.1607  156.2379 H   0  0  0  0  0  0  0  0  0  0  0  0  # atno 8010 bound_to 7997
  140.6452  143.7678  150.7488 H   0  0  0  0  0  0  0  0  0  0  0  0  # atno 10167 bound_to 10162
  157.4118  131.1029  151.0445 H   0  0  0  0  0  0  0  0  0  0  0  0  # atno 10718 bound_to 10713
  152.9802  135.5753  154.4863 H   0  0  0  0  0  0  0  0  0  0  0  0  # atno 10763 bound_to 10752
  154.4404  135.2775  155.1853 H   0  0  0  0  0  0  0  0  0  0  0  0  # atno 10764 bound_to 10752
  154.3524  135.6206  153.5703 H   0  0  0  0  0  0  0  0  0  0  0  0  # atno 10765 bound_to 10752
  141.0386  133.6789  156.2738 H   0  0  0  0  0  0  0  0  0  0  0  0  # atno 11005 bound_to 11000
  145.3365  139.1744  143.4509 LP  0  0  0  0  0  0  0  0  0  0  0  0  # atno 17320 bound_to 7965
  146.3185  140.3401  142.8647 LP  0  0  0  0  0  0  0  0  0  0  0  0  # atno 17321 bound_to 7965
  140.1318  143.4519  152.2249 LP  0  0  0  0  0  0  0  0  0  0  0  0  # atno 17342 bound_to 10162
  139.5663  144.7437  151.4014 LP  0  0  0  0  0  0  0  0  0  0  0  0  # atno 17343 bound_to 10162
  157.1407  130.6142  149.5554 LP  0  0  0  0  0  0  0  0  0  0  0  0  # atno 17370 bound_to 10713
  155.9853  130.4882  150.7025 LP  0  0  0  0  0  0  0  0  0  0  0  0  # atno 17371 bound_to 10713
  140.6276  134.5297  157.5555 LP  0  0  0  0  0  0  0  0  0  0  0  0  # atno 17394 bound_to 11000
  139.9259  134.8057  156.1071 LP  0  0  0  0  0  0  0  0  0  0  0  0  # atno 17395 bound_to 11000

$$$$
