AV-unprocessed.smi:2832|AV-procd|sdf|10912|dock2
  -GOLD-   2272015363D 1   1.00000     0.00000
 Structure written by MMmdl.
 33 33  0  0  0  0  0  0  0  0  2 V2000
  148.9675  136.9618  158.4706 C   0  0  0  0  0  0  0  0  0  0  0  0
  149.7068  138.0452  157.6784 C   0  0  0  0  0  0  0  0  0  0  0  0
  150.6048  138.9215  158.5816 C   0  0  0  0  0  0  0  0  0  0  0  0
  151.0437  140.3125  158.0216 C   0  0  1  0  0  0  0  0  0  0  0  0
  149.7857  141.1153  157.6181 C   0  0  0  0  0  0  0  0  0  0  0  0
  151.8074  141.1509  158.9629 N   0  0  0  0  0  0  0  0  0  0  0  0
  152.9453  140.9127  159.6409 C   0  0  0  0  0  0  0  0  0  0  0  0
  153.5283  139.8298  159.6738 O   0  0  0  0  0  0  0  0  0  0  0  0
  153.5122  142.0950  160.4287 C   0  0  0  0  0  0  0  0  0  0  0  0
  152.7104  143.2916  160.2383 N   0  0  0  0  0  0  0  0  0  0  0  0
  151.9651  143.9823  161.1717 C   0  0  0  0  0  0  0  0  0  0  0  0
  151.3827  145.0365  160.5282 C   0  0  0  0  0  0  0  0  0  0  0  0
  151.8391  144.9070  159.1866 C   0  0  0  0  0  0  0  0  0  0  0  0
  152.6353  143.8641  159.0166 N   0  0  0  0  0  0  0  0  0  0  0  0
  151.9404  140.0641  156.7824 C   0  0  0  0  0  0  0  0  0  0  0  0
  151.5318  140.4711  155.6717 O   0  0  0  0  0  0  0  0  0  0  0  0
  153.0225  139.4575  156.9543 O   0  5  0  0  0  0  0  0  0  0  0  0
  148.3285  136.3703  157.8149 H   0  0  0  0  0  0  0  0  0  0  0  0
  148.3362  137.4010  159.2436 H   0  0  0  0  0  0  0  0  0  0  0  0
  149.6690  136.2815  158.9543 H   0  0  0  0  0  0  0  0  0  0  0  0
  150.2949  137.5671  156.8964 H   0  0  0  0  0  0  0  0  0  0  0  0
  148.9689  138.6637  157.1678 H   0  0  0  0  0  0  0  0  0  0  0  0
  150.0716  139.0793  159.5207 H   0  0  0  0  0  0  0  0  0  0  0  0
  151.4872  138.3513  158.8712 H   0  0  0  0  0  0  0  0  0  0  0  0
  149.1483  140.5575  156.9309 H   0  0  0  0  0  0  0  0  0  0  0  0
  150.0481  142.0580  157.1354 H   0  0  0  0  0  0  0  0  0  0  0  0
  149.1790  141.3562  158.4917 H   0  0  0  0  0  0  0  0  0  0  0  0
  151.4456  142.0900  159.0504 H   0  0  0  0  0  0  0  0  0  0  0  0
  153.5367  141.8589  161.4933 H   0  0  0  0  0  0  0  0  0  0  0  0
  154.5408  142.2853  160.1173 H   0  0  0  0  0  0  0  0  0  0  0  0
  151.9102  143.6659  162.2030 H   0  0  0  0  0  0  0  0  0  0  0  0
  150.7294  145.7852  160.9508 H   0  0  0  0  0  0  0  0  0  0  0  0
  151.6180  145.5359  158.3369 H   0  0  0  0  0  0  0  0  0  0  0  0
  1  2  1  0  0  0  0
  1 18  1  0  0  0  0
  1 19  1  0  0  0  0
  1 20  1  0  0  0  0
  2  3  1  0  0  0  0
  2 21  1  0  0  0  0
  2 22  1  0  0  0  0
  3  4  1  0  0  0  0
  3 23  1  0  0  0  0
  3 24  1  0  0  0  0
  4  5  1  0  0  0  0
  4  6  1  0  0  0  0
  4 15  1  0  0  0  0
  5 25  1  0  0  0  0
  5 26  1  0  0  0  0
  5 27  1  0  0  0  0
  6  7  1  0  0  0  0
  6 28  1  0  0  0  0
  7  8  2  0  0  0  0
  7  9  1  0  0  0  0
  9 10  1  0  0  0  0
  9 29  1  0  0  0  0
  9 30  1  0  0  0  0
 10 14  1  0  0  0  0
 10 11  1  0  0  0  0
 11 12  2  0  0  0  0
 11 31  1  0  0  0  0
 12 13  1  0  0  0  0
 12 32  1  0  0  0  0
 13 14  2  0  0  0  0
 13 33  1  0  0  0  0
 15 16  2  0  0  0  0
 15 17  1  0  0  0  0
M  CHG  1  17  -1
M  END
> <s_m_source_file>
AV-unprocessed.smi

> <i_m_source_file_index>
2832

> <i_lp_mmshare_version>
43012

> <i_f3d_flags>
0

> <s_epik_input>
W0NIM11bQ0gyXVtDSDJdW0NAXShbQ0gzXSkoQyg9TylbT0hdKVtOSF1DKD1PKVtDSDJdbjFbY0hdW2NIXVtjSF1uMQ==

> <s_epik_cmdline>
J2VwaWtfcHl0aG9uJywgJy1waCcsICc3LjAnLCAnLXRuJywgJzgnLCAnLW1hJywgJzIwMCcsICctbWV0YWxfYmluZGluZycsICctaW1hZScsICc8aW5maWxlLm1hZT4nLCAnLW9tYWUnLCAnPG91dGZpbGUubWFlPic=

> <r_lp_tautomer_probability>
1

> <r_epik_Ionization_Penalty>
0.000287256

> <r_epik_Ionization_Penalty_Charging>
0.00026921

> <r_epik_Ionization_Penalty_Neutral>
1.80463e-05

> <r_epik_State_Penalty>
-0

> <r_epik_Charging_Adjusted_Penalty>
0.00026921

> <i_epik_Tot_Q>
-1

> <i_epik_Tot_abs_Q>
1

> <r_epik_Metal_State_Penalty>
-0

> <b_epik_Metal_Only>
0

> <s_lp_Force_Field>
OPLS_2005

> <r_lp_Energy>
4.0175

> <b_lp_Chiralities_Consistent>
1

> <s_lp_Variant>
AV-unprocessed.smi:2832-1

> <Gold.Version>
5.8.1

> <Gold.Id.Protein>
6NUR|6NUR_protein|mol2

> <Gold.PLP.Fitness>
44.3943

> <Gold.PLP.PLP>
-36.1377

> <Gold.PLP.part.hbond>
-2.0000

> <Gold.PLP.part.metal>
0.0000

> <Gold.PLP.part.buried>
-6.9082

> <Gold.PLP.part.nonpolar>
-27.5152

> <Gold.PLP.part.repulsive>
0.1285

> <Gold.PLP.ligand.clash>
0.0000

> <Gold.PLP.ligand.torsion>
0.1730

> <Gold.PLP.Chemscore.Hbond>
2.8480

> <Gold.PLP.Chemscore.CHOScore>
0.0000

> <Gold.PLP.Chemscore.Metal>
0.0000

> <Gold.Chemscore.Hbonds>
donor molecule, donor type, donor heavy atom, donor atom, acceptor molecule, acceptor atom, score
      P1  H  7989  7998       L1    16  0.46
      P1  H  7997  8008       L1    17  1.95

> <Gold.PLP.Chemscore.Internal.Correction>
0.0586

> <Gold.Rescore>
     Score         DG    S(hbond)    S(metal)    S(lipo)     H(rot)  DE(clash)    DE(int)     intcor
     10.47     -13.25       1.96        0.00      64.45       2.47       0.00       2.79       ----

> <Gold.Chemscore.Fitness>
10.4655

> <Gold.Chemscore.DG>
-13.2529

> <Gold.Chemscore.ZeroCoef>
-5.4800

> <Gold.Chemscore.Hbond>
1.9646

> <Gold.Chemscore.Metal>
0.0000

> <Gold.Chemscore.Lipo>
64.4503

> <Gold.Chemscore.Internal_Hbond>
0.0000

> <Gold.Chemscore.DEClash>
0.0000

> <Gold.Chemscore.DEInternal>
2.7873

> <Gold.Chemscore.Rot>
2.4726

> <Gold.Chemscore.Internal.Correction>
   9.000000E+99

> <Gold.Chemscore.Hbonds>
donor molecule, donor type, donor heavy atom, donor atom, acceptor molecule, acceptor atom, score
      P1  H  7989  7998       L1    16  0.46
      P1  H  7997  8008       L1    17  0.92

> <Gold.Chemscore.Hbond.Weighted>
-6.5619

> <Gold.Chemscore.Metal.Weighted>
-0.0000

> <Gold.Chemscore.Lipo.Weighted>
-7.5407

> <Gold.Chemscore.Internal_Hbond.Weighted>
0.0000

> <Gold.Chemscore.DEClash.Weighted>
0.0000

> <Gold.Chemscore.DEInternal.Weighted>
2.7873

> <Gold.Chemscore.Rot.Weighted>
6.3297

> <Gold.Chemscore.Internal.Correction.Weighted>
   9.000000E+99

> <Gold.Protein.RotatedTorsions>
[ 6907 6896 6895 6894 ] final  -88.81 input  -60.11 | X-H torsion
[ 7974 7965 7964 7962 ] final  -57.33 input  175.53 | X-H torsion
[ 8008 7997 7996 7995 ] final  -60.22 input   59.86 | X-H torsion
[ 10167 10162 10161 10158 ] final  160.92 input  -65.29 | X-H torsion
[ 10718 10713 10712 10709 ] final   -2.03 input   66.30 | X-H torsion
[ 10763 10752 10751 10750 ] final   13.21 input  -60.55 | X-H torsion
[ 11005 11000 10999 10996 ] final   92.03 input  -57.11 | X-H torsion

> <Gold.Protein.ActiveResidues>
 VAL166  LYS551  ARG553  GLY616  TRP617  ASP618  TYR619  PRO620  LYS621  CYS622 
 ASP623  PHE694  ASN695  SER759  ASP760  ASP761  ALA762  ILE779  LEU786  VAL792 
 PHE793  MET794  SER795  GLU796  ALA797  LYS798  CYS799  TRP800  GLU811  SER814 

> <Gold.Protein.RotatedAtoms>
  150.6870  134.2684  159.4577 H   0  0  0  0  0  0  0  0  0  0  0  0  # atno 6907 bound_to 6896
  152.0608  134.9593  160.0584 H   0  0  0  0  0  0  0  0  0  0  0  0  # atno 6908 bound_to 6896
  152.1020  133.4220  159.4628 H   0  0  0  0  0  0  0  0  0  0  0  0  # atno 6909 bound_to 6896
  145.8523  140.8343  142.9979 H   0  0  0  0  0  0  0  0  0  0  0  0  # atno 7974 bound_to 7965
  154.4388  140.1044  156.6239 H   0  0  0  0  0  0  0  0  0  0  0  0  # atno 8008 bound_to 7997
  155.5677  140.3488  155.4489 H   0  0  0  0  0  0  0  0  0  0  0  0  # atno 8009 bound_to 7997
  156.0412  140.1282  157.0142 H   0  0  0  0  0  0  0  0  0  0  0  0  # atno 8010 bound_to 7997
  139.4844  144.4587  151.8734 H   0  0  0  0  0  0  0  0  0  0  0  0  # atno 10167 bound_to 10162
  156.7968  130.5380  149.5727 H   0  0  0  0  0  0  0  0  0  0  0  0  # atno 10718 bound_to 10713
  153.1744  135.6817  153.8563 H   0  0  0  0  0  0  0  0  0  0  0  0  # atno 10763 bound_to 10752
  153.7916  135.3168  155.3380 H   0  0  0  0  0  0  0  0  0  0  0  0  # atno 10764 bound_to 10752
  154.8019  135.4772  154.0390 H   0  0  0  0  0  0  0  0  0  0  0  0  # atno 10765 bound_to 10752
  139.8829  134.8709  156.3514 H   0  0  0  0  0  0  0  0  0  0  0  0  # atno 11005 bound_to 11000
  144.6729  140.0972  143.7462 LP  0  0  0  0  0  0  0  0  0  0  0  0  # atno 17320 bound_to 7965
  145.9343  139.2627  143.1306 LP  0  0  0  0  0  0  0  0  0  0  0  0  # atno 17321 bound_to 7965
  140.4048  144.2446  150.5891 LP  0  0  0  0  0  0  0  0  0  0  0  0  # atno 17342 bound_to 10162
  140.5023  143.2314  151.8661 LP  0  0  0  0  0  0  0  0  0  0  0  0  # atno 17343 bound_to 10162
  156.1125  130.6051  151.0070 LP  0  0  0  0  0  0  0  0  0  0  0  0  # atno 17370 bound_to 10713
  157.6573  131.0887  150.7918 LP  0  0  0  0  0  0  0  0  0  0  0  0  # atno 17371 bound_to 10713
  140.9592  133.7400  156.0377 LP  0  0  0  0  0  0  0  0  0  0  0  0  # atno 17394 bound_to 11000
  140.8011  134.3508  157.5439 LP  0  0  0  0  0  0  0  0  0  0  0  0  # atno 17395 bound_to 11000

$$$$
