AV-unprocessed.smi:3274|AV-procd|sdf|12523|dock8
  -GOLD-   2272018433D 1   1.00000     0.00000
 Structure written by MMmdl.
 43 44  0  0  0  0  0  0  0  0  2 V2000
  151.3733  145.2388  159.2558 C   0  0  0  0  0  0  0  0  0  0  0  0
  151.8601  143.9608  159.9191 C   0  0  0  0  0  0  0  0  0  0  0  0
  152.2977  143.9952  161.1924 C   0  0  0  0  0  0  0  0  0  0  0  0
  152.8757  142.8081  161.9269 C   0  0  0  0  0  0  0  0  0  0  0  0
  153.3747  141.7465  160.9445 C   0  0  0  0  0  0  0  0  0  0  0  0
  152.3065  141.4116  159.8907 C   0  0  2  0  0  0  0  0  0  0  0  0
  152.8204  140.2759  158.9845 C   0  0  0  0  0  0  0  0  0  0  0  0
  151.8563  142.6661  159.0792 C   0  0  1  0  0  0  0  0  0  0  0  0
  150.4878  142.3937  158.3995 C   0  0  0  0  0  0  0  0  0  0  0  0
  150.5076  142.6559  156.9435 N   0  3  0  0  0  0  0  0  0  0  0  0
  150.4197  141.4594  156.0771 C   0  0  2  0  0  0  0  0  0  0  0  0
  149.1999  140.5936  156.4491 C   0  0  0  0  0  0  0  0  0  0  0  0
  151.7486  140.6810  156.1588 C   0  0  0  0  0  0  0  0  0  0  0  0
  151.6616  139.3484  155.5892 N   0  0  0  0  0  0  0  0  0  0  0  0
  152.0820  138.1733  156.0610 C   0  0  0  0  0  0  0  0  0  0  0  0
  151.8244  137.1512  155.2576 N   0  0  0  0  0  0  0  0  0  0  0  0
  151.1941  137.8120  154.2411 C   0  0  0  0  0  0  0  0  0  0  0  0
  151.0702  139.1311  154.3910 N   0  0  0  0  0  0  0  0  0  0  0  0
  151.8669  145.3825  158.2943 H   0  0  0  0  0  0  0  0  0  0  0  0
  151.5929  146.1120  159.8710 H   0  0  0  0  0  0  0  0  0  0  0  0
  150.2946  145.2137  159.1033 H   0  0  0  0  0  0  0  0  0  0  0  0
  152.2629  144.9198  161.7505 H   0  0  0  0  0  0  0  0  0  0  0  0
  153.6999  143.1440  162.5566 H   0  0  0  0  0  0  0  0  0  0  0  0
  152.1117  142.3990  162.5887 H   0  0  0  0  0  0  0  0  0  0  0  0
  154.2776  142.1057  160.4478 H   0  0  0  0  0  0  0  0  0  0  0  0
  153.6623  140.8508  161.4961 H   0  0  0  0  0  0  0  0  0  0  0  0
  151.4392  141.0327  160.4342 H   0  0  0  0  0  0  0  0  0  0  0  0
  153.6849  140.5961  158.4020 H   0  0  0  0  0  0  0  0  0  0  0  0
  152.0632  139.9239  158.2858 H   0  0  0  0  0  0  0  0  0  0  0  0
  153.1271  139.4134  159.5772 H   0  0  0  0  0  0  0  0  0  0  0  0
  152.6007  142.8269  158.2978 H   0  0  0  0  0  0  0  0  0  0  0  0
  150.1867  141.3583  158.5416 H   0  0  0  0  0  0  0  0  0  0  0  0
  149.7183  143.0039  158.8744 H   0  0  0  0  0  0  0  0  0  0  0  0
  149.7055  143.2352  156.7404 H   0  0  0  0  0  0  0  0  0  0  0  0
  150.3017  141.7982  155.0466 H   0  0  0  0  0  0  0  0  0  0  0  0
  149.1099  139.7270  155.7939 H   0  0  0  0  0  0  0  0  0  0  0  0
  148.2662  141.1483  156.3599 H   0  0  0  0  0  0  0  0  0  0  0  0
  149.2732  140.2269  157.4734 H   0  0  0  0  0  0  0  0  0  0  0  0
  152.5337  141.2212  155.6277 H   0  0  0  0  0  0  0  0  0  0  0  0
  152.0759  140.5994  157.1969 H   0  0  0  0  0  0  0  0  0  0  0  0
  152.5896  138.0633  157.0083 H   0  0  0  0  0  0  0  0  0  0  0  0
  150.8154  137.3062  153.3651 H   0  0  0  0  0  0  0  0  0  0  0  0
  151.3417  143.1743  156.7072 H   0  0  0  0  0  0  0  0  0  0  0  0
  1  2  1  0  0  0  0
  1 19  1  0  0  0  0
  1 20  1  0  0  0  0
  1 21  1  0  0  0  0
  2  8  1  0  0  0  0
  2  3  2  0  0  0  0
  3  4  1  0  0  0  0
  3 22  1  0  0  0  0
  4  5  1  0  0  0  0
  4 23  1  0  0  0  0
  4 24  1  0  0  0  0
  5  6  1  0  0  0  0
  5 25  1  0  0  0  0
  5 26  1  0  0  0  0
  6  7  1  0  0  0  0
  6  8  1  0  0  0  0
  6 27  1  0  0  0  0
  7 28  1  0  0  0  0
  7 29  1  0  0  0  0
  7 30  1  0  0  0  0
  8  9  1  0  0  0  0
  8 31  1  0  0  0  0
  9 10  1  0  0  0  0
  9 32  1  0  0  0  0
  9 33  1  0  0  0  0
 10 11  1  0  0  0  0
 10 34  1  0  0  0  0
 10 43  1  0  0  0  0
 11 12  1  0  0  0  0
 11 13  1  0  0  0  0
 11 35  1  0  0  0  0
 12 36  1  0  0  0  0
 12 37  1  0  0  0  0
 12 38  1  0  0  0  0
 13 14  1  0  0  0  0
 13 39  1  0  0  0  0
 13 40  1  0  0  0  0
 14 18  1  0  0  0  0
 14 15  1  0  0  0  0
 15 16  2  0  0  0  0
 15 41  1  0  0  0  0
 16 17  1  0  0  0  0
 17 18  2  0  0  0  0
 17 42  1  0  0  0  0
M  CHG  1  10   1
M  END
> <s_m_source_file>
AV-unprocessed.smi

> <i_m_source_file_index>
3274

> <i_lp_mmshare_version>
43012

> <i_f3d_flags>
0

> <s_epik_input>
W0NIM11DMT1bQ0hdW0NIMl1bQ0gyXVtDQEBIXShbQ0gzXSlbQ0BIXTFbQ0gyXVtOSF1bQ0BIXShbQ0gzXSlbQ0gyXW4yW2NIXW5bY0hdbjI=

> <s_epik_cmdline>
J2VwaWtfcHl0aG9uJywgJy1waCcsICc3LjAnLCAnLXRuJywgJzgnLCAnLW1hJywgJzIwMCcsICctbWV0YWxfYmluZGluZycsICctaW1hZScsICc8aW5maWxlLm1hZT4nLCAnLW9tYWUnLCAnPG91dGZpbGUubWFlPic=

> <r_lp_tautomer_probability>
1

> <r_epik_Ionization_Penalty>
0.0017527

> <r_epik_Ionization_Penalty_Charging>
0.00175191

> <r_epik_Ionization_Penalty_Neutral>
7.94565e-07

> <r_epik_State_Penalty>
0.00118605

> <r_epik_Charging_Adjusted_Penalty>
0.00293796

> <i_epik_Tot_Q>
1

> <i_epik_Tot_abs_Q>
1

> <r_epik_Metal_State_Penalty>
-0

> <b_epik_Metal_Only>
0

> <s_lp_Force_Field>
OPLS_2005

> <r_lp_Energy>
18.9317

> <b_lp_Chiralities_Consistent>
1

> <s_lp_Variant>
AV-unprocessed.smi:3274-2

> <Gold.Version>
5.8.1

> <Gold.Id.Protein>
6NUR|6NUR_protein|mol2

> <Gold.PLP.Fitness>
56.9657

> <Gold.PLP.PLP>
-44.3963

> <Gold.PLP.part.hbond>
-3.0000

> <Gold.PLP.part.metal>
0.0000

> <Gold.PLP.part.buried>
-5.9231

> <Gold.PLP.part.nonpolar>
-35.9744

> <Gold.PLP.part.repulsive>
0.2563

> <Gold.PLP.ligand.clash>
0.0000

> <Gold.PLP.ligand.torsion>
1.3603

> <Gold.PLP.Chemscore.Hbond>
3.9600

> <Gold.PLP.Chemscore.CHOScore>
1.1178

> <Gold.PLP.Chemscore.Metal>
0.0000

> <Gold.Chemscore.Hbonds>
donor molecule, donor type, donor heavy atom, donor atom, acceptor molecule, acceptor atom, score
      L1  H    10    34       P1  8028  1.95
      P1  H  7989  7998       L1    18  0.90
      P1  H 10752 10763       L1    16  0.99
      L1  C    17    42       P1  7948  0.26
      L1  C    17    42       P1  7949  0.84

> <Gold.PLP.Chemscore.Internal.Correction>
0.0565

> <Gold.Rescore>
     Score         DG    S(hbond)    S(metal)    S(lipo)     H(rot)  DE(clash)    DE(int)     intcor
     17.20     -18.82       1.90        0.00     111.46       2.36       0.21       1.41       ----

> <Gold.Chemscore.Fitness>
17.1986

> <Gold.Chemscore.DG>
-18.8192

> <Gold.Chemscore.ZeroCoef>
-5.4800

> <Gold.Chemscore.Hbond>
1.8992

> <Gold.Chemscore.Metal>
0.0000

> <Gold.Chemscore.Lipo>
111.4646

> <Gold.Chemscore.Internal_Hbond>
0.0000

> <Gold.Chemscore.DEClash>
0.2087

> <Gold.Chemscore.DEInternal>
1.4119

> <Gold.Chemscore.Rot>
2.3615

> <Gold.Chemscore.Internal.Correction>
   9.000000E+99

> <Gold.Chemscore.Hbonds>
donor molecule, donor type, donor heavy atom, donor atom, acceptor molecule, acceptor atom, score
      L1  H    10    34       P1  8028  0.89
      P1  H  7989  7998       L1    18  0.17
      P1  H 10752 10763       L1    16  0.69

> <Gold.Chemscore.Hbond.Weighted>
-6.3433

> <Gold.Chemscore.Metal.Weighted>
-0.0000

> <Gold.Chemscore.Lipo.Weighted>
-13.0414

> <Gold.Chemscore.Internal_Hbond.Weighted>
0.0000

> <Gold.Chemscore.DEClash.Weighted>
0.2087

> <Gold.Chemscore.DEInternal.Weighted>
1.4119

> <Gold.Chemscore.Rot.Weighted>
6.0454

> <Gold.Chemscore.Internal.Correction.Weighted>
   9.000000E+99

> <Gold.Protein.RotatedTorsions>
[ 6907 6896 6895 6894 ] final   98.15 input  -60.11 | X-H torsion
[ 7974 7965 7964 7962 ] final   58.24 input  175.53 | X-H torsion
[ 8008 7997 7996 7995 ] final  119.43 input   59.86 | X-H torsion
[ 10167 10162 10161 10158 ] final  -90.23 input  -65.29 | X-H torsion
[ 10718 10713 10712 10709 ] final  -93.03 input   66.30 | X-H torsion
[ 10763 10752 10751 10750 ] final   57.16 input  -60.55 | X-H torsion
[ 11005 11000 10999 10996 ] final  -68.82 input  -57.11 | X-H torsion

> <Gold.Protein.ActiveResidues>
 VAL166  LYS551  ARG553  GLY616  TRP617  ASP618  TYR619  PRO620  LYS621  CYS622 
 ASP623  PHE694  ASN695  SER759  ASP760  ASP761  ALA762  ILE779  LEU786  VAL792 
 PHE793  MET794  SER795  GLU796  ALA797  LYS798  CYS799  TRP800  GLU811  SER814 

> <Gold.Protein.RotatedAtoms>
  152.5413  134.0625  159.8157 H   0  0  0  0  0  0  0  0  0  0  0  0  # atno 6907 bound_to 6896
  151.0750  133.5428  159.2631 H   0  0  0  0  0  0  0  0  0  0  0  0  # atno 6908 bound_to 6896
  151.2276  135.0550  159.9029 H   0  0  0  0  0  0  0  0  0  0  0  0  # atno 6909 bound_to 6896
  145.9203  139.3724  143.0482 H   0  0  0  0  0  0  0  0  0  0  0  0  # atno 7974 bound_to 7965
  156.2595  140.2853  156.0991 H   0  0  0  0  0  0  0  0  0  0  0  0  # atno 8008 bound_to 7997
  155.1379  140.0395  157.2809 H   0  0  0  0  0  0  0  0  0  0  0  0  # atno 8009 bound_to 7997
  154.6551  140.2553  155.7177 H   0  0  0  0  0  0  0  0  0  0  0  0  # atno 8010 bound_to 7997
  140.3569  143.2862  151.9660 H   0  0  0  0  0  0  0  0  0  0  0  0  # atno 10167 bound_to 10162
  156.0008  130.5010  150.5714 H   0  0  0  0  0  0  0  0  0  0  0  0  # atno 10718 bound_to 10713
  152.9845  135.5651  154.5345 H   0  0  0  0  0  0  0  0  0  0  0  0  # atno 10763 bound_to 10752
  154.4811  135.2788  155.1572 H   0  0  0  0  0  0  0  0  0  0  0  0  # atno 10764 bound_to 10752
  154.3080  135.6294  153.5506 H   0  0  0  0  0  0  0  0  0  0  0  0  # atno 10765 bound_to 10752
  141.1540  133.6749  156.6504 H   0  0  0  0  0  0  0  0  0  0  0  0  # atno 11005 bound_to 11000
  145.8558  140.9503  143.0726 LP  0  0  0  0  0  0  0  0  0  0  0  0  # atno 17320 bound_to 7965
  144.6752  140.0466  143.7480 LP  0  0  0  0  0  0  0  0  0  0  0  0  # atno 17321 bound_to 7965
  139.4819  144.6027  151.7577 LP  0  0  0  0  0  0  0  0  0  0  0  0  # atno 17342 bound_to 10162
  140.5164  144.0946  150.6010 LP  0  0  0  0  0  0  0  0  0  0  0  0  # atno 17343 bound_to 10162
  157.3609  131.0749  151.1637 LP  0  0  0  0  0  0  0  0  0  0  0  0  # atno 17370 bound_to 10713
  157.2423  130.6575  149.5895 LP  0  0  0  0  0  0  0  0  0  0  0  0  # atno 17371 bound_to 10713
  140.3325  134.7917  157.4337 LP  0  0  0  0  0  0  0  0  0  0  0  0  # atno 17394 bound_to 11000
  140.1005  134.5479  155.8357 LP  0  0  0  0  0  0  0  0  0  0  0  0  # atno 17395 bound_to 11000

$$$$
