AV-unprocessed.smi:2224|AV-procd|sdf|8991|dock9
  -GOLD-   2272012203D 1   1.00000     0.00000
 Structure written by MMmdl.
 44 46  0  0  0  0  0  0  0  0  1 V2000
  152.8961  143.1797  162.6100 C   0  0  0  0  0  0  0  0  0  0  0  0
  153.1693  142.2625  161.4366 C   0  0  0  0  0  0  0  0  0  0  0  0
  154.2658  141.3792  161.4470 C   0  0  0  0  0  0  0  0  0  0  0  0
  154.4649  140.5538  160.3228 C   0  0  0  0  0  0  0  0  0  0  0  0
  155.6214  139.5776  160.2673 C   0  0  0  0  0  0  0  0  0  0  0  0
  153.6560  140.5730  159.2417 N   0  0  0  0  0  0  0  0  0  0  0  0
  152.5980  141.4211  159.2205 C   0  0  0  0  0  0  0  0  0  0  0  0
  151.6886  141.5199  158.1345 N   0  0  0  0  0  0  0  0  0  0  0  0
  151.6309  140.7612  157.0261 C   0  0  0  0  0  0  0  0  0  0  0  0
  152.3871  139.8265  156.7598 O   0  0  0  0  0  0  0  0  0  0  0  0
  150.6344  141.1563  156.2224 N   0  0  0  0  0  0  0  0  0  0  0  0
  150.3221  140.5520  154.9327 C   0  0  2  0  0  0  0  0  0  0  0  0
  148.8167  140.4708  154.6780 C   0  0  1  0  0  0  0  0  0  0  0  0
  147.8826  141.1139  153.7161 C   0  0  0  0  0  0  0  0  0  0  0  0
  147.1076  139.8388  153.2879 C   0  0  0  0  0  0  0  0  0  0  0  0
  147.8542  138.7199  153.8263 O   0  0  0  0  0  0  0  0  0  0  0  0
  149.1762  139.2104  153.9161 C   0  0  2  0  0  0  0  0  0  0  0  0
  150.2890  138.9769  154.9579 C   0  0  0  0  0  0  0  0  0  0  0  0
  151.5453  138.2883  154.4237 C   0  0  0  0  0  0  0  0  0  0  0  0
  149.9120  138.2412  156.2601 C   0  0  0  0  0  0  0  0  0  0  0  0
  152.3246  142.2798  160.3087 C   0  0  0  0  0  0  0  0  0  0  0  0
  153.6661  143.0851  163.3763 H   0  0  0  0  0  0  0  0  0  0  0  0
  151.9335  142.9384  163.0611 H   0  0  0  0  0  0  0  0  0  0  0  0
  152.8703  144.2186  162.2798 H   0  0  0  0  0  0  0  0  0  0  0  0
  154.9358  141.3355  162.2934 H   0  0  0  0  0  0  0  0  0  0  0  0
  156.2720  139.6845  161.1358 H   0  0  0  0  0  0  0  0  0  0  0  0
  156.2197  139.7471  159.3716 H   0  0  0  0  0  0  0  0  0  0  0  0
  155.2492  138.5532  160.2440 H   0  0  0  0  0  0  0  0  0  0  0  0
  151.0114  142.2646  158.2031 H   0  0  0  0  0  0  0  0  0  0  0  0
  150.0580  141.9308  156.5168 H   0  0  0  0  0  0  0  0  0  0  0  0
  150.8778  140.9776  154.0919 H   0  0  0  0  0  0  0  0  0  0  0  0
  148.2848  140.2700  155.6109 H   0  0  0  0  0  0  0  0  0  0  0  0
  147.2377  141.8586  154.1837 H   0  0  0  0  0  0  0  0  0  0  0  0
  148.4101  141.5730  152.8787 H   0  0  0  0  0  0  0  0  0  0  0  0
  146.0928  139.8254  153.6865 H   0  0  0  0  0  0  0  0  0  0  0  0
  147.0456  139.7685  152.2011 H   0  0  0  0  0  0  0  0  0  0  0  0
  149.5855  139.3994  152.9169 H   0  0  0  0  0  0  0  0  0  0  0  0
  151.3587  137.2393  154.1916 H   0  0  0  0  0  0  0  0  0  0  0  0
  152.3625  138.3270  155.1447 H   0  0  0  0  0  0  0  0  0  0  0  0
  151.9034  138.7620  153.5090 H   0  0  0  0  0  0  0  0  0  0  0  0
  149.7092  137.1869  156.0698 H   0  0  0  0  0  0  0  0  0  0  0  0
  149.0280  138.6428  156.7516 H   0  0  0  0  0  0  0  0  0  0  0  0
  150.7220  138.2865  156.9888 H   0  0  0  0  0  0  0  0  0  0  0  0
  151.4775  142.9502  160.2803 H   0  0  0  0  0  0  0  0  0  0  0  0
  1  2  1  0  0  0  0
  1 22  1  0  0  0  0
  1 23  1  0  0  0  0
  1 24  1  0  0  0  0
  2 21  1  0  0  0  0
  2  3  2  0  0  0  0
  3  4  1  0  0  0  0
  3 25  1  0  0  0  0
  4  5  1  0  0  0  0
  4  6  2  0  0  0  0
  5 26  1  0  0  0  0
  5 27  1  0  0  0  0
  5 28  1  0  0  0  0
  6  7  1  0  0  0  0
  7  8  1  0  0  0  0
  7 21  2  0  0  0  0
  8  9  1  0  0  0  0
  8 29  1  0  0  0  0
  9 10  2  0  0  0  0
  9 11  1  0  0  0  0
 11 12  1  0  0  0  0
 11 30  1  0  0  0  0
 12 18  1  0  0  0  0
 12 13  1  0  0  0  0
 12 31  1  0  0  0  0
 13 17  1  0  0  0  0
 13 14  1  0  0  0  0
 13 32  1  0  0  0  0
 14 15  1  0  0  0  0
 14 33  1  0  0  0  0
 14 34  1  0  0  0  0
 15 16  1  0  0  0  0
 15 35  1  0  0  0  0
 15 36  1  0  0  0  0
 16 17  1  0  0  0  0
 17 18  1  0  0  0  0
 17 37  1  0  0  0  0
 18 19  1  0  0  0  0
 18 20  1  0  0  0  0
 19 38  1  0  0  0  0
 19 39  1  0  0  0  0
 19 40  1  0  0  0  0
 20 41  1  0  0  0  0
 20 42  1  0  0  0  0
 20 43  1  0  0  0  0
 21 44  1  0  0  0  0
M  END
> <s_m_source_file>
AV-unprocessed.smi

> <i_m_source_file_index>
2224

> <i_lp_mmshare_version>
43012

> <i_f3d_flags>
0

> <s_epik_input>
W0NIM11jMVtjSF1jKFtDSDNdKW5jKFtjSF0xKVtOSF1DKD1PKVtOSF1bQ0BIXTJDKFtDSDNdKShbQ0gzXSlbQ0BIXShbQ0BASF0yMylPW0NIMl1bQ0gyXTM=

> <s_epik_cmdline>
J2VwaWtfcHl0aG9uJywgJy1waCcsICc3LjAnLCAnLXRuJywgJzgnLCAnLW1hJywgJzIwMCcsICctbWV0YWxfYmluZGluZycsICctaW1hZScsICc8aW5maWxlLm1hZT4nLCAnLW9tYWUnLCAnPG91dGZpbGUubWFlPic=

> <r_lp_tautomer_probability>
1

> <r_epik_Ionization_Penalty>
0.000276544

> <r_epik_Ionization_Penalty_Charging>
0

> <r_epik_Ionization_Penalty_Neutral>
0.000276544

> <r_epik_State_Penalty>
-0

> <r_epik_Charging_Adjusted_Penalty>
0

> <i_epik_Tot_Q>
0

> <i_epik_Tot_abs_Q>
0

> <r_epik_Metal_State_Penalty>
-0

> <b_epik_Metal_Only>
0

> <s_lp_Force_Field>
OPLS_2005

> <r_lp_Energy>
62.2425

> <b_lp_Chiralities_Consistent>
1

> <s_lp_Variant>
AV-unprocessed.smi:2224-1

> <Gold.Version>
5.8.1

> <Gold.Id.Protein>
6NUR|6NUR_protein|mol2

> <Gold.PLP.Fitness>
42.2766

> <Gold.PLP.PLP>
-39.4998

> <Gold.PLP.part.hbond>
-1.3667

> <Gold.PLP.part.metal>
0.0000

> <Gold.PLP.part.buried>
-0.1962

> <Gold.PLP.part.nonpolar>
-38.4788

> <Gold.PLP.part.repulsive>
0.3569

> <Gold.PLP.ligand.clash>
0.0000

> <Gold.PLP.ligand.torsion>
0.2448

> <Gold.PLP.Chemscore.Hbond>
1.0000

> <Gold.PLP.Chemscore.CHOScore>
0.0000

> <Gold.PLP.Chemscore.Metal>
0.0000

> <Gold.Chemscore.Hbonds>
donor molecule, donor type, donor heavy atom, donor atom, acceptor molecule, acceptor atom, score
      P1  H  7997  8010       L1    10  1.00

> <Gold.PLP.Chemscore.Internal.Correction>
0.2664

> <Gold.Rescore>
     Score         DG    S(hbond)    S(metal)    S(lipo)     H(rot)  DE(clash)    DE(int)     intcor
     14.00     -19.20       0.96        0.00     111.60       1.00       1.49       3.72       ----

> <Gold.Chemscore.Fitness>
13.9970

> <Gold.Chemscore.DG>
-19.2003

> <Gold.Chemscore.ZeroCoef>
-5.4800

> <Gold.Chemscore.Hbond>
0.9650

> <Gold.Chemscore.Metal>
0.0000

> <Gold.Chemscore.Lipo>
111.6010

> <Gold.Chemscore.Internal_Hbond>
0.0000

> <Gold.Chemscore.DEClash>
1.4860

> <Gold.Chemscore.DEInternal>
3.7174

> <Gold.Chemscore.Rot>
1.0000

> <Gold.Chemscore.Internal.Correction>
   9.000000E+99

> <Gold.Chemscore.Hbonds>
donor molecule, donor type, donor heavy atom, donor atom, acceptor molecule, acceptor atom, score
      P1  H  7997  8010       L1    10  0.95

> <Gold.Chemscore.Hbond.Weighted>
-3.2230

> <Gold.Chemscore.Metal.Weighted>
-0.0000

> <Gold.Chemscore.Lipo.Weighted>
-13.0573

> <Gold.Chemscore.Internal_Hbond.Weighted>
0.0000

> <Gold.Chemscore.DEClash.Weighted>
1.4860

> <Gold.Chemscore.DEInternal.Weighted>
3.7174

> <Gold.Chemscore.Rot.Weighted>
2.5600

> <Gold.Chemscore.Internal.Correction.Weighted>
   9.000000E+99

> <Gold.Protein.RotatedTorsions>
[ 6907 6896 6895 6894 ] final -138.25 input  -60.11 | X-H torsion
[ 7974 7965 7964 7962 ] final  111.92 input  175.53 | X-H torsion
[ 8008 7997 7996 7995 ] final   72.56 input   59.86 | X-H torsion
[ 10167 10162 10161 10158 ] final -105.53 input  -65.29 | X-H torsion
[ 10718 10713 10712 10709 ] final  -63.82 input   66.30 | X-H torsion
[ 10763 10752 10751 10750 ] final  -92.37 input  -60.55 | X-H torsion
[ 11005 11000 10999 10996 ] final   29.84 input  -57.11 | X-H torsion

> <Gold.Protein.ActiveResidues>
 VAL166  LYS551  ARG553  GLY616  TRP617  ASP618  TYR619  PRO620  LYS621  CYS622 
 ASP623  PHE694  ASN695  SER759  ASP760  ASP761  ALA762  ILE779  LEU786  VAL792 
 PHE793  MET794  SER795  GLU796  ALA797  LYS798  CYS799  TRP800  GLU811  SER814 

> <Gold.Protein.RotatedAtoms>
  151.0326  133.5776  159.2658 H   0  0  0  0  0  0  0  0  0  0  0  0  # atno 6907 bound_to 6896
  151.2852  135.0725  159.9194 H   0  0  0  0  0  0  0  0  0  0  0  0  # atno 6908 bound_to 6896
  152.5348  134.0034  159.7959 H   0  0  0  0  0  0  0  0  0  0  0  0  # atno 6909 bound_to 6896
  145.2362  139.2798  143.4142 H   0  0  0  0  0  0  0  0  0  0  0  0  # atno 7974 bound_to 7965
  155.7707  140.3484  155.5245 H   0  0  0  0  0  0  0  0  0  0  0  0  # atno 8008 bound_to 7997
  155.8825  140.1004  157.1496 H   0  0  0  0  0  0  0  0  0  0  0  0  # atno 8009 bound_to 7997
  154.4026  140.1320  156.4201 H   0  0  0  0  0  0  0  0  0  0  0  0  # atno 8010 bound_to 7997
  140.1975  143.3844  152.1156 H   0  0  0  0  0  0  0  0  0  0  0  0  # atno 10167 bound_to 10162
  156.0767  130.4225  150.1331 H   0  0  0  0  0  0  0  0  0  0  0  0  # atno 10718 bound_to 10713
  154.6854  135.5234  153.8319 H   0  0  0  0  0  0  0  0  0  0  0  0  # atno 10763 bound_to 10752
  153.0594  135.6562  154.0509 H   0  0  0  0  0  0  0  0  0  0  0  0  # atno 10764 bound_to 10752
  154.0390  135.2979  155.3337 H   0  0  0  0  0  0  0  0  0  0  0  0  # atno 10765 bound_to 10752
  140.3007  134.2760  155.7754 H   0  0  0  0  0  0  0  0  0  0  0  0  # atno 11005 bound_to 11000
  146.3340  140.2711  142.8606 LP  0  0  0  0  0  0  0  0  0  0  0  0  # atno 17320 bound_to 7965
  144.9631  140.8295  143.5501 LP  0  0  0  0  0  0  0  0  0  0  0  0  # atno 17321 bound_to 7965
  139.5230  144.7066  151.5334 LP  0  0  0  0  0  0  0  0  0  0  0  0  # atno 17342 bound_to 10162
  140.6413  143.8883  150.6694 LP  0  0  0  0  0  0  0  0  0  0  0  0  # atno 17343 bound_to 10162
  156.9371  130.9732  151.3523 LP  0  0  0  0  0  0  0  0  0  0  0  0  # atno 17370 bound_to 10713
  157.5866  130.8414  149.8598 LP  0  0  0  0  0  0  0  0  0  0  0  0  # atno 17371 bound_to 10713
  141.2128  133.7644  156.9762 LP  0  0  0  0  0  0  0  0  0  0  0  0  # atno 17394 bound_to 11000
  140.1112  134.9475  157.2068 LP  0  0  0  0  0  0  0  0  0  0  0  0  # atno 17395 bound_to 11000

$$$$
