AV-unprocessed.smi:2191|AV-procd|sdf|8894|dock1
  -GOLD-   2272012103D 1   1.00000     0.00000
 Structure written by MMmdl.
 37 39  0  0  0  0  0  0  0  0  2 V2000
  151.8174  139.9558  154.9967 O   0  0  0  0  0  0  0  0  0  0  0  0
  150.5694  140.6090  154.8712 C   0  0  2  0  0  0  0  0  0  0  0  0
  150.5022  141.7348  155.9156 C   0  0  0  0  0  0  0  0  0  0  0  0
  151.1875  141.3143  157.0880 O   0  0  0  0  0  0  0  0  0  0  0  0
  151.5668  142.2734  158.0026 C   0  0  0  0  0  0  0  0  0  0  0  0
  152.2448  141.8252  159.1554 C   0  0  0  0  0  0  0  0  0  0  0  0
  152.6707  142.7357  160.1417 C   0  0  0  0  0  0  0  0  0  0  0  0
  152.4191  144.1111  159.9846 C   0  0  0  0  0  0  0  0  0  0  0  0
  151.7420  144.5724  158.8404 C   0  0  0  0  0  0  0  0  0  0  0  0
  151.3179  143.6617  157.8531 C   0  0  0  0  0  0  0  0  0  0  0  0
  149.4346  139.5826  155.0593 C   0  0  0  0  0  0  0  0  0  0  0  0
  148.1054  140.1434  154.7743 N   0  0  0  0  0  0  0  0  0  0  0  0
  147.3580  140.0657  153.6401 C   0  0  0  0  0  0  0  0  0  0  0  0
  146.1980  140.7427  153.8638 N   0  3  0  0  0  0  0  0  0  0  0  0
  146.2029  141.2606  155.1605 C   0  0  0  0  0  0  0  0  0  0  0  0
  145.2528  142.0141  155.8433 C   0  0  0  0  0  0  0  0  0  0  0  0
  145.5687  142.3811  157.1678 C   0  0  0  0  0  0  0  0  0  0  0  0
  146.7877  141.9996  157.7647 C   0  0  0  0  0  0  0  0  0  0  0  0
  147.7437  141.2362  157.0630 C   0  0  0  0  0  0  0  0  0  0  0  0
  147.4254  140.8784  155.7529 C   0  0  0  0  0  0  0  0  0  0  0  0
  152.4937  140.6144  155.0507 H   0  0  0  0  0  0  0  0  0  0  0  0
  150.4951  141.0342  153.8693 H   0  0  0  0  0  0  0  0  0  0  0  0
  151.0050  142.6211  155.5247 H   0  0  0  0  0  0  0  0  0  0  0  0
  149.4659  142.0056  156.1265 H   0  0  0  0  0  0  0  0  0  0  0  0
  152.4421  140.7710  159.2841 H   0  0  0  0  0  0  0  0  0  0  0  0
  153.1903  142.3782  161.0185 H   0  0  0  0  0  0  0  0  0  0  0  0
  152.7448  144.8110  160.7400 H   0  0  0  0  0  0  0  0  0  0  0  0
  151.5477  145.6279  158.7186 H   0  0  0  0  0  0  0  0  0  0  0  0
  150.8023  144.0546  156.9903 H   0  0  0  0  0  0  0  0  0  0  0  0
  149.5960  138.6959  154.4462 H   0  0  0  0  0  0  0  0  0  0  0  0
  149.4170  139.2371  156.0936 H   0  0  0  0  0  0  0  0  0  0  0  0
  147.6345  139.5574  152.7277 H   0  0  0  0  0  0  0  0  0  0  0  0
  144.3174  142.3067  155.3892 H   0  0  0  0  0  0  0  0  0  0  0  0
  144.8612  142.9656  157.7381 H   0  0  0  0  0  0  0  0  0  0  0  0
  146.9938  142.2973  158.7824 H   0  0  0  0  0  0  0  0  0  0  0  0
  148.6709  140.9450  157.5339 H   0  0  0  0  0  0  0  0  0  0  0  0
  145.4584  140.8407  153.1800 H   0  0  0  0  0  0  0  0  0  0  0  0
  1  2  1  0  0  0  0
  1 21  1  0  0  0  0
  2  3  1  0  0  0  0
  2 11  1  0  0  0  0
  2 22  1  0  0  0  0
  3  4  1  0  0  0  0
  3 23  1  0  0  0  0
  3 24  1  0  0  0  0
  4  5  1  0  0  0  0
  5 10  1  0  0  0  0
  5  6  2  0  0  0  0
  6  7  1  0  0  0  0
  6 25  1  0  0  0  0
  7  8  2  0  0  0  0
  7 26  1  0  0  0  0
  8  9  1  0  0  0  0
  8 27  1  0  0  0  0
  9 10  2  0  0  0  0
  9 28  1  0  0  0  0
 10 29  1  0  0  0  0
 11 12  1  0  0  0  0
 11 30  1  0  0  0  0
 11 31  1  0  0  0  0
 12 20  1  0  0  0  0
 12 13  1  0  0  0  0
 13 14  2  0  0  0  0
 13 32  1  0  0  0  0
 14 15  1  0  0  0  0
 14 37  1  0  0  0  0
 15 20  2  0  0  0  0
 15 16  1  0  0  0  0
 16 17  2  0  0  0  0
 16 33  1  0  0  0  0
 17 18  1  0  0  0  0
 17 34  1  0  0  0  0
 18 19  2  0  0  0  0
 18 35  1  0  0  0  0
 19 20  1  0  0  0  0
 19 36  1  0  0  0  0
M  CHG  1  14   1
M  END
> <s_m_source_file>
AV-unprocessed.smi

> <i_m_source_file_index>
2191

> <i_lp_mmshare_version>
43012

> <i_f3d_flags>
0

> <s_epik_input>
W2NIXTFbY0hdW2NIXVtjSF1jKGMxMiluKFtjSF1uMilbQ0gyXVtDQEhdKFtPSF0pW0NIMl1PYzNbY0hdW2NIXVtjSF1bY0hdW2NIXTM=

> <s_epik_cmdline>
J2VwaWtfcHl0aG9uJywgJy1waCcsICc3LjAnLCAnLXRuJywgJzgnLCAnLW1hJywgJzIwMCcsICctbWV0YWxfYmluZGluZycsICctaW1hZScsICc8aW5maWxlLm1hZT4nLCAnLW9tYWUnLCAnPG91dGZpbGUubWFlPic=

> <r_lp_tautomer_probability>
1

> <r_epik_Ionization_Penalty>
1.35015

> <r_epik_Ionization_Penalty_Charging>
1.35015

> <r_epik_Ionization_Penalty_Neutral>
2.3993e-06

> <r_epik_State_Penalty>
1.42814

> <r_epik_Charging_Adjusted_Penalty>
2.77829

> <i_epik_Tot_Q>
1

> <i_epik_Tot_abs_Q>
1

> <r_epik_Metal_State_Penalty>
5.46522

> <b_epik_Metal_Only>
0

> <s_lp_Force_Field>
OPLS_2005

> <r_lp_Energy>
21.7284

> <b_lp_Chiralities_Consistent>
1

> <s_lp_Variant>
AV-unprocessed.smi:2191-3

> <Gold.Version>
5.8.1

> <Gold.Id.Protein>
6NUR|6NUR_protein|mol2

> <Gold.PLP.Fitness>
44.5753

> <Gold.PLP.PLP>
-37.1449

> <Gold.PLP.part.hbond>
-2.0000

> <Gold.PLP.part.metal>
0.0000

> <Gold.PLP.part.buried>
-3.7825

> <Gold.PLP.part.nonpolar>
-31.7038

> <Gold.PLP.part.repulsive>
0.0348

> <Gold.PLP.ligand.clash>
0.0000

> <Gold.PLP.ligand.torsion>
0.7067

> <Gold.PLP.Chemscore.Hbond>
1.9840

> <Gold.PLP.Chemscore.CHOScore>
0.9438

> <Gold.PLP.Chemscore.Metal>
0.0000

> <Gold.Chemscore.Hbonds>
donor molecule, donor type, donor heavy atom, donor atom, acceptor molecule, acceptor atom, score
      L1  H    14    37       P1 10175  2.00
      L1  C    13    32       P1  7957  0.94

> <Gold.PLP.Chemscore.Internal.Correction>
0.0604

> <Gold.Rescore>
     Score         DG    S(hbond)    S(metal)    S(lipo)     H(rot)  DE(clash)    DE(int)     intcor
     13.96     -14.78       0.96        0.00     102.51       2.31       0.04       0.78       ----

> <Gold.Chemscore.Fitness>
13.9643

> <Gold.Chemscore.DG>
-14.7769

> <Gold.Chemscore.ZeroCoef>
-5.4800

> <Gold.Chemscore.Hbond>
0.9597

> <Gold.Chemscore.Metal>
0.0000

> <Gold.Chemscore.Lipo>
102.5055

> <Gold.Chemscore.Internal_Hbond>
0.0000

> <Gold.Chemscore.DEClash>
0.0368

> <Gold.Chemscore.DEInternal>
0.7757

> <Gold.Chemscore.Rot>
2.3053

> <Gold.Chemscore.Internal.Correction>
   9.000000E+99

> <Gold.Chemscore.Hbonds>
donor molecule, donor type, donor heavy atom, donor atom, acceptor molecule, acceptor atom, score
      L1  H    14    37       P1 10175  0.58

> <Gold.Chemscore.Hbond.Weighted>
-3.2053

> <Gold.Chemscore.Metal.Weighted>
-0.0000

> <Gold.Chemscore.Lipo.Weighted>
-11.9931

> <Gold.Chemscore.Internal_Hbond.Weighted>
0.0000

> <Gold.Chemscore.DEClash.Weighted>
0.0368

> <Gold.Chemscore.DEInternal.Weighted>
0.7757

> <Gold.Chemscore.Rot.Weighted>
5.9015

> <Gold.Chemscore.Internal.Correction.Weighted>
   9.000000E+99

> <Gold.Protein.RotatedTorsions>
[ 6907 6896 6895 6894 ] final -163.17 input  -60.11 | X-H torsion
[ 7974 7965 7964 7962 ] final   80.44 input  175.53 | X-H torsion
[ 8008 7997 7996 7995 ] final  126.10 input   59.86 | X-H torsion
[ 10167 10162 10161 10158 ] final   75.44 input  -65.29 | X-H torsion
[ 10718 10713 10712 10709 ] final -101.75 input   66.30 | X-H torsion
[ 10763 10752 10751 10750 ] final  107.13 input  -60.55 | X-H torsion
[ 11005 11000 10999 10996 ] final -164.43 input  -57.11 | X-H torsion

> <Gold.Protein.ActiveResidues>
 VAL166  LYS551  ARG553  GLY616  TRP617  ASP618  TYR619  PRO620  LYS621  CYS622 
 ASP623  PHE694  ASN695  SER759  ASP760  ASP761  ALA762  ILE779  LEU786  VAL792 
 PHE793  MET794  SER795  GLU796  ALA797  LYS798  CYS799  TRP800  GLU811  SER814 

> <Gold.Protein.RotatedAtoms>
  151.3918  133.3786  159.2721 H   0  0  0  0  0  0  0  0  0  0  0  0  # atno 6907 bound_to 6896
  150.9499  134.8901  159.7676 H   0  0  0  0  0  0  0  0  0  0  0  0  # atno 6908 bound_to 6896
  152.5107  134.3873  159.9424 H   0  0  0  0  0  0  0  0  0  0  0  0  # atno 6909 bound_to 6896
  145.6511  139.2448  143.1976 H   0  0  0  0  0  0  0  0  0  0  0  0  # atno 7974 bound_to 7965
  156.2854  140.2700  156.2057 H   0  0  0  0  0  0  0  0  0  0  0  0  # atno 8008 bound_to 7997
  155.0316  140.0386  157.2494 H   0  0  0  0  0  0  0  0  0  0  0  0  # atno 8009 bound_to 7997
  154.7350  140.2714  155.6428 H   0  0  0  0  0  0  0  0  0  0  0  0  # atno 8010 bound_to 7997
  140.0029  144.5672  150.7722 H   0  0  0  0  0  0  0  0  0  0  0  0  # atno 10167 bound_to 10162
  156.0205  130.5388  150.7008 H   0  0  0  0  0  0  0  0  0  0  0  0  # atno 10718 bound_to 10713
  153.4024  135.3854  155.1997 H   0  0  0  0  0  0  0  0  0  0  0  0  # atno 10763 bound_to 10752
  154.8730  135.3774  154.4602 H   0  0  0  0  0  0  0  0  0  0  0  0  # atno 10764 bound_to 10752
  153.5100  135.7087  153.5848 H   0  0  0  0  0  0  0  0  0  0  0  0  # atno 10765 bound_to 10752
  140.5870  134.5083  157.5187 H   0  0  0  0  0  0  0  0  0  0  0  0  # atno 11005 bound_to 11000
  146.1202  140.7318  142.9461 LP  0  0  0  0  0  0  0  0  0  0  0  0  # atno 17320 bound_to 7965
  144.7122  140.4081  143.7072 LP  0  0  0  0  0  0  0  0  0  0  0  0  # atno 17321 bound_to 7965
  140.7412  143.2814  151.3587 LP  0  0  0  0  0  0  0  0  0  0  0  0  # atno 17342 bound_to 10162
  139.6259  144.0816  152.2433 LP  0  0  0  0  0  0  0  0  0  0  0  0  # atno 17343 bound_to 10162
  157.4669  131.0889  151.0685 LP  0  0  0  0  0  0  0  0  0  0  0  0  # atno 17370 bound_to 10713
  157.1157  130.6040  149.5492 LP  0  0  0  0  0  0  0  0  0  0  0  0  # atno 17371 bound_to 10713
  139.9291  134.7998  156.0982 LP  0  0  0  0  0  0  0  0  0  0  0  0  # atno 17394 bound_to 11000
  141.0959  133.6696  156.2645 LP  0  0  0  0  0  0  0  0  0  0  0  0  # atno 17395 bound_to 11000

$$$$
