AV-unprocessed.smi:1712|AV-procd|sdf|6904|dock8
  -GOLD-   22720 8113D 1   1.00000     0.00000
 Structure written by MMmdl.
 38 39  0  0  0  0  0  0  0  0  2 V2000
  148.1861  138.9154  153.7504 C   0  0  0  0  0  0  0  0  0  0  0  0
  146.8863  139.3667  153.0387 C   0  0  1  0  0  0  0  0  0  0  0  0
  145.8297  138.2299  153.0476 C   0  0  0  0  0  0  0  0  0  0  0  0
  146.2996  137.0032  152.4073 N   0  0  0  0  0  0  0  0  0  0  0  0
  145.5174  135.9989  151.9852 C   0  0  0  0  0  0  0  0  0  0  0  0
  144.2926  135.9918  152.1095 O   0  0  0  0  0  0  0  0  0  0  0  0
  146.2427  135.0161  151.4274 N   0  0  0  0  0  0  0  0  0  0  0  0
  145.7637  133.8011  150.8760 C   0  0  0  0  0  0  0  0  0  0  0  0
  144.4050  133.5402  150.5500 C   0  0  0  0  0  0  0  0  0  0  0  0
  144.2526  132.3211  150.0528 N   0  0  0  0  0  0  0  0  0  0  0  0
  145.5009  131.8011  150.0593 N   0  0  0  0  0  0  0  0  0  0  0  0
  146.4529  132.6663  150.5514 C   0  0  0  0  0  0  0  0  0  0  0  0
  146.2987  140.6208  153.6170 N   0  3  0  0  0  0  0  0  0  0  0  0
  145.9335  140.5552  155.0598 C   0  0  0  0  0  0  0  0  0  0  0  0
  145.3133  141.8794  155.5381 C   0  0  0  0  0  0  0  0  0  0  0  0
  146.2087  142.9525  155.2888 O   0  0  0  0  0  0  0  0  0  0  0  0
  146.4732  143.0952  153.9017 C   0  0  0  0  0  0  0  0  0  0  0  0
  147.1493  141.8190  153.3757 C   0  0  0  0  0  0  0  0  0  0  0  0
  145.6850  130.8644  149.7289 H   0  0  0  0  0  0  0  0  0  0  0  0
  148.5933  138.0055  153.3116 H   0  0  0  0  0  0  0  0  0  0  0  0
  148.0133  138.7192  154.8091 H   0  0  0  0  0  0  0  0  0  0  0  0
  148.9826  139.6540  153.6628 H   0  0  0  0  0  0  0  0  0  0  0  0
  147.1571  139.5765  152.0025 H   0  0  0  0  0  0  0  0  0  0  0  0
  145.5015  138.0366  154.0705 H   0  0  0  0  0  0  0  0  0  0  0  0
  144.9350  138.5185  152.4997 H   0  0  0  0  0  0  0  0  0  0  0  0
  147.2956  136.9187  152.2638 H   0  0  0  0  0  0  0  0  0  0  0  0
  147.2429  135.1484  151.3938 H   0  0  0  0  0  0  0  0  0  0  0  0
  143.5424  134.1813  150.6555 H   0  0  0  0  0  0  0  0  0  0  0  0
  147.4966  132.3981  150.6221 H   0  0  0  0  0  0  0  0  0  0  0  0
  145.1976  139.7722  155.2395 H   0  0  0  0  0  0  0  0  0  0  0  0
  146.8186  140.3192  155.6528 H   0  0  0  0  0  0  0  0  0  0  0  0
  144.3590  142.0636  155.0418 H   0  0  0  0  0  0  0  0  0  0  0  0
  145.1097  141.8323  156.6080 H   0  0  0  0  0  0  0  0  0  0  0  0
  145.5503  143.3030  153.3575 H   0  0  0  0  0  0  0  0  0  0  0  0
  147.1289  143.9536  153.7551 H   0  0  0  0  0  0  0  0  0  0  0  0
  148.1149  141.6857  153.8663 H   0  0  0  0  0  0  0  0  0  0  0  0
  147.3509  141.9551  152.3152 H   0  0  0  0  0  0  0  0  0  0  0  0
  145.4303  140.7749  153.1245 H   0  0  0  0  0  0  0  0  0  0  0  0
  1  2  1  0  0  0  0
  1 20  1  0  0  0  0
  1 21  1  0  0  0  0
  1 22  1  0  0  0  0
  2  3  1  0  0  0  0
  2 13  1  0  0  0  0
  2 23  1  0  0  0  0
  3  4  1  0  0  0  0
  3 24  1  0  0  0  0
  3 25  1  0  0  0  0
  4  5  1  0  0  0  0
  4 26  1  0  0  0  0
  5  6  2  0  0  0  0
  5  7  1  0  0  0  0
  7  8  1  0  0  0  0
  7 27  1  0  0  0  0
  8 12  2  0  0  0  0
  8  9  1  0  0  0  0
  9 10  2  0  0  0  0
  9 28  1  0  0  0  0
 10 11  1  0  0  0  0
 11 19  1  0  0  0  0
 11 12  1  0  0  0  0
 12 29  1  0  0  0  0
 13 18  1  0  0  0  0
 13 14  1  0  0  0  0
 13 38  1  0  0  0  0
 14 15  1  0  0  0  0
 14 30  1  0  0  0  0
 14 31  1  0  0  0  0
 15 16  1  0  0  0  0
 15 32  1  0  0  0  0
 15 33  1  0  0  0  0
 16 17  1  0  0  0  0
 17 18  1  0  0  0  0
 17 34  1  0  0  0  0
 17 35  1  0  0  0  0
 18 36  1  0  0  0  0
 18 37  1  0  0  0  0
M  CHG  1  13   1
M  END
> <s_m_source_file>
AV-unprocessed.smi

> <i_m_source_file_index>
1712

> <i_lp_mmshare_version>
43012

> <i_f3d_flags>
0

> <s_epik_input>
W0NIMl0xW0NIMl1PW0NIMl1bQ0gyXU4xW0NASF0oW0NIM10pW0NIMl1bTkhdQyg9TylbTkhdYzJbY0hdbltuSF1bY0hdMg==

> <s_epik_cmdline>
J2VwaWtfcHl0aG9uJywgJy1waCcsICc3LjAnLCAnLXRuJywgJzgnLCAnLW1hJywgJzIwMCcsICctbWV0YWxfYmluZGluZycsICctaW1hZScsICc8aW5maWxlLm1hZT4nLCAnLW9tYWUnLCAnPG91dGZpbGUubWFlPic=

> <r_lp_tautomer_probability>
0.5

> <r_epik_Ionization_Penalty>
0.646007

> <r_epik_Ionization_Penalty_Charging>
0.645968

> <r_epik_Ionization_Penalty_Neutral>
3.91929e-05

> <r_epik_State_Penalty>
0.664063

> <r_epik_Charging_Adjusted_Penalty>
1.31003

> <i_epik_Tot_Q>
1

> <i_epik_Tot_abs_Q>
1

> <r_epik_Metal_State_Penalty>
0.664064

> <b_epik_Metal_Only>
0

> <s_lp_Force_Field>
OPLS_2005

> <r_lp_Energy>
23.8856

> <b_lp_Chiralities_Consistent>
1

> <s_lp_Variant>
AV-unprocessed.smi:1712-4

> <Gold.Version>
5.8.1

> <Gold.Id.Protein>
6NUR|6NUR_protein|mol2

> <Gold.PLP.Fitness>
42.0644

> <Gold.PLP.PLP>
-25.3401

> <Gold.PLP.part.hbond>
-3.0000

> <Gold.PLP.part.metal>
0.0000

> <Gold.PLP.part.buried>
-3.1726

> <Gold.PLP.part.nonpolar>
-19.6760

> <Gold.PLP.part.repulsive>
0.8421

> <Gold.PLP.ligand.clash>
0.0000

> <Gold.PLP.ligand.torsion>
0.2277

> <Gold.PLP.Chemscore.Hbond>
3.9263

> <Gold.PLP.Chemscore.CHOScore>
1.7825

> <Gold.PLP.Chemscore.Metal>
0.0000

> <Gold.Chemscore.Hbonds>
donor molecule, donor type, donor heavy atom, donor atom, acceptor molecule, acceptor atom, score
      L1  H     4    26       P1  7948  1.00
      L1  H     7    27       P1  7948  1.00
      L1  H    13    38       P1 10175  2.00
      L1  C     9    28       P1 10186  0.40
      L1  C    12    29       P1 10747  1.00

> <Gold.PLP.Chemscore.Internal.Correction>
0.0534

> <Gold.Rescore>
     Score         DG    S(hbond)    S(metal)    S(lipo)     H(rot)  DE(clash)    DE(int)     intcor
     15.08     -16.54       2.65        0.00      55.58       1.68       0.02       1.44       ----

> <Gold.Chemscore.Fitness>
15.0787

> <Gold.Chemscore.DG>
-16.5366

> <Gold.Chemscore.ZeroCoef>
-5.4800

> <Gold.Chemscore.Hbond>
2.6490

> <Gold.Chemscore.Metal>
0.0000

> <Gold.Chemscore.Lipo>
55.5778

> <Gold.Chemscore.Internal_Hbond>
0.0000

> <Gold.Chemscore.DEClash>
0.0225

> <Gold.Chemscore.DEInternal>
1.4354

> <Gold.Chemscore.Rot>
1.6771

> <Gold.Chemscore.Internal.Correction>
   9.000000E+99

> <Gold.Chemscore.Hbonds>
donor molecule, donor type, donor heavy atom, donor atom, acceptor molecule, acceptor atom, score
      L1  H     4    26       P1  7948  1.00
      L1  H     7    27       P1  7948  0.71
      L1  H    13    38       P1 10175  0.65

> <Gold.Chemscore.Hbond.Weighted>
-8.8475

> <Gold.Chemscore.Metal.Weighted>
-0.0000

> <Gold.Chemscore.Lipo.Weighted>
-6.5026

> <Gold.Chemscore.Internal_Hbond.Weighted>
0.0000

> <Gold.Chemscore.DEClash.Weighted>
0.0225

> <Gold.Chemscore.DEInternal.Weighted>
1.4354

> <Gold.Chemscore.Rot.Weighted>
4.2935

> <Gold.Chemscore.Internal.Correction.Weighted>
   9.000000E+99

> <Gold.Protein.RotatedTorsions>
[ 6907 6896 6895 6894 ] final  175.63 input  -60.11 | X-H torsion
[ 7974 7965 7964 7962 ] final -137.23 input  175.53 | X-H torsion
[ 8008 7997 7996 7995 ] final    8.12 input   59.86 | X-H torsion
[ 10167 10162 10161 10158 ] final  -72.06 input  -65.29 | X-H torsion
[ 10718 10713 10712 10709 ] final   53.36 input   66.30 | X-H torsion
[ 10763 10752 10751 10750 ] final  -98.06 input  -60.55 | X-H torsion
[ 11005 11000 10999 10996 ] final  169.99 input  -57.11 | X-H torsion

> <Gold.Protein.ActiveResidues>
 VAL166  LYS551  ARG553  GLY616  TRP617  ASP618  TYR619  PRO620  LYS621  CYS622 
 ASP623  PHE694  ASN695  SER759  ASP760  ASP761  ALA762  ILE779  LEU786  VAL792 
 PHE793  MET794  SER795  GLU796  ALA797  LYS798  CYS799  TRP800  GLU811  SER814 

> <Gold.Protein.RotatedAtoms>
  151.7332  133.3318  159.3345 H   0  0  0  0  0  0  0  0  0  0  0  0  # atno 6907 bound_to 6896
  150.7604  134.6345  159.6213 H   0  0  0  0  0  0  0  0  0  0  0  0  # atno 6908 bound_to 6896
  152.3578  134.6917  160.0268 H   0  0  0  0  0  0  0  0  0  0  0  0  # atno 6909 bound_to 6896
  144.8860  140.6575  143.5176 H   0  0  0  0  0  0  0  0  0  0  0  0  # atno 7974 bound_to 7965
  154.7627  140.2787  155.6201 H   0  0  0  0  0  0  0  0  0  0  0  0  # atno 8008 bound_to 7997
  156.2918  140.2657  156.2336 H   0  0  0  0  0  0  0  0  0  0  0  0  # atno 8009 bound_to 7997
  154.9998  140.0373  157.2345 H   0  0  0  0  0  0  0  0  0  0  0  0  # atno 8010 bound_to 7997
  140.5223  143.2330  151.7408 H   0  0  0  0  0  0  0  0  0  0  0  0  # atno 10167 bound_to 10162
  157.5160  130.8533  149.8496 H   0  0  0  0  0  0  0  0  0  0  0  0  # atno 10718 bound_to 10713
  154.7382  135.5023  153.9077 H   0  0  0  0  0  0  0  0  0  0  0  0  # atno 10763 bound_to 10752
  153.1016  135.6686  153.9670 H   0  0  0  0  0  0  0  0  0  0  0  0  # atno 10764 bound_to 10752
  153.9454  135.3063  155.3420 H   0  0  0  0  0  0  0  0  0  0  0  0  # atno 10765 bound_to 10752
  140.3036  134.7575  157.3936 H   0  0  0  0  0  0  0  0  0  0  0  0  # atno 11005 bound_to 11000
  145.3869  139.1625  143.4250 LP  0  0  0  0  0  0  0  0  0  0  0  0  # atno 17320 bound_to 7965
  146.3024  140.3955  142.8699 LP  0  0  0  0  0  0  0  0  0  0  0  0  # atno 17321 bound_to 7965
  139.4927  144.4236  151.9950 LP  0  0  0  0  0  0  0  0  0  0  0  0  # atno 17342 bound_to 10162
  140.3334  144.3290  150.5982 LP  0  0  0  0  0  0  0  0  0  0  0  0  # atno 17343 bound_to 10162
  156.0321  130.3762  150.1660 LP  0  0  0  0  0  0  0  0  0  0  0  0  # atno 17370 bound_to 10713
  156.9849  130.9875  151.3428 LP  0  0  0  0  0  0  0  0  0  0  0  0  # atno 17371 bound_to 10713
  140.1087  134.5375  155.8286 LP  0  0  0  0  0  0  0  0  0  0  0  0  # atno 17394 bound_to 11000
  141.2123  133.6717  156.6648 LP  0  0  0  0  0  0  0  0  0  0  0  0  # atno 17395 bound_to 11000

$$$$
