AV-unprocessed.smi:644|AV-procd|sdf|3157|dock3
  -GOLD-   22720 0 83D 1   1.00000     0.00000
 Structure written by MMmdl.
 38 40  0  0  0  0  0  0  0  0  2 V2000
  145.7914  130.0133  151.6629 C   0  0  0  0  0  0  0  0  0  0  0  0
  145.6807  131.5173  151.8464 C   0  0  0  0  0  0  0  0  0  0  0  0
  144.5970  132.1924  151.2400 C   0  0  0  0  0  0  0  0  0  0  0  0
  144.5232  133.5678  151.4257 C   0  0  0  0  0  0  0  0  0  0  0  0
  143.5937  134.5049  150.9689 N   0  3  0  0  0  0  0  0  0  0  0  0
  143.9421  135.7441  151.4135 C   0  0  0  0  0  0  0  0  0  0  0  0
  145.0802  135.6109  152.1470 N   0  0  0  0  0  0  0  0  0  0  0  0
  145.8697  136.6267  152.8553 C   0  0  0  0  0  0  0  0  0  0  0  0
  146.0551  137.9190  152.0365 C   0  0  2  0  0  0  0  0  0  0  0  0
  146.4468  137.5893  150.7174 O   0  0  0  0  0  0  0  0  0  0  0  0
  147.1104  138.8455  152.6605 C   0  0  0  0  0  0  0  0  0  0  0  0
  146.9651  138.9217  154.4728 S   0  0  0  0  0  0  0  0  0  0  0  0
  146.3462  140.5627  154.6663 C   0  0  0  0  0  0  0  0  0  0  0  0
  145.2025  140.8901  155.2847 N   0  0  0  0  0  0  0  0  0  0  0  0
  144.9741  142.2595  155.2837 N   0  0  0  0  0  0  0  0  0  0  0  0
  145.9558  142.9179  154.6632 C   0  0  0  0  0  0  0  0  0  0  0  0
  147.2504  141.9264  154.0185 S   0  0  0  0  0  0  0  0  0  0  0  0
  145.4798  134.2714  152.1824 C   0  0  0  0  0  0  0  0  0  0  0  0
  146.5536  133.6227  152.7868 C   0  0  0  0  0  0  0  0  0  0  0  0
  146.6465  132.2235  152.6096 C   0  0  0  0  0  0  0  0  0  0  0  0
  147.8079  131.4873  153.2554 C   0  0  0  0  0  0  0  0  0  0  0  0
  144.9629  129.6212  151.0722 H   0  0  0  0  0  0  0  0  0  0  0  0
  145.7802  129.5065  152.6281 H   0  0  0  0  0  0  0  0  0  0  0  0
  146.7179  129.7585  151.1477 H   0  0  0  0  0  0  0  0  0  0  0  0
  143.8582  131.6616  150.6574 H   0  0  0  0  0  0  0  0  0  0  0  0
  143.4099  136.6652  151.2241 H   0  0  0  0  0  0  0  0  0  0  0  0
  145.3890  136.8337  153.8122 H   0  0  0  0  0  0  0  0  0  0  0  0
  146.8394  136.1830  153.0858 H   0  0  0  0  0  0  0  0  0  0  0  0
  145.1034  138.4491  151.9817 H   0  0  0  0  0  0  0  0  0  0  0  0
  145.7839  137.9050  150.1219 H   0  0  0  0  0  0  0  0  0  0  0  0
  148.1084  138.4819  152.4125 H   0  0  0  0  0  0  0  0  0  0  0  0
  147.0205  139.8505  152.2458 H   0  0  0  0  0  0  0  0  0  0  0  0
  145.9163  143.9942  154.5835 H   0  0  0  0  0  0  0  0  0  0  0  0
  147.2868  134.1618  153.3682 H   0  0  0  0  0  0  0  0  0  0  0  0
  148.4611  132.1709  153.7986 H   0  0  0  0  0  0  0  0  0  0  0  0
  148.4096  130.9830  152.4987 H   0  0  0  0  0  0  0  0  0  0  0  0
  147.4436  130.7420  153.9630 H   0  0  0  0  0  0  0  0  0  0  0  0
  142.7796  134.3158  150.3981 H   0  0  0  0  0  0  0  0  0  0  0  0
  1  2  1  0  0  0  0
  1 22  1  0  0  0  0
  1 23  1  0  0  0  0
  1 24  1  0  0  0  0
  2 20  1  0  0  0  0
  2  3  2  0  0  0  0
  3  4  1  0  0  0  0
  3 25  1  0  0  0  0
  4 18  2  0  0  0  0
  4  5  1  0  0  0  0
  5  6  2  0  0  0  0
  5 38  1  0  0  0  0
  6  7  1  0  0  0  0
  6 26  1  0  0  0  0
  7  8  1  0  0  0  0
  7 18  1  0  0  0  0
  8  9  1  0  0  0  0
  8 27  1  0  0  0  0
  8 28  1  0  0  0  0
  9 10  1  0  0  0  0
  9 11  1  0  0  0  0
  9 29  1  0  0  0  0
 10 30  1  0  0  0  0
 11 12  1  0  0  0  0
 11 31  1  0  0  0  0
 11 32  1  0  0  0  0
 12 13  1  0  0  0  0
 13 17  1  0  0  0  0
 13 14  2  0  0  0  0
 14 15  1  0  0  0  0
 15 16  2  0  0  0  0
 16 17  1  0  0  0  0
 16 33  1  0  0  0  0
 18 19  1  0  0  0  0
 19 20  2  0  0  0  0
 19 34  1  0  0  0  0
 20 21  1  0  0  0  0
 21 35  1  0  0  0  0
 21 36  1  0  0  0  0
 21 37  1  0  0  0  0
M  CHG  1   5   1
M  END
> <s_m_source_file>
AV-unprocessed.smi

> <i_m_source_file_index>
644

> <i_lp_mmshare_version>
43012

> <i_f3d_flags>
0

> <s_epik_input>
W0NIM11jKFtjSF0xKWMoW0NIM10pW2NIXWMoYzEyKW4oW2NIXW4yKVtDSDJdW0NASF0oW09IXSlbQ0gyXVNjM25uW2NIXXMz

> <s_epik_cmdline>
J2VwaWtfcHl0aG9uJywgJy1waCcsICc3LjAnLCAnLXRuJywgJzgnLCAnLW1hJywgJzIwMCcsICctbWV0YWxfYmluZGluZycsICctaW1hZScsICc8aW5maWxlLm1hZT4nLCAnLW9tYWUnLCAnPG91dGZpbGUubWFlPic=

> <r_lp_tautomer_probability>
1

> <r_epik_Ionization_Penalty>
1.07492

> <r_epik_Ionization_Penalty_Charging>
1.07491

> <r_epik_Ionization_Penalty_Neutral>
3.80549e-06

> <r_epik_State_Penalty>
1.12982

> <r_epik_Charging_Adjusted_Penalty>
2.20473

> <i_epik_Tot_Q>
1

> <i_epik_Tot_abs_Q>
1

> <r_epik_Metal_State_Penalty>
1.2206

> <b_epik_Metal_Only>
0

> <s_lp_Force_Field>
OPLS_2005

> <r_lp_Energy>
11.8761

> <b_lp_Chiralities_Consistent>
1

> <s_lp_Variant>
AV-unprocessed.smi:644-3

> <Gold.Version>
5.8.1

> <Gold.Id.Protein>
6NUR|6NUR_protein|mol2

> <Gold.PLP.Fitness>
50.8935

> <Gold.PLP.PLP>
-37.4999

> <Gold.PLP.part.hbond>
-4.0000

> <Gold.PLP.part.metal>
0.0000

> <Gold.PLP.part.buried>
-5.0532

> <Gold.PLP.part.nonpolar>
-30.2260

> <Gold.PLP.part.repulsive>
0.2798

> <Gold.PLP.ligand.clash>
0.0000

> <Gold.PLP.ligand.torsion>
0.8075

> <Gold.PLP.Chemscore.Hbond>
3.9913

> <Gold.PLP.Chemscore.CHOScore>
1.0000

> <Gold.PLP.Chemscore.Metal>
0.0000

> <Gold.Chemscore.Hbonds>
donor molecule, donor type, donor heavy atom, donor atom, acceptor molecule, acceptor atom, score
      L1  H     5    38       P1 10186  2.00
      L1  H    10    30       P1 10171  0.99
      P1  H  7954  7966       L1    10  1.00
      L1  C     6    26       P1 10171  1.00

> <Gold.PLP.Chemscore.Internal.Correction>
0.0348

> <Gold.Rescore>
     Score         DG    S(hbond)    S(metal)    S(lipo)     H(rot)  DE(clash)    DE(int)     intcor
     16.63     -18.16       2.61        0.00      89.37       2.53       0.71       0.82       ----

> <Gold.Chemscore.Fitness>
16.6321

> <Gold.Chemscore.DG>
-18.1589

> <Gold.Chemscore.ZeroCoef>
-5.4800

> <Gold.Chemscore.Hbond>
2.6059

> <Gold.Chemscore.Metal>
0.0000

> <Gold.Chemscore.Lipo>
89.3662

> <Gold.Chemscore.Internal_Hbond>
0.0000

> <Gold.Chemscore.DEClash>
0.7105

> <Gold.Chemscore.DEInternal>
0.8162

> <Gold.Chemscore.Rot>
2.5315

> <Gold.Chemscore.Internal.Correction>
   9.000000E+99

> <Gold.Chemscore.Hbonds>
donor molecule, donor type, donor heavy atom, donor atom, acceptor molecule, acceptor atom, score
      L1  H     5    38       P1 10186  0.73
      L1  H    10    30       P1 10171  0.87
      P1  H  7954  7966       L1    10  0.58

> <Gold.Chemscore.Hbond.Weighted>
-8.7035

> <Gold.Chemscore.Metal.Weighted>
-0.0000

> <Gold.Chemscore.Lipo.Weighted>
-10.4558

> <Gold.Chemscore.Internal_Hbond.Weighted>
0.0000

> <Gold.Chemscore.DEClash.Weighted>
0.7105

> <Gold.Chemscore.DEInternal.Weighted>
0.8162

> <Gold.Chemscore.Rot.Weighted>
6.4805

> <Gold.Chemscore.Internal.Correction.Weighted>
   9.000000E+99

> <Gold.Protein.RotatedTorsions>
[ 6907 6896 6895 6894 ] final   -8.62 input  -60.11 | X-H torsion
[ 7974 7965 7964 7962 ] final  153.72 input  175.53 | X-H torsion
[ 8008 7997 7996 7995 ] final -175.11 input   59.86 | X-H torsion
[ 10167 10162 10161 10158 ] final   32.48 input  -65.29 | X-H torsion
[ 10718 10713 10712 10709 ] final -116.96 input   66.30 | X-H torsion
[ 10763 10752 10751 10750 ] final  -48.42 input  -60.55 | X-H torsion
[ 11005 11000 10999 10996 ] final  -31.37 input  -57.11 | X-H torsion

> <Gold.Protein.ActiveResidues>
 VAL166  LYS551  ARG553  GLY616  TRP617  ASP618  TYR619  PRO620  LYS621  CYS622 
 ASP623  PHE694  ASN695  SER759  ASP760  ASP761  ALA762  ILE779  LEU786  VAL792 
 PHE793  MET794  SER795  GLU796  ALA797  LYS798  CYS799  TRP800  GLU811  SER814 

> <Gold.Protein.RotatedAtoms>
  151.4307  135.1009  159.9641 H   0  0  0  0  0  0  0  0  0  0  0  0  # atno 6907 bound_to 6896
  152.4957  133.8620  159.7265 H   0  0  0  0  0  0  0  0  0  0  0  0  # atno 6908 bound_to 6896
  150.9157  133.6884  159.2872 H   0  0  0  0  0  0  0  0  0  0  0  0  # atno 6909 bound_to 6896
  144.8135  139.6838  143.6131 H   0  0  0  0  0  0  0  0  0  0  0  0  # atno 7974 bound_to 7965
  155.9784  140.1177  157.0749 H   0  0  0  0  0  0  0  0  0  0  0  0  # atno 8008 bound_to 7997
  154.4176  140.1149  156.5470 H   0  0  0  0  0  0  0  0  0  0  0  0  # atno 8009 bound_to 7997
  155.6503  140.3473  155.4748 H   0  0  0  0  0  0  0  0  0  0  0  0  # atno 8010 bound_to 7997
  140.4495  144.1069  150.6189 H   0  0  0  0  0  0  0  0  0  0  0  0  # atno 10167 bound_to 10162
  156.1000  130.6164  150.9103 H   0  0  0  0  0  0  0  0  0  0  0  0  # atno 10718 bound_to 10713
  154.0774  135.6596  153.4833 H   0  0  0  0  0  0  0  0  0  0  0  0  # atno 10763 bound_to 10752
  153.0368  135.5172  154.7507 H   0  0  0  0  0  0  0  0  0  0  0  0  # atno 10764 bound_to 10752
  154.6592  135.3012  154.9857 H   0  0  0  0  0  0  0  0  0  0  0  0  # atno 10765 bound_to 10752
  140.9463  133.7248  156.1151 H   0  0  0  0  0  0  0  0  0  0  0  0  # atno 11005 bound_to 11000
  146.2437  139.6053  142.9474 LP  0  0  0  0  0  0  0  0  0  0  0  0  # atno 17320 bound_to 7965
  145.5267  141.0429  143.2405 LP  0  0  0  0  0  0  0  0  0  0  0  0  # atno 17321 bound_to 7965
  140.4224  143.2605  151.9699 LP  0  0  0  0  0  0  0  0  0  0  0  0  # atno 17342 bound_to 10162
  139.4795  144.5819  151.7919 LP  0  0  0  0  0  0  0  0  0  0  0  0  # atno 17343 bound_to 10162
  157.6168  131.0932  150.8695 LP  0  0  0  0  0  0  0  0  0  0  0  0  # atno 17370 bound_to 10713
  156.8825  130.5184  149.5290 LP  0  0  0  0  0  0  0  0  0  0  0  0  # atno 17371 bound_to 10713
  140.7665  134.3880  157.5516 LP  0  0  0  0  0  0  0  0  0  0  0  0  # atno 17394 bound_to 11000
  139.8834  134.8995  156.2767 LP  0  0  0  0  0  0  0  0  0  0  0  0  # atno 17395 bound_to 11000

$$$$
