AV-unprocessed.smi:2039|AV-procd|sdf|8285|dock9
  -GOLD-   2272010553D 1   1.00000     0.00000
 Structure written by MMmdl.
 32 33  0  0  0  0  0  0  0  0  2 V2000
  153.4106  142.8983  163.0201 C   0  0  0  0  0  0  0  0  0  0  0  0
  153.6542  141.9634  161.8855 C   0  0  0  0  0  0  0  0  0  0  0  0
  154.6796  141.1086  161.8619 N   0  0  0  0  0  0  0  0  0  0  0  0
  154.6943  140.3422  160.7053 N   0  0  0  0  0  0  0  0  0  0  0  0
  153.6775  140.6205  159.8769 C   0  0  0  0  0  0  0  0  0  0  0  0
  153.5124  139.9911  158.7015 N   0  5  0  0  0  0  0  0  0  0  0  0
  152.2729  139.6339  158.2940 C   0  0  0  0  0  0  0  0  0  0  0  0
  151.6057  138.6914  158.7273 O   0  0  0  0  0  0  0  0  0  0  0  0
  151.7761  140.4175  157.3257 N   0  0  0  0  0  0  0  0  0  0  0  0
  150.4665  140.2802  156.6933 C   0  0  2  0  0  0  0  0  0  0  0  0
  150.6160  140.0370  155.1780 C   0  0  0  0  0  0  0  0  0  0  0  0
  149.2462  139.9494  154.4827 C   0  0  0  0  0  0  0  0  0  0  0  0
  148.3658  141.1819  154.7654 C   0  0  2  0  0  0  0  0  0  0  0  0
  148.8855  142.3149  154.0978 O   0  0  0  0  0  0  0  0  0  0  0  0
  148.2528  141.4643  156.2754 C   0  0  0  0  0  0  0  0  0  0  0  0
  149.6292  141.5441  156.9592 C   0  0  0  0  0  0  0  0  0  0  0  0
  152.6139  141.8947  160.4731 S   0  0  0  0  0  0  0  0  0  0  0  0
  152.9359  142.3663  163.8446 H   0  0  0  0  0  0  0  0  0  0  0  0
  152.7579  143.7130  162.7061 H   0  0  0  0  0  0  0  0  0  0  0  0
  154.3524  143.3219  163.3697 H   0  0  0  0  0  0  0  0  0  0  0  0
  152.3592  141.1751  157.0019 H   0  0  0  0  0  0  0  0  0  0  0  0
  149.9447  139.4310  157.1389 H   0  0  0  0  0  0  0  0  0  0  0  0
  151.2017  140.8416  154.7309 H   0  0  0  0  0  0  0  0  0  0  0  0
  151.1729  139.1169  154.9978 H   0  0  0  0  0  0  0  0  0  0  0  0
  149.3788  139.8159  153.4085 H   0  0  0  0  0  0  0  0  0  0  0  0
  148.7299  139.0565  154.8374 H   0  0  0  0  0  0  0  0  0  0  0  0
  147.3684  141.0066  154.3611 H   0  0  0  0  0  0  0  0  0  0  0  0
  148.8787  143.0458  154.6966 H   0  0  0  0  0  0  0  0  0  0  0  0
  147.6943  142.3851  156.4474 H   0  0  0  0  0  0  0  0  0  0  0  0
  147.6739  140.6668  156.7427 H   0  0  0  0  0  0  0  0  0  0  0  0
  149.4956  141.6829  158.0326 H   0  0  0  0  0  0  0  0  0  0  0  0
  150.1640  142.4249  156.6003 H   0  0  0  0  0  0  0  0  0  0  0  0
  1  2  1  0  0  0  0
  1 18  1  0  0  0  0
  1 19  1  0  0  0  0
  1 20  1  0  0  0  0
  2 17  1  0  0  0  0
  2  3  2  0  0  0  0
  3  4  1  0  0  0  0
  4  5  2  0  0  0  0
  5  6  1  0  0  0  0
  5 17  1  0  0  0  0
  6  7  1  0  0  0  0
  7  8  2  0  0  0  0
  7  9  1  0  0  0  0
  9 10  1  0  0  0  0
  9 21  1  0  0  0  0
 10 16  1  0  0  0  0
 10 11  1  0  0  0  0
 10 22  1  0  0  0  0
 11 12  1  0  0  0  0
 11 23  1  0  0  0  0
 11 24  1  0  0  0  0
 12 13  1  0  0  0  0
 12 25  1  0  0  0  0
 12 26  1  0  0  0  0
 13 14  1  0  0  0  0
 13 15  1  0  0  0  0
 13 27  1  0  0  0  0
 14 28  1  0  0  0  0
 15 16  1  0  0  0  0
 15 29  1  0  0  0  0
 15 30  1  0  0  0  0
 16 31  1  0  0  0  0
 16 32  1  0  0  0  0
M  CHG  1   6  -1
M  END
> <s_m_source_file>
AV-unprocessed.smi

> <i_m_source_file_index>
2039

> <i_lp_mmshare_version>
43012

> <i_f3d_flags>
0

> <s_epik_input>
W0NIM11jMW5uYyhzMSlbTkhdQyg9TylbTkhdW0NAQEhdMltDSDJdW0NIMl1bQ0BASF0oW09IXSlbQ0gyXVtDSDJdMg==

> <s_epik_cmdline>
J2VwaWtfcHl0aG9uJywgJy1waCcsICc3LjAnLCAnLXRuJywgJzgnLCAnLW1hJywgJzIwMCcsICctbWV0YWxfYmluZGluZycsICctaW1hZScsICc8aW5maWxlLm1hZT4nLCAnLW9tYWUnLCAnPG91dGZpbGUubWFlPic=

> <r_lp_tautomer_probability>
1

> <r_epik_Ionization_Penalty>
4.54927

> <r_epik_Ionization_Penalty_Charging>
4.39069

> <r_epik_Ionization_Penalty_Neutral>
0.158583

> <r_epik_State_Penalty>
4.39033

> <r_epik_Charging_Adjusted_Penalty>
8.78102

> <i_epik_Tot_Q>
-1

> <i_epik_Tot_abs_Q>
1

> <r_epik_Metal_State_Penalty>
0.767247

> <b_epik_Metal_Only>
1

> <s_lp_Force_Field>
OPLS_2005

> <r_lp_Energy>
8.24255

> <b_lp_Chiralities_Consistent>
1

> <s_lp_Variant>
AV-unprocessed.smi:2039-4

> <Gold.Version>
5.8.1

> <Gold.Id.Protein>
6NUR|6NUR_protein|mol2

> <Gold.PLP.Fitness>
40.8429

> <Gold.PLP.PLP>
-33.1570

> <Gold.PLP.part.hbond>
-3.9811

> <Gold.PLP.part.metal>
0.0000

> <Gold.PLP.part.buried>
-3.9248

> <Gold.PLP.part.nonpolar>
-24.6738

> <Gold.PLP.part.repulsive>
0.0920

> <Gold.PLP.ligand.clash>
0.0000

> <Gold.PLP.ligand.torsion>
1.0203

> <Gold.PLP.Chemscore.Hbond>
3.2400

> <Gold.PLP.Chemscore.CHOScore>
0.0000

> <Gold.PLP.Chemscore.Metal>
0.0000

> <Gold.Chemscore.Hbonds>
donor molecule, donor type, donor heavy atom, donor atom, acceptor molecule, acceptor atom, score
      L1  H    14    28       P1  8028  1.00
      P1  H  7997  8008       L1     6  2.00
      P1  H  8011  8017       L1    14  0.24

> <Gold.PLP.Chemscore.Internal.Correction>
0.0065

> <Gold.Rescore>
     Score         DG    S(hbond)    S(metal)    S(lipo)     H(rot)  DE(clash)    DE(int)     intcor
     14.43     -15.47       1.93        0.00      62.89       1.49       0.26       0.78       ----

> <Gold.Chemscore.Fitness>
14.4254

> <Gold.Chemscore.DG>
-15.4727

> <Gold.Chemscore.ZeroCoef>
-5.4800

> <Gold.Chemscore.Hbond>
1.9287

> <Gold.Chemscore.Metal>
0.0000

> <Gold.Chemscore.Lipo>
62.8925

> <Gold.Chemscore.Internal_Hbond>
0.0000

> <Gold.Chemscore.DEClash>
0.2648

> <Gold.Chemscore.DEInternal>
0.7825

> <Gold.Chemscore.Rot>
1.4873

> <Gold.Chemscore.Internal.Correction>
   9.000000E+99

> <Gold.Chemscore.Hbonds>
donor molecule, donor type, donor heavy atom, donor atom, acceptor molecule, acceptor atom, score
      L1  H    14    28       P1  8028  1.00
      P1  H  7997  8008       L1     6  0.57
      P1  H  8011  8017       L1    14  0.23

> <Gold.Chemscore.Hbond.Weighted>
-6.4417

> <Gold.Chemscore.Metal.Weighted>
-0.0000

> <Gold.Chemscore.Lipo.Weighted>
-7.3584

> <Gold.Chemscore.Internal_Hbond.Weighted>
0.0000

> <Gold.Chemscore.DEClash.Weighted>
0.2648

> <Gold.Chemscore.DEInternal.Weighted>
0.7825

> <Gold.Chemscore.Rot.Weighted>
3.8075

> <Gold.Chemscore.Internal.Correction.Weighted>
   9.000000E+99

> <Gold.Protein.RotatedTorsions>
[ 6907 6896 6895 6894 ] final   35.70 input  -60.11 | X-H torsion
[ 7974 7965 7964 7962 ] final -179.99 input  175.53 | X-H torsion
[ 8008 7997 7996 7995 ] final  -89.51 input   59.86 | X-H torsion
[ 10167 10162 10161 10158 ] final -106.28 input  -65.29 | X-H torsion
[ 10718 10713 10712 10709 ] final   82.98 input   66.30 | X-H torsion
[ 10763 10752 10751 10750 ] final   84.93 input  -60.55 | X-H torsion
[ 11005 11000 10999 10996 ] final   39.98 input  -57.11 | X-H torsion

> <Gold.Protein.ActiveResidues>
 VAL166  LYS551  ARG553  GLY616  TRP617  ASP618  TYR619  PRO620  LYS621  CYS622 
 ASP623  PHE694  ASN695  SER759  ASP760  ASP761  ALA762  ILE779  LEU786  VAL792 
 PHE793  MET794  SER795  GLU796  ALA797  LYS798  CYS799  TRP800  GLU811  SER814 

> <Gold.Protein.RotatedAtoms>
  152.1198  134.9214  160.0563 H   0  0  0  0  0  0  0  0  0  0  0  0  # atno 6907 bound_to 6896
  152.0359  133.3952  159.4325 H   0  0  0  0  0  0  0  0  0  0  0  0  # atno 6908 bound_to 6896
  150.6848  134.3389  159.4903 H   0  0  0  0  0  0  0  0  0  0  0  0  # atno 6909 bound_to 6896
  144.7141  140.0635  143.6432 H   0  0  0  0  0  0  0  0  0  0  0  0  # atno 7974 bound_to 7965
  154.6874  140.0541  157.0329 H   0  0  0  0  0  0  0  0  0  0  0  0  # atno 8008 bound_to 7997
  155.0865  140.3215  155.4567 H   0  0  0  0  0  0  0  0  0  0  0  0  # atno 8009 bound_to 7997
  156.2716  140.2055  156.5992 H   0  0  0  0  0  0  0  0  0  0  0  0  # atno 8010 bound_to 7997
  140.1895  143.3903  152.1218 H   0  0  0  0  0  0  0  0  0  0  0  0  # atno 10167 bound_to 10162
  157.6869  131.0071  150.2456 H   0  0  0  0  0  0  0  0  0  0  0  0  # atno 10718 bound_to 10713
  153.1427  135.4636  154.9520 H   0  0  0  0  0  0  0  0  0  0  0  0  # atno 10763 bound_to 10752
  154.7760  135.3173  154.8092 H   0  0  0  0  0  0  0  0  0  0  0  0  # atno 10764 bound_to 10752
  153.8612  135.6912  153.4837 H   0  0  0  0  0  0  0  0  0  0  0  0  # atno 10765 bound_to 10752
  140.1975  134.3911  155.8114 H   0  0  0  0  0  0  0  0  0  0  0  0  # atno 11005 bound_to 11000
  145.9844  139.2966  143.1022 LP  0  0  0  0  0  0  0  0  0  0  0  0  # atno 17320 bound_to 7965
  145.8974  140.9265  143.0520 LP  0  0  0  0  0  0  0  0  0  0  0  0  # atno 17321 bound_to 7965
  139.5262  144.7105  151.5221 LP  0  0  0  0  0  0  0  0  0  0  0  0  # atno 17342 bound_to 10162
  140.6466  143.8783  150.6743 LP  0  0  0  0  0  0  0  0  0  0  0  0  # atno 17343 bound_to 10162
  156.3062  130.3765  149.7704 LP  0  0  0  0  0  0  0  0  0  0  0  0  # atno 17370 bound_to 10713
  156.5319  130.8261  151.3240 LP  0  0  0  0  0  0  0  0  0  0  0  0  # atno 17371 bound_to 10713
  141.2227  133.7077  156.8200 LP  0  0  0  0  0  0  0  0  0  0  0  0  # atno 17394 bound_to 11000
  140.2091  134.8840  157.3255 LP  0  0  0  0  0  0  0  0  0  0  0  0  # atno 17395 bound_to 11000

$$$$
