AV-unprocessed.smi:817|AV-procd|sdf|3828|dock6
  -GOLD-   22720 1273D 1   1.00000     0.00000
 Structure written by MMmdl.
 48 49  0  0  0  0  0  0  0  0  2 V2000
  146.3227  128.7624  152.4104 C   0  0  0  0  0  0  0  0  0  0  0  0
  146.3425  130.2755  152.6689 C   0  0  2  0  0  0  0  0  0  0  0  0
  145.8888  131.0598  151.4242 C   0  0  0  0  0  0  0  0  0  0  0  0
  145.9685  132.5770  151.6476 C   0  0  0  0  0  0  0  0  0  0  0  0
  147.3734  132.9945  152.1189 C   0  0  0  0  0  0  0  0  0  0  0  0
  147.8054  132.2763  153.4332 C   0  0  1  0  0  0  0  0  0  0  0  0
  149.2659  132.6813  153.8004 C   0  0  0  0  0  0  0  0  0  0  0  0
  149.5352  134.1085  153.6135 N   0  0  0  0  0  0  0  0  0  0  0  0
  150.3958  134.8774  154.3026 C   0  0  0  0  0  0  0  0  0  0  0  0
  151.0624  134.4129  155.2241 O   0  0  0  0  0  0  0  0  0  0  0  0
  150.4265  136.1633  153.9003 N   0  0  0  0  0  0  0  0  0  0  0  0
  151.2181  137.2332  154.3981 C   0  0  0  0  0  0  0  0  0  0  0  0
  152.0767  136.9674  155.4847 C   0  0  0  0  0  0  0  0  0  0  0  0
  152.8623  138.0102  156.0108 C   0  0  0  0  0  0  0  0  0  0  0  0
  152.7521  139.2887  155.4314 C   0  0  0  0  0  0  0  0  0  0  0  0
  151.9246  139.5652  154.4018 N   0  0  0  0  0  0  0  0  0  0  0  0
  151.1745  138.5599  153.9011 C   0  0  0  0  0  0  0  0  0  0  0  0
  146.8619  132.6293  154.5600 N   0  3  0  0  0  0  0  0  0  0  0  0
  146.7062  134.0798  154.8486 C   0  0  0  0  0  0  0  0  0  0  0  0
  147.0463  131.8693  155.8250 C   0  0  0  0  0  0  0  0  0  0  0  0
  147.7419  130.7487  153.1223 C   0  0  0  0  0  0  0  0  0  0  0  0
  147.0189  128.4856  151.6178 H   0  0  0  0  0  0  0  0  0  0  0  0
  145.3288  128.4279  152.1115 H   0  0  0  0  0  0  0  0  0  0  0  0
  146.6012  128.2067  153.3062 H   0  0  0  0  0  0  0  0  0  0  0  0
  145.6294  130.4720  153.4702 H   0  0  0  0  0  0  0  0  0  0  0  0
  146.5152  130.7896  150.5728 H   0  0  0  0  0  0  0  0  0  0  0  0
  144.8692  130.7811  151.1554 H   0  0  0  0  0  0  0  0  0  0  0  0
  145.7231  133.0954  150.7204 H   0  0  0  0  0  0  0  0  0  0  0  0
  145.2173  132.8848  152.3756 H   0  0  0  0  0  0  0  0  0  0  0  0
  148.0711  132.7489  151.3175 H   0  0  0  0  0  0  0  0  0  0  0  0
  147.4369  134.0780  152.2088 H   0  0  0  0  0  0  0  0  0  0  0  0
  149.4777  132.4403  154.8422 H   0  0  0  0  0  0  0  0  0  0  0  0
  149.9794  132.1258  153.1918 H   0  0  0  0  0  0  0  0  0  0  0  0
  149.0090  134.5668  152.8833 H   0  0  0  0  0  0  0  0  0  0  0  0
  149.7641  136.4160  153.1822 H   0  0  0  0  0  0  0  0  0  0  0  0
  152.1379  135.9763  155.9100 H   0  0  0  0  0  0  0  0  0  0  0  0
  153.5336  137.8350  156.8384 H   0  0  0  0  0  0  0  0  0  0  0  0
  153.3400  140.1125  155.8080 H   0  0  0  0  0  0  0  0  0  0  0  0
  150.5164  138.8502  153.0975 H   0  0  0  0  0  0  0  0  0  0  0  0
  147.6283  134.5216  155.2247 H   0  0  0  0  0  0  0  0  0  0  0  0
  145.9433  134.2302  155.6131 H   0  0  0  0  0  0  0  0  0  0  0  0
  146.3735  134.6476  153.9819 H   0  0  0  0  0  0  0  0  0  0  0  0
  148.0165  132.0648  156.2809 H   0  0  0  0  0  0  0  0  0  0  0  0
  146.9337  130.7952  155.6882 H   0  0  0  0  0  0  0  0  0  0  0  0
  146.2853  132.1564  156.5516 H   0  0  0  0  0  0  0  0  0  0  0  0
  148.0904  130.1576  153.9686 H   0  0  0  0  0  0  0  0  0  0  0  0
  148.4420  130.5083  152.3211 H   0  0  0  0  0  0  0  0  0  0  0  0
  145.9546  132.3400  154.2228 H   0  0  0  0  0  0  0  0  0  0  0  0
  1  2  1  0  0  0  0
  1 22  1  0  0  0  0
  1 23  1  0  0  0  0
  1 24  1  0  0  0  0
  2 21  1  0  0  0  0
  2  3  1  0  0  0  0
  2 25  1  0  0  0  0
  3  4  1  0  0  0  0
  3 26  1  0  0  0  0
  3 27  1  0  0  0  0
  4  5  1  0  0  0  0
  4 28  1  0  0  0  0
  4 29  1  0  0  0  0
  5  6  1  0  0  0  0
  5 30  1  0  0  0  0
  5 31  1  0  0  0  0
  6  7  1  0  0  0  0
  6 18  1  0  0  0  0
  6 21  1  0  0  0  0
  7  8  1  0  0  0  0
  7 32  1  0  0  0  0
  7 33  1  0  0  0  0
  8  9  1  0  0  0  0
  8 34  1  0  0  0  0
  9 10  2  0  0  0  0
  9 11  1  0  0  0  0
 11 12  1  0  0  0  0
 11 35  1  0  0  0  0
 12 17  1  0  0  0  0
 12 13  2  0  0  0  0
 13 14  1  0  0  0  0
 13 36  1  0  0  0  0
 14 15  2  0  0  0  0
 14 37  1  0  0  0  0
 15 16  1  0  0  0  0
 15 38  1  0  0  0  0
 16 17  2  0  0  0  0
 17 39  1  0  0  0  0
 18 19  1  0  0  0  0
 18 20  1  0  0  0  0
 18 48  1  0  0  0  0
 19 40  1  0  0  0  0
 19 41  1  0  0  0  0
 19 42  1  0  0  0  0
 20 43  1  0  0  0  0
 20 44  1  0  0  0  0
 20 45  1  0  0  0  0
 21 46  1  0  0  0  0
 21 47  1  0  0  0  0
M  CHG  1  18   1
M  END
> <s_m_source_file>
AV-unprocessed.smi

> <i_m_source_file_index>
817

> <i_lp_mmshare_version>
43012

> <i_f3d_flags>
0

> <s_epik_input>
W0NIM11bQ0BASF0oW0NIMl0xKVtDSDJdW0NIMl1bQ0gyXVtDQF0xKE4oW0NIM10pW0NIM10pW0NIMl1bTkhdQyg9TylbTkhdYzJbY0hdW2NIXVtjSF1uW2NIXTI=

> <s_epik_cmdline>
J2VwaWtfcHl0aG9uJywgJy1waCcsICc3LjAnLCAnLXRuJywgJzgnLCAnLW1hJywgJzIwMCcsICctbWV0YWxfYmluZGluZycsICctaW1hZScsICc8aW5maWxlLm1hZT4nLCAnLW9tYWUnLCAnPG91dGZpbGUubWFlPic=

> <r_lp_tautomer_probability>
1

> <r_epik_Ionization_Penalty>
0.00584939

> <r_epik_Ionization_Penalty_Charging>
0.00160539

> <r_epik_Ionization_Penalty_Neutral>
0.004244

> <r_epik_State_Penalty>
-0

> <r_epik_Charging_Adjusted_Penalty>
0.00160539

> <i_epik_Tot_Q>
1

> <i_epik_Tot_abs_Q>
1

> <r_epik_Metal_State_Penalty>
-0

> <b_epik_Metal_Only>
0

> <s_lp_Force_Field>
OPLS_2005

> <r_lp_Energy>
44.2375

> <b_lp_Chiralities_Consistent>
1

> <s_lp_Variant>
AV-unprocessed.smi:817-1

> <Gold.Version>
5.8.1

> <Gold.Id.Protein>
6NUR|6NUR_protein|mol2

> <Gold.PLP.Fitness>
44.6166

> <Gold.PLP.PLP>
-34.6178

> <Gold.PLP.part.hbond>
-4.0000

> <Gold.PLP.part.metal>
0.0000

> <Gold.PLP.part.buried>
-1.5802

> <Gold.PLP.part.nonpolar>
-28.3563

> <Gold.PLP.part.repulsive>
0.1966

> <Gold.PLP.ligand.clash>
0.0000

> <Gold.PLP.ligand.torsion>
0.5203

> <Gold.PLP.Chemscore.Hbond>
2.6400

> <Gold.PLP.Chemscore.CHOScore>
1.0000

> <Gold.PLP.Chemscore.Metal>
0.0000

> <Gold.Chemscore.Hbonds>
donor molecule, donor type, donor heavy atom, donor atom, acceptor molecule, acceptor atom, score
      L1  H     8    34       P1  7948  0.33
      L1  H    11    35       P1  7948  0.81
      P1  H  7989  7998       L1    16  0.91
      P1  H 10752 10764       L1    10  0.26
      L1  C    17    39       P1  7957  1.00

> <Gold.PLP.Chemscore.Internal.Correction>
0.1194

> <Gold.Rescore>
     Score         DG    S(hbond)    S(metal)    S(lipo)     H(rot)  DE(clash)    DE(int)     intcor
     14.56     -17.04       1.87        0.00      77.04       1.44       0.46       2.03       ----

> <Gold.Chemscore.Fitness>
14.5616

> <Gold.Chemscore.DG>
-17.0441

> <Gold.Chemscore.ZeroCoef>
-5.4800

> <Gold.Chemscore.Hbond>
1.8679

> <Gold.Chemscore.Metal>
0.0000

> <Gold.Chemscore.Lipo>
77.0363

> <Gold.Chemscore.Internal_Hbond>
0.0000

> <Gold.Chemscore.DEClash>
0.4572

> <Gold.Chemscore.DEInternal>
2.0253

> <Gold.Chemscore.Rot>
1.4405

> <Gold.Chemscore.Internal.Correction>
   9.000000E+99

> <Gold.Chemscore.Hbonds>
donor molecule, donor type, donor heavy atom, donor atom, acceptor molecule, acceptor atom, score
      L1  H     8    34       P1  7948  0.01
      L1  H    11    35       P1  7948  0.13
      P1  H  7989  7998       L1    16  0.53
      P1  H 10752 10764       L1    10  0.07

> <Gold.Chemscore.Hbond.Weighted>
-6.2387

> <Gold.Chemscore.Metal.Weighted>
-0.0000

> <Gold.Chemscore.Lipo.Weighted>
-9.0132

> <Gold.Chemscore.Internal_Hbond.Weighted>
0.0000

> <Gold.Chemscore.DEClash.Weighted>
0.4572

> <Gold.Chemscore.DEInternal.Weighted>
2.0253

> <Gold.Chemscore.Rot.Weighted>
3.6878

> <Gold.Chemscore.Internal.Correction.Weighted>
   9.000000E+99

> <Gold.Protein.RotatedTorsions>
[ 6907 6896 6895 6894 ] final   -3.76 input  -60.11 | X-H torsion
[ 7974 7965 7964 7962 ] final   22.88 input  175.53 | X-H torsion
[ 8008 7997 7996 7995 ] final -123.51 input   59.86 | X-H torsion
[ 10167 10162 10161 10158 ] final  138.18 input  -65.29 | X-H torsion
[ 10718 10713 10712 10709 ] final  -93.66 input   66.30 | X-H torsion
[ 10763 10752 10751 10750 ] final  -43.20 input  -60.55 | X-H torsion
[ 11005 11000 10999 10996 ] final   -4.55 input  -57.11 | X-H torsion

> <Gold.Protein.ActiveResidues>
 VAL166  LYS551  ARG553  GLY616  TRP617  ASP618  TYR619  PRO620  LYS621  CYS622 
 ASP623  PHE694  ASN695  SER759  ASP760  ASP761  ALA762  ILE779  LEU786  VAL792 
 PHE793  MET794  SER795  GLU796  ALA797  LYS798  CYS799  TRP800  GLU811  SER814 

> <Gold.Protein.RotatedAtoms>
  151.5086  135.1064  159.9847 H   0  0  0  0  0  0  0  0  0  0  0  0  # atno 6907 bound_to 6896
  152.4671  133.7943  159.6929 H   0  0  0  0  0  0  0  0  0  0  0  0  # atno 6908 bound_to 6896
  150.8661  133.7510  159.3002 H   0  0  0  0  0  0  0  0  0  0  0  0  # atno 6909 bound_to 6896
  146.2009  139.7823  142.8762 H   0  0  0  0  0  0  0  0  0  0  0  0  # atno 7974 bound_to 7965
  155.1817  140.0411  157.2883 H   0  0  0  0  0  0  0  0  0  0  0  0  # atno 8008 bound_to 7997
  154.6199  140.2498  155.7535 H   0  0  0  0  0  0  0  0  0  0  0  0  # atno 8009 bound_to 7997
  156.2427  140.2897  156.0502 H   0  0  0  0  0  0  0  0  0  0  0  0  # atno 8010 bound_to 7997
  139.5119  144.6368  151.5675 H   0  0  0  0  0  0  0  0  0  0  0  0  # atno 10167 bound_to 10162
  156.0016  130.5036  150.5809 H   0  0  0  0  0  0  0  0  0  0  0  0  # atno 10718 bound_to 10713
  153.9916  135.6704  153.4754 H   0  0  0  0  0  0  0  0  0  0  0  0  # atno 10763 bound_to 10752
  153.0702  135.4978  154.8285 H   0  0  0  0  0  0  0  0  0  0  0  0  # atno 10764 bound_to 10752
  154.7105  135.3096  154.9166 H   0  0  0  0  0  0  0  0  0  0  0  0  # atno 10765 bound_to 10752
  140.6815  133.9150  155.8558 H   0  0  0  0  0  0  0  0  0  0  0  0  # atno 11005 bound_to 11000
  145.3486  141.0303  143.3351 LP  0  0  0  0  0  0  0  0  0  0  0  0  # atno 17320 bound_to 7965
  144.8682  139.5077  143.6780 LP  0  0  0  0  0  0  0  0  0  0  0  0  # atno 17321 bound_to 7965
  140.6120  143.9418  150.6460 LP  0  0  0  0  0  0  0  0  0  0  0  0  # atno 17342 bound_to 10162
  140.2664  143.3487  152.1277 LP  0  0  0  0  0  0  0  0  0  0  0  0  # atno 17343 bound_to 10162
  157.3689  131.0762  151.1574 LP  0  0  0  0  0  0  0  0  0  0  0  0  # atno 17370 bound_to 10713
  157.2334  130.6535  149.5859 LP  0  0  0  0  0  0  0  0  0  0  0  0  # atno 17371 bound_to 10713
  141.0314  134.0751  157.4010 LP  0  0  0  0  0  0  0  0  0  0  0  0  # atno 17394 bound_to 11000
  139.8950  135.0139  156.6981 LP  0  0  0  0  0  0  0  0  0  0  0  0  # atno 17395 bound_to 11000

$$$$
