AV-unprocessed.smi:3250|AV-procd|sdf|12434|dock1
  -GOLD-   2272018323D 1   1.00000     0.00000
 Structure written by MMmdl.
 40 41  0  0  0  0  0  0  0  0  3 V2000
  150.9889  137.4919  158.8156 C   0  0  0  0  0  0  0  0  0  0  0  0
  149.6117  137.6908  158.1673 C   0  0  0  0  0  0  0  0  0  0  0  0
  149.6539  138.6195  157.0101 N   0  3  2  0  0  0  0  0  0  0  0  0
  150.1241  137.9508  155.7740 C   0  0  0  0  0  0  0  0  0  0  0  0
  150.1164  138.9338  154.5931 C   0  0  0  0  0  0  0  0  0  0  0  0
  150.9214  140.0615  154.9123 O   0  0  0  0  0  0  0  0  0  0  0  0
  150.4211  140.7818  156.0343 C   0  0  2  0  0  0  0  0  0  0  0  0
  151.3074  142.0183  156.2430 C   0  0  0  0  0  0  0  0  0  0  0  0
  150.5909  143.0884  156.9215 N   0  0  0  0  0  0  0  0  0  0  0  0
  150.8270  143.4558  158.2332 C   0  0  0  0  0  0  0  0  0  0  0  0
  150.0971  144.4620  158.7370 N   0  3  0  0  0  0  0  0  0  0  0  0
  150.2964  144.8641  160.0164 C   0  0  0  0  0  0  0  0  0  0  0  0
  151.2624  144.2296  160.8180 C   0  0  0  0  0  0  0  0  0  0  0  0
  151.9883  143.1806  160.2303 C   0  0  0  0  0  0  0  0  0  0  0  0
  152.9448  142.5179  160.9712 O   0  0  0  0  0  0  0  0  0  0  0  0
  153.0099  142.7702  162.3706 C   0  0  0  0  0  0  0  0  0  0  0  0
  151.7610  142.8107  158.9473 N   0  0  0  0  0  0  0  0  0  0  0  0
  150.4426  139.8515  157.2644 C   0  0  0  0  0  0  0  0  0  0  0  0
  150.9030  136.8835  159.7164 H   0  0  0  0  0  0  0  0  0  0  0  0
  151.4314  138.4459  159.1037 H   0  0  0  0  0  0  0  0  0  0  0  0
  151.6849  136.9831  158.1494 H   0  0  0  0  0  0  0  0  0  0  0  0
  149.1870  136.7327  157.8644 H   0  0  0  0  0  0  0  0  0  0  0  0
  148.9421  138.0995  158.9254 H   0  0  0  0  0  0  0  0  0  0  0  0
  151.1314  137.5609  155.9287 H   0  0  0  0  0  0  0  0  0  0  0  0
  149.4819  137.0997  155.5445 H   0  0  0  0  0  0  0  0  0  0  0  0
  150.5186  138.4532  153.7011 H   0  0  0  0  0  0  0  0  0  0  0  0
  149.0999  139.2504  154.3538 H   0  0  0  0  0  0  0  0  0  0  0  0
  149.3960  141.1033  155.8387 H   0  0  0  0  0  0  0  0  0  0  0  0
  152.1760  141.7509  156.8462 H   0  0  0  0  0  0  0  0  0  0  0  0
  151.6815  142.3810  155.2848 H   0  0  0  0  0  0  0  0  0  0  0  0
  149.9957  143.6892  156.3700 H   0  0  0  0  0  0  0  0  0  0  0  0
  149.6759  145.6803  160.3564 H   0  0  0  0  0  0  0  0  0  0  0  0
  151.4366  144.5337  161.8398 H   0  0  0  0  0  0  0  0  0  0  0  0
  153.8135  142.1768  162.8067 H   0  0  0  0  0  0  0  0  0  0  0  0
  152.0823  142.4898  162.8715 H   0  0  0  0  0  0  0  0  0  0  0  0
  153.2253  143.8196  162.5768 H   0  0  0  0  0  0  0  0  0  0  0  0
  150.0384  140.3856  158.1239 H   0  0  0  0  0  0  0  0  0  0  0  0
  151.4704  139.5796  157.5117 H   0  0  0  0  0  0  0  0  0  0  0  0
  148.7011  138.9047  156.8339 H   0  0  0  0  0  0  0  0  0  0  0  0
  149.3926  144.9342  158.1700 H   0  0  0  0  0  0  0  0  0  0  0  0
  1  2  1  0  0  0  0
  1 19  1  0  0  0  0
  1 20  1  0  0  0  0
  1 21  1  0  0  0  0
  2  3  1  0  0  0  0
  2 22  1  0  0  0  0
  2 23  1  0  0  0  0
  3 18  1  0  0  0  0
  3  4  1  0  0  0  0
  3 39  1  0  0  0  0
  4  5  1  0  0  0  0
  4 24  1  0  0  0  0
  4 25  1  0  0  0  0
  5  6  1  0  0  0  0
  5 26  1  0  0  0  0
  5 27  1  0  0  0  0
  6  7  1  0  0  0  0
  7  8  1  0  0  0  0
  7 18  1  0  0  0  0
  7 28  1  0  0  0  0
  8  9  1  0  0  0  0
  8 29  1  0  0  0  0
  8 30  1  0  0  0  0
  9 10  1  0  0  0  0
  9 31  1  0  0  0  0
 10 17  1  0  0  0  0
 10 11  2  0  0  0  0
 11 12  1  0  0  0  0
 11 40  1  0  0  0  0
 12 13  2  0  0  0  0
 12 32  1  0  0  0  0
 13 14  1  0  0  0  0
 13 33  1  0  0  0  0
 14 15  1  0  0  0  0
 14 17  2  0  0  0  0
 15 16  1  0  0  0  0
 16 34  1  0  0  0  0
 16 35  1  0  0  0  0
 16 36  1  0  0  0  0
 18 37  1  0  0  0  0
 18 38  1  0  0  0  0
M  CHG  1   3   1
M  CHG  1  11   1
M  END
> <s_m_source_file>
AV-unprocessed.smi

> <i_m_source_file_index>
3250

> <i_lp_mmshare_version>
43012

> <i_f3d_flags>
0

> <s_epik_input>
W0NIM11bQ0gyXU4xW0NIMl1bQ0gyXU9bQ0BIXShbQ0gyXTEpW0NIMl1bTkhdYzJuW2NIXVtjSF1jKG4yKU9bQ0gzXQ==

> <s_epik_cmdline>
J2VwaWtfcHl0aG9uJywgJy1waCcsICc3LjAnLCAnLXRuJywgJzgnLCAnLW1hJywgJzIwMCcsICctbWV0YWxfYmluZGluZycsICctaW1hZScsICc8aW5maWxlLm1hZT4nLCAnLW9tYWUnLCAnPG91dGZpbGUubWFlPic=

> <r_lp_tautomer_probability>
0.999985

> <r_epik_Ionization_Penalty>
2.24691

> <r_epik_Ionization_Penalty_Charging>
2.24686

> <r_epik_Ionization_Penalty_Neutral>
4.52111e-05

> <r_epik_State_Penalty>
2.24709

> <r_epik_Charging_Adjusted_Penalty>
4.49395

> <i_epik_Tot_Q>
2

> <i_epik_Tot_abs_Q>
2

> <r_epik_Metal_State_Penalty>
2.26327

> <b_epik_Metal_Only>
0

> <s_lp_Force_Field>
OPLS_2005

> <r_lp_Energy>
18.1158

> <b_lp_Chiralities_Consistent>
1

> <s_lp_Variant>
AV-unprocessed.smi:3250-10

> <Gold.Version>
5.8.1

> <Gold.Id.Protein>
6NUR|6NUR_protein|mol2

> <Gold.PLP.Fitness>
45.2092

> <Gold.PLP.PLP>
-31.3742

> <Gold.PLP.part.hbond>
-3.3362

> <Gold.PLP.part.metal>
0.0000

> <Gold.PLP.part.buried>
-8.5725

> <Gold.PLP.part.nonpolar>
-19.5608

> <Gold.PLP.part.repulsive>
0.2730

> <Gold.PLP.ligand.clash>
0.0000

> <Gold.PLP.ligand.torsion>
0.6135

> <Gold.PLP.Chemscore.Hbond>
5.0000

> <Gold.PLP.Chemscore.CHOScore>
0.0000

> <Gold.PLP.Chemscore.Metal>
0.0000

> <Gold.Chemscore.Hbonds>
donor molecule, donor type, donor heavy atom, donor atom, acceptor molecule, acceptor atom, score
      L1  H     9    31       P1  8028  2.00
      L1  H    11    40       P1  8029  2.00
      P1  H  7989  7998       L1     6  1.00

> <Gold.PLP.Chemscore.Internal.Correction>
0.0620

> <Gold.Rescore>
     Score         DG    S(hbond)    S(metal)    S(lipo)     H(rot)  DE(clash)    DE(int)     intcor
     16.97     -17.41       2.62        0.00      65.54       1.75       0.00       0.43       ----

> <Gold.Chemscore.Fitness>
16.9719

> <Gold.Chemscore.DG>
-17.4112

> <Gold.Chemscore.ZeroCoef>
-5.4800

> <Gold.Chemscore.Hbond>
2.6201

> <Gold.Chemscore.Metal>
0.0000

> <Gold.Chemscore.Lipo>
65.5351

> <Gold.Chemscore.Internal_Hbond>
0.0000

> <Gold.Chemscore.DEClash>
0.0044

> <Gold.Chemscore.DEInternal>
0.4349

> <Gold.Chemscore.Rot>
1.7530

> <Gold.Chemscore.Internal.Correction>
   9.000000E+99

> <Gold.Chemscore.Hbonds>
donor molecule, donor type, donor heavy atom, donor atom, acceptor molecule, acceptor atom, score
      L1  H     9    31       P1  8028  1.00
      L1  H    11    40       P1  8029  0.29
      P1  H  7989  7998       L1     6  0.87

> <Gold.Chemscore.Hbond.Weighted>
-8.7513

> <Gold.Chemscore.Metal.Weighted>
-0.0000

> <Gold.Chemscore.Lipo.Weighted>
-7.6676

> <Gold.Chemscore.Internal_Hbond.Weighted>
0.0000

> <Gold.Chemscore.DEClash.Weighted>
0.0044

> <Gold.Chemscore.DEInternal.Weighted>
0.4349

> <Gold.Chemscore.Rot.Weighted>
4.4876

> <Gold.Chemscore.Internal.Correction.Weighted>
   9.000000E+99

> <Gold.Protein.RotatedTorsions>
[ 6907 6896 6895 6894 ] final  -10.17 input  -60.11 | X-H torsion
[ 7974 7965 7964 7962 ] final   79.67 input  175.53 | X-H torsion
[ 8008 7997 7996 7995 ] final  -23.04 input   59.86 | X-H torsion
[ 10167 10162 10161 10158 ] final  163.33 input  -65.29 | X-H torsion
[ 10718 10713 10712 10709 ] final -104.96 input   66.30 | X-H torsion
[ 10763 10752 10751 10750 ] final   78.34 input  -60.55 | X-H torsion
[ 11005 11000 10999 10996 ] final   10.03 input  -57.11 | X-H torsion

> <Gold.Protein.ActiveResidues>
 VAL166  LYS551  ARG553  GLY616  TRP617  ASP618  TYR619  PRO620  LYS621  CYS622 
 ASP623  PHE694  ASN695  SER759  ASP760  ASP761  ALA762  ILE779  LEU786  VAL792 
 PHE793  MET794  SER795  GLU796  ALA797  LYS798  CYS799  TRP800  GLU811  SER814 

> <Gold.Protein.RotatedAtoms>
  151.4061  135.0978  159.9570 H   0  0  0  0  0  0  0  0  0  0  0  0  # atno 6907 bound_to 6896
  152.5035  133.8841  159.7371 H   0  0  0  0  0  0  0  0  0  0  0  0  # atno 6908 bound_to 6896
  150.9326  133.6692  159.2836 H   0  0  0  0  0  0  0  0  0  0  0  0  # atno 6909 bound_to 6896
  145.6612  139.2472  143.1922 H   0  0  0  0  0  0  0  0  0  0  0  0  # atno 7974 bound_to 7965
  154.4608  140.1991  156.0250 H   0  0  0  0  0  0  0  0  0  0  0  0  # atno 8008 bound_to 7997
  156.0836  140.3268  155.7697 H   0  0  0  0  0  0  0  0  0  0  0  0  # atno 8009 bound_to 7997
  155.5071  140.0558  157.2920 H   0  0  0  0  0  0  0  0  0  0  0  0  # atno 8010 bound_to 7997
  139.4872  144.4348  151.9025 H   0  0  0  0  0  0  0  0  0  0  0  0  # atno 10167 bound_to 10162
  156.0326  130.5540  150.7471 H   0  0  0  0  0  0  0  0  0  0  0  0  # atno 10718 bound_to 10713
  153.0867  135.4880  154.8610 H   0  0  0  0  0  0  0  0  0  0  0  0  # atno 10763 bound_to 10752
  154.7219  135.3041  154.9036 H   0  0  0  0  0  0  0  0  0  0  0  0  # atno 10764 bound_to 10752
  153.9698  135.6802  153.4800 H   0  0  0  0  0  0  0  0  0  0  0  0  # atno 10765 bound_to 10752
  140.5191  134.0577  155.7839 H   0  0  0  0  0  0  0  0  0  0  0  0  # atno 11005 bound_to 11000
  146.1124  140.7412  142.9497 LP  0  0  0  0  0  0  0  0  0  0  0  0  # atno 17320 bound_to 7965
  144.7088  140.3960  143.7096 LP  0  0  0  0  0  0  0  0  0  0  0  0  # atno 17321 bound_to 7965
  140.3797  144.2751  150.5910 LP  0  0  0  0  0  0  0  0  0  0  0  0  # atno 17342 bound_to 10162
  140.5244  143.2258  151.8338 LP  0  0  0  0  0  0  0  0  0  0  0  0  # atno 17343 bound_to 10162
  157.5025  131.0919  151.0297 LP  0  0  0  0  0  0  0  0  0  0  0  0  # atno 17370 bound_to 10713
  157.0674  130.5850  149.5396 LP  0  0  0  0  0  0  0  0  0  0  0  0  # atno 17371 bound_to 10713
  141.1344  133.9247  157.2466 LP  0  0  0  0  0  0  0  0  0  0  0  0  # atno 17394 bound_to 11000
  139.9616  135.0153  156.9276 LP  0  0  0  0  0  0  0  0  0  0  0  0  # atno 17395 bound_to 11000

$$$$
