AV-unprocessed.smi:2148|AV-procd|sdf|8746|dock9
  -GOLD-   2272011523D 1   1.00000     0.00000
 Structure written by MMmdl.
 44 45  0  0  0  0  0  0  0  0  1 V2000
  145.5093  136.0072  152.2346 C   0  0  0  0  0  0  0  0  0  0  0  0
  146.3248  136.7889  153.6536 S   0  0  0  0  0  0  0  0  0  0  0  0
  146.2605  138.5409  153.1707 C   0  0  2  0  0  0  0  0  0  0  0  0
  146.7983  138.7176  151.7416 C   0  0  0  0  0  0  0  0  0  0  0  0
  147.0139  139.4376  154.1623 C   0  0  0  0  0  0  0  0  0  0  0  0
  146.4284  140.3749  154.7047 O   0  0  0  0  0  0  0  0  0  0  0  0
  148.3131  139.1388  154.3492 N   0  0  0  0  0  0  0  0  0  0  0  0
  149.2602  139.7798  155.1928 C   0  0  0  0  0  0  0  0  0  0  0  0
  150.6603  139.7340  155.0016 C   0  0  0  0  0  0  0  0  0  0  0  0
  151.4941  140.4305  155.8972 C   0  0  0  0  0  0  0  0  0  0  0  0
  150.9129  141.1649  156.9577 C   0  0  0  0  0  0  0  0  0  0  0  0
  151.7326  141.8714  157.8644 N   0  0  0  0  0  0  0  0  0  0  0  0
  151.4163  143.2875  158.0294 C   0  0  0  0  0  0  0  0  0  0  0  0
  152.5513  144.0095  158.7808 C   0  0  1  0  0  0  0  0  0  0  0  0
  152.2011  145.4696  159.0851 C   0  0  0  0  0  0  0  0  0  0  0  0
  152.7965  143.3423  160.0159 O   0  0  0  0  0  0  0  0  0  0  0  0
  153.2144  141.9926  159.8314 C   0  0  1  0  0  0  0  0  0  0  0  0
  153.5449  141.3983  161.2046 C   0  0  0  0  0  0  0  0  0  0  0  0
  152.0955  141.2120  159.1171 C   0  0  0  0  0  0  0  0  0  0  0  0
  149.5696  141.2112  157.1336 N   0  0  0  0  0  0  0  0  0  0  0  0
  148.7740  140.5438  156.2721 C   0  0  0  0  0  0  0  0  0  0  0  0
  145.5189  134.9235  152.3495 H   0  0  0  0  0  0  0  0  0  0  0  0
  146.0263  136.2603  151.3091 H   0  0  0  0  0  0  0  0  0  0  0  0
  144.4722  136.3328  152.1566 H   0  0  0  0  0  0  0  0  0  0  0  0
  145.2093  138.8337  153.1622 H   0  0  0  0  0  0  0  0  0  0  0  0
  146.7805  139.7646  151.4360 H   0  0  0  0  0  0  0  0  0  0  0  0
  146.1924  138.1591  151.0274 H   0  0  0  0  0  0  0  0  0  0  0  0
  147.8250  138.3602  151.6510 H   0  0  0  0  0  0  0  0  0  0  0  0
  148.6814  138.3972  153.7713 H   0  0  0  0  0  0  0  0  0  0  0  0
  151.1113  139.1926  154.1848 H   0  0  0  0  0  0  0  0  0  0  0  0
  152.5648  140.3849  155.7659 H   0  0  0  0  0  0  0  0  0  0  0  0
  151.2578  143.7781  157.0700 H   0  0  0  0  0  0  0  0  0  0  0  0
  150.4825  143.3736  158.5866 H   0  0  0  0  0  0  0  0  0  0  0  0
  153.4606  143.9902  158.1773 H   0  0  0  0  0  0  0  0  0  0  0  0
  152.0176  146.0286  158.1674 H   0  0  0  0  0  0  0  0  0  0  0  0
  153.0148  145.9625  159.6177 H   0  0  0  0  0  0  0  0  0  0  0  0
  151.3068  145.5399  159.7048 H   0  0  0  0  0  0  0  0  0  0  0  0
  154.1193  141.9786  159.2214 H   0  0  0  0  0  0  0  0  0  0  0  0
  153.8846  140.3664  161.1136 H   0  0  0  0  0  0  0  0  0  0  0  0
  152.6728  141.4076  161.8590 H   0  0  0  0  0  0  0  0  0  0  0  0
  154.3359  141.9666  161.6944 H   0  0  0  0  0  0  0  0  0  0  0  0
  151.2143  141.1463  159.7572 H   0  0  0  0  0  0  0  0  0  0  0  0
  152.4337  140.1938  158.9205 H   0  0  0  0  0  0  0  0  0  0  0  0
  147.7122  140.6201  156.4556 H   0  0  0  0  0  0  0  0  0  0  0  0
  1  2  1  0  0  0  0
  1 22  1  0  0  0  0
  1 23  1  0  0  0  0
  1 24  1  0  0  0  0
  2  3  1  0  0  0  0
  3  4  1  0  0  0  0
  3  5  1  0  0  0  0
  3 25  1  0  0  0  0
  4 26  1  0  0  0  0
  4 27  1  0  0  0  0
  4 28  1  0  0  0  0
  5  6  2  0  0  0  0
  5  7  1  0  0  0  0
  7  8  1  0  0  0  0
  7 29  1  0  0  0  0
  8 21  1  0  0  0  0
  8  9  2  0  0  0  0
  9 10  1  0  0  0  0
  9 30  1  0  0  0  0
 10 11  2  0  0  0  0
 10 31  1  0  0  0  0
 11 12  1  0  0  0  0
 11 20  1  0  0  0  0
 12 19  1  0  0  0  0
 12 13  1  0  0  0  0
 13 14  1  0  0  0  0
 13 32  1  0  0  0  0
 13 33  1  0  0  0  0
 14 15  1  0  0  0  0
 14 16  1  0  0  0  0
 14 34  1  0  0  0  0
 15 35  1  0  0  0  0
 15 36  1  0  0  0  0
 15 37  1  0  0  0  0
 16 17  1  0  0  0  0
 17 18  1  0  0  0  0
 17 19  1  0  0  0  0
 17 38  1  0  0  0  0
 18 39  1  0  0  0  0
 18 40  1  0  0  0  0
 18 41  1  0  0  0  0
 19 42  1  0  0  0  0
 19 43  1  0  0  0  0
 20 21  2  0  0  0  0
 21 44  1  0  0  0  0
M  END
> <s_m_source_file>
AV-unprocessed.smi

> <i_m_source_file_index>
2148

> <i_lp_mmshare_version>
43012

> <i_f3d_flags>
0

> <s_epik_input>
W0NIM11TW0NASF0oW0NIM10pQyg9TylbTkhdYzFbY0hdW2NIXWMobltjSF0xKU4yW0NIMl1bQ0BASF0oW0NIM10pT1tDQEBIXShbQ0gzXSlbQ0gyXTI=

> <s_epik_cmdline>
J2VwaWtfcHl0aG9uJywgJy1waCcsICc3LjAnLCAnLXRuJywgJzgnLCAnLW1hJywgJzIwMCcsICctbWV0YWxfYmluZGluZycsICctaW1hZScsICc8aW5maWxlLm1hZT4nLCAnLW9tYWUnLCAnPG91dGZpbGUubWFlPic=

> <r_lp_tautomer_probability>
1

> <r_epik_Ionization_Penalty>
0.000646494

> <r_epik_Ionization_Penalty_Charging>
0

> <r_epik_Ionization_Penalty_Neutral>
0.000646494

> <r_epik_State_Penalty>
0.000408447

> <r_epik_Charging_Adjusted_Penalty>
0.000408447

> <i_epik_Tot_Q>
0

> <i_epik_Tot_abs_Q>
0

> <r_epik_Metal_State_Penalty>
-0

> <b_epik_Metal_Only>
0

> <s_lp_Force_Field>
OPLS_2005

> <r_lp_Energy>
22.6119

> <b_lp_Chiralities_Consistent>
1

> <s_lp_Variant>
AV-unprocessed.smi:2148-1

> <Gold.Version>
5.8.1

> <Gold.Id.Protein>
6NUR|6NUR_protein|mol2

> <Gold.PLP.Fitness>
37.9178

> <Gold.PLP.PLP>
-38.7262

> <Gold.PLP.part.hbond>
0.0000

> <Gold.PLP.part.metal>
0.0000

> <Gold.PLP.part.buried>
-2.1678

> <Gold.PLP.part.nonpolar>
-36.0894

> <Gold.PLP.part.repulsive>
0.1772

> <Gold.PLP.ligand.clash>
0.0000

> <Gold.PLP.ligand.torsion>
0.5802

> <Gold.PLP.Chemscore.Hbond>
0.0000

> <Gold.PLP.Chemscore.CHOScore>
0.0000

> <Gold.PLP.Chemscore.Metal>
0.0000

> <Gold.PLP.Chemscore.Internal.Correction>
0.3520

> <Gold.Rescore>
     Score         DG    S(hbond)    S(metal)    S(lipo)     H(rot)  DE(clash)    DE(int)     intcor
     13.47     -15.49       0.00        0.00     113.23       1.27       0.19       1.82       ----

> <Gold.Chemscore.Fitness>
13.4742

> <Gold.Chemscore.DG>
-15.4873

> <Gold.Chemscore.ZeroCoef>
-5.4800

> <Gold.Chemscore.Hbond>
0.0000

> <Gold.Chemscore.Metal>
0.0000

> <Gold.Chemscore.Lipo>
113.2293

> <Gold.Chemscore.Internal_Hbond>
0.0000

> <Gold.Chemscore.DEClash>
0.1899

> <Gold.Chemscore.DEInternal>
1.8231

> <Gold.Chemscore.Rot>
1.2659

> <Gold.Chemscore.Internal.Correction>
   9.000000E+99

> <Gold.Chemscore.Hbond.Weighted>
-0.0000

> <Gold.Chemscore.Metal.Weighted>
-0.0000

> <Gold.Chemscore.Lipo.Weighted>
-13.2478

> <Gold.Chemscore.Internal_Hbond.Weighted>
0.0000

> <Gold.Chemscore.DEClash.Weighted>
0.1899

> <Gold.Chemscore.DEInternal.Weighted>
1.8231

> <Gold.Chemscore.Rot.Weighted>
3.2406

> <Gold.Chemscore.Internal.Correction.Weighted>
   9.000000E+99

> <Gold.Protein.RotatedTorsions>
[ 6907 6896 6895 6894 ] final  -18.15 input  -60.11 | X-H torsion
[ 7974 7965 7964 7962 ] final    5.46 input  175.53 | X-H torsion
[ 8008 7997 7996 7995 ] final   63.44 input   59.86 | X-H torsion
[ 10167 10162 10161 10158 ] final   81.41 input  -65.29 | X-H torsion
[ 10718 10713 10712 10709 ] final   11.94 input   66.30 | X-H torsion
[ 10763 10752 10751 10750 ] final  -46.50 input  -60.55 | X-H torsion
[ 11005 11000 10999 10996 ] final -126.12 input  -57.11 | X-H torsion

> <Gold.Protein.ActiveResidues>
 VAL166  LYS551  ARG553  GLY616  TRP617  ASP618  TYR619  PRO620  LYS621  CYS622 
 ASP623  PHE694  ASN695  SER759  ASP760  ASP761  ALA762  ILE779  LEU786  VAL792 
 PHE793  MET794  SER795  GLU796  ALA797  LYS798  CYS799  TRP800  GLU811  SER814 

> <Gold.Protein.RotatedAtoms>
  151.2825  135.0718  159.9174 H   0  0  0  0  0  0  0  0  0  0  0  0  # atno 6907 bound_to 6896
  152.5331  134.0016  159.7907 H   0  0  0  0  0  0  0  0  0  0  0  0  # atno 6908 bound_to 6896
  151.0272  133.5772  159.2695 H   0  0  0  0  0  0  0  0  0  0  0  0  # atno 6909 bound_to 6896
  146.2440  140.0381  142.8384 H   0  0  0  0  0  0  0  0  0  0  0  0  # atno 7974 bound_to 7965
  155.6303  140.3496  155.4680 H   0  0  0  0  0  0  0  0  0  0  0  0  # atno 8008 bound_to 7997
  156.0008  140.1213  157.0572 H   0  0  0  0  0  0  0  0  0  0  0  0  # atno 8009 bound_to 7997
  154.4248  140.1101  156.5681 H   0  0  0  0  0  0  0  0  0  0  0  0  # atno 8010 bound_to 7997
  139.9395  144.6099  150.8265 H   0  0  0  0  0  0  0  0  0  0  0  0  # atno 10167 bound_to 10162
  157.0029  130.6086  149.5698 H   0  0  0  0  0  0  0  0  0  0  0  0  # atno 10718 bound_to 10713
  154.0460  135.6637  153.4795 H   0  0  0  0  0  0  0  0  0  0  0  0  # atno 10763 bound_to 10752
  153.0483  135.5101  154.7797 H   0  0  0  0  0  0  0  0  0  0  0  0  # atno 10764 bound_to 10752
  154.6788  135.3041  154.9608 H   0  0  0  0  0  0  0  0  0  0  0  0  # atno 10765 bound_to 10752
  140.9707  134.0809  157.3872 H   0  0  0  0  0  0  0  0  0  0  0  0  # atno 11005 bound_to 11000
  145.1094  140.9395  143.4665 LP  0  0  0  0  0  0  0  0  0  0  0  0  # atno 17320 bound_to 7965
  145.0592  139.3119  143.5889 LP  0  0  0  0  0  0  0  0  0  0  0  0  # atno 17321 bound_to 7965
  140.7615  143.3175  151.2699 LP  0  0  0  0  0  0  0  0  0  0  0  0  # atno 17342 bound_to 10162
  139.6716  144.0011  152.2756 LP  0  0  0  0  0  0  0  0  0  0  0  0  # atno 17343 bound_to 10162
  156.0164  130.5259  150.8148 LP  0  0  0  0  0  0  0  0  0  0  0  0  # atno 17370 bound_to 10713
  157.5377  131.0939  150.9870 LP  0  0  0  0  0  0  0  0  0  0  0  0  # atno 17371 bound_to 10713
  139.8911  135.0116  156.6774 LP  0  0  0  0  0  0  0  0  0  0  0  0  # atno 17394 bound_to 11000
  140.7333  133.9040  155.8226 LP  0  0  0  0  0  0  0  0  0  0  0  0  # atno 17395 bound_to 11000

$$$$
