AV-unprocessed.smi:3032|AV-procd|sdf|11559|dock3
  -GOLD-   2272016523D 1   1.00000     0.00000
 Structure written by MMmdl.
 37 38  0  0  0  0  0  0  0  0  1 V2000
  151.8174  145.0704  158.9101 C   0  0  0  0  0  0  0  0  0  0  0  0
  151.8222  143.6358  159.4568 C   0  0  2  0  0  0  0  0  0  0  0  0
  152.7716  143.4956  160.6626 C   0  0  0  0  0  0  0  0  0  0  0  0
  152.7819  142.0592  161.2083 C   0  0  0  0  0  0  0  0  0  0  0  0
  153.1438  141.0483  160.1093 C   0  0  0  0  0  0  0  0  0  0  0  0
  152.1902  141.1703  158.9028 C   0  0  2  0  0  0  0  0  0  0  0  0
  152.5727  140.1680  157.8059 C   0  0  0  0  0  0  0  0  0  0  0  0
  153.5006  139.3775  157.9807 O   0  0  0  0  0  0  0  0  0  0  0  0
  151.8376  140.2002  156.6841 N   0  0  0  0  0  0  0  0  0  0  0  0
  151.9964  139.2972  155.5477 C   0  0  0  0  0  0  0  0  0  0  0  0
  150.6826  139.0675  154.7728 C   0  0  0  0  0  0  0  0  0  0  0  0
  149.8414  140.2970  154.6316 C   0  0  0  0  0  0  0  0  0  0  0  0
  149.3180  140.6726  153.4626 N   0  0  0  0  0  0  0  0  0  0  0  0
  148.5913  141.7957  153.6398 N   0  0  0  0  0  0  0  0  0  0  0  0
  148.7388  142.0196  154.9443 C   0  0  0  0  0  0  0  0  0  0  0  0
  149.5085  141.1163  155.6231 N   0  0  0  0  0  0  0  0  0  0  0  0
  152.1906  142.6160  158.3609 C   0  0  0  0  0  0  0  0  0  0  0  0
  149.4191  140.2148  152.5676 H   0  0  0  0  0  0  0  0  0  0  0  0
  152.8052  145.3619  158.5520 H   0  0  0  0  0  0  0  0  0  0  0  0
  151.5189  145.7827  159.6798 H   0  0  0  0  0  0  0  0  0  0  0  0
  151.1185  145.1717  158.0794 H   0  0  0  0  0  0  0  0  0  0  0  0
  150.8103  143.4122  159.7979 H   0  0  0  0  0  0  0  0  0  0  0  0
  153.7835  143.7800  160.3701 H   0  0  0  0  0  0  0  0  0  0  0  0
  152.4744  144.1843  161.4542 H   0  0  0  0  0  0  0  0  0  0  0  0
  153.4909  141.9806  162.0328 H   0  0  0  0  0  0  0  0  0  0  0  0
  151.8013  141.8171  161.6199 H   0  0  0  0  0  0  0  0  0  0  0  0
  154.1751  141.2150  159.7939 H   0  0  0  0  0  0  0  0  0  0  0  0
  153.1063  140.0375  160.5184 H   0  0  0  0  0  0  0  0  0  0  0  0
  151.1800  140.9364  159.2443 H   0  0  0  0  0  0  0  0  0  0  0  0
  151.0945  140.8818  156.6235 H   0  0  0  0  0  0  0  0  0  0  0  0
  152.7334  139.7456  154.8810 H   0  0  0  0  0  0  0  0  0  0  0  0
  152.4170  138.3460  155.8769 H   0  0  0  0  0  0  0  0  0  0  0  0
  150.9064  138.6819  153.7777 H   0  0  0  0  0  0  0  0  0  0  0  0
  150.0911  138.2964  155.2684 H   0  0  0  0  0  0  0  0  0  0  0  0
  148.2726  142.8657  155.4274 H   0  0  0  0  0  0  0  0  0  0  0  0
  151.4850  142.6994  157.5327 H   0  0  0  0  0  0  0  0  0  0  0  0
  153.1727  142.8637  157.9535 H   0  0  0  0  0  0  0  0  0  0  0  0
  1  2  1  0  0  0  0
  1 19  1  0  0  0  0
  1 20  1  0  0  0  0
  1 21  1  0  0  0  0
  2 17  1  0  0  0  0
  2  3  1  0  0  0  0
  2 22  1  0  0  0  0
  3  4  1  0  0  0  0
  3 23  1  0  0  0  0
  3 24  1  0  0  0  0
  4  5  1  0  0  0  0
  4 25  1  0  0  0  0
  4 26  1  0  0  0  0
  5  6  1  0  0  0  0
  5 27  1  0  0  0  0
  5 28  1  0  0  0  0
  6  7  1  0  0  0  0
  6 17  1  0  0  0  0
  6 29  1  0  0  0  0
  7  8  2  0  0  0  0
  7  9  1  0  0  0  0
  9 10  1  0  0  0  0
  9 30  1  0  0  0  0
 10 11  1  0  0  0  0
 10 31  1  0  0  0  0
 10 32  1  0  0  0  0
 11 33  1  0  0  0  0
 11 34  1  0  0  0  0
 11 12  1  0  0  0  0
 12 16  2  0  0  0  0
 12 13  1  0  0  0  0
 13 18  1  0  0  0  0
 13 14  1  0  0  0  0
 14 15  2  0  0  0  0
 15 16  1  0  0  0  0
 15 35  1  0  0  0  0
 17 36  1  0  0  0  0
 17 37  1  0  0  0  0
M  END
> <s_m_source_file>
AV-unprocessed.smi

> <i_m_source_file_index>
3032

> <i_lp_mmshare_version>
43012

> <i_f3d_flags>
0

> <s_epik_input>
W0NIM11bQ0BASF0xW0NIMl1bQ0gyXVtDSDJdW0NASF0oW0NIMl0xKUMoPU8pW05IXVtDSDJdW0NIMl1jMm5uW2NIXVtuSF0y

> <s_epik_cmdline>
J2VwaWtfcHl0aG9uJywgJy1waCcsICc3LjAnLCAnLXRuJywgJzgnLCAnLW1hJywgJzIwMCcsICctbWV0YWxfYmluZGluZycsICctaW1hZScsICc8aW5maWxlLm1hZT4nLCAnLW9tYWUnLCAnPG91dGZpbGUubWFlPic=

> <r_lp_tautomer_probability>
0.948284

> <r_epik_Ionization_Penalty>
0.000474052

> <r_epik_Ionization_Penalty_Charging>
0

> <r_epik_Ionization_Penalty_Neutral>
0.000474052

> <r_epik_State_Penalty>
0.271807

> <r_epik_Charging_Adjusted_Penalty>
0.271807

> <i_epik_Tot_Q>
0

> <i_epik_Tot_abs_Q>
0

> <r_epik_Metal_State_Penalty>
0.397201

> <b_epik_Metal_Only>
0

> <s_lp_Force_Field>
OPLS_2005

> <r_lp_Energy>
10.6887

> <b_lp_Chiralities_Consistent>
1

> <s_lp_Variant>
AV-unprocessed.smi:3032-3

> <Gold.Version>
5.8.1

> <Gold.Id.Protein>
6NUR|6NUR_protein|mol2

> <Gold.PLP.Fitness>
44.7259

> <Gold.PLP.PLP>
-36.1380

> <Gold.PLP.part.hbond>
-2.7620

> <Gold.PLP.part.metal>
0.0000

> <Gold.PLP.part.buried>
-2.1230

> <Gold.PLP.part.nonpolar>
-30.8691

> <Gold.PLP.part.repulsive>
0.8037

> <Gold.PLP.ligand.clash>
0.0000

> <Gold.PLP.ligand.torsion>
0.4355

> <Gold.PLP.Chemscore.Hbond>
2.1456

> <Gold.PLP.Chemscore.CHOScore>
1.0000

> <Gold.PLP.Chemscore.Metal>
0.0000

> <Gold.Chemscore.Hbonds>
donor molecule, donor type, donor heavy atom, donor atom, acceptor molecule, acceptor atom, score
      L1  H    13    18       P1  7957  0.75
      P1  H  7997  8009       L1     8  1.00
      P1  H  8011  8017       L1    14  0.06
      L1  C    15    35       P1  8028  0.80

> <Gold.PLP.Chemscore.Internal.Correction>
0.0221

> <Gold.Rescore>
     Score         DG    S(hbond)    S(metal)    S(lipo)     H(rot)  DE(clash)    DE(int)     intcor
     14.92     -16.63       1.93        0.00      89.41       2.25       0.05       1.66       ----

> <Gold.Chemscore.Fitness>
14.9234

> <Gold.Chemscore.DG>
-16.6329

> <Gold.Chemscore.ZeroCoef>
-5.4800

> <Gold.Chemscore.Hbond>
1.9320

> <Gold.Chemscore.Metal>
0.0000

> <Gold.Chemscore.Lipo>
89.4056

> <Gold.Chemscore.Internal_Hbond>
0.0000

> <Gold.Chemscore.DEClash>
0.0474

> <Gold.Chemscore.DEInternal>
1.6620

> <Gold.Chemscore.Rot>
2.2501

> <Gold.Chemscore.Internal.Correction>
   9.000000E+99

> <Gold.Chemscore.Hbonds>
donor molecule, donor type, donor heavy atom, donor atom, acceptor molecule, acceptor atom, score
      L1  H    13    18       P1  7957  0.74
      P1  H  7997  8009       L1     8  0.25

> <Gold.Chemscore.Hbond.Weighted>
-6.4528

> <Gold.Chemscore.Metal.Weighted>
-0.0000

> <Gold.Chemscore.Lipo.Weighted>
-10.4605

> <Gold.Chemscore.Internal_Hbond.Weighted>
0.0000

> <Gold.Chemscore.DEClash.Weighted>
0.0474

> <Gold.Chemscore.DEInternal.Weighted>
1.6620

> <Gold.Chemscore.Rot.Weighted>
5.7603

> <Gold.Chemscore.Internal.Correction.Weighted>
   9.000000E+99

> <Gold.Protein.RotatedTorsions>
[ 6907 6896 6895 6894 ] final -155.92 input  -60.11 | X-H torsion
[ 7974 7965 7964 7962 ] final  -66.95 input  175.53 | X-H torsion
[ 8008 7997 7996 7995 ] final  152.84 input   59.86 | X-H torsion
[ 10167 10162 10161 10158 ] final -173.65 input  -65.29 | X-H torsion
[ 10718 10713 10712 10709 ] final  -45.64 input   66.30 | X-H torsion
[ 10763 10752 10751 10750 ] final   77.46 input  -60.55 | X-H torsion
[ 11005 11000 10999 10996 ] final  100.07 input  -57.11 | X-H torsion

> <Gold.Protein.ActiveResidues>
 VAL166  LYS551  ARG553  GLY616  TRP617  ASP618  TYR619  PRO620  LYS621  CYS622 
 ASP623  PHE694  ASN695  SER759  ASP760  ASP761  ALA762  ILE779  LEU786  VAL792 
 PHE793  MET794  SER795  GLU796  ALA797  LYS798  CYS799  TRP800  GLU811  SER814 

> <Gold.Protein.RotatedAtoms>
  151.2798  133.4215  159.2626 H   0  0  0  0  0  0  0  0  0  0  0  0  # atno 6907 bound_to 6896
  151.0370  134.9581  159.8152 H   0  0  0  0  0  0  0  0  0  0  0  0  # atno 6908 bound_to 6896
  152.5357  134.2758  159.9041 H   0  0  0  0  0  0  0  0  0  0  0  0  # atno 6909 bound_to 6896
  145.7354  140.8978  143.0558 H   0  0  0  0  0  0  0  0  0  0  0  0  # atno 7974 bound_to 7965
  156.2610  140.2010  156.6397 H   0  0  0  0  0  0  0  0  0  0  0  0  # atno 8008 bound_to 7997
  154.6619  140.0560  157.0096 H   0  0  0  0  0  0  0  0  0  0  0  0  # atno 8009 bound_to 7997
  155.1264  140.3229  155.4487 H   0  0  0  0  0  0  0  0  0  0  0  0  # atno 8010 bound_to 7997
  139.5676  144.1717  152.1336 H   0  0  0  0  0  0  0  0  0  0  0  0  # atno 10167 bound_to 10162
  156.2263  130.4169  149.8930 H   0  0  0  0  0  0  0  0  0  0  0  0  # atno 10718 bound_to 10713
  153.0800  135.4913  154.8484 H   0  0  0  0  0  0  0  0  0  0  0  0  # atno 10763 bound_to 10752
  154.7138  135.3025  154.9157 H   0  0  0  0  0  0  0  0  0  0  0  0  # atno 10764 bound_to 10752
  153.9843  135.6786  153.4804 H   0  0  0  0  0  0  0  0  0  0  0  0  # atno 10765 bound_to 10752
  139.8771  134.9124  156.4701 H   0  0  0  0  0  0  0  0  0  0  0  0  # atno 11005 bound_to 11000
  144.6883  139.9387  143.7474 LP  0  0  0  0  0  0  0  0  0  0  0  0  # atno 17320 bound_to 7965
  146.0499  139.3501  143.0646 LP  0  0  0  0  0  0  0  0  0  0  0  0  # atno 17321 bound_to 7965
  140.1244  144.5345  150.6842 LP  0  0  0  0  0  0  0  0  0  0  0  0  # atno 17342 bound_to 10162
  140.6960  143.2404  151.4999 LP  0  0  0  0  0  0  0  0  0  0  0  0  # atno 17343 bound_to 10162
  156.6559  130.8762  151.3539 LP  0  0  0  0  0  0  0  0  0  0  0  0  # atno 17370 bound_to 10713
  157.7112  130.9442  150.1095 LP  0  0  0  0  0  0  0  0  0  0  0  0  # atno 17371 bound_to 10713
  140.8802  133.7923  155.9458 LP  0  0  0  0  0  0  0  0  0  0  0  0  # atno 17394 bound_to 11000
  140.8862  134.2551  157.5118 LP  0  0  0  0  0  0  0  0  0  0  0  0  # atno 17395 bound_to 11000

$$$$
