AV-unprocessed.smi:2296|AV-procd|sdf|9221|dock8
  -GOLD-   2272012443D 1   1.00000     0.00000
 Structure written by MMmdl.
 24 24  0  0  0  0  0  0  0  0  2 V2000
  142.6095  132.4026  150.1785 N   0  3  0  0  0  0  0  0  0  0  0  0
  143.9094  132.3586  149.4812 C   0  0  1  0  0  0  0  0  0  0  0  0
  143.7613  132.8901  148.0453 C   0  0  0  0  0  0  0  0  0  0  0  0
  143.1980  134.1850  148.0597 O   0  0  0  0  0  0  0  0  0  0  0  0
  144.9732  133.1507  150.2661 C   0  0  0  0  0  0  0  0  0  0  0  0
  145.7694  132.2883  151.2301 C   0  0  0  0  0  0  0  0  0  0  0  0
  146.8095  132.8423  152.0051 C   0  0  0  0  0  0  0  0  0  0  0  0
  147.5131  131.9975  152.8875 C   0  0  0  0  0  0  0  0  0  0  0  0
  147.2395  130.6833  153.0313 N   0  0  0  0  0  0  0  0  0  0  0  0
  146.2442  130.1587  152.2846 C   0  0  0  0  0  0  0  0  0  0  0  0
  145.4805  130.9155  151.3730 C   0  0  0  0  0  0  0  0  0  0  0  0
  142.1126  131.5372  150.0244 H   0  0  0  0  0  0  0  0  0  0  0  0
  142.0626  133.1747  149.8247 H   0  0  0  0  0  0  0  0  0  0  0  0
  144.2248  131.3150  149.4326 H   0  0  0  0  0  0  0  0  0  0  0  0
  144.7225  132.9136  147.5303 H   0  0  0  0  0  0  0  0  0  0  0  0
  143.1015  132.2429  147.4664 H   0  0  0  0  0  0  0  0  0  0  0  0
  142.9411  134.3932  148.9458 H   0  0  0  0  0  0  0  0  0  0  0  0
  145.6757  133.6138  149.5716 H   0  0  0  0  0  0  0  0  0  0  0  0
  144.5049  133.9705  150.8128 H   0  0  0  0  0  0  0  0  0  0  0  0
  147.0682  133.8884  151.9282 H   0  0  0  0  0  0  0  0  0  0  0  0
  148.3149  132.3892  153.4956 H   0  0  0  0  0  0  0  0  0  0  0  0
  146.0489  129.1050  152.4186 H   0  0  0  0  0  0  0  0  0  0  0  0
  144.6931  130.4490  150.7989 H   0  0  0  0  0  0  0  0  0  0  0  0
  142.7691  132.5271  151.1682 H   0  0  0  0  0  0  0  0  0  0  0  0
  1  2  1  0  0  0  0
  1 12  1  0  0  0  0
  1 13  1  0  0  0  0
  1 24  1  0  0  0  0
  2  3  1  0  0  0  0
  2  5  1  0  0  0  0
  2 14  1  0  0  0  0
  3  4  1  0  0  0  0
  3 15  1  0  0  0  0
  3 16  1  0  0  0  0
  4 17  1  0  0  0  0
  5  6  1  0  0  0  0
  5 18  1  0  0  0  0
  5 19  1  0  0  0  0
  6 11  1  0  0  0  0
  6  7  2  0  0  0  0
  7  8  1  0  0  0  0
  7 20  1  0  0  0  0
  8  9  2  0  0  0  0
  8 21  1  0  0  0  0
  9 10  1  0  0  0  0
 10 11  2  0  0  0  0
 10 22  1  0  0  0  0
 11 23  1  0  0  0  0
M  CHG  1   1   1
M  END
> <s_m_source_file>
AV-unprocessed.smi

> <i_m_source_file_index>
2296

> <i_lp_mmshare_version>
43012

> <i_f3d_flags>
0

> <s_epik_input>
W09IXVtDSDJdW0NAQEhdKFtOSDJdKVtDSDJdYzFbY0hdW2NIXW5bY0hdW2NIXTE=

> <s_epik_cmdline>
J2VwaWtfcHl0aG9uJywgJy1waCcsICc3LjAnLCAnLXRuJywgJzgnLCAnLW1hJywgJzIwMCcsICctbWV0YWxfYmluZGluZycsICctaW1hZScsICc8aW5maWxlLm1hZT4nLCAnLW9tYWUnLCAnPG91dGZpbGUubWFlPic=

> <r_epik_Ionization_Penalty>
0.0199414

> <r_epik_Ionization_Penalty_Charging>
0.0188044

> <r_epik_Ionization_Penalty_Neutral>
0.00113699

> <r_epik_State_Penalty>
0.00788343

> <r_epik_Charging_Adjusted_Penalty>
0.0266878

> <i_epik_Tot_Q>
1

> <i_epik_Tot_abs_Q>
1

> <r_epik_Metal_State_Penalty>
-0

> <b_epik_Metal_Only>
0

> <s_lp_Force_Field>
OPLS_2005

> <r_lp_Energy>
8.03463

> <b_lp_Chiralities_Consistent>
1

> <s_lp_Variant>
AV-unprocessed.smi:2296-2

> <Gold.Version>
5.8.1

> <Gold.Id.Protein>
6NUR|6NUR_protein|mol2

> <Gold.PLP.Fitness>
41.1470

> <Gold.PLP.PLP>
-28.6641

> <Gold.PLP.part.hbond>
-5.8834

> <Gold.PLP.part.metal>
0.0000

> <Gold.PLP.part.buried>
-2.7079

> <Gold.PLP.part.nonpolar>
-19.9725

> <Gold.PLP.part.repulsive>
0.2303

> <Gold.PLP.ligand.clash>
0.0000

> <Gold.PLP.ligand.torsion>
0.4828

> <Gold.PLP.Chemscore.Hbond>
4.4800

> <Gold.PLP.Chemscore.CHOScore>
0.0000

> <Gold.PLP.Chemscore.Metal>
0.0000

> <Gold.Chemscore.Hbonds>
donor molecule, donor type, donor heavy atom, donor atom, acceptor molecule, acceptor atom, score
      L1  H     1    12       P1 10952  1.00
      L1  H     1    13       P1 10186  2.00
      L1  H     4    17       P1 10186  0.45
      P1  H 10192 10197       L1     4  1.00

> <Gold.PLP.Chemscore.Internal.Correction>
0.0085

> <Gold.Rescore>
     Score         DG    S(hbond)    S(metal)    S(lipo)     H(rot)  DE(clash)    DE(int)     intcor
     18.91     -19.40       3.35        0.00      70.07       2.14       0.05       0.44       ----

> <Gold.Chemscore.Fitness>
18.9102

> <Gold.Chemscore.DG>
-19.4034

> <Gold.Chemscore.ZeroCoef>
-5.4800

> <Gold.Chemscore.Hbond>
3.3547

> <Gold.Chemscore.Metal>
0.0000

> <Gold.Chemscore.Lipo>
70.0723

> <Gold.Chemscore.Internal_Hbond>
0.0000

> <Gold.Chemscore.DEClash>
0.0545

> <Gold.Chemscore.DEInternal>
0.4388

> <Gold.Chemscore.Rot>
2.1405

> <Gold.Chemscore.Internal.Correction>
   9.000000E+99

> <Gold.Chemscore.Hbonds>
donor molecule, donor type, donor heavy atom, donor atom, acceptor molecule, acceptor atom, score
      L1  H     1    12       P1 10952  0.88
      L1  H     1    13       P1 10186  1.00
      L1  H     4    17       P1 10186  0.42
      P1  H 10192 10197       L1     4  0.26

> <Gold.Chemscore.Hbond.Weighted>
-11.2046

> <Gold.Chemscore.Metal.Weighted>
-0.0000

> <Gold.Chemscore.Lipo.Weighted>
-8.1985

> <Gold.Chemscore.Internal_Hbond.Weighted>
0.0000

> <Gold.Chemscore.DEClash.Weighted>
0.0545

> <Gold.Chemscore.DEInternal.Weighted>
0.4388

> <Gold.Chemscore.Rot.Weighted>
5.4797

> <Gold.Chemscore.Internal.Correction.Weighted>
   9.000000E+99

> <Gold.Protein.RotatedTorsions>
[ 6907 6896 6895 6894 ] final -169.94 input  -60.11 | X-H torsion
[ 7974 7965 7964 7962 ] final  -72.18 input  175.53 | X-H torsion
[ 8008 7997 7996 7995 ] final    1.40 input   59.86 | X-H torsion
[ 10167 10162 10161 10158 ] final  -47.68 input  -65.29 | X-H torsion
[ 10718 10713 10712 10709 ] final  -40.86 input   66.30 | X-H torsion
[ 10763 10752 10751 10750 ] final  -50.50 input  -60.55 | X-H torsion
[ 11005 11000 10999 10996 ] final  -52.95 input  -57.11 | X-H torsion

> <Gold.Protein.ActiveResidues>
 VAL166  LYS551  ARG553  GLY616  TRP617  ASP618  TYR619  PRO620  LYS621  CYS622 
 ASP623  PHE694  ASN695  SER759  ASP760  ASP761  ALA762  ILE779  LEU786  VAL792 
 PHE793  MET794  SER795  GLU796  ALA797  LYS798  CYS799  TRP800  GLU811  SER814 

> <Gold.Protein.RotatedAtoms>
  151.4997  133.3507  159.2866 H   0  0  0  0  0  0  0  0  0  0  0  0  # atno 6907 bound_to 6896
  150.8781  134.8169  159.7215 H   0  0  0  0  0  0  0  0  0  0  0  0  # atno 6908 bound_to 6896
  152.4744  134.4891  159.9741 H   0  0  0  0  0  0  0  0  0  0  0  0  # atno 6909 bound_to 6896
  145.6685  140.9229  143.0896 H   0  0  0  0  0  0  0  0  0  0  0  0  # atno 7974 bound_to 7965
  154.6793  140.2629  155.6925 H   0  0  0  0  0  0  0  0  0  0  0  0  # atno 8008 bound_to 7997
  156.2690  140.2813  156.1253 H   0  0  0  0  0  0  0  0  0  0  0  0  # atno 8009 bound_to 7997
  155.1055  140.0375  157.2699 H   0  0  0  0  0  0  0  0  0  0  0  0  # atno 8010 bound_to 7997
  140.6764  143.2774  151.3961 H   0  0  0  0  0  0  0  0  0  0  0  0  # atno 10167 bound_to 10162
  156.2767  130.4212  149.8380 H   0  0  0  0  0  0  0  0  0  0  0  0  # atno 10718 bound_to 10713
  154.1113  135.6548  153.4885 H   0  0  0  0  0  0  0  0  0  0  0  0  # atno 10763 bound_to 10752
  153.0255  135.5248  154.7189 H   0  0  0  0  0  0  0  0  0  0  0  0  # atno 10764 bound_to 10752
  154.6369  135.2983  155.0119 H   0  0  0  0  0  0  0  0  0  0  0  0  # atno 10765 bound_to 10752
  141.0951  133.6626  156.4099 H   0  0  0  0  0  0  0  0  0  0  0  0  # atno 11005 bound_to 11000
  144.7065  139.8541  143.7428 LP  0  0  0  0  0  0  0  0  0  0  0  0  # atno 17320 bound_to 7965
  146.1065  139.4066  143.0314 LP  0  0  0  0  0  0  0  0  0  0  0  0  # atno 17321 bound_to 7965
  139.6060  144.1197  152.2249 LP  0  0  0  0  0  0  0  0  0  0  0  0  # atno 17342 bound_to 10162
  140.0596  144.5867  150.7273 LP  0  0  0  0  0  0  0  0  0  0  0  0  # atno 17343 bound_to 10162
  156.5842  130.8478  151.3391 LP  0  0  0  0  0  0  0  0  0  0  0  0  # atno 17370 bound_to 10713
  157.7301  130.9681  150.1820 LP  0  0  0  0  0  0  0  0  0  0  0  0  # atno 17371 bound_to 10713
  140.5160  134.6350  157.5301 LP  0  0  0  0  0  0  0  0  0  0  0  0  # atno 17394 bound_to 11000
  139.9785  134.7175  155.9903 LP  0  0  0  0  0  0  0  0  0  0  0  0  # atno 17395 bound_to 11000

$$$$
