AV-unprocessed.smi:2453|AV-procd|sdf|9688|dock5
  -GOLD-   2272013323D 1   1.00000     0.00000
 Structure written by MMmdl.
 40 41  0  0  0  0  0  0  0  0  1 V2000
  153.1206  140.7102  159.9256 C   0  0  0  0  0  0  0  0  0  0  0  0
  152.5205  141.9946  159.3804 C   0  0  0  0  0  0  0  0  0  0  0  0
  152.7220  143.2118  160.0660 C   0  0  0  0  0  0  0  0  0  0  0  0
  152.2224  144.3939  159.6508 N   0  0  0  0  0  0  0  0  0  0  0  0
  151.4875  144.4028  158.5201 C   0  0  0  0  0  0  0  0  0  0  0  0
  151.2231  143.2487  157.7575 C   0  0  0  0  0  0  0  0  0  0  0  0
  151.7603  142.0104  158.1855 C   0  0  0  0  0  0  0  0  0  0  0  0
  151.5348  140.7824  157.5013 N   0  0  0  0  0  0  0  0  0  0  0  0
  151.1943  140.5817  156.2166 C   0  0  0  0  0  0  0  0  0  0  0  0
  151.0577  141.4639  155.3693 O   0  0  0  0  0  0  0  0  0  0  0  0
  151.0341  139.2744  155.9642 N   0  0  0  0  0  0  0  0  0  0  0  0
  150.6473  138.6796  154.6829 C   0  0  1  0  0  0  0  0  0  0  0  0
  151.0257  137.1850  154.6597 C   0  0  0  0  0  0  0  0  0  0  0  0
  150.1566  136.3493  155.6150 C   0  0  0  0  0  0  0  0  0  0  0  0
  148.6620  136.5496  155.3245 C   0  0  0  0  0  0  0  0  0  0  0  0
  148.2773  138.0374  155.3694 C   0  0  0  0  0  0  0  0  0  0  0  0
  149.1339  138.8786  154.3985 C   0  0  1  0  0  0  0  0  0  0  0  0
  148.6924  140.3577  154.4061 C   0  0  0  0  0  0  0  0  0  0  0  0
  149.2576  141.0548  153.3157 O   0  0  0  0  0  0  0  0  0  0  0  0
  153.6753  140.8915  160.8468 H   0  0  0  0  0  0  0  0  0  0  0  0
  153.8067  140.2733  159.1997 H   0  0  0  0  0  0  0  0  0  0  0  0
  152.3362  139.9845  160.1420 H   0  0  0  0  0  0  0  0  0  0  0  0
  153.3002  143.2408  160.9778 H   0  0  0  0  0  0  0  0  0  0  0  0
  151.0903  145.3600  158.2162 H   0  0  0  0  0  0  0  0  0  0  0  0
  150.6076  143.3359  156.8757 H   0  0  0  0  0  0  0  0  0  0  0  0
  151.6980  139.9506  158.0491 H   0  0  0  0  0  0  0  0  0  0  0  0
  151.1785  138.6298  156.7272 H   0  0  0  0  0  0  0  0  0  0  0  0
  151.2043  139.1606  153.8771 H   0  0  0  0  0  0  0  0  0  0  0  0
  150.9056  136.8034  153.6450 H   0  0  0  0  0  0  0  0  0  0  0  0
  152.0807  137.0587  154.9060 H   0  0  0  0  0  0  0  0  0  0  0  0
  150.4141  135.2939  155.5217 H   0  0  0  0  0  0  0  0  0  0  0  0
  150.3693  136.6262  156.6481 H   0  0  0  0  0  0  0  0  0  0  0  0
  148.4231  136.1406  154.3419 H   0  0  0  0  0  0  0  0  0  0  0  0
  148.0655  135.9894  156.0452 H   0  0  0  0  0  0  0  0  0  0  0  0
  147.2210  138.1426  155.1200 H   0  0  0  0  0  0  0  0  0  0  0  0
  148.3886  138.4128  156.3874 H   0  0  0  0  0  0  0  0  0  0  0  0
  148.9396  138.4946  153.3954 H   0  0  0  0  0  0  0  0  0  0  0  0
  147.6075  140.4283  154.3236 H   0  0  0  0  0  0  0  0  0  0  0  0
  148.9710  140.8535  155.3363 H   0  0  0  0  0  0  0  0  0  0  0  0
  149.1760  140.5201  152.5406 H   0  0  0  0  0  0  0  0  0  0  0  0
  1  2  1  0  0  0  0
  1 20  1  0  0  0  0
  1 21  1  0  0  0  0
  1 22  1  0  0  0  0
  2  7  1  0  0  0  0
  2  3  2  0  0  0  0
  3  4  1  0  0  0  0
  3 23  1  0  0  0  0
  4  5  2  0  0  0  0
  5  6  1  0  0  0  0
  5 24  1  0  0  0  0
  6  7  2  0  0  0  0
  6 25  1  0  0  0  0
  7  8  1  0  0  0  0
  8  9  1  0  0  0  0
  8 26  1  0  0  0  0
  9 10  2  0  0  0  0
  9 11  1  0  0  0  0
 11 12  1  0  0  0  0
 11 27  1  0  0  0  0
 12 17  1  0  0  0  0
 12 13  1  0  0  0  0
 12 28  1  0  0  0  0
 13 14  1  0  0  0  0
 13 29  1  0  0  0  0
 13 30  1  0  0  0  0
 14 15  1  0  0  0  0
 14 31  1  0  0  0  0
 14 32  1  0  0  0  0
 15 16  1  0  0  0  0
 15 33  1  0  0  0  0
 15 34  1  0  0  0  0
 16 17  1  0  0  0  0
 16 35  1  0  0  0  0
 16 36  1  0  0  0  0
 17 18  1  0  0  0  0
 17 37  1  0  0  0  0
 18 19  1  0  0  0  0
 18 38  1  0  0  0  0
 18 39  1  0  0  0  0
 19 40  1  0  0  0  0
M  END
> <s_m_source_file>
AV-unprocessed.smi

> <i_m_source_file_index>
2453

> <i_lp_mmshare_version>
43012

> <i_f3d_flags>
0

> <s_epik_input>
W0NIM11jMVtjSF1uW2NIXVtjSF1jMVtOSF1DKD1PKVtOSF1bQ0BASF0yW0NIMl1bQ0gyXVtDSDJdW0NIMl1bQ0BIXTJbQ0gyXVtPSF0=

> <s_epik_cmdline>
J2VwaWtfcHl0aG9uJywgJy1waCcsICc3LjAnLCAnLXRuJywgJzgnLCAnLW1hJywgJzIwMCcsICctbWV0YWxfYmluZGluZycsICctaW1hZScsICc8aW5maWxlLm1hZT4nLCAnLW9tYWUnLCAnPG91dGZpbGUubWFlPic=

> <r_epik_Ionization_Penalty>
0.210691

> <r_epik_Ionization_Penalty_Charging>
0

> <r_epik_Ionization_Penalty_Neutral>
0.210691

> <r_epik_State_Penalty>
0.200732

> <r_epik_Charging_Adjusted_Penalty>
0.200732

> <i_epik_Tot_Q>
0

> <i_epik_Tot_abs_Q>
0

> <r_epik_Metal_State_Penalty>
0.147519

> <b_epik_Metal_Only>
0

> <s_lp_Force_Field>
OPLS_2005

> <r_lp_Energy>
17.3761

> <b_lp_Chiralities_Consistent>
1

> <s_lp_Variant>
AV-unprocessed.smi:2453-2

> <Gold.Version>
5.8.1

> <Gold.Id.Protein>
6NUR|6NUR_protein|mol2

> <Gold.PLP.Fitness>
41.1107

> <Gold.PLP.PLP>
-35.9017

> <Gold.PLP.part.hbond>
-3.5601

> <Gold.PLP.part.metal>
0.0000

> <Gold.PLP.part.buried>
-4.3585

> <Gold.PLP.part.nonpolar>
-29.8090

> <Gold.PLP.part.repulsive>
0.2533

> <Gold.PLP.ligand.clash>
0.0000

> <Gold.PLP.ligand.torsion>
0.3881

> <Gold.PLP.Chemscore.Hbond>
1.9893

> <Gold.PLP.Chemscore.CHOScore>
0.0000

> <Gold.PLP.Chemscore.Metal>
0.0000

> <Gold.Chemscore.Hbonds>
donor molecule, donor type, donor heavy atom, donor atom, acceptor molecule, acceptor atom, score
      L1  H    19    40       P1  7957  0.98
      P1  H  7989  7998       L1    10  0.43
      P1  H  8011  8017       L1    19  0.50

> <Gold.PLP.Chemscore.Internal.Correction>
0.0174

> <Gold.Rescore>
     Score         DG    S(hbond)    S(metal)    S(lipo)     H(rot)  DE(clash)    DE(int)     intcor
     13.10     -16.53       1.41        0.00      92.35       1.75       0.76       2.68       ----

> <Gold.Chemscore.Fitness>
13.0961

> <Gold.Chemscore.DG>
-16.5320

> <Gold.Chemscore.ZeroCoef>
-5.4800

> <Gold.Chemscore.Hbond>
1.4146

> <Gold.Chemscore.Metal>
0.0000

> <Gold.Chemscore.Lipo>
92.3531

> <Gold.Chemscore.Internal_Hbond>
0.0000

> <Gold.Chemscore.DEClash>
0.7551

> <Gold.Chemscore.DEInternal>
2.6808

> <Gold.Chemscore.Rot>
1.7493

> <Gold.Chemscore.Internal.Correction>
   9.000000E+99

> <Gold.Chemscore.Hbonds>
donor molecule, donor type, donor heavy atom, donor atom, acceptor molecule, acceptor atom, score
      L1  H    19    40       P1  7957  0.88
      P1  H  7989  7998       L1    10  0.37
      P1  H  8011  8017       L1    19  0.02

> <Gold.Chemscore.Hbond.Weighted>
-4.7248

> <Gold.Chemscore.Metal.Weighted>
-0.0000

> <Gold.Chemscore.Lipo.Weighted>
-10.8053

> <Gold.Chemscore.Internal_Hbond.Weighted>
0.0000

> <Gold.Chemscore.DEClash.Weighted>
0.7551

> <Gold.Chemscore.DEInternal.Weighted>
2.6808

> <Gold.Chemscore.Rot.Weighted>
4.4782

> <Gold.Chemscore.Internal.Correction.Weighted>
   9.000000E+99

> <Gold.Protein.RotatedTorsions>
[ 6907 6896 6895 6894 ] final   37.85 input  -60.11 | X-H torsion
[ 7974 7965 7964 7962 ] final -140.46 input  175.53 | X-H torsion
[ 8008 7997 7996 7995 ] final   81.96 input   59.86 | X-H torsion
[ 10167 10162 10161 10158 ] final -153.29 input  -65.29 | X-H torsion
[ 10718 10713 10712 10709 ] final -131.22 input   66.30 | X-H torsion
[ 10763 10752 10751 10750 ] final -108.79 input  -60.55 | X-H torsion
[ 11005 11000 10999 10996 ] final   64.02 input  -57.11 | X-H torsion

> <Gold.Protein.ActiveResidues>
 VAL166  LYS551  ARG553  GLY616  TRP617  ASP618  TYR619  PRO620  LYS621  CYS622 
 ASP623  PHE694  ASN695  SER759  ASP760  ASP761  ALA762  ILE779  LEU786  VAL792 
 PHE793  MET794  SER795  GLU796  ALA797  LYS798  CYS799  TRP800  GLU811  SER814 

> <Gold.Protein.RotatedAtoms>
  152.1487  134.9006  160.0549 H   0  0  0  0  0  0  0  0  0  0  0  0  # atno 6907 bound_to 6896
  152.0046  133.3833  159.4203 H   0  0  0  0  0  0  0  0  0  0  0  0  # atno 6908 bound_to 6896
  150.6873  134.3719  159.5039 H   0  0  0  0  0  0  0  0  0  0  0  0  # atno 6909 bound_to 6896
  144.8595  140.6197  143.5337 H   0  0  0  0  0  0  0  0  0  0  0  0  # atno 7974 bound_to 7965
  155.9042  140.3431  155.6049 H   0  0  0  0  0  0  0  0  0  0  0  0  # atno 8008 bound_to 7997
  155.7464  140.0814  157.2241 H   0  0  0  0  0  0  0  0  0  0  0  0  # atno 8009 bound_to 7997
  154.4047  140.1561  156.2661 H   0  0  0  0  0  0  0  0  0  0  0  0  # atno 8010 bound_to 7997
  139.7110  143.9109  152.2468 H   0  0  0  0  0  0  0  0  0  0  0  0  # atno 10167 bound_to 10162
  156.2223  130.6986  151.0769 H   0  0  0  0  0  0  0  0  0  0  0  0  # atno 10718 bound_to 10713
  154.8156  135.4625  154.0635 H   0  0  0  0  0  0  0  0  0  0  0  0  # atno 10763 bound_to 10752
  153.2030  135.6871  153.8214 H   0  0  0  0  0  0  0  0  0  0  0  0  # atno 10764 bound_to 10752
  153.7692  135.3272  155.3326 H   0  0  0  0  0  0  0  0  0  0  0  0  # atno 10765 bound_to 10752
  139.9986  134.6477  155.9968 H   0  0  0  0  0  0  0  0  0  0  0  0  # atno 11005 bound_to 11000
  145.4339  139.1545  143.4007 LP  0  0  0  0  0  0  0  0  0  0  0  0  # atno 17320 bound_to 7965
  146.2850  140.4457  142.8761 LP  0  0  0  0  0  0  0  0  0  0  0  0  # atno 17321 bound_to 7965
  139.8978  144.6929  150.8698 LP  0  0  0  0  0  0  0  0  0  0  0  0  # atno 17342 bound_to 10162
  140.7733  143.3537  151.1964 LP  0  0  0  0  0  0  0  0  0  0  0  0  # atno 17343 bound_to 10162
  157.7093  131.0741  150.6556 LP  0  0  0  0  0  0  0  0  0  0  0  0  # atno 17370 bound_to 10713
  156.6620  130.4515  149.5684 LP  0  0  0  0  0  0  0  0  0  0  0  0  # atno 17371 bound_to 10713
  141.1624  133.6538  156.4365 LP  0  0  0  0  0  0  0  0  0  0  0  0  # atno 17394 bound_to 11000
  140.4770  134.6700  157.5154 LP  0  0  0  0  0  0  0  0  0  0  0  0  # atno 17395 bound_to 11000

$$$$
