AV-unprocessed.smi:1069|AV-procd|sdf|4675|dock3
  -GOLD-   22720 3193D 1   1.00000     0.00000
 Structure written by MMmdl.
 54 55  0  0  0  0  0  0  0  0  1 V2000
  144.0271  132.7337  149.8696 C   0  0  0  0  0  0  0  0  0  0  0  0
  145.0604  133.5895  150.6209 C   0  0  0  0  0  0  0  0  0  0  0  0
  146.1398  132.7003  151.2665 C   0  0  0  0  0  0  0  0  0  0  0  0
  144.3620  134.4855  151.6667 C   0  0  0  0  0  0  0  0  0  0  0  0
  143.7310  133.9379  152.5728 O   0  0  0  0  0  0  0  0  0  0  0  0
  144.4814  135.8354  151.5940 N   0  0  0  0  0  0  0  0  0  0  0  0
  144.0469  136.7259  152.6771 C   0  0  0  0  0  0  0  0  0  0  0  0
  145.2972  137.3207  153.3516 C   0  0  0  0  0  0  0  0  0  0  0  0
  146.2060  138.0402  152.3301 C   0  0  0  0  0  0  0  0  0  0  0  0
  147.4642  138.4098  152.9716 N   0  0  0  0  0  0  0  0  0  0  0  0
  147.6079  139.3594  153.9066 C   0  0  0  0  0  0  0  0  0  0  0  0
  146.6764  140.0472  154.3220 O   0  0  0  0  0  0  0  0  0  0  0  0
  148.8878  139.4528  154.3056 N   0  0  0  0  0  0  0  0  0  0  0  0
  149.4614  140.3121  155.2819 C   0  0  0  0  0  0  0  0  0  0  0  0
  148.6030  141.0793  156.0945 C   0  0  0  0  0  0  0  0  0  0  0  0
  149.0725  141.9251  157.0352 N   0  0  0  0  0  0  0  0  0  0  0  0
  150.3997  141.9958  157.2007 C   0  0  0  0  0  0  0  0  0  0  0  0
  150.9325  143.0660  158.1694 C   0  0  0  0  0  0  0  0  0  0  0  0
  151.7377  144.1489  157.4133 C   0  0  0  0  0  0  0  0  0  0  0  0
  151.9082  142.4494  159.1992 C   0  0  0  0  0  0  0  0  0  0  0  0
  149.7521  143.7226  158.9081 C   0  0  0  0  0  0  0  0  0  0  0  0
  151.3023  141.3480  156.4528 N   0  0  0  0  0  0  0  0  0  0  0  0
  150.8467  140.4980  155.5078 C   0  0  0  0  0  0  0  0  0  0  0  0
  146.4645  137.1635  151.0817 C   0  0  0  0  0  0  0  0  0  0  0  0
  145.1474  136.5936  150.5281 C   0  0  0  0  0  0  0  0  0  0  0  0
  143.2671  133.3506  149.3890 H   0  0  0  0  0  0  0  0  0  0  0  0
  143.5164  132.0434  150.5427 H   0  0  0  0  0  0  0  0  0  0  0  0
  144.5057  132.1406  149.0900 H   0  0  0  0  0  0  0  0  0  0  0  0
  145.5948  134.2145  149.9070 H   0  0  0  0  0  0  0  0  0  0  0  0
  146.8560  133.2945  151.8355 H   0  0  0  0  0  0  0  0  0  0  0  0
  146.7005  132.1573  150.5053 H   0  0  0  0  0  0  0  0  0  0  0  0
  145.7060  131.9616  151.9416 H   0  0  0  0  0  0  0  0  0  0  0  0
  143.4232  137.5226  152.2692 H   0  0  0  0  0  0  0  0  0  0  0  0
  143.4311  136.2224  153.4232 H   0  0  0  0  0  0  0  0  0  0  0  0
  145.0010  138.0120  154.1414 H   0  0  0  0  0  0  0  0  0  0  0  0
  145.8522  136.5166  153.8378 H   0  0  0  0  0  0  0  0  0  0  0  0
  145.6883  138.9474  152.0120 H   0  0  0  0  0  0  0  0  0  0  0  0
  148.2855  137.8970  152.6862 H   0  0  0  0  0  0  0  0  0  0  0  0
  149.5396  138.8386  153.8399 H   0  0  0  0  0  0  0  0  0  0  0  0
  147.5298  141.0219  155.9863 H   0  0  0  0  0  0  0  0  0  0  0  0
  152.1577  144.8841  158.1006 H   0  0  0  0  0  0  0  0  0  0  0  0
  151.1177  144.7000  156.7052 H   0  0  0  0  0  0  0  0  0  0  0  0
  152.5666  143.7108  156.8562 H   0  0  0  0  0  0  0  0  0  0  0  0
  152.7435  141.9511  158.7057 H   0  0  0  0  0  0  0  0  0  0  0  0
  151.4175  141.7161  159.8400 H   0  0  0  0  0  0  0  0  0  0  0  0
  152.3253  143.2123  159.8577 H   0  0  0  0  0  0  0  0  0  0  0  0
  150.0944  144.4887  159.6045 H   0  0  0  0  0  0  0  0  0  0  0  0
  149.1845  142.9877  159.4797 H   0  0  0  0  0  0  0  0  0  0  0  0
  149.0629  144.1977  158.2091 H   0  0  0  0  0  0  0  0  0  0  0  0
  151.6110  139.9958  154.9373 H   0  0  0  0  0  0  0  0  0  0  0  0
  146.9694  137.7449  150.3095 H   0  0  0  0  0  0  0  0  0  0  0  0
  147.1334  136.3397  151.3361 H   0  0  0  0  0  0  0  0  0  0  0  0
  145.3242  136.0184  149.6214 H   0  0  0  0  0  0  0  0  0  0  0  0
  144.4984  137.4123  150.2137 H   0  0  0  0  0  0  0  0  0  0  0  0
  1  2  1  0  0  0  0
  1 26  1  0  0  0  0
  1 27  1  0  0  0  0
  1 28  1  0  0  0  0
  2  3  1  0  0  0  0
  2  4  1  0  0  0  0
  2 29  1  0  0  0  0
  3 30  1  0  0  0  0
  3 31  1  0  0  0  0
  3 32  1  0  0  0  0
  4  5  2  0  0  0  0
  4  6  1  0  0  0  0
  6 25  1  0  0  0  0
  6  7  1  0  0  0  0
  7  8  1  0  0  0  0
  7 33  1  0  0  0  0
  7 34  1  0  0  0  0
  8  9  1  0  0  0  0
  8 35  1  0  0  0  0
  8 36  1  0  0  0  0
  9 10  1  0  0  0  0
  9 24  1  0  0  0  0
  9 37  1  0  0  0  0
 10 11  1  0  0  0  0
 10 38  1  0  0  0  0
 11 12  2  0  0  0  0
 11 13  1  0  0  0  0
 13 14  1  0  0  0  0
 13 39  1  0  0  0  0
 14 23  1  0  0  0  0
 14 15  2  0  0  0  0
 15 16  1  0  0  0  0
 15 40  1  0  0  0  0
 16 17  2  0  0  0  0
 17 18  1  0  0  0  0
 17 22  1  0  0  0  0
 18 19  1  0  0  0  0
 18 20  1  0  0  0  0
 18 21  1  0  0  0  0
 19 41  1  0  0  0  0
 19 42  1  0  0  0  0
 19 43  1  0  0  0  0
 20 44  1  0  0  0  0
 20 45  1  0  0  0  0
 20 46  1  0  0  0  0
 21 47  1  0  0  0  0
 21 48  1  0  0  0  0
 21 49  1  0  0  0  0
 22 23  2  0  0  0  0
 23 50  1  0  0  0  0
 24 25  1  0  0  0  0
 24 51  1  0  0  0  0
 24 52  1  0  0  0  0
 25 53  1  0  0  0  0
 25 54  1  0  0  0  0
M  END
> <s_m_source_file>
AV-unprocessed.smi

> <i_m_source_file_index>
1069

> <i_lp_mmshare_version>
43012

> <i_f3d_flags>
0

> <s_epik_input>
W0NIM11bQ0hdKFtDSDNdKUMoPU8pTjFbQ0gyXVtDSDJdW0NIXShbQ0gyXVtDSDJdMSlbTkhdQyg9TylbTkhdYzJbY0hdbmMoQyhbQ0gzXSkoW0NIM10pW0NIM10pbltjSF0y

> <s_epik_cmdline>
J2VwaWtfcHl0aG9uJywgJy1waCcsICc3LjAnLCAnLXRuJywgJzgnLCAnLW1hJywgJzIwMCcsICctbWV0YWxfYmluZGluZycsICctaW1hZScsICc8aW5maWxlLm1hZT4nLCAnLW9tYWUnLCAnPG91dGZpbGUubWFlPic=

> <r_lp_tautomer_probability>
1

> <r_epik_Ionization_Penalty>
2.58562e-05

> <r_epik_Ionization_Penalty_Charging>
0

> <r_epik_Ionization_Penalty_Neutral>
2.58562e-05

> <r_epik_State_Penalty>
-0

> <r_epik_Charging_Adjusted_Penalty>
0

> <i_epik_Tot_Q>
0

> <i_epik_Tot_abs_Q>
0

> <r_epik_Metal_State_Penalty>
-0

> <b_epik_Metal_Only>
0

> <s_lp_Force_Field>
OPLS_2005

> <r_lp_Energy>
23.7976

> <b_lp_Chiralities_Consistent>
1

> <s_lp_Variant>
AV-unprocessed.smi:1069-1

> <Gold.Version>
5.8.1

> <Gold.Id.Protein>
6NUR|6NUR_protein|mol2

> <Gold.PLP.Fitness>
39.6333

> <Gold.PLP.PLP>
-37.1811

> <Gold.PLP.part.hbond>
-1.5582

> <Gold.PLP.part.metal>
0.0000

> <Gold.PLP.part.buried>
2.9538

> <Gold.PLP.part.nonpolar>
-40.1527

> <Gold.PLP.part.repulsive>
0.6819

> <Gold.PLP.ligand.clash>
0.0000

> <Gold.PLP.ligand.torsion>
0.2808

> <Gold.PLP.Chemscore.Hbond>
0.9280

> <Gold.PLP.Chemscore.CHOScore>
0.0000

> <Gold.PLP.Chemscore.Metal>
0.0000

> <Gold.Chemscore.Hbonds>
donor molecule, donor type, donor heavy atom, donor atom, acceptor molecule, acceptor atom, score
      L1  H    10    38       P1  7948  0.93

> <Gold.PLP.Chemscore.Internal.Correction>
0.2296

> <Gold.Rescore>
     Score         DG    S(hbond)    S(metal)    S(lipo)     H(rot)  DE(clash)    DE(int)     intcor
     13.47     -18.01       0.93        0.00     109.66       1.34       2.91       1.63       ----

> <Gold.Chemscore.Fitness>
13.4688

> <Gold.Chemscore.DG>
-18.0059

> <Gold.Chemscore.ZeroCoef>
-5.4800

> <Gold.Chemscore.Hbond>
0.9335

> <Gold.Chemscore.Metal>
0.0000

> <Gold.Chemscore.Lipo>
109.6571

> <Gold.Chemscore.Internal_Hbond>
0.0000

> <Gold.Chemscore.DEClash>
2.9064

> <Gold.Chemscore.DEInternal>
1.6307

> <Gold.Chemscore.Rot>
1.3366

> <Gold.Chemscore.Internal.Correction>
   9.000000E+99

> <Gold.Chemscore.Hbonds>
donor molecule, donor type, donor heavy atom, donor atom, acceptor molecule, acceptor atom, score
      L1  H    10    38       P1  7948  0.88

> <Gold.Chemscore.Hbond.Weighted>
-3.1178

> <Gold.Chemscore.Metal.Weighted>
-0.0000

> <Gold.Chemscore.Lipo.Weighted>
-12.8299

> <Gold.Chemscore.Internal_Hbond.Weighted>
0.0000

> <Gold.Chemscore.DEClash.Weighted>
2.9064

> <Gold.Chemscore.DEInternal.Weighted>
1.6307

> <Gold.Chemscore.Rot.Weighted>
3.4217

> <Gold.Chemscore.Internal.Correction.Weighted>
   9.000000E+99

> <Gold.Protein.RotatedTorsions>
[ 6907 6896 6895 6894 ] final -132.62 input  -60.11 | X-H torsion
[ 7974 7965 7964 7962 ] final -109.08 input  175.53 | X-H torsion
[ 8008 7997 7996 7995 ] final  -86.65 input   59.86 | X-H torsion
[ 10167 10162 10161 10158 ] final   20.13 input  -65.29 | X-H torsion
[ 10718 10713 10712 10709 ] final -157.30 input   66.30 | X-H torsion
[ 10763 10752 10751 10750 ] final -171.21 input  -60.55 | X-H torsion
[ 11005 11000 10999 10996 ] final   14.54 input  -57.11 | X-H torsion

> <Gold.Protein.ActiveResidues>
 VAL166  LYS551  ARG553  GLY616  TRP617  ASP618  TYR619  PRO620  LYS621  CYS622 
 ASP623  PHE694  ASN695  SER759  ASP760  ASP761  ALA762  ILE779  LEU786  VAL792 
 PHE793  MET794  SER795  GLU796  ALA797  LYS798  CYS799  TRP800  GLU811  SER814 

> <Gold.Protein.RotatedAtoms>
  150.9645  133.6410  159.2748 H   0  0  0  0  0  0  0  0  0  0  0  0  # atno 6907 bound_to 6896
  151.3720  135.0923  159.9478 H   0  0  0  0  0  0  0  0  0  0  0  0  # atno 6908 bound_to 6896
  152.5160  133.9197  159.7583 H   0  0  0  0  0  0  0  0  0  0  0  0  # atno 6909 bound_to 6896
  145.1849  140.8988  143.3458 H   0  0  0  0  0  0  0  0  0  0  0  0  # atno 7974 bound_to 7965
  154.6543  140.0575  156.9991 H   0  0  0  0  0  0  0  0  0  0  0  0  # atno 8008 bound_to 7997
  155.1323  140.3257  155.4452 H   0  0  0  0  0  0  0  0  0  0  0  0  # atno 8009 bound_to 7997
  156.2590  140.1978  156.6442 H   0  0  0  0  0  0  0  0  0  0  0  0  # atno 8010 bound_to 7997
  140.5527  143.9480  150.6589 H   0  0  0  0  0  0  0  0  0  0  0  0  # atno 10167 bound_to 10162
  156.5384  130.8552  151.2740 H   0  0  0  0  0  0  0  0  0  0  0  0  # atno 10718 bound_to 10713
  154.6330  135.2889  155.0194 H   0  0  0  0  0  0  0  0  0  0  0  0  # atno 10763 bound_to 10752
  154.1348  135.6528  153.4933 H   0  0  0  0  0  0  0  0  0  0  0  0  # atno 10764 bound_to 10752
  153.0289  135.5319  154.7165 H   0  0  0  0  0  0  0  0  0  0  0  0  # atno 10765 bound_to 10752
  140.4683  134.1057  155.7728 H   0  0  0  0  0  0  0  0  0  0  0  0  # atno 11005 bound_to 11000
  145.0098  139.3520  143.6125 LP  0  0  0  0  0  0  0  0  0  0  0  0  # atno 17320 bound_to 7965
  146.3446  139.9356  142.8747 LP  0  0  0  0  0  0  0  0  0  0  0  0  # atno 17321 bound_to 7965
  140.2910  143.3324  152.1062 LP  0  0  0  0  0  0  0  0  0  0  0  0  # atno 17342 bound_to 10162
  139.5034  144.6755  151.6139 LP  0  0  0  0  0  0  0  0  0  0  0  0  # atno 17343 bound_to 10162
  157.7409  130.9860  150.2412 LP  0  0  0  0  0  0  0  0  0  0  0  0  # atno 17370 bound_to 10713
  156.2994  130.3756  149.7765 LP  0  0  0  0  0  0  0  0  0  0  0  0  # atno 17371 bound_to 10713
  141.1589  133.8831  157.1903 LP  0  0  0  0  0  0  0  0  0  0  0  0  # atno 17394 bound_to 11000
  139.9901  135.0068  156.9955 LP  0  0  0  0  0  0  0  0  0  0  0  0  # atno 17395 bound_to 11000

$$$$
