AV-unprocessed.smi:3102|AV-procd|sdf|11812|dock2
  -GOLD-   2272017183D 1   1.00000     0.00000
 Structure written by MMmdl.
 31 32  0  0  0  0  0  0  0  0  1 V2000
  153.2894  141.9242  160.0491 C   0  0  0  0  0  0  0  0  0  0  0  0
  153.3719  140.8227  159.1514 O   0  0  0  0  0  0  0  0  0  0  0  0
  152.4557  140.7467  158.1225 C   0  0  0  0  0  0  0  0  0  0  0  0
  151.3021  141.5508  158.1854 C   0  0  0  0  0  0  0  0  0  0  0  0
  150.3638  141.4744  157.1396 C   0  0  0  0  0  0  0  0  0  0  0  0
  150.6016  140.5942  156.0574 C   0  0  0  0  0  0  0  0  0  0  0  0
  149.7126  140.4604  154.9775 N   0  0  0  0  0  0  0  0  0  0  0  0
  148.6950  141.4653  154.6969 C   0  0  2  0  0  0  0  0  0  0  0  0
  147.6785  141.6304  155.8102 C   0  0  0  0  0  0  0  0  0  0  0  0
  146.5196  142.2927  155.0718 C   0  0  0  0  0  0  0  0  0  0  0  0
  146.5763  141.7990  153.7356 O   0  0  0  0  0  0  0  0  0  0  0  0
  147.7861  141.0739  153.5337 C   0  0  0  0  0  0  0  0  0  0  0  0
  151.7954  139.8316  156.0862 C   0  0  0  0  0  0  0  0  0  0  0  0
  152.1433  138.8613  154.9705 C   0  0  0  0  0  0  0  0  0  0  0  0
  152.6973  139.9031  157.0899 N   0  0  0  0  0  0  0  0  0  0  0  0
  154.0778  141.8399  160.7970 H   0  0  0  0  0  0  0  0  0  0  0  0
  152.3343  141.9393  160.5760 H   0  0  0  0  0  0  0  0  0  0  0  0
  153.4269  142.8735  159.5294 H   0  0  0  0  0  0  0  0  0  0  0  0
  151.1392  142.2148  159.0212 H   0  0  0  0  0  0  0  0  0  0  0  0
  149.4806  142.0929  157.1860 H   0  0  0  0  0  0  0  0  0  0  0  0
  149.5935  139.5466  154.5637 H   0  0  0  0  0  0  0  0  0  0  0  0
  149.1592  142.4248  154.4658 H   0  0  0  0  0  0  0  0  0  0  0  0
  147.3668  140.6568  156.1923 H   0  0  0  0  0  0  0  0  0  0  0  0
  148.0414  142.2253  156.6485 H   0  0  0  0  0  0  0  0  0  0  0  0
  145.5560  142.0802  155.5353 H   0  0  0  0  0  0  0  0  0  0  0  0
  146.6528  143.3748  155.0472 H   0  0  0  0  0  0  0  0  0  0  0  0
  148.2290  141.2948  152.5623 H   0  0  0  0  0  0  0  0  0  0  0  0
  147.5510  140.0086  153.5641 H   0  0  0  0  0  0  0  0  0  0  0  0
  151.3731  138.0947  154.8803 H   0  0  0  0  0  0  0  0  0  0  0  0
  153.0952  138.3617  155.1552 H   0  0  0  0  0  0  0  0  0  0  0  0
  152.2198  139.3883  154.0190 H   0  0  0  0  0  0  0  0  0  0  0  0
  1  2  1  0  0  0  0
  1 16  1  0  0  0  0
  1 17  1  0  0  0  0
  1 18  1  0  0  0  0
  2  3  1  0  0  0  0
  3 15  1  0  0  0  0
  3  4  2  0  0  0  0
  4  5  1  0  0  0  0
  4 19  1  0  0  0  0
  5  6  2  0  0  0  0
  5 20  1  0  0  0  0
  6  7  1  0  0  0  0
  6 13  1  0  0  0  0
  7  8  1  0  0  0  0
  7 21  1  0  0  0  0
  8 12  1  0  0  0  0
  8  9  1  0  0  0  0
  8 22  1  0  0  0  0
  9 10  1  0  0  0  0
  9 23  1  0  0  0  0
  9 24  1  0  0  0  0
 10 11  1  0  0  0  0
 10 25  1  0  0  0  0
 10 26  1  0  0  0  0
 11 12  1  0  0  0  0
 12 27  1  0  0  0  0
 12 28  1  0  0  0  0
 13 14  1  0  0  0  0
 13 15  2  0  0  0  0
 14 29  1  0  0  0  0
 14 30  1  0  0  0  0
 14 31  1  0  0  0  0
M  END
> <s_m_source_file>
AV-unprocessed.smi

> <i_m_source_file_index>
3102

> <i_lp_mmshare_version>
43012

> <i_f3d_flags>
0

> <s_epik_input>
W0NIM11PYzFbY0hdW2NIXWMoYyhuMSlbQ0gzXSlbTkhdW0NAQEhdMltDSDJdW0NIMl1PW0NIMl0y

> <s_epik_cmdline>
J2VwaWtfcHl0aG9uJywgJy1waCcsICc3LjAnLCAnLXRuJywgJzgnLCAnLW1hJywgJzIwMCcsICctbWV0YWxfYmluZGluZycsICctaW1hZScsICc8aW5maWxlLm1hZT4nLCAnLW9tYWUnLCAnPG91dGZpbGUubWFlPic=

> <r_lp_tautomer_probability>
1

> <r_epik_Ionization_Penalty>
0.00117248

> <r_epik_Ionization_Penalty_Charging>
0

> <r_epik_Ionization_Penalty_Neutral>
0.00117248

> <r_epik_State_Penalty>
0.000742146

> <r_epik_Charging_Adjusted_Penalty>
0.000742146

> <i_epik_Tot_Q>
0

> <i_epik_Tot_abs_Q>
0

> <r_epik_Metal_State_Penalty>
-0

> <b_epik_Metal_Only>
0

> <s_lp_Force_Field>
OPLS_2005

> <r_lp_Energy>
20.6196

> <b_lp_Chiralities_Consistent>
1

> <s_lp_Variant>
AV-unprocessed.smi:3102-1

> <Gold.Version>
5.8.1

> <Gold.Id.Protein>
6NUR|6NUR_protein|mol2

> <Gold.PLP.Fitness>
31.5409

> <Gold.PLP.PLP>
-29.0673

> <Gold.PLP.part.hbond>
-1.0000

> <Gold.PLP.part.metal>
0.0000

> <Gold.PLP.part.buried>
-2.9764

> <Gold.PLP.part.nonpolar>
-24.9197

> <Gold.PLP.part.repulsive>
0.3389

> <Gold.PLP.ligand.clash>
0.0019

> <Gold.PLP.ligand.torsion>
0.2725

> <Gold.PLP.Chemscore.Hbond>
1.0000

> <Gold.PLP.Chemscore.CHOScore>
0.0000

> <Gold.PLP.Chemscore.Metal>
0.0000

> <Gold.Chemscore.Hbonds>
donor molecule, donor type, donor heavy atom, donor atom, acceptor molecule, acceptor atom, score
      P1  H  7997  8010       L1    15  1.00

> <Gold.PLP.Chemscore.Internal.Correction>
0.0206

> <Gold.Rescore>
     Score         DG    S(hbond)    S(metal)    S(lipo)     H(rot)  DE(clash)    DE(int)     intcor
     12.51     -12.90       0.82        0.00      65.96       1.18       0.12       0.27       ----

> <Gold.Chemscore.Fitness>
12.5079

> <Gold.Chemscore.DG>
-12.8980

> <Gold.Chemscore.ZeroCoef>
-5.4800

> <Gold.Chemscore.Hbond>
0.8183

> <Gold.Chemscore.Metal>
0.0000

> <Gold.Chemscore.Lipo>
65.9634

> <Gold.Chemscore.Internal_Hbond>
0.0000

> <Gold.Chemscore.DEClash>
0.1244

> <Gold.Chemscore.DEInternal>
0.2657

> <Gold.Chemscore.Rot>
1.1847

> <Gold.Chemscore.Internal.Correction>
   9.000000E+99

> <Gold.Chemscore.Hbonds>
donor molecule, donor type, donor heavy atom, donor atom, acceptor molecule, acceptor atom, score
      P1  H  7997  8010       L1    15  0.63

> <Gold.Chemscore.Hbond.Weighted>
-2.7331

> <Gold.Chemscore.Metal.Weighted>
-0.0000

> <Gold.Chemscore.Lipo.Weighted>
-7.7177

> <Gold.Chemscore.Internal_Hbond.Weighted>
0.0000

> <Gold.Chemscore.DEClash.Weighted>
0.1244

> <Gold.Chemscore.DEInternal.Weighted>
0.2657

> <Gold.Chemscore.Rot.Weighted>
3.0328

> <Gold.Chemscore.Internal.Correction.Weighted>
   9.000000E+99

> <Gold.Protein.RotatedTorsions>
[ 6907 6896 6895 6894 ] final  -74.12 input  -60.11 | X-H torsion
[ 7974 7965 7964 7962 ] final  -14.63 input  175.53 | X-H torsion
[ 8008 7997 7996 7995 ] final   70.17 input   59.86 | X-H torsion
[ 10167 10162 10161 10158 ] final  165.04 input  -65.29 | X-H torsion
[ 10718 10713 10712 10709 ] final  -60.80 input   66.30 | X-H torsion
[ 10763 10752 10751 10750 ] final -107.33 input  -60.55 | X-H torsion
[ 11005 11000 10999 10996 ] final  -49.47 input  -57.11 | X-H torsion

> <Gold.Protein.ActiveResidues>
 VAL166  LYS551  ARG553  GLY616  TRP617  ASP618  TYR619  PRO620  LYS621  CYS622 
 ASP623  PHE694  ASN695  SER759  ASP760  ASP761  ALA762  ILE779  LEU786  VAL792 
 PHE793  MET794  SER795  GLU796  ALA797  LYS798  CYS799  TRP800  GLU811  SER814 

> <Gold.Protein.RotatedAtoms>
  150.7104  134.4915  159.5517 H   0  0  0  0  0  0  0  0  0  0  0  0  # atno 6907 bound_to 6896
  152.2532  134.8108  160.0452 H   0  0  0  0  0  0  0  0  0  0  0  0  # atno 6908 bound_to 6896
  151.8848  133.3468  159.3815 H   0  0  0  0  0  0  0  0  0  0  0  0  # atno 6909 bound_to 6896
  146.2066  140.3376  142.8405 H   0  0  0  0  0  0  0  0  0  0  0  0  # atno 7974 bound_to 7965
  155.7348  140.3491  155.5076 H   0  0  0  0  0  0  0  0  0  0  0  0  # atno 8008 bound_to 7997
  155.9149  140.1057  157.1272 H   0  0  0  0  0  0  0  0  0  0  0  0  # atno 8009 bound_to 7997
  154.4061  140.1260  156.4592 H   0  0  0  0  0  0  0  0  0  0  0  0  # atno 8010 bound_to 7997
  139.4899  144.4173  151.9229 H   0  0  0  0  0  0  0  0  0  0  0  0  # atno 10167 bound_to 10162
  156.0966  130.4192  150.0904 H   0  0  0  0  0  0  0  0  0  0  0  0  # atno 10718 bound_to 10713
  154.8068  135.4679  154.0413 H   0  0  0  0  0  0  0  0  0  0  0  0  # atno 10763 bound_to 10752
  153.1875  135.6850  153.8402 H   0  0  0  0  0  0  0  0  0  0  0  0  # atno 10764 bound_to 10752
  153.7931  135.3240  155.3358 H   0  0  0  0  0  0  0  0  0  0  0  0  # atno 10765 bound_to 10752
  141.0761  133.6665  156.3590 H   0  0  0  0  0  0  0  0  0  0  0  0  # atno 11005 bound_to 11000
  144.8808  140.7397  143.5988 LP  0  0  0  0  0  0  0  0  0  0  0  0  # atno 17320 bound_to 7965
  145.3297  139.1763  143.4543 LP  0  0  0  0  0  0  0  0  0  0  0  0  # atno 17321 bound_to 7965
  140.3616  144.2966  150.5933 LP  0  0  0  0  0  0  0  0  0  0  0  0  # atno 17342 bound_to 10162
  140.5398  143.2226  151.8103 LP  0  0  0  0  0  0  0  0  0  0  0  0  # atno 17343 bound_to 10162
  156.8902  130.9586  151.3589 LP  0  0  0  0  0  0  0  0  0  0  0  0  # atno 17370 bound_to 10713
  157.6127  130.8595  149.8978 LP  0  0  0  0  0  0  0  0  0  0  0  0  # atno 17371 bound_to 10713
  140.5571  134.5971  157.5423 LP  0  0  0  0  0  0  0  0  0  0  0  0  # atno 17394 bound_to 11000
  139.9573  134.7513  156.0313 LP  0  0  0  0  0  0  0  0  0  0  0  0  # atno 17395 bound_to 11000

$$$$
