AV-unprocessed.smi:3100|AV-procd|sdf|11804|dock3
  -GOLD-   2272017183D 1   1.00000     0.00000
 Structure written by MMmdl.
 28 29  0  0  0  0  0  0  0  0  1 V2000
  152.2365  143.6292  161.5968 C   0  0  0  0  0  0  0  0  0  0  0  0
  152.2494  143.2088  160.1238 C   0  0  2  0  0  0  0  0  0  0  0  0
  152.5341  144.3456  159.1500 C   0  0  0  0  0  0  0  0  0  0  0  0
  151.9656  143.8158  157.8453 C   0  0  0  0  0  0  0  0  0  0  0  0
  150.8943  142.7964  158.2852 C   0  0  1  0  0  0  0  0  0  0  0  0
  151.1205  141.3821  157.7200 C   0  0  0  0  0  0  0  0  0  0  0  0
  151.4423  140.4705  158.4828 O   0  0  0  0  0  0  0  0  0  0  0  0
  150.9722  141.2378  156.3891 N   0  0  0  0  0  0  0  0  0  0  0  0
  151.1068  140.0583  155.6114 C   0  0  0  0  0  0  0  0  0  0  0  0
  152.0538  139.1179  156.0812 C   0  0  0  0  0  0  0  0  0  0  0  0
  152.2955  137.9479  155.4489 N   0  0  0  0  0  0  0  0  0  0  0  0
  151.5821  137.7087  154.3279 C   0  0  0  0  0  0  0  0  0  0  0  0
  150.6351  138.6339  153.8450 C   0  0  0  0  0  0  0  0  0  0  0  0
  150.3984  139.8013  154.4820 N   0  0  0  0  0  0  0  0  0  0  0  0
  150.9610  142.7768  159.7135 O   0  0  0  0  0  0  0  0  0  0  0  0
  153.2140  143.9996  161.9059 H   0  0  0  0  0  0  0  0  0  0  0  0
  151.9812  142.7862  162.2392 H   0  0  0  0  0  0  0  0  0  0  0  0
  151.5059  144.4182  161.7771 H   0  0  0  0  0  0  0  0  0  0  0  0
  152.9621  142.3967  159.9704 H   0  0  0  0  0  0  0  0  0  0  0  0
  151.9925  145.2441  159.4490 H   0  0  0  0  0  0  0  0  0  0  0  0
  153.5939  144.5940  159.0841 H   0  0  0  0  0  0  0  0  0  0  0  0
  151.5431  144.6168  157.2378 H   0  0  0  0  0  0  0  0  0  0  0  0
  152.7625  143.3508  157.2629 H   0  0  0  0  0  0  0  0  0  0  0  0
  149.8990  143.1306  157.9907 H   0  0  0  0  0  0  0  0  0  0  0  0
  150.7196  142.0721  155.8791 H   0  0  0  0  0  0  0  0  0  0  0  0
  152.6273  139.3044  156.9779 H   0  0  0  0  0  0  0  0  0  0  0  0
  151.7669  136.7770  153.8142 H   0  0  0  0  0  0  0  0  0  0  0  0
  150.0677  138.4378  152.9472 H   0  0  0  0  0  0  0  0  0  0  0  0
  1  2  1  0  0  0  0
  1 16  1  0  0  0  0
  1 17  1  0  0  0  0
  1 18  1  0  0  0  0
  2 15  1  0  0  0  0
  2  3  1  0  0  0  0
  2 19  1  0  0  0  0
  3  4  1  0  0  0  0
  3 20  1  0  0  0  0
  3 21  1  0  0  0  0
  4  5  1  0  0  0  0
  4 22  1  0  0  0  0
  4 23  1  0  0  0  0
  5  6  1  0  0  0  0
  5 15  1  0  0  0  0
  5 24  1  0  0  0  0
  6  7  2  0  0  0  0
  6  8  1  0  0  0  0
  8  9  1  0  0  0  0
  8 25  1  0  0  0  0
  9 14  1  0  0  0  0
  9 10  2  0  0  0  0
 10 11  1  0  0  0  0
 10 26  1  0  0  0  0
 11 12  2  0  0  0  0
 12 13  1  0  0  0  0
 12 27  1  0  0  0  0
 13 14  2  0  0  0  0
 13 28  1  0  0  0  0
M  END
> <s_m_source_file>
AV-unprocessed.smi

> <i_m_source_file_index>
3100

> <i_lp_mmshare_version>
43012

> <i_f3d_flags>
0

> <s_epik_input>
W0NIM11bQ0BASF0xW0NIMl1bQ0gyXVtDQEhdKE8xKUMoPU8pW05IXWMyW2NIXW5bY0hdW2NIXW4y

> <s_epik_cmdline>
J2VwaWtfcHl0aG9uJywgJy1waCcsICc3LjAnLCAnLXRuJywgJzgnLCAnLW1hJywgJzIwMCcsICctbWV0YWxfYmluZGluZycsICctaW1hZScsICc8aW5maWxlLm1hZT4nLCAnLW9tYWUnLCAnPG91dGZpbGUubWFlPic=

> <r_lp_tautomer_probability>
1

> <r_epik_Ionization_Penalty>
2.81186e-06

> <r_epik_Ionization_Penalty_Charging>
0

> <r_epik_Ionization_Penalty_Neutral>
2.81186e-06

> <r_epik_State_Penalty>
-0

> <r_epik_Charging_Adjusted_Penalty>
0

> <i_epik_Tot_Q>
0

> <i_epik_Tot_abs_Q>
0

> <r_epik_Metal_State_Penalty>
-0

> <b_epik_Metal_Only>
0

> <s_lp_Force_Field>
OPLS_2005

> <r_lp_Energy>
25.8402

> <b_lp_Chiralities_Consistent>
1

> <s_lp_Variant>
AV-unprocessed.smi:3100-1

> <Gold.Version>
5.8.1

> <Gold.Id.Protein>
6NUR|6NUR_protein|mol2

> <Gold.PLP.Fitness>
42.5683

> <Gold.PLP.PLP>
-33.8271

> <Gold.PLP.part.hbond>
-2.0153

> <Gold.PLP.part.metal>
0.0000

> <Gold.PLP.part.buried>
-4.6670

> <Gold.PLP.part.nonpolar>
-27.6456

> <Gold.PLP.part.repulsive>
0.2429

> <Gold.PLP.ligand.clash>
0.0000

> <Gold.PLP.ligand.torsion>
0.3122

> <Gold.PLP.Chemscore.Hbond>
0.4950

> <Gold.PLP.Chemscore.CHOScore>
2.6245

> <Gold.PLP.Chemscore.Metal>
0.0000

> <Gold.Chemscore.Hbonds>
donor molecule, donor type, donor heavy atom, donor atom, acceptor molecule, acceptor atom, score
      P1  H  7989  7998       L1    14  0.42
      L1  C    12    27       P1  7949  1.00
      L1  C    13    28       P1  7948  0.71
      L1  C    13    28       P1  7957  0.93

> <Gold.PLP.Chemscore.Internal.Correction>
0.0069

> <Gold.Rescore>
     Score         DG    S(hbond)    S(metal)    S(lipo)     H(rot)  DE(clash)    DE(int)     intcor
     11.24     -12.93       0.00        0.00      85.55       1.00       0.01       1.68       ----

> <Gold.Chemscore.Fitness>
11.2441

> <Gold.Chemscore.DG>
-12.9323

> <Gold.Chemscore.ZeroCoef>
-5.4800

> <Gold.Chemscore.Hbond>
0.0008

> <Gold.Chemscore.Metal>
0.0000

> <Gold.Chemscore.Lipo>
85.5515

> <Gold.Chemscore.Internal_Hbond>
0.0000

> <Gold.Chemscore.DEClash>
0.0051

> <Gold.Chemscore.DEInternal>
1.6831

> <Gold.Chemscore.Rot>
1.0000

> <Gold.Chemscore.Internal.Correction>
   9.000000E+99

> <Gold.Chemscore.Hbond.Weighted>
-0.0027

> <Gold.Chemscore.Metal.Weighted>
-0.0000

> <Gold.Chemscore.Lipo.Weighted>
-10.0095

> <Gold.Chemscore.Internal_Hbond.Weighted>
0.0000

> <Gold.Chemscore.DEClash.Weighted>
0.0051

> <Gold.Chemscore.DEInternal.Weighted>
1.6831

> <Gold.Chemscore.Rot.Weighted>
2.5600

> <Gold.Chemscore.Internal.Correction.Weighted>
   9.000000E+99

> <Gold.Protein.RotatedTorsions>
[ 6907 6896 6895 6894 ] final  -15.02 input  -60.11 | X-H torsion
[ 7974 7965 7964 7962 ] final  108.79 input  175.53 | X-H torsion
[ 8008 7997 7996 7995 ] final  -38.00 input   59.86 | X-H torsion
[ 10167 10162 10161 10158 ] final  -35.89 input  -65.29 | X-H torsion
[ 10718 10713 10712 10709 ] final   58.01 input   66.30 | X-H torsion
[ 10763 10752 10751 10750 ] final -157.61 input  -60.55 | X-H torsion
[ 11005 11000 10999 10996 ] final  -28.31 input  -57.11 | X-H torsion

> <Gold.Protein.ActiveResidues>
 VAL166  LYS551  ARG553  GLY616  TRP617  ASP618  TYR619  PRO620  LYS621  CYS622 
 ASP623  PHE694  ASN695  SER759  ASP760  ASP761  ALA762  ILE779  LEU786  VAL792 
 PHE793  MET794  SER795  GLU796  ALA797  LYS798  CYS799  TRP800  GLU811  SER814 

> <Gold.Protein.RotatedAtoms>
  151.3304  135.0840  159.9336 H   0  0  0  0  0  0  0  0  0  0  0  0  # atno 6907 bound_to 6896
  152.5236  133.9549  159.7700 H   0  0  0  0  0  0  0  0  0  0  0  0  # atno 6908 bound_to 6896
  150.9886  133.6119  159.2741 H   0  0  0  0  0  0  0  0  0  0  0  0  # atno 6909 bound_to 6896
  145.2761  139.2649  143.3940 H   0  0  0  0  0  0  0  0  0  0  0  0  # atno 7974 bound_to 7965
  154.4044  140.1589  156.2629 H   0  0  0  0  0  0  0  0  0  0  0  0  # atno 8008 bound_to 7997
  155.9020  140.3432  155.6012 H   0  0  0  0  0  0  0  0  0  0  0  0  # atno 8009 bound_to 7997
  155.7436  140.0796  157.2225 H   0  0  0  0  0  0  0  0  0  0  0  0  # atno 8010 bound_to 7997
  140.7155  143.3446  151.2283 H   0  0  0  0  0  0  0  0  0  0  0  0  # atno 10167 bound_to 10162
  157.5562  130.8801  149.9039 H   0  0  0  0  0  0  0  0  0  0  0  0  # atno 10718 bound_to 10713
  154.7622  135.3121  154.8356 H   0  0  0  0  0  0  0  0  0  0  0  0  # atno 10763 bound_to 10752
  153.9113  135.6805  153.4755 H   0  0  0  0  0  0  0  0  0  0  0  0  # atno 10764 bound_to 10752
  153.1224  135.4816  154.9149 H   0  0  0  0  0  0  0  0  0  0  0  0  # atno 10765 bound_to 10752
  140.9197  133.7407  156.0784 H   0  0  0  0  0  0  0  0  0  0  0  0  # atno 11005 bound_to 11000
  146.3231  140.3216  142.8633 LP  0  0  0  0  0  0  0  0  0  0  0  0  # atno 17320 bound_to 7965
  144.9293  140.7957  143.5699 LP  0  0  0  0  0  0  0  0  0  0  0  0  # atno 17321 bound_to 7965
  139.6962  143.9608  152.2884 LP  0  0  0  0  0  0  0  0  0  0  0  0  # atno 17342 bound_to 10162
  139.9286  144.6755  150.8386 LP  0  0  0  0  0  0  0  0  0  0  0  0  # atno 17343 bound_to 10162
  156.0620  130.3698  150.0961 LP  0  0  0  0  0  0  0  0  0  0  0  0  # atno 17370 bound_to 10713
  156.9129  130.9657  151.3560 LP  0  0  0  0  0  0  0  0  0  0  0  0  # atno 17371 bound_to 10713
  140.8004  134.3516  157.5441 LP  0  0  0  0  0  0  0  0  0  0  0  0  # atno 17394 bound_to 11000
  139.8773  134.9194  156.3226 LP  0  0  0  0  0  0  0  0  0  0  0  0  # atno 17395 bound_to 11000

$$$$
