AV-unprocessed.smi:438|AV-procd|sdf|2569|dock10
  -GOLD-   2262022543D 1   1.00000     0.00000
 Structure written by MMmdl.
 48 49  0  0  0  0  0  0  0  0  1 V2000
  145.0889  135.8189  150.9408 C   0  0  0  0  0  0  0  0  0  0  0  0
  145.7777  134.7267  151.7403 C   0  0  0  0  0  0  0  0  0  0  0  0
  146.4316  135.1733  152.8747 N   0  0  0  0  0  0  0  0  0  0  0  0
  147.1037  134.2559  153.6678 C   0  0  0  0  0  0  0  0  0  0  0  0
  147.8855  135.1005  155.0730 S   0  0  0  0  0  0  0  0  0  0  0  0
  149.6174  135.1768  154.5332 C   0  0  0  0  0  0  0  0  0  0  0  0
  150.4900  135.9533  155.5134 C   0  0  0  0  0  0  0  0  0  0  0  0
  151.4280  135.3967  156.0831 O   0  0  0  0  0  0  0  0  0  0  0  0
  150.1651  137.2414  155.6995 N   0  0  0  0  0  0  0  0  0  0  0  0
  150.8574  138.1806  156.5811 C   0  0  2  0  0  0  0  0  0  0  0  0
  149.9050  138.7132  157.6734 C   0  0  0  0  0  0  0  0  0  0  0  0
  148.8239  139.6428  157.0961 C   0  0  0  0  0  0  0  0  0  0  0  0
  149.4521  140.7974  156.3013 C   0  0  0  0  0  0  0  0  0  0  0  0
  150.3876  140.2753  155.1990 C   0  0  0  0  0  0  0  0  0  0  0  0
  151.4785  139.3459  155.7715 C   0  0  2  0  0  0  0  0  0  0  0  0
  152.4425  138.8636  154.6735 C   0  0  0  0  0  0  0  0  0  0  0  0
  147.1475  132.9813  153.4150 N   0  0  0  0  0  0  0  0  0  0  0  0
  146.4909  132.4656  152.2879 C   0  0  0  0  0  0  0  0  0  0  0  0
  146.5117  131.2581  152.0535 O   0  0  0  0  0  0  0  0  0  0  0  0
  145.7825  133.4141  151.4017 C   0  0  0  0  0  0  0  0  0  0  0  0
  145.0723  132.8625  150.1654 C   0  0  0  0  0  0  0  0  0  0  0  0
  143.9089  131.9137  150.5029 C   0  0  0  0  0  0  0  0  0  0  0  0
  143.0615  131.7405  149.3867 O   0  0  0  0  0  0  0  0  0  0  0  0
  145.4616  135.8339  149.9163 H   0  0  0  0  0  0  0  0  0  0  0  0
  145.2611  136.8052  151.3734 H   0  0  0  0  0  0  0  0  0  0  0  0
  144.0121  135.6497  150.9147 H   0  0  0  0  0  0  0  0  0  0  0  0
  149.6671  135.6433  153.5487 H   0  0  0  0  0  0  0  0  0  0  0  0
  150.0107  134.1646  154.4297 H   0  0  0  0  0  0  0  0  0  0  0  0
  149.3755  137.6051  155.1858 H   0  0  0  0  0  0  0  0  0  0  0  0
  151.6728  137.6454  157.0714 H   0  0  0  0  0  0  0  0  0  0  0  0
  149.4382  137.8865  158.2101 H   0  0  0  0  0  0  0  0  0  0  0  0
  150.4859  139.2620  158.4156 H   0  0  0  0  0  0  0  0  0  0  0  0
  148.1533  139.0745  156.4502 H   0  0  0  0  0  0  0  0  0  0  0  0
  148.2079  140.0404  157.9032 H   0  0  0  0  0  0  0  0  0  0  0  0
  148.6687  141.4151  155.8616 H   0  0  0  0  0  0  0  0  0  0  0  0
  150.0114  141.4442  156.9782 H   0  0  0  0  0  0  0  0  0  0  0  0
  149.8031  139.7451  154.4458 H   0  0  0  0  0  0  0  0  0  0  0  0
  150.8498  141.1199  154.6869 H   0  0  0  0  0  0  0  0  0  0  0  0
  152.0716  139.9388  156.4696 H   0  0  0  0  0  0  0  0  0  0  0  0
  151.9240  138.3007  153.8968 H   0  0  0  0  0  0  0  0  0  0  0  0
  153.2191  138.2208  155.0888 H   0  0  0  0  0  0  0  0  0  0  0  0
  152.9378  139.7070  154.1919 H   0  0  0  0  0  0  0  0  0  0  0  0
  146.4050  136.1615  153.0813 H   0  0  0  0  0  0  0  0  0  0  0  0
  145.7766  132.3504  149.5107 H   0  0  0  0  0  0  0  0  0  0  0  0
  144.6977  133.7005  149.5761 H   0  0  0  0  0  0  0  0  0  0  0  0
  144.2752  130.9402  150.8291 H   0  0  0  0  0  0  0  0  0  0  0  0
  143.3207  132.3233  151.3243 H   0  0  0  0  0  0  0  0  0  0  0  0
  142.1646  131.7724  149.6831 H   0  0  0  0  0  0  0  0  0  0  0  0
  1 24  1  0  0  0  0
  1 25  1  0  0  0  0
  1 26  1  0  0  0  0
  1  2  1  0  0  0  0
  2 20  2  0  0  0  0
  2  3  1  0  0  0  0
  3  4  1  0  0  0  0
  3 43  1  0  0  0  0
  4  5  1  0  0  0  0
  4 17  2  0  0  0  0
  5  6  1  0  0  0  0
  6  7  1  0  0  0  0
  6 27  1  0  0  0  0
  6 28  1  0  0  0  0
  7  8  2  0  0  0  0
  7  9  1  0  0  0  0
  9 10  1  0  0  0  0
  9 29  1  0  0  0  0
 10 15  1  0  0  0  0
 10 11  1  0  0  0  0
 10 30  1  0  0  0  0
 11 12  1  0  0  0  0
 11 31  1  0  0  0  0
 11 32  1  0  0  0  0
 12 13  1  0  0  0  0
 12 33  1  0  0  0  0
 12 34  1  0  0  0  0
 13 14  1  0  0  0  0
 13 35  1  0  0  0  0
 13 36  1  0  0  0  0
 14 15  1  0  0  0  0
 14 37  1  0  0  0  0
 14 38  1  0  0  0  0
 15 16  1  0  0  0  0
 15 39  1  0  0  0  0
 16 40  1  0  0  0  0
 16 41  1  0  0  0  0
 16 42  1  0  0  0  0
 17 18  1  0  0  0  0
 18 19  2  0  0  0  0
 18 20  1  0  0  0  0
 20 21  1  0  0  0  0
 21 22  1  0  0  0  0
 21 44  1  0  0  0  0
 21 45  1  0  0  0  0
 22 23  1  0  0  0  0
 22 46  1  0  0  0  0
 22 47  1  0  0  0  0
 23 48  1  0  0  0  0
M  END
> <s_m_source_file>
AV-unprocessed.smi

> <i_m_source_file_index>
438

> <i_lp_mmshare_version>
43012

> <i_f3d_flags>
0

> <s_epik_input>
W09IXVtDSDJdW0NIMl1jMWMoW09IXSluYyhuYzFbQ0gzXSlTW0NIMl1DKD1PKVtOSF1bQ0BASF0yW0NIMl1bQ0gyXVtDSDJdW0NIMl1bQ0BIXTJbQ0gzXQ==

> <s_epik_cmdline>
J2VwaWtfcHl0aG9uJywgJy1waCcsICc3LjAnLCAnLXRuJywgJzgnLCAnLW1hJywgJzIwMCcsICctbWV0YWxfYmluZGluZycsICctaW1hZScsICc8aW5maWxlLm1hZT4nLCAnLW9tYWUnLCAnPG91dGZpbGUubWFlPic=

> <r_lp_tautomer_probability>
0.273662

> <r_epik_Ionization_Penalty>
0.0875285

> <r_epik_Ionization_Penalty_Charging>
0.0875254

> <r_epik_Ionization_Penalty_Neutral>
3.01536e-06

> <r_epik_State_Penalty>
0.985796

> <r_epik_Charging_Adjusted_Penalty>
1.07332

> <i_epik_Tot_Q>
0

> <i_epik_Tot_abs_Q>
0

> <r_epik_Metal_State_Penalty>
1.58101

> <b_epik_Metal_Only>
0

> <s_lp_Force_Field>
OPLS_2005

> <r_lp_Energy>
19.296

> <b_lp_Chiralities_Consistent>
1

> <s_lp_Variant>
AV-unprocessed.smi:438-7

> <Gold.Version>
5.8.1

> <Gold.Id.Protein>
6NUR|6NUR_protein|mol2

> <Gold.PLP.Fitness>
43.4359

> <Gold.PLP.PLP>
-36.2958

> <Gold.PLP.part.hbond>
-4.0000

> <Gold.PLP.part.metal>
0.0000

> <Gold.PLP.part.buried>
-5.0149

> <Gold.PLP.part.nonpolar>
-28.2725

> <Gold.PLP.part.repulsive>
0.8928

> <Gold.PLP.ligand.clash>
0.0000

> <Gold.PLP.ligand.torsion>
0.3451

> <Gold.PLP.Chemscore.Hbond>
2.5928

> <Gold.PLP.Chemscore.CHOScore>
0.0000

> <Gold.PLP.Chemscore.Metal>
0.0000

> <Gold.Chemscore.Hbonds>
donor molecule, donor type, donor heavy atom, donor atom, acceptor molecule, acceptor atom, score
      L1  H    23    48       P1 10952  0.56
      P1  H 10752 10764       L1     8  1.00
      P1  H 10785 10796       L1    23  1.00

> <Gold.PLP.Chemscore.Internal.Correction>
0.0520

> <Gold.Rescore>
     Score         DG    S(hbond)    S(metal)    S(lipo)     H(rot)  DE(clash)    DE(int)     intcor
     12.98     -13.37       1.91        0.00      75.64       2.86       0.01       0.37       ----

> <Gold.Chemscore.Fitness>
12.9823

> <Gold.Chemscore.DG>
-13.3659

> <Gold.Chemscore.ZeroCoef>
-5.4800

> <Gold.Chemscore.Hbond>
1.9070

> <Gold.Chemscore.Metal>
0.0000

> <Gold.Chemscore.Lipo>
75.6367

> <Gold.Chemscore.Internal_Hbond>
0.0000

> <Gold.Chemscore.DEClash>
0.0127

> <Gold.Chemscore.DEInternal>
0.3709

> <Gold.Chemscore.Rot>
2.8645

> <Gold.Chemscore.Internal.Correction>
   9.000000E+99

> <Gold.Chemscore.Hbonds>
donor molecule, donor type, donor heavy atom, donor atom, acceptor molecule, acceptor atom, score
      L1  H    23    48       P1 10952  0.55
      P1  H 10752 10764       L1     8  0.86
      P1  H 10785 10796       L1    23  0.31

> <Gold.Chemscore.Hbond.Weighted>
-6.3695

> <Gold.Chemscore.Metal.Weighted>
-0.0000

> <Gold.Chemscore.Lipo.Weighted>
-8.8495

> <Gold.Chemscore.Internal_Hbond.Weighted>
0.0000

> <Gold.Chemscore.DEClash.Weighted>
0.0127

> <Gold.Chemscore.DEInternal.Weighted>
0.3709

> <Gold.Chemscore.Rot.Weighted>
7.3331

> <Gold.Chemscore.Internal.Correction.Weighted>
   9.000000E+99

> <Gold.Protein.RotatedTorsions>
[ 6907 6896 6895 6894 ] final   -8.20 input  -60.11 | X-H torsion
[ 7974 7965 7964 7962 ] final -147.63 input  175.53 | X-H torsion
[ 8008 7997 7996 7995 ] final  -83.83 input   59.86 | X-H torsion
[ 10167 10162 10161 10158 ] final -165.01 input  -65.29 | X-H torsion
[ 10718 10713 10712 10709 ] final  155.50 input   66.30 | X-H torsion
[ 10763 10752 10751 10750 ] final  -23.80 input  -60.55 | X-H torsion
[ 11005 11000 10999 10996 ] final -115.00 input  -57.11 | X-H torsion

> <Gold.Protein.ActiveResidues>
 VAL166  LYS551  ARG553  GLY616  TRP617  ASP618  TYR619  PRO620  LYS621  CYS622 
 ASP623  PHE694  ASN695  SER759  ASP760  ASP761  ALA762  ILE779  LEU786  VAL792 
 PHE793  MET794  SER795  GLU796  ALA797  LYS798  CYS799  TRP800  GLU811  SER814 

> <Gold.Protein.RotatedAtoms>
  151.4374  135.1016  159.9659 H   0  0  0  0  0  0  0  0  0  0  0  0  # atno 6907 bound_to 6896
  152.4935  133.8560  159.7236 H   0  0  0  0  0  0  0  0  0  0  0  0  # atno 6908 bound_to 6896
  150.9112  133.6936  159.2882 H   0  0  0  0  0  0  0  0  0  0  0  0  # atno 6909 bound_to 6896
  144.8081  140.5301  143.5661 H   0  0  0  0  0  0  0  0  0  0  0  0  # atno 7974 bound_to 7965
  154.6233  140.0613  156.9641 H   0  0  0  0  0  0  0  0  0  0  0  0  # atno 8008 bound_to 7997
  155.1783  140.3297  155.4361 H   0  0  0  0  0  0  0  0  0  0  0  0  # atno 8009 bound_to 7997
  156.2443  140.1902  156.6881 H   0  0  0  0  0  0  0  0  0  0  0  0  # atno 8010 bound_to 7997
  139.6211  144.0623  152.1933 H   0  0  0  0  0  0  0  0  0  0  0  0  # atno 10167 bound_to 10162
  157.2175  131.0711  151.1932 H   0  0  0  0  0  0  0  0  0  0  0  0  # atno 10718 bound_to 10713
  153.6736  135.6970  153.5139 H   0  0  0  0  0  0  0  0  0  0  0  0  # atno 10763 bound_to 10752
  153.2539  135.4266  155.0824 H   0  0  0  0  0  0  0  0  0  0  0  0  # atno 10764 bound_to 10752
  154.8420  135.3538  154.6280 H   0  0  0  0  0  0  0  0  0  0  0  0  # atno 10765 bound_to 10752
  141.0516  133.9679  157.2827 H   0  0  0  0  0  0  0  0  0  0  0  0  # atno 11005 bound_to 11000
  145.5390  139.1475  143.3457 LP  0  0  0  0  0  0  0  0  0  0  0  0  # atno 17320 bound_to 7965
  146.2375  140.5530  142.8948 LP  0  0  0  0  0  0  0  0  0  0  0  0  # atno 17321 bound_to 7965
  140.0265  144.6114  150.7523 LP  0  0  0  0  0  0  0  0  0  0  0  0  # atno 17342 bound_to 10162
  140.7382  143.2776  151.3696 LP  0  0  0  0  0  0  0  0  0  0  0  0  # atno 17343 bound_to 10162
  157.3609  130.7131  149.6501 LP  0  0  0  0  0  0  0  0  0  0  0  0  # atno 17370 bound_to 10713
  155.9685  130.4226  150.4522 LP  0  0  0  0  0  0  0  0  0  0  0  0  # atno 17371 bound_to 10713
  139.9355  135.0197  156.8541 LP  0  0  0  0  0  0  0  0  0  0  0  0  # atno 17394 bound_to 11000
  140.6045  134.0141  155.7551 LP  0  0  0  0  0  0  0  0  0  0  0  0  # atno 17395 bound_to 11000

$$$$
