AV-unprocessed.smi:3252|AV-procd|sdf|12443|dock10
  -GOLD-   2272018333D 1   1.00000     0.00000
 Structure written by MMmdl.
 36 37  0  0  0  0  0  0  0  0  1 V2000
  151.5352  145.4756  159.8714 C   0  0  0  0  0  0  0  0  0  0  0  0
  152.3236  144.9991  158.6428 C   0  0  0  0  0  0  0  0  0  0  0  0
  152.5169  143.5526  158.5569 N   0  0  0  0  0  0  0  0  0  0  0  0
  152.9342  142.9660  159.8279 C   0  0  0  0  0  0  0  0  0  0  0  0
  153.0959  141.4398  159.7281 C   0  0  0  0  0  0  0  0  0  0  0  0
  151.8813  140.8629  159.2623 O   0  0  0  0  0  0  0  0  0  0  0  0
  151.4759  141.3616  157.9896 C   0  0  1  0  0  0  0  0  0  0  0  0
  150.1668  140.6713  157.5699 C   0  0  0  0  0  0  0  0  0  0  0  0
  149.4168  141.4487  156.5897 N   0  0  0  0  0  0  0  0  0  0  0  0
  148.8610  140.8498  155.4496 C   0  0  0  0  0  0  0  0  0  0  0  0
  147.9608  141.6025  154.6662 C   0  0  0  0  0  0  0  0  0  0  0  0
  147.3953  141.0096  153.5203 C   0  0  0  0  0  0  0  0  0  0  0  0
  147.7479  139.6843  153.1983 C   0  0  0  0  0  0  0  0  0  0  0  0
  147.1930  139.0287  152.0267 C   0  0  0  0  0  0  0  0  0  0  0  0
  146.7514  138.5064  151.0934 N   0  0  0  0  0  0  0  0  0  0  0  0
  148.6524  139.0100  154.0434 C   0  0  0  0  0  0  0  0  0  0  0  0
  149.1953  139.5732  155.1441 N   0  0  0  0  0  0  0  0  0  0  0  0
  151.2979  142.8883  158.1073 C   0  0  0  0  0  0  0  0  0  0  0  0
  151.5293  146.5644  159.9228 H   0  0  0  0  0  0  0  0  0  0  0  0
  151.9817  145.1034  160.7938 H   0  0  0  0  0  0  0  0  0  0  0  0
  150.4963  145.1483  159.8416 H   0  0  0  0  0  0  0  0  0  0  0  0
  151.8400  145.3644  157.7358 H   0  0  0  0  0  0  0  0  0  0  0  0
  153.3009  145.4823  158.6759 H   0  0  0  0  0  0  0  0  0  0  0  0
  153.8813  143.3965  160.1514 H   0  0  0  0  0  0  0  0  0  0  0  0
  152.2017  143.2004  160.6022 H   0  0  0  0  0  0  0  0  0  0  0  0
  153.9131  141.1799  159.0534 H   0  0  0  0  0  0  0  0  0  0  0  0
  153.3391  141.0190  160.7036 H   0  0  0  0  0  0  0  0  0  0  0  0
  152.2507  141.1469  157.2509 H   0  0  0  0  0  0  0  0  0  0  0  0
  150.3558  139.6570  157.2176 H   0  0  0  0  0  0  0  0  0  0  0  0
  149.5235  140.5689  158.4440 H   0  0  0  0  0  0  0  0  0  0  0  0
  149.5238  142.4526  156.6035 H   0  0  0  0  0  0  0  0  0  0  0  0
  147.7065  142.6178  154.9342 H   0  0  0  0  0  0  0  0  0  0  0  0
  146.7042  141.5670  152.9045 H   0  0  0  0  0  0  0  0  0  0  0  0
  148.9506  137.9922  153.8368 H   0  0  0  0  0  0  0  0  0  0  0  0
  150.4825  143.1063  158.7991 H   0  0  0  0  0  0  0  0  0  0  0  0
  150.9987  143.2899  157.1384 H   0  0  0  0  0  0  0  0  0  0  0  0
  1  2  1  0  0  0  0
  1 19  1  0  0  0  0
  1 20  1  0  0  0  0
  1 21  1  0  0  0  0
  2  3  1  0  0  0  0
  2 22  1  0  0  0  0
  2 23  1  0  0  0  0
  3 18  1  0  0  0  0
  3  4  1  0  0  0  0
  4  5  1  0  0  0  0
  4 24  1  0  0  0  0
  4 25  1  0  0  0  0
  5  6  1  0  0  0  0
  5 26  1  0  0  0  0
  5 27  1  0  0  0  0
  6  7  1  0  0  0  0
  7  8  1  0  0  0  0
  7 18  1  0  0  0  0
  7 28  1  0  0  0  0
  8  9  1  0  0  0  0
  8 29  1  0  0  0  0
  8 30  1  0  0  0  0
  9 10  1  0  0  0  0
  9 31  1  0  0  0  0
 10 17  1  0  0  0  0
 10 11  2  0  0  0  0
 11 12  1  0  0  0  0
 11 32  1  0  0  0  0
 12 13  2  0  0  0  0
 12 33  1  0  0  0  0
 13 14  1  0  0  0  0
 13 16  1  0  0  0  0
 14 15  3  0  0  0  0
 16 17  2  0  0  0  0
 16 34  1  0  0  0  0
 18 35  1  0  0  0  0
 18 36  1  0  0  0  0
M  END
> <s_m_source_file>
AV-unprocessed.smi

> <i_m_source_file_index>
3252

> <i_lp_mmshare_version>
43012

> <i_f3d_flags>
0

> <s_epik_input>
W0NIM11bQ0gyXU4xW0NIMl1bQ0gyXU9bQ0BIXShbQ0gyXTEpW0NIMl1bTkhdYzJbY0hdW2NIXWMoQyNOKVtjSF1uMg==

> <s_epik_cmdline>
J2VwaWtfcHl0aG9uJywgJy1waCcsICc3LjAnLCAnLXRuJywgJzgnLCAnLW1hJywgJzIwMCcsICctbWV0YWxfYmluZGluZycsICctaW1hZScsICc8aW5maWxlLm1hZT4nLCAnLW9tYWUnLCAnPG91dGZpbGUubWFlPic=

> <r_epik_Ionization_Penalty>
0.797836

> <r_epik_Ionization_Penalty_Charging>
0

> <r_epik_Ionization_Penalty_Neutral>
0.797836

> <r_epik_State_Penalty>
0.828842

> <r_epik_Charging_Adjusted_Penalty>
0.828842

> <i_epik_Tot_Q>
0

> <i_epik_Tot_abs_Q>
0

> <r_epik_Metal_State_Penalty>
0.828842

> <b_epik_Metal_Only>
0

> <s_lp_Force_Field>
OPLS_2005

> <r_lp_Energy>
23.221

> <b_lp_Chiralities_Consistent>
1

> <s_lp_Variant>
AV-unprocessed.smi:3252-5

> <Gold.Version>
5.8.1

> <Gold.Id.Protein>
6NUR|6NUR_protein|mol2

> <Gold.PLP.Fitness>
40.4348

> <Gold.PLP.PLP>
-36.0613

> <Gold.PLP.part.hbond>
-1.0000

> <Gold.PLP.part.metal>
0.0000

> <Gold.PLP.part.buried>
-0.8015

> <Gold.PLP.part.nonpolar>
-35.2414

> <Gold.PLP.part.repulsive>
0.4458

> <Gold.PLP.ligand.clash>
0.0000

> <Gold.PLP.ligand.torsion>
0.4583

> <Gold.PLP.Chemscore.Hbond>
1.0000

> <Gold.PLP.Chemscore.CHOScore>
0.7597

> <Gold.PLP.Chemscore.Metal>
0.0000

> <Gold.Chemscore.Hbonds>
donor molecule, donor type, donor heavy atom, donor atom, acceptor molecule, acceptor atom, score
      P1  H  7954  7966       L1    15  1.00
      L1  C    16    34       P1  7948  0.76

> <Gold.PLP.Chemscore.Internal.Correction>
0.0109

> <Gold.Rescore>
     Score         DG    S(hbond)    S(metal)    S(lipo)     H(rot)  DE(clash)    DE(int)     intcor
     14.33     -17.90       1.46        0.00      95.72       1.43       3.08       0.49       ----

> <Gold.Chemscore.Fitness>
14.3297

> <Gold.Chemscore.DG>
-17.9008

> <Gold.Chemscore.ZeroCoef>
-5.4800

> <Gold.Chemscore.Hbond>
1.4641

> <Gold.Chemscore.Metal>
0.0000

> <Gold.Chemscore.Lipo>
95.7234

> <Gold.Chemscore.Internal_Hbond>
0.0000

> <Gold.Chemscore.DEClash>
3.0844

> <Gold.Chemscore.DEInternal>
0.4867

> <Gold.Chemscore.Rot>
1.4331

> <Gold.Chemscore.Internal.Correction>
   9.000000E+99

> <Gold.Chemscore.Hbonds>
donor molecule, donor type, donor heavy atom, donor atom, acceptor molecule, acceptor atom, score
      P1  H  7954  7966       L1    15  0.75

> <Gold.Chemscore.Hbond.Weighted>
-4.8900

> <Gold.Chemscore.Metal.Weighted>
-0.0000

> <Gold.Chemscore.Lipo.Weighted>
-11.1996

> <Gold.Chemscore.Internal_Hbond.Weighted>
0.0000

> <Gold.Chemscore.DEClash.Weighted>
3.0844

> <Gold.Chemscore.DEInternal.Weighted>
0.4867

> <Gold.Chemscore.Rot.Weighted>
3.6688

> <Gold.Chemscore.Internal.Correction.Weighted>
   9.000000E+99

> <Gold.Protein.RotatedTorsions>
[ 6907 6896 6895 6894 ] final  141.27 input  -60.11 | X-H torsion
[ 7974 7965 7964 7962 ] final  134.61 input  175.53 | X-H torsion
[ 8008 7997 7996 7995 ] final -114.39 input   59.86 | X-H torsion
[ 10167 10162 10161 10158 ] final -173.09 input  -65.29 | X-H torsion
[ 10718 10713 10712 10709 ] final   72.35 input   66.30 | X-H torsion
[ 10763 10752 10751 10750 ] final   25.48 input  -60.55 | X-H torsion
[ 11005 11000 10999 10996 ] final  -78.76 input  -57.11 | X-H torsion

> <Gold.Protein.ActiveResidues>
 VAL166  LYS551  ARG553  GLY616  TRP617  ASP618  TYR619  PRO620  LYS621  CYS622 
 ASP623  PHE694  ASN695  SER759  ASP760  ASP761  ALA762  ILE779  LEU786  VAL792 
 PHE793  MET794  SER795  GLU796  ALA797  LYS798  CYS799  TRP800  GLU811  SER814 

> <Gold.Protein.RotatedAtoms>
  152.2330  133.5073  159.5226 H   0  0  0  0  0  0  0  0  0  0  0  0  # atno 6907 bound_to 6896
  150.7042  134.1191  159.4037 H   0  0  0  0  0  0  0  0  0  0  0  0  # atno 6908 bound_to 6896
  151.9112  135.0338  160.0565 H   0  0  0  0  0  0  0  0  0  0  0  0  # atno 6909 bound_to 6896
  144.9746  139.4569  143.5416 H   0  0  0  0  0  0  0  0  0  0  0  0  # atno 7974 bound_to 7965
  155.0356  140.0392  157.2490 H   0  0  0  0  0  0  0  0  0  0  0  0  # atno 8008 bound_to 7997
  154.7260  140.2721  155.6475 H   0  0  0  0  0  0  0  0  0  0  0  0  # atno 8009 bound_to 7997
  156.2829  140.2693  156.1945 H   0  0  0  0  0  0  0  0  0  0  0  0  # atno 8010 bound_to 7997
  139.5708  144.1647  152.1380 H   0  0  0  0  0  0  0  0  0  0  0  0  # atno 10167 bound_to 10162
  157.6497  130.9574  150.0917 H   0  0  0  0  0  0  0  0  0  0  0  0  # atno 10718 bound_to 10713
  153.0689  135.6582  154.0292 H   0  0  0  0  0  0  0  0  0  0  0  0  # atno 10763 bound_to 10752
  153.9943  135.2943  155.3410 H   0  0  0  0  0  0  0  0  0  0  0  0  # atno 10764 bound_to 10752
  154.7056  135.5226  153.8660 H   0  0  0  0  0  0  0  0  0  0  0  0  # atno 10765 bound_to 10752
  141.1666  133.7077  156.8021 H   0  0  0  0  0  0  0  0  0  0  0  0  # atno 11005 bound_to 11000
  146.3391  139.8980  142.8799 LP  0  0  0  0  0  0  0  0  0  0  0  0  # atno 17320 bound_to 7965
  145.2509  141.0043  143.3881 LP  0  0  0  0  0  0  0  0  0  0  0  0  # atno 17321 bound_to 7965
  140.1179  144.5399  150.6882 LP  0  0  0  0  0  0  0  0  0  0  0  0  # atno 17342 bound_to 10162
  140.6992  143.2423  151.4913 LP  0  0  0  0  0  0  0  0  0  0  0  0  # atno 17343 bound_to 10162
  156.1864  130.3652  149.8967 LP  0  0  0  0  0  0  0  0  0  0  0  0  # atno 17370 bound_to 10713
  156.6906  130.8894  151.3588 LP  0  0  0  0  0  0  0  0  0  0  0  0  # atno 17371 bound_to 10713
  140.2249  134.8729  157.3416 LP  0  0  0  0  0  0  0  0  0  0  0  0  # atno 17394 bound_to 11000
  140.1950  134.4325  155.7694 LP  0  0  0  0  0  0  0  0  0  0  0  0  # atno 17395 bound_to 11000

$$$$
