AV-unprocessed.smi:104|AV-procd|sdf|993|dock2
  -GOLD-   2262017573D 1   1.00000     0.00000
 Structure written by MMmdl.
 47 49  0  0  0  0  0  0  0  0  1 V2000
  151.6247  139.1677  154.8531 C   0  0  0  0  0  0  0  0  0  0  0  0
  151.7095  138.8062  156.3308 C   0  0  0  0  0  0  0  0  0  0  0  0
  152.5497  139.3206  157.0689 O   0  0  0  0  0  0  0  0  0  0  0  0
  150.7915  137.8974  156.6943 O   0  0  0  0  0  0  0  0  0  0  0  0
  150.2877  137.9029  158.0198 C   0  0  0  0  0  0  0  0  0  0  0  0
  149.5751  136.5699  158.3010 C   0  0  2  0  0  0  0  0  0  0  0  0
  148.7461  136.2171  157.1997 O   0  0  0  0  0  0  0  0  0  0  0  0
  147.5245  136.8706  157.3218 C   0  0  1  0  0  0  0  0  0  0  0  0
  146.4608  136.0267  156.6884 N   0  0  0  0  0  0  0  0  0  0  0  0
  146.0911  134.7180  156.9229 C   0  0  0  0  0  0  0  0  0  0  0  0
  146.9353  133.6120  158.2237 Br  0  0  0  0  0  0  0  0  0  0  0  0
  145.1010  134.2472  156.2167 N   0  0  0  0  0  0  0  0  0  0  0  0
  144.7452  135.3303  155.4235 C   0  0  0  0  0  0  0  0  0  0  0  0
  143.7556  135.5434  154.4310 C   0  0  0  0  0  0  0  0  0  0  0  0
  142.8893  134.5960  154.0468 N   0  0  0  0  0  0  0  0  0  0  0  0
  143.6792  136.7611  153.8447 N   0  0  0  0  0  0  0  0  0  0  0  0
  144.5302  137.7247  154.2120 C   0  0  0  0  0  0  0  0  0  0  0  0
  145.5072  137.6754  155.1219 N   0  0  0  0  0  0  0  0  0  0  0  0
  145.5844  136.4456  155.7102 C   0  0  0  0  0  0  0  0  0  0  0  0
  147.2817  137.1301  158.8213 C   0  0  1  0  0  0  0  0  0  0  0  0
  146.1247  136.4588  159.3179 O   0  0  0  0  0  0  0  0  0  0  0  0
  145.6940  136.6851  160.5689 C   0  0  0  0  0  0  0  0  0  0  0  0
  144.4849  135.8321  160.9275 C   0  0  0  0  0  0  0  0  0  0  0  0
  146.1904  137.4718  161.3750 O   0  0  0  0  0  0  0  0  0  0  0  0
  148.5887  136.6682  159.4724 C   0  0  1  0  0  0  0  0  0  0  0  0
  148.4429  135.3867  160.0781 O   0  0  0  0  0  0  0  0  0  0  0  0
  148.2091  135.2733  161.3961 C   0  0  0  0  0  0  0  0  0  0  0  0
  147.8657  133.8461  161.8006 C   0  0  0  0  0  0  0  0  0  0  0  0
  148.2609  136.1832  162.2236 O   0  0  0  0  0  0  0  0  0  0  0  0
  150.6916  138.8096  154.4171 H   0  0  0  0  0  0  0  0  0  0  0  0
  152.4558  138.7196  154.3085 H   0  0  0  0  0  0  0  0  0  0  0  0
  151.6712  140.2494  154.7256 H   0  0  0  0  0  0  0  0  0  0  0  0
  151.1248  138.0249  158.7087 H   0  0  0  0  0  0  0  0  0  0  0  0
  149.6147  138.7475  158.1740 H   0  0  0  0  0  0  0  0  0  0  0  0
  150.3229  135.7949  158.4744 H   0  0  0  0  0  0  0  0  0  0  0  0
  147.5456  137.7917  156.7381 H   0  0  0  0  0  0  0  0  0  0  0  0
  142.9253  133.6800  154.4711 H   0  0  0  0  0  0  0  0  0  0  0  0
  142.2031  134.7991  153.3345 H   0  0  0  0  0  0  0  0  0  0  0  0
  144.4121  138.6704  153.7039 H   0  0  0  0  0  0  0  0  0  0  0  0
  147.1703  138.2097  158.9334 H   0  0  0  0  0  0  0  0  0  0  0  0
  143.7592  135.8375  160.1136 H   0  0  0  0  0  0  0  0  0  0  0  0
  143.9994  136.2145  161.8257 H   0  0  0  0  0  0  0  0  0  0  0  0
  144.7923  134.8026  161.1112 H   0  0  0  0  0  0  0  0  0  0  0  0
  148.9139  137.3963  160.2172 H   0  0  0  0  0  0  0  0  0  0  0  0
  147.0686  133.4537  161.1688 H   0  0  0  0  0  0  0  0  0  0  0  0
  147.5335  133.8109  162.8382 H   0  0  0  0  0  0  0  0  0  0  0  0
  148.7401  133.2039  161.6946 H   0  0  0  0  0  0  0  0  0  0  0  0
  1  2  1  0  0  0  0
  1 30  1  0  0  0  0
  1 31  1  0  0  0  0
  1 32  1  0  0  0  0
  2  3  2  0  0  0  0
  2  4  1  0  0  0  0
  4  5  1  0  0  0  0
  5  6  1  0  0  0  0
  5 33  1  0  0  0  0
  5 34  1  0  0  0  0
  6 25  1  0  0  0  0
  6  7  1  0  0  0  0
  6 35  1  0  0  0  0
  7  8  1  0  0  0  0
  8  9  1  0  0  0  0
  8 20  1  0  0  0  0
  8 36  1  0  0  0  0
  9 19  1  0  0  0  0
  9 10  1  0  0  0  0
 10 11  1  0  0  0  0
 10 12  2  0  0  0  0
 12 13  1  0  0  0  0
 13 19  2  0  0  0  0
 13 14  1  0  0  0  0
 14 15  1  0  0  0  0
 14 16  2  0  0  0  0
 15 37  1  0  0  0  0
 15 38  1  0  0  0  0
 16 17  1  0  0  0  0
 17 18  2  0  0  0  0
 17 39  1  0  0  0  0
 18 19  1  0  0  0  0
 20 21  1  0  0  0  0
 20 25  1  0  0  0  0
 20 40  1  0  0  0  0
 21 22  1  0  0  0  0
 22 23  1  0  0  0  0
 22 24  2  0  0  0  0
 23 41  1  0  0  0  0
 23 42  1  0  0  0  0
 23 43  1  0  0  0  0
 25 26  1  0  0  0  0
 25 44  1  0  0  0  0
 26 27  1  0  0  0  0
 27 28  1  0  0  0  0
 27 29  2  0  0  0  0
 28 45  1  0  0  0  0
 28 46  1  0  0  0  0
 28 47  1  0  0  0  0
M  END
> <s_m_source_file>
AV-unprocessed.smi

> <i_m_source_file_index>
104

> <i_lp_mmshare_version>
43012

> <i_f3d_flags>
0

> <s_epik_input>
W0NIM11DKD1PKU9bQ0gyXVtDQEBIXTFPW0NASF0oW0NAQEhdKE9DKD1PKVtDSDNdKVtDQEhdMU9DKD1PKVtDSDNdKW4oYyhCciluMiljKGMyMyluW2NIXW5jM1tOSDJd

> <s_epik_cmdline>
J2VwaWtfcHl0aG9uJywgJy1waCcsICc3LjAnLCAnLXRuJywgJzgnLCAnLW1hJywgJzIwMCcsICctbWV0YWxfYmluZGluZycsICctaW1hZScsICc8aW5maWxlLm1hZT4nLCAnLW9tYWUnLCAnPG91dGZpbGUubWFlPic=

> <r_lp_tautomer_probability>
1

> <r_epik_Ionization_Penalty>
7.36622e-05

> <r_epik_Ionization_Penalty_Charging>
0

> <r_epik_Ionization_Penalty_Neutral>
7.36622e-05

> <r_epik_State_Penalty>
-0

> <r_epik_Charging_Adjusted_Penalty>
0

> <i_epik_Tot_Q>
0

> <i_epik_Tot_abs_Q>
0

> <r_epik_Metal_State_Penalty>
-0

> <b_epik_Metal_Only>
0

> <s_epik_Chemistry_Notes>
This compound has an ester and may undergo hydrolysis at high or low pH. This compound contains an acetal/aminal-like group ( X-CH(R)-Y where X, Y are N, S, or O) that may be acid/base labile, releasing an aldehyde.

> <s_lp_Force_Field>
OPLS_2005

> <r_lp_Energy>
20.5627

> <b_lp_Chiralities_Consistent>
1

> <s_lp_Variant>
AV-unprocessed.smi:104-1

> <Gold.Version>
5.8.1

> <Gold.Id.Protein>
6NUR|6NUR_protein|mol2

> <Gold.PLP.Fitness>
36.7214

> <Gold.PLP.PLP>
-24.4748

> <Gold.PLP.part.hbond>
-3.7576

> <Gold.PLP.part.metal>
0.0000

> <Gold.PLP.part.buried>
-6.1659

> <Gold.PLP.part.nonpolar>
-15.6862

> <Gold.PLP.part.repulsive>
0.1909

> <Gold.PLP.ligand.clash>
0.0000

> <Gold.PLP.ligand.torsion>
1.2406

> <Gold.PLP.Chemscore.Hbond>
3.8640

> <Gold.PLP.Chemscore.CHOScore>
1.0000

> <Gold.PLP.Chemscore.Metal>
0.0000

> <Gold.Chemscore.Hbonds>
donor molecule, donor type, donor heavy atom, donor atom, acceptor molecule, acceptor atom, score
      L1  H    15    37       P1 10957  1.00
      P1  H  6931  6943       L1    29  0.54
      P1  H  6934  6947       L1    24  1.00
      P1  H  7997  8009       L1     3  0.99
      L1  C    17    39       P1 10175  1.00

> <Gold.PLP.Chemscore.Internal.Correction>
0.1359

> <Gold.Rescore>
     Score         DG    S(hbond)    S(metal)    S(lipo)     H(rot)  DE(clash)    DE(int)     intcor
      7.37     -11.12       3.87        0.00      32.03       4.31       0.01       3.74       ----

> <Gold.Chemscore.Fitness>
7.3656

> <Gold.Chemscore.DG>
-11.1165

> <Gold.Chemscore.ZeroCoef>
-5.4800

> <Gold.Chemscore.Hbond>
3.8666

> <Gold.Chemscore.Metal>
0.0000

> <Gold.Chemscore.Lipo>
32.0342

> <Gold.Chemscore.Internal_Hbond>
0.0000

> <Gold.Chemscore.DEClash>
0.0073

> <Gold.Chemscore.DEInternal>
3.7435

> <Gold.Chemscore.Rot>
4.3070

> <Gold.Chemscore.Internal.Correction>
   9.000000E+99

> <Gold.Chemscore.Hbonds>
donor molecule, donor type, donor heavy atom, donor atom, acceptor molecule, acceptor atom, score
      L1  H    15    37       P1 10957  0.98
      P1  H  6931  6943       L1    29  0.54
      P1  H  6934  6947       L1    24  0.98
      P1  H  7997  8009       L1     3  0.92

> <Gold.Chemscore.Hbond.Weighted>
-12.9144

> <Gold.Chemscore.Metal.Weighted>
-0.0000

> <Gold.Chemscore.Lipo.Weighted>
-3.7480

> <Gold.Chemscore.Internal_Hbond.Weighted>
0.0000

> <Gold.Chemscore.DEClash.Weighted>
0.0073

> <Gold.Chemscore.DEInternal.Weighted>
3.7435

> <Gold.Chemscore.Rot.Weighted>
11.0259

> <Gold.Chemscore.Internal.Correction.Weighted>
   9.000000E+99

> <Gold.Protein.RotatedTorsions>
[ 6907 6896 6895 6894 ] final  157.66 input  -60.11 | X-H torsion
[ 7974 7965 7964 7962 ] final   76.27 input  175.53 | X-H torsion
[ 8008 7997 7996 7995 ] final  172.43 input   59.86 | X-H torsion
[ 10167 10162 10161 10158 ] final  -45.66 input  -65.29 | X-H torsion
[ 10718 10713 10712 10709 ] final -173.30 input   66.30 | X-H torsion
[ 10763 10752 10751 10750 ] final  128.80 input  -60.55 | X-H torsion
[ 11005 11000 10999 10996 ] final  157.32 input  -57.11 | X-H torsion

> <Gold.Protein.ActiveResidues>
 VAL166  LYS551  ARG553  GLY616  TRP617  ASP618  TYR619  PRO620  LYS621  CYS622 
 ASP623  PHE694  ASN695  SER759  ASP760  ASP761  ALA762  ILE779  LEU786  VAL792 
 PHE793  MET794  SER795  GLU796  ALA797  LYS798  CYS799  TRP800  GLU811  SER814 

> <Gold.Protein.RotatedAtoms>
  152.0119  133.3864  159.4222 H   0  0  0  0  0  0  0  0  0  0  0  0  # atno 6907 bound_to 6896
  150.6898  134.3721  159.5006 H   0  0  0  0  0  0  0  0  0  0  0  0  # atno 6908 bound_to 6896
  152.1483  134.9008  160.0600 H   0  0  0  0  0  0  0  0  0  0  0  0  # atno 6909 bound_to 6896
  145.7050  139.2595  143.1683 H   0  0  0  0  0  0  0  0  0  0  0  0  # atno 7974 bound_to 7965
  156.1175  140.1486  156.9252 H   0  0  0  0  0  0  0  0  0  0  0  0  # atno 8008 bound_to 7997
  154.4811  140.0879  156.7422 H   0  0  0  0  0  0  0  0  0  0  0  0  # atno 8009 bound_to 7997
  155.4487  140.3434  155.4300 H   0  0  0  0  0  0  0  0  0  0  0  0  # atno 8010 bound_to 7997
  140.6849  143.2869  151.3670 H   0  0  0  0  0  0  0  0  0  0  0  0  # atno 10167 bound_to 10162
  156.7683  130.9439  151.3119 H   0  0  0  0  0  0  0  0  0  0  0  0  # atno 10718 bound_to 10713
  153.7314  135.3238  155.3286 H   0  0  0  0  0  0  0  0  0  0  0  0  # atno 10763 bound_to 10752
  154.8324  135.4523  154.1118 H   0  0  0  0  0  0  0  0  0  0  0  0  # atno 10764 bound_to 10752
  153.2266  135.6955  153.8019 H   0  0  0  0  0  0  0  0  0  0  0  0  # atno 10765 bound_to 10752
  140.1758  134.8511  157.2745 H   0  0  0  0  0  0  0  0  0  0  0  0  # atno 11005 bound_to 11000
  146.0763  140.7813  142.9663 LP  0  0  0  0  0  0  0  0  0  0  0  0  # atno 17320 bound_to 7965
  144.6958  140.3420  143.7197 LP  0  0  0  0  0  0  0  0  0  0  0  0  # atno 17321 bound_to 7965
  139.6200  144.0926  152.2382 LP  0  0  0  0  0  0  0  0  0  0  0  0  # atno 17342 bound_to 10162
  140.0368  144.6039  150.7443 LP  0  0  0  0  0  0  0  0  0  0  0  0  # atno 17343 bound_to 10162
  157.6703  130.9044  150.0024 LP  0  0  0  0  0  0  0  0  0  0  0  0  # atno 17370 bound_to 10713
  156.1294  130.3643  149.9756 LP  0  0  0  0  0  0  0  0  0  0  0  0  # atno 17371 bound_to 10713
  140.2324  134.3893  155.7516 LP  0  0  0  0  0  0  0  0  0  0  0  0  # atno 17394 bound_to 11000
  141.2220  133.7222  156.8662 LP  0  0  0  0  0  0  0  0  0  0  0  0  # atno 17395 bound_to 11000

$$$$
