AV-unprocessed.smi:1801|AV-procd|sdf|7269|dock6
  -GOLD-   22720 8523D 1   1.00000     0.00000
 Structure written by MMmdl.
 37 38  0  0  0  0  0  0  0  0  3 V2000
  149.9376  140.2262  156.6937 C   0  0  0  0  0  0  0  0  0  0  0  0
  150.9663  139.3966  157.4798 C   0  0  2  0  0  0  0  0  0  0  0  0
  150.4578  137.9485  157.6604 C   0  0  0  0  0  0  0  0  0  0  0  0
  149.3906  137.8438  158.6522 N   0  0  0  0  0  0  0  0  0  0  0  0
  149.0129  136.7273  159.2910 C   0  0  0  0  0  0  0  0  0  0  0  0
  149.5556  135.6524  159.0260 O   0  0  0  0  0  0  0  0  0  0  0  0
  148.0404  136.9299  160.2074 N   0  5  0  0  0  0  0  0  0  0  0  0
  147.5692  135.8970  160.9256 C   0  0  0  0  0  0  0  0  0  0  0  0
  147.3039  134.7015  160.3750 N   0  0  0  0  0  0  0  0  0  0  0  0
  146.8215  133.7746  161.2891 N   0  0  0  0  0  0  0  0  0  0  0  0
  146.7269  134.3003  162.5102 C   0  0  0  0  0  0  0  0  0  0  0  0
  147.2160  135.9756  162.6541 S   0  0  0  0  0  0  0  0  0  0  0  0
  151.3139  140.0665  158.8304 C   0  0  0  0  0  0  0  0  0  0  0  0
  152.1374  141.2864  158.6594 N   0  3  0  0  0  0  0  0  0  0  0  0
  151.3942  142.4451  158.1240 C   0  0  0  0  0  0  0  0  0  0  0  0
  152.1818  143.6676  158.5831 C   0  0  0  0  0  0  0  0  0  0  0  0
  152.6577  143.2580  159.9726 C   0  0  0  0  0  0  0  0  0  0  0  0
  152.8511  141.7389  159.8797 C   0  0  0  0  0  0  0  0  0  0  0  0
  148.9987  140.3159  157.2406 H   0  0  0  0  0  0  0  0  0  0  0  0
  149.7171  139.7646  155.7307 H   0  0  0  0  0  0  0  0  0  0  0  0
  150.3048  141.2329  156.4937 H   0  0  0  0  0  0  0  0  0  0  0  0
  151.8698  139.3487  156.8719 H   0  0  0  0  0  0  0  0  0  0  0  0
  150.0738  137.5676  156.7137 H   0  0  0  0  0  0  0  0  0  0  0  0
  151.2783  137.2886  157.9468 H   0  0  0  0  0  0  0  0  0  0  0  0
  148.9055  138.6965  158.8912 H   0  0  0  0  0  0  0  0  0  0  0  0
  146.3640  133.6991  163.3304 H   0  0  0  0  0  0  0  0  0  0  0  0
  150.3900  140.3237  159.3506 H   0  0  0  0  0  0  0  0  0  0  0  0
  151.8537  139.3852  159.4890 H   0  0  0  0  0  0  0  0  0  0  0  0
  151.2938  142.3920  157.0396 H   0  0  0  0  0  0  0  0  0  0  0  0
  150.3921  142.4732  158.5560 H   0  0  0  0  0  0  0  0  0  0  0  0
  153.0388  143.8272  157.9271 H   0  0  0  0  0  0  0  0  0  0  0  0
  151.5851  144.5803  158.5895 H   0  0  0  0  0  0  0  0  0  0  0  0
  153.5645  143.7807  160.2784 H   0  0  0  0  0  0  0  0  0  0  0  0
  151.8812  143.4832  160.7052 H   0  0  0  0  0  0  0  0  0  0  0  0
  152.4801  141.2511  160.7830 H   0  0  0  0  0  0  0  0  0  0  0  0
  153.9066  141.4846  159.7792 H   0  0  0  0  0  0  0  0  0  0  0  0
  152.8499  141.0731  157.9762 H   0  0  0  0  0  0  0  0  0  0  0  0
  1  2  1  0  0  0  0
  1 19  1  0  0  0  0
  1 20  1  0  0  0  0
  1 21  1  0  0  0  0
  2  3  1  0  0  0  0
  2 13  1  0  0  0  0
  2 22  1  0  0  0  0
  3  4  1  0  0  0  0
  3 23  1  0  0  0  0
  3 24  1  0  0  0  0
  4  5  1  0  0  0  0
  4 25  1  0  0  0  0
  5  6  2  0  0  0  0
  5  7  1  0  0  0  0
  7  8  1  0  0  0  0
  8 12  1  0  0  0  0
  8  9  2  0  0  0  0
  9 10  1  0  0  0  0
 10 11  2  0  0  0  0
 11 12  1  0  0  0  0
 11 26  1  0  0  0  0
 13 14  1  0  0  0  0
 13 27  1  0  0  0  0
 13 28  1  0  0  0  0
 14 18  1  0  0  0  0
 14 15  1  0  0  0  0
 14 37  1  0  0  0  0
 15 16  1  0  0  0  0
 15 29  1  0  0  0  0
 15 30  1  0  0  0  0
 16 17  1  0  0  0  0
 16 31  1  0  0  0  0
 16 32  1  0  0  0  0
 17 18  1  0  0  0  0
 17 33  1  0  0  0  0
 17 34  1  0  0  0  0
 18 35  1  0  0  0  0
 18 36  1  0  0  0  0
M  CHG  1   7  -1
M  CHG  1  14   1
M  END
> <s_m_source_file>
AV-unprocessed.smi

> <i_m_source_file_index>
1801

> <i_lp_mmshare_version>
43012

> <i_f3d_flags>
0

> <s_epik_input>
W0NIMl0xW0NIMl1bQ0gyXVtDSDJdTjFbQ0gyXVtDQEhdKFtDSDNdKVtDSDJdW05IXUMoPU8pW05IXWMybm5bY0hdczI=

> <s_epik_cmdline>
J2VwaWtfcHl0aG9uJywgJy1waCcsICc3LjAnLCAnLXRuJywgJzgnLCAnLW1hJywgJzIwMCcsICctbWV0YWxfYmluZGluZycsICctaW1hZScsICc8aW5maWxlLm1hZT4nLCAnLW9tYWUnLCAnPG91dGZpbGUubWFlPic=

> <r_lp_tautomer_probability>
1

> <r_epik_Ionization_Penalty>
3.29721

> <r_epik_Ionization_Penalty_Charging>
3.25987

> <r_epik_Ionization_Penalty_Neutral>
0.0373399

> <r_epik_State_Penalty>
3.2571

> <r_epik_Charging_Adjusted_Penalty>
6.51697

> <i_epik_Tot_Q>
0

> <i_epik_Tot_abs_Q>
2

> <r_epik_Metal_State_Penalty>
0.477553

> <b_epik_Metal_Only>
1

> <s_lp_Force_Field>
OPLS_2005

> <r_lp_Energy>
22.4794

> <b_lp_Chiralities_Consistent>
1

> <s_lp_Variant>
AV-unprocessed.smi:1801-3

> <Gold.Version>
5.8.1

> <Gold.Id.Protein>
6NUR|6NUR_protein|mol2

> <Gold.PLP.Fitness>
45.9263

> <Gold.PLP.PLP>
-35.4142

> <Gold.PLP.part.hbond>
-3.0000

> <Gold.PLP.part.metal>
0.0000

> <Gold.PLP.part.buried>
-5.5603

> <Gold.PLP.part.nonpolar>
-29.4531

> <Gold.PLP.part.repulsive>
0.3179

> <Gold.PLP.ligand.clash>
0.0000

> <Gold.PLP.ligand.torsion>
0.7674

> <Gold.PLP.Chemscore.Hbond>
3.9631

> <Gold.PLP.Chemscore.CHOScore>
0.0000

> <Gold.PLP.Chemscore.Metal>
0.0000

> <Gold.Chemscore.Hbonds>
donor molecule, donor type, donor heavy atom, donor atom, acceptor molecule, acceptor atom, score
      P1  H  6896  6909       L1     6  1.00
      P1  H  6931  6943       L1     7  0.27
      P1  H  6934  6947       L1     7  0.25

> <Gold.PLP.Chemscore.Internal.Correction>
0.1575

> <Gold.Rescore>
     Score         DG    S(hbond)    S(metal)    S(lipo)     H(rot)  DE(clash)    DE(int)     intcor
     14.35     -16.74       2.05        0.00      79.94       1.93       0.09       2.31       ----

> <Gold.Chemscore.Fitness>
14.3535

> <Gold.Chemscore.DG>
-16.7446

> <Gold.Chemscore.ZeroCoef>
-5.4800

> <Gold.Chemscore.Hbond>
2.0489

> <Gold.Chemscore.Metal>
0.0000

> <Gold.Chemscore.Lipo>
79.9416

> <Gold.Chemscore.Internal_Hbond>
0.0000

> <Gold.Chemscore.DEClash>
0.0853

> <Gold.Chemscore.DEInternal>
2.3057

> <Gold.Chemscore.Rot>
1.9266

> <Gold.Chemscore.Internal.Correction>
   9.000000E+99

> <Gold.Chemscore.Hbonds>
donor molecule, donor type, donor heavy atom, donor atom, acceptor molecule, acceptor atom, score
      P1  H  6896  6909       L1     6  0.98
      P1  H  6931  6943       L1     7  0.03
      P1  H  6934  6947       L1     7  0.12

> <Gold.Chemscore.Hbond.Weighted>
-6.8435

> <Gold.Chemscore.Metal.Weighted>
-0.0000

> <Gold.Chemscore.Lipo.Weighted>
-9.3532

> <Gold.Chemscore.Internal_Hbond.Weighted>
0.0000

> <Gold.Chemscore.DEClash.Weighted>
0.0853

> <Gold.Chemscore.DEInternal.Weighted>
2.3057

> <Gold.Chemscore.Rot.Weighted>
4.9321

> <Gold.Chemscore.Internal.Correction.Weighted>
   9.000000E+99

> <Gold.Protein.RotatedTorsions>
[ 6907 6896 6895 6894 ] final   41.96 input  -60.11 | X-H torsion
[ 7974 7965 7964 7962 ] final -176.03 input  175.53 | X-H torsion
[ 8008 7997 7996 7995 ] final  -95.36 input   59.86 | X-H torsion
[ 10167 10162 10161 10158 ] final  117.33 input  -65.29 | X-H torsion
[ 10718 10713 10712 10709 ] final  155.80 input   66.30 | X-H torsion
[ 10763 10752 10751 10750 ] final -105.51 input  -60.55 | X-H torsion
[ 11005 11000 10999 10996 ] final  -14.94 input  -57.11 | X-H torsion

> <Gold.Protein.ActiveResidues>
 VAL166  LYS551  ARG553  GLY616  TRP617  ASP618  TYR619  PRO620  LYS621  CYS622 
 ASP623  PHE694  ASN695  SER759  ASP760  ASP761  ALA762  ILE779  LEU786  VAL792 
 PHE793  MET794  SER795  GLU796  ALA797  LYS798  CYS799  TRP800  GLU811  SER814 

> <Gold.Protein.RotatedAtoms>
  152.2018  134.8580  160.0506 H   0  0  0  0  0  0  0  0  0  0  0  0  # atno 6907 bound_to 6896
  151.9431  133.3638  159.3980 H   0  0  0  0  0  0  0  0  0  0  0  0  # atno 6908 bound_to 6896
  150.6956  134.4343  159.5306 H   0  0  0  0  0  0  0  0  0  0  0  0  # atno 6909 bound_to 6896
  144.7127  140.1232  143.6404 H   0  0  0  0  0  0  0  0  0  0  0  0  # atno 7974 bound_to 7965
  154.7604  140.0481  157.0968 H   0  0  0  0  0  0  0  0  0  0  0  0  # atno 8008 bound_to 7997
  154.9945  140.3117  155.4873 H   0  0  0  0  0  0  0  0  0  0  0  0  # atno 8009 bound_to 7997
  156.2903  140.2212  156.5052 H   0  0  0  0  0  0  0  0  0  0  0  0  # atno 8010 bound_to 7997
  139.6186  144.7096  151.2685 H   0  0  0  0  0  0  0  0  0  0  0  0  # atno 10167 bound_to 10162
  157.2135  131.0703  151.1955 H   0  0  0  0  0  0  0  0  0  0  0  0  # atno 10718 bound_to 10713
  154.7951  135.4746  154.0142 H   0  0  0  0  0  0  0  0  0  0  0  0  # atno 10763 bound_to 10752
  153.1691  135.6822  153.8640 H   0  0  0  0  0  0  0  0  0  0  0  0  # atno 10764 bound_to 10752
  153.8228  135.3202  155.3389 H   0  0  0  0  0  0  0  0  0  0  0  0  # atno 10765 bound_to 10752
  140.7915  133.8284  155.9384 H   0  0  0  0  0  0  0  0  0  0  0  0  # atno 11005 bound_to 11000
  145.9353  139.2633  143.1301 LP  0  0  0  0  0  0  0  0  0  0  0  0  # atno 17320 bound_to 7965
  145.9481  140.8929  143.0273 LP  0  0  0  0  0  0  0  0  0  0  0  0  # atno 17321 bound_to 7965
  140.7367  143.6700  150.8090 LP  0  0  0  0  0  0  0  0  0  0  0  0  # atno 17342 bound_to 10162
  140.0307  143.5447  152.2761 LP  0  0  0  0  0  0  0  0  0  0  0  0  # atno 17343 bound_to 10162
  157.3648  130.7150  149.6525 LP  0  0  0  0  0  0  0  0  0  0  0  0  # atno 17370 bound_to 10713
  155.9688  130.4215  150.4474 LP  0  0  0  0  0  0  0  0  0  0  0  0  # atno 17371 bound_to 10713
  140.9384  134.1932  157.4815 LP  0  0  0  0  0  0  0  0  0  0  0  0  # atno 17394 bound_to 11000
  139.8730  134.9862  156.5313 LP  0  0  0  0  0  0  0  0  0  0  0  0  # atno 17395 bound_to 11000

$$$$
