AV-unprocessed.smi:1768|AV-procd|sdf|7147|dock10
  -GOLD-   22720 8383D 1   1.00000     0.00000
 Structure written by MMmdl.
 32 33  0  0  0  0  0  0  0  0  2 V2000
  155.6327  135.1942  160.5928 C   0  0  0  0  0  0  0  0  0  0  0  0
  154.7979  136.2966  160.0377 C   0  0  0  0  0  0  0  0  0  0  0  0
  153.4689  136.3275  160.1618 N   0  0  0  0  0  0  0  0  0  0  0  0
  152.9145  137.4521  159.5677 N   0  0  0  0  0  0  0  0  0  0  0  0
  153.8296  138.2584  159.0115 C   0  0  0  0  0  0  0  0  0  0  0  0
  153.4975  139.3981  158.3827 N   0  5  0  0  0  0  0  0  0  0  0  0
  152.2095  139.8108  158.3649 C   0  0  0  0  0  0  0  0  0  0  0  0
  151.2372  139.1814  158.7875 O   0  0  0  0  0  0  0  0  0  0  0  0
  152.0453  141.0294  157.8294 N   0  0  0  0  0  0  0  0  0  0  0  0
  150.7886  141.7638  157.6843 C   0  0  2  0  0  0  0  0  0  0  0  0
  150.4820  141.9444  156.1907 C   0  0  0  0  0  0  0  0  0  0  0  0
  150.8835  143.1135  158.4214 C   0  0  2  0  0  0  0  0  0  0  0  0
  151.9374  144.0721  157.8681 C   0  0  0  0  0  0  0  0  0  0  0  0
  152.1847  145.0080  159.0365 C   0  0  0  0  0  0  0  0  0  0  0  0
  151.7830  144.1794  160.2612 C   0  0  0  0  0  0  0  0  0  0  0  0
  151.3276  142.9287  159.7574 O   0  0  0  0  0  0  0  0  0  0  0  0
  155.4813  137.6595  159.1671 S   0  0  0  0  0  0  0  0  0  0  0  0
  155.5405  135.1668  161.6786 H   0  0  0  0  0  0  0  0  0  0  0  0
  156.6810  135.3447  160.3347 H   0  0  0  0  0  0  0  0  0  0  0  0
  155.3074  134.2359  160.1873 H   0  0  0  0  0  0  0  0  0  0  0  0
  152.8779  141.4967  157.5016 H   0  0  0  0  0  0  0  0  0  0  0  0
  149.9656  141.1992  158.1251 H   0  0  0  0  0  0  0  0  0  0  0  0
  149.5398  142.4729  156.0431 H   0  0  0  0  0  0  0  0  0  0  0  0
  150.3984  140.9795  155.6896 H   0  0  0  0  0  0  0  0  0  0  0  0
  151.2653  142.5139  155.6897 H   0  0  0  0  0  0  0  0  0  0  0  0
  149.9104  143.6084  158.4390 H   0  0  0  0  0  0  0  0  0  0  0  0
  152.8524  143.5279  157.6295 H   0  0  0  0  0  0  0  0  0  0  0  0
  151.6094  144.5931  156.9680 H   0  0  0  0  0  0  0  0  0  0  0  0
  153.2221  145.3407  159.0786 H   0  0  0  0  0  0  0  0  0  0  0  0
  151.5503  145.8918  158.9584 H   0  0  0  0  0  0  0  0  0  0  0  0
  152.6172  144.0256  160.9463 H   0  0  0  0  0  0  0  0  0  0  0  0
  150.9782  144.6685  160.8110 H   0  0  0  0  0  0  0  0  0  0  0  0
  1  2  1  0  0  0  0
  1 18  1  0  0  0  0
  1 19  1  0  0  0  0
  1 20  1  0  0  0  0
  2 17  1  0  0  0  0
  2  3  2  0  0  0  0
  3  4  1  0  0  0  0
  4  5  2  0  0  0  0
  5  6  1  0  0  0  0
  5 17  1  0  0  0  0
  6  7  1  0  0  0  0
  7  8  2  0  0  0  0
  7  9  1  0  0  0  0
  9 10  1  0  0  0  0
  9 21  1  0  0  0  0
 10 11  1  0  0  0  0
 10 12  1  0  0  0  0
 10 22  1  0  0  0  0
 11 23  1  0  0  0  0
 11 24  1  0  0  0  0
 11 25  1  0  0  0  0
 12 16  1  0  0  0  0
 12 13  1  0  0  0  0
 12 26  1  0  0  0  0
 13 14  1  0  0  0  0
 13 27  1  0  0  0  0
 13 28  1  0  0  0  0
 14 15  1  0  0  0  0
 14 29  1  0  0  0  0
 14 30  1  0  0  0  0
 15 16  1  0  0  0  0
 15 31  1  0  0  0  0
 15 32  1  0  0  0  0
M  CHG  1   6  -1
M  END
> <s_m_source_file>
AV-unprocessed.smi

> <i_m_source_file_index>
1768

> <i_lp_mmshare_version>
43012

> <i_f3d_flags>
0

> <s_epik_input>
W0NIM11jMW5uYyhzMSlbTkhdQyg9TylbTkhdW0NASF0oW0NIM10pW0NAQEhdMltDSDJdW0NIMl1bQ0gyXU8y

> <s_epik_cmdline>
J2VwaWtfcHl0aG9uJywgJy1waCcsICc3LjAnLCAnLXRuJywgJzgnLCAnLW1hJywgJzIwMCcsICctbWV0YWxfYmluZGluZycsICctaW1hZScsICc8aW5maWxlLm1hZT4nLCAnLW9tYWUnLCAnPG91dGZpbGUubWFlPic=

> <r_lp_tautomer_probability>
1

> <r_epik_Ionization_Penalty>
4.3376

> <r_epik_Ionization_Penalty_Charging>
4.19392

> <r_epik_Ionization_Penalty_Neutral>
0.143681

> <r_epik_State_Penalty>
4.19342

> <r_epik_Charging_Adjusted_Penalty>
8.38735

> <i_epik_Tot_Q>
-1

> <i_epik_Tot_abs_Q>
1

> <r_epik_Metal_State_Penalty>
0.686065

> <b_epik_Metal_Only>
1

> <s_lp_Force_Field>
OPLS_2005

> <r_lp_Energy>
15.5769

> <b_lp_Chiralities_Consistent>
1

> <s_lp_Variant>
AV-unprocessed.smi:1768-5

> <Gold.Version>
5.8.1

> <Gold.Id.Protein>
6NUR|6NUR_protein|mol2

> <Gold.PLP.Fitness>
37.2960

> <Gold.PLP.PLP>
-28.3764

> <Gold.PLP.part.hbond>
-2.2995

> <Gold.PLP.part.metal>
0.0000

> <Gold.PLP.part.buried>
-4.2929

> <Gold.PLP.part.nonpolar>
-21.7683

> <Gold.PLP.part.repulsive>
0.0860

> <Gold.PLP.ligand.clash>
0.0000

> <Gold.PLP.ligand.torsion>
0.0605

> <Gold.PLP.Chemscore.Hbond>
3.0000

> <Gold.PLP.Chemscore.CHOScore>
0.0000

> <Gold.PLP.Chemscore.Metal>
0.0000

> <Gold.Chemscore.Hbonds>
donor molecule, donor type, donor heavy atom, donor atom, acceptor molecule, acceptor atom, score
      P1  H  6896  6907       L1     3  1.00
      P1  H  7997  8008       L1     6  2.00

> <Gold.PLP.Chemscore.Internal.Correction>
0.0406

> <Gold.Rescore>
     Score         DG    S(hbond)    S(metal)    S(lipo)     H(rot)  DE(clash)    DE(int)     intcor
     15.31     -17.12       1.89        0.00      73.38       1.28       0.02       1.79       ----

> <Gold.Chemscore.Fitness>
15.3117

> <Gold.Chemscore.DG>
-17.1219

> <Gold.Chemscore.ZeroCoef>
-5.4800

> <Gold.Chemscore.Hbond>
1.8942

> <Gold.Chemscore.Metal>
0.0000

> <Gold.Chemscore.Lipo>
73.3844

> <Gold.Chemscore.Internal_Hbond>
0.0000

> <Gold.Chemscore.DEClash>
0.0154

> <Gold.Chemscore.DEInternal>
1.7947

> <Gold.Chemscore.Rot>
1.2776

> <Gold.Chemscore.Internal.Correction>
   9.000000E+99

> <Gold.Chemscore.Hbonds>
donor molecule, donor type, donor heavy atom, donor atom, acceptor molecule, acceptor atom, score
      P1  H  6896  6907       L1     3  0.29
      P1  H  7997  8008       L1     6  0.90

> <Gold.Chemscore.Hbond.Weighted>
-6.3265

> <Gold.Chemscore.Metal.Weighted>
-0.0000

> <Gold.Chemscore.Lipo.Weighted>
-8.5860

> <Gold.Chemscore.Internal_Hbond.Weighted>
0.0000

> <Gold.Chemscore.DEClash.Weighted>
0.0154

> <Gold.Chemscore.DEInternal.Weighted>
1.7947

> <Gold.Chemscore.Rot.Weighted>
3.2706

> <Gold.Chemscore.Internal.Correction.Weighted>
   9.000000E+99

> <Gold.Protein.RotatedTorsions>
[ 6907 6896 6895 6894 ] final   21.92 input  -60.11 | X-H torsion
[ 7974 7965 7964 7962 ] final   65.28 input  175.53 | X-H torsion
[ 8008 7997 7996 7995 ] final  -97.87 input   59.86 | X-H torsion
[ 10167 10162 10161 10158 ] final  -28.57 input  -65.29 | X-H torsion
[ 10718 10713 10712 10709 ] final -144.51 input   66.30 | X-H torsion
[ 10763 10752 10751 10750 ] final   45.70 input  -60.55 | X-H torsion
[ 11005 11000 10999 10996 ] final   -0.16 input  -57.11 | X-H torsion

> <Gold.Protein.ActiveResidues>
 VAL166  LYS551  ARG553  GLY616  TRP617  ASP618  TYR619  PRO620  LYS621  CYS622 
 ASP623  PHE694  ASN695  SER759  ASP760  ASP761  ALA762  ILE779  LEU786  VAL792 
 PHE793  MET794  SER795  GLU796  ALA797  LYS798  CYS799  TRP800  GLU811  SER814 

> <Gold.Protein.RotatedAtoms>
  151.9191  135.0306  160.0520 H   0  0  0  0  0  0  0  0  0  0  0  0  # atno 6907 bound_to 6896
  152.2214  133.4982  159.5173 H   0  0  0  0  0  0  0  0  0  0  0  0  # atno 6908 bound_to 6896
  150.7001  134.1253  159.4092 H   0  0  0  0  0  0  0  0  0  0  0  0  # atno 6909 bound_to 6896
  145.8403  139.3191  143.0935 H   0  0  0  0  0  0  0  0  0  0  0  0  # atno 7974 bound_to 7965
  154.7935  140.0459  157.1219 H   0  0  0  0  0  0  0  0  0  0  0  0  # atno 8008 bound_to 7997
  154.9562  140.3071  155.5032 H   0  0  0  0  0  0  0  0  0  0  0  0  # atno 8009 bound_to 7997
  156.2953  140.2279  156.4644 H   0  0  0  0  0  0  0  0  0  0  0  0  # atno 8010 bound_to 7997
  140.7268  143.3999  151.1282 H   0  0  0  0  0  0  0  0  0  0  0  0  # atno 10167 bound_to 10162
  156.3710  130.7787  151.1968 H   0  0  0  0  0  0  0  0  0  0  0  0  # atno 10718 bound_to 10713
  152.9821  135.6031  154.3479 H   0  0  0  0  0  0  0  0  0  0  0  0  # atno 10763 bound_to 10752
  154.3170  135.2770  155.2540 H   0  0  0  0  0  0  0  0  0  0  0  0  # atno 10764 bound_to 10752
  154.4723  135.5938  153.6386 H   0  0  0  0  0  0  0  0  0  0  0  0  # atno 10765 bound_to 10752
  140.6331  133.9557  155.8285 H   0  0  0  0  0  0  0  0  0  0  0  0  # atno 11005 bound_to 11000
  145.9473  140.8935  143.0277 LP  0  0  0  0  0  0  0  0  0  0  0  0  # atno 17320 bound_to 7965
  144.6734  140.1631  143.7420 LP  0  0  0  0  0  0  0  0  0  0  0  0  # atno 17321 bound_to 7965
  139.7617  143.8625  152.3102 LP  0  0  0  0  0  0  0  0  0  0  0  0  # atno 17342 bound_to 10162
  139.8513  144.7163  150.9211 LP  0  0  0  0  0  0  0  0  0  0  0  0  # atno 17343 bound_to 10162
  157.7484  131.0372  150.4446 LP  0  0  0  0  0  0  0  0  0  0  0  0  # atno 17370 bound_to 10713
  156.4673  130.4045  149.6539 LP  0  0  0  0  0  0  0  0  0  0  0  0  # atno 17371 bound_to 10713
  141.0661  134.0275  157.3592 LP  0  0  0  0  0  0  0  0  0  0  0  0  # atno 17394 bound_to 11000
  139.9108  135.0189  156.7684 LP  0  0  0  0  0  0  0  0  0  0  0  0  # atno 17395 bound_to 11000

$$$$
