AV-unprocessed.smi:1417|AV-procd|sdf|5769|dock6
  -GOLD-   22720 5413D 1   1.00000     0.00000
 Structure written by MMmdl.
 39 40  0  0  0  0  0  0  0  0  3 V2000
  152.1848  143.0638  159.2809 C   0  0  0  0  0  0  0  0  0  0  0  0
  151.9165  142.1859  158.1066 C   0  0  0  0  0  0  0  0  0  0  0  0
  151.0518  142.2850  157.0536 C   0  0  0  0  0  0  0  0  0  0  0  0
  151.3090  141.1016  156.3093 C   0  0  0  0  0  0  0  0  0  0  0  0
  150.7052  140.7449  155.1652 N   0  5  0  0  0  0  0  0  0  0  0  0
  149.4971  140.1377  155.1944 C   0  0  0  0  0  0  0  0  0  0  0  0
  148.8628  139.8168  156.2023 O   0  0  0  0  0  0  0  0  0  0  0  0
  148.9920  139.8867  153.9781 N   0  0  0  0  0  0  0  0  0  0  0  0
  147.7130  139.2413  153.6994 C   0  0  2  0  0  0  0  0  0  0  0  0
  147.6812  137.8198  154.2885 C   0  0  0  0  0  0  0  0  0  0  0  0
  146.3796  137.0943  153.9138 C   0  0  0  0  0  0  0  0  0  0  0  0
  146.1917  137.0575  152.4388 N   0  3  1  0  0  0  0  0  0  0  0  0
  145.0139  136.2541  152.0229 C   0  0  0  0  0  0  0  0  0  0  0  0
  145.3223  135.3006  150.8642 C   0  0  0  0  0  0  0  0  0  0  0  0
  145.0762  135.7498  149.6317 N   0  0  0  0  0  0  0  0  0  0  0  0
  145.7897  134.1826  151.0736 O   0  0  0  0  0  0  0  0  0  0  0  0
  146.1814  138.4228  151.8545 C   0  0  0  0  0  0  0  0  0  0  0  0
  147.4813  139.1751  152.1820 C   0  0  0  0  0  0  0  0  0  0  0  0
  152.2587  140.3586  156.8527 N   0  0  0  0  0  0  0  0  0  0  0  0
  152.6490  141.0439  158.0096 O   0  0  0  0  0  0  0  0  0  0  0  0
  152.4437  144.0719  158.9574 H   0  0  0  0  0  0  0  0  0  0  0  0
  153.0101  142.6788  159.8801 H   0  0  0  0  0  0  0  0  0  0  0  0
  151.3047  143.1292  159.9207 H   0  0  0  0  0  0  0  0  0  0  0  0
  150.3448  143.0753  156.8499 H   0  0  0  0  0  0  0  0  0  0  0  0
  149.5470  140.1674  153.1828 H   0  0  0  0  0  0  0  0  0  0  0  0
  146.9079  139.8317  154.1413 H   0  0  0  0  0  0  0  0  0  0  0  0
  148.5344  137.2466  153.9224 H   0  0  0  0  0  0  0  0  0  0  0  0
  147.7788  137.8588  155.3741 H   0  0  0  0  0  0  0  0  0  0  0  0
  146.4095  136.0809  154.3147 H   0  0  0  0  0  0  0  0  0  0  0  0
  145.5272  137.5919  154.3790 H   0  0  0  0  0  0  0  0  0  0  0  0
  144.6139  135.7060  152.8777 H   0  0  0  0  0  0  0  0  0  0  0  0
  144.2199  136.9174  151.6770 H   0  0  0  0  0  0  0  0  0  0  0  0
  145.2593  135.1629  148.8304 H   0  0  0  0  0  0  0  0  0  0  0  0
  144.7040  136.6802  149.5029 H   0  0  0  0  0  0  0  0  0  0  0  0
  146.0700  138.3596  150.7714 H   0  0  0  0  0  0  0  0  0  0  0  0
  145.3198  138.9759  152.2319 H   0  0  0  0  0  0  0  0  0  0  0  0
  147.4397  140.1823  151.7653 H   0  0  0  0  0  0  0  0  0  0  0  0
  148.3216  138.6745  151.6980 H   0  0  0  0  0  0  0  0  0  0  0  0
  147.0000  136.5905  152.0520 H   0  0  0  0  0  0  0  0  0  0  0  0
  1  2  1  0  0  0  0
  1 21  1  0  0  0  0
  1 22  1  0  0  0  0
  1 23  1  0  0  0  0
  2 20  1  0  0  0  0
  2  3  2  0  0  0  0
  3  4  1  0  0  0  0
  3 24  1  0  0  0  0
  4  5  1  0  0  0  0
  4 19  2  0  0  0  0
  5  6  1  0  0  0  0
  6  7  2  0  0  0  0
  6  8  1  0  0  0  0
  8  9  1  0  0  0  0
  8 25  1  0  0  0  0
  9 18  1  0  0  0  0
  9 10  1  0  0  0  0
  9 26  1  0  0  0  0
 10 11  1  0  0  0  0
 10 27  1  0  0  0  0
 10 28  1  0  0  0  0
 11 12  1  0  0  0  0
 11 29  1  0  0  0  0
 11 30  1  0  0  0  0
 12 13  1  0  0  0  0
 12 17  1  0  0  0  0
 12 39  1  0  0  0  0
 13 14  1  0  0  0  0
 13 31  1  0  0  0  0
 13 32  1  0  0  0  0
 14 15  1  0  0  0  0
 14 16  2  0  0  0  0
 15 33  1  0  0  0  0
 15 34  1  0  0  0  0
 17 18  1  0  0  0  0
 17 35  1  0  0  0  0
 17 36  1  0  0  0  0
 18 37  1  0  0  0  0
 18 38  1  0  0  0  0
 19 20  1  0  0  0  0
M  CHG  1   5  -1
M  CHG  1  12   1
M  END
> <s_m_source_file>
AV-unprocessed.smi

> <i_m_source_file_index>
1417

> <i_lp_mmshare_version>
43012

> <i_f3d_flags>
0

> <s_epik_input>
W0NIM11jMVtjSF1jKG5vMSlbTkhdQyg9TylbTkhdW0NIXTJbQ0gyXVtDSDJdTihbQ0gyXVtDSDJdMilbQ0gyXUMoPU8pW05IMl0=

> <s_epik_cmdline>
J2VwaWtfcHl0aG9uJywgJy1waCcsICc3LjAnLCAnLXRuJywgJzgnLCAnLW1hJywgJzIwMCcsICctbWV0YWxfYmluZGluZycsICctaW1hZScsICc8aW5maWxlLm1hZT4nLCAnLW9tYWUnLCAnPG91dGZpbGUubWFlPic=

> <r_epik_Ionization_Penalty>
7.07562

> <r_epik_Ionization_Penalty_Charging>
7.07548

> <r_epik_Ionization_Penalty_Neutral>
0.00013758

> <r_epik_State_Penalty>
7.16607

> <r_epik_Charging_Adjusted_Penalty>
14.2416

> <i_epik_Tot_Q>
0

> <i_epik_Tot_abs_Q>
2

> <r_epik_Metal_State_Penalty>
3.11438

> <b_epik_Metal_Only>
1

> <s_lp_Force_Field>
OPLS_2005

> <r_lp_Energy>
-1.46184

> <b_lp_Chiralities_Consistent>
1

> <s_lp_Variant>
AV-unprocessed.smi:1417-5

> <Gold.Version>
5.8.1

> <Gold.Id.Protein>
6NUR|6NUR_protein|mol2

> <Gold.PLP.Fitness>
41.0812

> <Gold.PLP.PLP>
-27.7520

> <Gold.PLP.part.hbond>
-6.9672

> <Gold.PLP.part.metal>
0.0000

> <Gold.PLP.part.buried>
3.0538

> <Gold.PLP.part.nonpolar>
-23.6824

> <Gold.PLP.part.repulsive>
0.5089

> <Gold.PLP.ligand.clash>
0.0000

> <Gold.PLP.ligand.torsion>
1.6922

> <Gold.PLP.Chemscore.Hbond>
5.5569

> <Gold.PLP.Chemscore.CHOScore>
0.0000

> <Gold.PLP.Chemscore.Metal>
0.0000

> <Gold.Chemscore.Hbonds>
donor molecule, donor type, donor heavy atom, donor atom, acceptor molecule, acceptor atom, score
      L1  H     8    25       P1  7957  0.85
      L1  H    12    39       P1  7948  2.00
      L1  H    15    33       P1  7921  0.95
      L1  H    15    34       P1 10171  0.89
      P1  H  7989  7998       L1     5  0.86

> <Gold.PLP.Chemscore.Internal.Correction>
0.0428

> <Gold.Rescore>
     Score         DG    S(hbond)    S(metal)    S(lipo)     H(rot)  DE(clash)    DE(int)     intcor
     19.00     -22.42       4.40        0.00      63.46       2.02       1.58       1.84       ----

> <Gold.Chemscore.Fitness>
18.9979

> <Gold.Chemscore.DG>
-22.4174

> <Gold.Chemscore.ZeroCoef>
-5.4800

> <Gold.Chemscore.Hbond>
4.3979

> <Gold.Chemscore.Metal>
0.0000

> <Gold.Chemscore.Lipo>
63.4639

> <Gold.Chemscore.Internal_Hbond>
0.0000

> <Gold.Chemscore.DEClash>
1.5829

> <Gold.Chemscore.DEInternal>
1.8367

> <Gold.Chemscore.Rot>
2.0222

> <Gold.Chemscore.Internal.Correction>
   9.000000E+99

> <Gold.Chemscore.Hbonds>
donor molecule, donor type, donor heavy atom, donor atom, acceptor molecule, acceptor atom, score
      L1  H     8    25       P1  7957  0.78
      L1  H    12    39       P1  7948  0.96
      L1  H    15    33       P1  7921  0.85
      L1  H    15    34       P1 10171  0.87
      P1  H  7989  7998       L1     5  0.80

> <Gold.Chemscore.Hbond.Weighted>
-14.6891

> <Gold.Chemscore.Metal.Weighted>
-0.0000

> <Gold.Chemscore.Lipo.Weighted>
-7.4253

> <Gold.Chemscore.Internal_Hbond.Weighted>
0.0000

> <Gold.Chemscore.DEClash.Weighted>
1.5829

> <Gold.Chemscore.DEInternal.Weighted>
1.8367

> <Gold.Chemscore.Rot.Weighted>
5.1769

> <Gold.Chemscore.Internal.Correction.Weighted>
   9.000000E+99

> <Gold.Protein.RotatedTorsions>
[ 6907 6896 6895 6894 ] final  -53.18 input  -60.11 | X-H torsion
[ 7974 7965 7964 7962 ] final  117.24 input  175.53 | X-H torsion
[ 8008 7997 7996 7995 ] final   54.15 input   59.86 | X-H torsion
[ 10167 10162 10161 10158 ] final   27.37 input  -65.29 | X-H torsion
[ 10718 10713 10712 10709 ] final   77.76 input   66.30 | X-H torsion
[ 10763 10752 10751 10750 ] final   73.31 input  -60.55 | X-H torsion
[ 11005 11000 10999 10996 ] final -112.81 input  -57.11 | X-H torsion

> <Gold.Protein.ActiveResidues>
 VAL166  LYS551  ARG553  GLY616  TRP617  ASP618  TYR619  PRO620  LYS621  CYS622 
 ASP623  PHE694  ASN695  SER759  ASP760  ASP761  ALA762  ILE779  LEU786  VAL792 
 PHE793  MET794  SER795  GLU796  ALA797  LYS798  CYS799  TRP800  GLU811  SER814 

> <Gold.Protein.RotatedAtoms>
  150.8450  134.7756  159.6962 H   0  0  0  0  0  0  0  0  0  0  0  0  # atno 6907 bound_to 6896
  152.4529  134.5351  159.9832 H   0  0  0  0  0  0  0  0  0  0  0  0  # atno 6908 bound_to 6896
  151.5484  133.3383  159.2984 H   0  0  0  0  0  0  0  0  0  0  0  0  # atno 6909 bound_to 6896
  145.1698  139.3108  143.4473 H   0  0  0  0  0  0  0  0  0  0  0  0  # atno 7974 bound_to 7965
  155.4800  140.3468  155.4338 H   0  0  0  0  0  0  0  0  0  0  0  0  # atno 8008 bound_to 7997
  156.1045  140.1444  156.9451 H   0  0  0  0  0  0  0  0  0  0  0  0  # atno 8009 bound_to 7997
  154.4715  140.0899  156.7135 H   0  0  0  0  0  0  0  0  0  0  0  0  # atno 8010 bound_to 7997
  140.4944  144.0416  150.6309 H   0  0  0  0  0  0  0  0  0  0  0  0  # atno 10167 bound_to 10162
  157.6722  130.9837  150.1688 H   0  0  0  0  0  0  0  0  0  0  0  0  # atno 10718 bound_to 10713
  153.0513  135.5067  154.7874 H   0  0  0  0  0  0  0  0  0  0  0  0  # atno 10763 bound_to 10752
  154.6734  135.2956  154.9713 H   0  0  0  0  0  0  0  0  0  0  0  0  # atno 10764 bound_to 10752
  154.0524  135.6702  153.4854 H   0  0  0  0  0  0  0  0  0  0  0  0  # atno 10765 bound_to 10752
  141.0653  133.9469  157.2591 H   0  0  0  0  0  0  0  0  0  0  0  0  # atno 11005 bound_to 11000
  146.3470  140.1839  142.8589 LP  0  0  0  0  0  0  0  0  0  0  0  0  # atno 17320 bound_to 7965
  145.0244  140.8820  143.5147 LP  0  0  0  0  0  0  0  0  0  0  0  0  # atno 17321 bound_to 7965
  140.3694  143.2863  152.0295 LP  0  0  0  0  0  0  0  0  0  0  0  0  # atno 17342 bound_to 10162
  139.4858  144.6242  151.7197 LP  0  0  0  0  0  0  0  0  0  0  0  0  # atno 17343 bound_to 10162
  156.2447  130.3694  149.8298 LP  0  0  0  0  0  0  0  0  0  0  0  0  # atno 17370 bound_to 10713
  156.6088  130.8578  151.3449 LP  0  0  0  0  0  0  0  0  0  0  0  0  # atno 17371 bound_to 10713
  139.9470  135.0182  156.8882 LP  0  0  0  0  0  0  0  0  0  0  0  0  # atno 17394 bound_to 11000
  140.5786  134.0373  155.7456 LP  0  0  0  0  0  0  0  0  0  0  0  0  # atno 17395 bound_to 11000

$$$$
