AV-unprocessed.smi:167|AV-procd|sdf|1395|dock7
  -GOLD-   2262019133D 1   1.00000     0.00000
 Structure written by MMmdl.
 51 55  0  0  0  0  0  0  0  0  1 V2000
  149.2057  141.1113  153.5416 O   0  0  0  0  0  0  0  0  0  0  0  0
  148.4974  140.7406  154.7049 C   0  0  0  0  0  0  0  0  0  0  0  0
  149.1055  141.4337  155.9395 C   0  0  1  0  0  0  0  0  0  0  0  0
  148.9045  140.6631  157.2607 C   0  0  0  0  0  0  0  0  0  0  0  0
  150.3539  140.5466  157.7765 C   0  0  2  0  0  0  0  0  0  0  0  0
  150.8341  141.9297  158.2499 C   0  0  0  0  0  0  0  0  0  0  0  0
  151.0768  142.6396  156.9074 C   0  0  0  0  0  0  0  0  0  0  0  0
  150.6506  141.5501  155.9065 C   0  0  1  0  0  0  0  0  0  0  0  0
  151.1370  140.3470  156.5669 N   0  0  0  0  0  0  0  0  0  0  0  0
  151.1532  139.1472  155.9250 C   0  0  0  0  0  0  0  0  0  0  0  0
  151.6125  139.0914  154.6466 N   0  0  0  0  0  0  0  0  0  0  0  0
  151.6560  137.9287  153.9912 C   0  0  0  0  0  0  0  0  0  0  0  0
  151.2855  136.7194  154.4138 N   0  0  0  0  0  0  0  0  0  0  0  0
  150.8016  136.7672  155.6878 C   0  0  0  0  0  0  0  0  0  0  0  0
  150.6979  137.9280  156.5077 C   0  0  0  0  0  0  0  0  0  0  0  0
  150.1567  137.5808  157.7398 N   0  0  0  0  0  0  0  0  0  0  0  0
  149.9697  136.2923  157.6604 C   0  0  0  0  0  0  0  0  0  0  0  0
  150.3163  135.7222  156.4562 N   0  0  0  0  0  0  0  0  0  0  0  0
  150.2381  134.3329  156.1026 C   0  0  0  0  0  0  0  0  0  0  0  0
  150.2186  133.8692  154.6416 C   0  0  0  0  0  0  0  0  0  0  0  0
  149.2864  132.7008  155.0403 C   0  0  0  0  0  0  0  0  0  0  0  0
  148.1453  132.3658  154.0598 C   0  0  0  0  0  0  0  0  0  0  0  0
  148.6144  131.7882  152.8573 O   0  0  0  0  0  0  0  0  0  0  0  0
  150.0269  131.3847  155.3445 C   0  0  0  0  0  0  0  0  0  0  0  0
  149.1752  130.4364  155.9551 O   0  0  0  0  0  0  0  0  0  0  0  0
  148.9288  133.5619  156.2749 C   0  0  0  0  0  0  0  0  0  0  0  0
  149.2913  140.3504  152.9873 H   0  0  0  0  0  0  0  0  0  0  0  0
  147.4469  140.9956  154.5715 H   0  0  0  0  0  0  0  0  0  0  0  0
  148.5550  139.6573  154.8132 H   0  0  0  0  0  0  0  0  0  0  0  0
  148.6687  142.4311  156.0117 H   0  0  0  0  0  0  0  0  0  0  0  0
  148.2506  141.1874  157.9582 H   0  0  0  0  0  0  0  0  0  0  0  0
  148.4763  139.6751  157.0850 H   0  0  0  0  0  0  0  0  0  0  0  0
  150.4822  139.7781  158.5397 H   0  0  0  0  0  0  0  0  0  0  0  0
  150.0986  142.4390  158.8735 H   0  0  0  0  0  0  0  0  0  0  0  0
  151.7637  141.8501  158.8148 H   0  0  0  0  0  0  0  0  0  0  0  0
  150.5082  143.5643  156.8040 H   0  0  0  0  0  0  0  0  0  0  0  0
  152.1340  142.8802  156.7894 H   0  0  0  0  0  0  0  0  0  0  0  0
  151.0499  141.7422  154.9122 H   0  0  0  0  0  0  0  0  0  0  0  0
  152.0446  137.9738  152.9846 H   0  0  0  0  0  0  0  0  0  0  0  0
  149.5728  135.7227  158.4879 H   0  0  0  0  0  0  0  0  0  0  0  0
  151.0460  133.8287  156.6355 H   0  0  0  0  0  0  0  0  0  0  0  0
  149.7527  134.5901  153.9697 H   0  0  0  0  0  0  0  0  0  0  0  0
  151.1924  133.5639  154.2577 H   0  0  0  0  0  0  0  0  0  0  0  0
  147.4378  131.6702  154.5120 H   0  0  0  0  0  0  0  0  0  0  0  0
  147.5806  133.2596  153.7936 H   0  0  0  0  0  0  0  0  0  0  0  0
  147.9217  131.8285  152.2156 H   0  0  0  0  0  0  0  0  0  0  0  0
  150.4408  130.9487  154.4346 H   0  0  0  0  0  0  0  0  0  0  0  0
  150.8717  131.5511  156.0132 H   0  0  0  0  0  0  0  0  0  0  0  0
  148.4174  130.8877  156.2947 H   0  0  0  0  0  0  0  0  0  0  0  0
  148.8540  133.0143  157.2151 H   0  0  0  0  0  0  0  0  0  0  0  0
  148.0533  134.1960  156.1274 H   0  0  0  0  0  0  0  0  0  0  0  0
  1  2  1  0  0  0  0
  1 27  1  0  0  0  0
  2  3  1  0  0  0  0
  2 28  1  0  0  0  0
  2 29  1  0  0  0  0
  3  8  1  0  0  0  0
  3  4  1  0  0  0  0
  3 30  1  0  0  0  0
  4  5  1  0  0  0  0
  4 31  1  0  0  0  0
  4 32  1  0  0  0  0
  5  9  1  0  0  0  0
  5  6  1  0  0  0  0
  5 33  1  0  0  0  0
  6  7  1  0  0  0  0
  6 34  1  0  0  0  0
  6 35  1  0  0  0  0
  7  8  1  0  0  0  0
  7 36  1  0  0  0  0
  7 37  1  0  0  0  0
  8  9  1  0  0  0  0
  8 38  1  0  0  0  0
  9 10  1  0  0  0  0
 10 15  1  0  0  0  0
 10 11  2  0  0  0  0
 11 12  1  0  0  0  0
 12 13  2  0  0  0  0
 12 39  1  0  0  0  0
 13 14  1  0  0  0  0
 14 18  1  0  0  0  0
 14 15  2  0  0  0  0
 15 16  1  0  0  0  0
 16 17  2  0  0  0  0
 17 18  1  0  0  0  0
 17 40  1  0  0  0  0
 18 19  1  0  0  0  0
 19 26  1  0  0  0  0
 19 20  1  0  0  0  0
 19 41  1  0  0  0  0
 20 21  1  0  0  0  0
 20 42  1  0  0  0  0
 20 43  1  0  0  0  0
 21 22  1  0  0  0  0
 21 24  1  0  0  0  0
 21 26  1  0  0  0  0
 22 23  1  0  0  0  0
 22 44  1  0  0  0  0
 22 45  1  0  0  0  0
 23 46  1  0  0  0  0
 24 25  1  0  0  0  0
 24 47  1  0  0  0  0
 24 48  1  0  0  0  0
 25 49  1  0  0  0  0
 26 50  1  0  0  0  0
 26 51  1  0  0  0  0
M  END
> <s_m_source_file>
AV-unprocessed.smi

> <i_m_source_file_index>
167

> <i_lp_mmshare_version>
43012

> <i_f3d_flags>
0

> <s_epik_input>
W09IXVtDSDJdW0NASF0oW0NIMl1bQ0BASF0xMilbQ0BIXShbQ0gyXVtDSDJdMSlOMmMobltjSF1uMyljKGMzNCluW2NIXW40W0NIXShbQ0gyXTUpW0NIMl1DNShbQ0gyXVtPSF0pW0NIMl1bT0hd

> <s_epik_cmdline>
J2VwaWtfcHl0aG9uJywgJy1waCcsICc3LjAnLCAnLXRuJywgJzgnLCAnLW1hJywgJzIwMCcsICctbWV0YWxfYmluZGluZycsICctaW1hZScsICc8aW5maWxlLm1hZT4nLCAnLW9tYWUnLCAnPG91dGZpbGUubWFlPic=

> <r_lp_tautomer_probability>
1

> <r_epik_Ionization_Penalty>
0.0047903

> <r_epik_Ionization_Penalty_Charging>
0

> <r_epik_Ionization_Penalty_Neutral>
0.0047903

> <r_epik_State_Penalty>
0.00341021

> <r_epik_Charging_Adjusted_Penalty>
0.00341021

> <i_epik_Tot_Q>
0

> <i_epik_Tot_abs_Q>
0

> <r_epik_Metal_State_Penalty>
-0

> <b_epik_Metal_Only>
0

> <s_lp_Force_Field>
OPLS_2005

> <r_lp_Energy>
89.2094

> <b_lp_Chiralities_Consistent>
1

> <s_lp_Variant>
AV-unprocessed.smi:167-4

> <Gold.Version>
5.8.1

> <Gold.Id.Protein>
6NUR|6NUR_protein|mol2

> <Gold.PLP.Fitness>
45.9976

> <Gold.PLP.PLP>
-35.8687

> <Gold.PLP.part.hbond>
-5.8857

> <Gold.PLP.part.metal>
0.0000

> <Gold.PLP.part.buried>
-7.1145

> <Gold.PLP.part.nonpolar>
-24.2265

> <Gold.PLP.part.repulsive>
0.9289

> <Gold.PLP.ligand.clash>
0.0000

> <Gold.PLP.ligand.torsion>
1.1464

> <Gold.PLP.Chemscore.Hbond>
3.5026

> <Gold.PLP.Chemscore.CHOScore>
0.4858

> <Gold.PLP.Chemscore.Metal>
0.0000

> <Gold.Chemscore.Hbonds>
donor molecule, donor type, donor heavy atom, donor atom, acceptor molecule, acceptor atom, score
      L1  H     1    27       P1  7957  0.70
      P1  H  7989  7998       L1    11  0.81
      P1  H  8011  8017       L1     1  0.95
      P1  H 10752 10763       L1    13  1.00
      L1  C    12    39       P1  7949  0.50

> <Gold.PLP.Chemscore.Internal.Correction>
0.4565

> <Gold.Rescore>
     Score         DG    S(hbond)    S(metal)    S(lipo)     H(rot)  DE(clash)    DE(int)     intcor
      8.74     -12.44       2.66        0.00      75.49       4.20       0.57       3.14       ----

> <Gold.Chemscore.Fitness>
8.7356

> <Gold.Chemscore.DG>
-12.4390

> <Gold.Chemscore.ZeroCoef>
-5.4800

> <Gold.Chemscore.Hbond>
2.6612

> <Gold.Chemscore.Metal>
0.0000

> <Gold.Chemscore.Lipo>
75.4890

> <Gold.Chemscore.Internal_Hbond>
0.0000

> <Gold.Chemscore.DEClash>
0.5662

> <Gold.Chemscore.DEInternal>
3.1371

> <Gold.Chemscore.Rot>
4.2038

> <Gold.Chemscore.Internal.Correction>
   9.000000E+99

> <Gold.Chemscore.Hbonds>
donor molecule, donor type, donor heavy atom, donor atom, acceptor molecule, acceptor atom, score
      L1  H     1    27       P1  7957  0.72
      L1  H    23    46       P1 10747  0.01
      P1  H  7989  7998       L1    11  0.73
      P1  H  8011  8017       L1     1  0.21
      P1  H 10752 10763       L1    13  0.33

> <Gold.Chemscore.Hbond.Weighted>
-8.8884

> <Gold.Chemscore.Metal.Weighted>
-0.0000

> <Gold.Chemscore.Lipo.Weighted>
-8.8322

> <Gold.Chemscore.Internal_Hbond.Weighted>
0.0000

> <Gold.Chemscore.DEClash.Weighted>
0.5662

> <Gold.Chemscore.DEInternal.Weighted>
3.1371

> <Gold.Chemscore.Rot.Weighted>
10.7617

> <Gold.Chemscore.Internal.Correction.Weighted>
   9.000000E+99

> <Gold.Protein.RotatedTorsions>
[ 6907 6896 6895 6894 ] final  151.80 input  -60.11 | X-H torsion
[ 7974 7965 7964 7962 ] final  147.29 input  175.53 | X-H torsion
[ 8008 7997 7996 7995 ] final  139.09 input   59.86 | X-H torsion
[ 10167 10162 10161 10158 ] final -172.04 input  -65.29 | X-H torsion
[ 10718 10713 10712 10709 ] final -131.08 input   66.30 | X-H torsion
[ 10763 10752 10751 10750 ] final   40.36 input  -60.55 | X-H torsion
[ 11005 11000 10999 10996 ] final    0.24 input  -57.11 | X-H torsion

> <Gold.Protein.ActiveResidues>
 VAL166  LYS551  ARG553  GLY616  TRP617  ASP618  TYR619  PRO620  LYS621  CYS622 
 ASP623  PHE694  ASN695  SER759  ASP760  ASP761  ALA762  ILE779  LEU786  VAL792 
 PHE793  MET794  SER795  GLU796  ALA797  LYS798  CYS799  TRP800  GLU811  SER814 

> <Gold.Protein.RotatedAtoms>
  152.0956  133.4223  159.4563 H   0  0  0  0  0  0  0  0  0  0  0  0  # atno 6907 bound_to 6896
  150.6863  134.2820  159.4640 H   0  0  0  0  0  0  0  0  0  0  0  0  # atno 6908 bound_to 6896
  152.0676  134.9554  160.0625 H   0  0  0  0  0  0  0  0  0  0  0  0  # atno 6909 bound_to 6896
  144.8603  139.6010  143.5933 H   0  0  0  0  0  0  0  0  0  0  0  0  # atno 7974 bound_to 7965
  156.2992  140.2376  156.4181 H   0  0  0  0  0  0  0  0  0  0  0  0  # atno 8008 bound_to 7997
  154.8380  140.0429  157.1542 H   0  0  0  0  0  0  0  0  0  0  0  0  # atno 8009 bound_to 7997
  154.9134  140.2993  155.5258 H   0  0  0  0  0  0  0  0  0  0  0  0  # atno 8010 bound_to 7997
  139.5767  144.1515  152.1460 H   0  0  0  0  0  0  0  0  0  0  0  0  # atno 10167 bound_to 10162
  156.2208  130.6977  151.0754 H   0  0  0  0  0  0  0  0  0  0  0  0  # atno 10718 bound_to 10713
  152.9939  135.6193  154.2614 H   0  0  0  0  0  0  0  0  0  0  0  0  # atno 10763 bound_to 10752
  154.2350  135.2790  155.2877 H   0  0  0  0  0  0  0  0  0  0  0  0  # atno 10764 bound_to 10752
  154.5418  135.5759  153.6903 H   0  0  0  0  0  0  0  0  0  0  0  0  # atno 10765 bound_to 10752
  140.6288  133.9594  155.8263 H   0  0  0  0  0  0  0  0  0  0  0  0  # atno 11005 bound_to 11000
  146.2855  139.6993  142.9198 LP  0  0  0  0  0  0  0  0  0  0  0  0  # atno 17320 bound_to 7965
  145.4325  141.0416  143.2903 LP  0  0  0  0  0  0  0  0  0  0  0  0  # atno 17321 bound_to 7965
  140.1060  144.5499  150.6957 LP  0  0  0  0  0  0  0  0  0  0  0  0  # atno 17342 bound_to 10162
  140.7049  143.2461  151.4755 LP  0  0  0  0  0  0  0  0  0  0  0  0  # atno 17343 bound_to 10162
  157.7086  131.0744  150.6579 LP  0  0  0  0  0  0  0  0  0  0  0  0  # atno 17370 bound_to 10713
  156.6642  130.4521  149.5678 LP  0  0  0  0  0  0  0  0  0  0  0  0  # atno 17371 bound_to 10713
  141.0690  134.0233  157.3553 LP  0  0  0  0  0  0  0  0  0  0  0  0  # atno 17394 bound_to 11000
  139.9124  135.0192  156.7746 LP  0  0  0  0  0  0  0  0  0  0  0  0  # atno 17395 bound_to 11000

$$$$
