AV-unprocessed.smi:2491|AV-procd|sdf|9809|dock4
  -GOLD-   2272013443D 1   1.00000     0.00000
 Structure written by MMmdl.
 27 28  0  0  0  0  0  0  0  0  1 V2000
  148.5747  142.4665  157.1272 N   0  0  0  0  0  0  0  0  0  0  0  0
  149.0093  141.2041  157.1052 C   0  0  0  0  0  0  0  0  0  0  0  0
  148.4970  140.3251  157.7964 O   0  0  0  0  0  0  0  0  0  0  0  0
  150.1802  140.8827  156.1567 C   0  0  2  0  0  0  0  0  0  0  0  0
  149.6260  140.0032  155.0099 C   0  0  0  0  0  0  0  0  0  0  0  0
  150.6594  139.6409  154.1042 O   0  0  0  0  0  0  0  0  0  0  0  0
  151.6578  138.8642  154.7484 C   0  0  0  0  0  0  0  0  0  0  0  0
  152.3198  139.7130  155.8418 C   0  0  0  0  0  0  0  0  0  0  0  0
  151.3315  140.2191  156.7937 N   0  0  0  0  0  0  0  0  0  0  0  0
  151.8789  140.7177  157.9744 C   0  0  0  0  0  0  0  0  0  0  0  0
  151.2919  141.7816  158.5411 N   0  0  0  0  0  0  0  0  0  0  0  0
  151.8434  142.2610  159.6766 C   0  0  0  0  0  0  0  0  0  0  0  0
  152.9938  141.6767  160.2409 C   0  0  0  0  0  0  0  0  0  0  0  0
  153.7032  142.2851  161.6910 Cl  0  0  0  0  0  0  0  0  0  0  0  0
  153.5357  140.5701  159.5580 C   0  0  0  0  0  0  0  0  0  0  0  0
  152.9774  140.0976  158.4224 N   0  0  0  0  0  0  0  0  0  0  0  0
  147.8127  142.7223  157.7383 H   0  0  0  0  0  0  0  0  0  0  0  0
  149.0107  143.1613  156.5388 H   0  0  0  0  0  0  0  0  0  0  0  0
  150.5438  141.8174  155.7253 H   0  0  0  0  0  0  0  0  0  0  0  0
  149.1491  139.1004  155.3971 H   0  0  0  0  0  0  0  0  0  0  0  0
  148.8618  140.5452  154.4514 H   0  0  0  0  0  0  0  0  0  0  0  0
  151.2249  137.9530  155.1651 H   0  0  0  0  0  0  0  0  0  0  0  0
  152.3994  138.5570  154.0109 H   0  0  0  0  0  0  0  0  0  0  0  0
  153.0767  139.1119  156.3473 H   0  0  0  0  0  0  0  0  0  0  0  0
  152.8406  140.5594  155.3914 H   0  0  0  0  0  0  0  0  0  0  0  0
  151.3638  143.1139  160.1339 H   0  0  0  0  0  0  0  0  0  0  0  0
  154.4186  140.0641  159.9195 H   0  0  0  0  0  0  0  0  0  0  0  0
  1  2  1  0  0  0  0
  1 17  1  0  0  0  0
  1 18  1  0  0  0  0
  2  3  2  0  0  0  0
  2  4  1  0  0  0  0
  4  9  1  0  0  0  0
  4  5  1  0  0  0  0
  4 19  1  0  0  0  0
  5  6  1  0  0  0  0
  5 20  1  0  0  0  0
  5 21  1  0  0  0  0
  6  7  1  0  0  0  0
  7  8  1  0  0  0  0
  7 22  1  0  0  0  0
  7 23  1  0  0  0  0
  8  9  1  0  0  0  0
  8 24  1  0  0  0  0
  8 25  1  0  0  0  0
  9 10  1  0  0  0  0
 10 16  1  0  0  0  0
 10 11  2  0  0  0  0
 11 12  1  0  0  0  0
 12 13  2  0  0  0  0
 12 26  1  0  0  0  0
 13 14  1  0  0  0  0
 13 15  1  0  0  0  0
 15 16  2  0  0  0  0
 15 27  1  0  0  0  0
M  END
> <s_m_source_file>
AV-unprocessed.smi

> <i_m_source_file_index>
2491

> <i_lp_mmshare_version>
43012

> <i_f3d_flags>
0

> <s_epik_input>
W05IMl1DKD1PKVtDQEBIXTFbQ0gyXU9bQ0gyXVtDSDJdTjFjMm5bY0hdYyhDbClbY0hdbjI=

> <s_epik_cmdline>
J2VwaWtfcHl0aG9uJywgJy1waCcsICc3LjAnLCAnLXRuJywgJzgnLCAnLW1hJywgJzIwMCcsICctbWV0YWxfYmluZGluZycsICctaW1hZScsICc8aW5maWxlLm1hZT4nLCAnLW9tYWUnLCAnPG91dGZpbGUubWFlPic=

> <r_lp_tautomer_probability>
1

> <r_epik_Ionization_Penalty>
2.68452e-07

> <r_epik_Ionization_Penalty_Charging>
0

> <r_epik_Ionization_Penalty_Neutral>
2.68452e-07

> <r_epik_State_Penalty>
-0

> <r_epik_Charging_Adjusted_Penalty>
0

> <i_epik_Tot_Q>
0

> <i_epik_Tot_abs_Q>
0

> <r_epik_Metal_State_Penalty>
-0

> <b_epik_Metal_Only>
0

> <s_lp_Force_Field>
OPLS_2005

> <r_lp_Energy>
10.3646

> <b_lp_Chiralities_Consistent>
1

> <s_lp_Variant>
AV-unprocessed.smi:2491-1

> <Gold.Version>
5.8.1

> <Gold.Id.Protein>
6NUR|6NUR_protein|mol2

> <Gold.PLP.Fitness>
34.6689

> <Gold.PLP.PLP>
-27.1755

> <Gold.PLP.part.hbond>
-2.8849

> <Gold.PLP.part.metal>
0.0000

> <Gold.PLP.part.buried>
-1.7825

> <Gold.PLP.part.nonpolar>
-21.0053

> <Gold.PLP.part.repulsive>
0.2112

> <Gold.PLP.ligand.clash>
0.0000

> <Gold.PLP.ligand.torsion>
0.4834

> <Gold.PLP.Chemscore.Hbond>
2.6753

> <Gold.PLP.Chemscore.CHOScore>
0.0000

> <Gold.PLP.Chemscore.Metal>
0.0000

> <Gold.Chemscore.Hbonds>
donor molecule, donor type, donor heavy atom, donor atom, acceptor molecule, acceptor atom, score
      L1  H     1    18       P1  8028  0.96
      P1  H  7989  7998       L1     6  0.95
      P1  H  7997  8010       L1    16  0.75

> <Gold.PLP.Chemscore.Internal.Correction>
0.4344

> <Gold.Rescore>
     Score         DG    S(hbond)    S(metal)    S(lipo)     H(rot)  DE(clash)    DE(int)     intcor
     13.69     -16.42       2.11        0.00      65.88       1.49       0.58       2.15       ----

> <Gold.Chemscore.Fitness>
13.6881

> <Gold.Chemscore.DG>
-16.4178

> <Gold.Chemscore.ZeroCoef>
-5.4800

> <Gold.Chemscore.Hbond>
2.1071

> <Gold.Chemscore.Metal>
0.0000

> <Gold.Chemscore.Lipo>
65.8789

> <Gold.Chemscore.Internal_Hbond>
0.0000

> <Gold.Chemscore.DEClash>
0.5809

> <Gold.Chemscore.DEInternal>
2.1488

> <Gold.Chemscore.Rot>
1.4874

> <Gold.Chemscore.Internal.Correction>
   9.000000E+99

> <Gold.Chemscore.Hbonds>
donor molecule, donor type, donor heavy atom, donor atom, acceptor molecule, acceptor atom, score
      L1  H     1    18       P1  8028  0.91
      P1  H  7989  7998       L1     6  0.21
      P1  H  7997  8010       L1    16  0.28

> <Gold.Chemscore.Hbond.Weighted>
-7.0376

> <Gold.Chemscore.Metal.Weighted>
-0.0000

> <Gold.Chemscore.Lipo.Weighted>
-7.7078

> <Gold.Chemscore.Internal_Hbond.Weighted>
0.0000

> <Gold.Chemscore.DEClash.Weighted>
0.5809

> <Gold.Chemscore.DEInternal.Weighted>
2.1488

> <Gold.Chemscore.Rot.Weighted>
3.8077

> <Gold.Chemscore.Internal.Correction.Weighted>
   9.000000E+99

> <Gold.Protein.RotatedTorsions>
[ 6907 6896 6895 6894 ] final -102.97 input  -60.11 | X-H torsion
[ 7974 7965 7964 7962 ] final  -45.38 input  175.53 | X-H torsion
[ 8008 7997 7996 7995 ] final   35.47 input   59.86 | X-H torsion
[ 10167 10162 10161 10158 ] final   -6.53 input  -65.29 | X-H torsion
[ 10718 10713 10712 10709 ] final -126.09 input   66.30 | X-H torsion
[ 10763 10752 10751 10750 ] final  -28.44 input  -60.55 | X-H torsion
[ 11005 11000 10999 10996 ] final   81.62 input  -57.11 | X-H torsion

> <Gold.Protein.ActiveResidues>
 VAL166  LYS551  ARG553  GLY616  TRP617  ASP618  TYR619  PRO620  LYS621  CYS622 
 ASP623  PHE694  ASN695  SER759  ASP760  ASP761  ALA762  ILE779  LEU786  VAL792 
 PHE793  MET794  SER795  GLU796  ALA797  LYS798  CYS799  TRP800  GLU811  SER814 

> <Gold.Protein.RotatedAtoms>
  150.7219  134.0500  159.3794 H   0  0  0  0  0  0  0  0  0  0  0  0  # atno 6907 bound_to 6896
  151.8476  135.0566  160.0464 H   0  0  0  0  0  0  0  0  0  0  0  0  # atno 6908 bound_to 6896
  152.2815  133.5439  159.5537 H   0  0  0  0  0  0  0  0  0  0  0  0  # atno 6909 bound_to 6896
  145.9826  140.7267  142.9356 H   0  0  0  0  0  0  0  0  0  0  0  0  # atno 7974 bound_to 7965
  155.1716  140.3292  155.4391 H   0  0  0  0  0  0  0  0  0  0  0  0  # atno 8008 bound_to 7997
  156.2508  140.1942  156.6769 H   0  0  0  0  0  0  0  0  0  0  0  0  # atno 8009 bound_to 7997
  154.6334  140.0579  156.9745 H   0  0  0  0  0  0  0  0  0  0  0  0  # atno 8010 bound_to 7997
  140.7000  143.6183  150.8637 H   0  0  0  0  0  0  0  0  0  0  0  0  # atno 10167 bound_to 10162
  156.1733  130.6682  151.0209 H   0  0  0  0  0  0  0  0  0  0  0  0  # atno 10718 bound_to 10713
  153.7484  135.6927  153.4951 H   0  0  0  0  0  0  0  0  0  0  0  0  # atno 10763 bound_to 10752
  153.2020  135.4433  155.0277 H   0  0  0  0  0  0  0  0  0  0  0  0  # atno 10764 bound_to 10752
  154.8196  135.3415  154.7006 H   0  0  0  0  0  0  0  0  0  0  0  0  # atno 10765 bound_to 10752
  139.9092  134.8010  156.2065 H   0  0  0  0  0  0  0  0  0  0  0  0  # atno 11005 bound_to 11000
  144.6866  140.2934  143.7274 LP  0  0  0  0  0  0  0  0  0  0  0  0  # atno 17320 bound_to 7965
  145.7747  139.1869  143.2192 LP  0  0  0  0  0  0  0  0  0  0  0  0  # atno 17321 bound_to 7965
  139.9904  143.5853  152.2912 LP  0  0  0  0  0  0  0  0  0  0  0  0  # atno 17342 bound_to 10162
  139.6506  144.7660  151.2155 LP  0  0  0  0  0  0  0  0  0  0  0  0  # atno 17343 bound_to 10162
  157.6818  131.0836  150.7349 LP  0  0  0  0  0  0  0  0  0  0  0  0  # atno 17370 bound_to 10713
  156.7407  130.4738  149.5478 LP  0  0  0  0  0  0  0  0  0  0  0  0  # atno 17371 bound_to 10713
  141.0492  133.6897  156.1740 LP  0  0  0  0  0  0  0  0  0  0  0  0  # atno 17394 bound_to 11000
  140.6836  134.4740  157.5589 LP  0  0  0  0  0  0  0  0  0  0  0  0  # atno 17395 bound_to 11000

$$$$
