AV-unprocessed.smi:1619|AV-procd|sdf|6489|dock4
  -GOLD-   22720 7153D 1   1.00000     0.00000
 Structure written by MMmdl.
 45 47  0  0  0  0  0  0  0  0  3 V2000
  153.1539  142.9535  161.2442 C   0  0  0  0  0  0  0  0  0  0  0  0
  152.4601  142.5140  159.9658 C   0  0  0  0  0  0  0  0  0  0  0  0
  152.5837  141.1655  159.5610 C   0  0  0  0  0  0  0  0  0  0  0  0
  151.9346  140.7929  158.3898 C   0  0  0  0  0  0  0  0  0  0  0  0
  151.8613  139.5613  157.7354 N   0  3  0  0  0  0  0  0  0  0  0  0
  151.1017  139.6878  156.6120 C   0  0  0  0  0  0  0  0  0  0  0  0
  150.6868  140.9823  156.5410 N   0  0  0  0  0  0  0  0  0  0  0  0
  149.8485  141.6548  155.5390 C   0  0  0  0  0  0  0  0  0  0  0  0
  149.1719  140.6706  154.5642 C   0  0  2  0  0  0  0  0  0  0  0  0
  150.1460  140.1474  153.6811 O   0  0  0  0  0  0  0  0  0  0  0  0
  148.0604  141.3509  153.7414 C   0  0  0  0  0  0  0  0  0  0  0  0
  147.3409  142.3965  154.5090 N   0  3  0  0  0  0  0  0  0  0  0  0
  146.2347  143.0637  153.7930 C   0  0  0  0  0  0  0  0  0  0  0  0
  145.3545  143.6907  154.8790 C   0  0  0  0  0  0  0  0  0  0  0  0
  145.7332  142.9759  156.1819 C   0  0  0  0  0  0  0  0  0  0  0  0
  146.7654  141.9203  155.7801 C   0  0  0  0  0  0  0  0  0  0  0  0
  151.1845  141.7093  157.6277 C   0  0  0  0  0  0  0  0  0  0  0  0
  151.0542  143.0420  158.0104 C   0  0  0  0  0  0  0  0  0  0  0  0
  151.7044  143.4399  159.2006 C   0  0  0  0  0  0  0  0  0  0  0  0
  151.5764  144.8865  159.6470 C   0  0  0  0  0  0  0  0  0  0  0  0
  153.7207  142.1363  161.6915 H   0  0  0  0  0  0  0  0  0  0  0  0
  152.4228  143.2935  161.9780 H   0  0  0  0  0  0  0  0  0  0  0  0
  153.8491  143.7691  161.0440 H   0  0  0  0  0  0  0  0  0  0  0  0
  153.1571  140.4551  160.1386 H   0  0  0  0  0  0  0  0  0  0  0  0
  150.8682  138.9019  155.9082 H   0  0  0  0  0  0  0  0  0  0  0  0
  149.1064  142.2584  156.0633 H   0  0  0  0  0  0  0  0  0  0  0  0
  150.4856  142.3529  154.9940 H   0  0  0  0  0  0  0  0  0  0  0  0
  148.7538  139.8430  155.1369 H   0  0  0  0  0  0  0  0  0  0  0  0
  149.8172  140.2056  152.7967 H   0  0  0  0  0  0  0  0  0  0  0  0
  148.4793  141.7961  152.8375 H   0  0  0  0  0  0  0  0  0  0  0  0
  147.3435  140.5980  153.4096 H   0  0  0  0  0  0  0  0  0  0  0  0
  146.5993  143.8056  153.0819 H   0  0  0  0  0  0  0  0  0  0  0  0
  145.6562  142.3219  153.2395 H   0  0  0  0  0  0  0  0  0  0  0  0
  145.5604  144.7581  154.9685 H   0  0  0  0  0  0  0  0  0  0  0  0
  144.2954  143.5793  154.6435 H   0  0  0  0  0  0  0  0  0  0  0  0
  146.1769  143.6891  156.8776 H   0  0  0  0  0  0  0  0  0  0  0  0
  144.8696  142.5286  156.6753 H   0  0  0  0  0  0  0  0  0  0  0  0
  146.2650  140.9643  155.6161 H   0  0  0  0  0  0  0  0  0  0  0  0
  147.5321  141.7736  156.5419 H   0  0  0  0  0  0  0  0  0  0  0  0
  150.4804  143.7468  157.4274 H   0  0  0  0  0  0  0  0  0  0  0  0
  150.9462  145.4602  158.9671 H   0  0  0  0  0  0  0  0  0  0  0  0
  152.5551  145.3657  159.6778 H   0  0  0  0  0  0  0  0  0  0  0  0
  151.1313  144.9426  160.6405 H   0  0  0  0  0  0  0  0  0  0  0  0
  148.0099  143.1144  154.7501 H   0  0  0  0  0  0  0  0  0  0  0  0
  152.2961  138.6967  158.0320 H   0  0  0  0  0  0  0  0  0  0  0  0
  1  2  1  0  0  0  0
  1 21  1  0  0  0  0
  1 22  1  0  0  0  0
  1 23  1  0  0  0  0
  2 19  1  0  0  0  0
  2  3  2  0  0  0  0
  3  4  1  0  0  0  0
  3 24  1  0  0  0  0
  4 17  2  0  0  0  0
  4  5  1  0  0  0  0
  5  6  2  0  0  0  0
  5 45  1  0  0  0  0
  6  7  1  0  0  0  0
  6 25  1  0  0  0  0
  7  8  1  0  0  0  0
  7 17  1  0  0  0  0
  8  9  1  0  0  0  0
  8 26  1  0  0  0  0
  8 27  1  0  0  0  0
  9 10  1  0  0  0  0
  9 11  1  0  0  0  0
  9 28  1  0  0  0  0
 10 29  1  0  0  0  0
 11 12  1  0  0  0  0
 11 30  1  0  0  0  0
 11 31  1  0  0  0  0
 12 16  1  0  0  0  0
 12 13  1  0  0  0  0
 12 44  1  0  0  0  0
 13 14  1  0  0  0  0
 13 32  1  0  0  0  0
 13 33  1  0  0  0  0
 14 15  1  0  0  0  0
 14 34  1  0  0  0  0
 14 35  1  0  0  0  0
 15 16  1  0  0  0  0
 15 36  1  0  0  0  0
 15 37  1  0  0  0  0
 16 38  1  0  0  0  0
 16 39  1  0  0  0  0
 17 18  1  0  0  0  0
 18 19  2  0  0  0  0
 18 40  1  0  0  0  0
 19 20  1  0  0  0  0
 20 41  1  0  0  0  0
 20 42  1  0  0  0  0
 20 43  1  0  0  0  0
M  CHG  1   5   1
M  CHG  1  12   1
M  END
> <s_m_source_file>
AV-unprocessed.smi

> <i_m_source_file_index>
1619

> <i_lp_mmshare_version>
43012

> <i_f3d_flags>
0

> <s_epik_input>
W0NIM11jKFtjSF0xKWMoW0NIM10pW2NIXWMoYzEyKW4oW2NIXW4yKVtDSDJdW0NASF0oW09IXSlbQ0gyXU4zW0NIMl1bQ0gyXVtDSDJdW0NIMl0z

> <s_epik_cmdline>
J2VwaWtfcHl0aG9uJywgJy1waCcsICc3LjAnLCAnLXRuJywgJzgnLCAnLW1hJywgJzIwMCcsICctbWV0YWxfYmluZGluZycsICctaW1hZScsICc8aW5maWxlLm1hZT4nLCAnLW9tYWUnLCAnPG91dGZpbGUubWFlPic=

> <r_epik_Ionization_Penalty>
1.18067

> <r_epik_Ionization_Penalty_Charging>
1.18067

> <r_epik_Ionization_Penalty_Neutral>
1.08888e-06

> <r_epik_State_Penalty>
1.26407

> <r_epik_Charging_Adjusted_Penalty>
2.44473

> <i_epik_Tot_Q>
2

> <i_epik_Tot_abs_Q>
2

> <r_epik_Metal_State_Penalty>
5.27628

> <b_epik_Metal_Only>
0

> <s_lp_Force_Field>
OPLS_2005

> <r_lp_Energy>
41.212

> <b_lp_Chiralities_Consistent>
1

> <s_lp_Variant>
AV-unprocessed.smi:1619-3

> <Gold.Version>
5.8.1

> <Gold.Id.Protein>
6NUR|6NUR_protein|mol2

> <Gold.PLP.Fitness>
56.7157

> <Gold.PLP.PLP>
-46.4220

> <Gold.PLP.part.hbond>
-2.9292

> <Gold.PLP.part.metal>
0.0000

> <Gold.PLP.part.buried>
-5.9202

> <Gold.PLP.part.nonpolar>
-37.2412

> <Gold.PLP.part.repulsive>
0.2026

> <Gold.PLP.ligand.clash>
0.0000

> <Gold.PLP.ligand.torsion>
0.4769

> <Gold.PLP.Chemscore.Hbond>
3.7360

> <Gold.PLP.Chemscore.CHOScore>
0.0000

> <Gold.PLP.Chemscore.Metal>
0.0000

> <Gold.Chemscore.Hbonds>
donor molecule, donor type, donor heavy atom, donor atom, acceptor molecule, acceptor atom, score
      L1  H    10    29       P1  7957  1.00
      L1  H    12    44       P1  8028  2.00
      P1  H  7989  7998       L1    10  0.71

> <Gold.PLP.Chemscore.Internal.Correction>
0.0394

> <Gold.Rescore>
     Score         DG    S(hbond)    S(metal)    S(lipo)     H(rot)  DE(clash)    DE(int)     intcor
     21.31     -21.89       2.26        0.00     121.21       2.08       0.14       0.44       ----

> <Gold.Chemscore.Fitness>
21.3087

> <Gold.Chemscore.DG>
-21.8862

> <Gold.Chemscore.ZeroCoef>
-5.4800

> <Gold.Chemscore.Hbond>
2.2611

> <Gold.Chemscore.Metal>
0.0000

> <Gold.Chemscore.Lipo>
121.2104

> <Gold.Chemscore.Internal_Hbond>
0.0000

> <Gold.Chemscore.DEClash>
0.1360

> <Gold.Chemscore.DEInternal>
0.4414

> <Gold.Chemscore.Rot>
2.0811

> <Gold.Chemscore.Internal.Correction>
   9.000000E+99

> <Gold.Chemscore.Hbonds>
donor molecule, donor type, donor heavy atom, donor atom, acceptor molecule, acceptor atom, score
      L1  H    10    29       P1  7957  1.00
      L1  H    12    44       P1  8028  0.88
      P1  H  7989  7998       L1    10  0.16

> <Gold.Chemscore.Hbond.Weighted>
-7.5521

> <Gold.Chemscore.Metal.Weighted>
-0.0000

> <Gold.Chemscore.Lipo.Weighted>
-14.1816

> <Gold.Chemscore.Internal_Hbond.Weighted>
0.0000

> <Gold.Chemscore.DEClash.Weighted>
0.1360

> <Gold.Chemscore.DEInternal.Weighted>
0.4414

> <Gold.Chemscore.Rot.Weighted>
5.3275

> <Gold.Chemscore.Internal.Correction.Weighted>
   9.000000E+99

> <Gold.Protein.RotatedTorsions>
[ 6907 6896 6895 6894 ] final -173.29 input  -60.11 | X-H torsion
[ 7974 7965 7964 7962 ] final  -18.75 input  175.53 | X-H torsion
[ 8008 7997 7996 7995 ] final  105.08 input   59.86 | X-H torsion
[ 10167 10162 10161 10158 ] final   74.33 input  -65.29 | X-H torsion
[ 10718 10713 10712 10709 ] final -167.98 input   66.30 | X-H torsion
[ 10763 10752 10751 10750 ] final  162.23 input  -60.55 | X-H torsion
[ 11005 11000 10999 10996 ] final  144.64 input  -57.11 | X-H torsion

> <Gold.Protein.ActiveResidues>
 VAL166  LYS551  ARG553  GLY616  TRP617  ASP618  TYR619  PRO620  LYS621  CYS622 
 ASP623  PHE694  ASN695  SER759  ASP760  ASP761  ALA762  ILE779  LEU786  VAL792 
 PHE793  MET794  SER795  GLU796  ALA797  LYS798  CYS799  TRP800  GLU811  SER814 

> <Gold.Protein.RotatedAtoms>
  151.5538  133.3413  159.2957 H   0  0  0  0  0  0  0  0  0  0  0  0  # atno 6907 bound_to 6896
  150.8463  134.7775  159.6984 H   0  0  0  0  0  0  0  0  0  0  0  0  # atno 6908 bound_to 6896
  152.4520  134.5382  159.9883 H   0  0  0  0  0  0  0  0  0  0  0  0  # atno 6909 bound_to 6896
  146.1876  140.3965  142.8470 H   0  0  0  0  0  0  0  0  0  0  0  0  # atno 7974 bound_to 7965
  156.1629  140.3136  155.8837 H   0  0  0  0  0  0  0  0  0  0  0  0  # atno 8008 bound_to 7997
  155.3746  140.0484  157.3062 H   0  0  0  0  0  0  0  0  0  0  0  0  # atno 8009 bound_to 7997
  154.5163  140.2182  155.9070 H   0  0  0  0  0  0  0  0  0  0  0  0  # atno 8010 bound_to 7997
  140.0149  144.5585  150.7628 H   0  0  0  0  0  0  0  0  0  0  0  0  # atno 10167 bound_to 10162
  156.6903  130.9156  151.3068 H   0  0  0  0  0  0  0  0  0  0  0  0  # atno 10718 bound_to 10713
  154.2751  135.2764  155.2721 H   0  0  0  0  0  0  0  0  0  0  0  0  # atno 10763 bound_to 10752
  154.5267  135.5741  153.6729 H   0  0  0  0  0  0  0  0  0  0  0  0  # atno 10764 bound_to 10752
  152.9938  135.6218  154.2908 H   0  0  0  0  0  0  0  0  0  0  0  0  # atno 10765 bound_to 10752
  140.0648  134.9184  157.1246 H   0  0  0  0  0  0  0  0  0  0  0  0  # atno 11005 bound_to 11000
  144.8427  140.6881  143.6219 LP  0  0  0  0  0  0  0  0  0  0  0  0  # atno 17320 bound_to 7965
  145.3890  139.1620  143.4239 LP  0  0  0  0  0  0  0  0  0  0  0  0  # atno 17321 bound_to 7965
  140.7366  143.2755  151.3754 LP  0  0  0  0  0  0  0  0  0  0  0  0  # atno 17342 bound_to 10162
  139.6179  144.0965  152.2363 LP  0  0  0  0  0  0  0  0  0  0  0  0  # atno 17343 bound_to 10162
  157.7011  130.9334  150.0789 LP  0  0  0  0  0  0  0  0  0  0  0  0  # atno 17370 bound_to 10713
  156.1802  130.3650  149.9045 LP  0  0  0  0  0  0  0  0  0  0  0  0  # atno 17371 bound_to 10713
  140.3715  134.2385  155.7177 LP  0  0  0  0  0  0  0  0  0  0  0  0  # atno 17394 bound_to 11000
  141.1988  133.8026  157.0564 LP  0  0  0  0  0  0  0  0  0  0  0  0  # atno 17395 bound_to 11000

$$$$
