AV-unprocessed.smi:1762|AV-procd|sdf|7117|dock4
  -GOLD-   22720 8343D 1   1.00000     0.00000
 Structure written by MMmdl.
 53 54  0  0  0  0  0  0  0  0  2 V2000
  145.7833  132.1387  150.7452 C   0  0  0  0  0  0  0  0  0  0  0  0
  146.2178  133.2658  151.6887 C   0  0  2  0  0  0  0  0  0  0  0  0
  147.5200  132.9275  152.4365 C   0  0  0  0  0  0  0  0  0  0  0  0
  147.8937  134.0144  153.3870 N   0  3  2  0  0  0  0  0  0  0  0  0
  149.2137  133.7717  154.0658 C   0  0  1  0  0  0  0  0  0  0  0  0
  149.6198  134.9804  154.9370 C   0  0  0  0  0  0  0  0  0  0  0  0
  149.0418  135.1971  156.0029 O   0  0  0  0  0  0  0  0  0  0  0  0
  150.6125  135.7535  154.4714 N   0  0  0  0  0  0  0  0  0  0  0  0
  151.1425  136.9278  155.1519 C   0  0  0  0  0  0  0  0  0  0  0  0
  150.6275  138.2120  154.4875 C   0  0  0  0  0  0  0  0  0  0  0  0
  150.6290  139.3930  155.4402 C   0  0  0  0  0  0  0  0  0  0  0  0
  151.1476  139.2649  156.7464 C   0  0  0  0  0  0  0  0  0  0  0  0
  151.1334  140.3944  157.5875 C   0  0  0  0  0  0  0  0  0  0  0  0
  150.6052  141.6021  157.0924 C   0  0  0  0  0  0  0  0  0  0  0  0
  150.1118  141.6267  155.7728 C   0  0  0  0  0  0  0  0  0  0  0  0
  150.1200  140.5493  154.9583 N   0  0  0  0  0  0  0  0  0  0  0  0
  149.2777  132.4458  154.8978 C   0  0  0  0  0  0  0  0  0  0  0  0
  150.3808  132.4346  155.9770 C   0  0  0  0  0  0  0  0  0  0  0  0
  149.3826  131.1808  154.0229 C   0  0  0  0  0  0  0  0  0  0  0  0
  146.7457  134.2697  154.3013 C   0  0  0  0  0  0  0  0  0  0  0  0
  145.4560  134.5575  153.5089 C   0  0  2  0  0  0  0  0  0  0  0  0
  144.2447  134.7471  154.4288 C   0  0  0  0  0  0  0  0  0  0  0  0
  145.1822  133.4670  152.6403 O   0  0  0  0  0  0  0  0  0  0  0  0
  146.5421  131.9466  149.9860 H   0  0  0  0  0  0  0  0  0  0  0  0
  144.8577  132.3972  150.2302 H   0  0  0  0  0  0  0  0  0  0  0  0
  145.6126  131.2101  151.2906 H   0  0  0  0  0  0  0  0  0  0  0  0
  146.3551  134.1757  151.1015 H   0  0  0  0  0  0  0  0  0  0  0  0
  147.4027  131.9919  152.9860 H   0  0  0  0  0  0  0  0  0  0  0  0
  148.3028  132.7597  151.6974 H   0  0  0  0  0  0  0  0  0  0  0  0
  149.9520  133.6795  153.2666 H   0  0  0  0  0  0  0  0  0  0  0  0
  151.0379  135.5061  153.5896 H   0  0  0  0  0  0  0  0  0  0  0  0
  150.8374  136.8952  156.1988 H   0  0  0  0  0  0  0  0  0  0  0  0
  152.2338  136.9176  155.1336 H   0  0  0  0  0  0  0  0  0  0  0  0
  151.2443  138.4568  153.6213 H   0  0  0  0  0  0  0  0  0  0  0  0
  149.6158  138.0573  154.1101 H   0  0  0  0  0  0  0  0  0  0  0  0
  151.5482  138.3253  157.0979 H   0  0  0  0  0  0  0  0  0  0  0  0
  151.5219  140.3356  158.5934 H   0  0  0  0  0  0  0  0  0  0  0  0
  150.5789  142.4885  157.7090 H   0  0  0  0  0  0  0  0  0  0  0  0
  149.7005  142.5362  155.3604 H   0  0  0  0  0  0  0  0  0  0  0  0
  148.3223  132.3254  155.4061 H   0  0  0  0  0  0  0  0  0  0  0  0
  151.3774  132.4250  155.5351 H   0  0  0  0  0  0  0  0  0  0  0  0
  150.2982  131.5472  156.6052 H   0  0  0  0  0  0  0  0  0  0  0  0
  150.3211  133.3020  156.6339 H   0  0  0  0  0  0  0  0  0  0  0  0
  150.3512  131.1003  153.5291 H   0  0  0  0  0  0  0  0  0  0  0  0
  148.6109  131.1687  153.2527 H   0  0  0  0  0  0  0  0  0  0  0  0
  149.2543  130.2811  154.6254 H   0  0  0  0  0  0  0  0  0  0  0  0
  146.6062  133.4094  154.9581 H   0  0  0  0  0  0  0  0  0  0  0  0
  146.9284  135.1351  154.9348 H   0  0  0  0  0  0  0  0  0  0  0  0
  145.5848  135.4656  152.9170 H   0  0  0  0  0  0  0  0  0  0  0  0
  144.3981  135.5809  155.1142 H   0  0  0  0  0  0  0  0  0  0  0  0
  144.0577  133.8535  155.0253 H   0  0  0  0  0  0  0  0  0  0  0  0
  143.3445  134.9555  153.8502 H   0  0  0  0  0  0  0  0  0  0  0  0
  148.0137  134.8538  152.8376 H   0  0  0  0  0  0  0  0  0  0  0  0
  1  2  1  0  0  0  0
  1 24  1  0  0  0  0
  1 25  1  0  0  0  0
  1 26  1  0  0  0  0
  2 23  1  0  0  0  0
  2  3  1  0  0  0  0
  2 27  1  0  0  0  0
  3  4  1  0  0  0  0
  3 28  1  0  0  0  0
  3 29  1  0  0  0  0
  4  5  1  0  0  0  0
  4 20  1  0  0  0  0
  4 53  1  0  0  0  0
  5  6  1  0  0  0  0
  5 17  1  0  0  0  0
  5 30  1  0  0  0  0
  6  7  2  0  0  0  0
  6  8  1  0  0  0  0
  8  9  1  0  0  0  0
  8 31  1  0  0  0  0
  9 10  1  0  0  0  0
  9 32  1  0  0  0  0
  9 33  1  0  0  0  0
 10 11  1  0  0  0  0
 10 34  1  0  0  0  0
 10 35  1  0  0  0  0
 11 16  1  0  0  0  0
 11 12  2  0  0  0  0
 12 13  1  0  0  0  0
 12 36  1  0  0  0  0
 13 14  2  0  0  0  0
 13 37  1  0  0  0  0
 14 15  1  0  0  0  0
 14 38  1  0  0  0  0
 15 16  2  0  0  0  0
 15 39  1  0  0  0  0
 17 18  1  0  0  0  0
 17 19  1  0  0  0  0
 17 40  1  0  0  0  0
 18 41  1  0  0  0  0
 18 42  1  0  0  0  0
 18 43  1  0  0  0  0
 19 44  1  0  0  0  0
 19 45  1  0  0  0  0
 19 46  1  0  0  0  0
 20 21  1  0  0  0  0
 20 47  1  0  0  0  0
 20 48  1  0  0  0  0
 21 22  1  0  0  0  0
 21 23  1  0  0  0  0
 21 49  1  0  0  0  0
 22 50  1  0  0  0  0
 22 51  1  0  0  0  0
 22 52  1  0  0  0  0
M  CHG  1   4   1
M  END
> <s_m_source_file>
AV-unprocessed.smi

> <i_m_source_file_index>
1762

> <i_lp_mmshare_version>
43012

> <i_f3d_flags>
0

> <s_epik_input>
W0NIM11bQ0BASF0xW0NIMl1OKFtDSDJdW0NASF0oTzEpW0NIM10pW0NAQEhdKFtDSF0oW0NIM10pW0NIM10pQyg9TylbTkhdW0NIMl1bQ0gyXWMyW2NIXVtjSF1bY0hdW2NIXW4y

> <s_epik_cmdline>
J2VwaWtfcHl0aG9uJywgJy1waCcsICc3LjAnLCAnLXRuJywgJzgnLCAnLW1hJywgJzIwMCcsICctbWV0YWxfYmluZGluZycsICctaW1hZScsICc8aW5maWxlLm1hZT4nLCAnLW9tYWUnLCAnPG91dGZpbGUubWFlPic=

> <r_epik_Ionization_Penalty>
2.27005

> <r_epik_Ionization_Penalty_Charging>
2.24983

> <r_epik_Ionization_Penalty_Neutral>
0.0202209

> <r_epik_State_Penalty>
2.40228

> <r_epik_Charging_Adjusted_Penalty>
4.65211

> <i_epik_Tot_Q>
1

> <i_epik_Tot_abs_Q>
1

> <r_epik_Metal_State_Penalty>
2.40762

> <b_epik_Metal_Only>
0

> <s_lp_Force_Field>
OPLS_2005

> <r_lp_Energy>
21.958

> <b_lp_Chiralities_Consistent>
1

> <s_lp_Variant>
AV-unprocessed.smi:1762-19

> <Gold.Version>
5.8.1

> <Gold.Id.Protein>
6NUR|6NUR_protein|mol2

> <Gold.PLP.Fitness>
51.1308

> <Gold.PLP.PLP>
-38.3927

> <Gold.PLP.part.hbond>
-3.8224

> <Gold.PLP.part.metal>
0.0000

> <Gold.PLP.part.buried>
-3.5901

> <Gold.PLP.part.nonpolar>
-31.2317

> <Gold.PLP.part.repulsive>
0.3199

> <Gold.PLP.ligand.clash>
0.0000

> <Gold.PLP.ligand.torsion>
0.8653

> <Gold.PLP.Chemscore.Hbond>
3.7088

> <Gold.PLP.Chemscore.CHOScore>
1.0000

> <Gold.PLP.Chemscore.Metal>
0.0000

> <Gold.Chemscore.Hbonds>
donor molecule, donor type, donor heavy atom, donor atom, acceptor molecule, acceptor atom, score
      L1  H     4    53       P1  7948  2.00
      L1  H     8    31       P1  7949  0.57
      P1  H  7989  7998       L1    16  0.62
      L1  C    15    39       P1  8028  1.00

> <Gold.PLP.Chemscore.Internal.Correction>
0.3422

> <Gold.Rescore>
     Score         DG    S(hbond)    S(metal)    S(lipo)     H(rot)  DE(clash)    DE(int)     intcor
     16.85     -18.54       1.85        0.00      95.17       1.66       0.78       0.91       ----

> <Gold.Chemscore.Fitness>
16.8460

> <Gold.Chemscore.DG>
-18.5399

> <Gold.Chemscore.ZeroCoef>
-5.4800

> <Gold.Chemscore.Hbond>
1.8513

> <Gold.Chemscore.Metal>
0.0000

> <Gold.Chemscore.Lipo>
95.1715

> <Gold.Chemscore.Internal_Hbond>
0.0000

> <Gold.Chemscore.DEClash>
0.7841

> <Gold.Chemscore.DEInternal>
0.9098

> <Gold.Chemscore.Rot>
1.6635

> <Gold.Chemscore.Internal.Correction>
   9.000000E+99

> <Gold.Chemscore.Hbonds>
donor molecule, donor type, donor heavy atom, donor atom, acceptor molecule, acceptor atom, score
      L1  H     4    53       P1  7948  0.87
      L1  H     8    31       P1  7949  0.10
      P1  H  7989  7998       L1    16  0.06

> <Gold.Chemscore.Hbond.Weighted>
-6.1835

> <Gold.Chemscore.Metal.Weighted>
-0.0000

> <Gold.Chemscore.Lipo.Weighted>
-11.1351

> <Gold.Chemscore.Internal_Hbond.Weighted>
0.0000

> <Gold.Chemscore.DEClash.Weighted>
0.7841

> <Gold.Chemscore.DEInternal.Weighted>
0.9098

> <Gold.Chemscore.Rot.Weighted>
4.2586

> <Gold.Chemscore.Internal.Correction.Weighted>
   9.000000E+99

> <Gold.Protein.RotatedTorsions>
[ 6907 6896 6895 6894 ] final   -7.15 input  -60.11 | X-H torsion
[ 7974 7965 7964 7962 ] final  -89.15 input  175.53 | X-H torsion
[ 8008 7997 7996 7995 ] final  -13.78 input   59.86 | X-H torsion
[ 10167 10162 10161 10158 ] final  -42.85 input  -65.29 | X-H torsion
[ 10718 10713 10712 10709 ] final  101.01 input   66.30 | X-H torsion
[ 10763 10752 10751 10750 ] final -106.58 input  -60.55 | X-H torsion
[ 11005 11000 10999 10996 ] final -161.49 input  -57.11 | X-H torsion

> <Gold.Protein.ActiveResidues>
 VAL166  LYS551  ARG553  GLY616  TRP617  ASP618  TYR619  PRO620  LYS621  CYS622 
 ASP623  PHE694  ASN695  SER759  ASP760  ASP761  ALA762  ILE779  LEU786  VAL792 
 PHE793  MET794  SER795  GLU796  ALA797  LYS798  CYS799  TRP800  GLU811  SER814 

> <Gold.Protein.RotatedAtoms>
  151.4542  135.1032  159.9706 H   0  0  0  0  0  0  0  0  0  0  0  0  # atno 6907 bound_to 6896
  152.4877  133.8412  159.7164 H   0  0  0  0  0  0  0  0  0  0  0  0  # atno 6908 bound_to 6896
  150.9001  133.7070  159.2908 H   0  0  0  0  0  0  0  0  0  0  0  0  # atno 6909 bound_to 6896
  145.4437  140.9559  143.2061 H   0  0  0  0  0  0  0  0  0  0  0  0  # atno 7974 bound_to 7965
  154.5264  140.2240  155.8882 H   0  0  0  0  0  0  0  0  0  0  0  0  # atno 8008 bound_to 7997
  156.1718  140.3120  155.8951 H   0  0  0  0  0  0  0  0  0  0  0  0  # atno 8009 bound_to 7997
  155.3543  140.0457  157.3037 H   0  0  0  0  0  0  0  0  0  0  0  0  # atno 8010 bound_to 7997
  140.6955  143.3015  151.3268 H   0  0  0  0  0  0  0  0  0  0  0  0  # atno 10167 bound_to 10162
  157.6840  131.0714  150.5187 H   0  0  0  0  0  0  0  0  0  0  0  0  # atno 10718 bound_to 10713
  154.8021  135.4706  154.0302 H   0  0  0  0  0  0  0  0  0  0  0  0  # atno 10763 bound_to 10752
  153.1799  135.6839  153.8499 H   0  0  0  0  0  0  0  0  0  0  0  0  # atno 10764 bound_to 10752
  153.8053  135.3224  155.3372 H   0  0  0  0  0  0  0  0  0  0  0  0  # atno 10765 bound_to 10752
  140.6198  134.4762  157.5222 H   0  0  0  0  0  0  0  0  0  0  0  0  # atno 11005 bound_to 11000
  144.8105  139.5970  143.7031 LP  0  0  0  0  0  0  0  0  0  0  0  0  # atno 17320 bound_to 7965
  146.2542  139.6267  142.9406 LP  0  0  0  0  0  0  0  0  0  0  0  0  # atno 17321 bound_to 7965
  139.6405  144.0549  152.2550 LP  0  0  0  0  0  0  0  0  0  0  0  0  # atno 17342 bound_to 10162
  140.0053  144.6264  150.7694 LP  0  0  0  0  0  0  0  0  0  0  0  0  # atno 17343 bound_to 10162
  156.5502  130.4229  149.6111 LP  0  0  0  0  0  0  0  0  0  0  0  0  # atno 17370 bound_to 10713
  156.2909  130.7124  151.1972 LP  0  0  0  0  0  0  0  0  0  0  0  0  # atno 17371 bound_to 10713
  139.9158  134.8249  156.1372 LP  0  0  0  0  0  0  0  0  0  0  0  0  # atno 17394 bound_to 11000
  141.0750  133.6779  156.2218 LP  0  0  0  0  0  0  0  0  0  0  0  0  # atno 17395 bound_to 11000

$$$$
