AV-unprocessed.smi:360|AV-procd|sdf|2419|dock10
  -GOLD-   2262022353D 1   1.00000     0.00000
 Structure written by MMmdl.
 37 38  0  0  0  0  0  0  0  0  1 V2000
  145.8472  137.6910  150.9447 C   0  0  0  0  0  0  0  0  0  0  0  0
  146.4274  138.4723  151.8677 C   0  0  0  0  0  0  0  0  0  0  0  0
  147.3632  139.6169  151.5491 C   0  0  0  0  0  0  0  0  0  0  0  0
  147.0850  140.7905  152.3591 N   0  0  0  0  0  0  0  0  0  0  0  0
  147.7247  141.1945  153.5237 C   0  0  0  0  0  0  0  0  0  0  0  0
  148.8209  140.4435  154.1148 C   0  0  0  0  0  0  0  0  0  0  0  0
  149.4203  140.8151  155.1926 N   0  0  0  0  0  0  0  0  0  0  0  0
  149.0210  141.9727  155.8302 N   0  0  0  0  0  0  0  0  0  0  0  0
  149.7827  142.2739  157.0481 C   0  0  0  0  0  0  0  0  0  0  0  0
  151.2983  142.2664  156.7912 C   0  0  0  0  0  0  0  0  0  0  0  0
  151.8688  143.4735  157.2784 O   0  0  0  0  0  0  0  0  0  0  0  0
  152.0304  143.6192  158.6389 C   0  0  0  0  0  0  0  0  0  0  0  0
  152.1847  142.4379  159.3935 C   0  0  0  0  0  0  0  0  0  0  0  0
  152.3536  142.4913  160.7904 C   0  0  0  0  0  0  0  0  0  0  0  0
  152.3709  143.7346  161.4494 C   0  0  0  0  0  0  0  0  0  0  0  0
  152.5780  143.8036  163.1609 Cl  0  0  0  0  0  0  0  0  0  0  0  0
  152.2185  144.9218  160.7087 C   0  0  0  0  0  0  0  0  0  0  0  0
  152.0485  144.8677  159.3113 C   0  0  0  0  0  0  0  0  0  0  0  0
  148.0051  142.7825  155.4070 C   0  0  0  0  0  0  0  0  0  0  0  0
  147.6761  143.8028  156.0133 O   0  0  0  0  0  0  0  0  0  0  0  0
  147.3466  142.3275  154.1737 C   0  0  0  0  0  0  0  0  0  0  0  0
  146.0490  143.2963  153.5584 Cl  0  0  0  0  0  0  0  0  0  0  0  0
  146.0201  137.8455  149.8895 H   0  0  0  0  0  0  0  0  0  0  0  0
  145.1897  136.8846  151.2347 H   0  0  0  0  0  0  0  0  0  0  0  0
  146.2336  138.2865  152.9142 H   0  0  0  0  0  0  0  0  0  0  0  0
  148.3881  139.2932  151.7317 H   0  0  0  0  0  0  0  0  0  0  0  0
  147.2822  139.8716  150.4920 H   0  0  0  0  0  0  0  0  0  0  0  0
  146.3115  141.3575  152.0414 H   0  0  0  0  0  0  0  0  0  0  0  0
  149.1158  139.5342  153.5918 H   0  0  0  0  0  0  0  0  0  0  0  0
  149.4911  143.2602  157.4131 H   0  0  0  0  0  0  0  0  0  0  0  0
  149.5339  141.5865  157.8583 H   0  0  0  0  0  0  0  0  0  0  0  0
  151.7544  141.3995  157.2724 H   0  0  0  0  0  0  0  0  0  0  0  0
  151.4765  142.1873  155.7179 H   0  0  0  0  0  0  0  0  0  0  0  0
  152.1734  141.4796  158.8950 H   0  0  0  0  0  0  0  0  0  0  0  0
  152.4699  141.5769  161.3536 H   0  0  0  0  0  0  0  0  0  0  0  0
  152.2302  145.8777  161.2115 H   0  0  0  0  0  0  0  0  0  0  0  0
  151.9327  145.7990  158.7783 H   0  0  0  0  0  0  0  0  0  0  0  0
  1  2  2  0  0  0  0
  1 23  1  0  0  0  0
  1 24  1  0  0  0  0
  2  3  1  0  0  0  0
  2 25  1  0  0  0  0
  3  4  1  0  0  0  0
  3 26  1  0  0  0  0
  3 27  1  0  0  0  0
  4  5  1  0  0  0  0
  4 28  1  0  0  0  0
  5 21  2  0  0  0  0
  5  6  1  0  0  0  0
  6  7  2  0  0  0  0
  6 29  1  0  0  0  0
  7  8  1  0  0  0  0
  8  9  1  0  0  0  0
  8 19  1  0  0  0  0
  9 10  1  0  0  0  0
  9 30  1  0  0  0  0
  9 31  1  0  0  0  0
 10 11  1  0  0  0  0
 10 32  1  0  0  0  0
 10 33  1  0  0  0  0
 11 12  1  0  0  0  0
 12 18  1  0  0  0  0
 12 13  2  0  0  0  0
 13 14  1  0  0  0  0
 13 34  1  0  0  0  0
 14 15  2  0  0  0  0
 14 35  1  0  0  0  0
 15 16  1  0  0  0  0
 15 17  1  0  0  0  0
 17 18  2  0  0  0  0
 17 36  1  0  0  0  0
 18 37  1  0  0  0  0
 19 20  2  0  0  0  0
 19 21  1  0  0  0  0
 21 22  1  0  0  0  0
M  END
> <s_m_source_file>
AV-unprocessed.smi

> <i_m_source_file_index>
360

> <i_lp_mmshare_version>
43012

> <i_f3d_flags>
0

> <s_epik_input>
W0NIMl09W0NIXVtDSDJdW05IXWMxW2NIXW5uKGMoPU8pYzFDbClbQ0gyXVtDSDJdT2MyW2NIXVtjSF1jKENsKVtjSF1bY0hdMg==

> <s_epik_cmdline>
J2VwaWtfcHl0aG9uJywgJy1waCcsICc3LjAnLCAnLXRuJywgJzgnLCAnLW1hJywgJzIwMCcsICctbWV0YWxfYmluZGluZycsICctaW1hZScsICc8aW5maWxlLm1hZT4nLCAnLW9tYWUnLCAnPG91dGZpbGUubWFlPic=

> <r_lp_tautomer_probability>
1

> <r_epik_Ionization_Penalty>
1.57681e-05

> <r_epik_Ionization_Penalty_Charging>
9.79356e-10

> <r_epik_Ionization_Penalty_Neutral>
1.57671e-05

> <r_epik_State_Penalty>
-0

> <r_epik_Charging_Adjusted_Penalty>
9.79356e-10

> <i_epik_Tot_Q>
0

> <i_epik_Tot_abs_Q>
0

> <r_epik_Metal_State_Penalty>
-0

> <b_epik_Metal_Only>
0

> <s_lp_Force_Field>
OPLS_2005

> <r_lp_Energy>
29.545

> <b_lp_Chiralities_Consistent>
1

> <s_lp_Variant>
AV-unprocessed.smi:360-1

> <Gold.Version>
5.8.1

> <Gold.Id.Protein>
6NUR|6NUR_protein|mol2

> <Gold.PLP.Fitness>
50.9265

> <Gold.PLP.PLP>
-47.1363

> <Gold.PLP.part.hbond>
-1.0000

> <Gold.PLP.part.metal>
0.0000

> <Gold.PLP.part.buried>
2.1314

> <Gold.PLP.part.nonpolar>
-50.0795

> <Gold.PLP.part.repulsive>
0.4376

> <Gold.PLP.ligand.clash>
0.0000

> <Gold.PLP.ligand.torsion>
1.1126

> <Gold.PLP.Chemscore.Hbond>
0.9760

> <Gold.PLP.Chemscore.CHOScore>
1.0000

> <Gold.PLP.Chemscore.Metal>
0.0000

> <Gold.Chemscore.Hbonds>
donor molecule, donor type, donor heavy atom, donor atom, acceptor molecule, acceptor atom, score
      L1  C     6    29       P1  7957  0.61

> <Gold.PLP.Chemscore.Internal.Correction>
0.0873

> <Gold.Rescore>
     Score         DG    S(hbond)    S(metal)    S(lipo)     H(rot)  DE(clash)    DE(int)     intcor
     17.63     -20.28       0.95        0.00     137.35       1.73       1.69       0.96       ----

> <Gold.Chemscore.Fitness>
17.6297

> <Gold.Chemscore.DG>
-20.2821

> <Gold.Chemscore.ZeroCoef>
-5.4800

> <Gold.Chemscore.Hbond>
0.9500

> <Gold.Chemscore.Metal>
0.0000

> <Gold.Chemscore.Lipo>
137.3521

> <Gold.Chemscore.Internal_Hbond>
0.0000

> <Gold.Chemscore.DEClash>
1.6897

> <Gold.Chemscore.DEInternal>
0.9627

> <Gold.Chemscore.Rot>
1.7348

> <Gold.Chemscore.Internal.Correction>
   9.000000E+99

> <Gold.Chemscore.Hbond.Weighted>
-3.1729

> <Gold.Chemscore.Metal.Weighted>
-0.0000

> <Gold.Chemscore.Lipo.Weighted>
-16.0702

> <Gold.Chemscore.Internal_Hbond.Weighted>
0.0000

> <Gold.Chemscore.DEClash.Weighted>
1.6897

> <Gold.Chemscore.DEInternal.Weighted>
0.9627

> <Gold.Chemscore.Rot.Weighted>
4.4410

> <Gold.Chemscore.Internal.Correction.Weighted>
   9.000000E+99

> <Gold.Protein.RotatedTorsions>
[ 6907 6896 6895 6894 ] final    6.56 input  -60.11 | X-H torsion
[ 7974 7965 7964 7962 ] final -167.65 input  175.53 | X-H torsion
[ 8008 7997 7996 7995 ] final  -19.24 input   59.86 | X-H torsion
[ 10167 10162 10161 10158 ] final  161.61 input  -65.29 | X-H torsion
[ 10718 10713 10712 10709 ] final   83.15 input   66.30 | X-H torsion
[ 10763 10752 10751 10750 ] final -115.43 input  -60.55 | X-H torsion
[ 11005 11000 10999 10996 ] final -137.03 input  -57.11 | X-H torsion

> <Gold.Protein.ActiveResidues>
 VAL166  LYS551  ARG553  GLY616  TRP617  ASP618  TYR619  PRO620  LYS621  CYS622 
 ASP623  PHE694  ASN695  SER759  ASP760  ASP761  ALA762  ILE779  LEU786  VAL792 
 PHE793  MET794  SER795  GLU796  ALA797  LYS798  CYS799  TRP800  GLU811  SER814 

> <Gold.Protein.RotatedAtoms>
  151.6757  135.0969  160.0206 H   0  0  0  0  0  0  0  0  0  0  0  0  # atno 6907 bound_to 6896
  152.3865  133.6614  159.6211 H   0  0  0  0  0  0  0  0  0  0  0  0  # atno 6908 bound_to 6896
  150.7790  133.8943  159.3363 H   0  0  0  0  0  0  0  0  0  0  0  0  # atno 6909 bound_to 6896
  144.7219  140.2487  143.6281 H   0  0  0  0  0  0  0  0  0  0  0  0  # atno 7974 bound_to 7965
  154.4850  140.2094  155.9676 H   0  0  0  0  0  0  0  0  0  0  0  0  # atno 8008 bound_to 7997
  156.1222  140.3211  155.8194 H   0  0  0  0  0  0  0  0  0  0  0  0  # atno 8009 bound_to 7997
  155.4447  140.0512  157.2998 H   0  0  0  0  0  0  0  0  0  0  0  0  # atno 8010 bound_to 7997
  139.4851  144.4520  151.8818 H   0  0  0  0  0  0  0  0  0  0  0  0  # atno 10167 bound_to 10162
  157.6873  131.0078  150.2480 H   0  0  0  0  0  0  0  0  0  0  0  0  # atno 10718 bound_to 10713
  154.8481  135.4382  154.1662 H   0  0  0  0  0  0  0  0  0  0  0  0  # atno 10763 bound_to 10752
  153.2786  135.6951  153.7414 H   0  0  0  0  0  0  0  0  0  0  0  0  # atno 10764 bound_to 10752
  153.6626  135.3432  155.3106 H   0  0  0  0  0  0  0  0  0  0  0  0  # atno 10765 bound_to 10752
  140.8749  134.2004  157.4628 H   0  0  0  0  0  0  0  0  0  0  0  0  # atno 11005 bound_to 11000
  145.8249  139.2060  143.1916 LP  0  0  0  0  0  0  0  0  0  0  0  0  # atno 17320 bound_to 7965
  146.0482  140.8097  142.9795 LP  0  0  0  0  0  0  0  0  0  0  0  0  # atno 17321 bound_to 7965
  140.3977  144.2534  150.5895 LP  0  0  0  0  0  0  0  0  0  0  0  0  # atno 17342 bound_to 10162
  140.5087  143.2297  151.8569 LP  0  0  0  0  0  0  0  0  0  0  0  0  # atno 17343 bound_to 10162
  156.3082  130.3768  149.7686 LP  0  0  0  0  0  0  0  0  0  0  0  0  # atno 17370 bound_to 10713
  156.5295  130.8251  151.3232 LP  0  0  0  0  0  0  0  0  0  0  0  0  # atno 17371 bound_to 10713
  139.8715  134.9791  156.5024 LP  0  0  0  0  0  0  0  0  0  0  0  0  # atno 17394 bound_to 11000
  140.8529  133.8118  155.9187 LP  0  0  0  0  0  0  0  0  0  0  0  0  # atno 17395 bound_to 11000

$$$$
