AV-unprocessed.smi:901|AV-procd|sdf|4091|dock8
  -GOLD-   22720 1583D 1   1.00000     0.00000
 Structure written by MMmdl.
 43 44  0  0  0  0  0  0  0  0  1 V2000
  151.6540  145.2318  159.5466 C   0  0  0  0  0  0  0  0  0  0  0  0
  151.1899  143.8029  159.3474 C   0  0  0  0  0  0  0  0  0  0  0  0
  151.4839  142.8720  160.5107 C   0  0  0  0  0  0  0  0  0  0  0  0
  150.5653  143.4130  158.2196 C   0  0  0  0  0  0  0  0  0  0  0  0
  150.0693  142.0405  157.9068 C   0  0  1  0  0  0  0  0  0  0  0  0
  149.1619  141.7018  156.7275 C   0  0  1  0  0  0  0  0  0  0  0  0
  148.7285  142.7825  155.7877 C   0  0  0  0  0  0  0  0  0  0  0  0
  148.0616  143.7457  156.1633 O   0  0  0  0  0  0  0  0  0  0  0  0
  149.0613  142.5394  154.5071 N   0  0  0  0  0  0  0  0  0  0  0  0
  148.8403  143.3503  153.3642 C   0  0  0  0  0  0  0  0  0  0  0  0
  149.5338  143.2598  152.1199 C   0  0  0  0  0  0  0  0  0  0  0  0
  148.9547  144.2413  151.3675 C   0  0  0  0  0  0  0  0  0  0  0  0
  147.9844  144.8439  152.1435 N   0  0  0  0  0  0  0  0  0  0  0  0
  147.0976  145.9409  151.7896 C   0  0  0  0  0  0  0  0  0  0  0  0
  147.5962  146.7348  150.5757 C   0  0  0  0  0  0  0  0  0  0  0  0
  147.6238  146.0865  149.4089 N   0  0  0  0  0  0  0  0  0  0  0  0
  147.9559  147.9067  150.6789 O   0  0  0  0  0  0  0  0  0  0  0  0
  147.9167  144.2962  153.3770 N   0  0  0  0  0  0  0  0  0  0  0  0
  150.6133  141.2336  156.7404 C   0  0  0  0  0  0  0  0  0  0  0  0
  151.6706  141.8195  155.8069 C   0  0  0  0  0  0  0  0  0  0  0  0
  150.8825  139.7522  156.9355 C   0  0  0  0  0  0  0  0  0  0  0  0
  152.7328  145.2611  159.7020 H   0  0  0  0  0  0  0  0  0  0  0  0
  151.1691  145.6673  160.4206 H   0  0  0  0  0  0  0  0  0  0  0  0
  151.4180  145.8551  158.6834 H   0  0  0  0  0  0  0  0  0  0  0  0
  151.0107  143.2477  161.4181 H   0  0  0  0  0  0  0  0  0  0  0  0
  152.5586  142.8167  160.6845 H   0  0  0  0  0  0  0  0  0  0  0  0
  151.1182  141.8599  160.3396 H   0  0  0  0  0  0  0  0  0  0  0  0
  150.4064  144.1535  157.4499 H   0  0  0  0  0  0  0  0  0  0  0  0
  149.8702  141.4884  158.8234 H   0  0  0  0  0  0  0  0  0  0  0  0
  148.3895  140.9671  156.9467 H   0  0  0  0  0  0  0  0  0  0  0  0
  149.5625  141.6802  154.3345 H   0  0  0  0  0  0  0  0  0  0  0  0
  150.3250  142.5932  151.8119 H   0  0  0  0  0  0  0  0  0  0  0  0
  149.1467  144.5561  150.3523 H   0  0  0  0  0  0  0  0  0  0  0  0
  146.1010  145.5503  151.5781 H   0  0  0  0  0  0  0  0  0  0  0  0
  147.0086  146.5996  152.6546 H   0  0  0  0  0  0  0  0  0  0  0  0
  147.9396  146.5599  148.5749 H   0  0  0  0  0  0  0  0  0  0  0  0
  147.3246  145.1230  149.3643 H   0  0  0  0  0  0  0  0  0  0  0  0
  151.6460  141.3112  154.8427 H   0  0  0  0  0  0  0  0  0  0  0  0
  152.6647  141.6938  156.2370 H   0  0  0  0  0  0  0  0  0  0  0  0
  151.5144  142.8831  155.6284 H   0  0  0  0  0  0  0  0  0  0  0  0
  150.8301  139.2276  155.9811 H   0  0  0  0  0  0  0  0  0  0  0  0
  150.1474  139.3102  157.6089 H   0  0  0  0  0  0  0  0  0  0  0  0
  151.8731  139.5989  157.3650 H   0  0  0  0  0  0  0  0  0  0  0  0
  1  2  1  0  0  0  0
  1 22  1  0  0  0  0
  1 23  1  0  0  0  0
  1 24  1  0  0  0  0
  2  3  1  0  0  0  0
  2  4  2  0  0  0  0
  3 25  1  0  0  0  0
  3 26  1  0  0  0  0
  3 27  1  0  0  0  0
  4  5  1  0  0  0  0
  4 28  1  0  0  0  0
  5 19  1  0  0  0  0
  5  6  1  0  0  0  0
  5 29  1  0  0  0  0
  6  7  1  0  0  0  0
  6 19  1  0  0  0  0
  6 30  1  0  0  0  0
  7  8  2  0  0  0  0
  7  9  1  0  0  0  0
  9 10  1  0  0  0  0
  9 31  1  0  0  0  0
 10 18  2  0  0  0  0
 10 11  1  0  0  0  0
 11 12  2  0  0  0  0
 11 32  1  0  0  0  0
 12 13  1  0  0  0  0
 12 33  1  0  0  0  0
 13 14  1  0  0  0  0
 13 18  1  0  0  0  0
 14 15  1  0  0  0  0
 14 34  1  0  0  0  0
 14 35  1  0  0  0  0
 15 16  1  0  0  0  0
 15 17  2  0  0  0  0
 16 36  1  0  0  0  0
 16 37  1  0  0  0  0
 19 20  1  0  0  0  0
 19 21  1  0  0  0  0
 20 38  1  0  0  0  0
 20 39  1  0  0  0  0
 20 40  1  0  0  0  0
 21 41  1  0  0  0  0
 21 42  1  0  0  0  0
 21 43  1  0  0  0  0
M  END
> <s_m_source_file>
AV-unprocessed.smi

> <i_m_source_file_index>
901

> <i_lp_mmshare_version>
43012

> <i_f3d_flags>
0

> <s_epik_input>
W0NIM11DKFtDSDNdKT1bQ0hdW0NAQEhdKEMxKFtDSDNdKVtDSDNdKVtDQEhdMUMoPU8pW05IXWMyW2NIXVtjSF1uKG4yKVtDSDJdQyg9TylbTkgyXQ==

> <s_epik_cmdline>
J2VwaWtfcHl0aG9uJywgJy1waCcsICc3LjAnLCAnLXRuJywgJzgnLCAnLW1hJywgJzIwMCcsICctbWV0YWxfYmluZGluZycsICctaW1hZScsICc8aW5maWxlLm1hZT4nLCAnLW9tYWUnLCAnPG91dGZpbGUubWFlPic=

> <r_lp_tautomer_probability>
1

> <r_epik_Ionization_Penalty>
1.01454e-05

> <r_epik_Ionization_Penalty_Charging>
0

> <r_epik_Ionization_Penalty_Neutral>
1.01454e-05

> <r_epik_State_Penalty>
-0

> <r_epik_Charging_Adjusted_Penalty>
0

> <i_epik_Tot_Q>
0

> <i_epik_Tot_abs_Q>
0

> <r_epik_Metal_State_Penalty>
-0

> <b_epik_Metal_Only>
0

> <s_lp_Force_Field>
OPLS_2005

> <r_lp_Energy>
23.331

> <b_lp_Chiralities_Consistent>
1

> <s_lp_Variant>
AV-unprocessed.smi:901-2

> <Gold.Version>
5.8.1

> <Gold.Id.Protein>
6NUR|6NUR_protein|mol2

> <Gold.PLP.Fitness>
40.8928

> <Gold.PLP.PLP>
-38.5165

> <Gold.PLP.part.hbond>
-2.3857

> <Gold.PLP.part.metal>
0.0000

> <Gold.PLP.part.buried>
-5.9690

> <Gold.PLP.part.nonpolar>
-32.0187

> <Gold.PLP.part.repulsive>
2.4166

> <Gold.PLP.ligand.clash>
0.0000

> <Gold.PLP.ligand.torsion>
0.5339

> <Gold.PLP.Chemscore.Hbond>
0.6240

> <Gold.PLP.Chemscore.CHOScore>
0.4512

> <Gold.PLP.Chemscore.Metal>
0.0000

> <Gold.PLP.Chemscore.Internal.Correction>
0.2185

> <Gold.Rescore>
     Score         DG    S(hbond)    S(metal)    S(lipo)     H(rot)  DE(clash)    DE(int)     intcor
      8.63     -10.62       0.28        0.00      82.67       2.13       0.01       1.98       ----

> <Gold.Chemscore.Fitness>
8.6301

> <Gold.Chemscore.DG>
-10.6229

> <Gold.Chemscore.ZeroCoef>
-5.4800

> <Gold.Chemscore.Hbond>
0.2773

> <Gold.Chemscore.Metal>
0.0000

> <Gold.Chemscore.Lipo>
82.6664

> <Gold.Chemscore.Internal_Hbond>
0.0000

> <Gold.Chemscore.DEClash>
0.0113

> <Gold.Chemscore.DEInternal>
1.9814

> <Gold.Chemscore.Rot>
2.1309

> <Gold.Chemscore.Internal.Correction>
   9.000000E+99

> <Gold.Chemscore.Hbond.Weighted>
-0.9261

> <Gold.Chemscore.Metal.Weighted>
-0.0000

> <Gold.Chemscore.Lipo.Weighted>
-9.6720

> <Gold.Chemscore.Internal_Hbond.Weighted>
0.0000

> <Gold.Chemscore.DEClash.Weighted>
0.0113

> <Gold.Chemscore.DEInternal.Weighted>
1.9814

> <Gold.Chemscore.Rot.Weighted>
5.4552

> <Gold.Chemscore.Internal.Correction.Weighted>
   9.000000E+99

> <Gold.Protein.RotatedTorsions>
[ 6907 6896 6895 6894 ] final -111.31 input  -60.11 | X-H torsion
[ 7974 7965 7964 7962 ] final  -48.61 input  175.53 | X-H torsion
[ 8008 7997 7996 7995 ] final  173.38 input   59.86 | X-H torsion
[ 10167 10162 10161 10158 ] final -106.99 input  -65.29 | X-H torsion
[ 10718 10713 10712 10709 ] final  -64.36 input   66.30 | X-H torsion
[ 10763 10752 10751 10750 ] final -124.99 input  -60.55 | X-H torsion
[ 11005 11000 10999 10996 ] final -159.55 input  -57.11 | X-H torsion

> <Gold.Protein.ActiveResidues>
 VAL166  LYS551  ARG553  GLY616  TRP617  ASP618  TYR619  PRO620  LYS621  CYS622 
 ASP623  PHE694  ASN695  SER759  ASP760  ASP761  ALA762  ILE779  LEU786  VAL792 
 PHE793  MET794  SER795  GLU796  ALA797  LYS798  CYS799  TRP800  GLU811  SER814 

> <Gold.Protein.RotatedAtoms>
  150.7682  133.9255  159.3410 H   0  0  0  0  0  0  0  0  0  0  0  0  # atno 6907 bound_to 6896
  151.7147  135.0904  160.0283 H   0  0  0  0  0  0  0  0  0  0  0  0  # atno 6908 bound_to 6896
  152.3687  133.6353  159.6106 H   0  0  0  0  0  0  0  0  0  0  0  0  # atno 6909 bound_to 6896
  145.9493  140.7588  142.9513 H   0  0  0  0  0  0  0  0  0  0  0  0  # atno 7974 bound_to 7965
  156.1081  140.1461  156.9376 H   0  0  0  0  0  0  0  0  0  0  0  0  # atno 8008 bound_to 7997
  154.4748  140.0898  156.7278 H   0  0  0  0  0  0  0  0  0  0  0  0  # atno 8009 bound_to 7997
  155.4644  140.3439  155.4319 H   0  0  0  0  0  0  0  0  0  0  0  0  # atno 8010 bound_to 7997
  140.1817  143.3961  152.1276 H   0  0  0  0  0  0  0  0  0  0  0  0  # atno 10167 bound_to 10162
  156.0734  130.4232  150.1409 H   0  0  0  0  0  0  0  0  0  0  0  0  # atno 10718 bound_to 10713
  154.8730  135.4045  154.3195 H   0  0  0  0  0  0  0  0  0  0  0  0  # atno 10763 bound_to 10752
  153.4026  135.7018  153.6421 H   0  0  0  0  0  0  0  0  0  0  0  0  # atno 10764 bound_to 10752
  153.5157  135.3698  155.2579 H   0  0  0  0  0  0  0  0  0  0  0  0  # atno 10765 bound_to 10752
  140.6414  134.4547  157.5233 H   0  0  0  0  0  0  0  0  0  0  0  0  # atno 11005 bound_to 11000
  144.6793  140.2408  143.7344 LP  0  0  0  0  0  0  0  0  0  0  0  0  # atno 17320 bound_to 7965
  145.8193  139.2037  143.1947 LP  0  0  0  0  0  0  0  0  0  0  0  0  # atno 17321 bound_to 7965
  139.5293  144.7140  151.5114 LP  0  0  0  0  0  0  0  0  0  0  0  0  # atno 17342 bound_to 10162
  140.6515  143.8687  150.6790 LP  0  0  0  0  0  0  0  0  0  0  0  0  # atno 17343 bound_to 10162
  156.9455  130.9758  151.3508 LP  0  0  0  0  0  0  0  0  0  0  0  0  # atno 17370 bound_to 10713
  157.5817  130.8381  149.8531 LP  0  0  0  0  0  0  0  0  0  0  0  0  # atno 17371 bound_to 10713
  139.9079  134.8409  156.1637 LP  0  0  0  0  0  0  0  0  0  0  0  0  # atno 17394 bound_to 11000
  141.0604  133.6844  156.1941 LP  0  0  0  0  0  0  0  0  0  0  0  0  # atno 17395 bound_to 11000

$$$$
