AV-unprocessed.smi:932|AV-procd|sdf|4199|dock2
  -GOLD-   22720 2103D 1   1.00000     0.00000
 Structure written by MMmdl.
 44 45  0  0  0  0  0  0  0  0  2 V2000
  150.8113  140.6940  155.6446 O   0  0  0  0  0  0  0  0  0  0  0  0
  149.8793  141.4466  155.9222 C   0  0  0  0  0  0  0  0  0  0  0  0
  148.6511  141.3295  155.3889 N   0  0  0  0  0  0  0  0  0  0  0  0
  148.2475  140.3295  154.4051 C   0  0  0  0  0  0  0  0  0  0  0  0
  147.8575  138.9928  155.0641 C   0  0  0  0  0  0  0  0  0  0  0  0
  146.7849  138.2941  154.3497 N   0  0  0  0  0  0  0  0  0  0  0  0
  146.1232  137.1596  154.7450 C   0  0  0  0  0  0  0  0  0  0  0  0
  145.2006  136.8858  153.7686 C   0  0  0  0  0  0  0  0  0  0  0  0
  145.3420  137.8602  152.8170 N   0  3  0  0  0  0  0  0  0  0  0  0
  146.3086  138.7135  153.1704 C   0  0  0  0  0  0  0  0  0  0  0  0
  150.0234  142.4603  156.7948 N   0  0  0  0  0  0  0  0  0  0  0  0
  151.2161  142.8631  157.5467 C   0  0  0  0  0  0  0  0  0  0  0  0
  151.6677  141.6461  158.3887 C   0  0  0  0  0  0  0  0  0  0  0  0
  153.0471  141.7865  159.0638 C   0  0  0  0  0  0  0  0  0  0  0  0
  153.0208  142.1092  160.5705 C   0  0  0  0  0  0  0  0  0  0  0  0
  152.0105  143.1720  161.0386 C   0  0  0  0  0  0  0  0  0  0  0  0
  152.2380  144.6062  160.5287 C   0  0  0  0  0  0  0  0  0  0  0  0
  152.1067  144.8350  159.0105 C   0  0  0  0  0  0  0  0  0  0  0  0
  150.8956  144.1562  158.3390 C   0  0  0  0  0  0  0  0  0  0  0  0
  147.9439  141.9859  155.6869 H   0  0  0  0  0  0  0  0  0  0  0  0
  147.4391  140.7032  153.7740 H   0  0  0  0  0  0  0  0  0  0  0  0
  149.0963  140.1658  153.7408 H   0  0  0  0  0  0  0  0  0  0  0  0
  148.7189  138.3247  155.0987 H   0  0  0  0  0  0  0  0  0  0  0  0
  147.5365  139.1490  156.0949 H   0  0  0  0  0  0  0  0  0  0  0  0
  146.3470  136.6499  155.6709 H   0  0  0  0  0  0  0  0  0  0  0  0
  144.4728  136.0921  153.6824 H   0  0  0  0  0  0  0  0  0  0  0  0
  146.6330  139.5770  152.6175 H   0  0  0  0  0  0  0  0  0  0  0  0
  149.1925  143.0021  156.9849 H   0  0  0  0  0  0  0  0  0  0  0  0
  152.0219  143.0770  156.8428 H   0  0  0  0  0  0  0  0  0  0  0  0
  150.9031  141.3635  159.1125 H   0  0  0  0  0  0  0  0  0  0  0  0
  151.7359  140.7932  157.7111 H   0  0  0  0  0  0  0  0  0  0  0  0
  153.5771  140.8396  158.9530 H   0  0  0  0  0  0  0  0  0  0  0  0
  153.6686  142.4993  158.5249 H   0  0  0  0  0  0  0  0  0  0  0  0
  152.7924  141.1863  161.1053 H   0  0  0  0  0  0  0  0  0  0  0  0
  154.0238  142.3916  160.8922 H   0  0  0  0  0  0  0  0  0  0  0  0
  150.9928  142.8499  160.8238 H   0  0  0  0  0  0  0  0  0  0  0  0
  152.0582  143.2052  162.1276 H   0  0  0  0  0  0  0  0  0  0  0  0
  151.5111  145.2481  161.0280 H   0  0  0  0  0  0  0  0  0  0  0  0
  153.2153  144.9597  160.8595 H   0  0  0  0  0  0  0  0  0  0  0  0
  152.0183  145.9116  158.8604 H   0  0  0  0  0  0  0  0  0  0  0  0
  153.0293  144.5723  158.4964 H   0  0  0  0  0  0  0  0  0  0  0  0
  150.4829  144.8808  157.6357 H   0  0  0  0  0  0  0  0  0  0  0  0
  150.0943  143.9849  159.0582 H   0  0  0  0  0  0  0  0  0  0  0  0
  144.7934  137.9291  151.9689 H   0  0  0  0  0  0  0  0  0  0  0  0
  1  2  2  0  0  0  0
  2  3  1  0  0  0  0
  2 11  1  0  0  0  0
  3  4  1  0  0  0  0
  3 20  1  0  0  0  0
  4  5  1  0  0  0  0
  4 21  1  0  0  0  0
  4 22  1  0  0  0  0
  5  6  1  0  0  0  0
  5 23  1  0  0  0  0
  5 24  1  0  0  0  0
  6 10  1  0  0  0  0
  6  7  1  0  0  0  0
  7  8  2  0  0  0  0
  7 25  1  0  0  0  0
  8  9  1  0  0  0  0
  8 26  1  0  0  0  0
  9 10  2  0  0  0  0
  9 44  1  0  0  0  0
 10 27  1  0  0  0  0
 11 12  1  0  0  0  0
 11 28  1  0  0  0  0
 12 19  1  0  0  0  0
 12 13  1  0  0  0  0
 12 29  1  0  0  0  0
 13 14  1  0  0  0  0
 13 30  1  0  0  0  0
 13 31  1  0  0  0  0
 14 15  1  0  0  0  0
 14 32  1  0  0  0  0
 14 33  1  0  0  0  0
 15 16  1  0  0  0  0
 15 34  1  0  0  0  0
 15 35  1  0  0  0  0
 16 17  1  0  0  0  0
 16 36  1  0  0  0  0
 16 37  1  0  0  0  0
 17 18  1  0  0  0  0
 17 38  1  0  0  0  0
 17 39  1  0  0  0  0
 18 19  1  0  0  0  0
 18 40  1  0  0  0  0
 18 41  1  0  0  0  0
 19 42  1  0  0  0  0
 19 43  1  0  0  0  0
M  CHG  1   9   1
M  END
> <s_m_source_file>
AV-unprocessed.smi

> <i_m_source_file_index>
932

> <i_lp_mmshare_version>
43012

> <i_f3d_flags>
0

> <s_epik_input>
W2NIXTFuW2NIXVtjSF1uMVtDSDJdW0NIMl1bTkhdQyg9TylbTkhdW0NIXTJbQ0gyXVtDSDJdW0NIMl1bQ0gyXVtDSDJdW0NIMl1bQ0gyXTI=

> <s_epik_cmdline>
J2VwaWtfcHl0aG9uJywgJy1waCcsICc3LjAnLCAnLXRuJywgJzgnLCAnLW1hJywgJzIwMCcsICctbWV0YWxfYmluZGluZycsICctaW1hZScsICc8aW5maWxlLm1hZT4nLCAnLW9tYWUnLCAnPG91dGZpbGUubWFlPic=

> <r_lp_tautomer_probability>
1

> <r_epik_Ionization_Penalty>
0.254654

> <r_epik_Ionization_Penalty_Charging>
0

> <r_epik_Ionization_Penalty_Neutral>
0.254654

> <r_epik_State_Penalty>
0.246077

> <r_epik_Charging_Adjusted_Penalty>
0.246077

> <i_epik_Tot_Q>
1

> <i_epik_Tot_abs_Q>
1

> <r_epik_Metal_State_Penalty>
0.536041

> <b_epik_Metal_Only>
0

> <s_lp_Force_Field>
OPLS_2005

> <r_lp_Energy>
30.2565

> <b_lp_Chiralities_Consistent>
1

> <s_lp_Variant>
AV-unprocessed.smi:932-1

> <Gold.Version>
5.8.1

> <Gold.Id.Protein>
6NUR|6NUR_protein|mol2

> <Gold.PLP.Fitness>
51.7422

> <Gold.PLP.PLP>
-41.6582

> <Gold.PLP.part.hbond>
-4.7815

> <Gold.PLP.part.metal>
0.0000

> <Gold.PLP.part.buried>
-3.8704

> <Gold.PLP.part.nonpolar>
-33.3335

> <Gold.PLP.part.repulsive>
0.3579

> <Gold.PLP.ligand.clash>
0.0000

> <Gold.PLP.ligand.torsion>
0.4503

> <Gold.PLP.Chemscore.Hbond>
2.6502

> <Gold.PLP.Chemscore.CHOScore>
1.0000

> <Gold.PLP.Chemscore.Metal>
0.0000

> <Gold.Chemscore.Hbonds>
donor molecule, donor type, donor heavy atom, donor atom, acceptor molecule, acceptor atom, score
      L1  H    11    28       P1  8028  0.19
      P1  H  7989  7998       L1     1  0.29

> <Gold.PLP.Chemscore.Internal.Correction>
0.0340

> <Gold.Rescore>
     Score         DG    S(hbond)    S(metal)    S(lipo)     H(rot)  DE(clash)    DE(int)     intcor
     18.45     -21.05       2.33        0.00     108.03       1.90       0.56       2.04       ----

> <Gold.Chemscore.Fitness>
18.4490

> <Gold.Chemscore.DG>
-21.0502

> <Gold.Chemscore.ZeroCoef>
-5.4800

> <Gold.Chemscore.Hbond>
2.3323

> <Gold.Chemscore.Metal>
0.0000

> <Gold.Chemscore.Lipo>
108.0307

> <Gold.Chemscore.Internal_Hbond>
0.0000

> <Gold.Chemscore.DEClash>
0.5615

> <Gold.Chemscore.DEInternal>
2.0396

> <Gold.Chemscore.Rot>
1.8982

> <Gold.Chemscore.Internal.Correction>
   9.000000E+99

> <Gold.Chemscore.Hbonds>
donor molecule, donor type, donor heavy atom, donor atom, acceptor molecule, acceptor atom, score
      L1  H     9    44       P1 10171  0.06
      L1  H    11    28       P1  8028  0.19
      P1  H  7989  7998       L1     1  0.25

> <Gold.Chemscore.Hbond.Weighted>
-7.7900

> <Gold.Chemscore.Metal.Weighted>
-0.0000

> <Gold.Chemscore.Lipo.Weighted>
-12.6396

> <Gold.Chemscore.Internal_Hbond.Weighted>
0.0000

> <Gold.Chemscore.DEClash.Weighted>
0.5615

> <Gold.Chemscore.DEInternal.Weighted>
2.0396

> <Gold.Chemscore.Rot.Weighted>
4.8594

> <Gold.Chemscore.Internal.Correction.Weighted>
   9.000000E+99

> <Gold.Protein.RotatedTorsions>
[ 6907 6896 6895 6894 ] final  164.95 input  -60.11 | X-H torsion
[ 7974 7965 7964 7962 ] final  -55.05 input  175.53 | X-H torsion
[ 8008 7997 7996 7995 ] final   66.46 input   59.86 | X-H torsion
[ 10167 10162 10161 10158 ] final   39.27 input  -65.29 | X-H torsion
[ 10718 10713 10712 10709 ] final  146.02 input   66.30 | X-H torsion
[ 10763 10752 10751 10750 ] final  168.32 input  -60.55 | X-H torsion
[ 11005 11000 10999 10996 ] final  -15.45 input  -57.11 | X-H torsion

> <Gold.Protein.ActiveResidues>
 VAL166  LYS551  ARG553  GLY616  TRP617  ASP618  TYR619  PRO620  LYS621  CYS622 
 ASP623  PHE694  ASN695  SER759  ASP760  ASP761  ALA762  ILE779  LEU786  VAL792 
 PHE793  MET794  SER795  GLU796  ALA797  LYS798  CYS799  TRP800  GLU811  SER814 

> <Gold.Protein.RotatedAtoms>
  151.9020  133.3540  159.3833 H   0  0  0  0  0  0  0  0  0  0  0  0  # atno 6907 bound_to 6896
  150.7078  134.4819  159.5484 H   0  0  0  0  0  0  0  0  0  0  0  0  # atno 6908 bound_to 6896
  152.2409  134.8230  160.0511 H   0  0  0  0  0  0  0  0  0  0  0  0  # atno 6909 bound_to 6896
  145.8786  140.8161  142.9851 H   0  0  0  0  0  0  0  0  0  0  0  0  # atno 7974 bound_to 7965
  155.6777  140.3496  155.4843 H   0  0  0  0  0  0  0  0  0  0  0  0  # atno 8008 bound_to 7997
  155.9634  140.1141  157.0899 H   0  0  0  0  0  0  0  0  0  0  0  0  # atno 8009 bound_to 7997
  154.4148  140.1171  156.5195 H   0  0  0  0  0  0  0  0  0  0  0  0  # atno 8010 bound_to 7997
  140.3856  144.1921  150.6130 H   0  0  0  0  0  0  0  0  0  0  0  0  # atno 10167 bound_to 10162
  157.3382  131.0931  151.1105 H   0  0  0  0  0  0  0  0  0  0  0  0  # atno 10718 bound_to 10713
  154.3669  135.2753  155.2288 H   0  0  0  0  0  0  0  0  0  0  0  0  # atno 10763 bound_to 10752
  154.4453  135.5944  153.6159 H   0  0  0  0  0  0  0  0  0  0  0  0  # atno 10764 bound_to 10752
  152.9840  135.6028  154.3896 H   0  0  0  0  0  0  0  0  0  0  0  0  # atno 10765 bound_to 10752
  140.7968  133.8245  155.9431 H   0  0  0  0  0  0  0  0  0  0  0  0  # atno 11005 bound_to 11000
  144.6727  140.1349  143.7441 LP  0  0  0  0  0  0  0  0  0  0  0  0  # atno 17320 bound_to 7965
  145.9050  139.2453  143.1471 LP  0  0  0  0  0  0  0  0  0  0  0  0  # atno 17321 bound_to 7965
  140.4892  143.2353  151.8843 LP  0  0  0  0  0  0  0  0  0  0  0  0  # atno 17342 bound_to 10162
  139.4792  144.5184  151.8836 LP  0  0  0  0  0  0  0  0  0  0  0  0  # atno 17343 bound_to 10162
  157.2327  130.6532  149.5856 LP  0  0  0  0  0  0  0  0  0  0  0  0  # atno 17370 bound_to 10713
  155.9704  130.4593  150.6033 LP  0  0  0  0  0  0  0  0  0  0  0  0  # atno 17371 bound_to 10713
  140.9335  134.1992  157.4847 LP  0  0  0  0  0  0  0  0  0  0  0  0  # atno 17394 bound_to 11000
  139.8725  134.9842  156.5231 LP  0  0  0  0  0  0  0  0  0  0  0  0  # atno 17395 bound_to 11000

$$$$
