AV-unprocessed.smi:3220|AV-procd|sdf|12300|dock7
  -GOLD-   2272018143D 1   1.00000     0.00000
 Structure written by MMmdl.
 33 34  0  0  0  0  0  0  0  0  1 V2000
  149.7354  141.3257  156.4224 C   0  0  0  0  0  0  0  0  0  0  0  0
  150.8872  140.7572  157.2644 C   0  0  1  0  0  0  0  0  0  0  0  0
  152.0282  140.2231  156.3772 C   0  0  0  0  0  0  0  0  0  0  0  0
  151.5786  139.1876  155.4636 N   0  0  0  0  0  0  0  0  0  0  0  0
  151.9083  137.8485  155.4552 C   0  0  0  0  0  0  0  0  0  0  0  0
  151.2363  137.2712  154.4162 C   0  0  0  0  0  0  0  0  0  0  0  0
  150.5115  138.3522  153.8407 C   0  0  0  0  0  0  0  0  0  0  0  0
  150.7184  139.4979  154.4699 N   0  0  0  0  0  0  0  0  0  0  0  0
  151.3963  141.7922  158.1622 N   0  0  0  0  0  0  0  0  0  0  0  0
  152.3683  141.6312  159.0728 C   0  0  0  0  0  0  0  0  0  0  0  0
  152.9431  140.5602  159.2696 O   0  0  0  0  0  0  0  0  0  0  0  0
  152.7564  142.8813  159.8703 C   0  0  1  0  0  0  0  0  0  0  0  0
  153.0777  144.1115  159.0007 C   0  0  0  0  0  0  0  0  0  0  0  0
  151.9076  145.0422  159.2511 C   0  0  0  0  0  0  0  0  0  0  0  0
  151.5115  144.6669  160.6716 C   0  0  0  0  0  0  0  0  0  0  0  0
  151.6413  143.2540  160.6781 O   0  0  0  0  0  0  0  0  0  0  0  0
  149.3265  140.5665  155.7551 H   0  0  0  0  0  0  0  0  0  0  0  0
  150.0675  142.1639  155.8090 H   0  0  0  0  0  0  0  0  0  0  0  0
  148.9209  141.6779  157.0562 H   0  0  0  0  0  0  0  0  0  0  0  0
  150.4953  139.9217  157.8476 H   0  0  0  0  0  0  0  0  0  0  0  0
  152.4576  141.0342  155.7869 H   0  0  0  0  0  0  0  0  0  0  0  0
  152.8375  139.8225  156.9894 H   0  0  0  0  0  0  0  0  0  0  0  0
  152.5829  137.4225  156.1831 H   0  0  0  0  0  0  0  0  0  0  0  0
  151.2579  136.2348  154.1141 H   0  0  0  0  0  0  0  0  0  0  0  0
  149.8461  138.3383  152.9903 H   0  0  0  0  0  0  0  0  0  0  0  0
  150.9878  142.7109  158.0716 H   0  0  0  0  0  0  0  0  0  0  0  0
  153.6067  142.6618  160.5184 H   0  0  0  0  0  0  0  0  0  0  0  0
  154.0018  144.5740  159.3497 H   0  0  0  0  0  0  0  0  0  0  0  0
  153.2070  143.8910  157.9402 H   0  0  0  0  0  0  0  0  0  0  0  0
  152.1661  146.0958  159.1421 H   0  0  0  0  0  0  0  0  0  0  0  0
  151.0923  144.8141  158.5633 H   0  0  0  0  0  0  0  0  0  0  0  0
  152.2013  145.1011  161.3969 H   0  0  0  0  0  0  0  0  0  0  0  0
  150.4986  144.9794  160.9256 H   0  0  0  0  0  0  0  0  0  0  0  0
  1  2  1  0  0  0  0
  1 17  1  0  0  0  0
  1 18  1  0  0  0  0
  1 19  1  0  0  0  0
  2  3  1  0  0  0  0
  2  9  1  0  0  0  0
  2 20  1  0  0  0  0
  3  4  1  0  0  0  0
  3 21  1  0  0  0  0
  3 22  1  0  0  0  0
  4  8  1  0  0  0  0
  4  5  1  0  0  0  0
  5  6  2  0  0  0  0
  5 23  1  0  0  0  0
  6  7  1  0  0  0  0
  6 24  1  0  0  0  0
  7  8  2  0  0  0  0
  7 25  1  0  0  0  0
  9 10  1  0  0  0  0
  9 26  1  0  0  0  0
 10 11  2  0  0  0  0
 10 12  1  0  0  0  0
 12 16  1  0  0  0  0
 12 13  1  0  0  0  0
 12 27  1  0  0  0  0
 13 14  1  0  0  0  0
 13 28  1  0  0  0  0
 13 29  1  0  0  0  0
 14 15  1  0  0  0  0
 14 30  1  0  0  0  0
 14 31  1  0  0  0  0
 15 16  1  0  0  0  0
 15 32  1  0  0  0  0
 15 33  1  0  0  0  0
M  END
> <s_m_source_file>
AV-unprocessed.smi

> <i_m_source_file_index>
3220

> <i_lp_mmshare_version>
43012

> <i_f3d_flags>
0

> <s_epik_input>
bjFbY0hdW2NIXVtjSF1uMVtDSDJdW0NAQEhdKFtDSDNdKVtOSF1DKD1PKVtDQEBIXTJbQ0gyXVtDSDJdW0NIMl1PMg==

> <s_epik_cmdline>
J2VwaWtfcHl0aG9uJywgJy1waCcsICc3LjAnLCAnLXRuJywgJzgnLCAnLW1hJywgJzIwMCcsICctbWV0YWxfYmluZGluZycsICctaW1hZScsICc8aW5maWxlLm1hZT4nLCAnLW9tYWUnLCAnPG91dGZpbGUubWFlPic=

> <r_lp_tautomer_probability>
1

> <r_epik_Ionization_Penalty>
0.00033363

> <r_epik_Ionization_Penalty_Charging>
0

> <r_epik_Ionization_Penalty_Neutral>
0.00033363

> <r_epik_State_Penalty>
-0

> <r_epik_Charging_Adjusted_Penalty>
0

> <i_epik_Tot_Q>
0

> <i_epik_Tot_abs_Q>
0

> <r_epik_Metal_State_Penalty>
-0

> <b_epik_Metal_Only>
0

> <s_lp_Force_Field>
OPLS_2005

> <r_lp_Energy>
17.8243

> <b_lp_Chiralities_Consistent>
1

> <s_lp_Variant>
AV-unprocessed.smi:3220-4

> <Gold.Version>
5.8.1

> <Gold.Id.Protein>
6NUR|6NUR_protein|mol2

> <Gold.PLP.Fitness>
43.3447

> <Gold.PLP.PLP>
-35.0737

> <Gold.PLP.part.hbond>
-1.4641

> <Gold.PLP.part.metal>
0.0000

> <Gold.PLP.part.buried>
-4.0981

> <Gold.PLP.part.nonpolar>
-29.3253

> <Gold.PLP.part.repulsive>
0.2783

> <Gold.PLP.ligand.clash>
0.0000

> <Gold.PLP.ligand.torsion>
0.1427

> <Gold.PLP.Chemscore.Hbond>
1.0000

> <Gold.PLP.Chemscore.CHOScore>
1.8436

> <Gold.PLP.Chemscore.Metal>
0.0000

> <Gold.Chemscore.Hbonds>
donor molecule, donor type, donor heavy atom, donor atom, acceptor molecule, acceptor atom, score
      P1  H  7989  7998       L1     8  1.00
      L1  C     7    25       P1  7948  0.90
      L1  C     7    25       P1  7957  0.98

> <Gold.PLP.Chemscore.Internal.Correction>
0.0256

> <Gold.Rescore>
     Score         DG    S(hbond)    S(metal)    S(lipo)     H(rot)  DE(clash)    DE(int)     intcor
     14.49     -15.20       0.99        0.00      90.27       1.62       0.30       0.41       ----

> <Gold.Chemscore.Fitness>
14.4910

> <Gold.Chemscore.DG>
-15.2012

> <Gold.Chemscore.ZeroCoef>
-5.4800

> <Gold.Chemscore.Hbond>
0.9916

> <Gold.Chemscore.Metal>
0.0000

> <Gold.Chemscore.Lipo>
90.2675

> <Gold.Chemscore.Internal_Hbond>
0.0000

> <Gold.Chemscore.DEClash>
0.3008

> <Gold.Chemscore.DEInternal>
0.4094

> <Gold.Chemscore.Rot>
1.6219

> <Gold.Chemscore.Internal.Correction>
   9.000000E+99

> <Gold.Chemscore.Hbonds>
donor molecule, donor type, donor heavy atom, donor atom, acceptor molecule, acceptor atom, score
      P1  H  7989  7998       L1     8  0.41

> <Gold.Chemscore.Hbond.Weighted>
-3.3118

> <Gold.Chemscore.Metal.Weighted>
-0.0000

> <Gold.Chemscore.Lipo.Weighted>
-10.5613

> <Gold.Chemscore.Internal_Hbond.Weighted>
0.0000

> <Gold.Chemscore.DEClash.Weighted>
0.3008

> <Gold.Chemscore.DEInternal.Weighted>
0.4094

> <Gold.Chemscore.Rot.Weighted>
4.1520

> <Gold.Chemscore.Internal.Correction.Weighted>
   9.000000E+99

> <Gold.Protein.RotatedTorsions>
[ 6907 6896 6895 6894 ] final -122.23 input  -60.11 | X-H torsion
[ 7974 7965 7964 7962 ] final  168.95 input  175.53 | X-H torsion
[ 8008 7997 7996 7995 ] final -128.33 input   59.86 | X-H torsion
[ 10167 10162 10161 10158 ] final  137.91 input  -65.29 | X-H torsion
[ 10718 10713 10712 10709 ] final   13.02 input   66.30 | X-H torsion
[ 10763 10752 10751 10750 ] final  100.35 input  -60.55 | X-H torsion
[ 11005 11000 10999 10996 ] final   63.69 input  -57.11 | X-H torsion

> <Gold.Protein.ActiveResidues>
 VAL166  LYS551  ARG553  GLY616  TRP617  ASP618  TYR619  PRO620  LYS621  CYS622 
 ASP623  PHE694  ASN695  SER759  ASP760  ASP761  ALA762  ILE779  LEU786  VAL792 
 PHE793  MET794  SER795  GLU796  ALA797  LYS798  CYS799  TRP800  GLU811  SER814 

> <Gold.Protein.RotatedAtoms>
  150.8556  133.7720  159.3009 H   0  0  0  0  0  0  0  0  0  0  0  0  # atno 6907 bound_to 6896
  151.5378  135.1067  159.9928 H   0  0  0  0  0  0  0  0  0  0  0  0  # atno 6908 bound_to 6896
  152.4587  133.7733  159.6867 H   0  0  0  0  0  0  0  0  0  0  0  0  # atno 6909 bound_to 6896
  144.7371  139.8983  143.6407 H   0  0  0  0  0  0  0  0  0  0  0  0  # atno 7974 bound_to 7965
  155.2608  140.0436  157.2997 H   0  0  0  0  0  0  0  0  0  0  0  0  # atno 8008 bound_to 7997
  154.5712  140.2374  155.8159 H   0  0  0  0  0  0  0  0  0  0  0  0  # atno 8009 bound_to 7997
  156.2123  140.2995  155.9769 H   0  0  0  0  0  0  0  0  0  0  0  0  # atno 8010 bound_to 7997
  139.5128  144.6383  151.5637 H   0  0  0  0  0  0  0  0  0  0  0  0  # atno 10167 bound_to 10162
  157.0185  130.6145  149.5718 H   0  0  0  0  0  0  0  0  0  0  0  0  # atno 10718 bound_to 10713
  153.3129  135.4082  155.1351 H   0  0  0  0  0  0  0  0  0  0  0  0  # atno 10763 bound_to 10752
  154.8580  135.3569  154.5700 H   0  0  0  0  0  0  0  0  0  0  0  0  # atno 10764 bound_to 10752
  153.6129  135.7067  153.5398 H   0  0  0  0  0  0  0  0  0  0  0  0  # atno 10765 bound_to 10752
  140.0008  134.6446  155.9934 H   0  0  0  0  0  0  0  0  0  0  0  0  # atno 11005 bound_to 11000
  146.1091  139.4094  143.0299 LP  0  0  0  0  0  0  0  0  0  0  0  0  # atno 17320 bound_to 7965
  145.7469  140.9987  143.1271 LP  0  0  0  0  0  0  0  0  0  0  0  0  # atno 17321 bound_to 7965
  140.6140  143.9382  150.6475 LP  0  0  0  0  0  0  0  0  0  0  0  0  # atno 17342 bound_to 10162
  140.2634  143.3507  152.1302 LP  0  0  0  0  0  0  0  0  0  0  0  0  # atno 17343 bound_to 10162
  156.0110  130.5202  150.7989 LP  0  0  0  0  0  0  0  0  0  0  0  0  # atno 17370 bound_to 10713
  157.5267  131.0934  151.0008 LP  0  0  0  0  0  0  0  0  0  0  0  0  # atno 17371 bound_to 10713
  141.1640  133.6537  156.4416 LP  0  0  0  0  0  0  0  0  0  0  0  0  # atno 17394 bound_to 11000
  140.4732  134.6734  157.5138 LP  0  0  0  0  0  0  0  0  0  0  0  0  # atno 17395 bound_to 11000

$$$$
