AV-unprocessed.smi:1514|AV-procd|sdf|6115|dock4
  -GOLD-   22720 6253D 1   1.00000     0.00000
 Structure written by MMmdl.
 48 49  0  0  0  0  0  0  0  0  2 V2000
  153.1697  140.3453  157.5457 C   0  0  0  0  0  0  0  0  0  0  0  0
  151.7696  140.7262  158.0484 C   0  0  0  0  0  0  0  0  0  0  0  0
  151.3636  142.0560  157.5873 N   0  0  0  0  0  0  0  0  0  0  0  0
  151.3515  142.1609  156.1264 C   0  0  0  0  0  0  0  0  0  0  0  0
  150.1888  141.3644  155.4974 C   0  0  0  0  0  0  0  0  0  0  0  0
  148.8862  141.8296  156.0322 N   0  3  0  0  0  0  0  0  0  0  0  0
  147.7358  141.1419  155.3954 C   0  0  0  0  0  0  0  0  0  0  0  0
  147.9844  140.8338  153.9061 C   0  0  0  0  0  0  0  0  0  0  0  0
  146.9273  139.9982  153.3479 N   0  0  0  0  0  0  0  0  0  0  0  0
  147.0780  138.7169  152.9822 C   0  0  0  0  0  0  0  0  0  0  0  0
  148.1462  138.1116  153.0735 O   0  0  0  0  0  0  0  0  0  0  0  0
  145.9267  138.2054  152.5122 N   0  0  0  0  0  0  0  0  0  0  0  0
  145.6827  136.9523  152.0445 C   0  0  0  0  0  0  0  0  0  0  0  0
  146.4494  136.1772  151.2179 C   0  0  0  0  0  0  0  0  0  0  0  0
  145.6726  134.9887  151.0930 C   0  0  0  0  0  0  0  0  0  0  0  0
  145.9932  133.7547  150.3023 C   0  0  0  0  0  0  0  0  0  0  0  0
  144.5383  135.0427  151.7822 N   0  0  0  0  0  0  0  0  0  0  0  0
  144.5404  136.2568  152.3737 N   0  0  0  0  0  0  0  0  0  0  0  0
  143.4305  136.6552  153.2177 C   0  0  0  0  0  0  0  0  0  0  0  0
  148.8845  141.7407  157.5145 C   0  0  0  0  0  0  0  0  0  0  0  0
  150.0744  142.5258  158.1059 C   0  0  0  0  0  0  0  0  0  0  0  0
  153.3910  139.3064  157.7899 H   0  0  0  0  0  0  0  0  0  0  0  0
  153.9495  140.9543  158.0016 H   0  0  0  0  0  0  0  0  0  0  0  0
  153.2443  140.4515  156.4629 H   0  0  0  0  0  0  0  0  0  0  0  0
  151.0622  139.9958  157.6536 H   0  0  0  0  0  0  0  0  0  0  0  0
  151.7243  140.6431  159.1336 H   0  0  0  0  0  0  0  0  0  0  0  0
  151.2630  143.2132  155.8529 H   0  0  0  0  0  0  0  0  0  0  0  0
  152.3066  141.8205  155.7243 H   0  0  0  0  0  0  0  0  0  0  0  0
  150.2078  141.5076  154.4165 H   0  0  0  0  0  0  0  0  0  0  0  0
  150.3050  140.2937  155.6710 H   0  0  0  0  0  0  0  0  0  0  0  0
  147.5556  140.1967  155.9100 H   0  0  0  0  0  0  0  0  0  0  0  0
  146.8343  141.7418  155.5302 H   0  0  0  0  0  0  0  0  0  0  0  0
  148.0634  141.7469  153.3154 H   0  0  0  0  0  0  0  0  0  0  0  0
  148.9311  140.3058  153.7888 H   0  0  0  0  0  0  0  0  0  0  0  0
  146.0162  140.4210  153.2429 H   0  0  0  0  0  0  0  0  0  0  0  0
  145.1333  138.8291  152.5005 H   0  0  0  0  0  0  0  0  0  0  0  0
  147.4049  136.4001  150.7680 H   0  0  0  0  0  0  0  0  0  0  0  0
  147.0050  133.7973  149.8989 H   0  0  0  0  0  0  0  0  0  0  0  0
  145.3062  133.6379  149.4639 H   0  0  0  0  0  0  0  0  0  0  0  0
  145.9211  132.8602  150.9214 H   0  0  0  0  0  0  0  0  0  0  0  0
  142.9692  137.5569  152.8145 H   0  0  0  0  0  0  0  0  0  0  0  0
  143.7916  136.8585  154.2260 H   0  0  0  0  0  0  0  0  0  0  0  0
  142.6797  135.8651  153.2642 H   0  0  0  0  0  0  0  0  0  0  0  0
  147.9619  142.1619  157.9119 H   0  0  0  0  0  0  0  0  0  0  0  0
  148.9064  140.6969  157.8302 H   0  0  0  0  0  0  0  0  0  0  0  0
  150.0578  142.4771  159.1939 H   0  0  0  0  0  0  0  0  0  0  0  0
  149.9686  143.5819  157.8546 H   0  0  0  0  0  0  0  0  0  0  0  0
  148.8142  142.8079  155.7922 H   0  0  0  0  0  0  0  0  0  0  0  0
  1  2  1  0  0  0  0
  1 22  1  0  0  0  0
  1 23  1  0  0  0  0
  1 24  1  0  0  0  0
  2  3  1  0  0  0  0
  2 25  1  0  0  0  0
  2 26  1  0  0  0  0
  3 21  1  0  0  0  0
  3  4  1  0  0  0  0
  4  5  1  0  0  0  0
  4 27  1  0  0  0  0
  4 28  1  0  0  0  0
  5  6  1  0  0  0  0
  5 29  1  0  0  0  0
  5 30  1  0  0  0  0
  6  7  1  0  0  0  0
  6 20  1  0  0  0  0
  6 48  1  0  0  0  0
  7  8  1  0  0  0  0
  7 31  1  0  0  0  0
  7 32  1  0  0  0  0
  8  9  1  0  0  0  0
  8 33  1  0  0  0  0
  8 34  1  0  0  0  0
  9 10  1  0  0  0  0
  9 35  1  0  0  0  0
 10 11  2  0  0  0  0
 10 12  1  0  0  0  0
 12 13  1  0  0  0  0
 12 36  1  0  0  0  0
 13 18  1  0  0  0  0
 13 14  2  0  0  0  0
 14 15  1  0  0  0  0
 14 37  1  0  0  0  0
 15 16  1  0  0  0  0
 15 17  2  0  0  0  0
 16 38  1  0  0  0  0
 16 39  1  0  0  0  0
 16 40  1  0  0  0  0
 17 18  1  0  0  0  0
 18 19  1  0  0  0  0
 19 41  1  0  0  0  0
 19 42  1  0  0  0  0
 19 43  1  0  0  0  0
 20 21  1  0  0  0  0
 20 44  1  0  0  0  0
 20 45  1  0  0  0  0
 21 46  1  0  0  0  0
 21 47  1  0  0  0  0
M  CHG  1   6   1
M  END
> <s_m_source_file>
AV-unprocessed.smi

> <i_m_source_file_index>
1514

> <i_lp_mmshare_version>
43012

> <i_f3d_flags>
0

> <s_epik_input>
W0NIM11bQ0gyXU4xW0NIMl1bQ0gyXU4oW0NIMl1bQ0gyXTEpW0NIMl1bQ0gyXVtOSF1DKD1PKVtOSF1jMltjSF1jKFtDSDNdKW5uMltDSDNd

> <s_epik_cmdline>
J2VwaWtfcHl0aG9uJywgJy1waCcsICc3LjAnLCAnLXRuJywgJzgnLCAnLW1hJywgJzIwMCcsICctbWV0YWxfYmluZGluZycsICctaW1hZScsICc8aW5maWxlLm1hZT4nLCAnLW9tYWUnLCAnPG91dGZpbGUubWFlPic=

> <r_epik_Ionization_Penalty>
0.237948

> <r_epik_Ionization_Penalty_Charging>
0.236594

> <r_epik_Ionization_Penalty_Neutral>
0.00135429

> <r_epik_State_Penalty>
1.1865

> <r_epik_Charging_Adjusted_Penalty>
1.42309

> <i_epik_Tot_Q>
1

> <i_epik_Tot_abs_Q>
1

> <r_epik_Metal_State_Penalty>
1.18651

> <b_epik_Metal_Only>
0

> <s_lp_Force_Field>
OPLS_2005

> <r_lp_Energy>
18.1448

> <b_lp_Chiralities_Consistent>
1

> <s_lp_Variant>
AV-unprocessed.smi:1514-2

> <Gold.Version>
5.8.1

> <Gold.Id.Protein>
6NUR|6NUR_protein|mol2

> <Gold.PLP.Fitness>
41.6097

> <Gold.PLP.PLP>
-31.0445

> <Gold.PLP.part.hbond>
-4.0000

> <Gold.PLP.part.metal>
0.0000

> <Gold.PLP.part.buried>
-3.9724

> <Gold.PLP.part.nonpolar>
-26.4139

> <Gold.PLP.part.repulsive>
2.6974

> <Gold.PLP.ligand.clash>
0.0000

> <Gold.PLP.ligand.torsion>
0.6356

> <Gold.PLP.Chemscore.Hbond>
3.9280

> <Gold.PLP.Chemscore.CHOScore>
0.0000

> <Gold.PLP.Chemscore.Metal>
0.0000

> <Gold.Chemscore.Hbonds>
donor molecule, donor type, donor heavy atom, donor atom, acceptor molecule, acceptor atom, score
      L1  H     6    48       P1  8028  2.00
      L1  H    12    36       P1 10175  0.62

> <Gold.PLP.Chemscore.Internal.Correction>
0.0524

> <Gold.Rescore>
     Score         DG    S(hbond)    S(metal)    S(lipo)     H(rot)  DE(clash)    DE(int)     intcor
     16.19     -17.94       2.83        0.00      62.75       1.69       1.04       0.71       ----

> <Gold.Chemscore.Fitness>
16.1867

> <Gold.Chemscore.DG>
-17.9381

> <Gold.Chemscore.ZeroCoef>
-5.4800

> <Gold.Chemscore.Hbond>
2.8281

> <Gold.Chemscore.Metal>
0.0000

> <Gold.Chemscore.Lipo>
62.7520

> <Gold.Chemscore.Internal_Hbond>
0.0000

> <Gold.Chemscore.DEClash>
1.0425

> <Gold.Chemscore.DEInternal>
0.7089

> <Gold.Chemscore.Rot>
1.6914

> <Gold.Chemscore.Internal.Correction>
   9.000000E+99

> <Gold.Chemscore.Hbonds>
donor molecule, donor type, donor heavy atom, donor atom, acceptor molecule, acceptor atom, score
      L1  H     6    48       P1  8028  1.00
      L1  H     9    35       P1 10175  0.04
      L1  H    12    36       P1 10175  0.63

> <Gold.Chemscore.Hbond.Weighted>
-9.4460

> <Gold.Chemscore.Metal.Weighted>
-0.0000

> <Gold.Chemscore.Lipo.Weighted>
-7.3420

> <Gold.Chemscore.Internal_Hbond.Weighted>
0.0000

> <Gold.Chemscore.DEClash.Weighted>
1.0425

> <Gold.Chemscore.DEInternal.Weighted>
0.7089

> <Gold.Chemscore.Rot.Weighted>
4.3299

> <Gold.Chemscore.Internal.Correction.Weighted>
   9.000000E+99

> <Gold.Protein.RotatedTorsions>
[ 6907 6896 6895 6894 ] final  -35.90 input  -60.11 | X-H torsion
[ 7974 7965 7964 7962 ] final -134.11 input  175.53 | X-H torsion
[ 8008 7997 7996 7995 ] final  -61.53 input   59.86 | X-H torsion
[ 10167 10162 10161 10158 ] final -145.21 input  -65.29 | X-H torsion
[ 10718 10713 10712 10709 ] final -149.13 input   66.30 | X-H torsion
[ 10763 10752 10751 10750 ] final  -90.25 input  -60.55 | X-H torsion
[ 11005 11000 10999 10996 ] final -138.73 input  -57.11 | X-H torsion

> <Gold.Protein.ActiveResidues>
 VAL166  LYS551  ARG553  GLY616  TRP617  ASP618  TYR619  PRO620  LYS621  CYS622 
 ASP623  PHE694  ASN695  SER759  ASP760  ASP761  ALA762  ILE779  LEU786  VAL792 
 PHE793  MET794  SER795  GLU796  ALA797  LYS798  CYS799  TRP800  GLU811  SER814 

> <Gold.Protein.RotatedAtoms>
  151.0339  134.9559  159.8125 H   0  0  0  0  0  0  0  0  0  0  0  0  # atno 6907 bound_to 6896
  152.5351  134.2745  159.8994 H   0  0  0  0  0  0  0  0  0  0  0  0  # atno 6908 bound_to 6896
  151.2755  133.4192  159.2658 H   0  0  0  0  0  0  0  0  0  0  0  0  # atno 6909 bound_to 6896
  144.9132  140.6922  143.5012 H   0  0  0  0  0  0  0  0  0  0  0  0  # atno 7974 bound_to 7965
  154.4452  140.1016  156.6445 H   0  0  0  0  0  0  0  0  0  0  0  0  # atno 8008 bound_to 7997
  155.5466  140.3484  155.4440 H   0  0  0  0  0  0  0  0  0  0  0  0  # atno 8009 bound_to 7997
  156.0559  140.1315  156.9986 H   0  0  0  0  0  0  0  0  0  0  0  0  # atno 8010 bound_to 7997
  139.7827  143.8078  152.2640 H   0  0  0  0  0  0  0  0  0  0  0  0  # atno 10167 bound_to 10162
  156.4292  130.8067  151.2293 H   0  0  0  0  0  0  0  0  0  0  0  0  # atno 10718 bound_to 10713
  154.6638  135.5311  153.8052 H   0  0  0  0  0  0  0  0  0  0  0  0  # atno 10763 bound_to 10752
  153.0458  135.6512  154.0830 H   0  0  0  0  0  0  0  0  0  0  0  0  # atno 10764 bound_to 10752
  154.0736  135.2952  155.3283 H   0  0  0  0  0  0  0  0  0  0  0  0  # atno 10765 bound_to 10752
  140.8588  134.2195  157.4719 H   0  0  0  0  0  0  0  0  0  0  0  0  # atno 11005 bound_to 11000
  145.3419  139.1730  143.4481 LP  0  0  0  0  0  0  0  0  0  0  0  0  # atno 17320 bound_to 7965
  146.3169  140.3461  142.8652 LP  0  0  0  0  0  0  0  0  0  0  0  0  # atno 17321 bound_to 7965
  139.8146  144.7321  150.9652 LP  0  0  0  0  0  0  0  0  0  0  0  0  # atno 17342 bound_to 10162
  140.7819  143.4218  151.0830 LP  0  0  0  0  0  0  0  0  0  0  0  0  # atno 17343 bound_to 10162
  157.7508  131.0204  150.3706 LP  0  0  0  0  0  0  0  0  0  0  0  0  # atno 17370 bound_to 10713
  156.4039  130.3921  149.6939 LP  0  0  0  0  0  0  0  0  0  0  0  0  # atno 17371 bound_to 10713
  139.8706  134.9719  156.4754 LP  0  0  0  0  0  0  0  0  0  0  0  0  # atno 17394 bound_to 11000
  140.8707  133.7991  155.9361 LP  0  0  0  0  0  0  0  0  0  0  0  0  # atno 17395 bound_to 11000

$$$$
