AV-unprocessed.smi:1554|AV-procd|sdf|6252|dock4
  -GOLD-   22720 6433D 1   1.00000     0.00000
 Structure written by MMmdl.
 48 50  0  0  0  0  0  0  0  0  2 V2000
  152.5758  143.6532  161.1727 C   0  0  0  0  0  0  0  0  0  0  0  0
  152.3227  142.8560  159.9043 C   0  0  0  0  0  0  0  0  0  0  0  0
  151.3097  143.2953  159.0224 C   0  0  0  0  0  0  0  0  0  0  0  0
  151.1001  142.5433  157.8723 C   0  0  0  0  0  0  0  0  0  0  0  0
  150.1898  142.7081  156.8263 N   0  3  0  0  0  0  0  0  0  0  0  0
  150.3611  141.7120  155.9139 C   0  0  0  0  0  0  0  0  0  0  0  0
  151.3690  140.9145  156.3604 N   0  0  0  0  0  0  0  0  0  0  0  0
  151.9493  139.7090  155.7510 C   0  0  0  0  0  0  0  0  0  0  0  0
  150.8853  138.7572  155.1702 C   0  0  2  0  0  0  0  0  0  0  0  0
  150.3637  139.3037  153.9753 O   0  0  0  0  0  0  0  0  0  0  0  0
  149.7202  138.5459  156.1575 C   0  0  0  0  0  0  0  0  0  0  0  0
  150.0261  137.7272  157.3324 N   0  0  0  0  0  0  0  0  0  0  0  0
  150.9562  138.3798  158.2526 C   0  0  0  0  0  0  0  0  0  0  0  0
  151.2344  137.5170  159.4954 C   0  0  0  0  0  0  0  0  0  0  0  0
  150.0077  137.2031  160.1458 O   0  0  0  0  0  0  0  0  0  0  0  0
  149.0887  136.5189  159.2988 C   0  0  1  0  0  0  0  0  0  0  0  0
  147.8177  136.2272  160.1036 C   0  0  0  0  0  0  0  0  0  0  0  0
  148.8061  137.3887  158.0584 C   0  0  0  0  0  0  0  0  0  0  0  0
  151.8593  141.3930  157.5816 C   0  0  0  0  0  0  0  0  0  0  0  0
  152.8609  140.9467  158.4407 C   0  0  0  0  0  0  0  0  0  0  0  0
  153.0871  141.6954  159.6178 C   0  0  0  0  0  0  0  0  0  0  0  0
  154.1692  141.2280  160.5764 C   0  0  0  0  0  0  0  0  0  0  0  0
  151.9248  144.5259  161.2323 H   0  0  0  0  0  0  0  0  0  0  0  0
  153.6070  144.0057  161.2050 H   0  0  0  0  0  0  0  0  0  0  0  0
  152.3913  143.0384  162.0539 H   0  0  0  0  0  0  0  0  0  0  0  0
  150.7220  144.1764  159.2348 H   0  0  0  0  0  0  0  0  0  0  0  0
  149.7998  141.5797  155.0001 H   0  0  0  0  0  0  0  0  0  0  0  0
  152.6150  140.0458  154.9555 H   0  0  0  0  0  0  0  0  0  0  0  0
  152.5812  139.2029  156.4813 H   0  0  0  0  0  0  0  0  0  0  0  0
  151.3688  137.8104  154.9336 H   0  0  0  0  0  0  0  0  0  0  0  0
  150.5697  138.7141  153.2653 H   0  0  0  0  0  0  0  0  0  0  0  0
  149.3523  139.5179  156.4899 H   0  0  0  0  0  0  0  0  0  0  0  0
  148.8938  138.0919  155.6082 H   0  0  0  0  0  0  0  0  0  0  0  0
  151.9048  138.5835  157.7582 H   0  0  0  0  0  0  0  0  0  0  0  0
  150.5522  139.3436  158.5668 H   0  0  0  0  0  0  0  0  0  0  0  0
  151.7534  136.5980  159.2192 H   0  0  0  0  0  0  0  0  0  0  0  0
  151.8798  138.0527  160.1917 H   0  0  0  0  0  0  0  0  0  0  0  0
  149.5323  135.5714  158.9872 H   0  0  0  0  0  0  0  0  0  0  0  0
  147.0822  135.6973  159.4979 H   0  0  0  0  0  0  0  0  0  0  0  0
  147.3567  137.1492  160.4595 H   0  0  0  0  0  0  0  0  0  0  0  0
  148.0402  135.6086  160.9733 H   0  0  0  0  0  0  0  0  0  0  0  0
  148.2952  138.3029  158.3656 H   0  0  0  0  0  0  0  0  0  0  0  0
  148.1205  136.8573  157.3971 H   0  0  0  0  0  0  0  0  0  0  0  0
  153.4387  140.0597  158.2267 H   0  0  0  0  0  0  0  0  0  0  0  0
  154.6573  140.3219  160.2160 H   0  0  0  0  0  0  0  0  0  0  0  0
  153.7438  141.0097  161.5564 H   0  0  0  0  0  0  0  0  0  0  0  0
  154.9353  141.9950  160.6935 H   0  0  0  0  0  0  0  0  0  0  0  0
  149.5012  143.4446  156.7394 H   0  0  0  0  0  0  0  0  0  0  0  0
  1  2  1  0  0  0  0
  1 23  1  0  0  0  0
  1 24  1  0  0  0  0
  1 25  1  0  0  0  0
  2 21  1  0  0  0  0
  2  3  2  0  0  0  0
  3  4  1  0  0  0  0
  3 26  1  0  0  0  0
  4 19  2  0  0  0  0
  4  5  1  0  0  0  0
  5  6  2  0  0  0  0
  5 48  1  0  0  0  0
  6  7  1  0  0  0  0
  6 27  1  0  0  0  0
  7  8  1  0  0  0  0
  7 19  1  0  0  0  0
  8  9  1  0  0  0  0
  8 28  1  0  0  0  0
  8 29  1  0  0  0  0
  9 10  1  0  0  0  0
  9 11  1  0  0  0  0
  9 30  1  0  0  0  0
 10 31  1  0  0  0  0
 11 12  1  0  0  0  0
 11 32  1  0  0  0  0
 11 33  1  0  0  0  0
 12 18  1  0  0  0  0
 12 13  1  0  0  0  0
 13 14  1  0  0  0  0
 13 34  1  0  0  0  0
 13 35  1  0  0  0  0
 14 15  1  0  0  0  0
 14 36  1  0  0  0  0
 14 37  1  0  0  0  0
 15 16  1  0  0  0  0
 16 17  1  0  0  0  0
 16 18  1  0  0  0  0
 16 38  1  0  0  0  0
 17 39  1  0  0  0  0
 17 40  1  0  0  0  0
 17 41  1  0  0  0  0
 18 42  1  0  0  0  0
 18 43  1  0  0  0  0
 19 20  1  0  0  0  0
 20 21  2  0  0  0  0
 20 44  1  0  0  0  0
 21 22  1  0  0  0  0
 22 45  1  0  0  0  0
 22 46  1  0  0  0  0
 22 47  1  0  0  0  0
M  CHG  1   5   1
M  END
> <s_m_source_file>
AV-unprocessed.smi

> <i_m_source_file_index>
1554

> <i_lp_mmshare_version>
43012

> <i_f3d_flags>
0

> <s_epik_input>
W0NIM11jKFtjSF0xKWMoW0NIM10pW2NIXWMoYzEyKW4oW2NIXW4yKVtDSDJdW0NASF0oW09IXSlbQ0gyXU4zW0NIMl1bQ0gyXU9bQ0BASF0oW0NIM10pW0NIMl0z

> <s_epik_cmdline>
J2VwaWtfcHl0aG9uJywgJy1waCcsICc3LjAnLCAnLXRuJywgJzgnLCAnLW1hJywgJzIwMCcsICctbWV0YWxfYmluZGluZycsICctaW1hZScsICc8aW5maWxlLm1hZT4nLCAnLW9tYWUnLCAnPG91dGZpbGUubWFlPic=

> <r_epik_Ionization_Penalty>
1.42504

> <r_epik_Ionization_Penalty_Charging>
1.21068

> <r_epik_Ionization_Penalty_Neutral>
0.214359

> <r_epik_State_Penalty>
1.46962

> <r_epik_Charging_Adjusted_Penalty>
2.6803

> <i_epik_Tot_Q>
1

> <i_epik_Tot_abs_Q>
1

> <r_epik_Metal_State_Penalty>
5.48754

> <b_epik_Metal_Only>
0

> <s_lp_Force_Field>
OPLS_2005

> <r_lp_Energy>
34.8696

> <b_lp_Chiralities_Consistent>
1

> <s_lp_Variant>
AV-unprocessed.smi:1554-13

> <Gold.Version>
5.8.1

> <Gold.Id.Protein>
6NUR|6NUR_protein|mol2

> <Gold.PLP.Fitness>
51.6399

> <Gold.PLP.PLP>
-42.8090

> <Gold.PLP.part.hbond>
-4.0000

> <Gold.PLP.part.metal>
0.0000

> <Gold.PLP.part.buried>
-5.7702

> <Gold.PLP.part.nonpolar>
-33.3327

> <Gold.PLP.part.repulsive>
0.0384

> <Gold.PLP.ligand.clash>
0.0000

> <Gold.PLP.ligand.torsion>
0.4487

> <Gold.PLP.Chemscore.Hbond>
3.2174

> <Gold.PLP.Chemscore.CHOScore>
0.0000

> <Gold.PLP.Chemscore.Metal>
0.0000

> <Gold.Chemscore.Hbonds>
donor molecule, donor type, donor heavy atom, donor atom, acceptor molecule, acceptor atom, score
      L1  H     5    48       P1  8028  1.79
      P1  H  6931  6943       L1    15  0.12
      P1  H  7989  7998       L1    10  0.88

> <Gold.PLP.Chemscore.Internal.Correction>
0.0761

> <Gold.Rescore>
     Score         DG    S(hbond)    S(metal)    S(lipo)     H(rot)  DE(clash)    DE(int)     intcor
     17.37     -19.73       1.98        0.00     109.98       2.04       0.78       1.58       ----

> <Gold.Chemscore.Fitness>
17.3676

> <Gold.Chemscore.DG>
-19.7254

> <Gold.Chemscore.ZeroCoef>
-5.4800

> <Gold.Chemscore.Hbond>
1.9782

> <Gold.Chemscore.Metal>
0.0000

> <Gold.Chemscore.Lipo>
109.9801

> <Gold.Chemscore.Internal_Hbond>
0.0000

> <Gold.Chemscore.DEClash>
0.7775

> <Gold.Chemscore.DEInternal>
1.5804

> <Gold.Chemscore.Rot>
2.0427

> <Gold.Chemscore.Internal.Correction>
   9.000000E+99

> <Gold.Chemscore.Hbonds>
donor molecule, donor type, donor heavy atom, donor atom, acceptor molecule, acceptor atom, score
      L1  H     5    48       P1  8028  0.87
      P1  H  6931  6943       L1    15  0.11
      P1  H  7989  7998       L1    10  0.10

> <Gold.Chemscore.Hbond.Weighted>
-6.6072

> <Gold.Chemscore.Metal.Weighted>
-0.0000

> <Gold.Chemscore.Lipo.Weighted>
-12.8677

> <Gold.Chemscore.Internal_Hbond.Weighted>
0.0000

> <Gold.Chemscore.DEClash.Weighted>
0.7775

> <Gold.Chemscore.DEInternal.Weighted>
1.5804

> <Gold.Chemscore.Rot.Weighted>
5.2294

> <Gold.Chemscore.Internal.Correction.Weighted>
   9.000000E+99

> <Gold.Protein.RotatedTorsions>
[ 6907 6896 6895 6894 ] final  174.28 input  -60.11 | X-H torsion
[ 7974 7965 7964 7962 ] final   92.61 input  175.53 | X-H torsion
[ 8008 7997 7996 7995 ] final  115.11 input   59.86 | X-H torsion
[ 10167 10162 10161 10158 ] final  -58.25 input  -65.29 | X-H torsion
[ 10718 10713 10712 10709 ] final -156.98 input   66.30 | X-H torsion
[ 10763 10752 10751 10750 ] final  -38.01 input  -60.55 | X-H torsion
[ 11005 11000 10999 10996 ] final -101.70 input  -57.11 | X-H torsion

> <Gold.Protein.ActiveResidues>
 VAL166  LYS551  ARG553  GLY616  TRP617  ASP618  TYR619  PRO620  LYS621  CYS622 
 ASP623  PHE694  ASN695  SER759  ASP760  ASP761  ALA762  ILE779  LEU786  VAL792 
 PHE793  MET794  SER795  GLU796  ALA797  LYS798  CYS799  TRP800  GLU811  SER814 

> <Gold.Protein.RotatedAtoms>
  151.7548  133.3329  159.3401 H   0  0  0  0  0  0  0  0  0  0  0  0  # atno 6907 bound_to 6896
  150.7521  134.6159  159.6120 H   0  0  0  0  0  0  0  0  0  0  0  0  # atno 6908 bound_to 6896
  152.3444  134.7093  160.0306 H   0  0  0  0  0  0  0  0  0  0  0  0  # atno 6909 bound_to 6896
  145.4900  139.2276  143.2835 H   0  0  0  0  0  0  0  0  0  0  0  0  # atno 7974 bound_to 7965
  156.2362  140.2945  156.0318 H   0  0  0  0  0  0  0  0  0  0  0  0  # atno 8008 bound_to 7997
  155.2086  140.0412  157.2947 H   0  0  0  0  0  0  0  0  0  0  0  0  # atno 8009 bound_to 7997
  154.6082  140.2445  155.7710 H   0  0  0  0  0  0  0  0  0  0  0  0  # atno 8010 bound_to 7997
  140.6209  143.2419  151.5483 H   0  0  0  0  0  0  0  0  0  0  0  0  # atno 10167 bound_to 10162
  156.5340  130.8533  151.2726 H   0  0  0  0  0  0  0  0  0  0  0  0  # atno 10718 bound_to 10713
  153.9058  135.6797  153.4753 H   0  0  0  0  0  0  0  0  0  0  0  0  # atno 10763 bound_to 10752
  153.1105  135.4785  154.9024 H   0  0  0  0  0  0  0  0  0  0  0  0  # atno 10764 bound_to 10752
  154.7552  135.3195  154.8438 H   0  0  0  0  0  0  0  0  0  0  0  0  # atno 10765 bound_to 10752
  141.1220  133.8499  157.1265 H   0  0  0  0  0  0  0  0  0  0  0  0  # atno 11005 bound_to 11000
  146.2289  140.5694  142.8984 LP  0  0  0  0  0  0  0  0  0  0  0  0  # atno 17320 bound_to 7965
  144.7839  140.5897  143.6587 LP  0  0  0  0  0  0  0  0  0  0  0  0  # atno 17321 bound_to 7965
  139.5438  144.2576  152.1402 LP  0  0  0  0  0  0  0  0  0  0  0  0  # atno 17342 bound_to 10162
  140.1796  144.4857  150.6535 LP  0  0  0  0  0  0  0  0  0  0  0  0  # atno 17343 bound_to 10162
  157.7417  130.9875  150.2463 LP  0  0  0  0  0  0  0  0  0  0  0  0  # atno 17370 bound_to 10713
  156.3033  130.3761  149.7729 LP  0  0  0  0  0  0  0  0  0  0  0  0  # atno 17371 bound_to 10713
  140.0185  134.9956  157.0543 LP  0  0  0  0  0  0  0  0  0  0  0  0  # atno 17394 bound_to 11000
  140.4479  134.1613  155.7179 LP  0  0  0  0  0  0  0  0  0  0  0  0  # atno 17395 bound_to 11000

$$$$
