AV-unprocessed.smi:930|AV-procd|sdf|4197|dock4
  -GOLD-   22720 2103D 1   1.00000     0.00000
 Structure written by MMmdl.
 31 32  0  0  0  0  0  0  0  0  2 V2000
  150.1618  135.5195  154.9556 C   0  0  0  0  0  0  0  0  0  0  0  0
  151.0348  136.6175  155.4581 C   0  0  0  0  0  0  0  0  0  0  0  0
  152.2758  136.4070  155.9029 N   0  0  0  0  0  0  0  0  0  0  0  0
  152.8901  137.5815  156.3135 N   0  0  0  0  0  0  0  0  0  0  0  0
  152.1111  138.6623  156.1651 C   0  0  0  0  0  0  0  0  0  0  0  0
  152.5192  139.8958  156.5065 N   0  5  0  0  0  0  0  0  0  0  0  0
  151.9733  140.5162  157.5775 C   0  0  0  0  0  0  0  0  0  0  0  0
  151.4579  139.9676  158.5543 O   0  0  0  0  0  0  0  0  0  0  0  0
  152.0291  141.8545  157.5122 N   0  0  0  0  0  0  0  0  0  0  0  0
  151.5303  142.7878  158.5193 C   0  0  0  0  0  0  0  0  0  0  0  0
  151.6430  144.2427  158.0180 C   0  0  0  0  0  0  0  0  0  0  0  0
  151.1945  145.2442  159.0946 C   0  0  0  0  0  0  0  0  0  0  0  0
  151.9799  145.0495  160.4011 C   0  0  0  0  0  0  0  0  0  0  0  0
  151.8653  143.6027  160.9058 C   0  0  0  0  0  0  0  0  0  0  0  0
  152.3161  142.6003  159.8308 C   0  0  0  0  0  0  0  0  0  0  0  0
  150.5156  138.2935  155.5101 S   0  0  0  0  0  0  0  0  0  0  0  0
  150.4353  135.2658  153.9313 H   0  0  0  0  0  0  0  0  0  0  0  0
  149.1168  135.8290  154.9731 H   0  0  0  0  0  0  0  0  0  0  0  0
  150.2725  134.6325  155.5798 H   0  0  0  0  0  0  0  0  0  0  0  0
  152.4561  142.2579  156.6912 H   0  0  0  0  0  0  0  0  0  0  0  0
  150.4810  142.5647  158.7217 H   0  0  0  0  0  0  0  0  0  0  0  0
  152.6742  144.4556  157.7324 H   0  0  0  0  0  0  0  0  0  0  0  0
  151.0404  144.3802  157.1194 H   0  0  0  0  0  0  0  0  0  0  0  0
  151.3248  146.2637  158.7307 H   0  0  0  0  0  0  0  0  0  0  0  0
  150.1284  145.1181  159.2868 H   0  0  0  0  0  0  0  0  0  0  0  0
  153.0293  145.2977  160.2370 H   0  0  0  0  0  0  0  0  0  0  0  0
  151.6138  145.7395  161.1617 H   0  0  0  0  0  0  0  0  0  0  0  0
  152.4642  143.4747  161.8078 H   0  0  0  0  0  0  0  0  0  0  0  0
  150.8324  143.3951  161.1880 H   0  0  0  0  0  0  0  0  0  0  0  0
  152.1868  141.5827  160.2013 H   0  0  0  0  0  0  0  0  0  0  0  0
  153.3834  142.7277  159.6439 H   0  0  0  0  0  0  0  0  0  0  0  0
  1  2  1  0  0  0  0
  1 17  1  0  0  0  0
  1 18  1  0  0  0  0
  1 19  1  0  0  0  0
  2 16  1  0  0  0  0
  2  3  2  0  0  0  0
  3  4  1  0  0  0  0
  4  5  2  0  0  0  0
  5  6  1  0  0  0  0
  5 16  1  0  0  0  0
  6  7  1  0  0  0  0
  7  8  2  0  0  0  0
  7  9  1  0  0  0  0
  9 10  1  0  0  0  0
  9 20  1  0  0  0  0
 10 15  1  0  0  0  0
 10 11  1  0  0  0  0
 10 21  1  0  0  0  0
 11 12  1  0  0  0  0
 11 22  1  0  0  0  0
 11 23  1  0  0  0  0
 12 13  1  0  0  0  0
 12 24  1  0  0  0  0
 12 25  1  0  0  0  0
 13 14  1  0  0  0  0
 13 26  1  0  0  0  0
 13 27  1  0  0  0  0
 14 15  1  0  0  0  0
 14 28  1  0  0  0  0
 14 29  1  0  0  0  0
 15 30  1  0  0  0  0
 15 31  1  0  0  0  0
M  CHG  1   6  -1
M  END
> <s_m_source_file>
AV-unprocessed.smi

> <i_m_source_file_index>
930

> <i_lp_mmshare_version>
43012

> <i_f3d_flags>
0

> <s_epik_input>
W0NIM11jMW5uYyhzMSlbTkhdQyg9TylbTkhdW0NIXTJbQ0gyXVtDSDJdW0NIMl1bQ0gyXVtDSDJdMg==

> <s_epik_cmdline>
J2VwaWtfcHl0aG9uJywgJy1waCcsICc3LjAnLCAnLXRuJywgJzgnLCAnLW1hJywgJzIwMCcsICctbWV0YWxfYmluZGluZycsICctaW1hZScsICc8aW5maWxlLm1hZT4nLCAnLW9tYWUnLCAnPG91dGZpbGUubWFlPic=

> <r_lp_tautomer_probability>
1

> <r_epik_Ionization_Penalty>
4.57239

> <r_epik_Ionization_Penalty_Charging>
4.41779

> <r_epik_Ionization_Penalty_Neutral>
0.154599

> <r_epik_State_Penalty>
4.41745

> <r_epik_Charging_Adjusted_Penalty>
8.83524

> <i_epik_Tot_Q>
-1

> <i_epik_Tot_abs_Q>
1

> <r_epik_Metal_State_Penalty>
0.779681

> <b_epik_Metal_Only>
1

> <s_lp_Force_Field>
OPLS_2005

> <r_lp_Energy>
6.76033

> <b_lp_Chiralities_Consistent>
1

> <s_lp_Variant>
AV-unprocessed.smi:930-2

> <Gold.Version>
5.8.1

> <Gold.Id.Protein>
6NUR|6NUR_protein|mol2

> <Gold.PLP.Fitness>
37.6297

> <Gold.PLP.PLP>
-30.2673

> <Gold.PLP.part.hbond>
-2.3552

> <Gold.PLP.part.metal>
0.0000

> <Gold.PLP.part.buried>
-1.9678

> <Gold.PLP.part.nonpolar>
-26.2866

> <Gold.PLP.part.repulsive>
0.1083

> <Gold.PLP.ligand.clash>
0.0000

> <Gold.PLP.ligand.torsion>
0.8218

> <Gold.PLP.Chemscore.Hbond>
3.0000

> <Gold.PLP.Chemscore.CHOScore>
0.0000

> <Gold.PLP.Chemscore.Metal>
0.0000

> <Gold.Chemscore.Hbonds>
donor molecule, donor type, donor heavy atom, donor atom, acceptor molecule, acceptor atom, score
      P1  H  7997  8010       L1     6  2.00
      P1  H 10752 10763       L1     3  1.00

> <Gold.PLP.Chemscore.Internal.Correction>
0.0061

> <Gold.Rescore>
     Score         DG    S(hbond)    S(metal)    S(lipo)     H(rot)  DE(clash)    DE(int)     intcor
     16.71     -18.04       1.57        0.00      84.36       1.00       0.43       0.90       ----

> <Gold.Chemscore.Fitness>
16.7111

> <Gold.Chemscore.DG>
-18.0399

> <Gold.Chemscore.ZeroCoef>
-5.4800

> <Gold.Chemscore.Hbond>
1.5718

> <Gold.Chemscore.Metal>
0.0000

> <Gold.Chemscore.Lipo>
84.3606

> <Gold.Chemscore.Internal_Hbond>
0.0000

> <Gold.Chemscore.DEClash>
0.4253

> <Gold.Chemscore.DEInternal>
0.9036

> <Gold.Chemscore.Rot>
1.0000

> <Gold.Chemscore.Internal.Correction>
   9.000000E+99

> <Gold.Chemscore.Hbonds>
donor molecule, donor type, donor heavy atom, donor atom, acceptor molecule, acceptor atom, score
      P1  H  7997  8010       L1     6  0.57
      P1  H 10752 10763       L1     3  0.78

> <Gold.Chemscore.Hbond.Weighted>
-5.2498

> <Gold.Chemscore.Metal.Weighted>
-0.0000

> <Gold.Chemscore.Lipo.Weighted>
-9.8702

> <Gold.Chemscore.Internal_Hbond.Weighted>
0.0000

> <Gold.Chemscore.DEClash.Weighted>
0.4253

> <Gold.Chemscore.DEInternal.Weighted>
0.9036

> <Gold.Chemscore.Rot.Weighted>
2.5600

> <Gold.Chemscore.Internal.Correction.Weighted>
   9.000000E+99

> <Gold.Protein.RotatedTorsions>
[ 6907 6896 6895 6894 ] final   76.69 input  -60.11 | X-H torsion
[ 7974 7965 7964 7962 ] final  -44.04 input  175.53 | X-H torsion
[ 8008 7997 7996 7995 ] final   62.07 input   59.86 | X-H torsion
[ 10167 10162 10161 10158 ] final -169.65 input  -65.29 | X-H torsion
[ 10718 10713 10712 10709 ] final  152.66 input   66.30 | X-H torsion
[ 10763 10752 10751 10750 ] final   98.13 input  -60.55 | X-H torsion
[ 11005 11000 10999 10996 ] final -160.05 input  -57.11 | X-H torsion

> <Gold.Protein.ActiveResidues>
 VAL166  LYS551  ARG553  GLY616  TRP617  ASP618  TYR619  PRO620  LYS621  CYS622 
 ASP623  PHE694  ASN695  SER759  ASP760  ASP761  ALA762  ILE779  LEU786  VAL792 
 PHE793  MET794  SER795  GLU796  ALA797  LYS798  CYS799  TRP800  GLU811  SER814 

> <Gold.Protein.RotatedAtoms>
  152.5084  134.3931  159.9390 H   0  0  0  0  0  0  0  0  0  0  0  0  # atno 6907 bound_to 6896
  151.3892  133.3788  159.2726 H   0  0  0  0  0  0  0  0  0  0  0  0  # atno 6908 bound_to 6896
  150.9445  134.8872  159.7692 H   0  0  0  0  0  0  0  0  0  0  0  0  # atno 6909 bound_to 6896
  145.9959  140.7129  142.9294 H   0  0  0  0  0  0  0  0  0  0  0  0  # atno 7974 bound_to 7965
  155.6085  140.3494  155.4615 H   0  0  0  0  0  0  0  0  0  0  0  0  # atno 8008 bound_to 7997
  156.0173  140.1246  157.0418 H   0  0  0  0  0  0  0  0  0  0  0  0  # atno 8009 bound_to 7997
  154.4302  140.1069  156.5900 H   0  0  0  0  0  0  0  0  0  0  0  0  # atno 8010 bound_to 7997
  139.5910  144.1214  152.1634 H   0  0  0  0  0  0  0  0  0  0  0  0  # atno 10167 bound_to 10162
  157.2549  131.0786  151.1705 H   0  0  0  0  0  0  0  0  0  0  0  0  # atno 10718 bound_to 10713
  153.2853  135.4159  155.1116 H   0  0  0  0  0  0  0  0  0  0  0  0  # atno 10763 bound_to 10752
  154.8503  135.3505  154.6056 H   0  0  0  0  0  0  0  0  0  0  0  0  # atno 10764 bound_to 10752
  153.6477  135.7054  153.5277 H   0  0  0  0  0  0  0  0  0  0  0  0  # atno 10765 bound_to 10752
  140.6358  134.4603  157.5231 H   0  0  0  0  0  0  0  0  0  0  0  0  # atno 11005 bound_to 11000
  144.6903  140.3150  143.7242 LP  0  0  0  0  0  0  0  0  0  0  0  0  # atno 17320 bound_to 7965
  145.7560  139.1809  143.2294 LP  0  0  0  0  0  0  0  0  0  0  0  0  # atno 17321 bound_to 7965
  140.0788  144.5718  150.7137 LP  0  0  0  0  0  0  0  0  0  0  0  0  # atno 17342 bound_to 10162
  140.7173  143.2556  151.4394 LP  0  0  0  0  0  0  0  0  0  0  0  0  # atno 17343 bound_to 10162
  157.3238  130.6950  149.6284 LP  0  0  0  0  0  0  0  0  0  0  0  0  # atno 17370 bound_to 10713
  155.9665  130.4327  150.4977 LP  0  0  0  0  0  0  0  0  0  0  0  0  # atno 17371 bound_to 10713
  139.9098  134.8368  156.1568 LP  0  0  0  0  0  0  0  0  0  0  0  0  # atno 17394 bound_to 11000
  141.0642  133.6827  156.2012 LP  0  0  0  0  0  0  0  0  0  0  0  0  # atno 17395 bound_to 11000

$$$$
