AV-unprocessed.smi:500|AV-procd|sdf|2740|dock2
  -GOLD-   2262023193D 1   1.00000     0.00000
 Structure written by MMmdl.
 45 47  0  0  0  0  0  0  0  0  3 V2000
  154.9058  140.6904  160.5501 C   0  0  0  0  0  0  0  0  0  0  0  0
  153.9110  139.6547  160.0217 C   0  0  0  0  0  0  0  0  0  0  0  0
  153.6267  139.9476  158.6618 O   0  0  0  0  0  0  0  0  0  0  0  0
  152.5591  139.1895  158.1105 C   0  0  0  0  0  0  0  0  0  0  0  0
  151.1875  139.7178  158.5643 C   0  0  0  0  0  0  0  0  0  0  0  0
  150.9364  141.0806  158.0569 N   0  0  0  0  0  0  0  0  0  0  0  0
  150.1727  141.5422  157.0142 C   0  0  0  0  0  0  0  0  0  0  0  0
  149.3391  140.7513  156.0372 C   0  0  2  0  0  0  0  0  0  0  0  0
  150.0584  140.6607  154.6848 C   0  0  0  0  0  0  0  0  0  0  0  0
  148.0149  141.3436  155.8376 N   0  5  0  0  0  0  0  0  0  0  0  0
  147.3751  141.3970  154.6345 C   0  0  0  0  0  0  0  0  0  0  0  0
  147.5149  140.6808  153.6369 O   0  0  0  0  0  0  0  0  0  0  0  0
  146.3698  142.4844  154.5784 C   0  0  0  0  0  0  0  0  0  0  0  0
  145.9070  143.2011  153.5066 C   0  0  0  0  0  0  0  0  0  0  0  0
  144.9474  144.1225  154.0103 C   0  0  0  0  0  0  0  0  0  0  0  0
  144.8884  143.9045  155.3564 C   0  0  0  0  0  0  0  0  0  0  0  0
  145.7456  142.9126  155.7191 O   0  0  0  0  0  0  0  0  0  0  0  0
  150.3058  142.9002  156.9983 N   0  3  0  0  0  0  0  0  0  0  0  0
  151.1315  143.3160  158.0404 C   0  0  0  0  0  0  0  0  0  0  0  0
  151.5401  144.5887  158.4255 C   0  0  0  0  0  0  0  0  0  0  0  0
  152.3880  144.6673  159.5495 C   0  0  0  0  0  0  0  0  0  0  0  0
  152.7954  143.5094  160.2433 C   0  0  0  0  0  0  0  0  0  0  0  0
  152.3740  142.2245  159.8420 C   0  0  0  0  0  0  0  0  0  0  0  0
  151.5375  142.1547  158.7273 C   0  0  0  0  0  0  0  0  0  0  0  0
  155.1496  140.4986  161.5952 H   0  0  0  0  0  0  0  0  0  0  0  0
  154.4951  141.6981  160.4816 H   0  0  0  0  0  0  0  0  0  0  0  0
  155.8348  140.6673  159.9799 H   0  0  0  0  0  0  0  0  0  0  0  0
  154.3377  138.6548  160.1120 H   0  0  0  0  0  0  0  0  0  0  0  0
  153.0026  139.6822  160.6231 H   0  0  0  0  0  0  0  0  0  0  0  0
  152.6286  139.2737  157.0254 H   0  0  0  0  0  0  0  0  0  0  0  0
  152.6749  138.1300  158.3443 H   0  0  0  0  0  0  0  0  0  0  0  0
  150.3732  139.0712  158.2393 H   0  0  0  0  0  0  0  0  0  0  0  0
  151.1327  139.7373  159.6527 H   0  0  0  0  0  0  0  0  0  0  0  0
  149.2529  139.7360  156.4268 H   0  0  0  0  0  0  0  0  0  0  0  0
  151.0363  140.1914  154.7953 H   0  0  0  0  0  0  0  0  0  0  0  0
  150.2112  141.6475  154.2456 H   0  0  0  0  0  0  0  0  0  0  0  0
  149.4875  140.0634  153.9731 H   0  0  0  0  0  0  0  0  0  0  0  0
  146.2233  143.0765  152.4813 H   0  0  0  0  0  0  0  0  0  0  0  0
  144.3736  144.8517  153.4577 H   0  0  0  0  0  0  0  0  0  0  0  0
  144.3213  144.3425  156.1643 H   0  0  0  0  0  0  0  0  0  0  0  0
  151.2245  145.4755  157.8960 H   0  0  0  0  0  0  0  0  0  0  0  0
  152.7304  145.6348  159.8871 H   0  0  0  0  0  0  0  0  0  0  0  0
  153.4437  143.6082  161.1017 H   0  0  0  0  0  0  0  0  0  0  0  0
  152.6889  141.3454  160.3842 H   0  0  0  0  0  0  0  0  0  0  0  0
  149.8364  143.4905  156.3235 H   0  0  0  0  0  0  0  0  0  0  0  0
  1  2  1  0  0  0  0
  1 25  1  0  0  0  0
  1 26  1  0  0  0  0
  1 27  1  0  0  0  0
  2  3  1  0  0  0  0
  2 28  1  0  0  0  0
  2 29  1  0  0  0  0
  3  4  1  0  0  0  0
  4  5  1  0  0  0  0
  4 30  1  0  0  0  0
  4 31  1  0  0  0  0
  5  6  1  0  0  0  0
  5 32  1  0  0  0  0
  5 33  1  0  0  0  0
  6 24  1  0  0  0  0
  6  7  1  0  0  0  0
  7  8  1  0  0  0  0
  7 18  2  0  0  0  0
  8  9  1  0  0  0  0
  8 10  1  0  0  0  0
  8 34  1  0  0  0  0
  9 35  1  0  0  0  0
  9 36  1  0  0  0  0
  9 37  1  0  0  0  0
 10 11  1  0  0  0  0
 11 12  2  0  0  0  0
 11 13  1  0  0  0  0
 13 17  1  0  0  0  0
 13 14  2  0  0  0  0
 14 15  1  0  0  0  0
 14 38  1  0  0  0  0
 15 16  2  0  0  0  0
 15 39  1  0  0  0  0
 16 17  1  0  0  0  0
 16 40  1  0  0  0  0
 18 19  1  0  0  0  0
 18 45  1  0  0  0  0
 19 24  2  0  0  0  0
 19 20  1  0  0  0  0
 20 21  2  0  0  0  0
 20 41  1  0  0  0  0
 21 22  1  0  0  0  0
 21 42  1  0  0  0  0
 22 23  2  0  0  0  0
 22 43  1  0  0  0  0
 23 24  1  0  0  0  0
 23 44  1  0  0  0  0
M  CHG  1  10  -1
M  CHG  1  18   1
M  END
> <s_m_source_file>
AV-unprocessed.smi

> <i_m_source_file_index>
500

> <i_lp_mmshare_version>
43012

> <i_f3d_flags>
0

> <s_epik_input>
W0NIM11bQ0gyXU9bQ0gyXVtDSDJdbihjKGMxMilbY0hdW2NIXVtjSF1bY0hdMiljKG4xKVtDQEhdKFtDSDNdKVtOSF1DKD1PKWMzW2NIXVtjSF1bY0hdbzM=

> <s_epik_cmdline>
J2VwaWtfcHl0aG9uJywgJy1waCcsICc3LjAnLCAnLXRuJywgJzgnLCAnLW1hJywgJzIwMCcsICctbWV0YWxfYmluZGluZycsICctaW1hZScsICc8aW5maWxlLm1hZT4nLCAnLW9tYWUnLCAnPG91dGZpbGUubWFlPic=

> <r_epik_Ionization_Penalty>
6.22753

> <r_epik_Ionization_Penalty_Charging>
6.22753

> <r_epik_Ionization_Penalty_Neutral>
2.56065e-12

> <r_epik_State_Penalty>
7.17947

> <r_epik_Charging_Adjusted_Penalty>
13.407

> <i_epik_Tot_Q>
0

> <i_epik_Tot_abs_Q>
2

> <r_epik_Metal_State_Penalty>
3.2092

> <b_epik_Metal_Only>
1

> <s_lp_Force_Field>
OPLS_2005

> <r_lp_Energy>
11.6209

> <b_lp_Chiralities_Consistent>
1

> <s_lp_Variant>
AV-unprocessed.smi:500-7

> <Gold.Version>
5.8.1

> <Gold.Id.Protein>
6NUR|6NUR_protein|mol2

> <Gold.PLP.Fitness>
55.4852

> <Gold.PLP.PLP>
-48.9742

> <Gold.PLP.part.hbond>
-2.0000

> <Gold.PLP.part.metal>
0.0000

> <Gold.PLP.part.buried>
-5.8090

> <Gold.PLP.part.nonpolar>
-41.4290

> <Gold.PLP.part.repulsive>
0.4234

> <Gold.PLP.ligand.clash>
0.0082

> <Gold.PLP.ligand.torsion>
1.4824

> <Gold.PLP.Chemscore.Hbond>
3.0000

> <Gold.PLP.Chemscore.CHOScore>
0.0000

> <Gold.PLP.Chemscore.Metal>
0.0000

> <Gold.Chemscore.Hbonds>
donor molecule, donor type, donor heavy atom, donor atom, acceptor molecule, acceptor atom, score
      L1  H    18    45       P1  8028  2.00
      P1  H  7997  8010       L1     3  1.00

> <Gold.PLP.Chemscore.Internal.Correction>
0.4841

> <Gold.Rescore>
     Score         DG    S(hbond)    S(metal)    S(lipo)     H(rot)  DE(clash)    DE(int)     intcor
     18.91     -21.95       1.95        0.00     126.66       1.90       0.08       2.96       ----

> <Gold.Chemscore.Fitness>
18.9083

> <Gold.Chemscore.DG>
-21.9466

> <Gold.Chemscore.ZeroCoef>
-5.4800

> <Gold.Chemscore.Hbond>
1.9490

> <Gold.Chemscore.Metal>
0.0000

> <Gold.Chemscore.Lipo>
126.6587

> <Gold.Chemscore.Internal_Hbond>
0.0000

> <Gold.Chemscore.DEClash>
0.0792

> <Gold.Chemscore.DEInternal>
2.9591

> <Gold.Chemscore.Rot>
1.8993

> <Gold.Chemscore.Internal.Correction>
   9.000000E+99

> <Gold.Chemscore.Hbonds>
donor molecule, donor type, donor heavy atom, donor atom, acceptor molecule, acceptor atom, score
      L1  H    18    45       P1  8028  1.00
      P1  H  7997  8010       L1     3  0.42

> <Gold.Chemscore.Hbond.Weighted>
-6.5097

> <Gold.Chemscore.Metal.Weighted>
-0.0000

> <Gold.Chemscore.Lipo.Weighted>
-14.8191

> <Gold.Chemscore.Internal_Hbond.Weighted>
0.0000

> <Gold.Chemscore.DEClash.Weighted>
0.0792

> <Gold.Chemscore.DEInternal.Weighted>
2.9591

> <Gold.Chemscore.Rot.Weighted>
4.8622

> <Gold.Chemscore.Internal.Correction.Weighted>
   9.000000E+99

> <Gold.Protein.RotatedTorsions>
[ 6907 6896 6895 6894 ] final  172.52 input  -60.11 | X-H torsion
[ 7974 7965 7964 7962 ] final  -28.14 input  175.53 | X-H torsion
[ 8008 7997 7996 7995 ] final   12.98 input   59.86 | X-H torsion
[ 10167 10162 10161 10158 ] final -173.80 input  -65.29 | X-H torsion
[ 10718 10713 10712 10709 ] final  -78.88 input   66.30 | X-H torsion
[ 10763 10752 10751 10750 ] final  109.28 input  -60.55 | X-H torsion
[ 11005 11000 10999 10996 ] final -164.07 input  -57.11 | X-H torsion

> <Gold.Protein.ActiveResidues>
 VAL166  LYS551  ARG553  GLY616  TRP617  ASP618  TYR619  PRO620  LYS621  CYS622 
 ASP623  PHE694  ASN695  SER759  ASP760  ASP761  ALA762  ILE779  LEU786  VAL792 
 PHE793  MET794  SER795  GLU796  ALA797  LYS798  CYS799  TRP800  GLU811  SER814 

> <Gold.Protein.RotatedAtoms>
  151.7830  133.3351  159.3476 H   0  0  0  0  0  0  0  0  0  0  0  0  # atno 6907 bound_to 6896
  150.7419  134.5913  159.5998 H   0  0  0  0  0  0  0  0  0  0  0  0  # atno 6908 bound_to 6896
  152.3263  134.7318  160.0352 H   0  0  0  0  0  0  0  0  0  0  0  0  # atno 6909 bound_to 6896
  146.1309  140.5244  142.8694 H   0  0  0  0  0  0  0  0  0  0  0  0  # atno 7974 bound_to 7965
  154.8281  140.2895  155.5741 H   0  0  0  0  0  0  0  0  0  0  0  0  # atno 8008 bound_to 7997
  156.3003  140.2537  156.3131 H   0  0  0  0  0  0  0  0  0  0  0  0  # atno 8009 bound_to 7997
  154.9263  140.0384  157.2014 H   0  0  0  0  0  0  0  0  0  0  0  0  # atno 8010 bound_to 7997
  139.5668  144.1735  152.1325 H   0  0  0  0  0  0  0  0  0  0  0  0  # atno 10167 bound_to 10162
  156.0106  130.4530  150.3564 H   0  0  0  0  0  0  0  0  0  0  0  0  # atno 10718 bound_to 10713
  153.4325  135.3785  155.2179 H   0  0  0  0  0  0  0  0  0  0  0  0  # atno 10763 bound_to 10752
  154.8750  135.3843  154.4251 H   0  0  0  0  0  0  0  0  0  0  0  0  # atno 10764 bound_to 10752
  153.4785  135.7088  153.6015 H   0  0  0  0  0  0  0  0  0  0  0  0  # atno 10765 bound_to 10752
  140.5910  134.5045  157.5193 H   0  0  0  0  0  0  0  0  0  0  0  0  # atno 11005 bound_to 11000
  144.7689  140.5594  143.6684 LP  0  0  0  0  0  0  0  0  0  0  0  0  # atno 17320 bound_to 7965
  145.5263  139.1476  143.3524 LP  0  0  0  0  0  0  0  0  0  0  0  0  # atno 17321 bound_to 7965
  140.1260  144.5331  150.6832 LP  0  0  0  0  0  0  0  0  0  0  0  0  # atno 17342 bound_to 10162
  140.6952  143.2399  151.5020 LP  0  0  0  0  0  0  0  0  0  0  0  0  # atno 17343 bound_to 10162
  157.1654  131.0355  151.2821 LP  0  0  0  0  0  0  0  0  0  0  0  0  # atno 17370 bound_to 10713
  157.4275  130.7472  149.6963 LP  0  0  0  0  0  0  0  0  0  0  0  0  # atno 17371 bound_to 10713
  139.9274  134.8029  156.1028 LP  0  0  0  0  0  0  0  0  0  0  0  0  # atno 17394 bound_to 11000
  141.0935  133.6705  156.2593 LP  0  0  0  0  0  0  0  0  0  0  0  0  # atno 17395 bound_to 11000

$$$$
