AV-unprocessed.smi:2660|AV-procd|sdf|10314|dock8
  -GOLD-   2272014333D 1   1.00000     0.00000
 Structure written by MMmdl.
 36 37  0  0  0  0  0  0  0  0  1 V2000
  146.0588  139.0556  152.9753 N   0  0  0  0  0  0  0  0  0  0  0  0
  146.8332  140.0891  153.3287 C   0  0  0  0  0  0  0  0  0  0  0  0
  146.4298  141.2316  153.1108 O   0  0  0  0  0  0  0  0  0  0  0  0
  148.1164  139.7011  153.9583 C   0  0  0  0  0  0  0  0  0  0  0  0
  148.6176  138.4475  153.8824 C   0  0  0  0  0  0  0  0  0  0  0  0
  149.8674  138.1185  154.5098 C   0  0  0  0  0  0  0  0  0  0  0  0
  150.5651  139.0630  155.1678 C   0  0  0  0  0  0  0  0  0  0  0  0
  151.8939  138.7194  155.8531 C   0  0  0  0  0  0  0  0  0  0  0  0
  152.1792  137.4219  155.7321 F   0  0  0  0  0  0  0  0  0  0  0  0
  152.9127  139.3842  155.3118 F   0  0  0  0  0  0  0  0  0  0  0  0
  151.8381  138.9803  157.1597 F   0  0  0  0  0  0  0  0  0  0  0  0
  150.0630  140.4004  155.2363 N   0  0  0  0  0  0  0  0  0  0  0  0
  150.8392  141.4614  155.9262 C   0  0  0  0  0  0  0  0  0  0  0  0
  150.2624  141.8181  157.3251 C   0  0  2  0  0  0  0  0  0  0  0  0
  149.0471  142.5209  157.1649 O   0  0  0  0  0  0  0  0  0  0  0  0
  151.2480  142.6282  158.1557 C   0  0  0  0  0  0  0  0  0  0  0  0
  151.5568  143.9559  157.7889 C   0  0  0  0  0  0  0  0  0  0  0  0
  152.4623  144.7126  158.5573 C   0  0  0  0  0  0  0  0  0  0  0  0
  153.0642  144.1468  159.6975 C   0  0  0  0  0  0  0  0  0  0  0  0
  152.7599  142.8233  160.0691 C   0  0  0  0  0  0  0  0  0  0  0  0
  151.8547  142.0657  159.3006 C   0  0  0  0  0  0  0  0  0  0  0  0
  148.8549  140.7660  154.6850 C   0  0  0  0  0  0  0  0  0  0  0  0
  148.4449  141.9243  154.8048 O   0  0  0  0  0  0  0  0  0  0  0  0
  145.1640  139.2286  152.5408 H   0  0  0  0  0  0  0  0  0  0  0  0
  146.3683  138.1099  153.1448 H   0  0  0  0  0  0  0  0  0  0  0  0
  148.1068  137.6550  153.3560 H   0  0  0  0  0  0  0  0  0  0  0  0
  150.2256  137.1018  154.4482 H   0  0  0  0  0  0  0  0  0  0  0  0
  151.8686  141.1121  156.0307 H   0  0  0  0  0  0  0  0  0  0  0  0
  150.9844  142.3627  155.3386 H   0  0  0  0  0  0  0  0  0  0  0  0
  150.0163  140.9086  157.8751 H   0  0  0  0  0  0  0  0  0  0  0  0
  149.1992  143.2514  156.5847 H   0  0  0  0  0  0  0  0  0  0  0  0
  151.0963  144.4017  156.9194 H   0  0  0  0  0  0  0  0  0  0  0  0
  152.6934  145.7284  158.2724 H   0  0  0  0  0  0  0  0  0  0  0  0
  153.7577  144.7282  160.2870 H   0  0  0  0  0  0  0  0  0  0  0  0
  153.2197  142.3892  160.9447 H   0  0  0  0  0  0  0  0  0  0  0  0
  151.6241  141.0520  159.5940 H   0  0  0  0  0  0  0  0  0  0  0  0
  1  2  1  0  0  0  0
  1 24  1  0  0  0  0
  1 25  1  0  0  0  0
  2  3  2  0  0  0  0
  2  4  1  0  0  0  0
  4 22  1  0  0  0  0
  4  5  2  0  0  0  0
  5  6  1  0  0  0  0
  5 26  1  0  0  0  0
  6  7  2  0  0  0  0
  6 27  1  0  0  0  0
  7  8  1  0  0  0  0
  7 12  1  0  0  0  0
  8  9  1  0  0  0  0
  8 10  1  0  0  0  0
  8 11  1  0  0  0  0
 12 13  1  0  0  0  0
 12 22  1  0  0  0  0
 13 14  1  0  0  0  0
 13 28  1  0  0  0  0
 13 29  1  0  0  0  0
 14 15  1  0  0  0  0
 14 16  1  0  0  0  0
 14 30  1  0  0  0  0
 15 31  1  0  0  0  0
 16 21  1  0  0  0  0
 16 17  2  0  0  0  0
 17 18  1  0  0  0  0
 17 32  1  0  0  0  0
 18 19  2  0  0  0  0
 18 33  1  0  0  0  0
 19 20  1  0  0  0  0
 19 34  1  0  0  0  0
 20 21  2  0  0  0  0
 20 35  1  0  0  0  0
 21 36  1  0  0  0  0
 22 23  2  0  0  0  0
M  END
> <s_m_source_file>
AV-unprocessed.smi

> <i_m_source_file_index>
2660

> <i_lp_mmshare_version>
43012

> <i_f3d_flags>
0

> <s_epik_input>
W05IMl1DKD1PKWMxW2NIXVtjSF1jKEMoRikoRilGKW4oYzE9TylbQ0gyXVtDQEhdKFtPSF0pYzJbY0hdW2NIXVtjSF1bY0hdW2NIXTI=

> <s_epik_cmdline>
J2VwaWtfcHl0aG9uJywgJy1waCcsICc3LjAnLCAnLXRuJywgJzgnLCAnLW1hJywgJzIwMCcsICctbWV0YWxfYmluZGluZycsICctaW1hZScsICc8aW5maWxlLm1hZT4nLCAnLW9tYWUnLCAnPG91dGZpbGUubWFlPic=

> <r_lp_tautomer_probability>
1

> <r_epik_Ionization_Penalty>
1.58596e-06

> <r_epik_Ionization_Penalty_Charging>
5.13453e-09

> <r_epik_Ionization_Penalty_Neutral>
1.58083e-06

> <r_epik_State_Penalty>
-0

> <r_epik_Charging_Adjusted_Penalty>
5.13453e-09

> <i_epik_Tot_Q>
0

> <i_epik_Tot_abs_Q>
0

> <r_epik_Metal_State_Penalty>
-0

> <b_epik_Metal_Only>
0

> <s_lp_Force_Field>
OPLS_2005

> <r_lp_Energy>
35.2508

> <b_lp_Chiralities_Consistent>
1

> <s_lp_Variant>
AV-unprocessed.smi:2660-1

> <Gold.Version>
5.8.1

> <Gold.Id.Protein>
6NUR|6NUR_protein|mol2

> <Gold.PLP.Fitness>
42.4916

> <Gold.PLP.PLP>
-37.9068

> <Gold.PLP.part.hbond>
-2.0000

> <Gold.PLP.part.metal>
0.0000

> <Gold.PLP.part.buried>
4.1245

> <Gold.PLP.part.nonpolar>
-41.3349

> <Gold.PLP.part.repulsive>
2.1218

> <Gold.PLP.ligand.clash>
3.4345

> <Gold.PLP.ligand.torsion>
0.5372

> <Gold.PLP.Chemscore.Hbond>
1.8640

> <Gold.PLP.Chemscore.CHOScore>
0.0000

> <Gold.PLP.Chemscore.Metal>
0.0000

> <Gold.Chemscore.Hbonds>
donor molecule, donor type, donor heavy atom, donor atom, acceptor molecule, acceptor atom, score
      L1  H     1    24       P1 10175  0.88
      L1  H    15    31       P1  8028  1.00

> <Gold.PLP.Chemscore.Internal.Correction>
3.5016

> <Gold.Rescore>
     Score         DG    S(hbond)    S(metal)    S(lipo)     H(rot)  DE(clash)    DE(int)     intcor
     11.17     -18.95       1.86        0.00     110.41       2.21       1.79       5.98       ----

> <Gold.Chemscore.Fitness>
11.1711

> <Gold.Chemscore.DG>
-18.9455

> <Gold.Chemscore.ZeroCoef>
-5.4800

> <Gold.Chemscore.Hbond>
1.8568

> <Gold.Chemscore.Metal>
0.0000

> <Gold.Chemscore.Lipo>
110.4080

> <Gold.Chemscore.Internal_Hbond>
0.0000

> <Gold.Chemscore.DEClash>
1.7932

> <Gold.Chemscore.DEInternal>
5.9811

> <Gold.Chemscore.Rot>
2.2086

> <Gold.Chemscore.Internal.Correction>
   9.000000E+99

> <Gold.Chemscore.Hbonds>
donor molecule, donor type, donor heavy atom, donor atom, acceptor molecule, acceptor atom, score
      L1  H     1    24       P1 10175  0.86
      L1  H    15    31       P1  8028  0.99

> <Gold.Chemscore.Hbond.Weighted>
-6.2017

> <Gold.Chemscore.Metal.Weighted>
-0.0000

> <Gold.Chemscore.Lipo.Weighted>
-12.9177

> <Gold.Chemscore.Internal_Hbond.Weighted>
0.0000

> <Gold.Chemscore.DEClash.Weighted>
1.7932

> <Gold.Chemscore.DEInternal.Weighted>
5.9811

> <Gold.Chemscore.Rot.Weighted>
5.6540

> <Gold.Chemscore.Internal.Correction.Weighted>
   9.000000E+99

> <Gold.Protein.RotatedTorsions>
[ 6907 6896 6895 6894 ] final  -17.72 input  -60.11 | X-H torsion
[ 7974 7965 7964 7962 ] final  108.00 input  175.53 | X-H torsion
[ 8008 7997 7996 7995 ] final   12.61 input   59.86 | X-H torsion
[ 10167 10162 10161 10158 ] final  137.18 input  -65.29 | X-H torsion
[ 10718 10713 10712 10709 ] final -131.12 input   66.30 | X-H torsion
[ 10763 10752 10751 10750 ] final  109.72 input  -60.55 | X-H torsion
[ 11005 11000 10999 10996 ] final  -16.82 input  -57.11 | X-H torsion

> <Gold.Protein.ActiveResidues>
 VAL166  LYS551  ARG553  GLY616  TRP617  ASP618  TYR619  PRO620  LYS621  CYS622 
 ASP623  PHE694  ASN695  SER759  ASP760  ASP761  ALA762  ILE779  LEU786  VAL792 
 PHE793  MET794  SER795  GLU796  ALA797  LYS798  CYS799  TRP800  GLU811  SER814 

> <Gold.Protein.RotatedAtoms>
  151.2890  135.0736  159.9197 H   0  0  0  0  0  0  0  0  0  0  0  0  # atno 6907 bound_to 6896
  152.5320  133.9951  159.7879 H   0  0  0  0  0  0  0  0  0  0  0  0  # atno 6908 bound_to 6896
  151.0218  133.5819  159.2701 H   0  0  0  0  0  0  0  0  0  0  0  0  # atno 6909 bound_to 6896
  145.2863  139.2615  143.3889 H   0  0  0  0  0  0  0  0  0  0  0  0  # atno 7974 bound_to 7965
  154.8230  140.2887  155.5773 H   0  0  0  0  0  0  0  0  0  0  0  0  # atno 8008 bound_to 7997
  156.2999  140.2546  156.3072 H   0  0  0  0  0  0  0  0  0  0  0  0  # atno 8009 bound_to 7997
  154.9317  140.0383  157.2040 H   0  0  0  0  0  0  0  0  0  0  0  0  # atno 8010 bound_to 7997
  139.5153  144.6424  151.5532 H   0  0  0  0  0  0  0  0  0  0  0  0  # atno 10167 bound_to 10162
  156.2212  130.6980  151.0758 H   0  0  0  0  0  0  0  0  0  0  0  0  # atno 10718 bound_to 10713
  153.4387  135.3771  155.2215 H   0  0  0  0  0  0  0  0  0  0  0  0  # atno 10763 bound_to 10752
  154.8753  135.3857  154.4179 H   0  0  0  0  0  0  0  0  0  0  0  0  # atno 10764 bound_to 10752
  153.4721  135.7087  153.6050 H   0  0  0  0  0  0  0  0  0  0  0  0  # atno 10765 bound_to 10752
  140.8106  133.8143  155.9559 H   0  0  0  0  0  0  0  0  0  0  0  0  # atno 11005 bound_to 11000
  146.3200  140.3343  142.8643 LP  0  0  0  0  0  0  0  0  0  0  0  0  # atno 17320 bound_to 7965
  144.9210  140.7868  143.5748 LP  0  0  0  0  0  0  0  0  0  0  0  0  # atno 17321 bound_to 7965
  140.6196  143.9283  150.6515 LP  0  0  0  0  0  0  0  0  0  0  0  0  # atno 17342 bound_to 10162
  140.2553  143.3563  152.1370 LP  0  0  0  0  0  0  0  0  0  0  0  0  # atno 17343 bound_to 10162
  157.7088  131.0744  150.6573 LP  0  0  0  0  0  0  0  0  0  0  0  0  # atno 17370 bound_to 10713
  156.6636  130.4519  149.5679 LP  0  0  0  0  0  0  0  0  0  0  0  0  # atno 17371 bound_to 10713
  140.9201  134.2152  157.4931 LP  0  0  0  0  0  0  0  0  0  0  0  0  # atno 17394 bound_to 11000
  139.8714  134.9788  156.5014 LP  0  0  0  0  0  0  0  0  0  0  0  0  # atno 17395 bound_to 11000

$$$$
