AV-unprocessed.smi:304|AV-procd|sdf|2277|dock5
  -GOLD-   2262022173D 1   1.00000     0.00000
 Structure written by MMmdl.
 36 38  0  0  0  0  0  0  0  0  1 V2000
  148.3977  141.2483  156.9923 O   0  0  0  0  0  0  0  0  0  0  0  0
  149.2773  141.0950  155.8956 C   0  0  1  0  0  0  0  0  0  0  0  0
  148.5508  141.5585  154.6234 C   0  0  0  0  0  0  0  0  0  0  0  0
  147.6264  140.5586  154.2285 O   0  0  0  0  0  0  0  0  0  0  0  0
  148.2227  139.2766  154.1122 C   0  0  0  0  0  0  0  0  0  0  0  0
  147.2409  138.3748  153.4344 C   0  0  0  0  0  0  0  0  0  0  0  0
  146.6359  137.2655  153.9684 C   0  0  0  0  0  0  0  0  0  0  0  0
  145.7301  136.6290  153.0696 C   0  0  0  0  0  0  0  0  0  0  0  0
  145.6473  137.2657  151.8601 C   0  0  0  0  0  0  0  0  0  0  0  0
  146.6830  138.6653  151.8024 S   0  0  0  0  0  0  0  0  0  0  0  0
  150.5552  141.9155  156.1577 C   0  0  0  0  0  0  0  0  0  0  0  0
  151.4891  141.2300  157.0337 N   0  0  0  0  0  0  0  0  0  0  0  0
  152.0982  140.0514  156.8021 C   0  0  0  0  0  0  0  0  0  0  0  0
  152.9248  139.5978  157.7400 N   0  0  0  0  0  0  0  0  0  0  0  0
  152.8427  140.5987  158.6928 C   0  0  0  0  0  0  0  0  0  0  0  0
  153.4845  140.7265  159.9452 C   0  0  0  0  0  0  0  0  0  0  0  0
  153.2437  141.8520  160.7603 C   0  0  0  0  0  0  0  0  0  0  0  0
  153.8673  141.9589  161.9575 F   0  0  0  0  0  0  0  0  0  0  0  0
  152.3579  142.8649  160.3362 C   0  0  0  0  0  0  0  0  0  0  0  0
  152.1316  143.9415  161.1258 F   0  0  0  0  0  0  0  0  0  0  0  0
  151.7071  142.7595  159.0920 C   0  0  0  0  0  0  0  0  0  0  0  0
  151.9515  141.6355  158.2814 C   0  0  0  0  0  0  0  0  0  0  0  0
  148.8774  141.0657  157.7861 H   0  0  0  0  0  0  0  0  0  0  0  0
  149.5453  140.0418  155.8011 H   0  0  0  0  0  0  0  0  0  0  0  0
  148.0580  142.5201  154.7784 H   0  0  0  0  0  0  0  0  0  0  0  0
  149.2725  141.6922  153.8158 H   0  0  0  0  0  0  0  0  0  0  0  0
  149.1442  139.3382  153.5312 H   0  0  0  0  0  0  0  0  0  0  0  0
  148.4722  138.8801  155.0973 H   0  0  0  0  0  0  0  0  0  0  0  0
  146.8117  136.8905  154.9660 H   0  0  0  0  0  0  0  0  0  0  0  0
  145.1773  135.7412  153.3389 H   0  0  0  0  0  0  0  0  0  0  0  0
  145.0424  137.0019  151.0052 H   0  0  0  0  0  0  0  0  0  0  0  0
  151.0666  142.1254  155.2172 H   0  0  0  0  0  0  0  0  0  0  0  0
  150.3062  142.8822  156.5973 H   0  0  0  0  0  0  0  0  0  0  0  0
  151.9240  139.4949  155.8927 H   0  0  0  0  0  0  0  0  0  0  0  0
  154.1636  139.9568  160.2806 H   0  0  0  0  0  0  0  0  0  0  0  0
  151.0264  143.5319  158.7666 H   0  0  0  0  0  0  0  0  0  0  0  0
  1  2  1  0  0  0  0
  1 23  1  0  0  0  0
  2  3  1  0  0  0  0
  2 11  1  0  0  0  0
  2 24  1  0  0  0  0
  3  4  1  0  0  0  0
  3 25  1  0  0  0  0
  3 26  1  0  0  0  0
  4  5  1  0  0  0  0
  5  6  1  0  0  0  0
  5 27  1  0  0  0  0
  5 28  1  0  0  0  0
  6 10  1  0  0  0  0
  6  7  2  0  0  0  0
  7  8  1  0  0  0  0
  7 29  1  0  0  0  0
  8  9  2  0  0  0  0
  8 30  1  0  0  0  0
  9 10  1  0  0  0  0
  9 31  1  0  0  0  0
 11 12  1  0  0  0  0
 11 32  1  0  0  0  0
 11 33  1  0  0  0  0
 12 22  1  0  0  0  0
 12 13  1  0  0  0  0
 13 14  2  0  0  0  0
 13 34  1  0  0  0  0
 14 15  1  0  0  0  0
 15 22  2  0  0  0  0
 15 16  1  0  0  0  0
 16 17  2  0  0  0  0
 16 35  1  0  0  0  0
 17 18  1  0  0  0  0
 17 19  1  0  0  0  0
 19 20  1  0  0  0  0
 19 21  2  0  0  0  0
 21 22  1  0  0  0  0
 21 36  1  0  0  0  0
M  END
> <s_m_source_file>
AV-unprocessed.smi

> <i_m_source_file_index>
304

> <i_lp_mmshare_version>
43012

> <i_f3d_flags>
0

> <s_epik_input>
W2NIXTFjKEYpYyhGKVtjSF1jKGMxMiluKFtjSF1uMilbQ0gyXVtDQEhdKFtPSF0pW0NIMl1PW0NIMl1jM1tjSF1bY0hdW2NIXXMz

> <s_epik_cmdline>
J2VwaWtfcHl0aG9uJywgJy1waCcsICc3LjAnLCAnLXRuJywgJzgnLCAnLW1hJywgJzIwMCcsICctbWV0YWxfYmluZGluZycsICctaW1hZScsICc8aW5maWxlLm1hZT4nLCAnLW9tYWUnLCAnPG91dGZpbGUubWFlPic=

> <r_epik_Ionization_Penalty>
0.0152118

> <r_epik_Ionization_Penalty_Charging>
0

> <r_epik_Ionization_Penalty_Neutral>
0.0152118

> <r_epik_State_Penalty>
0.0119413

> <r_epik_Charging_Adjusted_Penalty>
0.0119413

> <i_epik_Tot_Q>
0

> <i_epik_Tot_abs_Q>
0

> <r_epik_Metal_State_Penalty>
1.20623e-05

> <b_epik_Metal_Only>
0

> <s_lp_Force_Field>
OPLS_2005

> <r_lp_Energy>
8.44111

> <b_lp_Chiralities_Consistent>
1

> <s_lp_Variant>
AV-unprocessed.smi:304-2

> <Gold.Version>
5.8.1

> <Gold.Id.Protein>
6NUR|6NUR_protein|mol2

> <Gold.PLP.Fitness>
48.2123

> <Gold.PLP.PLP>
-43.3774

> <Gold.PLP.part.hbond>
-1.0000

> <Gold.PLP.part.metal>
0.0000

> <Gold.PLP.part.buried>
-1.2590

> <Gold.PLP.part.nonpolar>
-41.8038

> <Gold.PLP.part.repulsive>
0.1318

> <Gold.PLP.ligand.clash>
0.0000

> <Gold.PLP.ligand.torsion>
0.3835

> <Gold.PLP.Chemscore.Hbond>
1.0000

> <Gold.PLP.Chemscore.CHOScore>
0.8121

> <Gold.PLP.Chemscore.Metal>
0.0000

> <Gold.Chemscore.Hbonds>
donor molecule, donor type, donor heavy atom, donor atom, acceptor molecule, acceptor atom, score
      P1  H  7997  8010       L1    14  0.80
      L1  C     9    31       P1 10171  0.84

> <Gold.PLP.Chemscore.Internal.Correction>
0.1656

> <Gold.Rescore>
     Score         DG    S(hbond)    S(metal)    S(lipo)     H(rot)  DE(clash)    DE(int)     intcor
     11.76     -12.79       0.51        0.00     105.82       2.64       0.57       0.46       ----

> <Gold.Chemscore.Fitness>
11.7616

> <Gold.Chemscore.DG>
-12.7935

> <Gold.Chemscore.ZeroCoef>
-5.4800

> <Gold.Chemscore.Hbond>
0.5064

> <Gold.Chemscore.Metal>
0.0000

> <Gold.Chemscore.Lipo>
105.8221

> <Gold.Chemscore.Internal_Hbond>
0.0000

> <Gold.Chemscore.DEClash>
0.5742

> <Gold.Chemscore.DEInternal>
0.4577

> <Gold.Chemscore.Rot>
2.6403

> <Gold.Chemscore.Internal.Correction>
   9.000000E+99

> <Gold.Chemscore.Hbonds>
donor molecule, donor type, donor heavy atom, donor atom, acceptor molecule, acceptor atom, score
      P1  H  7997  8010       L1    14  0.04

> <Gold.Chemscore.Hbond.Weighted>
-1.6914

> <Gold.Chemscore.Metal.Weighted>
-0.0000

> <Gold.Chemscore.Lipo.Weighted>
-12.3812

> <Gold.Chemscore.Internal_Hbond.Weighted>
0.0000

> <Gold.Chemscore.DEClash.Weighted>
0.5742

> <Gold.Chemscore.DEInternal.Weighted>
0.4577

> <Gold.Chemscore.Rot.Weighted>
6.7592

> <Gold.Chemscore.Internal.Correction.Weighted>
   9.000000E+99

> <Gold.Protein.RotatedTorsions>
[ 6907 6896 6895 6894 ] final   51.18 input  -60.11 | X-H torsion
[ 7974 7965 7964 7962 ] final   32.33 input  175.53 | X-H torsion
[ 8008 7997 7996 7995 ] final   44.97 input   59.86 | X-H torsion
[ 10167 10162 10161 10158 ] final -116.42 input  -65.29 | X-H torsion
[ 10718 10713 10712 10709 ] final  -65.47 input   66.30 | X-H torsion
[ 10763 10752 10751 10750 ] final   70.11 input  -60.55 | X-H torsion
[ 11005 11000 10999 10996 ] final   34.69 input  -57.11 | X-H torsion

> <Gold.Protein.ActiveResidues>
 VAL166  LYS551  ARG553  GLY616  TRP617  ASP618  TYR619  PRO620  LYS621  CYS622 
 ASP623  PHE694  ASN695  SER759  ASP760  ASP761  ALA762  ILE779  LEU786  VAL792 
 PHE793  MET794  SER795  GLU796  ALA797  LYS798  CYS799  TRP800  GLU811  SER814 

> <Gold.Protein.RotatedAtoms>
  152.3099  134.7510  160.0338 H   0  0  0  0  0  0  0  0  0  0  0  0  # atno 6907 bound_to 6896
  151.7994  133.3363  159.3530 H   0  0  0  0  0  0  0  0  0  0  0  0  # atno 6908 bound_to 6896
  150.7315  134.5698  159.5929 H   0  0  0  0  0  0  0  0  0  0  0  0  # atno 6909 bound_to 6896
  146.1493  139.6540  142.9110 H   0  0  0  0  0  0  0  0  0  0  0  0  # atno 7974 bound_to 7965
  155.3281  140.3401  155.4240 H   0  0  0  0  0  0  0  0  0  0  0  0  # atno 8008 bound_to 7997
  156.1875  140.1686  156.8193 H   0  0  0  0  0  0  0  0  0  0  0  0  # atno 8009 bound_to 7997
  154.5403  140.0726  156.8482 H   0  0  0  0  0  0  0  0  0  0  0  0  # atno 8010 bound_to 7997
  140.0794  143.4802  152.1934 H   0  0  0  0  0  0  0  0  0  0  0  0  # atno 10167 bound_to 10162
  156.0668  130.4248  150.1568 H   0  0  0  0  0  0  0  0  0  0  0  0  # atno 10718 bound_to 10713
  153.0323  135.5186  154.7390 H   0  0  0  0  0  0  0  0  0  0  0  0  # atno 10763 bound_to 10752
  154.6395  135.2910  155.0122 H   0  0  0  0  0  0  0  0  0  0  0  0  # atno 10764 bound_to 10752
  154.1045  135.6631  153.4926 H   0  0  0  0  0  0  0  0  0  0  0  0  # atno 10765 bound_to 10752
  140.2503  134.3311  155.7893 H   0  0  0  0  0  0  0  0  0  0  0  0  # atno 11005 bound_to 11000
  145.4862  141.0438  143.2618 LP  0  0  0  0  0  0  0  0  0  0  0  0  # atno 17320 bound_to 7965
  144.7884  139.6378  143.7124 LP  0  0  0  0  0  0  0  0  0  0  0  0  # atno 17321 bound_to 7965
  139.5788  144.7501  151.3693 LP  0  0  0  0  0  0  0  0  0  0  0  0  # atno 17342 bound_to 10162
  140.7085  143.7451  150.7525 LP  0  0  0  0  0  0  0  0  0  0  0  0  # atno 17343 bound_to 10162
  156.9626  130.9810  151.3476 LP  0  0  0  0  0  0  0  0  0  0  0  0  # atno 17370 bound_to 10713
  157.5714  130.8313  149.8397 LP  0  0  0  0  0  0  0  0  0  0  0  0  # atno 17371 bound_to 10713
  141.2202  133.7349  156.9026 LP  0  0  0  0  0  0  0  0  0  0  0  0  # atno 17394 bound_to 11000
  140.1565  134.9195  157.2660 LP  0  0  0  0  0  0  0  0  0  0  0  0  # atno 17395 bound_to 11000

$$$$
